3V5L_0G1_A_701
     RDKit          3D

 56 60  0  0  0  0  0  0  0  0999 V2000
   14.0830    8.7330    0.4150 C   0  0  0  0  0  0  0  0  0  0  0  0
   13.0540    9.1270    1.3270 O   0  0  0  0  0  0  0  0  0  0  0  0
   11.9110    8.4330    1.0720 C   0  0  0  0  0  0  0  0  0  0  0  0
   11.7370    7.1520    1.5980 C   0  0  0  0  0  0  0  0  0  0  0  0
   10.5550    6.4540    1.3510 C   0  0  0  0  0  0  0  0  0  0  0  0
   10.9080    9.0040    0.2900 C   0  0  0  0  0  0  0  0  0  0  0  0
    9.7290    8.3000    0.0350 C   0  0  0  0  0  0  0  0  0  0  0  0
    9.5660    7.0090    0.5360 C   0  0  0  0  0  0  0  0  0  0  0  0
    8.3890    6.3000    0.3150 C   0  0  0  0  0  0  0  0  0  0  0  0
    7.2280    6.5520    1.0330 C   0  0  0  0  0  0  0  0  0  0  0  0
    6.8620    7.5220    1.9710 C   0  0  0  0  0  0  0  0  0  0  0  0
    5.5670    7.5210    2.4970 C   0  0  0  0  0  0  0  0  0  0  0  0
    4.6410    6.5460    2.1050 C   0  0  0  0  0  0  0  0  0  0  0  0
    3.2120    6.5460    2.6950 C   0  0  0  0  0  0  0  0  0  0  0  0
    3.2760    6.7070    4.2180 C   0  0  0  0  0  0  0  0  0  0  0  0
    4.0250    5.5430    4.8760 C   0  0  0  0  0  0  0  0  0  0  0  0
    2.4140    7.7140    2.1080 C   0  0  0  0  0  0  0  0  0  0  0  0
    2.0640    7.4790    0.6360 C   0  0  0  0  0  0  0  0  0  0  0  0
    2.5320    5.3190    2.4010 O   0  0  0  0  0  0  0  0  0  0  0  0
    5.0230    5.5730    1.1760 C   0  0  0  0  0  0  0  0  0  0  0  0
    6.3090    5.5840    0.6330 C   0  0  0  0  0  0  0  0  0  0  0  0
    6.9070    4.7780   -0.2400 N   0  0  0  0  0  0  0  0  0  0  0  0
    8.1770    5.1410   -0.4440 C   0  0  0  0  0  0  0  0  0  0  0  0
    9.0170    4.4830   -1.3600 C   0  0  0  0  0  0  0  0  0  0  0  0
   10.2630    4.8540   -1.8620 C   0  0  0  0  0  0  0  0  0  0  0  0
   11.5770    5.9160   -1.8420 S   0  0  0  0  0  0  0  0  0  0  0  0
   12.5140    5.1070   -2.9870 C   0  0  0  0  0  0  0  0  0  0  0  0
   11.8110    4.0290   -3.3620 C   0  0  0  0  0  0  0  0  0  0  0  0
   10.6080    3.8480   -2.7710 C   0  0  0  0  0  0  0  0  0  0  0  0
    9.5780    2.9980   -2.7760 N   0  0  0  0  0  0  0  0  0  0  0  0
    8.6830    3.3640   -2.0070 N   0  0  0  0  0  0  0  0  0  0  0  0
   14.9643    8.3955    0.9801 H   0  0  0  0  0  0  0  0  0  0  0  0
   13.7169    7.9115   -0.2183 H   0  0  0  0  0  0  0  0  0  0  0  0
   14.3592    9.5890   -0.2183 H   0  0  0  0  0  0  0  0  0  0  0  0
   12.5307    6.6937    2.2063 H   0  0  0  0  0  0  0  0  0  0  0  0
   10.4011    5.4618    1.8002 H   0  0  0  0  0  0  0  0  0  0  0  0
   11.0456   10.0123   -0.1276 H   0  0  0  0  0  0  0  0  0  0  0  0
    8.9292    8.7639   -0.5609 H   0  0  0  0  0  0  0  0  0  0  0  0
    7.5892    8.2818    2.2933 H   0  0  0  0  0  0  0  0  0  0  0  0
    5.2728    8.2919    3.2244 H   0  0  0  0  0  0  0  0  0  0  0  0
    3.7959    7.6466    4.4564 H   0  0  0  0  0  0  0  0  0  0  0  0
    2.2471    6.7186    4.6069 H   0  0  0  0  0  0  0  0  0  0  0  0
    3.9633    5.6390    5.9701 H   0  0  0  0  0  0  0  0  0  0  0  0
    3.5694    4.5913    4.5651 H   0  0  0  0  0  0  0  0  0  0  0  0
    5.0800    5.5633    4.5651 H   0  0  0  0  0  0  0  0  0  0  0  0
    3.0143    8.6322    2.1893 H   0  0  0  0  0  0  0  0  0  0  0  0
    1.4746    7.8052    2.6730 H   0  0  0  0  0  0  0  0  0  0  0  0
    1.1524    6.8670    0.5690 H   0  0  0  0  0  0  0  0  0  0  0  0
    1.8934    8.4463    0.1407 H   0  0  0  0  0  0  0  0  0  0  0  0
    2.8947    6.9549    0.1407 H   0  0  0  0  0  0  0  0  0  0  0  0
    2.2826    4.8690    3.2468 H   0  0  0  0  0  0  0  0  0  0  0  0
    4.3069    4.7954    0.8718 H   0  0  0  0  0  0  0  0  0  0  0  0
    6.4502    3.9773   -0.6995 H   0  0  0  0  0  0  0  0  0  0  0  0
   13.5071    5.4053   -3.3541 H   0  0  0  0  0  0  0  0  0  0  0  0
   12.1945    3.3247   -4.1150 H   0  0  0  0  0  0  0  0  0  0  0  0
    9.5351    2.1436   -3.3496 H   0  0  0  0  0  0  0  0  0  0  0  0
 28 27  2  0
 28 29  1  0
 27 26  1  0
 30 29  1  0
 30 31  1  0
 29 25  2  0
 31 24  2  0
 25 26  1  0
 25 24  1  0
 24 23  1  0
 23 22  1  0
 23  9  2  0
 22 21  1  0
  7  6  1  0
  7  8  2  0
  6  3  2  0
  9  8  1  0
  9 10  1  0
  1  2  1  0
  8  5  1  0
 21 10  1  0
 21 20  2  0
 18 17  1  0
 10 11  2  0
  3  2  1  0
  3  4  1  0
 20 13  1  0
  5  4  2  0
 11 12  1  0
 13 12  2  0
 13 14  1  0
 17 14  1  0
 19 14  1  0
 14 15  1  0
 15 16  1  0
  1 32  1  0
  1 33  1  0
  1 34  1  0
  4 35  1  0
  5 36  1  0
  6 37  1  0
  7 38  1  0
 11 39  1  0
 12 40  1  0
 15 41  1  0
 15 42  1  0
 16 43  1  0
 16 44  1  0
 16 45  1  0
 17 46  1  0
 17 47  1  0
 18 48  1  0
 18 49  1  0
 18 50  1  0
 19 51  1  0
 20 52  1  0
 22 53  1  0
 27 54  1  0
 28 55  1  0
 30 56  1  0
A    1
CBE
A    2
OBD
A    3
CBA
A    4
CBB
A    5
CBC
A    6
CAZ
A    7
CAY
A    8
CAX
A    9
CAG
A   10
CAH
A   11
CAA
A   12
CAB
A   13
CAC
A   14
CAJ
A   15
CAK
A   16
CAO
A   17
CAM
A   18
CAN
A   19
OAL
A   20
CAD
A   21
CAI
A   22
NAE
A   23
CAF
A   24
CAP
A   25
CAT
A   26
SAS
A   27
CAW
A   28
CAV
A   29
CAU
A   30
NAR
A   31
NAQ
M  END
