3V66_D3A_A_402
     RDKit          3D

 69 73  0  0  0  0  0  0  0  0999 V2000
   21.8720   -2.1330   53.0910 C   0  0  0  0  0  0  0  0  0  0  0  0
   20.5930   -1.4920   52.8580 O   0  0  0  0  0  0  0  0  0  0  0  0
   20.3380   -0.2750   53.4560 C   0  0  0  0  0  0  0  0  0  0  0  0
   20.9950    0.9090   53.0810 C   0  0  0  0  0  0  0  0  0  0  0  0
   21.9090    0.7880   52.0390 O   0  0  0  0  0  0  0  0  0  0  0  0
   22.6030    1.9300   51.5030 C   0  0  0  0  0  0  0  0  0  0  0  0
   20.6550    2.1270   53.7100 C   0  0  0  0  0  0  0  0  0  0  0  0
   19.7170    2.1660   54.7330 C   0  0  0  0  0  0  0  0  0  0  0  0
   19.0780    0.9910   55.1100 C   0  0  0  0  0  0  0  0  0  0  0  0
   19.3970   -0.2230   54.4790 C   0  0  0  0  0  0  0  0  0  0  0  0
   18.6810   -1.4890   54.9610 C   0  0  0  0  0  0  0  0  0  0  0  0
   17.4260   -1.9000   54.1900 C   0  0  0  0  0  0  0  0  0  0  0  0
   18.3420   -1.4210   56.3810 O   0  0  0  0  0  0  0  0  0  0  0  0
   17.6050   -2.5030   56.9970 C   0  0  0  0  0  0  0  0  0  0  0  0
   17.9650   -3.8720   56.3740 C   0  0  0  0  0  0  0  0  0  0  0  0
   18.6620   -4.9580   56.8990 C   0  0  0  0  0  0  0  0  0  0  0  0
   18.7390   -5.9110   55.9120 C   0  0  0  0  0  0  0  0  0  0  0  0
   18.1040   -5.4160   54.7630 C   0  0  0  0  0  0  0  0  0  0  0  0
   17.6340   -4.1350   55.0220 N   0  0  0  0  0  0  0  0  0  0  0  0
   16.9620   -3.2470   54.2810 C   0  0  0  0  0  0  0  0  0  0  0  0
   15.8000   -3.5740   53.5210 C   0  0  0  0  0  0  0  0  0  0  0  0
   15.1670   -2.6030   52.7670 C   0  0  0  0  0  0  0  0  0  0  0  0
   15.6380   -1.3020   52.6960 C   0  0  0  0  0  0  0  0  0  0  0  0
   16.7640   -0.9220   53.4000 C   0  0  0  0  0  0  0  0  0  0  0  0
   14.7780   -0.1290   51.7330 Cl  0  0  0  0  0  0  0  0  0  0  0  0
   17.7820   -2.2220   58.5160 C   0  0  0  0  0  0  0  0  0  0  0  0
   16.4850   -2.4580   59.3080 C   0  0  0  0  0  0  0  0  0  0  0  0
   15.4810   -2.8610   58.6750 O   0  0  0  0  0  0  0  0  0  0  0  0
   16.4370   -2.2480   60.6450 N   0  0  0  0  0  0  0  0  0  0  0  0
   15.1130   -2.2500   61.3600 C   0  0  0  0  0  0  0  0  0  0  0  0
   14.8050   -0.8850   62.0180 C   0  0  0  0  0  0  0  0  0  0  0  0
   16.0200   -0.1600   62.6730 C   0  0  0  0  0  0  0  0  0  0  0  0
   17.3090   -0.2100   61.8080 C   0  0  0  0  0  0  0  0  0  0  0  0
   17.6340   -1.6380   61.3480 C   0  0  0  0  0  0  0  0  0  0  0  0
   15.6780    1.2980   63.0700 C   0  0  0  0  0  0  0  0  0  0  0  0
   14.5610    1.4340   64.0850 C   0  0  0  0  0  0  0  0  0  0  0  0
   14.5690    0.6630   65.0570 O   0  0  0  0  0  0  0  0  0  0  0  0
   13.6810    2.2960   63.8900 O   0  0  0  0  0  0  0  0  0  0  0  0
   22.0465   -2.2205   54.1735 H   0  0  0  0  0  0  0  0  0  0  0  0
   21.8676   -3.1354   52.6381 H   0  0  0  0  0  0  0  0  0  0  0  0
   22.6725   -1.5295   52.6381 H   0  0  0  0  0  0  0  0  0  0  0  0
   22.9802    2.5507   52.3291 H   0  0  0  0  0  0  0  0  0  0  0  0
   23.4470    1.5894   50.8852 H   0  0  0  0  0  0  0  0  0  0  0  0
   21.9120    2.5223   50.8852 H   0  0  0  0  0  0  0  0  0  0  0  0
   21.1406    3.0588   53.3845 H   0  0  0  0  0  0  0  0  0  0  0  0
   19.4828    3.1145   55.2384 H   0  0  0  0  0  0  0  0  0  0  0  0
   18.3191    1.0115   55.9060 H   0  0  0  0  0  0  0  0  0  0  0  0
   19.4342   -2.2662   54.7643 H   0  0  0  0  0  0  0  0  0  0  0  0
   16.5225   -2.5579   56.8094 H   0  0  0  0  0  0  0  0  0  0  0  0
   19.0744   -5.0379   57.9156 H   0  0  0  0  0  0  0  0  0  0  0  0
   19.2181   -6.8966   56.0068 H   0  0  0  0  0  0  0  0  0  0  0  0
   17.9958   -5.9555   53.8105 H   0  0  0  0  0  0  0  0  0  0  0  0
   15.4065   -4.6011   53.5348 H   0  0  0  0  0  0  0  0  0  0  0  0
   14.2602   -2.8722   52.2055 H   0  0  0  0  0  0  0  0  0  0  0  0
   17.1385    0.1111   53.3503 H   0  0  0  0  0  0  0  0  0  0  0  0
   18.5635   -2.8882   58.9103 H   0  0  0  0  0  0  0  0  0  0  0  0
   18.0598   -1.1640   58.6325 H   0  0  0  0  0  0  0  0  0  0  0  0
   14.3188   -2.4815   60.6350 H   0  0  0  0  0  0  0  0  0  0  0  0
   15.1594   -3.0072   62.1566 H   0  0  0  0  0  0  0  0  0  0  0  0
   14.3934   -0.2216   61.2431 H   0  0  0  0  0  0  0  0  0  0  0  0
   14.1057   -1.0995   62.8396 H   0  0  0  0  0  0  0  0  0  0  0  0
   16.2367   -0.7255   63.5913 H   0  0  0  0  0  0  0  0  0  0  0  0
   18.1516    0.1726   62.4027 H   0  0  0  0  0  0  0  0  0  0  0  0
   17.1432    0.4073   60.9128 H   0  0  0  0  0  0  0  0  0  0  0  0
   17.8925   -2.2516   62.2236 H   0  0  0  0  0  0  0  0  0  0  0  0
   18.4822   -1.6049   60.6483 H   0  0  0  0  0  0  0  0  0  0  0  0
   16.5828    1.7589   63.4929 H   0  0  0  0  0  0  0  0  0  0  0  0
   15.3263    1.7945   62.1536 H   0  0  0  0  0  0  0  0  0  0  0  0
   14.5652    1.0270   65.9776 H   0  0  0  0  0  0  0  0  0  0  0  0
  6  5  1  0
 25 23  1  0
  5  4  1  0
 23 22  2  0
 23 24  1  0
 22 21  1  0
  2  1  1  0
  2  3  1  0
  4  3  2  0
  4  7  1  0
 24 12  2  0
  3 10  1  0
 21 20  2  0
  7  8  2  0
 12 20  1  0
 12 11  1  0
 20 19  1  0
 10 11  1  0
 10  9  2  0
  8  9  1  0
 18 19  1  0
 18 17  2  0
 11 13  1  0
 19 15  1  0
 17 16  1  0
 15 16  2  0
 15 14  1  0
 13 14  1  0
 14 26  1  0
 26 27  1  0
 28 27  2  0
 27 29  1  0
 29 34  1  0
 29 30  1  0
 34 33  1  0
 30 31  1  0
 33 32  1  0
 31 32  1  0
 32 35  1  0
 35 36  1  0
 38 36  2  0
 36 37  1  0
  1 39  1  0
  1 40  1  0
  1 41  1  0
  6 42  1  0
  6 43  1  0
  6 44  1  0
  7 45  1  0
  8 46  1  0
  9 47  1  0
 11 48  1  0
 14 49  1  0
 16 50  1  0
 17 51  1  0
 18 52  1  0
 21 53  1  0
 22 54  1  0
 24 55  1  0
 26 56  1  0
 26 57  1  0
 30 58  1  0
 30 59  1  0
 31 60  1  0
 31 61  1  0
 32 62  1  0
 33 63  1  0
 33 64  1  0
 34 65  1  0
 34 66  1  0
 35 67  1  0
 35 68  1  0
 37 69  1  0
A    1
C37
A    2
O36
A    3
C21
A    4
C20
A    5
O34
A    6
C35
A    7
C19
A    8
C18
A    9
C17
A   10
C8
A   11
C7
A   12
C1
A   13
O6
A   14
C5
A   15
C4
A   16
C10
A   17
C11
A   18
C12
A   19
N3
A   20
C2
A   21
C13
A   22
C14
A   23
C15
A   24
C16
A   25
CL1
A   26
C9
A   27
C22
A   28
O24
A   29
N23
A   30
C25
A   31
C26
A   32
C27
A   33
C28
A   34
C29
A   35
C30
A   36
C31
A   37
O32
A   38
O33
M  END
