3V7T_0GX_A_301
     RDKit          3D

 58 61  0  0  0  0  0  0  0  0999 V2000
   50.7940   -9.3510   -7.2960 C   0  0  0  0  0  0  0  0  0  0  0  0
   50.3620   -9.9000   -5.9450 C   0  0  0  0  0  0  0  0  0  0  0  0
   50.8420  -11.3410   -5.7950 C   0  0  0  0  0  0  0  0  0  0  0  0
   50.4700  -11.8350   -4.5040 O   0  0  0  0  0  0  0  0  0  0  0  0
   49.1420  -12.1150   -4.4490 C   0  0  0  0  0  0  0  0  0  0  0  0
   48.2740  -13.0790   -5.5360 S   0  0  0  0  0  0  0  0  0  0  0  0
   48.2710  -11.6490   -3.4690 C   0  0  0  0  0  0  0  0  0  0  0  0
   48.8340  -10.5280   -2.0510 Br  0  0  0  0  0  0  0  0  0  0  0  0
   46.9470  -12.0780   -3.6450 C   0  0  0  0  0  0  0  0  0  0  0  0
   45.8120  -11.6970   -2.6870 C   0  0  0  0  0  0  0  0  0  0  0  0
   46.7880  -12.9270   -4.7450 C   0  0  0  0  0  0  0  0  0  0  0  0
   45.4730  -13.4890   -5.2730 C   0  0  0  0  0  0  0  0  0  0  0  0
   45.0740  -13.1170   -6.3760 O   0  0  0  0  0  0  0  0  0  0  0  0
   44.7450  -14.3650   -4.5760 N   0  0  0  0  0  0  0  0  0  0  0  0
   43.4690  -14.9460   -5.0020 C   0  0  0  0  0  0  0  0  0  0  0  0
   43.7090  -16.4240   -5.3640 C   0  0  0  0  0  0  0  0  0  0  0  0
   42.6460  -14.8500   -3.7060 C   0  0  0  0  0  0  0  0  0  0  0  0
   43.6870  -14.8430   -2.5620 C   0  0  0  0  0  0  0  0  0  0  0  0
   45.0550  -14.9330   -3.2620 C   0  0  0  0  0  0  0  0  0  0  0  0
   45.4330  -16.4150   -3.4680 C   0  0  0  0  0  0  0  0  0  0  0  0
   44.2790  -17.1860   -4.1500 C   0  0  0  0  0  0  0  0  0  0  0  0
   44.7010  -18.6200   -4.5010 C   0  0  0  0  0  0  0  0  0  0  0  0
   45.2030  -18.9550   -5.7640 C   0  0  0  0  0  0  0  0  0  0  0  0
   44.5770  -19.6030   -3.5190 C   0  0  0  0  0  0  0  0  0  0  0  0
   44.0930  -19.2720   -2.3050 F   0  0  0  0  0  0  0  0  0  0  0  0
   44.9470  -20.9210   -3.7900 C   0  0  0  0  0  0  0  0  0  0  0  0
   45.4470  -21.2560   -5.0480 C   0  0  0  0  0  0  0  0  0  0  0  0
   45.5760  -20.2740   -6.0350 C   0  0  0  0  0  0  0  0  0  0  0  0
   46.1330  -20.6540   -7.4100 C   0  0  0  0  0  0  0  0  0  0  0  0
   45.0980  -20.4520   -8.4320 N   0  0  0  0  0  0  0  0  0  0  0  0
   51.4678   -8.4947   -7.1453 H   0  0  0  0  0  0  0  0  0  0  0  0
   51.3191  -10.1360   -7.8599 H   0  0  0  0  0  0  0  0  0  0  0  0
   49.9075   -9.0252   -7.8599 H   0  0  0  0  0  0  0  0  0  0  0  0
   50.7982   -9.2846   -5.1444 H   0  0  0  0  0  0  0  0  0  0  0  0
   49.2644   -9.8738   -5.8765 H   0  0  0  0  0  0  0  0  0  0  0  0
   50.3791  -11.9648   -6.5738 H   0  0  0  0  0  0  0  0  0  0  0  0
   51.9364  -11.3762   -5.9001 H   0  0  0  0  0  0  0  0  0  0  0  0
   46.1549  -11.8121   -1.6482 H   0  0  0  0  0  0  0  0  0  0  0  0
   45.5193  -10.6513   -2.8628 H   0  0  0  0  0  0  0  0  0  0  0  0
   44.9476  -12.3542   -2.8628 H   0  0  0  0  0  0  0  0  0  0  0  0
   42.9946  -14.4629   -5.8689 H   0  0  0  0  0  0  0  0  0  0  0  0
   42.7561  -16.8831   -5.6660 H   0  0  0  0  0  0  0  0  0  0  0  0
   44.4316  -16.4772   -6.1917 H   0  0  0  0  0  0  0  0  0  0  0  0
   42.0533  -13.9234   -3.6935 H   0  0  0  0  0  0  0  0  0  0  0  0
   41.9349  -15.6836   -3.6087 H   0  0  0  0  0  0  0  0  0  0  0  0
   43.6126  -13.9137   -1.9782 H   0  0  0  0  0  0  0  0  0  0  0  0
   43.5298  -15.6730   -1.8575 H   0  0  0  0  0  0  0  0  0  0  0  0
   45.8717  -14.4422   -2.7122 H   0  0  0  0  0  0  0  0  0  0  0  0
   45.6443  -16.8726   -2.4903 H   0  0  0  0  0  0  0  0  0  0  0  0
   46.3216  -16.4658   -4.1144 H   0  0  0  0  0  0  0  0  0  0  0  0
   43.4559  -17.2601   -3.4241 H   0  0  0  0  0  0  0  0  0  0  0  0
   45.3035  -18.1824   -6.5406 H   0  0  0  0  0  0  0  0  0  0  0  0
   44.8446  -21.6934   -3.0136 H   0  0  0  0  0  0  0  0  0  0  0  0
   45.7402  -22.2939   -5.2641 H   0  0  0  0  0  0  0  0  0  0  0  0
   46.4389  -21.7106   -7.4022 H   0  0  0  0  0  0  0  0  0  0  0  0
   47.0029  -20.0213   -7.6401 H   0  0  0  0  0  0  0  0  0  0  0  0
   44.1927  -20.2753   -7.9736 H   0  0  0  0  0  0  0  0  0  0  0  0
   45.3488  -19.6441   -9.0196 H   0  0  0  0  0  0  0  0  0  0  0  0
 30 29  1  0
 29 28  1  0
  1  2  1  0
 13 12  2  0
 28 23  2  0
 28 27  1  0
  2  3  1  0
  3  4  1  0
 23 22  1  0
  6 11  1  0
  6  5  1  0
 16 15  1  0
 16 21  1  0
 12 11  1  0
 12 14  1  0
 27 26  2  0
 15 14  1  0
 15 17  1  0
 11  9  2  0
 14 19  1  0
  4  5  1  0
 22 21  1  0
 22 24  2  0
  5  7  2  0
 21 20  1  0
 26 24  1  0
 17 18  1  0
  9  7  1  0
  9 10  1  0
 24 25  1  0
  7  8  1  0
 20 19  1  0
 19 18  1  0
  1 31  1  0
  1 32  1  0
  1 33  1  0
  2 34  1  0
  2 35  1  0
  3 36  1  0
  3 37  1  0
 10 38  1  0
 10 39  1  0
 10 40  1  0
 15 41  1  0
 16 42  1  0
 16 43  1  0
 17 44  1  0
 17 45  1  0
 18 46  1  0
 18 47  1  0
 19 48  1  0
 20 49  1  0
 20 50  1  0
 21 51  1  0
 23 52  1  0
 26 53  1  0
 27 54  1  0
 29 55  1  0
 29 56  1  0
 30 57  1  0
 30 58  1  0
A    1
CBD
A    2
CAT
A    3
CAS
A    4
OAR
A    5
CAN
A    6
SAO
A    7
CAM
A    8
BR1
A    9
CAL
A   10
CAP
A   11
CAK
A   12
CAI
A   13
OAJ
A   14
NAE
A   15
CAD
A   16
CAC
A   17
CAG
A   18
CAH
A   19
CAA
A   20
CAF
A   21
CAB
A   22
CAU
A   23
CAZ
A   24
CAV
A   25
FBA
A   26
CAW
A   27
CAX
A   28
CAY
A   29
CBB
A   30
NBC
M  END
