3V80_AOC_A_301
     RDKit          3D

 37 39  0  0  0  0  0  0  0  0999 V2000
   13.2570    8.3460   13.1990 C   0  0  0  0  0  0  0  0  0  0  0  0
   14.0830    9.1390   13.1010 C   0  0  0  0  0  0  0  0  0  0  0  0
   15.1340   10.1010   12.9510 C   0  0  0  0  0  0  0  0  0  0  0  0
   15.0040   10.6220   11.6910 O   0  0  0  0  0  0  0  0  0  0  0  0
   14.7510    9.6460   10.7230 C   0  0  0  0  0  0  0  0  0  0  0  0
   16.0220    9.6140    9.9710 C   0  0  0  0  0  0  0  0  0  0  0  0
   16.3250    8.3030    9.8800 O   0  0  0  0  0  0  0  0  0  0  0  0
   15.7620   10.0110    8.5430 C   0  0  0  0  0  0  0  0  0  0  0  0
   15.7640   11.4180    8.4120 O   0  0  0  0  0  0  0  0  0  0  0  0
   16.9730    9.3470    7.9210 C   0  0  0  0  0  0  0  0  0  0  0  0
   18.0400   10.2310    7.8890 O   0  0  0  0  0  0  0  0  0  0  0  0
   17.2910    8.2230    8.9110 C   0  0  0  0  0  0  0  0  0  0  0  0
   17.1330    6.9100    8.3200 N   0  0  0  0  0  0  0  0  0  0  0  0
   16.0530    6.3940    7.7920 C   0  0  0  0  0  0  0  0  0  0  0  0
   16.3260    5.1800    7.3650 N   0  0  0  0  0  0  0  0  0  0  0  0
   17.5830    4.9140    7.6240 C   0  0  0  0  0  0  0  0  0  0  0  0
   18.0800    6.0240    8.2290 C   0  0  0  0  0  0  0  0  0  0  0  0
   19.3290    6.0530    8.6050 N   0  0  0  0  0  0  0  0  0  0  0  0
   20.1030    5.0390    8.4100 C   0  0  0  0  0  0  0  0  0  0  0  0
   19.6820    3.9640    7.8280 N   0  0  0  0  0  0  0  0  0  0  0  0
   18.4420    3.8450    7.4130 C   0  0  0  0  0  0  0  0  0  0  0  0
   18.1000    2.7230    6.8460 N   0  0  0  0  0  0  0  0  0  0  0  0
   12.4664    7.5870   13.2928 H   0  0  0  0  0  0  0  0  0  0  0  0
   16.1141    9.6142   13.0622 H   0  0  0  0  0  0  0  0  0  0  0  0
   15.0670   10.8877   13.7169 H   0  0  0  0  0  0  0  0  0  0  0  0
   13.9112    9.9361   10.0744 H   0  0  0  0  0  0  0  0  0  0  0  0
   14.4628    8.6714   11.1440 H   0  0  0  0  0  0  0  0  0  0  0  0
   16.7784   10.2563   10.4456 H   0  0  0  0  0  0  0  0  0  0  0  0
   14.7974    9.7202    8.1015 H   0  0  0  0  0  0  0  0  0  0  0  0
   15.7646   11.8331    9.3108 H   0  0  0  0  0  0  0  0  0  0  0  0
   16.7956    9.0060    6.8903 H   0  0  0  0  0  0  0  0  0  0  0  0
   18.3106   10.4552    8.8145 H   0  0  0  0  0  0  0  0  0  0  0  0
   18.3266    8.3386    9.2633 H   0  0  0  0  0  0  0  0  0  0  0  0
   15.0759    6.8937    7.7173 H   0  0  0  0  0  0  0  0  0  0  0  0
   21.1486    5.0906    8.7479 H   0  0  0  0  0  0  0  0  0  0  0  0
   17.8516    1.9081    7.4250 H   0  0  0  0  0  0  0  0  0  0  0  0
   18.0780    2.6508    5.8188 H   0  0  0  0  0  0  0  0  0  0  0  0
 22 21  1  0
 15 16  1  0
 15 14  2  0
 21 16  2  0
 21 20  1  0
 16 17  1  0
 14 13  1  0
 20 19  2  0
 11 10  1  0
 10  8  1  0
 10 12  1  0
 17 13  1  0
 17 18  2  0
 13 12  1  0
 19 18  1  0
  9  8  1  0
  8  6  1  0
 12  7  1  0
  7  6  1  0
  6  5  1  0
  5  4  1  0
  4  3  1  0
  3  2  1  0
  2  1  3  0
  1 23  1  0
  3 24  1  0
  3 25  1  0
  5 26  1  0
  5 27  1  0
  6 28  1  0
  8 29  1  0
  9 30  1  0
 10 31  1  0
 11 32  1  0
 12 33  1  0
 14 34  1  0
 19 35  1  0
 22 36  1  0
 22 37  1  0
A    1
CAA
A    2
CAE
A    3
CAH
A    4
O5'
A    5
C5'
A    6
C4'
A    7
O4'
A    8
C3'
A    9
O3'
A   10
C2'
A   11
O2'
A   12
C1'
A   13
N9
A   14
C8
A   15
N7
A   16
C5
A   17
C4
A   18
N3
A   19
C2
A   20
N1
A   21
C6
A   22
N6
M  END
