3V8N_5CI_A_302
     RDKit          3D

 51 53  0  0  0  0  0  0  0  0999 V2000
   11.1450    9.6390   16.4980 O   0  0  0  0  0  0  0  0  0  0  0  0
   11.1260   10.4540   15.5710 C   0  0  0  0  0  0  0  0  0  0  0  0
   10.7640   11.6290   15.6290 O   0  0  0  0  0  0  0  0  0  0  0  0
   11.5110    9.9530   14.2110 C   0  0  0  0  0  0  0  0  0  0  0  0
   12.7700    9.1160   14.1850 C   0  0  0  0  0  0  0  0  0  0  0  0
   14.0550    9.5030   14.8460 C   0  0  0  0  0  0  0  0  0  0  0  0
   14.5970    8.2130   15.4350 C   0  0  0  0  0  0  0  0  0  0  0  0
   15.7970    8.1780   15.6730 O   0  0  0  0  0  0  0  0  0  0  0  0
   13.8120    7.2670   15.5810 O   0  0  0  0  0  0  0  0  0  0  0  0
   12.7800    7.8960   13.5290 O   0  0  0  0  0  0  0  0  0  0  0  0
   13.1070    9.8400   12.8310 C   0  0  0  0  0  0  0  0  0  0  0  0
   12.8340   11.0240   12.6790 O   0  0  0  0  0  0  0  0  0  0  0  0
   13.6300    9.1590   11.8080 N   0  0  0  0  0  0  0  0  0  0  0  0
   13.8420    9.8540   10.5120 C   0  0  0  0  0  0  0  0  0  0  0  0
   15.2600    9.7520    9.8790 C   0  0  0  0  0  0  0  0  0  0  0  0
   15.6560    8.4250    9.6720 O   0  0  0  0  0  0  0  0  0  0  0  0
   15.2640   10.2560    8.4380 C   0  0  0  0  0  0  0  0  0  0  0  0
   15.3030   11.6670    8.3390 O   0  0  0  0  0  0  0  0  0  0  0  0
   16.5610    9.6730    7.9390 C   0  0  0  0  0  0  0  0  0  0  0  0
   17.6070   10.5800    8.1430 O   0  0  0  0  0  0  0  0  0  0  0  0
   16.8010    8.5050    8.8560 C   0  0  0  0  0  0  0  0  0  0  0  0
   16.9000    7.2270    8.1470 N   0  0  0  0  0  0  0  0  0  0  0  0
   16.0140    6.6370    7.3590 C   0  0  0  0  0  0  0  0  0  0  0  0
   14.3380    7.2870    6.8170 Br  0  0  0  0  0  0  0  0  0  0  0  0
   16.4730    5.4800    6.9510 N   0  0  0  0  0  0  0  0  0  0  0  0
   17.6640    5.3170    7.4750 C   0  0  0  0  0  0  0  0  0  0  0  0
   17.9310    6.4190    8.2340 C   0  0  0  0  0  0  0  0  0  0  0  0
   19.0790    6.4980    8.8920 N   0  0  0  0  0  0  0  0  0  0  0  0
   19.9510    5.5360    8.8110 C   0  0  0  0  0  0  0  0  0  0  0  0
   19.7330    4.4740    8.0890 N   0  0  0  0  0  0  0  0  0  0  0  0
   18.6130    4.3270    7.4100 C   0  0  0  0  0  0  0  0  0  0  0  0
   18.4270    3.2480    6.6940 N   0  0  0  0  0  0  0  0  0  0  0  0
   11.1376    9.9558   17.4359 H   0  0  0  0  0  0  0  0  0  0  0  0
   11.6628   10.8226   13.5547 H   0  0  0  0  0  0  0  0  0  0  0  0
   10.6930    9.2987   13.8752 H   0  0  0  0  0  0  0  0  0  0  0  0
   14.7591    9.9178   14.1097 H   0  0  0  0  0  0  0  0  0  0  0  0
   13.9086   10.2782   15.6126 H   0  0  0  0  0  0  0  0  0  0  0  0
   13.5627    6.9665   16.4908 H   0  0  0  0  0  0  0  0  0  0  0  0
   12.7860    7.1634   14.1948 H   0  0  0  0  0  0  0  0  0  0  0  0
   13.8827    8.1663   11.9159 H   0  0  0  0  0  0  0  0  0  0  0  0
   13.6243   10.9209   10.6682 H   0  0  0  0  0  0  0  0  0  0  0  0
   13.1749    9.3436    9.8018 H   0  0  0  0  0  0  0  0  0  0  0  0
   15.8976   10.3145   10.5770 H   0  0  0  0  0  0  0  0  0  0  0  0
   14.3585    9.9695    7.8830 H   0  0  0  0  0  0  0  0  0  0  0  0
   15.3139   12.0613    9.2470 H   0  0  0  0  0  0  0  0  0  0  0  0
   16.5154    9.4186    6.8698 H   0  0  0  0  0  0  0  0  0  0  0  0
   17.7509   10.7047    9.1145 H   0  0  0  0  0  0  0  0  0  0  0  0
   17.7473    8.6647    9.3936 H   0  0  0  0  0  0  0  0  0  0  0  0
   20.8966    5.6216    9.3664 H   0  0  0  0  0  0  0  0  0  0  0  0
   18.2708    2.3421    7.1587 H   0  0  0  0  0  0  0  0  0  0  0  0
   18.4367    3.3043    5.6656 H   0  0  0  0  0  0  0  0  0  0  0  0
 32 31  1  0
 24 23  1  0
 25 23  2  0
 25 26  1  0
 23 22  1  0
 31 26  2  0
 31 30  1  0
 26 27  1  0
 19 20  1  0
 19 17  1  0
 19 21  1  0
 30 29  2  0
 22 27  1  0
 22 21  1  0
 27 28  2  0
 18 17  1  0
 17 15  1  0
 29 28  1  0
 21 16  1  0
 16 15  1  0
 15 14  1  0
 14 13  1  0
 13 11  1  0
 12 11  2  0
 11  5  1  0
  5  6  1  0
  5  4  1  0
  5 10  1  0
  6  7  1  0
  4  2  1  0
  7  8  2  0
  7  9  1  0
  3  2  2  0
  2  1  1  0
  1 33  1  0
  4 34  1  0
  4 35  1  0
  6 36  1  0
  6 37  1  0
  9 38  1  0
 10 39  1  0
 13 40  1  0
 14 41  1  0
 14 42  1  0
 15 43  1  0
 17 44  1  0
 18 45  1  0
 19 46  1  0
 20 47  1  0
 21 48  1  0
 29 49  1  0
 32 50  1  0
 32 51  1  0
A    1
O41
A    2
C51
A    3
O31
A    4
C41
A    5
C31
A    6
C21
A    7
C11
A    8
O21
A    9
O11
A   10
O71
A   11
C61
A   12
O51
A   13
N5'
A   14
C5'
A   15
C4'
A   16
O4'
A   17
C3'
A   18
O3'
A   19
C2'
A   20
O2'
A   21
C1'
A   22
N9
A   23
C8
A   24
BR8
A   25
N7
A   26
C5
A   27
C4
A   28
N3
A   29
C2
A   30
N1
A   31
C6
A   32
N6
M  END
