3V8N_5NB_A_301
     RDKit          3D

 33 35  0  0  0  0  0  0  0  0999 V2000
   18.2010    8.0640   13.1100 O   0  0  0  0  0  0  0  0  0  0  0  0
   19.1190    8.8320   13.8480 C   0  0  0  0  0  0  0  0  0  0  0  0
   19.4640    8.1510   15.1640 C   0  0  0  0  0  0  0  0  0  0  0  0
   18.4800    7.2070   15.5040 O   0  0  0  0  0  0  0  0  0  0  0  0
   19.4440    9.2540   16.1930 C   0  0  0  0  0  0  0  0  0  0  0  0
   20.8830    9.6450   16.3860 C   0  0  0  0  0  0  0  0  0  0  0  0
   20.9980   10.9420   17.0430 N   0  0  0  0  0  0  0  0  0  0  0  0
   18.7660   10.3400   15.6150 O   0  0  0  0  0  0  0  0  0  0  0  0
   18.3980   10.0690   14.2620 C   0  0  0  0  0  0  0  0  0  0  0  0
   18.8320   11.2120   13.4770 N   0  0  0  0  0  0  0  0  0  0  0  0
   18.0280   12.1410   13.0330 C   0  0  0  0  0  0  0  0  0  0  0  0
   16.1910   12.1220   13.3200 Br  0  0  0  0  0  0  0  0  0  0  0  0
   18.6870   13.0650   12.3800 N   0  0  0  0  0  0  0  0  0  0  0  0
   19.9480   12.7250   12.4070 C   0  0  0  0  0  0  0  0  0  0  0  0
   20.0490   11.5480   13.1090 C   0  0  0  0  0  0  0  0  0  0  0  0
   21.2430   10.9940   13.2690 N   0  0  0  0  0  0  0  0  0  0  0  0
   22.2940   11.5720   12.7590 C   0  0  0  0  0  0  0  0  0  0  0  0
   22.2330   12.6930   12.0890 N   0  0  0  0  0  0  0  0  0  0  0  0
   21.0850   13.2950   11.8900 C   0  0  0  0  0  0  0  0  0  0  0  0
   21.0570   14.4120   11.2120 N   0  0  0  0  0  0  0  0  0  0  0  0
   17.6098    7.5694   13.7313 H   0  0  0  0  0  0  0  0  0  0  0  0
   20.0190    8.9941   13.2367 H   0  0  0  0  0  0  0  0  0  0  0  0
   20.4307    7.6297   15.1033 H   0  0  0  0  0  0  0  0  0  0  0  0
   18.4119    7.1417   16.4895 H   0  0  0  0  0  0  0  0  0  0  0  0
   18.9663    8.9581   17.1386 H   0  0  0  0  0  0  0  0  0  0  0  0
   21.3806    8.8845   17.0056 H   0  0  0  0  0  0  0  0  0  0  0  0
   21.3588    9.7144   15.3967 H   0  0  0  0  0  0  0  0  0  0  0  0
   20.9864   10.8116   18.0646 H   0  0  0  0  0  0  0  0  0  0  0  0
   21.8821   11.3909   16.7642 H   0  0  0  0  0  0  0  0  0  0  0  0
   17.3169    9.9167   14.1276 H   0  0  0  0  0  0  0  0  0  0  0  0
   23.2756   11.0956   12.8985 H   0  0  0  0  0  0  0  0  0  0  0  0
   21.0344   15.3147   11.7074 H   0  0  0  0  0  0  0  0  0  0  0  0
   21.0576   14.3896   10.1822 H   0  0  0  0  0  0  0  0  0  0  0  0
 20 19  1  0
 19 18  1  0
 19 14  2  0
 18 17  2  0
 13 14  1  0
 13 11  2  0
 14 15  1  0
 17 16  1  0
 11 12  1  0
 11 10  1  0
 15 16  2  0
 15 10  1  0
  1  2  1  0
 10  9  1  0
  2  9  1  0
  2  3  1  0
  9  8  1  0
  3  4  1  0
  3  5  1  0
  8  5  1  0
  5  6  1  0
  6  7  1  0
  1 21  1  0
  2 22  1  0
  3 23  1  0
  4 24  1  0
  5 25  1  0
  6 26  1  0
  6 27  1  0
  7 28  1  0
  7 29  1  0
  9 30  1  0
 17 31  1  0
 20 32  1  0
 20 33  1  0
A    1
O2'
A    2
C2'
A    3
C3'
A    4
O3'
A    5
C4'
A    6
C5'
A    7
N5'
A    8
O4'
A    9
C1'
A   10
N9
A   11
C8
A   12
BR8
A   13
N7
A   14
C5
A   15
C4
A   16
N3
A   17
C2
A   18
N1
A   19
C6
A   20
N6
M  END
