3V8S_0HD_A_501
     RDKit          3D

 37 39  0  0  0  0  0  0  0  0999 V2000
  -43.7130    0.2100   35.5230 C   0  0  0  0  0  0  0  0  0  0  0  0
  -46.4180    3.1460   30.6340 N   0  0  0  0  0  0  0  0  0  0  0  0
  -46.3030    3.1620   29.2010 C   0  0  0  0  0  0  0  0  0  0  0  0
  -45.5000    4.0420   27.0780 C   0  0  0  0  0  0  0  0  0  0  0  0
  -47.0350    2.1300   27.1010 C   0  0  0  0  0  0  0  0  0  0  0  0
  -47.0610    2.1930   28.4960 C   0  0  0  0  0  0  0  0  0  0  0  0
  -44.5190    4.3300   31.3050 O   0  0  0  0  0  0  0  0  0  0  0  0
  -45.5500    3.7450   31.5960 C   0  0  0  0  0  0  0  0  0  0  0  0
  -45.8990    3.6130   32.9650 N   0  0  0  0  0  0  0  0  0  0  0  0
  -45.0380    4.1810   33.9540 C   0  0  0  0  0  0  0  0  0  0  0  0
  -45.1920    3.6770   35.3450 C   0  0  0  0  0  0  0  0  0  0  0  0
  -45.0400    2.2120   35.5930 C   0  0  0  0  0  0  0  0  0  0  0  0
  -46.0920    1.4910   36.1420 C   0  0  0  0  0  0  0  0  0  0  0  0
  -45.9540    0.1280   36.3790 C   0  0  0  0  0  0  0  0  0  0  0  0
  -44.7630   -0.5140   36.0710 C   0  0  0  0  0  0  0  0  0  0  0  0
  -43.8470    1.5700   35.2820 C   0  0  0  0  0  0  0  0  0  0  0  0
  -45.5270    4.1080   28.4900 C   0  0  0  0  0  0  0  0  0  0  0  0
  -46.2530    3.0700   26.3880 C   0  0  0  0  0  0  0  0  0  0  0  0
  -46.0510    3.2760   25.0540 N   0  0  0  0  0  0  0  0  0  0  0  0
  -45.2200    4.2860   24.8570 N   0  0  0  0  0  0  0  0  0  0  0  0
  -44.8350    4.8030   26.0210 C   0  0  0  0  0  0  0  0  0  0  0  0
  -42.7684   -0.2978   35.2782 H   0  0  0  0  0  0  0  0  0  0  0  0
  -47.2292    2.6381   31.0146 H   0  0  0  0  0  0  0  0  0  0  0  0
  -47.6128    1.3625   26.5652 H   0  0  0  0  0  0  0  0  0  0  0  0
  -47.6804    1.4783   29.0577 H   0  0  0  0  0  0  0  0  0  0  0  0
  -46.7581    3.1164   33.2411 H   0  0  0  0  0  0  0  0  0  0  0  0
  -44.0007    3.9881   33.6429 H   0  0  0  0  0  0  0  0  0  0  0  0
  -45.3145    5.2447   34.0004 H   0  0  0  0  0  0  0  0  0  0  0  0
  -44.4396    4.1905   35.9616 H   0  0  0  0  0  0  0  0  0  0  0  0
  -46.2438    3.8842   35.5916 H   0  0  0  0  0  0  0  0  0  0  0  0
  -47.0358    1.9988   36.3897 H   0  0  0  0  0  0  0  0  0  0  0  0
  -46.7897   -0.4420   36.8111 H   0  0  0  0  0  0  0  0  0  0  0  0
  -44.6514   -1.5918   36.2602 H   0  0  0  0  0  0  0  0  0  0  0  0
  -43.0119    2.1381   34.8463 H   0  0  0  0  0  0  0  0  0  0  0  0
  -44.9555    4.8802   29.0259 H   0  0  0  0  0  0  0  0  0  0  0  0
  -46.4861    2.7209   24.3034 H   0  0  0  0  0  0  0  0  0  0  0  0
  -44.1440    5.6471   26.1622 H   0  0  0  0  0  0  0  0  0  0  0  0
 19 20  1  0
 19 18  1  0
 20 21  2  0
 18  5  2  0
 18  4  1  0
 21  4  1  0
  5  6  1  0
  4 17  2  0
  6  3  2  0
 17  3  1  0
  3  2  1  0
  2  8  1  0
  7  8  2  0
  8  9  1  0
  9 10  1  0
 10 11  1  0
 11 12  1  0
 13 12  2  0
 13 14  1  0
 12 16  1  0
 14 15  2  0
 16  1  2  0
 15  1  1  0
  1 22  1  0
  2 23  1  0
  5 24  1  0
  6 25  1  0
  9 26  1  0
 10 27  1  0
 10 28  1  0
 11 29  1  0
 11 30  1  0
 13 31  1  0
 14 32  1  0
 15 33  1  0
 16 34  1  0
 17 35  1  0
 19 36  1  0
 21 37  1  0
A    1
C10
A    2
N12
A    3
C13
A    4
C15
A    5
C20
A    6
C21
A    7
O01
A    8
C02
A    9
N03
A   10
C04
A   11
C05
A   12
C06
A   13
C07
A   14
C08
A   15
C09
A   16
C11
A   17
C14
A   18
C16
A   19
N17
A   20
N18
A   21
C19
M  END
