3V8W_0G2_A_701
     RDKit          3D

 52 56  0  0  0  0  0  0  0  0999 V2000
  -52.5750  -15.7470   35.1470 C   0  0  0  0  0  0  0  0  0  0  0  0
  -52.7790  -15.7760   33.6280 C   0  0  0  0  0  0  0  0  0  0  0  0
  -51.9360  -16.8660   32.9530 C   0  0  0  0  0  0  0  0  0  0  0  0
  -50.4450  -16.5520   33.1510 C   0  0  0  0  0  0  0  0  0  0  0  0
  -49.5510  -17.6280   32.5280 C   0  0  0  0  0  0  0  0  0  0  0  0
  -52.2320  -18.1320   33.5580 O   0  0  0  0  0  0  0  0  0  0  0  0
  -52.2810  -16.8910   31.4500 C   0  0  0  0  0  0  0  0  0  0  0  0
  -51.8020  -15.8850   30.6030 C   0  0  0  0  0  0  0  0  0  0  0  0
  -53.0900  -17.9040   30.9240 C   0  0  0  0  0  0  0  0  0  0  0  0
  -53.4050  -17.9220   29.5630 C   0  0  0  0  0  0  0  0  0  0  0  0
  -52.9250  -16.9130   28.7280 C   0  0  0  0  0  0  0  0  0  0  0  0
  -53.0500  -16.6840   27.4250 C   0  0  0  0  0  0  0  0  0  0  0  0
  -52.1080  -15.9120   29.2410 C   0  0  0  0  0  0  0  0  0  0  0  0
  -51.8060  -15.1030   28.2310 N   0  0  0  0  0  0  0  0  0  0  0  0
  -52.3720  -15.5750   27.1200 C   0  0  0  0  0  0  0  0  0  0  0  0
  -52.2590  -14.9910   25.8580 C   0  0  0  0  0  0  0  0  0  0  0  0
  -51.5150  -13.9520   25.4870 N   0  0  0  0  0  0  0  0  0  0  0  0
  -51.6770  -13.7130   24.2830 N   0  0  0  0  0  0  0  0  0  0  0  0
  -52.5260  -14.5700   23.7060 C   0  0  0  0  0  0  0  0  0  0  0  0
  -53.0930  -14.8600   22.5110 C   0  0  0  0  0  0  0  0  0  0  0  0
  -52.9280  -15.4250   24.7300 C   0  0  0  0  0  0  0  0  0  0  0  0
  -54.0140  -16.5180   24.0680 S   0  0  0  0  0  0  0  0  0  0  0  0
  -53.9410  -15.9020   22.5000 C   0  0  0  0  0  0  0  0  0  0  0  0
  -54.6970  -16.4130   21.4430 C   0  0  0  0  0  0  0  0  0  0  0  0
  -54.8150  -15.6870   20.2540 C   0  0  0  0  0  0  0  0  0  0  0  0
  -55.5840  -16.1820   19.1990 C   0  0  0  0  0  0  0  0  0  0  0  0
  -56.2430  -17.4040   19.3280 C   0  0  0  0  0  0  0  0  0  0  0  0
  -56.1370  -18.1300   20.5150 C   0  0  0  0  0  0  0  0  0  0  0  0
  -55.3680  -17.6340   21.5690 C   0  0  0  0  0  0  0  0  0  0  0  0
  -53.5437  -15.8847   35.6497 H   0  0  0  0  0  0  0  0  0  0  0  0
  -51.8911  -16.5569   35.4406 H   0  0  0  0  0  0  0  0  0  0  0  0
  -52.1439  -14.7785   35.4406 H   0  0  0  0  0  0  0  0  0  0  0  0
  -52.4928  -14.7983   33.2130 H   0  0  0  0  0  0  0  0  0  0  0  0
  -53.8386  -15.9978   33.4327 H   0  0  0  0  0  0  0  0  0  0  0  0
  -50.2190  -15.5842   32.6796 H   0  0  0  0  0  0  0  0  0  0  0  0
  -50.2420  -16.5216   34.2317 H   0  0  0  0  0  0  0  0  0  0  0  0
  -49.0673  -18.2101   33.3262 H   0  0  0  0  0  0  0  0  0  0  0  0
  -50.1626  -18.2973   31.9051 H   0  0  0  0  0  0  0  0  0  0  0  0
  -48.7809  -17.1494   31.9051 H   0  0  0  0  0  0  0  0  0  0  0  0
  -52.2105  -18.0399   34.5435 H   0  0  0  0  0  0  0  0  0  0  0  0
  -51.1836  -15.0719   31.0109 H   0  0  0  0  0  0  0  0  0  0  0  0
  -53.4804  -18.6910   31.5860 H   0  0  0  0  0  0  0  0  0  0  0  0
  -54.0292  -18.7288   29.1514 H   0  0  0  0  0  0  0  0  0  0  0  0
  -53.6175  -17.3046   26.7159 H   0  0  0  0  0  0  0  0  0  0  0  0
  -51.2297  -14.2518   28.2958 H   0  0  0  0  0  0  0  0  0  0  0  0
  -50.8923  -13.4216   26.1130 H   0  0  0  0  0  0  0  0  0  0  0  0
  -52.8726  -14.2777   21.6042 H   0  0  0  0  0  0  0  0  0  0  0  0
  -54.2994  -14.7210   20.1492 H   0  0  0  0  0  0  0  0  0  0  0  0
  -55.6701  -15.6073   18.2650 H   0  0  0  0  0  0  0  0  0  0  0  0
  -56.8457  -17.7953   18.4951 H   0  0  0  0  0  0  0  0  0  0  0  0
  -56.6591  -19.0925   20.6200 H   0  0  0  0  0  0  0  0  0  0  0  0
  -55.2891  -18.2069   22.5047 H   0  0  0  0  0  0  0  0  0  0  0  0
 27 26  1  0
 27 28  2  0
 26 25  2  0
 28 29  1  0
 25 24  1  0
 29 24  2  0
 24 23  1  0
 23 20  2  0
 23 22  1  0
 20 19  1  0
 22 21  1  0
 19 21  1  0
 19 18  2  0
 21 16  2  0
 18 17  1  0
 16 17  1  0
 16 15  1  0
 12 15  2  0
 12 11  1  0
 15 14  1  0
 11 10  2  0
 11 13  1  0
 14 13  1  0
 10  9  1  0
 13  8  2  0
  9  7  2  0
  8  7  1  0
  7  3  1  0
  3  6  1  0
  3  2  1  0
  3  4  1  0
  2  1  1  0
  4  5  1  0
  1 30  1  0
  1 31  1  0
  1 32  1  0
  2 33  1  0
  2 34  1  0
  4 35  1  0
  4 36  1  0
  5 37  1  0
  5 38  1  0
  5 39  1  0
  6 40  1  0
  8 41  1  0
  9 42  1  0
 10 43  1  0
 12 44  1  0
 14 45  1  0
 17 46  1  0
 20 47  1  0
 25 48  1  0
 26 49  1  0
 27 50  1  0
 28 51  1  0
 29 52  1  0
A    1
CBB
A    2
CAY
A    3
CAS
A    4
CAZ
A    5
CBC
A    6
OBA
A    7
CAH
A    8
CAI
A    9
CAG
A   10
CAF
A   11
CAE
A   12
CAB
A   13
CAD
A   14
NAC
A   15
CAA
A   16
CAJ
A   17
NAK
A   18
NAL
A   19
CAN
A   20
CAO
A   21
CAM
A   22
SAQ
A   23
CAP
A   24
CAR
A   25
CAT
A   26
CAU
A   27
CAV
A   28
CAW
A   29
CAX
M  END
