3V9B_IHM_A_1
     RDKit          3D

 67 71  0  0  0  0  0  0  0  0999 V2000
   22.0370   -4.2780   32.7590 C   0  0  0  0  0  0  0  0  0  0  0  0
   21.7330   -3.0170   32.0400 C   0  0  0  0  0  0  0  0  0  0  0  0
   21.4470   -3.0270   30.6450 C   0  0  0  0  0  0  0  0  0  0  0  0
   21.4500   -4.2800   29.9280 C   0  0  0  0  0  0  0  0  0  0  0  0
   21.7360   -5.5000   30.6160 C   0  0  0  0  0  0  0  0  0  0  0  0
   22.0280   -5.5250   32.0140 C   0  0  0  0  0  0  0  0  0  0  0  0
   22.3520   -4.3750   34.1410 O   0  0  0  0  0  0  0  0  0  0  0  0
   22.4370   -3.2780   35.0400 C   0  0  0  0  0  0  0  0  0  0  0  0
   21.2610   -2.5950   35.1890 F   0  0  0  0  0  0  0  0  0  0  0  0
   23.4030   -2.4000   34.5850 F   0  0  0  0  0  0  0  0  0  0  0  0
   22.3230   -6.6530   32.7530 O   0  0  0  0  0  0  0  0  0  0  0  0
   22.9330   -7.7620   32.0400 C   0  0  0  0  0  0  0  0  0  0  0  0
   23.1440   -8.8430   33.0390 C   0  0  0  0  0  0  0  0  0  0  0  0
   21.8400   -9.4940   33.4440 C   0  0  0  0  0  0  0  0  0  0  0  0
   23.0720  -10.2930   33.0350 C   0  0  0  0  0  0  0  0  0  0  0  0
   21.1720   -4.3070   28.4470 C   0  0  0  0  0  0  0  0  0  0  0  0
   19.0310   -4.2710   22.5600 O   0  0  0  0  0  0  0  0  0  0  0  0
   22.9210   -5.6760   27.1440 C   0  0  0  0  0  0  0  0  0  0  0  0
   22.9780   -6.9990   26.6710 C   0  0  0  0  0  0  0  0  0  0  0  0
   21.7090   -7.5970   27.0760 C   0  0  0  0  0  0  0  0  0  0  0  0
   20.9700   -6.6710   27.7470 N   0  0  0  0  0  0  0  0  0  0  0  0
   21.6750   -5.5350   27.7910 N   0  0  0  0  0  0  0  0  0  0  0  0
   21.2320   -8.9660   26.8300 C   0  0  0  0  0  0  0  0  0  0  0  0
   19.9250   -9.3210   27.3240 C   0  0  0  0  0  0  0  0  0  0  0  0
   19.3710  -10.6550   27.1110 C   0  0  0  0  0  0  0  0  0  0  0  0
   20.1710  -11.6430   26.3800 C   0  0  0  0  0  0  0  0  0  0  0  0
   21.4890  -11.2840   25.8860 C   0  0  0  0  0  0  0  0  0  0  0  0
   22.0260   -9.9540   26.1020 C   0  0  0  0  0  0  0  0  0  0  0  0
   18.0770  -10.9240   27.6210 N   0  0  0  0  0  0  0  0  0  0  0  0
   16.8890  -10.1890   27.4710 C   0  0  0  0  0  0  0  0  0  0  0  0
   16.8000   -9.1150   26.8220 O   0  0  0  0  0  0  0  0  0  0  0  0
   19.6310   -4.0670   28.1340 C   0  0  0  0  0  0  0  0  0  0  0  0
   15.6810  -10.7780   28.1600 C   0  0  0  0  0  0  0  0  0  0  0  0
   19.4630   -4.1050   26.6450 C   0  0  0  0  0  0  0  0  0  0  0  0
   20.0870   -3.1000   25.7970 C   0  0  0  0  0  0  0  0  0  0  0  0
   19.9260   -3.1690   24.3920 C   0  0  0  0  0  0  0  0  0  0  0  0
   19.1570   -4.2170   23.7870 N   0  0  0  0  0  0  0  0  0  0  0  0
   18.5390   -5.2070   24.6280 C   0  0  0  0  0  0  0  0  0  0  0  0
   18.6840   -5.1590   26.0370 C   0  0  0  0  0  0  0  0  0  0  0  0
   21.7284   -2.0643   32.5899 H   0  0  0  0  0  0  0  0  0  0  0  0
   21.2255   -2.0873   30.1179 H   0  0  0  0  0  0  0  0  0  0  0  0
   21.7311   -6.4453   30.0535 H   0  0  0  0  0  0  0  0  0  0  0  0
   22.6918   -3.6963   36.0249 H   0  0  0  0  0  0  0  0  0  0  0  0
   22.2658   -8.1109   31.2381 H   0  0  0  0  0  0  0  0  0  0  0  0
   23.8829   -7.4605   31.5744 H   0  0  0  0  0  0  0  0  0  0  0  0
   24.0154   -8.2622   33.3755 H   0  0  0  0  0  0  0  0  0  0  0  0
   20.9626   -9.4441   32.7825 H   0  0  0  0  0  0  0  0  0  0  0  0
   21.1708   -9.4568   34.3163 H   0  0  0  0  0  0  0  0  0  0  0  0
   23.0780  -10.8384   32.0798 H   0  0  0  0  0  0  0  0  0  0  0  0
   23.6609  -11.0961   33.5021 H   0  0  0  0  0  0  0  0  0  0  0  0
   21.7360   -3.4687   28.0121 H   0  0  0  0  0  0  0  0  0  0  0  0
   23.6955   -4.9030   27.0317 H   0  0  0  0  0  0  0  0  0  0  0  0
   23.7987   -7.4784   26.1172 H   0  0  0  0  0  0  0  0  0  0  0  0
   19.3338   -8.5725   27.8719 H   0  0  0  0  0  0  0  0  0  0  0  0
   19.7738  -12.6539   26.2061 H   0  0  0  0  0  0  0  0  0  0  0  0
   22.0870  -12.0297   25.3416 H   0  0  0  0  0  0  0  0  0  0  0  0
   23.0236   -9.6908   25.7207 H   0  0  0  0  0  0  0  0  0  0  0  0
   17.9952  -11.7830   28.1834 H   0  0  0  0  0  0  0  0  0  0  0  0
   19.3169   -3.0870   28.5226 H   0  0  0  0  0  0  0  0  0  0  0  0
   19.0130   -4.8403   28.6137 H   0  0  0  0  0  0  0  0  0  0  0  0
   15.8130  -10.7136   29.2502 H   0  0  0  0  0  0  0  0  0  0  0  0
   14.7815  -10.2174   27.8658 H   0  0  0  0  0  0  0  0  0  0  0  0
   15.5687  -11.8320   27.8658 H   0  0  0  0  0  0  0  0  0  0  0  0
   20.6811   -2.2903   26.2458 H   0  0  0  0  0  0  0  0  0  0  0  0
   20.3982   -2.4068   23.7548 H   0  0  0  0  0  0  0  0  0  0  0  0
   17.9455   -6.0126   24.1711 H   0  0  0  0  0  0  0  0  0  0  0  0
   18.2043   -5.9229   26.6666 H   0  0  0  0  0  0  0  0  0  0  0  0
 17 37  1  0
 37 36  1  0
 37 38  2  0
 36 35  2  0
 38 39  1  0
 35 34  1  0
 27 28  2  0
 27 26  1  0
 39 34  2  0
 28 23  1  0
 26 25  2  0
 34 32  1  0
 19 20  1  0
 19 18  2  0
 31 30  2  0
 23 20  1  0
 23 24  2  0
 20 21  2  0
 25 24  1  0
 25 29  1  0
 18 22  1  0
 30 29  1  0
 30 33  1  0
 21 22  1  0
 22 16  1  0
 32 16  1  0
 16  4  1  0
  4  5  2  0
  4  3  1  0
  5  6  1  0
  3  2  2  0
  6 11  1  0
  6  1  2  0
 12 11  1  0
 12 13  1  0
  2  1  1  0
  1  7  1  0
 15 13  1  0
 15 14  1  0
 13 14  1  0
  7  8  1  0
 10  8  1  0
  8  9  1  0
  2 40  1  0
  3 41  1  0
  5 42  1  0
  8 43  1  0
 12 44  1  0
 12 45  1  0
 13 46  1  0
 14 47  1  0
 14 48  1  0
 15 49  1  0
 15 50  1  0
 16 51  1  0
 18 52  1  0
 19 53  1  0
 24 54  1  0
 26 55  1  0
 27 56  1  0
 28 57  1  0
 29 58  1  0
 32 59  1  0
 32 60  1  0
 33 61  1  0
 33 62  1  0
 33 63  1  0
 35 64  1  0
 36 65  1  0
 38 66  1  0
 39 67  1  0
M  CHG  2  17  -1  37   1
A    1
C01
A    2
C02
A    3
C03
A    4
C04
A    5
C05
A    6
C06
A    7
O07
A    8
C08
A    9
F09
A   10
F10
A   11
O11
A   12
C12
A   13
C13
A   14
C14
A   15
C15
A   16
C16
A   17
O17
A   18
C18
A   19
C19
A   20
C20
A   21
N21
A   22
N22
A   23
C23
A   24
C24
A   25
C25
A   26
C26
A   27
C27
A   28
C28
A   29
N29
A   30
C30
A   31
O31
A   32
C32
A   33
C33
A   34
C34
A   35
C35
A   36
C36
A   37
N37
A   38
C38
A   39
C39
M  END
