3V9T_17L_A_501
     RDKit          3D

 66 70  0  0  0  0  0  0  0  0999 V2000
   15.5180   50.4540   64.8580 C   0  0  0  0  0  0  0  0  0  0  0  0
   15.9120   51.0550   63.6320 C   0  0  0  0  0  0  0  0  0  0  0  0
   15.5460   50.5380   62.3830 C   0  0  0  0  0  0  0  0  0  0  0  0
   14.8800   49.3950   62.2470 C   0  0  0  0  0  0  0  0  0  0  0  0
   14.6610   48.5160   63.4890 C   0  0  0  0  0  0  0  0  0  0  0  0
   14.8060   49.2010   64.8310 C   0  0  0  0  0  0  0  0  0  0  0  0
   14.3360   48.6700   61.2530 O   0  0  0  0  0  0  0  0  0  0  0  0
   13.2990   47.9230   61.7660 C   0  0  0  0  0  0  0  0  0  0  0  0
   13.3890   47.7800   63.1570 C   0  0  0  0  0  0  0  0  0  0  0  0
   12.2220   47.3130   61.1080 C   0  0  0  0  0  0  0  0  0  0  0  0
   11.2690   46.5690   61.8280 C   0  0  0  0  0  0  0  0  0  0  0  0
   11.3990   46.4270   63.2110 C   0  0  0  0  0  0  0  0  0  0  0  0
   12.4710   47.0230   63.8680 C   0  0  0  0  0  0  0  0  0  0  0  0
   14.4510   48.6180   65.8340 O   0  0  0  0  0  0  0  0  0  0  0  0
   15.8220   51.1170   66.0890 C   0  0  0  0  0  0  0  0  0  0  0  0
   15.4400   50.5540   67.4340 C   0  0  0  0  0  0  0  0  0  0  0  0
   16.4330   52.1720   66.0860 O   0  0  0  0  0  0  0  0  0  0  0  0
   16.5610   52.2360   63.6080 O   0  0  0  0  0  0  0  0  0  0  0  0
   15.7590   47.4410   63.5400 C   0  0  0  0  0  0  0  0  0  0  0  0
   12.5960   46.8760   65.2150 O   0  0  0  0  0  0  0  0  0  0  0  0
   12.0890   47.4880   59.6540 C   0  0  0  0  0  0  0  0  0  0  0  0
   13.0700   47.4860   58.9350 O   0  0  0  0  0  0  0  0  0  0  0  0
   10.8440   47.6780   59.1660 N   0  0  0  0  0  0  0  0  0  0  0  0
   10.5680   47.8600   57.7340 C   0  0  0  0  0  0  0  0  0  0  0  0
    9.1140   48.2190   57.6390 C   0  0  0  0  0  0  0  0  0  0  0  0
    8.7910   49.5100   57.3350 C   0  0  0  0  0  0  0  0  0  0  0  0
    7.4560   49.9210   57.2420 C   0  0  0  0  0  0  0  0  0  0  0  0
    6.4340   49.0250   57.4540 C   0  0  0  0  0  0  0  0  0  0  0  0
    6.7280   47.6750   57.7630 C   0  0  0  0  0  0  0  0  0  0  0  0
    8.0920   47.2600   57.8600 C   0  0  0  0  0  0  0  0  0  0  0  0
    5.6990   46.7300   57.9810 C   0  0  0  0  0  0  0  0  0  0  0  0
    6.0110   45.4280   58.2790 C   0  0  0  0  0  0  0  0  0  0  0  0
    7.3440   45.0130   58.3710 C   0  0  0  0  0  0  0  0  0  0  0  0
    8.3670   45.9040   58.1700 C   0  0  0  0  0  0  0  0  0  0  0  0
   10.2340   45.9980   61.1570 O   0  0  0  0  0  0  0  0  0  0  0  0
    9.2940   45.1660   61.8440 C   0  0  0  0  0  0  0  0  0  0  0  0
    7.2330   51.2350   56.9360 O   0  0  0  0  0  0  0  0  0  0  0  0
    5.9120   51.7020   56.6300 C   0  0  0  0  0  0  0  0  0  0  0  0
    5.6680   51.5900   55.1220 C   0  0  0  0  0  0  0  0  0  0  0  0
   15.8204   51.0999   61.4781 H   0  0  0  0  0  0  0  0  0  0  0  0
   10.6570   45.8464   63.7787 H   0  0  0  0  0  0  0  0  0  0  0  0
   15.8667   51.1828   68.2293 H   0  0  0  0  0  0  0  0  0  0  0  0
   14.3441   50.5384   67.5271 H   0  0  0  0  0  0  0  0  0  0  0  0
   15.8305   49.5299   67.5271 H   0  0  0  0  0  0  0  0  0  0  0  0
   16.8067   52.6831   64.4564 H   0  0  0  0  0  0  0  0  0  0  0  0
   15.9963   47.2087   64.5887 H   0  0  0  0  0  0  0  0  0  0  0  0
   15.4048   46.5308   63.0339 H   0  0  0  0  0  0  0  0  0  0  0  0
   16.6615   47.8144   63.0339 H   0  0  0  0  0  0  0  0  0  0  0  0
   12.0917   47.4691   65.8266 H   0  0  0  0  0  0  0  0  0  0  0  0
   10.0536   47.6961   59.8262 H   0  0  0  0  0  0  0  0  0  0  0  0
   11.1898   48.6696   57.3242 H   0  0  0  0  0  0  0  0  0  0  0  0
   10.7985   46.9510   57.1591 H   0  0  0  0  0  0  0  0  0  0  0  0
    9.5944   50.2407   57.1599 H   0  0  0  0  0  0  0  0  0  0  0  0
    5.3879   49.3576   57.3834 H   0  0  0  0  0  0  0  0  0  0  0  0
    4.6458   47.0397   57.9114 H   0  0  0  0  0  0  0  0  0  0  0  0
    5.2030   44.7009   58.4478 H   0  0  0  0  0  0  0  0  0  0  0  0
    7.5734   43.9633   58.6065 H   0  0  0  0  0  0  0  0  0  0  0  0
    9.4100   45.5637   58.2500 H   0  0  0  0  0  0  0  0  0  0  0  0
    9.4260   45.2828   62.9298 H   0  0  0  0  0  0  0  0  0  0  0  0
    8.2715   45.4604   61.5651 H   0  0  0  0  0  0  0  0  0  0  0  0
    9.4620   44.1153   61.5651 H   0  0  0  0  0  0  0  0  0  0  0  0
    5.1729   51.0899   57.1676 H   0  0  0  0  0  0  0  0  0  0  0  0
    5.8131   52.7526   56.9406 H   0  0  0  0  0  0  0  0  0  0  0  0
    4.6816   51.1372   54.9428 H   0  0  0  0  0  0  0  0  0  0  0  0
    5.6989   52.5924   54.6701 H   0  0  0  0  0  0  0  0  0  0  0  0
    6.4482   50.9599   54.6701 H   0  0  0  0  0  0  0  0  0  0  0  0
  1  2  2  0
  1  6  1  0
  1 15  1  0
  2  3  1  0
  2 18  1  0
  3  4  2  0
  4  5  1  0
  4  7  1  0
  5  6  1  0
  5  9  1  0
  5 19  1  0
  6 14  2  0
  7  8  1  0
  8  9  2  0
  8 10  1  0
  9 13  1  0
 10 11  2  0
 10 21  1  0
 11 12  1  0
 11 35  1  0
 12 13  2  0
 13 20  1  0
 15 16  1  0
 15 17  2  0
 21 22  2  0
 21 23  1  0
 23 24  1  0
 24 25  1  0
 25 26  2  0
 25 30  1  0
 26 27  1  0
 27 28  2  0
 27 37  1  0
 28 29  1  0
 29 30  2  0
 29 31  1  0
 30 34  1  0
 31 32  2  0
 32 33  1  0
 33 34  2  0
 35 36  1  0
 37 38  1  0
 38 39  1  0
  3 40  1  0
 12 41  1  0
 16 42  1  0
 16 43  1  0
 16 44  1  0
 18 45  1  0
 19 46  1  0
 19 47  1  0
 19 48  1  0
 20 49  1  0
 23 50  1  0
 24 51  1  0
 24 52  1  0
 26 53  1  0
 28 54  1  0
 31 55  1  0
 32 56  1  0
 33 57  1  0
 34 58  1  0
 36 59  1  0
 36 60  1  0
 36 61  1  0
 38 62  1  0
 38 63  1  0
 39 64  1  0
 39 65  1  0
 39 66  1  0
A    1
C1
A    2
C2
A    3
C3
A    4
C4
A    5
C5
A    6
C6
A    7
O7
A    8
C8
A    9
C9
A   10
C10
A   11
C11
A   12
C12
A   13
C13
A   14
O14
A   15
C15
A   16
C16
A   17
O17
A   18
O18
A   19
C19
A   20
O20
A   21
C21
A   22
O22
A   23
N23
A   24
C24
A   25
C25
A   26
C26
A   27
C27
A   28
C28
A   29
C29
A   30
C30
A   31
C31
A   32
C32
A   33
C33
A   34
C34
A   35
O35
A   36
C36
A   37
O37
A   38
C38
A   39
C39
M  END
