3VBY_0FR_A_1
     RDKit          3D

 25 27  0  0  0  0  0  0  0  0999 V2000
   23.3150   37.4160   -0.4510 C   0  0  0  0  0  0  0  0  0  0  0  0
   23.7980   38.0080    0.7360 C   0  0  0  0  0  0  0  0  0  0  0  0
   23.7920   37.2510    1.9390 C   0  0  0  0  0  0  0  0  0  0  0  0
   23.3160   35.9400    1.8280 C   0  0  0  0  0  0  0  0  0  0  0  0
   22.9110   35.3980    0.6860 C   0  0  0  0  0  0  0  0  0  0  0  0
   22.8760   36.1430   -0.4620 C   0  0  0  0  0  0  0  0  0  0  0  0
   22.4340   35.3380   -1.4750 N   0  0  0  0  0  0  0  0  0  0  0  0
   22.1260   34.1030   -0.9470 C   0  0  0  0  0  0  0  0  0  0  0  0
   22.4320   34.1500    0.3820 C   0  0  0  0  0  0  0  0  0  0  0  0
   22.3170   33.1010    1.2610 C   0  0  0  0  0  0  0  0  0  0  0  0
   22.5970   33.1890    2.4790 O   0  0  0  0  0  0  0  0  0  0  0  0
   21.9290   31.9020    0.7690 C   0  0  0  0  0  0  0  0  0  0  0  0
   21.4780   30.8270    1.5990 O   0  0  0  0  0  0  0  0  0  0  0  0
   21.1770   29.8260    0.6640 C   0  0  0  0  0  0  0  0  0  0  0  0
   21.4200   30.3130   -0.5610 C   0  0  0  0  0  0  0  0  0  0  0  0
   21.8510   31.5640   -0.5090 C   0  0  0  0  0  0  0  0  0  0  0  0
   23.2970   38.0034   -1.3809 H   0  0  0  0  0  0  0  0  0  0  0  0
   24.1741   39.0417    0.7300 H   0  0  0  0  0  0  0  0  0  0  0  0
   24.1392   37.6689    2.8955 H   0  0  0  0  0  0  0  0  0  0  0  0
   23.2751   35.3238    2.7383 H   0  0  0  0  0  0  0  0  0  0  0  0
   22.3462   35.6088   -2.4649 H   0  0  0  0  0  0  0  0  0  0  0  0
   21.7120   33.2426   -1.4932 H   0  0  0  0  0  0  0  0  0  0  0  0
   20.8060   28.8167    0.8956 H   0  0  0  0  0  0  0  0  0  0  0  0
   21.2791   29.7449   -1.4923 H   0  0  0  0  0  0  0  0  0  0  0  0
   22.0985   32.2042   -1.3686 H   0  0  0  0  0  0  0  0  0  0  0  0
  7  8  1  0
  7  6  1  0
  8  9  2  0
 15 16  1  0
 15 14  2  0
 16 12  2  0
  6  1  2  0
  6  5  1  0
  1  2  1  0
  9  5  1  0
  9 10  1  0
 14 13  1  0
  5  4  2  0
  2  3  2  0
 12 10  1  0
 12 13  1  0
 10 11  2  0
  4  3  1  0
  1 17  1  0
  2 18  1  0
  3 19  1  0
  4 20  1  0
  7 21  1  0
  8 22  1  0
 14 23  1  0
 15 24  1  0
 16 25  1  0
A    1
CAI
A    2
CAH
A    3
CAG
A    4
CAF
A    5
CAE
A    6
CAD
A    7
NAC
A    8
CAB
A    9
CAA
A   10
CAJ
A   11
OAP
A   12
CAK
A   13
OAL
A   14
CAM
A   15
CAN
A   16
CAO
M  END
