3VC4_0FS_A_1
     RDKit          3D

 24 25  0  0  0  0  0  0  0  0999 V2000
   42.2280   -2.0760   -2.0700 C   0  0  0  0  0  0  0  0  0  0  0  0
   44.5320   -1.8050   -1.6630 C   0  0  0  0  0  0  0  0  0  0  0  0
   43.4780   -1.9430   -2.5870 C   0  0  0  0  0  0  0  0  0  0  0  0
   44.2540   -1.8310   -0.2490 C   0  0  0  0  0  0  0  0  0  0  0  0
   41.9510   -2.1070   -0.5810 C   0  0  0  0  0  0  0  0  0  0  0  0
   42.9630   -1.9660    0.3070 C   0  0  0  0  0  0  0  0  0  0  0  0
   38.5640   -2.9710    1.0700 C   0  0  0  0  0  0  0  0  0  0  0  0
   38.2140   -3.6680    2.4420 N   0  0  0  0  0  0  0  0  0  0  0  0
   39.4200   -3.9290    3.1110 C   0  0  0  0  0  0  0  0  0  0  0  0
   40.6920   -3.3460    2.2420 S   0  0  0  0  0  0  0  0  0  0  0  0
   40.0130   -2.7820    0.9750 C   0  0  0  0  0  0  0  0  0  0  0  0
   45.3830   -1.6550    0.6810 C   0  0  0  0  0  0  0  0  0  0  0  0
   40.5220   -2.2080   -0.1340 C   0  0  0  0  0  0  0  0  0  0  0  0
   37.7210   -2.6470    0.2790 O   0  0  0  0  0  0  0  0  0  0  0  0
   39.4310   -4.4690    4.1850 O   0  0  0  0  0  0  0  0  0  0  0  0
   46.5030   -2.2360    0.2200 F   0  0  0  0  0  0  0  0  0  0  0  0
   45.0540   -2.0310    1.9390 F   0  0  0  0  0  0  0  0  0  0  0  0
   45.5470   -0.3380    0.5690 F   0  0  0  0  0  0  0  0  0  0  0  0
   41.3793   -2.1651   -2.7641 H   0  0  0  0  0  0  0  0  0  0  0  0
   45.5648   -1.6777   -2.0196 H   0  0  0  0  0  0  0  0  0  0  0  0
   43.6574   -1.9431   -3.6723 H   0  0  0  0  0  0  0  0  0  0  0  0
   42.7905   -1.9571    1.3934 H   0  0  0  0  0  0  0  0  0  0  0  0
   37.2690   -3.8915    2.7853 H   0  0  0  0  0  0  0  0  0  0  0  0
   39.7840   -1.7479   -0.8075 H   0  0  0  0  0  0  0  0  0  0  0  0
  3  1  2  0
  3  2  1  0
  1  5  1  0
  2  4  2  0
  5 13  1  0
  5  6  2  0
  4  6  1  0
  4 12  1  0
 13 11  2  0
 16 12  1  0
 14  7  2  0
 18 12  1  0
 12 17  1  0
 11  7  1  0
 11 10  1  0
  7  8  1  0
 10  9  1  0
  8  9  1  0
  9 15  2  0
  1 19  1  0
  2 20  1  0
  3 21  1  0
  6 22  1  0
  8 23  1  0
 13 24  1  0
A    1
C01
A    2
C02
A    3
C03
A    4
C04
A    5
C05
A    6
C06
A    7
C07
A    8
N08
A    9
C09
A   10
S10
A   11
C11
A   12
C12
A   13
C13
A   14
O14
A   15
O15
A   16
F16
A   17
F17
A   18
F18
M  END
