3VEY_0H5_A_504
     RDKit          3D

 32 34  0  0  0  0  0  0  0  0999 V2000
   40.4600   17.0230   64.7800 C   0  0  0  0  0  0  0  0  0  0  0  0
   40.3650   15.9580   62.5860 C   0  0  0  0  0  0  0  0  0  0  0  0
   42.2200   12.8300   62.6010 C   0  0  0  0  0  0  0  0  0  0  0  0
   39.1590   18.8850   65.2810 C   0  0  0  0  0  0  0  0  0  0  0  0
   36.5840   19.7190   61.7500 C   0  0  0  0  0  0  0  0  0  0  0  0
   36.1520   20.2300   58.1570 C   0  0  0  0  0  0  0  0  0  0  0  0
   41.2840   14.9780   63.0120 C   0  0  0  0  0  0  0  0  0  0  0  0
   41.8230   15.0180   64.3280 C   0  0  0  0  0  0  0  0  0  0  0  0
   41.4080   16.0360   65.2010 C   0  0  0  0  0  0  0  0  0  0  0  0
   39.9270   16.9770   63.4540 C   0  0  0  0  0  0  0  0  0  0  0  0
   40.0610   17.9960   65.6540 N   0  0  0  0  0  0  0  0  0  0  0  0
   38.6140   18.9260   64.0510 N   0  0  0  0  0  0  0  0  0  0  0  0
   38.9790   17.9830   63.1000 C   0  0  0  0  0  0  0  0  0  0  0  0
   41.6010   14.0020   62.0500 O   0  0  0  0  0  0  0  0  0  0  0  0
   38.4270   18.0030   61.7740 N   0  0  0  0  0  0  0  0  0  0  0  0
   37.5300   18.8430   61.1570 C   0  0  0  0  0  0  0  0  0  0  0  0
   37.4570   18.9630   59.8160 N   0  0  0  0  0  0  0  0  0  0  0  0
   36.5020   19.8860   59.5430 N   0  0  0  0  0  0  0  0  0  0  0  0
   35.9560   20.3680   60.7000 C   0  0  0  0  0  0  0  0  0  0  0  0
   39.9823   15.9264   61.5552 H   0  0  0  0  0  0  0  0  0  0  0  0
   42.1922   12.8826   63.6994 H   0  0  0  0  0  0  0  0  0  0  0  0
   41.6769   11.9351   62.2629 H   0  0  0  0  0  0  0  0  0  0  0  0
   43.2653   12.7741   62.2629 H   0  0  0  0  0  0  0  0  0  0  0  0
   38.8344   19.6349   66.0174 H   0  0  0  0  0  0  0  0  0  0  0  0
   36.3893   19.8548   62.8241 H   0  0  0  0  0  0  0  0  0  0  0  0
   35.3675   21.0011   58.1575 H   0  0  0  0  0  0  0  0  0  0  0  0
   37.0429   20.6137   57.6383 H   0  0  0  0  0  0  0  0  0  0  0  0
   35.7838   19.3326   57.6383 H   0  0  0  0  0  0  0  0  0  0  0  0
   42.5531   14.2635   64.6561 H   0  0  0  0  0  0  0  0  0  0  0  0
   41.8164   16.0759   66.2216 H   0  0  0  0  0  0  0  0  0  0  0  0
   38.7686   17.2423   61.1694 H   0  0  0  0  0  0  0  0  0  0  0  0
   35.1658   21.1289   60.7817 H   0  0  0  0  0  0  0  0  0  0  0  0
  6 18  1  0
 18 17  1  0
 18 19  1  0
 17 16  2  0
 19  5  2  0
 16  5  1  0
 16 15  1  0
 15 13  1  0
 14  3  1  0
 14  7  1  0
  2  7  2  0
  2 10  1  0
  7  8  1  0
 13 10  2  0
 13 12  1  0
 10  1  1  0
 12  4  2  0
  8  9  2  0
  1  9  1  0
  1 11  2  0
  4 11  1  0
  2 20  1  0
  3 21  1  0
  3 22  1  0
  3 23  1  0
  4 24  1  0
  5 25  1  0
  6 26  1  0
  6 27  1  0
  6 28  1  0
  8 29  1  0
  9 30  1  0
 15 31  1  0
 19 32  1  0
A    1
C4
A    2
C6
A    3
C13
A    4
C8
A    5
C18
A    6
C19
A    7
C1
A    8
C2
A    9
C3
A   10
C5
A   11
N7
A   12
N9
A   13
C10
A   14
O11
A   15
N12
A   16
C14
A   17
N15
A   18
N16
A   19
C17
M  END
