3VGN_FNN_A_140
     RDKit          3D

 15 15  0  0  0  0  0  0  0  0999 V2000
    1.7890  -11.8950  -10.5920 F   0  0  0  0  0  0  0  0  0  0  0  0
    2.8900   -9.9700  -12.3770 N   0  0  0  0  0  0  0  0  0  0  0  0
    4.4710  -15.1750  -12.5670 O   0  0  0  0  0  0  0  0  0  0  0  0
    4.0920  -13.9060  -12.4780 C   0  0  0  0  0  0  0  0  0  0  0  0
    3.7130   -8.9960  -12.9650 O   0  0  0  0  0  0  0  0  0  0  0  0
    3.1370  -13.5610  -11.5370 C   0  0  0  0  0  0  0  0  0  0  0  0
    1.7200   -9.6020  -11.8100 O   0  0  0  0  0  0  0  0  0  0  0  0
    2.7160  -12.2310  -11.5060 C   0  0  0  0  0  0  0  0  0  0  0  0
    3.2580  -11.2760  -12.3920 C   0  0  0  0  0  0  0  0  0  0  0  0
    4.2040  -11.6620  -13.3300 C   0  0  0  0  0  0  0  0  0  0  0  0
    4.5990  -12.9770  -13.3900 C   0  0  0  0  0  0  0  0  0  0  0  0
    4.6288  -15.7033  -11.7448 H   0  0  0  0  0  0  0  0  0  0  0  0
    2.7259  -14.3066  -10.8406 H   0  0  0  0  0  0  0  0  0  0  0  0
    4.6346  -10.9217  -14.0203 H   0  0  0  0  0  0  0  0  0  0  0  0
    5.3168  -13.2992  -14.1587 H   0  0  0  0  0  0  0  0  0  0  0  0
  1  8  1  0
  2  5  1  0
  2  7  2  0
  2  9  1  0
  3  4  1  0
  4  6  2  0
  4 11  1  0
  6  8  1  0
  8  9  2  0
  9 10  1  0
 10 11  2  0
  3 12  1  0
  6 13  1  0
 10 14  1  0
 11 15  1  0
M  CHG  2   2   1   5  -1
A    1
F
A    2
N
A    3
O
A    4
C1
A    5
O1
A    6
C2
A    7
O2
A    8
C3
A    9
C4
A   10
C5
A   11
C6
M  END
