3VHA_VHA_A_237
     RDKit          3D

 48 51  0  0  0  0  0  0  0  0999 V2000
   10.6710    0.6660   15.0620 C   0  0  0  0  0  0  0  0  0  0  0  0
    9.7530    0.7800   14.0090 C   0  0  0  0  0  0  0  0  0  0  0  0
    9.0420   -0.3480   13.5710 C   0  0  0  0  0  0  0  0  0  0  0  0
    8.0170   -0.3130   12.4370 C   0  0  0  0  0  0  0  0  0  0  0  0
    9.2630   -1.5880   14.2050 C   0  0  0  0  0  0  0  0  0  0  0  0
   10.1750   -1.6740   15.2540 C   0  0  0  0  0  0  0  0  0  0  0  0
   10.9100   -0.5610   15.6830 C   0  0  0  0  0  0  0  0  0  0  0  0
   11.8550   -0.6730   16.6980 O   0  0  0  0  0  0  0  0  0  0  0  0
   12.6470    0.5230   17.0110 C   0  0  0  0  0  0  0  0  0  0  0  0
   13.8990    0.3440   17.9110 C   0  0  0  0  0  0  0  0  0  0  0  0
   14.6440    1.6670   18.1740 C   0  0  0  0  0  0  0  0  0  0  0  0
   15.3280    2.2060   16.9100 C   0  0  0  0  0  0  0  0  0  0  0  0
   14.2640    3.0010   16.2940 O   0  0  0  0  0  0  0  0  0  0  0  0
   14.4350    3.4040   15.0120 C   0  0  0  0  0  0  0  0  0  0  0  0
   13.3100    3.9630   14.4080 C   0  0  0  0  0  0  0  0  0  0  0  0
   15.6460    3.3530   14.3030 C   0  0  0  0  0  0  0  0  0  0  0  0
   15.7120    3.8060   12.9860 C   0  0  0  0  0  0  0  0  0  0  0  0
   14.5750    4.3760   12.3860 C   0  0  0  0  0  0  0  0  0  0  0  0
   13.3860    4.4080   13.0890 C   0  0  0  0  0  0  0  0  0  0  0  0
   11.9910    5.1090   12.2690 S   0  0  0  0  0  0  0  0  0  0  0  0
   10.6160    4.0910   12.6710 C   0  0  0  0  0  0  0  0  0  0  0  0
    9.4380    4.6640   12.5320 N   0  0  0  0  0  0  0  0  0  0  0  0
   10.7550    2.7790   13.1230 C   0  0  0  0  0  0  0  0  0  0  0  0
    9.6180    2.0690   13.4860 C   0  0  0  0  0  0  0  0  0  0  0  0
    8.4220    2.6890   13.3810 N   0  0  0  0  0  0  0  0  0  0  0  0
    8.3350    3.9350   12.8650 C   0  0  0  0  0  0  0  0  0  0  0  0
    7.1380    4.5090   12.7960 N   0  0  0  0  0  0  0  0  0  0  0  0
   11.2129    1.5596   15.4052 H   0  0  0  0  0  0  0  0  0  0  0  0
    7.0025   -0.2784   12.8607 H   0  0  0  0  0  0  0  0  0  0  0  0
    8.1862    0.5799   11.8172 H   0  0  0  0  0  0  0  0  0  0  0  0
    8.1249   -1.2154   11.8172 H   0  0  0  0  0  0  0  0  0  0  0  0
    8.7175   -2.4834   13.8725 H   0  0  0  0  0  0  0  0  0  0  0  0
   10.3220   -2.6403   15.7586 H   0  0  0  0  0  0  0  0  0  0  0  0
   12.9870    0.9510   16.0564 H   0  0  0  0  0  0  0  0  0  0  0  0
   11.9697    1.1587   17.6001 H   0  0  0  0  0  0  0  0  0  0  0  0
   13.5800   -0.0768   18.8760 H   0  0  0  0  0  0  0  0  0  0  0  0
   14.5928   -0.3253   17.3812 H   0  0  0  0  0  0  0  0  0  0  0  0
   13.9220    2.4152   18.5330 H   0  0  0  0  0  0  0  0  0  0  0  0
   15.4243    1.4728   18.9246 H   0  0  0  0  0  0  0  0  0  0  0  0
   16.1968    2.8314   17.1631 H   0  0  0  0  0  0  0  0  0  0  0  0
   15.7247    1.4174   16.2537 H   0  0  0  0  0  0  0  0  0  0  0  0
   12.3679    4.0525   14.9687 H   0  0  0  0  0  0  0  0  0  0  0  0
   16.5480    2.9533   14.7895 H   0  0  0  0  0  0  0  0  0  0  0  0
   16.6501    3.7178   12.4183 H   0  0  0  0  0  0  0  0  0  0  0  0
   14.6316    4.7915   11.3690 H   0  0  0  0  0  0  0  0  0  0  0  0
   11.7495    2.3139   13.1909 H   0  0  0  0  0  0  0  0  0  0  0  0
    6.6325    4.7514   13.6601 H   0  0  0  0  0  0  0  0  0  0  0  0
    6.7160    4.7114   11.8785 H   0  0  0  0  0  0  0  0  0  0  0  0
  1  2  2  0
  1  7  1  0
  2  3  1  0
  2 24  1  0
  3  4  1  0
  3  5  2  0
  5  6  1  0
  6  7  2  0
  7  8  1  0
  8  9  1  0
  9 10  1  0
 10 11  1  0
 11 12  1  0
 12 13  1  0
 13 14  1  0
 14 15  2  0
 14 16  1  0
 15 19  1  0
 16 17  2  0
 17 18  1  0
 18 19  2  0
 19 20  1  0
 20 21  1  0
 21 22  2  0
 21 23  1  0
 22 26  1  0
 23 24  2  0
 24 25  1  0
 25 26  2  0
 26 27  1  0
  1 28  1  0
  4 29  1  0
  4 30  1  0
  4 31  1  0
  5 32  1  0
  6 33  1  0
  9 34  1  0
  9 35  1  0
 10 36  1  0
 10 37  1  0
 11 38  1  0
 11 39  1  0
 12 40  1  0
 12 41  1  0
 15 42  1  0
 16 43  1  0
 17 44  1  0
 18 45  1  0
 23 46  1  0
 27 47  1  0
 27 48  1  0
A    1
C1
A    2
C2
A    3
C3
A    4
C4
A    5
C5
A    6
C6
A    7
C7
A    8
O8
A    9
C9
A   10
C10
A   11
C11
A   12
C12
A   13
O13
A   14
C14
A   15
C15
A   16
C16
A   17
C17
A   18
C18
A   19
C19
A   20
S20
A   21
C21
A   22
N22
A   23
C23
A   24
C24
A   25
N25
A   26
C26
A   27
N27
M  END
