3VHC_VHC_A_1
     RDKit          3D

 51 54  0  0  0  0  0  0  0  0999 V2000
   10.5510   -3.0840   15.3170 C   0  0  0  0  0  0  0  0  0  0  0  0
   10.3540   -1.6240   14.8670 C   0  0  0  0  0  0  0  0  0  0  0  0
    9.4560   -1.4000   13.8250 C   0  0  0  0  0  0  0  0  0  0  0  0
    9.2310   -0.1030   13.3320 C   0  0  0  0  0  0  0  0  0  0  0  0
    8.2350    0.0670   12.1790 C   0  0  0  0  0  0  0  0  0  0  0  0
    9.9510    0.9780   13.8670 C   0  0  0  0  0  0  0  0  0  0  0  0
   10.8670    0.7440   14.9100 C   0  0  0  0  0  0  0  0  0  0  0  0
   11.0660   -0.5520   15.4390 C   0  0  0  0  0  0  0  0  0  0  0  0
   12.0140   -0.7080   16.6320 C   0  0  0  0  0  0  0  0  0  0  0  0
   11.7030   -1.4300   17.5960 O   0  0  0  0  0  0  0  0  0  0  0  0
   13.0770    0.0870   16.6080 N   0  0  0  0  0  0  0  0  0  0  0  0
   14.1070    0.0960   17.6730 C   0  0  0  0  0  0  0  0  0  0  0  0
   14.6590    1.5010   17.9620 C   0  0  0  0  0  0  0  0  0  0  0  0
   15.4810    2.0470   16.7820 C   0  0  0  0  0  0  0  0  0  0  0  0
   14.4280    2.5160   15.9240 O   0  0  0  0  0  0  0  0  0  0  0  0
   14.6910    3.1360   14.7450 C   0  0  0  0  0  0  0  0  0  0  0  0
   13.6010    3.7910   14.1780 C   0  0  0  0  0  0  0  0  0  0  0  0
   15.9110    3.0880   14.0450 C   0  0  0  0  0  0  0  0  0  0  0  0
   15.9950    3.7090   12.8010 C   0  0  0  0  0  0  0  0  0  0  0  0
   14.9200    4.4060   12.2570 C   0  0  0  0  0  0  0  0  0  0  0  0
   13.6980    4.3960   12.9330 C   0  0  0  0  0  0  0  0  0  0  0  0
   12.3320    5.2910   12.2210 S   0  0  0  0  0  0  0  0  0  0  0  0
   10.9410    4.3110   12.6620 C   0  0  0  0  0  0  0  0  0  0  0  0
    9.7710    4.9510   12.6440 N   0  0  0  0  0  0  0  0  0  0  0  0
   11.0260    2.9480   12.9780 C   0  0  0  0  0  0  0  0  0  0  0  0
    9.8650    2.3070   13.4050 C   0  0  0  0  0  0  0  0  0  0  0  0
    8.7010    2.9900   13.4120 N   0  0  0  0  0  0  0  0  0  0  0  0
    8.6390    4.2890   13.0150 C   0  0  0  0  0  0  0  0  0  0  0  0
    7.4430    4.8950   12.9670 N   0  0  0  0  0  0  0  0  0  0  0  0
   10.5574   -3.1313   16.4160 H   0  0  0  0  0  0  0  0  0  0  0  0
    9.7281   -3.7017   14.9282 H   0  0  0  0  0  0  0  0  0  0  0  0
   11.5082   -3.4615   14.9282 H   0  0  0  0  0  0  0  0  0  0  0  0
    8.9159   -2.2499   13.3823 H   0  0  0  0  0  0  0  0  0  0  0  0
    7.2279    0.2389   12.5868 H   0  0  0  0  0  0  0  0  0  0  0  0
    8.5323    0.9274   11.5615 H   0  0  0  0  0  0  0  0  0  0  0  0
    8.2301   -0.8433   11.5615 H   0  0  0  0  0  0  0  0  0  0  0  0
   11.4402    1.5875   15.3223 H   0  0  0  0  0  0  0  0  0  0  0  0
   13.1912    0.7286   15.8104 H   0  0  0  0  0  0  0  0  0  0  0  0
   13.6604   -0.3020   18.5961 H   0  0  0  0  0  0  0  0  0  0  0  0
   14.9470   -0.5224   17.3239 H   0  0  0  0  0  0  0  0  0  0  0  0
   13.8165    2.1817   18.1540 H   0  0  0  0  0  0  0  0  0  0  0  0
   15.3215    1.4341   18.8376 H   0  0  0  0  0  0  0  0  0  0  0  0
   16.1454    2.8661   17.0945 H   0  0  0  0  0  0  0  0  0  0  0  0
   16.1587    1.3153   16.3180 H   0  0  0  0  0  0  0  0  0  0  0  0
   12.6478    3.8295   14.7257 H   0  0  0  0  0  0  0  0  0  0  0  0
   16.7821    2.5697   14.4723 H   0  0  0  0  0  0  0  0  0  0  0  0
   16.9354    3.6470   12.2337 H   0  0  0  0  0  0  0  0  0  0  0  0
   15.0311    4.9555   11.3106 H   0  0  0  0  0  0  0  0  0  0  0  0
   11.9775    2.4028   12.8917 H   0  0  0  0  0  0  0  0  0  0  0  0
    6.9554    5.1420   13.8400 H   0  0  0  0  0  0  0  0  0  0  0  0
    7.0124    5.1132   12.0571 H   0  0  0  0  0  0  0  0  0  0  0  0
  1  2  1  0
  2  3  2  0
  2  8  1  0
  3  4  1  0
  4  5  1  0
  4  6  2  0
  6  7  1  0
  6 26  1  0
  7  8  2  0
  8  9  1  0
  9 10  2  0
  9 11  1  0
 11 12  1  0
 12 13  1  0
 13 14  1  0
 14 15  1  0
 15 16  1  0
 16 17  2  0
 16 18  1  0
 17 21  1  0
 18 19  2  0
 19 20  1  0
 20 21  2  0
 21 22  1  0
 22 23  1  0
 23 24  2  0
 23 25  1  0
 24 28  1  0
 25 26  2  0
 26 27  1  0
 27 28  2  0
 28 29  1  0
  1 30  1  0
  1 31  1  0
  1 32  1  0
  3 33  1  0
  5 34  1  0
  5 35  1  0
  5 36  1  0
  7 37  1  0
 11 38  1  0
 12 39  1  0
 12 40  1  0
 13 41  1  0
 13 42  1  0
 14 43  1  0
 14 44  1  0
 17 45  1  0
 18 46  1  0
 19 47  1  0
 20 48  1  0
 25 49  1  0
 29 50  1  0
 29 51  1  0
A    1
C1
A    2
C2
A    3
C3
A    4
C4
A    5
C5
A    6
C6
A    7
C7
A    8
C8
A    9
C9
A   10
O10
A   11
N11
A   12
C13
A   13
C14
A   14
C15
A   15
O16
A   16
C17
A   17
C18
A   18
C19
A   19
C20
A   20
C21
A   21
C22
A   22
S23
A   23
C24
A   24
N25
A   25
C26
A   26
C27
A   27
N28
A   28
C29
A   29
N30
M  END
