3VHD_VHE_A_1
     RDKit          3D

 50 52  0  0  0  0  0  0  0  0999 V2000
  -11.7180   -5.3100  -10.6610 C   0  0  0  0  0  0  0  0  0  0  0  0
  -10.6440   -6.0100  -11.2300 C   0  0  0  0  0  0  0  0  0  0  0  0
   -9.3400   -5.7390  -10.7060 C   0  0  0  0  0  0  0  0  0  0  0  0
   -9.1060   -4.8110   -9.6660 C   0  0  0  0  0  0  0  0  0  0  0  0
  -10.1990   -4.1100   -9.1470 C   0  0  0  0  0  0  0  0  0  0  0  0
  -11.4930   -4.3680   -9.6110 C   0  0  0  0  0  0  0  0  0  0  0  0
  -10.1270   -3.1390   -8.0690 C   0  0  0  0  0  0  0  0  0  0  0  0
   -7.6700   -4.5790   -9.1970 C   0  0  0  0  0  0  0  0  0  0  0  0
   -9.5430   -3.3820   -6.9730 O   0  0  0  0  0  0  0  0  0  0  0  0
  -10.7750   -1.9450   -8.3180 N   0  0  0  0  0  0  0  0  0  0  0  0
  -10.7960   -7.0170  -12.3920 C   0  0  0  0  0  0  0  0  0  0  0  0
  -13.1020   -5.4090  -11.1310 C   0  0  0  0  0  0  0  0  0  0  0  0
  -13.7840   -4.2180  -11.4850 C   0  0  0  0  0  0  0  0  0  0  0  0
  -15.0840   -4.3840  -11.9490 C   0  0  0  0  0  0  0  0  0  0  0  0
  -15.7030   -5.5520  -12.0550 N   0  0  0  0  0  0  0  0  0  0  0  0
  -14.9660   -6.6660  -11.6980 C   0  0  0  0  0  0  0  0  0  0  0  0
  -13.6890   -6.5950  -11.2560 N   0  0  0  0  0  0  0  0  0  0  0  0
  -15.5440   -7.9480  -11.7560 N   0  0  0  0  0  0  0  0  0  0  0  0
  -10.8300   -0.8710   -7.2690 C   0  0  0  0  0  0  0  0  0  0  0  0
  -11.9790    0.1010   -7.6520 C   0  0  0  0  0  0  0  0  0  0  0  0
  -13.3500   -0.4110   -7.2210 C   0  0  0  0  0  0  0  0  0  0  0  0
  -14.0440   -1.3390   -8.1650 N   0  0  0  0  0  0  0  0  0  0  0  0
  -14.8910   -0.8600   -9.1530 C   0  0  0  0  0  0  0  0  0  0  0  0
  -15.5700   -1.8790  -10.0130 C   0  0  0  0  0  0  0  0  0  0  0  0
  -15.0910    0.3720   -9.3170 O   0  0  0  0  0  0  0  0  0  0  0  0
  -15.3540   -1.6120  -11.5320 C   0  0  0  0  0  0  0  0  0  0  0  0
  -16.0990   -3.0340  -12.4500 S   0  0  0  0  0  0  0  0  0  0  0  0
   -8.4807   -6.2775  -11.1321 H   0  0  0  0  0  0  0  0  0  0  0  0
  -12.3470   -3.8395   -9.1623 H   0  0  0  0  0  0  0  0  0  0  0  0
   -7.6397   -4.5741   -8.0974 H   0  0  0  0  0  0  0  0  0  0  0  0
   -7.0252   -5.3846   -9.5780 H   0  0  0  0  0  0  0  0  0  0  0  0
   -7.3116   -3.6113   -9.5780 H   0  0  0  0  0  0  0  0  0  0  0  0
  -11.2248   -1.7895   -9.2315 H   0  0  0  0  0  0  0  0  0  0  0  0
  -10.9485   -8.0272  -11.9842 H   0  0  0  0  0  0  0  0  0  0  0  0
  -11.6620   -6.7363  -13.0095 H   0  0  0  0  0  0  0  0  0  0  0  0
   -9.8858   -7.0044  -13.0095 H   0  0  0  0  0  0  0  0  0  0  0  0
  -13.3152   -3.2267  -11.3982 H   0  0  0  0  0  0  0  0  0  0  0  0
  -15.7706   -8.4506  -10.8860 H   0  0  0  0  0  0  0  0  0  0  0  0
  -15.7404   -8.3836  -12.6685 H   0  0  0  0  0  0  0  0  0  0  0  0
  -11.0298   -1.3184   -6.2842 H   0  0  0  0  0  0  0  0  0  0  0  0
   -9.8715   -0.3340   -7.2153 H   0  0  0  0  0  0  0  0  0  0  0  0
  -11.7965    1.0708   -7.1660 H   0  0  0  0  0  0  0  0  0  0  0  0
  -11.9870    0.1912   -8.7483 H   0  0  0  0  0  0  0  0  0  0  0  0
  -13.2234   -0.9403   -6.2651 H   0  0  0  0  0  0  0  0  0  0  0  0
  -13.9901    0.4820   -7.1685 H   0  0  0  0  0  0  0  0  0  0  0  0
  -13.8902   -2.3539   -8.0800 H   0  0  0  0  0  0  0  0  0  0  0  0
  -15.1672   -2.8729   -9.7682 H   0  0  0  0  0  0  0  0  0  0  0  0
  -16.6500   -1.8214   -9.8124 H   0  0  0  0  0  0  0  0  0  0  0  0
  -15.8494   -0.6742  -11.8238 H   0  0  0  0  0  0  0  0  0  0  0  0
  -14.2827   -1.5171  -11.7628 H   0  0  0  0  0  0  0  0  0  0  0  0
  1  2  2  0
  1  6  1  0
  1 12  1  0
  2  3  1  0
  2 11  1  0
  3  4  2  0
  4  5  1  0
  4  8  1  0
  5  6  2  0
  5  7  1  0
  7  9  2  0
  7 10  1  0
 10 19  1  0
 12 13  2  0
 12 17  1  0
 13 14  1  0
 14 15  2  0
 14 27  1  0
 15 16  1  0
 16 17  2  0
 16 18  1  0
 19 20  1  0
 20 21  1  0
 21 22  1  0
 22 23  1  0
 23 24  1  0
 23 25  2  0
 24 26  1  0
 26 27  1  0
  3 28  1  0
  6 29  1  0
  8 30  1  0
  8 31  1  0
  8 32  1  0
 10 33  1  0
 11 34  1  0
 11 35  1  0
 11 36  1  0
 13 37  1  0
 18 38  1  0
 18 39  1  0
 19 40  1  0
 19 41  1  0
 20 42  1  0
 20 43  1  0
 21 44  1  0
 21 45  1  0
 22 46  1  0
 24 47  1  0
 24 48  1  0
 26 49  1  0
 26 50  1  0
A    1
C1
A    2
C2
A    3
C3
A    4
C4
A    5
C5
A    6
C6
A    7
C7
A    8
C8
A    9
O9
A   10
N10
A   11
C11
A   12
C12
A   13
C13
A   14
C14
A   15
N15
A   16
C16
A   17
N17
A   18
N18
A   19
C19
A   20
C20
A   21
C21
A   22
N22
A   23
C23
A   24
C24
A   25
O25
A   26
C26
A   27
S27
M  END
