3VHH_VHH_A_1124
     RDKit          3D

 38 39  0  0  0  0  0  0  0  0999 V2000
   11.9870   11.1830    6.9140 N   0  0  0  0  0  0  0  0  0  0  0  0
    9.3280   10.4840    8.9050 S   0  0  0  0  0  0  0  0  0  0  0  0
    8.6920   10.1010    7.2900 C   0  0  0  0  0  0  0  0  0  0  0  0
   10.1510   11.5870    5.8760 N   0  0  0  0  0  0  0  0  0  0  0  0
   11.3160   12.0630    6.2380 C   0  0  0  0  0  0  0  0  0  0  0  0
   11.8270   13.2280    5.8400 O   0  0  0  0  0  0  0  0  0  0  0  0
    9.9120   10.2320    6.3520 C   0  0  0  0  0  0  0  0  0  0  0  0
   11.2210    9.9770    7.1290 C   0  0  0  0  0  0  0  0  0  0  0  0
   10.9720    9.9240    8.6260 C   0  0  0  0  0  0  0  0  0  0  0  0
    7.4540   10.9370    7.0320 C   0  0  0  0  0  0  0  0  0  0  0  0
    6.3790   10.6920    7.7930 C   0  0  0  0  0  0  0  0  0  0  0  0
    5.0830   11.4950    7.6450 C   0  0  0  0  0  0  0  0  0  0  0  0
    4.0730   11.0020    8.6500 C   0  0  0  0  0  0  0  0  0  0  0  0
    3.3150    9.9130    8.3670 C   0  0  0  0  0  0  0  0  0  0  0  0
    3.4970    9.3650    7.2710 O   0  0  0  0  0  0  0  0  0  0  0  0
    2.4770    9.4130    9.1690 O   0  0  0  0  0  0  0  0  0  0  0  0
    9.2600   12.2320    4.9550 C   0  0  0  0  0  0  0  0  0  0  0  0
   13.3590   11.3270    7.3250 C   0  0  0  0  0  0  0  0  0  0  0  0
    8.2975    9.0861    7.1338 H   0  0  0  0  0  0  0  0  0  0  0  0
    9.6816    9.5268    5.5399 H   0  0  0  0  0  0  0  0  0  0  0  0
   11.6905    9.0368    6.8040 H   0  0  0  0  0  0  0  0  0  0  0  0
   11.6858   10.5772    9.1494 H   0  0  0  0  0  0  0  0  0  0  0  0
   11.1036    8.9001    9.0060 H   0  0  0  0  0  0  0  0  0  0  0  0
    7.7303   11.9914    7.1797 H   0  0  0  0  0  0  0  0  0  0  0  0
    7.1431   10.6744    6.0101 H   0  0  0  0  0  0  0  0  0  0  0  0
    6.1113    9.6394    7.6189 H   0  0  0  0  0  0  0  0  0  0  0  0
    6.7273   10.9951    8.7914 H   0  0  0  0  0  0  0  0  0  0  0  0
    5.2888   12.5607    7.8235 H   0  0  0  0  0  0  0  0  0  0  0  0
    4.6839   11.3658    6.6281 H   0  0  0  0  0  0  0  0  0  0  0  0
    4.6272   10.7731    9.5722 H   0  0  0  0  0  0  0  0  0  0  0  0
    3.3380   11.8192    8.6940 H   0  0  0  0  0  0  0  0  0  0  0  0
    3.8088    8.4262    7.2327 H   0  0  0  0  0  0  0  0  0  0  0  0
    8.4930   12.7873    5.5148 H   0  0  0  0  0  0  0  0  0  0  0  0
    9.8286   12.9292    4.3220 H   0  0  0  0  0  0  0  0  0  0  0  0
    8.7753   11.4741    4.3220 H   0  0  0  0  0  0  0  0  0  0  0  0
   13.4140   11.3328    8.4236 H   0  0  0  0  0  0  0  0  0  0  0  0
   13.9495   10.4859    6.9327 H   0  0  0  0  0  0  0  0  0  0  0  0
   13.7620   12.2724    6.9327 H   0  0  0  0  0  0  0  0  0  0  0  0
  1  5  1  0
  1  8  1  0
  1 18  1  0
  2  3  1  0
  2  9  1  0
  3  7  1  0
  3 10  1  0
  4  5  1  0
  4  7  1  0
  4 17  1  0
  5  6  2  0
  7  8  1  0
  8  9  1  0
 10 11  1  0
 11 12  1  0
 12 13  1  0
 13 14  1  0
 14 15  1  0
 14 16  2  0
  3 19  1  0
  7 20  1  0
  8 21  1  0
  9 22  1  0
  9 23  1  0
 10 24  1  0
 10 25  1  0
 11 26  1  0
 11 27  1  0
 12 28  1  0
 12 29  1  0
 13 30  1  0
 13 31  1  0
 15 32  1  0
 17 33  1  0
 17 34  1  0
 17 35  1  0
 18 36  1  0
 18 37  1  0
 18 38  1  0
A    1
N1
A    2
S1
A    3
C2
A    4
N2
A    5
C3
A    6
O3
A    7
C4
A    8
C5
A    9
C6
A   10
C7
A   11
C8
A   12
C9
A   13
C10
A   14
C11
A   15
O11
A   16
O12
A   17
C17
A   18
C18
M  END
