3VHK_BPK_A_2001
     RDKit          3D

 39 41  0  0  0  0  0  0  0  0999 V2000
  -24.2820   27.8600   12.5080 C   0  0  0  0  0  0  0  0  0  0  0  0
  -25.4720   28.3480   12.0210 C   0  0  0  0  0  0  0  0  0  0  0  0
  -24.2820   26.9950   13.5800 C   0  0  0  0  0  0  0  0  0  0  0  0
  -31.1760   27.3200   21.1670 C   0  0  0  0  0  0  0  0  0  0  0  0
  -26.6560   27.9690   12.6110 C   0  0  0  0  0  0  0  0  0  0  0  0
  -25.4670   26.6190   14.1710 C   0  0  0  0  0  0  0  0  0  0  0  0
  -31.7000   26.0610   21.3640 C   0  0  0  0  0  0  0  0  0  0  0  0
  -30.5310   27.6160   19.9870 C   0  0  0  0  0  0  0  0  0  0  0  0
  -30.9380   25.3870   19.2080 C   0  0  0  0  0  0  0  0  0  0  0  0
  -26.6570   27.1080   13.6850 C   0  0  0  0  0  0  0  0  0  0  0  0
  -31.5840   25.0920   20.3890 C   0  0  0  0  0  0  0  0  0  0  0  0
  -30.4170   26.6490   19.0130 C   0  0  0  0  0  0  0  0  0  0  0  0
  -29.5350   26.3100   15.5560 C   0  0  0  0  0  0  0  0  0  0  0  0
  -29.9110   26.0420   14.2570 C   0  0  0  0  0  0  0  0  0  0  0  0
  -27.8990   26.7340   14.2990 C   0  0  0  0  0  0  0  0  0  0  0  0
  -31.1370   25.5540   13.6100 C   0  0  0  0  0  0  0  0  0  0  0  0
  -32.1510   23.7340   20.5980 C   0  0  0  0  0  0  0  0  0  0  0  0
  -30.3100   26.1830   16.8010 C   0  0  0  0  0  0  0  0  0  0  0  0
  -28.2390   26.7550   15.5700 N   0  0  0  0  0  0  0  0  0  0  0  0
  -28.8640   26.3110   13.4380 O   0  0  0  0  0  0  0  0  0  0  0  0
  -31.5970   23.1950   21.7870 O   0  0  0  0  0  0  0  0  0  0  0  0
  -29.7590   26.9840   17.8400 O   0  0  0  0  0  0  0  0  0  0  0  0
  -23.3317   28.1600   12.0422 H   0  0  0  0  0  0  0  0  0  0  0  0
  -25.4773   29.0378   11.1642 H   0  0  0  0  0  0  0  0  0  0  0  0
  -23.3297   26.6025   13.9660 H   0  0  0  0  0  0  0  0  0  0  0  0
  -31.2726   28.0864   21.9501 H   0  0  0  0  0  0  0  0  0  0  0  0
  -27.6088   28.3570   12.2215 H   0  0  0  0  0  0  0  0  0  0  0  0
  -25.4622   25.9301   15.0286 H   0  0  0  0  0  0  0  0  0  0  0  0
  -32.2154   25.8265   22.3071 H   0  0  0  0  0  0  0  0  0  0  0  0
  -30.1094   28.6187   19.8233 H   0  0  0  0  0  0  0  0  0  0  0  0
  -30.8385   24.6204   18.4254 H   0  0  0  0  0  0  0  0  0  0  0  0
  -31.8671   25.2634   14.3798 H   0  0  0  0  0  0  0  0  0  0  0  0
  -31.5629   26.3511   12.9830 H   0  0  0  0  0  0  0  0  0  0  0  0
  -30.8986   24.6822   12.9830 H   0  0  0  0  0  0  0  0  0  0  0  0
  -33.2449   23.7990   20.6942 H   0  0  0  0  0  0  0  0  0  0  0  0
  -31.9086   23.0876   19.7416 H   0  0  0  0  0  0  0  0  0  0  0  0
  -31.3451   26.5040   16.6125 H   0  0  0  0  0  0  0  0  0  0  0  0
  -30.2795   25.1313   17.1218 H   0  0  0  0  0  0  0  0  0  0  0  0
  -32.0290   23.6153   22.5724 H   0  0  0  0  0  0  0  0  0  0  0  0
  1  2  2  0
  1  3  1  0
  2  5  1  0
  3  6  2  0
  4  7  2  0
  4  8  1  0
  5 10  2  0
  6 10  1  0
  7 11  1  0
  8 12  2  0
  9 11  2  0
  9 12  1  0
 10 15  1  0
 11 17  1  0
 12 22  1  0
 13 14  2  0
 13 18  1  0
 13 19  1  0
 14 16  1  0
 14 20  1  0
 15 19  2  0
 15 20  1  0
 17 21  1  0
 18 22  1  0
  1 23  1  0
  2 24  1  0
  3 25  1  0
  4 26  1  0
  5 27  1  0
  6 28  1  0
  7 29  1  0
  8 30  1  0
  9 31  1  0
 16 32  1  0
 16 33  1  0
 16 34  1  0
 17 35  1  0
 17 36  1  0
 18 37  1  0
 18 38  1  0
 21 39  1  0
A    1
C5
A    2
C4
A    3
C6
A    4
C19
A    5
C3
A    6
C7
A    7
C18
A    8
C20
A    9
C16
A   10
C2
A   11
C17
A   12
C15
A   13
C9
A   14
C10
A   15
C1
A   16
C12
A   17
C21
A   18
C13
A   19
N8
A   20
O11
A   21
O22
A   22
O14
M  END
