3VHV_LD1_A_1
     RDKit          3D

 39 43  0  0  0  0  0  0  0  0999 V2000
   -1.8470   17.3960   -8.3030 C   0  0  0  0  0  0  0  0  0  0  0  0
   -2.5360   16.2090   -8.3920 C   0  0  0  0  0  0  0  0  0  0  0  0
   -3.3020   15.7670   -7.3370 C   0  0  0  0  0  0  0  0  0  0  0  0
   -3.3750   16.5530   -6.2070 C   0  0  0  0  0  0  0  0  0  0  0  0
   -2.6890   17.7490   -6.1290 C   0  0  0  0  0  0  0  0  0  0  0  0
   -1.9160   18.1850   -7.1780 C   0  0  0  0  0  0  0  0  0  0  0  0
   -1.0810   17.8150   -9.3640 O   0  0  0  0  0  0  0  0  0  0  0  0
   -0.4220   16.7090   -9.9990 C   0  0  0  0  0  0  0  0  0  0  0  0
   -1.4080   15.6570  -10.4360 C   0  0  0  0  0  0  0  0  0  0  0  0
   -2.4350   15.4530   -9.5600 N   0  0  0  0  0  0  0  0  0  0  0  0
   -1.2800   15.0150  -11.4690 O   0  0  0  0  0  0  0  0  0  0  0  0
   -4.1680   16.0490   -5.0680 C   0  0  0  0  0  0  0  0  0  0  0  0
   -4.1720   16.8740   -3.7870 C   0  0  0  0  0  0  0  0  0  0  0  0
   -5.6050   16.5570   -2.6980 S   0  0  0  0  0  0  0  0  0  0  0  0
   -5.8340   14.8800   -3.0380 C   0  0  0  0  0  0  0  0  0  0  0  0
   -5.3860   14.3260   -4.1940 N   0  0  0  0  0  0  0  0  0  0  0  0
   -4.7170   14.8840   -5.2180 N   0  0  0  0  0  0  0  0  0  0  0  0
   -6.4450   13.9900   -2.2980 N   0  0  0  0  0  0  0  0  0  0  0  0
   -6.3960   12.8010   -2.9860 N   0  0  0  0  0  0  0  0  0  0  0  0
   -5.7600   13.0180   -4.1180 C   0  0  0  0  0  0  0  0  0  0  0  0
   -2.8350   16.7960   -3.0880 C   0  0  0  0  0  0  0  0  0  0  0  0
   -1.8730   15.8630   -3.4320 C   0  0  0  0  0  0  0  0  0  0  0  0
   -0.6540   15.8340   -2.7940 C   0  0  0  0  0  0  0  0  0  0  0  0
   -0.3860   16.7580   -1.8070 C   0  0  0  0  0  0  0  0  0  0  0  0
   -1.3380   17.6930   -1.4640 C   0  0  0  0  0  0  0  0  0  0  0  0
   -2.5590   17.7130   -2.0960 C   0  0  0  0  0  0  0  0  0  0  0  0
   -3.8423   14.8105   -7.3943 H   0  0  0  0  0  0  0  0  0  0  0  0
   -2.7622   18.3595   -5.2169 H   0  0  0  0  0  0  0  0  0  0  0  0
   -1.3683   19.1372   -7.1200 H   0  0  0  0  0  0  0  0  0  0  0  0
    0.1235   17.0762  -10.8808 H   0  0  0  0  0  0  0  0  0  0  0  0
    0.2685   16.2551   -9.2730 H   0  0  0  0  0  0  0  0  0  0  0  0
   -3.1429   14.7331   -9.7637 H   0  0  0  0  0  0  0  0  0  0  0  0
   -4.3137   17.9233   -4.0852 H   0  0  0  0  0  0  0  0  0  0  0  0
   -5.5604   12.2574   -4.8872 H   0  0  0  0  0  0  0  0  0  0  0  0
   -2.0857   15.1335   -4.2273 H   0  0  0  0  0  0  0  0  0  0  0  0
    0.0991   15.0808   -3.0690 H   0  0  0  0  0  0  0  0  0  0  0  0
    0.5869   16.7489   -1.2937 H   0  0  0  0  0  0  0  0  0  0  0  0
   -1.1193   18.4302   -0.6774 H   0  0  0  0  0  0  0  0  0  0  0  0
   -3.3147   18.4596   -1.8105 H   0  0  0  0  0  0  0  0  0  0  0  0
  1  2  1  0
  1  6  2  0
  1  7  1  0
  2  3  2  0
  2 10  1  0
  3  4  1  0
  4  5  2  0
  4 12  1  0
  5  6  1  0
  7  8  1  0
  8  9  1  0
  9 10  1  0
  9 11  2  0
 12 13  1  0
 12 17  2  0
 13 14  1  0
 13 21  1  0
 14 15  1  0
 15 16  1  0
 15 18  2  0
 16 17  1  0
 16 20  1  0
 18 19  1  0
 19 20  2  0
 21 22  2  0
 21 26  1  0
 22 23  1  0
 23 24  2  0
 24 25  1  0
 25 26  2  0
  3 27  1  0
  5 28  1  0
  6 29  1  0
  8 30  1  0
  8 31  1  0
 10 32  1  0
 13 33  1  0
 20 34  1  0
 22 35  1  0
 23 36  1  0
 24 37  1  0
 25 38  1  0
 26 39  1  0
A    1
C1
A    2
C2
A    3
C3
A    4
C4
A    5
C5
A    6
C6
A    7
O7
A    8
C8
A    9
C9
A   10
N10
A   11
O11
A   12
C12
A   13
C13
A   14
S14
A   15
C15
A   16
N16
A   17
N17
A   18
N18
A   19
N19
A   20
C20
A   21
C21
A   22
C22
A   23
C23
A   24
C24
A   25
C25
A   26
C26
M  END
