3VHW_VHW_A_1
     RDKit          3D

 91 94  0  0  0  0  0  0  0  0999 V2000
   13.0080   -1.7560  -34.4770 C   0  0  0  0  0  0  0  0  0  0  0  0
   14.2570   -2.2600  -33.7690 C   0  0  0  0  0  0  0  0  0  0  0  0
   13.8620   -2.7220  -32.3870 C   0  0  0  0  0  0  0  0  0  0  0  0
   12.2000   -0.7050  -33.6870 C   0  0  0  0  0  0  0  0  0  0  0  0
   11.9080   -1.1590  -32.2640 C   0  0  0  0  0  0  0  0  0  0  0  0
   13.1900   -1.6300  -31.6050 C   0  0  0  0  0  0  0  0  0  0  0  0
   12.9260   -1.6980  -30.0850 C   0  0  0  0  0  0  0  0  0  0  0  0
   11.8520   -0.6360  -29.8380 C   0  0  0  0  0  0  0  0  0  0  0  0
   11.5980   -0.0440  -31.2450 C   0  0  0  0  0  0  0  0  0  0  0  0
   14.1110   -3.9680  -31.9240 C   0  0  0  0  0  0  0  0  0  0  0  0
   14.8180   -5.0310  -32.6790 C   0  0  0  0  0  0  0  0  0  0  0  0
   14.6430   -6.3510  -32.3670 C   0  0  0  0  0  0  0  0  0  0  0  0
   15.4030   -7.3900  -33.1290 C   0  0  0  0  0  0  0  0  0  0  0  0
   15.9230   -8.5090  -32.2250 C   0  0  0  0  0  0  0  0  0  0  0  0
   14.8600   -9.0350  -31.2650 C   0  0  0  0  0  0  0  0  0  0  0  0
   14.2580   -7.9440  -30.3910 C   0  0  0  0  0  0  0  0  0  0  0  0
   13.7440   -6.8620  -31.3090 C   0  0  0  0  0  0  0  0  0  0  0  0
   12.4930   -6.4320  -31.1900 C   0  0  0  0  0  0  0  0  0  0  0  0
   17.0490   -8.0650  -31.4110 O   0  0  0  0  0  0  0  0  0  0  0  0
   13.2300   -8.6310  -29.6760 O   0  0  0  0  0  0  0  0  0  0  0  0
   10.2910    0.7710  -31.4360 C   0  0  0  0  0  0  0  0  0  0  0  0
   10.8490   -2.2740  -32.2920 C   0  0  0  0  0  0  0  0  0  0  0  0
    9.0250    0.0690  -30.9760 C   0  0  0  0  0  0  0  0  0  0  0  0
   10.3550    2.1570  -30.7510 C   0  0  0  0  0  0  0  0  0  0  0  0
    8.0050   -0.1490  -31.8270 C   0  0  0  0  0  0  0  0  0  0  0  0
    8.0060    0.2040  -33.3010 C   0  0  0  0  0  0  0  0  0  0  0  0
    6.6590   -0.3000  -33.8640 C   0  0  0  0  0  0  0  0  0  0  0  0
    6.0210   -1.0680  -32.7330 C   0  0  0  0  0  0  0  0  0  0  0  0
    6.7710   -0.7860  -31.4550 C   0  0  0  0  0  0  0  0  0  0  0  0
    6.4580   -1.0560  -30.2990 O   0  0  0  0  0  0  0  0  0  0  0  0
    4.8470   -2.0330  -32.9860 C   0  0  0  0  0  0  0  0  0  0  0  0
    5.0350    0.0970  -32.4620 C   0  0  0  0  0  0  0  0  0  0  0  0
    4.0800   -2.4570  -31.7740 C   0  0  0  0  0  0  0  0  0  0  0  0
    4.7470    1.0640  -33.4980 O   0  0  0  0  0  0  0  0  0  0  0  0
    4.4430    0.3350  -31.4040 O   0  0  0  0  0  0  0  0  0  0  0  0
    3.6260    1.9380  -33.3370 C   0  0  0  0  0  0  0  0  0  0  0  0
   13.8440   -9.7420  -31.9810 O   0  0  0  0  0  0  0  0  0  0  0  0
   14.4910  -10.9720  -32.1790 C   0  0  0  0  0  0  0  0  0  0  0  0
   13.6760  -12.1910  -31.9270 C   0  0  0  0  0  0  0  0  0  0  0  0
   14.6290  -13.1230  -31.2070 C   0  0  0  0  0  0  0  0  0  0  0  0
   13.8890  -13.5050  -30.0310 O   0  0  0  0  0  0  0  0  0  0  0  0
   13.3139   -1.3058  -35.4329 H   0  0  0  0  0  0  0  0  0  0  0  0
   12.3478   -2.6271  -34.6012 H   0  0  0  0  0  0  0  0  0  0  0  0
   14.6912   -3.0992  -34.3322 H   0  0  0  0  0  0  0  0  0  0  0  0
   15.0057   -1.4569  -33.7016 H   0  0  0  0  0  0  0  0  0  0  0  0
   12.7766    0.2310  -33.6495 H   0  0  0  0  0  0  0  0  0  0  0  0
   11.2381   -0.5607  -34.2008 H   0  0  0  0  0  0  0  0  0  0  0  0
   14.0443   -0.9384  -31.6486 H   0  0  0  0  0  0  0  0  0  0  0  0
   12.5611   -2.6951  -29.7974 H   0  0  0  0  0  0  0  0  0  0  0  0
   13.8358   -1.5203  -29.4928 H   0  0  0  0  0  0  0  0  0  0  0  0
   10.9363   -1.0901  -29.4315 H   0  0  0  0  0  0  0  0  0  0  0  0
   12.1608    0.1226  -29.1037 H   0  0  0  0  0  0  0  0  0  0  0  0
   12.2867    0.7944  -31.4260 H   0  0  0  0  0  0  0  0  0  0  0  0
   13.7624   -4.2118  -30.9096 H   0  0  0  0  0  0  0  0  0  0  0  0
   15.4930   -4.7536  -33.5020 H   0  0  0  0  0  0  0  0  0  0  0  0
   14.7385   -7.8285  -33.8881 H   0  0  0  0  0  0  0  0  0  0  0  0
   16.2724   -6.8995  -33.5910 H   0  0  0  0  0  0  0  0  0  0  0  0
   16.2293   -9.3090  -32.9151 H   0  0  0  0  0  0  0  0  0  0  0  0
   15.3641   -9.7334  -30.5808 H   0  0  0  0  0  0  0  0  0  0  0  0
   14.9435   -7.4482  -29.6879 H   0  0  0  0  0  0  0  0  0  0  0  0
   11.8479   -6.8305  -30.3931 H   0  0  0  0  0  0  0  0  0  0  0  0
   12.1020   -5.6774  -31.8884 H   0  0  0  0  0  0  0  0  0  0  0  0
   16.8192   -8.1556  -30.4523 H   0  0  0  0  0  0  0  0  0  0  0  0
   13.3810   -8.5301  -28.7028 H   0  0  0  0  0  0  0  0  0  0  0  0
   10.2282    0.8861  -32.5282 H   0  0  0  0  0  0  0  0  0  0  0  0
   10.5835   -2.5535  -31.2618 H   0  0  0  0  0  0  0  0  0  0  0  0
    9.9518   -1.9145  -32.8171 H   0  0  0  0  0  0  0  0  0  0  0  0
   11.2543   -3.1515  -32.8171 H   0  0  0  0  0  0  0  0  0  0  0  0
    8.9404   -0.2663  -29.9318 H   0  0  0  0  0  0  0  0  0  0  0  0
   10.3490    2.0268  -29.6587 H   0  0  0  0  0  0  0  0  0  0  0  0
   11.2779    2.6733  -31.0536 H   0  0  0  0  0  0  0  0  0  0  0  0
    9.4836    2.7562  -31.0536 H   0  0  0  0  0  0  0  0  0  0  0  0
    8.0912    1.2928  -33.4326 H   0  0  0  0  0  0  0  0  0  0  0  0
    8.8572   -0.2568  -33.8236 H   0  0  0  0  0  0  0  0  0  0  0  0
    6.0239    0.5474  -34.1616 H   0  0  0  0  0  0  0  0  0  0  0  0
    6.7950   -0.9239  -34.7597 H   0  0  0  0  0  0  0  0  0  0  0  0
    4.1453   -1.5379  -33.6733 H   0  0  0  0  0  0  0  0  0  0  0  0
    5.2972   -2.9513  -33.3910 H   0  0  0  0  0  0  0  0  0  0  0  0
    4.6275   -2.1544  -30.8692 H   0  0  0  0  0  0  0  0  0  0  0  0
    3.0897   -1.9782  -31.7807 H   0  0  0  0  0  0  0  0  0  0  0  0
    3.9587   -3.5503  -31.7807 H   0  0  0  0  0  0  0  0  0  0  0  0
    3.4307    2.0902  -32.2652 H   0  0  0  0  0  0  0  0  0  0  0  0
    3.8449    2.9062  -33.8110 H   0  0  0  0  0  0  0  0  0  0  0  0
    2.7404    1.4896  -33.8110 H   0  0  0  0  0  0  0  0  0  0  0  0
   14.8329  -11.0070  -33.2239 H   0  0  0  0  0  0  0  0  0  0  0  0
   15.3017  -11.0011  -31.4361 H   0  0  0  0  0  0  0  0  0  0  0  0
   12.8060  -11.9567  -31.2960 H   0  0  0  0  0  0  0  0  0  0  0  0
   13.2706  -12.6292  -32.8509 H   0  0  0  0  0  0  0  0  0  0  0  0
   14.8660  -14.0006  -31.8264 H   0  0  0  0  0  0  0  0  0  0  0  0
   15.5972  -12.6554  -30.9749 H   0  0  0  0  0  0  0  0  0  0  0  0
   14.3964  -13.2431  -29.2223 H   0  0  0  0  0  0  0  0  0  0  0  0
  1  2  1  0
  1  4  1  0
  2  3  1  0
  3  6  1  0
  3 10  2  0
  4  5  1  0
  5  6  1  0
  5  9  1  0
  5 22  1  0
  6  7  1  0
  7  8  1  0
  8  9  1  0
  9 21  1  0
 10 11  1  0
 11 12  2  0
 12 13  1  0
 12 17  1  0
 13 14  1  0
 14 15  1  0
 14 19  1  0
 15 16  1  0
 15 37  1  0
 16 17  1  0
 16 20  1  0
 17 18  2  0
 21 23  1  0
 21 24  1  0
 23 25  2  0
 25 26  1  0
 25 29  1  0
 26 27  1  0
 27 28  1  0
 28 29  1  0
 28 31  1  0
 28 32  1  0
 29 30  2  0
 31 33  1  0
 32 34  1  0
 32 35  2  0
 34 36  1  0
 37 38  1  0
 38 39  1  0
 39 40  1  0
 40 41  1  0
  1 42  1  0
  1 43  1  0
  2 44  1  0
  2 45  1  0
  4 46  1  0
  4 47  1  0
  6 48  1  0
  7 49  1  0
  7 50  1  0
  8 51  1  0
  8 52  1  0
  9 53  1  0
 10 54  1  0
 11 55  1  0
 13 56  1  0
 13 57  1  0
 14 58  1  0
 15 59  1  0
 16 60  1  0
 18 61  1  0
 18 62  1  0
 19 63  1  0
 20 64  1  0
 21 65  1  0
 22 66  1  0
 22 67  1  0
 22 68  1  0
 23 69  1  0
 24 70  1  0
 24 71  1  0
 24 72  1  0
 26 73  1  0
 26 74  1  0
 27 75  1  0
 27 76  1  0
 31 77  1  0
 31 78  1  0
 33 79  1  0
 33 80  1  0
 33 81  1  0
 36 82  1  0
 36 83  1  0
 36 84  1  0
 38 85  1  0
 38 86  1  0
 39 87  1  0
 39 88  1  0
 40 89  1  0
 40 90  1  0
 41 91  1  0
A    1
C1
A    2
C2
A    3
C3
A    4
C4
A    5
C5
A    6
C6
A    7
C7
A    8
C8
A    9
C9
A   10
C10
A   11
C11
A   12
C12
A   13
C13
A   14
C14
A   15
C15
A   16
C16
A   17
C17
A   18
C18
A   19
O19
A   20
O20
A   21
C21
A   22
C22
A   23
C23
A   24
C24
A   25
C25
A   26
C26
A   27
C27
A   28
C28
A   29
C29
A   30
O30
A   31
C31
A   32
C32
A   33
C33
A   34
O34
A   35
O35
A   36
C36
A   37
O37
A   38
C38
A   39
C39
A   40
C40
A   41
O41
M  END
