1QRD_CBD_A_275
     RDKit          3D

 71 76  0  0  0  0  0  0  0  0999 V2000
   35.4190    2.7150   16.7360 C   0  0  0  0  0  0  0  0  0  0  0  0
   33.8780    2.5730   15.9240 S   0  0  0  0  0  0  0  0  0  0  0  0
   33.1460    1.3470   16.3840 O   0  0  0  0  0  0  0  0  0  0  0  0
   34.3010    2.5020   14.5200 O   0  0  0  0  0  0  0  0  0  0  0  0
   33.1380    3.7530   16.4530 O   0  0  0  0  0  0  0  0  0  0  0  0
   36.5220    1.9530   16.2980 C   0  0  0  0  0  0  0  0  0  0  0  0
   36.3940    1.1560   15.0020 N   0  0  0  0  0  0  0  0  0  0  0  0
   37.6120    1.8150   17.1640 C   0  0  0  0  0  0  0  0  0  0  0  0
   38.7600    0.9810   16.8510 C   0  0  0  0  0  0  0  0  0  0  0  0
   38.6310    0.2500   15.8650 O   0  0  0  0  0  0  0  0  0  0  0  0
   40.0350    0.9550   17.5720 C   0  0  0  0  0  0  0  0  0  0  0  0
   41.1540    0.1810   17.1750 C   0  0  0  0  0  0  0  0  0  0  0  0
   42.2960    0.1910   17.9770 C   0  0  0  0  0  0  0  0  0  0  0  0
   42.3480    0.9420   19.1480 C   0  0  0  0  0  0  0  0  0  0  0  0
   41.2550    1.7050   19.5470 C   0  0  0  0  0  0  0  0  0  0  0  0
   40.0900    1.7000   18.7640 C   0  0  0  0  0  0  0  0  0  0  0  0
   38.9470    2.5260   19.0580 C   0  0  0  0  0  0  0  0  0  0  0  0
   38.9360    3.0730   20.1460 O   0  0  0  0  0  0  0  0  0  0  0  0
   37.6850    2.6170   18.3240 C   0  0  0  0  0  0  0  0  0  0  0  0
   36.5230    3.3200   18.7790 C   0  0  0  0  0  0  0  0  0  0  0  0
   35.3640    3.3410   17.9870 C   0  0  0  0  0  0  0  0  0  0  0  0
   36.5120    4.1130   20.0200 N   0  0  0  0  0  0  0  0  0  0  0  0
   34.2110    7.1200   20.0600 C   0  0  0  0  0  0  0  0  0  0  0  0
   33.7810    8.4940   18.9950 S   0  0  0  0  0  0  0  0  0  0  0  0
   32.2700    8.5270   19.0200 O   0  0  0  0  0  0  0  0  0  0  0  0
   34.2870    8.1270   17.6500 O   0  0  0  0  0  0  0  0  0  0  0  0
   34.4390    9.7500   19.4800 O   0  0  0  0  0  0  0  0  0  0  0  0
   33.5050    6.8240   21.2500 C   0  0  0  0  0  0  0  0  0  0  0  0
   33.7920    5.6670   22.0020 C   0  0  0  0  0  0  0  0  0  0  0  0
   34.7680    4.7830   21.6020 C   0  0  0  0  0  0  0  0  0  0  0  0
   35.4900    5.0600   20.4300 C   0  0  0  0  0  0  0  0  0  0  0  0
   35.2260    6.2210   19.6540 C   0  0  0  0  0  0  0  0  0  0  0  0
   32.4460    7.7680   21.5620 N   0  0  0  0  0  0  0  0  0  0  0  0
   32.6650    7.5530   24.0080 N   0  0  0  0  0  0  0  0  0  0  0  0
   32.3670    7.9780   25.2620 C   0  0  0  0  0  0  0  0  0  0  0  0
   33.0700    7.0710   26.7140 Cl  0  0  0  0  0  0  0  0  0  0  0  0
   31.5500    9.0790   25.3650 N   0  0  0  0  0  0  0  0  0  0  0  0
   31.0580    9.7370   24.2870 C   0  0  0  0  0  0  0  0  0  0  0  0
   31.3760    9.2980   23.0600 N   0  0  0  0  0  0  0  0  0  0  0  0
   32.1700    8.2100   22.9290 C   0  0  0  0  0  0  0  0  0  0  0  0
   30.1820   10.8950   24.4520 N   0  0  0  0  0  0  0  0  0  0  0  0
   29.4870   13.0530   23.5700 C   0  0  0  0  0  0  0  0  0  0  0  0
   30.2000   13.7180   25.0690 S   0  0  0  0  0  0  0  0  0  0  0  0
   31.6880   13.4510   25.0950 O   0  0  0  0  0  0  0  0  0  0  0  0
   29.4250   13.1030   26.1870 O   0  0  0  0  0  0  0  0  0  0  0  0
   30.2370   15.2210   25.1410 O   0  0  0  0  0  0  0  0  0  0  0  0
   29.6210   11.6440   23.3380 C   0  0  0  0  0  0  0  0  0  0  0  0
   29.1260   11.0700   22.1260 C   0  0  0  0  0  0  0  0  0  0  0  0
   28.5240   11.8930   21.1570 C   0  0  0  0  0  0  0  0  0  0  0  0
   28.3790   13.2850   21.3860 C   0  0  0  0  0  0  0  0  0  0  0  0
   28.8420   13.8700   22.5800 C   0  0  0  0  0  0  0  0  0  0  0  0
   33.1502    3.7336   17.4427 H   0  0  0  0  0  0  0  0  0  0  0  0
   36.2308    0.1396   15.0364 H   0  0  0  0  0  0  0  0  0  0  0  0
   36.4709    1.6347   14.0933 H   0  0  0  0  0  0  0  0  0  0  0  0
   41.1229   -0.4165   16.2519 H   0  0  0  0  0  0  0  0  0  0  0  0
   43.1708   -0.4053   17.6785 H   0  0  0  0  0  0  0  0  0  0  0  0
   43.2602    0.9321   19.7626 H   0  0  0  0  0  0  0  0  0  0  0  0
   41.3034    2.3062   20.4669 H   0  0  0  0  0  0  0  0  0  0  0  0
   34.4443    3.8324   18.3373 H   0  0  0  0  0  0  0  0  0  0  0  0
   37.3080    3.9831   20.6606 H   0  0  0  0  0  0  0  0  0  0  0  0
   34.4437    9.7590   20.4699 H   0  0  0  0  0  0  0  0  0  0  0  0
   33.2264    5.4672   22.9241 H   0  0  0  0  0  0  0  0  0  0  0  0
   34.9784    3.8769   22.1891 H   0  0  0  0  0  0  0  0  0  0  0  0
   35.8079    6.4200   18.7420 H   0  0  0  0  0  0  0  0  0  0  0  0
   31.8691    8.1393   20.7937 H   0  0  0  0  0  0  0  0  0  0  0  0
   29.9491   11.1973   25.4087 H   0  0  0  0  0  0  0  0  0  0  0  0
   30.2440   15.5059   26.0891 H   0  0  0  0  0  0  0  0  0  0  0  0
   29.2156    9.9876   21.9516 H   0  0  0  0  0  0  0  0  0  0  0  0
   28.1632   11.4539   20.2152 H   0  0  0  0  0  0  0  0  0  0  0  0
   27.8994   13.9147   20.6222 H   0  0  0  0  0  0  0  0  0  0  0  0
   28.7104   14.9481   22.7541 H   0  0  0  0  0  0  0  0  0  0  0  0
  1  2  1  0
  1  6  2  0
  1 21  1  0
  2  3  2  0
  2  4  2  0
  2  5  1  0
  6  7  1  0
  6  8  1  0
  8  9  1  0
  8 19  2  0
  9 10  2  0
  9 11  1  0
 11 12  2  0
 11 16  1  0
 12 13  1  0
 13 14  2  0
 14 15  1  0
 15 16  2  0
 16 17  1  0
 17 18  2  0
 17 19  1  0
 19 20  1  0
 20 21  2  0
 20 22  1  0
 22 31  1  0
 23 24  1  0
 23 28  2  0
 23 32  1  0
 24 25  2  0
 24 26  2  0
 24 27  1  0
 28 29  1  0
 28 33  1  0
 29 30  2  0
 30 31  1  0
 31 32  2  0
 33 40  1  0
 34 35  2  0
 34 40  1  0
 35 36  1  0
 35 37  1  0
 37 38  2  0
 38 39  1  0
 38 41  1  0
 39 40  2  0
 41 47  1  0
 42 43  1  0
 42 47  2  0
 42 51  1  0
 43 44  2  0
 43 45  2  0
 43 46  1  0
 47 48  1  0
 48 49  2  0
 49 50  1  0
 50 51  2  0
  5 52  1  0
  7 53  1  0
  7 54  1  0
 12 55  1  0
 13 56  1  0
 14 57  1  0
 15 58  1  0
 21 59  1  0
 22 60  1  0
 27 61  1  0
 29 62  1  0
 30 63  1  0
 32 64  1  0
 33 65  1  0
 41 66  1  0
 46 67  1  0
 48 68  1  0
 49 69  1  0
 50 70  1  0
 51 71  1  0
A    1
C1
A    2
SA
A    3
O1A
A    4
O2A
A    5
O3A
A    6
C2
A    7
N2
A    8
C3
A    9
C4
A   10
O4
A   11
C5
A   12
C6
A   13
C7
A   14
C8
A   15
C9
A   16
C10
A   17
C11
A   18
O11
A   19
C12
A   20
C13
A   21
C14
A   22
NB
A   23
CB1
A   24
SB
A   25
O1B
A   26
O2B
A   27
O3B
A   28
CB2
A   29
CB3
A   30
CB4
A   31
CB5
A   32
CB6
A   33
NC
A   34
NC1
A   35
CC2
A   36
CL
A   37
NC3
A   38
CC4
A   39
NC5
A   40
CC6
A   41
ND
A   42
CD1
A   43
SD
A   44
O1D
A   45
O2D
A   46
O3D
A   47
CD2
A   48
CD3
A   49
CD4
A   50
CD5
A   51
CD6
M  END
