3VJL_W94_A_1000
     RDKit          3D

 61 65  0  0  0  0  0  0  0  0999 V2000
   48.1160   62.4730   34.7320 C   0  0  0  0  0  0  0  0  0  0  0  0
   48.2800   61.1910   35.2670 C   0  0  0  0  0  0  0  0  0  0  0  0
   46.9900   60.6670   35.2180 C   0  0  0  0  0  0  0  0  0  0  0  0
   46.0430   61.4730   34.7230 N   0  0  0  0  0  0  0  0  0  0  0  0
   46.8100   62.5920   34.4190 N   0  0  0  0  0  0  0  0  0  0  0  0
   46.1870   63.6490   33.9070 C   0  0  0  0  0  0  0  0  0  0  0  0
   44.9720   64.0700   34.4750 C   0  0  0  0  0  0  0  0  0  0  0  0
   44.2490   65.1660   34.0060 C   0  0  0  0  0  0  0  0  0  0  0  0
   44.7460   65.8740   32.9180 C   0  0  0  0  0  0  0  0  0  0  0  0
   45.9500   65.4790   32.3290 C   0  0  0  0  0  0  0  0  0  0  0  0
   46.6530   64.3790   32.8130 C   0  0  0  0  0  0  0  0  0  0  0  0
   46.6050   59.2910   35.6730 C   0  0  0  0  0  0  0  0  0  0  0  0
   45.3750   59.3620   36.1890 F   0  0  0  0  0  0  0  0  0  0  0  0
   47.4760   58.8570   36.5820 F   0  0  0  0  0  0  0  0  0  0  0  0
   46.6050   58.4970   34.6050 F   0  0  0  0  0  0  0  0  0  0  0  0
   49.3330   63.3470   34.6410 C   0  0  0  0  0  0  0  0  0  0  0  0
   50.2120   63.1730   35.8770 C   0  0  0  0  0  0  0  0  0  0  0  0
   51.4290   64.1020   35.8460 C   0  0  0  0  0  0  0  0  0  0  0  0
   52.1600   63.8600   34.6010 N   0  0  0  0  0  0  0  0  0  0  0  0
   51.4010   64.0330   33.3440 C   0  0  0  0  0  0  0  0  0  0  0  0
   50.1760   63.1060   33.3840 C   0  0  0  0  0  0  0  0  0  0  0  0
   53.4300   64.6120   34.6170 C   0  0  0  0  0  0  0  0  0  0  0  0
   54.3410   64.2110   35.7880 C   0  0  0  0  0  0  0  0  0  0  0  0
   55.7290   64.6790   35.3460 C   0  0  0  0  0  0  0  0  0  0  0  0
   55.6550   64.5940   33.8980 N   0  0  0  0  0  0  0  0  0  0  0  0
   54.3160   64.3130   33.4090 C   0  0  0  0  0  0  0  0  0  0  0  0
   56.8600   63.8620   35.9380 C   0  0  0  0  0  0  0  0  0  0  0  0
   57.4120   64.2940   37.0690 N   0  0  0  0  0  0  0  0  0  0  0  0
   56.9320   65.5080   37.7270 C   0  0  0  0  0  0  0  0  0  0  0  0
   57.5080   65.6500   39.1110 C   0  0  0  0  0  0  0  0  0  0  0  0
   58.5700   64.2740   39.4110 S   0  0  0  0  0  0  0  0  0  0  0  0
   58.5180   63.5970   37.7430 C   0  0  0  0  0  0  0  0  0  0  0  0
   57.2630   62.8570   35.3700 O   0  0  0  0  0  0  0  0  0  0  0  0
   49.2003   60.7142   35.6355 H   0  0  0  0  0  0  0  0  0  0  0  0
   44.5721   63.5072   35.3314 H   0  0  0  0  0  0  0  0  0  0  0  0
   43.3055   65.4640   34.4867 H   0  0  0  0  0  0  0  0  0  0  0  0
   44.1948   66.7401   32.5230 H   0  0  0  0  0  0  0  0  0  0  0  0
   46.3471   66.0439   31.4727 H   0  0  0  0  0  0  0  0  0  0  0  0
   47.5922   64.0802   32.3244 H   0  0  0  0  0  0  0  0  0  0  0  0
   48.9526   64.3774   34.5806 H   0  0  0  0  0  0  0  0  0  0  0  0
   49.6149   63.3985   36.7729 H   0  0  0  0  0  0  0  0  0  0  0  0
   50.5752   62.1349   35.8943 H   0  0  0  0  0  0  0  0  0  0  0  0
   51.0979   65.1503   35.8853 H   0  0  0  0  0  0  0  0  0  0  0  0
   52.0786   63.9048   36.7115 H   0  0  0  0  0  0  0  0  0  0  0  0
   51.0725   65.0785   33.2496 H   0  0  0  0  0  0  0  0  0  0  0  0
   52.0364   63.7818   32.4819 H   0  0  0  0  0  0  0  0  0  0  0  0
   50.5180   62.0605   33.3775 H   0  0  0  0  0  0  0  0  0  0  0  0
   49.5524   63.3183   32.5031 H   0  0  0  0  0  0  0  0  0  0  0  0
   53.0919   65.6579   34.6599 H   0  0  0  0  0  0  0  0  0  0  0  0
   54.0335   64.7169   36.7151 H   0  0  0  0  0  0  0  0  0  0  0  0
   54.3044   63.1335   36.0063 H   0  0  0  0  0  0  0  0  0  0  0  0
   55.9667   65.6923   35.7021 H   0  0  0  0  0  0  0  0  0  0  0  0
   55.9668   65.4918   33.5010 H   0  0  0  0  0  0  0  0  0  0  0  0
   54.2215   63.2610   33.1019 H   0  0  0  0  0  0  0  0  0  0  0  0
   54.0486   64.9062   32.5221 H   0  0  0  0  0  0  0  0  0  0  0  0
   57.2267   66.3808   37.1259 H   0  0  0  0  0  0  0  0  0  0  0  0
   55.8373   65.4439   37.8136 H   0  0  0  0  0  0  0  0  0  0  0  0
   58.0823   66.5856   39.1810 H   0  0  0  0  0  0  0  0  0  0  0  0
   56.7004   65.6760   39.8574 H   0  0  0  0  0  0  0  0  0  0  0  0
   58.3278   62.5140   37.7737 H   0  0  0  0  0  0  0  0  0  0  0  0
   59.4722   63.7405   37.2150 H   0  0  0  0  0  0  0  0  0  0  0  0
  1  2  2  0
  1  5  1  0
  1 16  1  0
  2  3  1  0
  3  4  2  0
  3 12  1  0
  4  5  1  0
  5  6  1  0
  6  7  2  0
  6 11  1  0
  7  8  1  0
  8  9  2  0
  9 10  1  0
 10 11  2  0
 12 13  1  0
 12 14  1  0
 12 15  1  0
 16 17  1  0
 16 21  1  0
 17 18  1  0
 18 19  1  0
 19 20  1  0
 19 22  1  0
 20 21  1  0
 22 23  1  0
 22 26  1  0
 23 24  1  0
 24 25  1  0
 24 27  1  0
 25 26  1  0
 27 28  1  0
 27 33  2  0
 28 29  1  0
 28 32  1  0
 29 30  1  0
 30 31  1  0
 31 32  1  0
  2 34  1  0
  7 35  1  0
  8 36  1  0
  9 37  1  0
 10 38  1  0
 11 39  1  0
 16 40  1  0
 17 41  1  0
 17 42  1  0
 18 43  1  0
 18 44  1  0
 20 45  1  0
 20 46  1  0
 21 47  1  0
 21 48  1  0
 22 49  1  0
 23 50  1  0
 23 51  1  0
 24 52  1  0
 25 53  1  0
 26 54  1  0
 26 55  1  0
 29 56  1  0
 29 57  1  0
 30 58  1  0
 30 59  1  0
 32 60  1  0
 32 61  1  0
A    1
C1
A    2
C2
A    3
C3
A    4
N4
A    5
N5
A    6
C6
A    7
C7
A    8
C8
A    9
C9
A   10
C10
A   11
C11
A   12
C12
A   13
F13
A   14
F14
A   15
F15
A   16
C16
A   17
C17
A   18
C18
A   19
N19
A   20
C20
A   21
C21
A   22
C22
A   23
C23
A   24
C24
A   25
N25
A   26
C26
A   27
C27
A   28
N28
A   29
C29
A   30
C30
A   31
S31
A   32
C32
A   33
O33
M  END
