3ITV_PSJ_A_601
     RDKit          3D

 24 23  0  0  0  0  0  0  0  0999 V2000
  -41.7170    4.6990   13.1230 C   0  0  0  0  0  0  0  0  0  0  0  0
  -40.3980    4.7340   13.6410 O   0  0  0  0  0  0  0  0  0  0  0  0
  -41.8840    3.4920   12.2160 C   0  0  0  0  0  0  0  0  0  0  0  0
  -40.9670    2.6760   12.1030 O   0  0  0  0  0  0  0  0  0  0  0  0
  -43.2000    3.2680   11.4810 C   0  0  0  0  0  0  0  0  0  0  0  0
  -43.0970    2.1200   10.6490 O   0  0  0  0  0  0  0  0  0  0  0  0
  -43.5450    4.4970   10.6340 C   0  0  0  0  0  0  0  0  0  0  0  0
  -44.8800    4.3930   10.1530 O   0  0  0  0  0  0  0  0  0  0  0  0
  -42.5820    4.6590    9.4560 C   0  0  0  0  0  0  0  0  0  0  0  0
  -41.2400    4.6200    9.9190 O   0  0  0  0  0  0  0  0  0  0  0  0
  -42.8420    5.9870    8.7600 C   0  0  0  0  0  0  0  0  0  0  0  0
  -42.5420    7.0580    9.6380 O   0  0  0  0  0  0  0  0  0  0  0  0
  -42.4339    4.6323   13.9547 H   0  0  0  0  0  0  0  0  0  0  0  0
  -41.9034    5.6157   12.5442 H   0  0  0  0  0  0  0  0  0  0  0  0
  -40.4319    4.7331   14.6304 H   0  0  0  0  0  0  0  0  0  0  0  0
  -43.9999    3.1086   12.2191 H   0  0  0  0  0  0  0  0  0  0  0  0
  -43.0243    1.3094   11.2127 H   0  0  0  0  0  0  0  0  0  0  0  0
  -43.4483    5.3857   11.2750 H   0  0  0  0  0  0  0  0  0  0  0  0
  -45.5042    4.3444   10.9199 H   0  0  0  0  0  0  0  0  0  0  0  0
  -42.7432    3.8355    8.7448 H   0  0  0  0  0  0  0  0  0  0  0  0
  -41.2323    4.6198   10.9090 H   0  0  0  0  0  0  0  0  0  0  0  0
  -42.2069    6.0602    7.8649 H   0  0  0  0  0  0  0  0  0  0  0  0
  -43.9015    6.0425    8.4695 H   0  0  0  0  0  0  0  0  0  0  0  0
  -42.6281    6.7505   10.5751 H   0  0  0  0  0  0  0  0  0  0  0  0
  1  2  1  0
  1  3  1  0
  5  3  1  0
  3  4  2  0
  7  5  1  0
  5  6  1  0
  8  7  1  0
  7  9  1  0
 11  9  1  0
  9 10  1  0
 12 11  1  0
  1 13  1  0
  1 14  1  0
  2 15  1  0
  5 16  1  0
  6 17  1  0
  7 18  1  0
  8 19  1  0
  9 20  1  0
 10 21  1  0
 11 22  1  0
 11 23  1  0
 12 24  1  0
A    1
C1
A    2
O1
A    3
C2
A    4
O2
A    5
C3
A    6
O3
A    7
C4
A    8
O4
A    9
C5
A   10
O5
A   11
C6
A   12
O6
M  END
