3VO3_0KF_A_2001
     RDKit          3D

 53 57  0  0  0  0  0  0  0  0999 V2000
   28.7020  -29.2840  -11.4360 C   0  0  0  0  0  0  0  0  0  0  0  0
   29.3740  -29.6490  -12.5760 C   0  0  0  0  0  0  0  0  0  0  0  0
   27.3510  -29.0230  -11.4500 C   0  0  0  0  0  0  0  0  0  0  0  0
   27.3310  -29.4750  -13.8110 C   0  0  0  0  0  0  0  0  0  0  0  0
   30.6960  -31.3200  -17.2220 C   0  0  0  0  0  0  0  0  0  0  0  0
   21.7480  -26.2180  -11.3970 C   0  0  0  0  0  0  0  0  0  0  0  0
   28.6850  -29.7320  -13.7650 C   0  0  0  0  0  0  0  0  0  0  0  0
   26.6800  -29.1200  -12.6480 C   0  0  0  0  0  0  0  0  0  0  0  0
   30.0310  -30.1130  -17.1560 C   0  0  0  0  0  0  0  0  0  0  0  0
   31.3820  -31.2990  -18.4600 C   0  0  0  0  0  0  0  0  0  0  0  0
   21.6840  -24.8830  -11.2920 C   0  0  0  0  0  0  0  0  0  0  0  0
   23.6410  -25.2910  -11.8950 C   0  0  0  0  0  0  0  0  0  0  0  0
   24.9260  -25.2090  -12.2860 C   0  0  0  0  0  0  0  0  0  0  0  0
   25.4950  -26.4950  -12.5680 C   0  0  0  0  0  0  0  0  0  0  0  0
   24.8010  -27.6490  -12.4320 C   0  0  0  0  0  0  0  0  0  0  0  0
   29.1730  -29.5730  -16.1460 C   0  0  0  0  0  0  0  0  0  0  0  0
   19.3520  -24.6680  -10.5510 C   0  0  0  0  0  0  0  0  0  0  0  0
   17.4360  -23.7910   -9.0540 C   0  0  0  0  0  0  0  0  0  0  0  0
   16.8980  -23.9030  -10.4470 C   0  0  0  0  0  0  0  0  0  0  0  0
   18.3590  -23.6310  -10.2280 C   0  0  0  0  0  0  0  0  0  0  0  0
   32.2450  -32.3450  -19.0370 C   0  0  0  0  0  0  0  0  0  0  0  0
   29.9180  -28.1600  -18.7540 C   0  0  0  0  0  0  0  0  0  0  0  0
   31.1690  -30.1660  -19.1310 N   0  0  0  0  0  0  0  0  0  0  0  0
   22.8860  -24.2780  -11.6060 N   0  0  0  0  0  0  0  0  0  0  0  0
   23.6020  -27.6910  -12.0400 N   0  0  0  0  0  0  0  0  0  0  0  0
   23.0300  -26.4900  -11.7770 N   0  0  0  0  0  0  0  0  0  0  0  0
   30.3600  -29.4710  -18.3210 N   0  0  0  0  0  0  0  0  0  0  0  0
   29.3950  -30.1050  -14.9080 N   0  0  0  0  0  0  0  0  0  0  0  0
   20.5640  -24.1420  -10.9430 N   0  0  0  0  0  0  0  0  0  0  0  0
   28.3080  -28.7490  -16.3920 O   0  0  0  0  0  0  0  0  0  0  0  0
   19.0770  -25.8560  -10.4480 O   0  0  0  0  0  0  0  0  0  0  0  0
   25.3200  -28.8930  -12.7130 O   0  0  0  0  0  0  0  0  0  0  0  0
   29.2562  -29.1982  -10.4897 H   0  0  0  0  0  0  0  0  0  0  0  0
   30.4504  -29.8726  -12.5399 H   0  0  0  0  0  0  0  0  0  0  0  0
   26.8208  -28.7440  -10.5275 H   0  0  0  0  0  0  0  0  0  0  0  0
   26.7792  -29.5518  -14.7595 H   0  0  0  0  0  0  0  0  0  0  0  0
   30.6936  -32.1258  -16.4732 H   0  0  0  0  0  0  0  0  0  0  0  0
   20.9388  -26.9407  -11.2154 H   0  0  0  0  0  0  0  0  0  0  0  0
   25.4780  -24.2621  -12.3789 H   0  0  0  0  0  0  0  0  0  0  0  0
   26.5395  -26.5455  -12.9092 H   0  0  0  0  0  0  0  0  0  0  0  0
   17.1791  -22.9195   -8.4339 H   0  0  0  0  0  0  0  0  0  0  0  0
   17.4191  -24.4323   -8.1604 H   0  0  0  0  0  0  0  0  0  0  0  0
   16.2462  -23.1137  -10.8497 H   0  0  0  0  0  0  0  0  0  0  0  0
   16.3227  -24.6605  -10.9995 H   0  0  0  0  0  0  0  0  0  0  0  0
   19.0704  -22.8573  -10.5527 H   0  0  0  0  0  0  0  0  0  0  0  0
   32.7181  -32.9185  -18.2263 H   0  0  0  0  0  0  0  0  0  0  0  0
   31.6377  -33.0202  -19.6577 H   0  0  0  0  0  0  0  0  0  0  0  0
   33.0233  -31.8771  -19.6577 H   0  0  0  0  0  0  0  0  0  0  0  0
   29.7072  -27.5349  -17.8738 H   0  0  0  0  0  0  0  0  0  0  0  0
   30.7068  -27.6882  -19.3584 H   0  0  0  0  0  0  0  0  0  0  0  0
   29.0046  -28.2621  -19.3584 H   0  0  0  0  0  0  0  0  0  0  0  0
   30.1279  -30.8223  -14.8119 H   0  0  0  0  0  0  0  0  0  0  0  0
   20.6450  -23.1159  -10.9799 H   0  0  0  0  0  0  0  0  0  0  0  0
 23 10  2  0
 23 27  1  0
 21 10  1  0
 22 27  1  0
 10  5  1  0
 27  9  1  0
  5  9  2  0
  9 16  1  0
 30 16  2  0
 16 28  1  0
 28  7  1  0
  4  7  2  0
  4  8  1  0
  7  2  1  0
 32  8  1  0
 32 15  1  0
  8  3  2  0
  2  1  2  0
 14 15  1  0
 14 13  2  0
 15 25  2  0
 13 12  1  0
 25 26  1  0
 12 26  1  0
 12 24  2  0
 26  6  1  0
 24 11  1  0
  3  1  1  0
  6 11  2  0
 11 29  1  0
 29 17  1  0
 17 31  2  0
 17 20  1  0
 19 20  1  0
 19 18  1  0
 20 18  1  0
  1 33  1  0
  2 34  1  0
  3 35  1  0
  4 36  1  0
  5 37  1  0
  6 38  1  0
 13 39  1  0
 14 40  1  0
 18 41  1  0
 18 42  1  0
 19 43  1  0
 19 44  1  0
 20 45  1  0
 21 46  1  0
 21 47  1  0
 21 48  1  0
 22 49  1  0
 22 50  1  0
 22 51  1  0
 28 52  1  0
 29 53  1  0
A    1
C3
A    2
C4
A    3
C2
A    4
C6
A    5
C11
A    6
C23
A    7
C5
A    8
C1
A    9
C10
A   10
C12
A   11
C24
A   12
C21
A   13
C20
A   14
C19
A   15
C18
A   16
C8
A   17
C27
A   18
C30
A   19
C31
A   20
C29
A   21
C16
A   22
C15
A   23
N13
A   24
N25
A   25
N32
A   26
N22
A   27
N14
A   28
N7
A   29
N26
A   30
O9
A   31
O28
A   32
O17
M  END
