3VP2_BP0_A_601
     RDKit          3D

 16 16  0  0  0  0  0  0  0  0999 V2000
    7.8500   -7.8500    0.0000 S   0  0  0  0  0  0  0  0  0  0  0  0
    4.4170   -9.9210    0.5100 N   0  0  0  0  0  0  0  0  0  0  0  0
    2.2780  -10.1450   -2.3510 N   0  0  0  0  0  0  0  0  0  0  0  0
    3.2510   -9.9970   -0.1400 N   0  0  0  0  0  0  0  0  0  0  0  0
    6.8220   -9.8370    0.3300 C   0  0  0  0  0  0  0  0  0  0  0  0
    3.4230  -10.0650   -1.5340 C   0  0  0  0  0  0  0  0  0  0  0  0
    7.1740   -8.7380    0.4610 C   0  0  0  0  0  0  0  0  0  0  0  0
    5.5100   -9.9290   -0.3830 C   0  0  0  0  0  0  0  0  0  0  0  0
    5.0700  -10.0330   -1.9540 S   0  0  0  0  0  0  0  0  0  0  0  0
    8.4044   -7.1218    1.0195 H   0  0  0  0  0  0  0  0  0  0  0  0
    1.3434  -10.2103   -1.9229 H   0  0  0  0  0  0  0  0  0  0  0  0
    2.3755  -10.1382   -3.3764 H   0  0  0  0  0  0  0  0  0  0  0  0
    6.7180  -10.2965    1.3240 H   0  0  0  0  0  0  0  0  0  0  0  0
    7.5739  -10.3623   -0.2772 H   0  0  0  0  0  0  0  0  0  0  0  0
    7.6018   -8.7957    1.4728 H   0  0  0  0  0  0  0  0  0  0  0  0
    6.3044   -8.3834   -0.1117 H   0  0  0  0  0  0  0  0  0  0  0  0
  3  6  1  0
  9  6  1  0
  9  8  1  0
  6  4  2  0
  8  5  1  0
  8  2  2  0
  4  2  1  0
  1  7  1  0
  5  7  1  0
  1 10  1  0
  3 11  1  0
  3 12  1  0
  5 13  1  0
  5 14  1  0
  7 15  1  0
  7 16  1  0
A    1
S18
A    2
N26
A    3
N27
A    4
N28
A    5
C30
A    6
C31
A    7
C32
A    8
C33
A    9
S35
M  END
