3VP3_BP8_A_601
     RDKit          3D

 18 18  0  0  0  0  0  0  0  0999 V2000
    7.5220   -7.5220    0.0000 C   0  0  0  0  0  0  0  0  0  0  0  0
    6.7470   -8.4990    0.8920 C   0  0  0  0  0  0  0  0  0  0  0  0
    7.0360   -9.4950   -0.2300 C   0  0  0  0  0  0  0  0  0  0  0  0
    5.5940   -9.9510   -0.3860 C   0  0  0  0  0  0  0  0  0  0  0  0
    4.7990  -10.1750   -1.8910 S   0  0  0  0  0  0  0  0  0  0  0  0
    4.7040   -9.7850    0.6580 N   0  0  0  0  0  0  0  0  0  0  0  0
    3.5530   -9.8350    0.1730 N   0  0  0  0  0  0  0  0  0  0  0  0
    3.2700  -10.0230   -1.1360 C   0  0  0  0  0  0  0  0  0  0  0  0
    2.0750  -10.0150   -1.7210 N   0  0  0  0  0  0  0  0  0  0  0  0
    8.0823   -6.8157    0.6302 H   0  0  0  0  0  0  0  0  0  0  0  0
    8.2235   -8.0829   -0.6351 H   0  0  0  0  0  0  0  0  0  0  0  0
    6.8162   -6.9665   -0.6351 H   0  0  0  0  0  0  0  0  0  0  0  0
    7.2159   -8.7287    1.8602 H   0  0  0  0  0  0  0  0  0  0  0  0
    5.7391   -8.2981    1.2840 H   0  0  0  0  0  0  0  0  0  0  0  0
    7.7103  -10.3065    0.0812 H   0  0  0  0  0  0  0  0  0  0  0  0
    7.5500   -9.1170   -1.1261 H   0  0  0  0  0  0  0  0  0  0  0  0
    1.2203  -10.0093   -1.1463 H   0  0  0  0  0  0  0  0  0  0  0  0
    2.0046  -10.0145   -2.7486 H   0  0  0  0  0  0  0  0  0  0  0  0
  9  8  1  0
  5  8  1  0
  5  4  1  0
  8  7  2  0
  4  3  1  0
  4  6  2  0
  7  6  1  0
  1  2  1  0
  3  2  1  0
  1 10  1  0
  1 11  1  0
  1 12  1  0
  2 13  1  0
  2 14  1  0
  3 15  1  0
  3 16  1  0
  9 17  1  0
  9 18  1  0
A    1
C1
A    2
C32
A    3
C30
A    4
C33
A    5
S35
A    6
N26
A    7
N28
A    8
C31
A    9
N27
M  END
