3VQ5_MMJ_A_1007
     RDKit          3D

 29 30  0  0  0  0  0  0  0  0999 V2000
    1.1970   19.9870    9.3130 C   0  0  0  0  0  0  0  0  0  0  0  0
    0.4610   19.5740    8.0440 C   0  0  0  0  0  0  0  0  0  0  0  0
    0.1000   20.5130    6.9270 C   0  0  0  0  0  0  0  0  0  0  0  0
    0.2280   22.0180    6.6360 C   0  0  0  0  0  0  0  0  0  0  0  0
    1.3250   22.4640    5.7510 N   0  0  0  0  0  0  0  0  0  0  0  0
    1.2560   22.4320    4.2680 C   0  0  0  0  0  0  0  0  0  0  0  0
   -0.7020   19.5510    5.7110 S   0  0  0  0  0  0  0  0  0  0  0  0
    0.1130   18.2520    7.7680 N   0  0  0  0  0  0  0  0  0  0  0  0
   -0.5100   18.0560    6.5470 C   0  0  0  0  0  0  0  0  0  0  0  0
   -1.0770   16.8380    5.8980 C   0  0  0  0  0  0  0  0  0  0  0  0
   -0.7030   15.5940    6.4420 C   0  0  0  0  0  0  0  0  0  0  0  0
   -1.1980   14.3940    5.9280 C   0  0  0  0  0  0  0  0  0  0  0  0
   -2.0990   14.4180    4.8630 C   0  0  0  0  0  0  0  0  0  0  0  0
   -2.4440   15.6750    4.3220 C   0  0  0  0  0  0  0  0  0  0  0  0
   -1.9500   16.8980    4.7890 C   0  0  0  0  0  0  0  0  0  0  0  0
    0.6210   19.6638   10.1926 H   0  0  0  0  0  0  0  0  0  0  0  0
    2.1901   19.5144    9.3312 H   0  0  0  0  0  0  0  0  0  0  0  0
    1.3111   21.0809    9.3312 H   0  0  0  0  0  0  0  0  0  0  0  0
   -0.7164   22.3433    6.1753 H   0  0  0  0  0  0  0  0  0  0  0  0
    0.4634   22.4670    7.6122 H   0  0  0  0  0  0  0  0  0  0  0  0
    1.5050   23.4467    6.0017 H   0  0  0  0  0  0  0  0  0  0  0  0
    0.2994   21.9883    3.9549 H   0  0  0  0  0  0  0  0  0  0  0  0
    1.3309   23.4568    3.8753 H   0  0  0  0  0  0  0  0  0  0  0  0
    2.0866   21.8272    3.8753 H   0  0  0  0  0  0  0  0  0  0  0  0
   -0.0047   15.5672    7.2915 H   0  0  0  0  0  0  0  0  0  0  0  0
   -0.8792   13.4342    6.3606 H   0  0  0  0  0  0  0  0  0  0  0  0
   -2.5261   13.4885    4.4586 H   0  0  0  0  0  0  0  0  0  0  0  0
   -3.1480   15.6946    3.4771 H   0  0  0  0  0  0  0  0  0  0  0  0
   -2.2261   17.8533    4.3186 H   0  0  0  0  0  0  0  0  0  0  0  0
  1  2  1  0
  2  8  1  0
  2  3  2  0
  8  9  2  0
  3  4  1  0
  3  7  1  0
  4  5  1  0
  9 10  1  0
  9  7  1  0
 11 12  2  0
 11 10  1  0
 12 13  1  0
 10 15  2  0
  5  6  1  0
 13 14  2  0
 15 14  1  0
  1 16  1  0
  1 17  1  0
  1 18  1  0
  4 19  1  0
  4 20  1  0
  5 21  1  0
  6 22  1  0
  6 23  1  0
  6 24  1  0
 11 25  1  0
 12 26  1  0
 13 27  1  0
 14 28  1  0
 15 29  1  0
A    1
C15
A    2
C10
A    3
C9
A    4
C12
A    5
N13
A    6
C14
A    7
S8
A    8
N11
A    9
C7
A   10
C2
A   11
C3
A   12
C4
A   13
C5
A   14
C6
A   15
C1
M  END
