3VRT_YS2_A_501
     RDKit          3D

 65 67  0  0  0  0  0  0  0  0999 V2000
   10.5150   -5.7840   27.3870 O   0  0  0  0  0  0  0  0  0  0  0  0
   11.3990   -4.7380   26.9680 C   0  0  0  0  0  0  0  0  0  0  0  0
   12.6790   -4.7920   27.7930 C   0  0  0  0  0  0  0  0  0  0  0  0
   13.0560   -3.4090   28.3090 C   0  0  0  0  0  0  0  0  0  0  0  0
   12.9010   -2.3580   27.2160 C   0  0  0  0  0  0  0  0  0  0  0  0
   11.6970   -1.4630   27.4860 C   0  0  0  0  0  0  0  0  0  0  0  0
   14.1710   -1.5330   27.0690 C   0  0  0  0  0  0  0  0  0  0  0  0
   13.8780   -0.1120   26.6220 C   0  0  0  0  0  0  0  0  0  0  0  0
   12.7160   -0.1280   25.6400 C   0  0  0  0  0  0  0  0  0  0  0  0
   13.6220    0.9070   27.7130 C   0  0  0  0  0  0  0  0  0  0  0  0
   13.2640    2.2420   27.0510 C   0  0  0  0  0  0  0  0  0  0  0  0
   14.1790    2.6790   25.8960 C   0  0  0  0  0  0  0  0  0  0  0  0
   15.1040   -2.1020   26.0000 C   0  0  0  0  0  0  0  0  0  0  0  0
   15.5780   -0.9280   25.1400 C   0  0  0  0  0  0  0  0  0  0  0  0
   15.1460    0.3000   25.9240 C   0  0  0  0  0  0  0  0  0  0  0  0
   14.7900    1.5170   25.1390 C   0  0  0  0  0  0  0  0  0  0  0  0
   15.0020    1.5810   23.8180 C   0  0  0  0  0  0  0  0  0  0  0  0
   14.6430    2.7870   23.0780 C   0  0  0  0  0  0  0  0  0  0  0  0
   14.2220    2.6940   21.8090 C   0  0  0  0  0  0  0  0  0  0  0  0
   13.8500    3.9410   21.0430 C   0  0  0  0  0  0  0  0  0  0  0  0
   14.1190    1.3420   21.1450 C   0  0  0  0  0  0  0  0  0  0  0  0
   14.8550    1.3740   19.8100 C   0  0  0  0  0  0  0  0  0  0  0  0
   14.5020    0.2180   19.0430 O   0  0  0  0  0  0  0  0  0  0  0  0
   14.4680    2.6120   19.0560 C   0  0  0  0  0  0  0  0  0  0  0  0
   14.0220    2.5180   17.8180 C   0  0  0  0  0  0  0  0  0  0  0  0
   14.5880    3.9570   19.7100 C   0  0  0  0  0  0  0  0  0  0  0  0
   15.9700    4.2580   19.9330 O   0  0  0  0  0  0  0  0  0  0  0  0
   10.4876   -5.8164   28.3761 H   0  0  0  0  0  0  0  0  0  0  0  0
   11.6433   -4.8692   25.9035 H   0  0  0  0  0  0  0  0  0  0  0  0
   10.9094   -3.7640   27.1152 H   0  0  0  0  0  0  0  0  0  0  0  0
   12.5269   -5.4659   28.6490 H   0  0  0  0  0  0  0  0  0  0  0  0
   13.4934   -5.1603   27.1518 H   0  0  0  0  0  0  0  0  0  0  0  0
   14.1024   -3.4242   28.6478 H   0  0  0  0  0  0  0  0  0  0  0  0
   12.3854   -3.1505   29.1418 H   0  0  0  0  0  0  0  0  0  0  0  0
   12.7263   -2.8824   26.2650 H   0  0  0  0  0  0  0  0  0  0  0  0
   11.5548   -1.3573   28.5716 H   0  0  0  0  0  0  0  0  0  0  0  0
   11.8695   -0.4721   27.0406 H   0  0  0  0  0  0  0  0  0  0  0  0
   10.7979   -1.9137   27.0406 H   0  0  0  0  0  0  0  0  0  0  0  0
   14.6349   -1.5570   28.0661 H   0  0  0  0  0  0  0  0  0  0  0  0
   11.7667   -0.1411   26.1955 H   0  0  0  0  0  0  0  0  0  0  0  0
   12.7582    0.7708   25.0073 H   0  0  0  0  0  0  0  0  0  0  0  0
   12.7830   -1.0253   25.0073 H   0  0  0  0  0  0  0  0  0  0  0  0
   12.7884    0.5712   28.3473 H   0  0  0  0  0  0  0  0  0  0  0  0
   14.5181    1.0236   28.3402 H   0  0  0  0  0  0  0  0  0  0  0  0
   13.2995    3.0232   27.8246 H   0  0  0  0  0  0  0  0  0  0  0  0
   12.2677    2.0992   26.6071 H   0  0  0  0  0  0  0  0  0  0  0  0
   14.9931    3.2925   26.3092 H   0  0  0  0  0  0  0  0  0  0  0  0
   13.5565    3.2394   25.1830 H   0  0  0  0  0  0  0  0  0  0  0  0
   14.5639   -2.8308   25.3778 H   0  0  0  0  0  0  0  0  0  0  0  0
   15.9590   -2.6169   26.4625 H   0  0  0  0  0  0  0  0  0  0  0  0
   15.0978   -0.9491   24.1506 H   0  0  0  0  0  0  0  0  0  0  0  0
   16.6617   -0.9510   24.9525 H   0  0  0  0  0  0  0  0  0  0  0  0
   16.0055    0.5866   26.5478 H   0  0  0  0  0  0  0  0  0  0  0  0
   15.4469    0.7244   23.2905 H   0  0  0  0  0  0  0  0  0  0  0  0
   14.7180    3.7720   23.5619 H   0  0  0  0  0  0  0  0  0  0  0  0
   14.1313    4.8287   21.6286 H   0  0  0  0  0  0  0  0  0  0  0  0
   12.7651    3.9502   20.8617 H   0  0  0  0  0  0  0  0  0  0  0  0
   13.0603    1.0971   20.9742 H   0  0  0  0  0  0  0  0  0  0  0  0
   14.5717    0.5788   21.7951 H   0  0  0  0  0  0  0  0  0  0  0  0
   15.9403    1.3777   19.9890 H   0  0  0  0  0  0  0  0  0  0  0  0
   14.2746   -0.5268   19.6543 H   0  0  0  0  0  0  0  0  0  0  0  0
   13.9340    1.5319   17.3385 H   0  0  0  0  0  0  0  0  0  0  0  0
   13.7381    3.4257   17.2653 H   0  0  0  0  0  0  0  0  0  0  0  0
   14.1470    4.7235   19.0558 H   0  0  0  0  0  0  0  0  0  0  0  0
   16.1465    4.2964   20.9064 H   0  0  0  0  0  0  0  0  0  0  0  0
 25 24  2  3
 23 22  1  0
 24 26  1  0
 24 22  1  0
 26 27  1  0
 26 20  1  0
 22 21  1  0
 20 19  1  0
 21 19  1  0
 19 18  2  0
 18 17  1  0
 17 16  2  0
 16 12  1  0
 16 15  1  0
 14 15  1  0
 14 13  1  0
  9  8  1  0
 12 11  1  0
 15  8  1  0
 13  7  1  0
  8  7  1  0
  8 10  1  0
  2  1  1  0
  2  3  1  0
 11 10  1  0
  7  5  1  0
  5  6  1  0
  5  4  1  0
  3  4  1  0
  1 28  1  0
  2 29  1  0
  2 30  1  0
  3 31  1  0
  3 32  1  0
  4 33  1  0
  4 34  1  0
  5 35  1  0
  6 36  1  0
  6 37  1  0
  6 38  1  0
  7 39  1  0
  9 40  1  0
  9 41  1  0
  9 42  1  0
 10 43  1  0
 10 44  1  0
 11 45  1  0
 11 46  1  0
 12 47  1  0
 12 48  1  0
 13 49  1  0
 13 50  1  0
 14 51  1  0
 14 52  1  0
 15 53  1  0
 17 54  1  0
 18 55  1  0
 20 56  1  0
 20 57  1  0
 21 58  1  0
 21 59  1  0
 22 60  1  0
 23 61  1  0
 25 62  1  0
 25 63  1  0
 26 64  1  0
 27 65  1  0
A    1
O3
A    2
C24
A    3
C23
A    4
C22
A    5
C20
A    6
C21
A    7
C17
A    8
C13
A    9
C18
A   10
C12
A   11
C11
A   12
C9
A   13
C16
A   14
C15
A   15
C14
A   16
C8
A   17
C7
A   18
C6
A   19
C5
A   20
C4
A   21
C10
A   22
C1
A   23
O1
A   24
C2
A   25
C28
A   26
C3
A   27
O2
M  END
