3VS0_VS0_A_602
     RDKit          3D

 53 57  0  0  0  0  0  0  0  0999 V2000
  -39.5320   -5.0680  -13.2570 O   0  0  0  0  0  0  0  0  0  0  0  0
  -39.9050   -5.8970  -12.4420 C   0  0  0  0  0  0  0  0  0  0  0  0
  -39.6450   -7.3600  -12.6590 C   0  0  0  0  0  0  0  0  0  0  0  0
  -38.9000   -7.8160  -13.7400 C   0  0  0  0  0  0  0  0  0  0  0  0
  -38.6890   -9.1800  -13.9100 C   0  0  0  0  0  0  0  0  0  0  0  0
  -39.2250  -10.0880  -13.0030 C   0  0  0  0  0  0  0  0  0  0  0  0
  -39.9720   -9.6330  -11.9230 C   0  0  0  0  0  0  0  0  0  0  0  0
  -40.1820   -8.2700  -11.7550 C   0  0  0  0  0  0  0  0  0  0  0  0
  -40.5420   -5.5800  -11.3210 N   0  0  0  0  0  0  0  0  0  0  0  0
  -40.9020   -4.2820  -10.9400 C   0  0  0  0  0  0  0  0  0  0  0  0
  -41.7620   -3.5280  -11.7310 C   0  0  0  0  0  0  0  0  0  0  0  0
  -42.1360   -2.2510  -11.3290 C   0  0  0  0  0  0  0  0  0  0  0  0
  -41.6580   -1.7270  -10.1330 C   0  0  0  0  0  0  0  0  0  0  0  0
  -40.8190   -2.4960   -9.3320 C   0  0  0  0  0  0  0  0  0  0  0  0
  -40.4470   -3.7730   -9.7310 C   0  0  0  0  0  0  0  0  0  0  0  0
  -42.0790   -0.3650   -9.6930 C   0  0  0  0  0  0  0  0  0  0  0  0
  -41.3230    0.7120   -9.2380 C   0  0  0  0  0  0  0  0  0  0  0  0
  -39.9650    0.9390   -9.0390 C   0  0  0  0  0  0  0  0  0  0  0  0
  -39.0450   -0.0210   -9.3040 N   0  0  0  0  0  0  0  0  0  0  0  0
  -39.5570    2.1390   -8.5740 N   0  0  0  0  0  0  0  0  0  0  0  0
  -40.4420    3.1070   -8.3040 C   0  0  0  0  0  0  0  0  0  0  0  0
  -41.7550    2.9200   -8.4880 N   0  0  0  0  0  0  0  0  0  0  0  0
  -42.2200    1.7360   -8.9520 C   0  0  0  0  0  0  0  0  0  0  0  0
  -43.4630    1.3020   -9.2120 N   0  0  0  0  0  0  0  0  0  0  0  0
  -43.3990    0.0480   -9.6680 C   0  0  0  0  0  0  0  0  0  0  0  0
  -44.7250    2.0680   -9.0590 C   0  0  0  0  0  0  0  0  0  0  0  0
  -45.4770    1.5680   -7.8330 C   0  0  0  0  0  0  0  0  0  0  0  0
  -46.7280    0.8460   -8.3180 C   0  0  0  0  0  0  0  0  0  0  0  0
  -46.9410    1.2490   -9.7710 C   0  0  0  0  0  0  0  0  0  0  0  0
  -45.6240    1.8340  -10.2680 C   0  0  0  0  0  0  0  0  0  0  0  0
  -38.4780   -7.0993  -14.4599 H   0  0  0  0  0  0  0  0  0  0  0  0
  -38.0969   -9.5416  -14.7636 H   0  0  0  0  0  0  0  0  0  0  0  0
  -39.0576  -11.1665  -13.1405 H   0  0  0  0  0  0  0  0  0  0  0  0
  -40.3955  -10.3495  -11.2038 H   0  0  0  0  0  0  0  0  0  0  0  0
  -40.7761   -7.9088  -10.9026 H   0  0  0  0  0  0  0  0  0  0  0  0
  -40.7905   -6.3488  -10.6822 H   0  0  0  0  0  0  0  0  0  0  0  0
  -42.1463   -3.9421  -12.6748 H   0  0  0  0  0  0  0  0  0  0  0  0
  -42.8118   -1.6535  -11.9586 H   0  0  0  0  0  0  0  0  0  0  0  0
  -40.4490   -2.0905   -8.3788 H   0  0  0  0  0  0  0  0  0  0  0  0
  -39.7922   -4.3810   -9.0895 H   0  0  0  0  0  0  0  0  0  0  0  0
  -38.5749   -0.5115   -8.5299 H   0  0  0  0  0  0  0  0  0  0  0  0
  -38.8162   -0.2598  -10.2795 H   0  0  0  0  0  0  0  0  0  0  0  0
  -40.0833    4.0748   -7.9236 H   0  0  0  0  0  0  0  0  0  0  0  0
  -44.2616   -0.5613   -9.9757 H   0  0  0  0  0  0  0  0  0  0  0  0
  -44.4757    3.1350   -8.9618 H   0  0  0  0  0  0  0  0  0  0  0  0
  -45.7591    2.4180   -7.1943 H   0  0  0  0  0  0  0  0  0  0  0  0
  -44.8440    0.8878   -7.2443 H   0  0  0  0  0  0  0  0  0  0  0  0
  -46.5880   -0.2426   -8.2448 H   0  0  0  0  0  0  0  0  0  0  0  0
  -47.5997    1.1168   -7.7042 H   0  0  0  0  0  0  0  0  0  0  0  0
  -47.2139    0.3685  -10.3713 H   0  0  0  0  0  0  0  0  0  0  0  0
  -47.7554    1.9831   -9.8598 H   0  0  0  0  0  0  0  0  0  0  0  0
  -45.8104    2.7872  -10.7844 H   0  0  0  0  0  0  0  0  0  0  0  0
  -45.1415    1.1423  -10.9742 H   0  0  0  0  0  0  0  0  0  0  0  0
  5  4  2  0
  5  6  1  0
  4  3  1  0
  1  2  2  0
  6  7  2  0
  3  2  1  0
  3  8  2  0
  2  9  1  0
  7  8  1  0
 11 12  2  0
 11 10  1  0
 12 13  1  0
  9 10  1  0
 10 15  2  0
 27 28  1  0
 27 26  1  0
 13 16  1  0
 13 14  2  0
 28 29  1  0
 15 14  1  0
 16 25  2  0
 16 17  1  0
 25 24  1  0
 19 18  1  0
 17 18  2  0
 17 23  1  0
 24 26  1  0
 24 23  1  0
 26 30  1  0
 18 20  1  0
 23 22  2  0
 20 21  2  0
 22 21  1  0
 29 30  1  0
  4 31  1  0
  5 32  1  0
  6 33  1  0
  7 34  1  0
  8 35  1  0
  9 36  1  0
 11 37  1  0
 12 38  1  0
 14 39  1  0
 15 40  1  0
 19 41  1  0
 19 42  1  0
 21 43  1  0
 25 44  1  0
 26 45  1  0
 27 46  1  0
 27 47  1  0
 28 48  1  0
 28 49  1  0
 29 50  1  0
 29 51  1  0
 30 52  1  0
 30 53  1  0
A    1
O30
A    2
C19
A    3
C15
A    4
C6
A    5
C2
A    6
C1
A    7
C3
A    8
C7
A    9
N29
A   10
C16
A   11
C8
A   12
C4
A   13
C13
A   14
C5
A   15
C9
A   16
C14
A   17
C12
A   18
C18
A   19
N28
A   20
N26
A   21
C11
A   22
N25
A   23
C17
A   24
N27
A   25
C10
A   26
C24
A   27
C23
A   28
C21
A   29
C20
A   30
C22
M  END
