3VS4_VSF_A_603
     RDKit          3D

 51 55  0  0  0  0  0  0  0  0999 V2000
    3.3770   -7.6390   12.6310 N   0  0  0  0  0  0  0  0  0  0  0  0
    4.2640   -8.5710   12.2120 C   0  0  0  0  0  0  0  0  0  0  0  0
    5.3980   -8.1840   11.5810 N   0  0  0  0  0  0  0  0  0  0  0  0
    6.2920   -9.0870   11.1580 C   0  0  0  0  0  0  0  0  0  0  0  0
    6.0900  -10.3900   11.3460 N   0  0  0  0  0  0  0  0  0  0  0  0
    4.9750  -10.8370   11.9780 C   0  0  0  0  0  0  0  0  0  0  0  0
    4.0300   -9.9230   12.4290 C   0  0  0  0  0  0  0  0  0  0  0  0
    4.5510  -12.0770   12.2980 N   0  0  0  0  0  0  0  0  0  0  0  0
    5.2580  -13.3510   11.9980 C   0  0  0  0  0  0  0  0  0  0  0  0
    4.4360  -14.1920   11.0260 C   0  0  0  0  0  0  0  0  0  0  0  0
    4.3300  -15.6240   11.5410 C   0  0  0  0  0  0  0  0  0  0  0  0
    5.6460  -16.0790   11.8710 O   0  0  0  0  0  0  0  0  0  0  0  0
    6.1340  -15.4620   13.0750 C   0  0  0  0  0  0  0  0  0  0  0  0
    5.4440  -14.1160   13.3040 C   0  0  0  0  0  0  0  0  0  0  0  0
    3.3660  -11.9880   12.9190 C   0  0  0  0  0  0  0  0  0  0  0  0
    3.0090  -10.6510   13.0370 C   0  0  0  0  0  0  0  0  0  0  0  0
    1.7360  -10.1670   13.6590 C   0  0  0  0  0  0  0  0  0  0  0  0
    1.3090  -10.5670   14.9250 C   0  0  0  0  0  0  0  0  0  0  0  0
    0.0890  -10.1100   15.4330 C   0  0  0  0  0  0  0  0  0  0  0  0
   -0.7230   -9.2720   14.6710 C   0  0  0  0  0  0  0  0  0  0  0  0
   -0.3000   -8.8920   13.4100 C   0  0  0  0  0  0  0  0  0  0  0  0
    0.9090   -9.3500   12.8990 C   0  0  0  0  0  0  0  0  0  0  0  0
   -1.9280   -8.7940   15.1230 O   0  0  0  0  0  0  0  0  0  0  0  0
   -2.1430   -8.3520   16.4020 C   0  0  0  0  0  0  0  0  0  0  0  0
   -1.2550   -7.4740   17.0070 C   0  0  0  0  0  0  0  0  0  0  0  0
   -1.4790   -7.0350   18.3060 C   0  0  0  0  0  0  0  0  0  0  0  0
   -2.5970   -7.4810   19.0000 C   0  0  0  0  0  0  0  0  0  0  0  0
   -3.4880   -8.3640   18.3950 C   0  0  0  0  0  0  0  0  0  0  0  0
   -3.2610   -8.8020   17.0970 C   0  0  0  0  0  0  0  0  0  0  0  0
    3.2298   -7.4844   13.6386 H   0  0  0  0  0  0  0  0  0  0  0  0
    2.8490   -7.0842   11.9423 H   0  0  0  0  0  0  0  0  0  0  0  0
    7.2058   -8.7478   10.6482 H   0  0  0  0  0  0  0  0  0  0  0  0
    6.2336  -13.1361   11.5376 H   0  0  0  0  0  0  0  0  0  0  0  0
    4.9255  -14.1938   10.0409 H   0  0  0  0  0  0  0  0  0  0  0  0
    3.4271  -13.7626   10.9387 H   0  0  0  0  0  0  0  0  0  0  0  0
    3.6911  -15.6515   12.4360 H   0  0  0  0  0  0  0  0  0  0  0  0
    3.8855  -16.2725   10.7717 H   0  0  0  0  0  0  0  0  0  0  0  0
    5.9296  -16.1238   13.9296 H   0  0  0  0  0  0  0  0  0  0  0  0
    7.2167  -15.2948   12.9758 H   0  0  0  0  0  0  0  0  0  0  0  0
    6.0585  -13.5115   13.9873 H   0  0  0  0  0  0  0  0  0  0  0  0
    4.4502  -14.3078   13.7349 H   0  0  0  0  0  0  0  0  0  0  0  0
    2.7702  -12.8400   13.2785 H   0  0  0  0  0  0  0  0  0  0  0  0
    1.9339  -11.2441   15.5258 H   0  0  0  0  0  0  0  0  0  0  0  0
   -0.2318  -10.4138   16.4404 H   0  0  0  0  0  0  0  0  0  0  0  0
   -0.9269   -8.2203   12.8052 H   0  0  0  0  0  0  0  0  0  0  0  0
    1.2139   -9.0623   11.8820 H   0  0  0  0  0  0  0  0  0  0  0  0
   -0.3698   -7.1240   16.4557 H   0  0  0  0  0  0  0  0  0  0  0  0
   -0.7745   -6.3376   18.7828 H   0  0  0  0  0  0  0  0  0  0  0  0
   -2.7786   -7.1362   20.0287 H   0  0  0  0  0  0  0  0  0  0  0  0
   -4.3729   -8.7150   18.9462 H   0  0  0  0  0  0  0  0  0  0  0  0
   -3.9626   -9.5022   16.6200 H   0  0  0  0  0  0  0  0  0  0  0  0
 10 11  1  0
 10  9  1  0
  4  5  2  0
  4  3  1  0
  5  6  1  0
 11 12  1  0
  3  2  2  0
 12 13  1  0
  6  8  1  0
  6  7  2  0
  9  8  1  0
  9 14  1  0
  2  7  1  0
  2  1  1  0
  8 15  1  0
  7 16  1  0
 22 21  2  0
 22 17  1  0
 15 16  2  0
 16 17  1  0
 13 14  1  0
 21 20  1  0
 17 18  2  0
 20 23  1  0
 20 19  2  0
 18 19  1  0
 23 24  1  0
 24 25  2  0
 24 29  1  0
 25 26  1  0
 29 28  2  0
 26 27  2  0
 28 27  1  0
  1 30  1  0
  1 31  1  0
  4 32  1  0
  9 33  1  0
 10 34  1  0
 10 35  1  0
 11 36  1  0
 11 37  1  0
 13 38  1  0
 13 39  1  0
 14 40  1  0
 14 41  1  0
 15 42  1  0
 18 43  1  0
 19 44  1  0
 21 45  1  0
 22 46  1  0
 25 47  1  0
 26 48  1  0
 27 49  1  0
 28 50  1  0
 29 51  1  0
A    1
NAK
A    2
C6
A    3
N1
A    4
C2
A    5
N3
A    6
C4
A    7
C5
A    8
NAG
A    9
CAQ
A   10
CAV
A   11
CAU
A   12
OAT
A   13
CAS
A   14
CAR
A   15
CAH
A   16
CAI
A   17
CAJ
A   18
CAL
A   19
CAM
A   20
CAN
A   21
CAO
A   22
CAP
A   23
OBD
A   24
CBE
A   25
CBJ
A   26
CBI
A   27
CBH
A   28
CBG
A   29
CBF
M  END
