3VS5_VSG_A_601
     RDKit          3D

 55 59  0  0  0  0  0  0  0  0999 V2000
   -8.8300   -2.8460   15.0910 C   0  0  0  0  0  0  0  0  0  0  0  0
  -10.2090   -2.3810   15.5450 C   0  0  0  0  0  0  0  0  0  0  0  0
  -10.8120   -3.5240   16.2100 N   0  0  0  0  0  0  0  0  0  0  0  0
  -12.0410   -4.1030   15.6820 C   0  0  0  0  0  0  0  0  0  0  0  0
  -10.2100   -4.0680   17.4240 C   0  0  0  0  0  0  0  0  0  0  0  0
   -8.7680   -3.5710   17.5090 C   0  0  0  0  0  0  0  0  0  0  0  0
   -8.0250   -3.5670   16.1700 C   0  0  0  0  0  0  0  0  0  0  0  0
   -6.7100   -2.8840   16.3510 N   0  0  0  0  0  0  0  0  0  0  0  0
   -6.5390   -1.6220   16.7840 C   0  0  0  0  0  0  0  0  0  0  0  0
   -5.5050   -3.4340   16.1340 C   0  0  0  0  0  0  0  0  0  0  0  0
   -5.1640   -4.6730   15.6970 N   0  0  0  0  0  0  0  0  0  0  0  0
   -3.8750   -5.0090   15.5430 C   0  0  0  0  0  0  0  0  0  0  0  0
   -2.8930   -4.1400   15.8140 N   0  0  0  0  0  0  0  0  0  0  0  0
   -3.1670   -2.8820   16.2460 C   0  0  0  0  0  0  0  0  0  0  0  0
   -2.1180   -2.0570   16.5000 N   0  0  0  0  0  0  0  0  0  0  0  0
   -4.5070   -2.4910   16.4180 C   0  0  0  0  0  0  0  0  0  0  0  0
   -5.1770   -1.3350   16.8570 C   0  0  0  0  0  0  0  0  0  0  0  0
   -4.6420    0.0110   17.2490 C   0  0  0  0  0  0  0  0  0  0  0  0
   -3.4910    0.4980   16.6340 C   0  0  0  0  0  0  0  0  0  0  0  0
   -2.9810    1.7560   16.9420 C   0  0  0  0  0  0  0  0  0  0  0  0
   -5.3210    0.8450   18.1430 C   0  0  0  0  0  0  0  0  0  0  0  0
   -4.8100    2.1130   18.4510 C   0  0  0  0  0  0  0  0  0  0  0  0
   -3.6230    2.5670   17.8700 C   0  0  0  0  0  0  0  0  0  0  0  0
   -3.1030    3.8220   18.1130 O   0  0  0  0  0  0  0  0  0  0  0  0
   -2.6430    4.3320   19.3090 C   0  0  0  0  0  0  0  0  0  0  0  0
   -2.8300    5.6900   19.5880 C   0  0  0  0  0  0  0  0  0  0  0  0
   -2.3610    6.2440   20.7770 C   0  0  0  0  0  0  0  0  0  0  0  0
   -1.6850    5.4470   21.7000 C   0  0  0  0  0  0  0  0  0  0  0  0
   -1.4900    4.0960   21.4250 C   0  0  0  0  0  0  0  0  0  0  0  0
   -1.9610    3.5440   20.2280 C   0  0  0  0  0  0  0  0  0  0  0  0
   -8.9600   -3.5324   14.2413 H   0  0  0  0  0  0  0  0  0  0  0  0
   -8.2632   -1.9413   14.8258 H   0  0  0  0  0  0  0  0  0  0  0  0
  -10.1178   -1.5357   16.2430 H   0  0  0  0  0  0  0  0  0  0  0  0
  -10.8199   -2.0364   14.6976 H   0  0  0  0  0  0  0  0  0  0  0  0
  -12.6900   -4.4088   16.5158 H   0  0  0  0  0  0  0  0  0  0  0  0
  -12.5630   -3.3561   15.0658 H   0  0  0  0  0  0  0  0  0  0  0  0
  -11.7975   -4.9811   15.0658 H   0  0  0  0  0  0  0  0  0  0  0  0
  -10.7738   -3.7257   18.3043 H   0  0  0  0  0  0  0  0  0  0  0  0
  -10.2308   -5.1675   17.3973 H   0  0  0  0  0  0  0  0  0  0  0  0
   -8.2194   -4.2217   18.2059 H   0  0  0  0  0  0  0  0  0  0  0  0
   -8.8137   -2.5256   17.8481 H   0  0  0  0  0  0  0  0  0  0  0  0
   -7.8775   -4.6076   15.8455 H   0  0  0  0  0  0  0  0  0  0  0  0
   -7.3493   -0.9239   17.0409 H   0  0  0  0  0  0  0  0  0  0  0  0
   -3.6194   -6.0180   15.1872 H   0  0  0  0  0  0  0  0  0  0  0  0
   -1.8514   -1.8473   17.4726 H   0  0  0  0  0  0  0  0  0  0  0  0
   -1.5892   -1.6411   15.7200 H   0  0  0  0  0  0  0  0  0  0  0  0
   -2.9741   -0.1248   15.8891 H   0  0  0  0  0  0  0  0  0  0  0  0
   -2.0643    2.1103   16.4479 H   0  0  0  0  0  0  0  0  0  0  0  0
   -6.2590    0.5046   18.6058 H   0  0  0  0  0  0  0  0  0  0  0  0
   -5.3500    2.7590   19.1589 H   0  0  0  0  0  0  0  0  0  0  0  0
   -3.3533    6.3276   18.8603 H   0  0  0  0  0  0  0  0  0  0  0  0
   -2.5241    7.3112   20.9879 H   0  0  0  0  0  0  0  0  0  0  0  0
   -1.3088    5.8819   22.6377 H   0  0  0  0  0  0  0  0  0  0  0  0
   -0.9635    3.4597   22.1516 H   0  0  0  0  0  0  0  0  0  0  0  0
   -1.7900    2.4788   20.0134 H   0  0  0  0  0  0  0  0  0  0  0  0
  1  2  1  0
  1  7  1  0
 12 11  1  0
 12 13  2  0
  2  3  1  0
  4  3  1  0
 11 10  2  0
 13 14  1  0
 10  8  1  0
 10 16  1  0
  7  8  1  0
  7  6  1  0
  3  5  1  0
 14 16  2  0
 14 15  1  0
  8  9  1  0
 16 17  1  0
 19 20  2  0
 19 18  1  0
  9 17  2  0
 17 18  1  0
 20 23  1  0
 18 21  2  0
  5  6  1  0
 23 24  1  0
 23 22  2  0
 24 25  1  0
 21 22  1  0
 25 26  2  0
 25 30  1  0
 26 27  1  0
 30 29  2  0
 27 28  2  0
 29 28  1  0
  1 31  1  0
  1 32  1  0
  2 33  1  0
  2 34  1  0
  4 35  1  0
  4 36  1  0
  4 37  1  0
  5 38  1  0
  5 39  1  0
  6 40  1  0
  6 41  1  0
  7 42  1  0
  9 43  1  0
 12 44  1  0
 15 45  1  0
 15 46  1  0
 19 47  1  0
 20 48  1  0
 21 49  1  0
 22 50  1  0
 26 51  1  0
 27 52  1  0
 28 53  1  0
 29 54  1  0
 30 55  1  0
A    1
CAR
A    2
CAS
A    3
NAT
A    4
CAW
A    5
CAU
A    6
CAV
A    7
CAQ
A    8
NAG
A    9
CAH
A   10
C4
A   11
N3
A   12
C2
A   13
N1
A   14
C6
A   15
NAK
A   16
C5
A   17
CAI
A   18
CAJ
A   19
CAP
A   20
CAO
A   21
CAL
A   22
CAM
A   23
CAN
A   24
OAX
A   25
CAY
A   26
CAZ
A   27
CBA
A   28
CBB
A   29
CBC
A   30
CBD
M  END
