3VSW_R31_A_402
     RDKit          3D

 86 87  0  0  0  0  0  0  0  0999 V2000
  176.5800  198.7880   97.1730 C   0  0  0  0  0  0  0  0  0  0  0  0
  177.8080  199.3830   96.6860 N   0  0  0  0  0  0  0  0  0  0  0  0
  178.3310  198.9100   95.4420 C   0  0  0  0  0  0  0  0  0  0  0  0
  177.2820  198.9760   94.3060 C   0  0  0  0  0  0  0  0  0  0  0  0
  175.9920  198.3630   94.7180 N   0  0  0  0  0  0  0  0  0  0  0  0
  175.5790  198.4560   96.0430 C   0  0  0  0  0  0  0  0  0  0  0  0
  175.2060  197.7210   93.7900 C   0  0  0  0  0  0  0  0  0  0  0  0
  174.4500  198.4750   92.8700 C   0  0  0  0  0  0  0  0  0  0  0  0
  173.5990  197.8190   91.9430 C   0  0  0  0  0  0  0  0  0  0  0  0
  173.4130  196.4010   92.0510 C   0  0  0  0  0  0  0  0  0  0  0  0
  174.2030  195.6480   92.9510 C   0  0  0  0  0  0  0  0  0  0  0  0
  175.1480  196.3080   93.7650 C   0  0  0  0  0  0  0  0  0  0  0  0
  174.5050  199.8160   92.8560 O   0  0  0  0  0  0  0  0  0  0  0  0
  174.8110  200.6770   91.8000 C   0  0  0  0  0  0  0  0  0  0  0  0
  175.4900  201.9500   92.3220 C   0  0  0  0  0  0  0  0  0  0  0  0
  175.6610  202.9240   91.1530 C   0  0  0  0  0  0  0  0  0  0  0  0
  176.9660  202.8150   90.6200 O   0  0  0  0  0  0  0  0  0  0  0  0
  177.4200  204.0990   90.2380 C   0  0  0  0  0  0  0  0  0  0  0  0
  178.7000  199.9980   97.6170 C   0  0  0  0  0  0  0  0  0  0  0  0
  178.1020  201.1680   98.4370 C   0  0  0  0  0  0  0  0  0  0  0  0
  178.8050  201.3100   99.8230 C   0  0  0  0  0  0  0  0  0  0  0  0
  178.2790  202.4010   97.6550 N   0  0  0  0  0  0  0  0  0  0  0  0
  178.0570  202.2010  100.8490 C   0  0  0  0  0  0  0  0  0  0  0  0
  180.1060  201.8390   99.6330 O   0  0  0  0  0  0  0  0  0  0  0  0
  178.7280  202.6910  102.1670 C   0  0  0  0  0  0  0  0  0  0  0  0
  179.1150  201.4750  103.0320 C   0  0  0  0  0  0  0  0  0  0  0  0
  180.3890  201.1080  103.2090 N   0  0  0  0  0  0  0  0  0  0  0  0
  178.2230  200.8050  103.5710 O   0  0  0  0  0  0  0  0  0  0  0  0
  177.8910  203.7810  102.9520 C   0  0  0  0  0  0  0  0  0  0  0  0
  180.7950  199.7620  103.6290 C   0  0  0  0  0  0  0  0  0  0  0  0
  181.4990  199.6380  104.9890 C   0  0  0  0  0  0  0  0  0  0  0  0
  182.5280  200.8040  105.0580 C   0  0  0  0  0  0  0  0  0  0  0  0
  183.6160  200.7610  104.2380 N   0  0  0  0  0  0  0  0  0  0  0  0
  180.4810  199.7660  106.1580 C   0  0  0  0  0  0  0  0  0  0  0  0
  182.2980  198.3020  105.1040 C   0  0  0  0  0  0  0  0  0  0  0  0
  182.3520  201.7530  105.8150 O   0  0  0  0  0  0  0  0  0  0  0  0
  178.5950  204.3260  104.2460 C   0  0  0  0  0  0  0  0  0  0  0  0
  177.3000  204.9630  102.1520 C   0  0  0  0  0  0  0  0  0  0  0  0
  174.4290  198.2580   96.3830 O   0  0  0  0  0  0  0  0  0  0  0  0
  176.1014  199.4925   97.8692 H   0  0  0  0  0  0  0  0  0  0  0  0
  176.8463  197.8408   97.6649 H   0  0  0  0  0  0  0  0  0  0  0  0
  178.6531  197.8657   95.5669 H   0  0  0  0  0  0  0  0  0  0  0  0
  179.1749  199.5575   95.1615 H   0  0  0  0  0  0  0  0  0  0  0  0
  177.6701  198.4364   93.4295 H   0  0  0  0  0  0  0  0  0  0  0  0
  177.0998  200.0340   94.0661 H   0  0  0  0  0  0  0  0  0  0  0  0
  173.0893  198.3899   91.1529 H   0  0  0  0  0  0  0  0  0  0  0  0
  172.6547  195.8981   91.4329 H   0  0  0  0  0  0  0  0  0  0  0  0
  174.0816  194.5566   93.0158 H   0  0  0  0  0  0  0  0  0  0  0  0
  175.8430  195.7207   94.3831 H   0  0  0  0  0  0  0  0  0  0  0  0
  173.8833  200.9507   91.2760 H   0  0  0  0  0  0  0  0  0  0  0  0
  175.4990  200.1643   91.1117 H   0  0  0  0  0  0  0  0  0  0  0  0
  176.4748  201.6992   92.7431 H   0  0  0  0  0  0  0  0  0  0  0  0
  174.8741  202.4101   93.1087 H   0  0  0  0  0  0  0  0  0  0  0  0
  175.4973  203.9520   91.5084 H   0  0  0  0  0  0  0  0  0  0  0  0
  174.9291  202.6794   90.3691 H   0  0  0  0  0  0  0  0  0  0  0  0
  177.6311  204.6959   91.1375 H   0  0  0  0  0  0  0  0  0  0  0  0
  178.3378  204.0004   89.6397 H   0  0  0  0  0  0  0  0  0  0  0  0
  176.6442  204.5992   89.6397 H   0  0  0  0  0  0  0  0  0  0  0  0
  179.0377  199.2260   98.3240 H   0  0  0  0  0  0  0  0  0  0  0  0
  179.5122  200.4332   97.0162 H   0  0  0  0  0  0  0  0  0  0  0  0
  177.0365  200.9743   98.6296 H   0  0  0  0  0  0  0  0  0  0  0  0
  178.8224  200.2963  100.2499 H   0  0  0  0  0  0  0  0  0  0  0  0
  178.3937  203.1999   98.2949 H   0  0  0  0  0  0  0  0  0  0  0  0
  179.1161  202.3138   97.0612 H   0  0  0  0  0  0  0  0  0  0  0  0
  177.7523  203.1068  100.3044 H   0  0  0  0  0  0  0  0  0  0  0  0
  177.2838  201.5157  101.2267 H   0  0  0  0  0  0  0  0  0  0  0  0
  180.5248  202.0093  100.5137 H   0  0  0  0  0  0  0  0  0  0  0  0
  179.6475  203.2290  101.8930 H   0  0  0  0  0  0  0  0  0  0  0  0
  181.1253  201.8085  103.0413 H   0  0  0  0  0  0  0  0  0  0  0  0
  177.0239  203.1634  103.2291 H   0  0  0  0  0  0  0  0  0  0  0  0
  179.8894  199.1388  103.6662 H   0  0  0  0  0  0  0  0  0  0  0  0
  181.5454  199.4463  102.8892 H   0  0  0  0  0  0  0  0  0  0  0  0
  184.5633  200.7236  104.6407 H   0  0  0  0  0  0  0  0  0  0  0  0
  183.4909  200.7659  103.2156 H   0  0  0  0  0  0  0  0  0  0  0  0
  181.0144  199.6989  107.1177 H   0  0  0  0  0  0  0  0  0  0  0  0
  179.9664  200.7359  106.0915 H   0  0  0  0  0  0  0  0  0  0  0  0
  179.7423  198.9537  106.0915 H   0  0  0  0  0  0  0  0  0  0  0  0
  182.4465  198.0537  106.1653 H   0  0  0  0  0  0  0  0  0  0  0  0
  181.7345  197.4944  104.6139 H   0  0  0  0  0  0  0  0  0  0  0  0
  183.2761  198.4164  104.6139 H   0  0  0  0  0  0  0  0  0  0  0  0
  178.0837  203.9302  105.1359 H   0  0  0  0  0  0  0  0  0  0  0  0
  179.6469  204.0045  104.2542 H   0  0  0  0  0  0  0  0  0  0  0  0
  178.5473  205.4249  104.2542 H   0  0  0  0  0  0  0  0  0  0  0  0
  176.9195  205.7239  102.8493 H   0  0  0  0  0  0  0  0  0  0  0  0
  178.0831  205.4050  101.5185 H   0  0  0  0  0  0  0  0  0  0  0  0
  176.4765  204.6017  101.5185 H   0  0  0  0  0  0  0  0  0  0  0  0
 18 17  1  0
 17 16  1  0
 16 15  1  0
 14 15  1  0
 14 13  1  0
  9 10  1  0
  9  8  2  0
 10 11  2  0
 13  8  1  0
  8  7  1  0
 11 12  1  0
 12  7  2  0
  7  5  1  0
  4  5  1  0
  4  3  1  0
  5  6  1  0
  3  2  1  0
  6 39  2  0
  6  1  1  0
  2  1  1  0
  2 19  1  0
 19 20  1  0
 22 20  1  0
 20 21  1  0
 24 21  1  0
 21 23  1  0
 23 25  1  0
 38 29  1  0
 25 29  1  0
 25 26  1  0
 29 37  1  0
 26 27  1  0
 26 28  2  0
 27 30  1  0
 30 31  1  0
 33 32  1  0
 31 32  1  0
 31 35  1  0
 31 34  1  0
 32 36  2  0
  1 40  1  0
  1 41  1  0
  3 42  1  0
  3 43  1  0
  4 44  1  0
  4 45  1  0
  9 46  1  0
 10 47  1  0
 11 48  1  0
 12 49  1  0
 14 50  1  0
 14 51  1  0
 15 52  1  0
 15 53  1  0
 16 54  1  0
 16 55  1  0
 18 56  1  0
 18 57  1  0
 18 58  1  0
 19 59  1  0
 19 60  1  0
 20 61  1  0
 21 62  1  0
 22 63  1  0
 22 64  1  0
 23 65  1  0
 23 66  1  0
 24 67  1  0
 25 68  1  0
 27 69  1  0
 29 70  1  0
 30 71  1  0
 30 72  1  0
 33 73  1  0
 33 74  1  0
 34 75  1  0
 34 76  1  0
 34 77  1  0
 35 78  1  0
 35 79  1  0
 35 80  1  0
 37 81  1  0
 37 82  1  0
 37 83  1  0
 38 84  1  0
 38 85  1  0
 38 86  1  0
A    1
C1
A    2
N2
A    3
C3
A    4
C4
A    5
N5
A    6
C6
A    7
C7
A    8
C8
A    9
C9
A   10
C10
A   11
C11
A   12
C12
A   13
O13
A   14
C14
A   15
C15
A   16
C16
A   17
O17
A   18
C18
A   19
C19
A   20
C20
A   21
C21
A   22
N22
A   23
C23
A   24
O24
A   25
C25
A   26
C26
A   27
N27
A   28
O28
A   29
C29
A   30
C30
A   31
C31
A   32
C32
A   33
N33
A   34
C34
A   35
C35
A   36
O36
A   37
C37
A   38
C38
A   39
O39
M  END
