3VSX_R32_A_402
     RDKit          3D

 78 79  0  0  0  0  0  0  0  0999 V2000
  -57.8350 -161.0780 -136.4860 C   0  0  0  0  0  0  0  0  0  0  0  0
  -58.6460 -160.1120 -137.0690 C   0  0  0  0  0  0  0  0  0  0  0  0
  -58.4240 -158.7820 -136.7620 C   0  0  0  0  0  0  0  0  0  0  0  0
  -57.4240 -158.3830 -135.8940 C   0  0  0  0  0  0  0  0  0  0  0  0
  -56.6160 -159.3520 -135.3140 C   0  0  0  0  0  0  0  0  0  0  0  0
  -56.8220 -160.6960 -135.6090 C   0  0  0  0  0  0  0  0  0  0  0  0
  -59.6490 -160.5270 -137.9380 N   0  0  0  0  0  0  0  0  0  0  0  0
  -59.4290 -157.5770 -137.4820 Cl  0  0  0  0  0  0  0  0  0  0  0  0
  -59.2840 -160.9690 -139.2940 C   0  0  0  0  0  0  0  0  0  0  0  0
  -60.3800 -160.7780 -140.3220 C   0  0  0  0  0  0  0  0  0  0  0  0
  -61.5950 -161.3790 -139.7860 N   0  0  0  0  0  0  0  0  0  0  0  0
  -62.0480 -160.9650 -138.4740 C   0  0  0  0  0  0  0  0  0  0  0  0
  -60.9550 -160.5090 -137.4980 C   0  0  0  0  0  0  0  0  0  0  0  0
  -61.2720 -160.1480 -136.3770 O   0  0  0  0  0  0  0  0  0  0  0  0
  -59.9840 -161.4680 -141.6310 C   0  0  0  0  0  0  0  0  0  0  0  0
  -60.5950 -159.2860 -140.5820 C   0  0  0  0  0  0  0  0  0  0  0  0
  -62.6280 -161.8180 -140.7110 C   0  0  0  0  0  0  0  0  0  0  0  0
  -63.4310 -162.9940 -140.1430 C   0  0  0  0  0  0  0  0  0  0  0  0
  -64.8040 -163.1380 -140.8010 C   0  0  0  0  0  0  0  0  0  0  0  0
  -65.7890 -164.0050 -139.9990 C   0  0  0  0  0  0  0  0  0  0  0  0
  -67.1100 -164.2380 -140.7550 C   0  0  0  0  0  0  0  0  0  0  0  0
  -67.8180 -162.8900 -140.9850 C   0  0  0  0  0  0  0  0  0  0  0  0
  -67.9450 -162.5830 -142.2890 N   0  0  0  0  0  0  0  0  0  0  0  0
  -68.5920 -161.3300 -142.6170 C   0  0  0  0  0  0  0  0  0  0  0  0
  -69.8710 -161.5980 -143.4170 C   0  0  0  0  0  0  0  0  0  0  0  0
  -62.6670 -164.2340 -140.1550 N   0  0  0  0  0  0  0  0  0  0  0  0
  -64.6720 -163.6240 -142.1110 O   0  0  0  0  0  0  0  0  0  0  0  0
  -68.0510 -165.2600 -140.0840 C   0  0  0  0  0  0  0  0  0  0  0  0
  -68.2070 -162.1890 -140.0540 O   0  0  0  0  0  0  0  0  0  0  0  0
  -67.4010 -166.6280 -139.8740 C   0  0  0  0  0  0  0  0  0  0  0  0
  -69.3940 -165.3770 -140.7990 C   0  0  0  0  0  0  0  0  0  0  0  0
  -69.4600 -162.1540 -144.7860 C   0  0  0  0  0  0  0  0  0  0  0  0
  -70.6510 -160.2970 -143.6370 C   0  0  0  0  0  0  0  0  0  0  0  0
  -70.7550 -162.6430 -142.7200 C   0  0  0  0  0  0  0  0  0  0  0  0
  -68.7220 -161.2870 -145.5150 N   0  0  0  0  0  0  0  0  0  0  0  0
  -69.7760 -163.2840 -145.1410 O   0  0  0  0  0  0  0  0  0  0  0  0
  -57.9924 -162.1420 -136.7164 H   0  0  0  0  0  0  0  0  0  0  0  0
  -57.2715 -157.3175 -135.6672 H   0  0  0  0  0  0  0  0  0  0  0  0
  -55.8136 -159.0572 -134.6218 H   0  0  0  0  0  0  0  0  0  0  0  0
  -56.1813 -161.4616 -135.1471 H   0  0  0  0  0  0  0  0  0  0  0  0
  -59.0317 -162.0389 -139.2525 H   0  0  0  0  0  0  0  0  0  0  0  0
  -58.4364 -160.3451 -139.6139 H   0  0  0  0  0  0  0  0  0  0  0  0
  -62.7494 -160.1284 -138.6086 H   0  0  0  0  0  0  0  0  0  0  0  0
  -62.4972 -161.8602 -138.0191 H   0  0  0  0  0  0  0  0  0  0  0  0
  -59.4481 -162.4018 -141.4057 H   0  0  0  0  0  0  0  0  0  0  0  0
  -60.8888 -161.6959 -142.2137 H   0  0  0  0  0  0  0  0  0  0  0  0
  -59.3308 -160.8018 -142.2137 H   0  0  0  0  0  0  0  0  0  0  0  0
  -60.6717 -158.7539 -139.6223 H   0  0  0  0  0  0  0  0  0  0  0  0
  -59.7450 -158.8875 -141.1553 H   0  0  0  0  0  0  0  0  0  0  0  0
  -61.5229 -159.1437 -141.1553 H   0  0  0  0  0  0  0  0  0  0  0  0
  -62.1541 -162.1311 -141.6530 H   0  0  0  0  0  0  0  0  0  0  0  0
  -63.3189 -160.9787 -140.8790 H   0  0  0  0  0  0  0  0  0  0  0  0
  -63.6277 -162.7609 -139.0861 H   0  0  0  0  0  0  0  0  0  0  0  0
  -65.2390 -162.1279 -140.8237 H   0  0  0  0  0  0  0  0  0  0  0  0
  -65.3199 -164.9793 -139.7975 H   0  0  0  0  0  0  0  0  0  0  0  0
  -66.0242 -163.4723 -139.0658 H   0  0  0  0  0  0  0  0  0  0  0  0
  -66.8463 -164.6915 -141.7218 H   0  0  0  0  0  0  0  0  0  0  0  0
  -67.5959 -163.2141 -143.0243 H   0  0  0  0  0  0  0  0  0  0  0  0
  -67.9082 -160.7127 -143.2182 H   0  0  0  0  0  0  0  0  0  0  0  0
  -68.8500 -160.8011 -141.6876 H   0  0  0  0  0  0  0  0  0  0  0  0
  -62.4827 -164.5331 -139.1868 H   0  0  0  0  0  0  0  0  0  0  0  0
  -63.2050 -164.9640 -140.6434 H   0  0  0  0  0  0  0  0  0  0  0  0
  -64.4126 -164.5790 -142.0841 H   0  0  0  0  0  0  0  0  0  0  0  0
  -68.2538 -164.8557 -139.0813 H   0  0  0  0  0  0  0  0  0  0  0  0
  -67.3063 -166.8274 -138.7964 H   0  0  0  0  0  0  0  0  0  0  0  0
  -68.0258 -167.4058 -140.3373 H   0  0  0  0  0  0  0  0  0  0  0  0
  -66.4033 -166.6349 -140.3373 H   0  0  0  0  0  0  0  0  0  0  0  0
  -70.2008 -165.4473 -140.0546 H   0  0  0  0  0  0  0  0  0  0  0  0
  -69.5526 -164.4893 -141.4289 H   0  0  0  0  0  0  0  0  0  0  0  0
  -69.3967 -166.2788 -141.4289 H   0  0  0  0  0  0  0  0  0  0  0  0
  -70.9141 -159.8581 -142.6633 H   0  0  0  0  0  0  0  0  0  0  0  0
  -70.0290 -159.5878 -144.2028 H   0  0  0  0  0  0  0  0  0  0  0  0
  -71.5696 -160.5114 -144.2028 H   0  0  0  0  0  0  0  0  0  0  0  0
  -70.6621 -162.5332 -141.6294 H   0  0  0  0  0  0  0  0  0  0  0  0
  -71.8037 -162.4920 -143.0157 H   0  0  0  0  0  0  0  0  0  0  0  0
  -70.4323 -163.6522 -143.0157 H   0  0  0  0  0  0  0  0  0  0  0  0
  -68.1291 -160.5905 -145.0415 H   0  0  0  0  0  0  0  0  0  0  0  0
  -68.7526 -161.3230 -146.5439 H   0  0  0  0  0  0  0  0  0  0  0  0
 35 32  1  0
 36 32  2  0
 32 25  1  0
 33 25  1  0
 25 34  1  0
 25 24  1  0
 24 23  1  0
 23 22  1  0
 27 19  1  0
 15 10  1  0
 22 21  1  0
 22 29  2  0
 19 18  1  0
 19 20  1  0
 31 28  1  0
 21 28  1  0
 21 20  1  0
 17 18  1  0
 17 11  1  0
 16 10  1  0
 10 11  1  0
 10  9  1  0
 26 18  1  0
 28 30  1  0
 11 12  1  0
  9  7  1  0
 12 13  1  0
  7 13  1  0
  7  2  1  0
 13 14  2  0
  8  3  1  0
  2  3  1  0
  2  1  2  0
  3  4  2  0
  1  6  1  0
  4  5  1  0
  6  5  2  0
  1 37  1  0
  4 38  1  0
  5 39  1  0
  6 40  1  0
  9 41  1  0
  9 42  1  0
 12 43  1  0
 12 44  1  0
 15 45  1  0
 15 46  1  0
 15 47  1  0
 16 48  1  0
 16 49  1  0
 16 50  1  0
 17 51  1  0
 17 52  1  0
 18 53  1  0
 19 54  1  0
 20 55  1  0
 20 56  1  0
 21 57  1  0
 23 58  1  0
 24 59  1  0
 24 60  1  0
 26 61  1  0
 26 62  1  0
 27 63  1  0
 28 64  1  0
 30 65  1  0
 30 66  1  0
 30 67  1  0
 31 68  1  0
 31 69  1  0
 31 70  1  0
 33 71  1  0
 33 72  1  0
 33 73  1  0
 34 74  1  0
 34 75  1  0
 34 76  1  0
 35 77  1  0
 35 78  1  0
A    1
C1
A    2
C2
A    3
C3
A    4
C4
A    5
C5
A    6
C6
A    7
N7
A    8
CL1
A    9
C9
A   10
C10
A   11
N11
A   12
C12
A   13
C13
A   14
O14
A   15
C15
A   16
C16
A   17
C17
A   18
C18
A   19
C19
A   20
C20
A   21
C21
A   22
C22
A   23
N23
A   24
C24
A   25
C25
A   26
N26
A   27
O27
A   28
C28
A   29
O29
A   30
C30
A   31
C31
A   32
C32
A   33
C33
A   34
C34
A   35
N35
A   36
O36
M  END
