3VTB_TKA_A_500
     RDKit          3D

 88 93  0  0  0  0  0  0  0  0999 V2000
    9.7720   -1.0620   27.8090 C   0  0  0  0  0  0  0  0  0  0  0  0
    8.7920   -2.2970   27.5990 C   0  0  0  0  0  0  0  0  0  0  0  0
    7.3010   -1.7880   27.3790 C   0  0  0  0  0  0  0  0  0  0  0  0
    6.8400   -1.0030   28.6700 C   0  0  0  0  0  0  0  0  0  0  0  0
    7.7880    0.2660   28.9130 C   0  0  0  0  0  0  0  0  0  0  0  0
    9.2760   -0.2350   29.1370 C   0  0  0  0  0  0  0  0  0  0  0  0
    9.6700   -0.1050   26.5280 C   0  0  0  0  0  0  0  0  0  0  0  0
    7.2270   -0.8330   26.1030 C   0  0  0  0  0  0  0  0  0  0  0  0
    7.7290    1.2260   27.6380 C   0  0  0  0  0  0  0  0  0  0  0  0
    8.1900    0.4200   26.3300 C   0  0  0  0  0  0  0  0  0  0  0  0
   11.1890   -1.6950   27.9480 C   0  0  0  0  0  0  0  0  0  0  0  0
   12.1830   -0.6620   28.1470 C   0  0  0  0  0  0  0  0  0  0  0  0
   11.2480   -2.5810   29.0770 O   0  0  0  0  0  0  0  0  0  0  0  0
   12.9310    0.2400   28.2900 C   0  0  0  0  0  0  0  0  0  0  0  0
   13.7610    1.4000   28.4430 C   0  0  0  0  0  0  0  0  0  0  0  0
   13.0410    2.5410   27.6800 C   0  0  0  0  0  0  0  0  0  0  0  0
   11.9080    3.0980   28.6240 C   0  0  0  0  0  0  0  0  0  0  0  0
   14.1310    3.6060   27.2420 C   0  0  0  0  0  0  0  0  0  0  0  0
   13.6650    4.8330   26.3980 C   0  0  0  0  0  0  0  0  0  0  0  0
   15.1090    5.3820   26.0480 C   0  0  0  0  0  0  0  0  0  0  0  0
   15.8420    4.1320   25.4820 C   0  0  0  0  0  0  0  0  0  0  0  0
   15.3090    3.0080   26.3610 C   0  0  0  0  0  0  0  0  0  0  0  0
   12.9040    5.9720   27.2120 C   0  0  0  0  0  0  0  0  0  0  0  0
   12.7860    7.2870   26.3450 C   0  0  0  0  0  0  0  0  0  0  0  0
   14.2000    7.7590   25.9040 C   0  0  0  0  0  0  0  0  0  0  0  0
   14.8790    6.6100   25.0950 C   0  0  0  0  0  0  0  0  0  0  0  0
   12.7460    4.3610   25.1450 C   0  0  0  0  0  0  0  0  0  0  0  0
   15.2000    6.6250   23.7930 C   0  0  0  0  0  0  0  0  0  0  0  0
   14.9960    7.7190   22.8590 C   0  0  0  0  0  0  0  0  0  0  0  0
   14.6800    7.6570   21.5770 C   0  0  0  0  0  0  0  0  0  0  0  0
   14.5420    8.9940   20.8170 C   0  0  0  0  0  0  0  0  0  0  0  0
   15.1680    8.9610   19.3860 C   0  0  0  0  0  0  0  0  0  0  0  0
   14.6770    7.7290   18.5700 C   0  0  0  0  0  0  0  0  0  0  0  0
   15.0440    6.4000   19.2520 C   0  0  0  0  0  0  0  0  0  0  0  0
   14.4380    6.3890   20.7030 C   0  0  0  0  0  0  0  0  0  0  0  0
   13.9550    7.7990   17.4120 C   0  0  0  0  0  0  0  0  0  0  0  0
   14.4820    5.3100   18.4630 O   0  0  0  0  0  0  0  0  0  0  0  0
   16.6110    8.8940   19.4860 O   0  0  0  0  0  0  0  0  0  0  0  0
    8.8272   -2.9434   28.4884 H   0  0  0  0  0  0  0  0  0  0  0  0
    9.1123   -2.8606   26.7103 H   0  0  0  0  0  0  0  0  0  0  0  0
    6.6369   -2.6477   27.2063 H   0  0  0  0  0  0  0  0  0  0  0  0
    5.8028   -0.6617   28.5369 H   0  0  0  0  0  0  0  0  0  0  0  0
    6.9059   -1.6726   29.5403 H   0  0  0  0  0  0  0  0  0  0  0  0
    7.4484    0.8215   29.7996 H   0  0  0  0  0  0  0  0  0  0  0  0
    9.3138   -0.8945   30.0166 H   0  0  0  0  0  0  0  0  0  0  0  0
    9.9362    0.6292   29.3024 H   0  0  0  0  0  0  0  0  0  0  0  0
    9.9751   -0.6675   25.6333 H   0  0  0  0  0  0  0  0  0  0  0  0
   10.3315    0.7602   26.6827 H   0  0  0  0  0  0  0  0  0  0  0  0
    6.1935   -0.4827   25.9648 H   0  0  0  0  0  0  0  0  0  0  0  0
    7.5452   -1.3868   25.2074 H   0  0  0  0  0  0  0  0  0  0  0  0
    8.4006    2.0830   27.7946 H   0  0  0  0  0  0  0  0  0  0  0  0
    6.6980    1.5838   27.4999 H   0  0  0  0  0  0  0  0  0  0  0  0
    8.1415    1.0900   25.4589 H   0  0  0  0  0  0  0  0  0  0  0  0
   11.3905   -2.2535   27.0220 H   0  0  0  0  0  0  0  0  0  0  0  0
   11.2128   -2.0525   29.9134 H   0  0  0  0  0  0  0  0  0  0  0  0
   14.7558    1.2185   28.0101 H   0  0  0  0  0  0  0  0  0  0  0  0
   13.9092    1.6537   29.5030 H   0  0  0  0  0  0  0  0  0  0  0  0
   12.5482    2.2124   26.7531 H   0  0  0  0  0  0  0  0  0  0  0  0
   12.2018    2.9536   29.6742 H   0  0  0  0  0  0  0  0  0  0  0  0
   11.7620    4.1706   28.4283 H   0  0  0  0  0  0  0  0  0  0  0  0
   10.9696    2.5585   28.4283 H   0  0  0  0  0  0  0  0  0  0  0  0
   14.4314    3.9282   28.2499 H   0  0  0  0  0  0  0  0  0  0  0  0
   15.7414    5.7792   26.8556 H   0  0  0  0  0  0  0  0  0  0  0  0
   15.5852    3.9656   24.4254 H   0  0  0  0  0  0  0  0  0  0  0  0
   16.9382    4.2211   25.5024 H   0  0  0  0  0  0  0  0  0  0  0  0
   14.9292    2.1886   25.7331 H   0  0  0  0  0  0  0  0  0  0  0  0
   16.1073    2.6078   27.0033 H   0  0  0  0  0  0  0  0  0  0  0  0
   13.4636    6.1944   28.1325 H   0  0  0  0  0  0  0  0  0  0  0  0
   11.8926    5.6171   27.4593 H   0  0  0  0  0  0  0  0  0  0  0  0
   12.3081    8.0767   26.9434 H   0  0  0  0  0  0  0  0  0  0  0  0
   12.1790    7.0784   25.4517 H   0  0  0  0  0  0  0  0  0  0  0  0
   14.8054    7.9951   26.7916 H   0  0  0  0  0  0  0  0  0  0  0  0
   14.1172    8.6604   25.2790 H   0  0  0  0  0  0  0  0  0  0  0  0
   11.8267    3.8889   25.5219 H   0  0  0  0  0  0  0  0  0  0  0  0
   12.4841    5.2361   24.5322 H   0  0  0  0  0  0  0  0  0  0  0  0
   13.3047    3.6383   24.5322 H   0  0  0  0  0  0  0  0  0  0  0  0
   15.6664    5.7139   23.3901 H   0  0  0  0  0  0  0  0  0  0  0  0
   15.1208    8.7306   23.2726 H   0  0  0  0  0  0  0  0  0  0  0  0
   15.0448    9.7799   21.3996 H   0  0  0  0  0  0  0  0  0  0  0  0
   13.4663    9.1899   20.6967 H   0  0  0  0  0  0  0  0  0  0  0  0
   14.8527    9.8786   18.8678 H   0  0  0  0  0  0  0  0  0  0  0  0
   16.1356    6.2816   19.3187 H   0  0  0  0  0  0  0  0  0  0  0  0
   13.3506    6.2531   20.6081 H   0  0  0  0  0  0  0  0  0  0  0  0
   14.9611    5.5752   21.2265 H   0  0  0  0  0  0  0  0  0  0  0  0
   13.7212    8.7779   16.9680 H   0  0  0  0  0  0  0  0  0  0  0  0
   13.6076    6.8765   16.9238 H   0  0  0  0  0  0  0  0  0  0  0  0
   14.1234    4.6145   19.0694 H   0  0  0  0  0  0  0  0  0  0  0  0
   16.8755    8.8817   20.4399 H   0  0  0  0  0  0  0  0  0  0  0  0
 36 33  2  3
 37 34  1  0
 33 34  1  0
 33 32  1  0
 34 35  1  0
 32 38  1  0
 32 31  1  0
 35 30  1  0
 31 30  1  0
 30 29  2  0
 29 28  1  0
 28 26  2  0
 26 25  1  0
 26 20  1  0
 27 19  1  0
 21 20  1  0
 21 22  1  0
 25 24  1  0
 20 19  1  0
  8 10  1  0
  8  3  1  0
 10  7  1  0
 10  9  1  0
 24 23  1  0
 22 18  1  0
 19 23  1  0
 19 18  1  0
  7  1  1  0
 18 16  1  0
  3  2  1  0
  3  4  1  0
  2  1  1  0
  9  5  1  0
 16 15  1  0
 16 17  1  0
  1 11  1  0
  1  6  1  0
 11 12  1  0
 11 13  1  0
 12 14  3  0
 14 15  1  0
  4  5  1  0
  5  6  1  0
  2 39  1  0
  2 40  1  0
  3 41  1  0
  4 42  1  0
  4 43  1  0
  5 44  1  0
  6 45  1  0
  6 46  1  0
  7 47  1  0
  7 48  1  0
  8 49  1  0
  8 50  1  0
  9 51  1  0
  9 52  1  0
 10 53  1  0
 11 54  1  0
 13 55  1  0
 15 56  1  0
 15 57  1  0
 16 58  1  0
 17 59  1  0
 17 60  1  0
 17 61  1  0
 18 62  1  0
 20 63  1  0
 21 64  1  0
 21 65  1  0
 22 66  1  0
 22 67  1  0
 23 68  1  0
 23 69  1  0
 24 70  1  0
 24 71  1  0
 25 72  1  0
 25 73  1  0
 27 74  1  0
 27 75  1  0
 27 76  1  0
 28 77  1  0
 29 78  1  0
 31 79  1  0
 31 80  1  0
 32 81  1  0
 34 82  1  0
 35 83  1  0
 35 84  1  0
 36 85  1  0
 36 86  1  0
 37 87  1  0
 38 88  1  0
A    1
C29
A    2
C30
A    3
C31
A    4
C32
A    5
C33
A    6
C34
A    7
C37
A    8
C36
A    9
C38
A   10
C35
A   11
C25
A   12
C24
A   13
O03
A   14
C23
A   15
C22
A   16
C20
A   17
C21
A   18
C17
A   19
C13
A   20
C14
A   21
C15
A   22
C16
A   23
C12
A   24
C11
A   25
C09
A   26
C08
A   27
C18
A   28
C07
A   29
C06
A   30
C05
A   31
C04
A   32
C03
A   33
C02
A   34
C01
A   35
C10
A   36
C28
A   37
O01
A   38
O02
M  END
