3VU8_MDS_A_602
     RDKit          3D

 22 21  0  0  0  0  0  0  0  0999 V2000
   38.4220   38.3110   37.1720 S   0  0  0  0  0  0  0  0  0  0  0  0
   39.3820   37.3020   36.3240 N   0  0  0  0  0  0  0  0  0  0  0  0
   39.0910   36.0800   35.8740 C   0  0  0  0  0  0  0  0  0  0  0  0
   37.9660   35.6250   36.1450 O   0  0  0  0  0  0  0  0  0  0  0  0
   40.0940   35.3800   35.1280 C   0  0  0  0  0  0  0  0  0  0  0  0
   40.7840   36.1950   34.1340 N   0  0  0  0  0  0  0  0  0  0  0  0
   41.0770   34.8580   36.1690 C   0  0  0  0  0  0  0  0  0  0  0  0
   41.8170   33.6220   35.7300 C   0  0  0  0  0  0  0  0  0  0  0  0
   40.9190   32.0730   36.0570 S   0  0  0  0  0  0  0  0  0  0  0  0
   41.5010   31.0680   34.6920 C   0  0  0  0  0  0  0  0  0  0  0  0
   38.6162   38.1069   38.5127 H   0  0  0  0  0  0  0  0  0  0  0  0
   40.3275   37.6500   36.1098 H   0  0  0  0  0  0  0  0  0  0  0  0
   39.6209   34.5822   34.5366 H   0  0  0  0  0  0  0  0  0  0  0  0
   41.3739   36.8918   34.6109 H   0  0  0  0  0  0  0  0  0  0  0  0
   41.3745   35.5909   33.5447 H   0  0  0  0  0  0  0  0  0  0  0  0
   41.8129   35.6479   36.3799 H   0  0  0  0  0  0  0  0  0  0  0  0
   40.4911   34.5852   37.0591 H   0  0  0  0  0  0  0  0  0  0  0  0
   42.0014   33.6942   34.6480 H   0  0  0  0  0  0  0  0  0  0  0  0
   42.7483   33.5818   36.3141 H   0  0  0  0  0  0  0  0  0  0  0  0
   42.0159   30.1788   35.0848 H   0  0  0  0  0  0  0  0  0  0  0  0
   40.6449   30.7541   34.0767 H   0  0  0  0  0  0  0  0  0  0  0  0
   42.1994   31.6543   34.0767 H   0  0  0  0  0  0  0  0  0  0  0  0
  1  2  1  0
  2  3  1  0
  3  4  2  0
  3  5  1  0
  5  6  1  0
  5  7  1  0
  7  8  1  0
  8  9  1  0
  9 10  1  0
  1 11  1  0
  2 12  1  0
  5 13  1  0
  6 14  1  0
  6 15  1  0
  7 16  1  0
  7 17  1  0
  8 18  1  0
  8 19  1  0
 10 20  1  0
 10 21  1  0
 10 22  1  0
A    1
S1
A    2
N2
A    3
C5
A    4
O5
A    5
C6
A    6
N3
A    7
C7
A    8
C8
A    9
S2
A   10
C9
M  END
