3VUC_HHE_A_402
     RDKit          3D

 84 88  0  0  0  0  0  0  0  0999 V2000
  181.3610  200.6240  104.6390 C   0  0  0  0  0  0  0  0  0  0  0  0
  182.7800  200.1490  104.3010 C   0  0  0  0  0  0  0  0  0  0  0  0
  181.3830  201.1180  106.0820 C   0  0  0  0  0  0  0  0  0  0  0  0
  183.1360  198.9610  105.2020 C   0  0  0  0  0  0  0  0  0  0  0  0
  181.6980  199.9620  107.0290 C   0  0  0  0  0  0  0  0  0  0  0  0
  183.0880  199.3960  106.6890 C   0  0  0  0  0  0  0  0  0  0  0  0
  182.4530  202.2570  106.2670 C   0  0  0  0  0  0  0  0  0  0  0  0
  183.8770  201.7320  106.0050 C   0  0  0  0  0  0  0  0  0  0  0  0
  183.8690  201.2650  104.5360 C   0  0  0  0  0  0  0  0  0  0  0  0
  184.1580  200.5000  106.9130 C   0  0  0  0  0  0  0  0  0  0  0  0
  183.2390  198.2400  107.5260 O   0  0  0  0  0  0  0  0  0  0  0  0
  181.0440  201.7890  103.8030 N   0  0  0  0  0  0  0  0  0  0  0  0
  179.4740  202.0200  100.3570 C   0  0  0  0  0  0  0  0  0  0  0  0
  178.6660  201.8430   99.0580 C   0  0  0  0  0  0  0  0  0  0  0  0
  179.1540  200.6930   98.1580 C   0  0  0  0  0  0  0  0  0  0  0  0
  178.7680  203.1200   98.3150 N   0  0  0  0  0  0  0  0  0  0  0  0
  178.1460  200.3700   97.1090 N   0  0  0  0  0  0  0  0  0  0  0  0
  176.9800  199.6990   97.6980 C   0  0  0  0  0  0  0  0  0  0  0  0
  175.9630  199.2990   96.6590 C   0  0  0  0  0  0  0  0  0  0  0  0
  176.2450  199.2080   95.3400 N   0  0  0  0  0  0  0  0  0  0  0  0
  177.5750  199.5210   94.7950 C   0  0  0  0  0  0  0  0  0  0  0  0
  178.6490  199.5790   95.9080 C   0  0  0  0  0  0  0  0  0  0  0  0
  179.8700  200.2460   95.2570 C   0  0  0  0  0  0  0  0  0  0  0  0
  179.0290  198.1260   96.2900 C   0  0  0  0  0  0  0  0  0  0  0  0
  175.2630  198.8500   94.4160 C   0  0  0  0  0  0  0  0  0  0  0  0
  174.6600  199.8690   93.7030 C   0  0  0  0  0  0  0  0  0  0  0  0
  173.7290  199.5400   92.7430 C   0  0  0  0  0  0  0  0  0  0  0  0
  173.3490  198.2260   92.5060 C   0  0  0  0  0  0  0  0  0  0  0  0
  173.9440  197.1980   93.2340 C   0  0  0  0  0  0  0  0  0  0  0  0
  174.9000  197.5480   94.1600 C   0  0  0  0  0  0  0  0  0  0  0  0
  174.8500  199.0340   97.0370 O   0  0  0  0  0  0  0  0  0  0  0  0
  175.5760  196.2760   95.0430 Cl  0  0  0  0  0  0  0  0  0  0  0  0
  178.7280  203.0250  101.2650 C   0  0  0  0  0  0  0  0  0  0  0  0
  179.4640  203.3230  102.5850 C   0  0  0  0  0  0  0  0  0  0  0  0
  179.7790  202.1090  103.4450 C   0  0  0  0  0  0  0  0  0  0  0  0
  178.8650  201.4320  103.8320 O   0  0  0  0  0  0  0  0  0  0  0  0
  178.6260  204.3300  103.4020 C   0  0  0  0  0  0  0  0  0  0  0  0
  180.8320  202.4490  100.0650 O   0  0  0  0  0  0  0  0  0  0  0  0
  179.3790  204.7090  104.7070 C   0  0  0  0  0  0  0  0  0  0  0  0
  180.6345  199.8131  104.4820 H   0  0  0  0  0  0  0  0  0  0  0  0
  182.7824  199.8790  103.2347 H   0  0  0  0  0  0  0  0  0  0  0  0
  180.3891  201.5250  106.3195 H   0  0  0  0  0  0  0  0  0  0  0  0
  182.4141  198.1478  105.0361 H   0  0  0  0  0  0  0  0  0  0  0  0
  184.1504  198.6120  104.9585 H   0  0  0  0  0  0  0  0  0  0  0  0
  181.6920  200.3247  108.0675 H   0  0  0  0  0  0  0  0  0  0  0  0
  180.9394  199.1735  106.9160 H   0  0  0  0  0  0  0  0  0  0  0  0
  182.3955  202.6394  107.2968 H   0  0  0  0  0  0  0  0  0  0  0  0
  182.2383  203.0571  105.5433 H   0  0  0  0  0  0  0  0  0  0  0  0
  184.6391  202.4988  106.2078 H   0  0  0  0  0  0  0  0  0  0  0  0
  184.8596  200.8594  104.2826 H   0  0  0  0  0  0  0  0  0  0  0  0
  183.6292  202.1273  103.8966 H   0  0  0  0  0  0  0  0  0  0  0  0
  185.1516  200.0937  106.6727 H   0  0  0  0  0  0  0  0  0  0  0  0
  184.1202  200.8203  107.9646 H   0  0  0  0  0  0  0  0  0  0  0  0
  183.2032  198.5140  108.4767 H   0  0  0  0  0  0  0  0  0  0  0  0
  181.8162  202.3870  103.4758 H   0  0  0  0  0  0  0  0  0  0  0  0
  179.5585  201.0593  100.8861 H   0  0  0  0  0  0  0  0  0  0  0  0
  177.6335  201.5818   99.3333 H   0  0  0  0  0  0  0  0  0  0  0  0
  179.3271  199.8005   98.7772 H   0  0  0  0  0  0  0  0  0  0  0  0
  180.0854  201.0063   97.6638 H   0  0  0  0  0  0  0  0  0  0  0  0
  178.8304  203.9017   98.9828 H   0  0  0  0  0  0  0  0  0  0  0  0
  179.6106  203.1063   97.7227 H   0  0  0  0  0  0  0  0  0  0  0  0
  176.5028  200.3836   98.4146 H   0  0  0  0  0  0  0  0  0  0  0  0
  177.3340  198.7822   98.1920 H   0  0  0  0  0  0  0  0  0  0  0  0
  177.8551  198.7434   94.0691 H   0  0  0  0  0  0  0  0  0  0  0  0
  177.5253  200.5089   94.3138 H   0  0  0  0  0  0  0  0  0  0  0  0
  180.5472  200.6159   96.0410 H   0  0  0  0  0  0  0  0  0  0  0  0
  180.3992  199.5117   94.6319 H   0  0  0  0  0  0  0  0  0  0  0  0
  179.5380  201.0881   94.6319 H   0  0  0  0  0  0  0  0  0  0  0  0
  179.0542  198.0295   97.3855 H   0  0  0  0  0  0  0  0  0  0  0  0
  178.2823  197.4313   95.8778 H   0  0  0  0  0  0  0  0  0  0  0  0
  180.0202  197.8858   95.8778 H   0  0  0  0  0  0  0  0  0  0  0  0
  174.9182  200.9203   93.8982 H   0  0  0  0  0  0  0  0  0  0  0  0
  173.2725  200.3430   92.1457 H   0  0  0  0  0  0  0  0  0  0  0  0
  172.5839  197.9983   91.7492 H   0  0  0  0  0  0  0  0  0  0  0  0
  173.6606  196.1471   93.0748 H   0  0  0  0  0  0  0  0  0  0  0  0
  178.6062  203.9689  100.7134 H   0  0  0  0  0  0  0  0  0  0  0  0
  177.7625  202.5686  101.5285 H   0  0  0  0  0  0  0  0  0  0  0  0
  180.4441  203.7321  102.2985 H   0  0  0  0  0  0  0  0  0  0  0  0
  178.4579  205.2363  102.8017 H   0  0  0  0  0  0  0  0  0  0  0  0
  177.6605  203.8712  103.6614 H   0  0  0  0  0  0  0  0  0  0  0  0
  181.3190  202.6029  100.9131 H   0  0  0  0  0  0  0  0  0  0  0  0
  178.7786  204.4068  105.5777 H   0  0  0  0  0  0  0  0  0  0  0  0
  180.3496  204.1920  104.7336 H   0  0  0  0  0  0  0  0  0  0  0  0
  179.5420  205.7965  104.7336 H   0  0  0  0  0  0  0  0  0  0  0  0
 28 27  1  0
 28 29  2  0
 27 26  2  0
 29 30  1  0
 26 25  1  0
 30 25  2  0
 30 32  1  0
 25 20  1  0
 21 20  1  0
 21 22  1  0
 23 22  1  0
 20 19  1  0
 22 24  1  0
 22 17  1  0
 19 31  2  0
 19 18  1  0
 17 18  1  0
 17 15  1  0
 15 14  1  0
 16 14  1  0
 14 13  1  0
 38 13  1  0
 13 33  1  0
 33 34  1  0
 34 37  1  0
 34 35  1  0
 37 39  1  0
 35 12  1  0
 35 36  2  0
 12  1  1  0
  2  9  1  0
  2  1  1  0
  2  4  1  0
  9  8  1  0
  1  3  1  0
  4  6  1  0
  8  7  1  0
  8 10  1  0
  3  7  1  0
  3  5  1  0
  6 10  1  0
  6  5  1  0
  6 11  1  0
  1 40  1  0
  2 41  1  0
  3 42  1  0
  4 43  1  0
  4 44  1  0
  5 45  1  0
  5 46  1  0
  7 47  1  0
  7 48  1  0
  8 49  1  0
  9 50  1  0
  9 51  1  0
 10 52  1  0
 10 53  1  0
 11 54  1  0
 12 55  1  0
 13 56  1  0
 14 57  1  0
 15 58  1  0
 15 59  1  0
 16 60  1  0
 16 61  1  0
 18 62  1  0
 18 63  1  0
 21 64  1  0
 21 65  1  0
 23 66  1  0
 23 67  1  0
 23 68  1  0
 24 69  1  0
 24 70  1  0
 24 71  1  0
 26 72  1  0
 27 73  1  0
 28 74  1  0
 29 75  1  0
 33 76  1  0
 33 77  1  0
 34 78  1  0
 37 79  1  0
 37 80  1  0
 38 81  1  0
 39 82  1  0
 39 83  1  0
 39 84  1  0
A    1
C1
A    2
C2
A    3
C3
A    4
C4
A    5
C5
A    6
C6
A    7
C7
A    8
C8
A    9
C9
A   10
C10
A   11
O11
A   12
N12
A   13
C13
A   14
C14
A   15
C15
A   16
N16
A   17
N17
A   18
C18
A   19
C19
A   20
N20
A   21
C21
A   22
C22
A   23
C23
A   24
C24
A   25
C25
A   26
C26
A   27
C27
A   28
C28
A   29
C29
A   30
C30
A   31
O31
A   32
CL
A   33
C33
A   34
C34
A   35
C35
A   36
O36
A   37
C37
A   38
O38
A   39
C39
M  END
