3VV0_KH3_A_401
     RDKit          3D

 73 75  0  0  0  0  0  0  0  0999 V2000
  -38.7220    6.1280  -22.6890 O   0  0  0  0  0  0  0  0  0  0  0  0
  -38.2450    5.4800  -21.7260 C   0  0  0  0  0  0  0  0  0  0  0  0
  -38.1490    3.9800  -21.8340 C   0  0  0  0  0  0  0  0  0  0  0  0
  -38.4660    3.5590  -23.1900 N   0  0  0  0  0  0  0  0  0  0  0  0
  -36.7340    3.5320  -21.4790 C   0  0  0  0  0  0  0  0  0  0  0  0
  -36.6900    2.0630  -21.0860 C   0  0  0  0  0  0  0  0  0  0  0  0
  -37.4500    1.9330  -19.8400 N   0  0  0  0  0  0  0  0  0  0  0  0
  -36.4810    1.9690  -18.7480 C   0  0  0  0  0  0  0  0  0  0  0  0
  -36.1500    0.5560  -18.3000 C   0  0  0  0  0  0  0  0  0  0  0  0
  -34.9730    0.4490  -17.4280 N   0  0  0  0  0  0  0  0  0  0  0  0
  -35.0030   -0.9570  -16.9650 C   0  0  0  0  0  0  0  0  0  0  0  0
  -33.7260   -1.3930  -16.2630 C   0  0  0  0  0  0  0  0  0  0  0  0
  -33.9440   -2.6780  -15.4700 C   0  0  0  0  0  0  0  0  0  0  0  0
  -34.1760   -3.8760  -16.3790 C   0  0  0  0  0  0  0  0  0  0  0  0
  -34.2090   -5.1700  -15.5710 C   0  0  0  0  0  0  0  0  0  0  0  0
  -32.8190   -5.6350  -15.1980 C   0  0  0  0  0  0  0  0  0  0  0  0
  -38.2300    0.6790  -19.7980 C   0  0  0  0  0  0  0  0  0  0  0  0
  -39.6730    1.0510  -20.0810 C   0  0  0  0  0  0  0  0  0  0  0  0
  -39.7820    1.2750  -21.4890 O   0  0  0  0  0  0  0  0  0  0  0  0
  -40.8440    0.4930  -22.0370 C   0  0  0  0  0  0  0  0  0  0  0  0
  -41.6940    0.0930  -20.8540 C   0  0  0  0  0  0  0  0  0  0  0  0
  -42.6000    1.1660  -20.5840 O   0  0  0  0  0  0  0  0  0  0  0  0
  -40.6860   -0.0300  -19.7390 C   0  0  0  0  0  0  0  0  0  0  0  0
  -41.3110    0.2070  -18.4740 O   0  0  0  0  0  0  0  0  0  0  0  0
  -40.2790   -0.7090  -22.6910 N   0  0  0  0  0  0  0  0  0  0  0  0
  -39.0430   -1.2170  -22.5250 C   0  0  0  0  0  0  0  0  0  0  0  0
  -38.8600   -2.3110  -23.3020 N   0  0  0  0  0  0  0  0  0  0  0  0
  -39.9970   -2.5150  -23.9870 C   0  0  0  0  0  0  0  0  0  0  0  0
  -40.4810   -3.5000  -24.9790 C   0  0  0  0  0  0  0  0  0  0  0  0
  -39.6860   -4.5140  -25.4040 N   0  0  0  0  0  0  0  0  0  0  0  0
  -40.9260   -1.4490  -23.5880 C   0  0  0  0  0  0  0  0  0  0  0  0
  -42.1670   -1.4160  -24.1260 N   0  0  0  0  0  0  0  0  0  0  0  0
  -42.5420   -2.3400  -25.0240 C   0  0  0  0  0  0  0  0  0  0  0  0
  -41.7420   -3.3400  -25.4400 N   0  0  0  0  0  0  0  0  0  0  0  0
  -37.8530    6.0220  -20.6660 O   0  0  0  0  0  0  0  0  0  0  0  0
  -38.8660    3.5219  -21.1368 H   0  0  0  0  0  0  0  0  0  0  0  0
  -39.0853    2.7366  -23.1582 H   0  0  0  0  0  0  0  0  0  0  0  0
  -38.9404    4.3271  -23.6859 H   0  0  0  0  0  0  0  0  0  0  0  0
  -36.0818    3.6873  -22.3510 H   0  0  0  0  0  0  0  0  0  0  0  0
  -36.3918    4.1270  -20.6194 H   0  0  0  0  0  0  0  0  0  0  0  0
  -37.1473    1.4467  -21.8741 H   0  0  0  0  0  0  0  0  0  0  0  0
  -35.6528    1.7221  -20.9520 H   0  0  0  0  0  0  0  0  0  0  0  0
  -35.5624    2.4665  -19.0925 H   0  0  0  0  0  0  0  0  0  0  0  0
  -36.9114    2.5245  -17.9017 H   0  0  0  0  0  0  0  0  0  0  0  0
  -37.0180    0.1572  -17.7546 H   0  0  0  0  0  0  0  0  0  0  0  0
  -35.9140   -0.0120  -19.2119 H   0  0  0  0  0  0  0  0  0  0  0  0
  -34.1085    0.6441  -17.9529 H   0  0  0  0  0  0  0  0  0  0  0  0
  -35.8428   -1.0748  -16.2644 H   0  0  0  0  0  0  0  0  0  0  0  0
  -35.1125   -1.5892  -17.8585 H   0  0  0  0  0  0  0  0  0  0  0  0
  -32.9430   -1.5646  -17.0163 H   0  0  0  0  0  0  0  0  0  0  0  0
  -33.4241   -0.5991  -15.5640 H   0  0  0  0  0  0  0  0  0  0  0  0
  -34.8223   -2.5498  -14.8203 H   0  0  0  0  0  0  0  0  0  0  0  0
  -33.0366   -2.8706  -14.8788 H   0  0  0  0  0  0  0  0  0  0  0  0
  -33.3620   -3.9320  -17.1168 H   0  0  0  0  0  0  0  0  0  0  0  0
  -35.1442   -3.7519  -16.8862 H   0  0  0  0  0  0  0  0  0  0  0  0
  -34.7867   -5.0003  -14.6504 H   0  0  0  0  0  0  0  0  0  0  0  0
  -34.6749   -5.9491  -16.1922 H   0  0  0  0  0  0  0  0  0  0  0  0
  -32.7246   -5.6666  -14.1025 H   0  0  0  0  0  0  0  0  0  0  0  0
  -32.6457   -6.6401  -15.6101 H   0  0  0  0  0  0  0  0  0  0  0  0
  -32.0758   -4.9366  -15.6101 H   0  0  0  0  0  0  0  0  0  0  0  0
  -38.1466    0.2142  -18.8045 H   0  0  0  0  0  0  0  0  0  0  0  0
  -37.8561   -0.0435  -20.5384 H   0  0  0  0  0  0  0  0  0  0  0  0
  -39.9014    1.9255  -19.4541 H   0  0  0  0  0  0  0  0  0  0  0  0
  -41.4282    1.0425  -22.7899 H   0  0  0  0  0  0  0  0  0  0  0  0
  -42.2820   -0.8256  -20.9967 H   0  0  0  0  0  0  0  0  0  0  0  0
  -42.6954    1.2790  -19.6051 H   0  0  0  0  0  0  0  0  0  0  0  0
  -40.2292   -1.0272  -19.6556 H   0  0  0  0  0  0  0  0  0  0  0  0
  -40.6835   -0.0309  -17.7462 H   0  0  0  0  0  0  0  0  0  0  0  0
  -38.2831   -0.7990  -21.8483 H   0  0  0  0  0  0  0  0  0  0  0  0
  -39.2118   -5.1188  -24.7182 H   0  0  0  0  0  0  0  0  0  0  0  0
  -39.5566   -4.6790  -26.4124 H   0  0  0  0  0  0  0  0  0  0  0  0
  -43.5573   -2.2771  -25.4427 H   0  0  0  0  0  0  0  0  0  0  0  0
  -38.1231    5.6485  -19.7898 H   0  0  0  0  0  0  0  0  0  0  0  0
 34 33  2  0
 34 29  1  0
 30 29  1  0
 33 32  1  0
 29 28  2  0
 32 31  2  0
 28 31  1  0
 28 27  1  0
 31 25  1  0
 27 26  2  0
  4  3  1  0
 25 26  1  0
 25 20  1  0
  1  2  2  0
 20 19  1  0
 20 21  1  0
  3  2  1  0
  3  5  1  0
  2 35  1  0
 19 18  1  0
  5  6  1  0
  6  7  1  0
 21 22  1  0
 21 23  1  0
 18 17  1  0
 18 23  1  0
  7 17  1  0
  7  8  1  0
 23 24  1  0
  8  9  1  0
  9 10  1  0
 10 11  1  0
 11 12  1  0
 14 15  1  0
 14 13  1  0
 12 13  1  0
 15 16  1  0
  3 36  1  0
  4 37  1  0
  4 38  1  0
  5 39  1  0
  5 40  1  0
  6 41  1  0
  6 42  1  0
  8 43  1  0
  8 44  1  0
  9 45  1  0
  9 46  1  0
 10 47  1  0
 11 48  1  0
 11 49  1  0
 12 50  1  0
 12 51  1  0
 13 52  1  0
 13 53  1  0
 14 54  1  0
 14 55  1  0
 15 56  1  0
 15 57  1  0
 16 58  1  0
 16 59  1  0
 16 60  1  0
 17 61  1  0
 17 62  1  0
 18 63  1  0
 20 64  1  0
 21 65  1  0
 22 66  1  0
 23 67  1  0
 24 68  1  0
 26 69  1  0
 30 70  1  0
 30 71  1  0
 33 72  1  0
 35 73  1  0
A    1
O
A    2
C
A    3
CA
A    4
N
A    5
CB
A    6
CG
A    7
ND
A    8
CE
A    9
C11
A   10
N12
A   11
C13
A   12
C14
A   13
C15
A   14
C16
A   15
C17
A   16
C18
A   17
C5'
A   18
C4'
A   19
O4'
A   20
C1'
A   21
C2'
A   22
O2'
A   23
C3'
A   24
O3'
A   25
N9
A   26
C8
A   27
N7
A   28
C5
A   29
C6
A   30
N6
A   31
C4
A   32
N3
A   33
C2
A   34
N1
A   35
OXT
M  END
