3VW9_HPJ_A_203
     RDKit          3D

 49 52  0  0  0  0  0  0  0  0999 V2000
    5.6130  -10.7480  -24.6640 C   0  0  0  0  0  0  0  0  0  0  0  0
    9.7490  -12.1760  -28.2440 C   0  0  0  0  0  0  0  0  0  0  0  0
    5.2810  -10.5450  -26.1660 C   0  0  0  0  0  0  0  0  0  0  0  0
    7.2330  -11.6170  -27.2870 C   0  0  0  0  0  0  0  0  0  0  0  0
    5.3370  -12.6620  -27.4930 C   0  0  0  0  0  0  0  0  0  0  0  0
    6.2500  -13.3940  -28.1340 C   0  0  0  0  0  0  0  0  0  0  0  0
    7.4300  -12.7650  -28.0510 C   0  0  0  0  0  0  0  0  0  0  0  0
    8.7220  -13.0980  -28.4770 C   0  0  0  0  0  0  0  0  0  0  0  0
    9.4790  -11.0440  -27.4650 C   0  0  0  0  0  0  0  0  0  0  0  0
    4.9530  -11.9970  -24.0440 C   0  0  0  0  0  0  0  0  0  0  0  0
    2.8650  -13.0760  -23.7180 C   0  0  0  0  0  0  0  0  0  0  0  0
    3.5280  -11.8320  -23.9930 O   0  0  0  0  0  0  0  0  0  0  0  0
    5.9400  -11.5870  -26.9870 N   0  0  0  0  0  0  0  0  0  0  0  0
    8.2550  -10.7870  -27.0010 N   0  0  0  0  0  0  0  0  0  0  0  0
   11.0720  -12.4630  -28.6030 C   0  0  0  0  0  0  0  0  0  0  0  0
   11.4590  -12.8890  -29.8730 C   0  0  0  0  0  0  0  0  0  0  0  0
   12.0630  -12.3360  -27.6070 N   0  0  0  0  0  0  0  0  0  0  0  0
   11.7860  -11.8910  -26.3050 O   0  0  0  0  0  0  0  0  0  0  0  0
   13.4030  -12.6430  -27.8780 C   0  0  0  0  0  0  0  0  0  0  0  0
   14.2160  -12.4940  -26.9410 O   0  0  0  0  0  0  0  0  0  0  0  0
   13.7770  -13.0590  -29.1660 C   0  0  0  0  0  0  0  0  0  0  0  0
   12.8170  -13.1490  -30.1900 C   0  0  0  0  0  0  0  0  0  0  0  0
   13.1880  -13.5830  -31.4890 C   0  0  0  0  0  0  0  0  0  0  0  0
   12.3010  -14.3370  -32.2790 C   0  0  0  0  0  0  0  0  0  0  0  0
   12.7100  -14.7920  -33.5450 C   0  0  0  0  0  0  0  0  0  0  0  0
   13.9870  -14.4920  -34.0400 C   0  0  0  0  0  0  0  0  0  0  0  0
   14.8670  -13.7200  -33.2830 C   0  0  0  0  0  0  0  0  0  0  0  0
   14.4580  -13.2700  -32.0150 C   0  0  0  0  0  0  0  0  0  0  0  0
    5.2685   -9.8624  -24.1099 H   0  0  0  0  0  0  0  0  0  0  0  0
    6.7012  -10.8919  -24.5929 H   0  0  0  0  0  0  0  0  0  0  0  0
    4.1920  -10.6070  -26.3079 H   0  0  0  0  0  0  0  0  0  0  0  0
    5.6482   -9.5574  -26.4818 H   0  0  0  0  0  0  0  0  0  0  0  0
    4.2683  -12.9047  -27.3984 H   0  0  0  0  0  0  0  0  0  0  0  0
    6.0653  -14.3511  -28.6438 H   0  0  0  0  0  0  0  0  0  0  0  0
    8.9236  -14.0555  -28.9796 H   0  0  0  0  0  0  0  0  0  0  0  0
   10.2979  -10.3483  -27.2295 H   0  0  0  0  0  0  0  0  0  0  0  0
    5.3384  -12.1430  -23.0241 H   0  0  0  0  0  0  0  0  0  0  0  0
    5.1905  -12.8735  -24.6648 H   0  0  0  0  0  0  0  0  0  0  0  0
    2.7891  -13.2183  -22.6299 H   0  0  0  0  0  0  0  0  0  0  0  0
    1.8564  -13.0588  -24.1567 H   0  0  0  0  0  0  0  0  0  0  0  0
    3.4416  -13.9036  -24.1567 H   0  0  0  0  0  0  0  0  0  0  0  0
   10.6916  -13.0270  -30.6489 H   0  0  0  0  0  0  0  0  0  0  0  0
   12.1086  -12.4093  -25.5256 H   0  0  0  0  0  0  0  0  0  0  0  0
   14.8260  -13.3158  -29.3751 H   0  0  0  0  0  0  0  0  0  0  0  0
   11.2919  -14.5695  -31.9079 H   0  0  0  0  0  0  0  0  0  0  0  0
   12.0186  -15.3915  -34.1554 H   0  0  0  0  0  0  0  0  0  0  0  0
   14.2950  -14.8664  -35.0274 H   0  0  0  0  0  0  0  0  0  0  0  0
   15.8647  -13.4670  -33.6711 H   0  0  0  0  0  0  0  0  0  0  0  0
   15.1482  -12.6568  -31.4170 H   0  0  0  0  0  0  0  0  0  0  0  0
 20 19  2  0
 18 17  1  0
 19 17  1  0
 19 21  1  0
 17 15  1  0
 11 12  1  0
 21 22  2  0
 10 12  1  0
 10  1  1  0
 15  2  1  0
 15 16  2  0
 22 16  1  0
 22 23  1  0
  9  2  2  0
  9 14  1  0
  1  3  1  0
  2  8  1  0
 14  4  2  0
  8  7  2  0
 28 23  1  0
 28 27  2  0
 23 24  2  0
  4  7  1  0
  4 13  1  0
  7  6  1  0
 27 26  1  0
 13  3  1  0
 13  5  1  0
  6  5  2  0
 24 25  1  0
 26 25  2  0
  1 29  1  0
  1 30  1  0
  3 31  1  0
  3 32  1  0
  5 33  1  0
  6 34  1  0
  8 35  1  0
  9 36  1  0
 10 37  1  0
 10 38  1  0
 11 39  1  0
 11 40  1  0
 11 41  1  0
 16 42  1  0
 18 43  1  0
 21 44  1  0
 24 45  1  0
 25 46  1  0
 26 47  1  0
 27 48  1  0
 28 49  1  0
A    1
C4
A    2
C14
A    3
C5
A    4
C11
A    5
C7
A    6
C8
A    7
C9
A    8
C10
A    9
C13
A   10
C3
A   11
C1
A   12
O2
A   13
N6
A   14
N12
A   15
C15
A   16
C16
A   17
N17
A   18
O18
A   19
C20
A   20
O21
A   21
C22
A   22
C23
A   23
C24
A   24
C25
A   25
C26
A   26
C27
A   27
C28
A   28
C29
M  END
