3ARE_4GH_A_601
     RDKit          3D

157157  0  0  0  0  0  0  0  0999 V2000
   -9.9700  -44.7830  -62.8540 C   0  0  0  0  0  0  0  0  0  0  0  0
  -10.3960  -45.3970  -64.1950 C   0  0  0  0  0  0  0  0  0  0  0  0
  -11.8590  -45.4400  -64.2830 N   0  0  0  0  0  0  0  0  0  0  0  0
   -9.9180  -46.8410  -64.3680 C   0  0  0  0  0  0  0  0  0  0  0  0
   -8.5070  -46.9000  -64.1400 O   0  0  0  0  0  0  0  0  0  0  0  0
  -10.1950  -47.3450  -65.7830 C   0  0  0  0  0  0  0  0  0  0  0  0
   -9.8970  -48.8310  -65.9500 C   0  0  0  0  0  0  0  0  0  0  0  0
  -11.1310  -49.5780  -66.4430 C   0  0  0  0  0  0  0  0  0  0  0  0
  -10.9980  -50.0040  -67.9000 C   0  0  0  0  0  0  0  0  0  0  0  0
  -10.3850  -51.3960  -68.0180 C   0  0  0  0  0  0  0  0  0  0  0  0
  -11.0040  -52.1750  -69.1730 C   0  0  0  0  0  0  0  0  0  0  0  0
   -9.9910  -53.1450  -69.7630 C   0  0  0  0  0  0  0  0  0  0  0  0
  -10.6140  -54.5160  -70.0080 C   0  0  0  0  0  0  0  0  0  0  0  0
   -9.6060  -55.6300  -69.7470 C   0  0  0  0  0  0  0  0  0  0  0  0
   -8.8340  -56.0020  -71.0090 C   0  0  0  0  0  0  0  0  0  0  0  0
   -7.7010  -56.9680  -70.6830 C   0  0  0  0  0  0  0  0  0  0  0  0
   -6.3430  -56.3230  -70.9350 C   0  0  0  0  0  0  0  0  0  0  0  0
   -5.4310  -56.4500  -69.7180 C   0  0  0  0  0  0  0  0  0  0  0  0
   -4.2930  -57.4300  -69.9790 C   0  0  0  0  0  0  0  0  0  0  0  0
   -2.9630  -56.7180  -70.0980 C   0  0  0  0  0  0  0  0  0  0  0  0
  -10.5360  -44.3780  -60.5940 C   0  0  0  0  0  0  0  0  0  0  0  0
  -10.7920  -45.1780  -61.7570 O   0  0  0  0  0  0  0  0  0  0  0  0
  -11.0410  -45.0970  -59.3480 C   0  0  0  0  0  0  0  0  0  0  0  0
  -10.5400  -46.4340  -59.3520 O   0  0  0  0  0  0  0  0  0  0  0  0
  -12.5660  -45.1320  -59.2860 C   0  0  0  0  0  0  0  0  0  0  0  0
  -12.9540  -45.6030  -57.9930 O   0  0  0  0  0  0  0  0  0  0  0  0
  -13.1810  -43.7550  -59.5240 C   0  0  0  0  0  0  0  0  0  0  0  0
  -12.4470  -40.7630  -60.0350 O   0  0  0  0  0  0  0  0  0  0  0  0
  -12.5780  -43.0900  -60.7610 C   0  0  0  0  0  0  0  0  0  0  0  0
  -13.1240  -41.6700  -60.9140 C   0  0  0  0  0  0  0  0  0  0  0  0
  -11.1450  -43.0790  -60.6760 O   0  0  0  0  0  0  0  0  0  0  0  0
  -12.6200  -44.3710  -64.5330 C   0  0  0  0  0  0  0  0  0  0  0  0
  -12.1810  -43.2390  -64.6890 O   0  0  0  0  0  0  0  0  0  0  0  0
  -14.1070  -44.6210  -64.6120 C   0  0  0  0  0  0  0  0  0  0  0  0
  -14.5680  -44.3110  -66.0330 C   0  0  0  0  0  0  0  0  0  0  0  0
  -15.3970  -45.4460  -66.6260 C   0  0  0  0  0  0  0  0  0  0  0  0
  -14.7720  -46.0030  -67.9030 C   0  0  0  0  0  0  0  0  0  0  0  0
  -15.4890  -45.5110  -69.1560 C   0  0  0  0  0  0  0  0  0  0  0  0
  -15.2340  -46.4450  -70.3370 C   0  0  0  0  0  0  0  0  0  0  0  0
  -15.9430  -45.9610  -71.6000 C   0  0  0  0  0  0  0  0  0  0  0  0
  -14.9310  -45.5010  -72.6430 C   0  0  0  0  0  0  0  0  0  0  0  0
  -15.5870  -45.0950  -73.9600 C   0  0  0  0  0  0  0  0  0  0  0  0
  -14.5620  -44.5060  -74.9300 C   0  0  0  0  0  0  0  0  0  0  0  0
  -14.4770  -42.9830  -74.8120 C   0  0  0  0  0  0  0  0  0  0  0  0
  -15.1710  -42.3090  -75.9910 C   0  0  0  0  0  0  0  0  0  0  0  0
  -14.8440  -40.8240  -76.0680 C   0  0  0  0  0  0  0  0  0  0  0  0
  -15.9740  -39.9900  -75.4730 C   0  0  0  0  0  0  0  0  0  0  0  0
  -16.7800  -39.2830  -76.5570 C   0  0  0  0  0  0  0  0  0  0  0  0
  -17.9520  -38.5030  -75.9670 C   0  0  0  0  0  0  0  0  0  0  0  0
  -19.2470  -39.3070  -76.0060 C   0  0  0  0  0  0  0  0  0  0  0  0
  -20.0570  -39.0660  -74.7380 C   0  0  0  0  0  0  0  0  0  0  0  0
  -21.1850  -40.0800  -74.5870 C   0  0  0  0  0  0  0  0  0  0  0  0
  -20.8690  -41.1150  -73.5130 C   0  0  0  0  0  0  0  0  0  0  0  0
  -22.0610  -42.0360  -73.2870 C   0  0  0  0  0  0  0  0  0  0  0  0
  -21.7890  -43.4330  -73.8340 C   0  0  0  0  0  0  0  0  0  0  0  0
  -21.7100  -44.4420  -72.6940 C   0  0  0  0  0  0  0  0  0  0  0  0
  -20.9340  -45.6910  -73.0930 C   0  0  0  0  0  0  0  0  0  0  0  0
  -19.5160  -45.6480  -72.5720 C   0  0  0  0  0  0  0  0  0  0  0  0
   -8.9359  -45.0930  -62.6427 H   0  0  0  0  0  0  0  0  0  0  0  0
  -10.0683  -43.6919  -62.9536 H   0  0  0  0  0  0  0  0  0  0  0  0
   -9.9438  -44.7624  -64.9714 H   0  0  0  0  0  0  0  0  0  0  0  0
  -12.3270  -46.3470  -64.1440 H   0  0  0  0  0  0  0  0  0  0  0  0
  -10.4606  -47.4709  -63.6478 H   0  0  0  0  0  0  0  0  0  0  0  0
   -8.3301  -46.9074  -63.1660 H   0  0  0  0  0  0  0  0  0  0  0  0
  -11.2557  -47.1708  -66.0167 H   0  0  0  0  0  0  0  0  0  0  0  0
   -9.5309  -46.7953  -66.4662 H   0  0  0  0  0  0  0  0  0  0  0  0
   -9.0840  -48.9560  -66.6803 H   0  0  0  0  0  0  0  0  0  0  0  0
   -9.6015  -49.2434  -64.9740 H   0  0  0  0  0  0  0  0  0  0  0  0
  -11.2742  -50.4750  -65.8227 H   0  0  0  0  0  0  0  0  0  0  0  0
  -11.9923  -48.8982  -66.3657 H   0  0  0  0  0  0  0  0  0  0  0  0
  -11.9956  -50.0116  -68.3634 H   0  0  0  0  0  0  0  0  0  0  0  0
  -10.3362  -49.2893  -68.4111 H   0  0  0  0  0  0  0  0  0  0  0  0
   -9.3030  -51.2981  -68.1903 H   0  0  0  0  0  0  0  0  0  0  0  0
  -10.5811  -51.9432  -67.0841 H   0  0  0  0  0  0  0  0  0  0  0  0
  -11.8737  -52.7390  -68.8047 H   0  0  0  0  0  0  0  0  0  0  0  0
  -11.3158  -51.4663  -69.9543 H   0  0  0  0  0  0  0  0  0  0  0  0
   -9.6237  -52.7424  -70.7185 H   0  0  0  0  0  0  0  0  0  0  0  0
   -9.1644  -53.2622  -69.0467 H   0  0  0  0  0  0  0  0  0  0  0  0
  -11.4748  -54.6452  -69.3354 H   0  0  0  0  0  0  0  0  0  0  0  0
  -10.9337  -54.5724  -71.0590 H   0  0  0  0  0  0  0  0  0  0  0  0
   -8.8933  -55.2929  -68.9799 H   0  0  0  0  0  0  0  0  0  0  0  0
  -10.1586  -56.5192  -69.4094 H   0  0  0  0  0  0  0  0  0  0  0  0
   -9.5201  -56.4786  -71.7246 H   0  0  0  0  0  0  0  0  0  0  0  0
   -8.4045  -55.0871  -71.4432 H   0  0  0  0  0  0  0  0  0  0  0  0
   -7.7700  -57.2591  -69.6245 H   0  0  0  0  0  0  0  0  0  0  0  0
   -7.7955  -57.8506  -71.3326 H   0  0  0  0  0  0  0  0  0  0  0  0
   -5.8654  -56.8183  -71.7932 H   0  0  0  0  0  0  0  0  0  0  0  0
   -6.5005  -55.2536  -71.1391 H   0  0  0  0  0  0  0  0  0  0  0  0
   -5.0069  -55.4625  -69.4834 H   0  0  0  0  0  0  0  0  0  0  0  0
   -6.0278  -56.8274  -68.8746 H   0  0  0  0  0  0  0  0  0  0  0  0
   -4.2411  -58.1471  -69.1465 H   0  0  0  0  0  0  0  0  0  0  0  0
   -4.4938  -57.9463  -70.9293 H   0  0  0  0  0  0  0  0  0  0  0  0
   -2.5688  -56.5070  -69.0930 H   0  0  0  0  0  0  0  0  0  0  0  0
   -2.2528  -57.3565  -70.6438 H   0  0  0  0  0  0  0  0  0  0  0  0
   -3.1006  -55.7729  -70.6438 H   0  0  0  0  0  0  0  0  0  0  0  0
   -9.4473  -44.2319  -60.5351 H   0  0  0  0  0  0  0  0  0  0  0  0
  -10.6827  -44.5453  -58.4664 H   0  0  0  0  0  0  0  0  0  0  0  0
  -10.4233  -46.7455  -58.4195 H   0  0  0  0  0  0  0  0  0  0  0  0
  -12.9304  -45.8001  -60.0803 H   0  0  0  0  0  0  0  0  0  0  0  0
  -12.5069  -45.0602  -57.2962 H   0  0  0  0  0  0  0  0  0  0  0  0
  -14.2658  -43.8660  -59.6685 H   0  0  0  0  0  0  0  0  0  0  0  0
  -12.9705  -43.1222  -58.6492 H   0  0  0  0  0  0  0  0  0  0  0  0
  -12.6336  -41.0129  -59.0954 H   0  0  0  0  0  0  0  0  0  0  0  0
  -12.8635  -43.6704  -61.6508 H   0  0  0  0  0  0  0  0  0  0  0  0
  -14.1976  -41.6695  -60.6744 H   0  0  0  0  0  0  0  0  0  0  0  0
  -12.9609  -41.3412  -61.9510 H   0  0  0  0  0  0  0  0  0  0  0  0
  -14.3209  -45.6731  -64.3724 H   0  0  0  0  0  0  0  0  0  0  0  0
  -14.6385  -43.9812  -63.8922 H   0  0  0  0  0  0  0  0  0  0  0  0
  -15.1788  -43.3963  -66.0165 H   0  0  0  0  0  0  0  0  0  0  0  0
  -13.6732  -44.1810  -66.6594 H   0  0  0  0  0  0  0  0  0  0  0  0
  -15.4725  -46.2555  -65.8850 H   0  0  0  0  0  0  0  0  0  0  0  0
  -16.3896  -45.0456  -66.8798 H   0  0  0  0  0  0  0  0  0  0  0  0
  -13.7195  -45.6868  -67.9496 H   0  0  0  0  0  0  0  0  0  0  0  0
  -14.8591  -47.0991  -67.8719 H   0  0  0  0  0  0  0  0  0  0  0  0
  -16.5702  -45.4688  -68.9582 H   0  0  0  0  0  0  0  0  0  0  0  0
  -15.1035  -44.5126  -69.4102 H   0  0  0  0  0  0  0  0  0  0  0  0
  -14.1519  -46.4894  -70.5298 H   0  0  0  0  0  0  0  0  0  0  0  0
  -15.6285  -47.4393  -70.0806 H   0  0  0  0  0  0  0  0  0  0  0  0
  -16.5416  -46.7847  -72.0163 H   0  0  0  0  0  0  0  0  0  0  0  0
  -16.5919  -45.1122  -71.3382 H   0  0  0  0  0  0  0  0  0  0  0  0
  -14.3808  -44.6367  -72.2426 H   0  0  0  0  0  0  0  0  0  0  0  0
  -14.2608  -46.3478  -72.8523 H   0  0  0  0  0  0  0  0  0  0  0  0
  -16.0477  -45.9818  -74.4197 H   0  0  0  0  0  0  0  0  0  0  0  0
  -16.3471  -44.3285  -73.7487 H   0  0  0  0  0  0  0  0  0  0  0  0
  -13.5741  -44.9359  -74.7082 H   0  0  0  0  0  0  0  0  0  0  0  0
  -14.8798  -44.7521  -75.9539 H   0  0  0  0  0  0  0  0  0  0  0  0
  -14.9636  -42.6659  -73.8778 H   0  0  0  0  0  0  0  0  0  0  0  0
  -13.4173  -42.6880  -74.8110 H   0  0  0  0  0  0  0  0  0  0  0  0
  -14.8426  -42.7943  -76.9219 H   0  0  0  0  0  0  0  0  0  0  0  0
  -16.2573  -42.4124  -75.8521 H   0  0  0  0  0  0  0  0  0  0  0  0
  -13.9179  -40.6289  -75.5074 H   0  0  0  0  0  0  0  0  0  0  0  0
  -14.7176  -40.5447  -77.1244 H   0  0  0  0  0  0  0  0  0  0  0  0
  -16.6441  -40.6510  -74.9037 H   0  0  0  0  0  0  0  0  0  0  0  0
  -15.5297  -39.2245  -74.8199 H   0  0  0  0  0  0  0  0  0  0  0  0
  -16.1209  -38.5850  -77.0940 H   0  0  0  0  0  0  0  0  0  0  0  0
  -17.1831  -40.0461  -77.2390 H   0  0  0  0  0  0  0  0  0  0  0  0
  -17.7212  -38.2510  -74.9214 H   0  0  0  0  0  0  0  0  0  0  0  0
  -18.0960  -37.5951  -76.5711 H   0  0  0  0  0  0  0  0  0  0  0  0
  -19.8398  -38.9981  -76.8796 H   0  0  0  0  0  0  0  0  0  0  0  0
  -19.0020  -40.3771  -76.0764 H   0  0  0  0  0  0  0  0  0  0  0  0
  -19.3886  -39.1445  -73.8679 H   0  0  0  0  0  0  0  0  0  0  0  0
  -20.5044  -38.0632  -74.8029 H   0  0  0  0  0  0  0  0  0  0  0  0
  -22.1078  -39.5489  -74.3105 H   0  0  0  0  0  0  0  0  0  0  0  0
  -21.3063  -40.6051  -75.5459 H   0  0  0  0  0  0  0  0  0  0  0  0
  -20.0043  -41.7151  -73.8328 H   0  0  0  0  0  0  0  0  0  0  0  0
  -20.6427  -40.5915  -72.5724 H   0  0  0  0  0  0  0  0  0  0  0  0
  -22.2611  -42.1058  -72.2076 H   0  0  0  0  0  0  0  0  0  0  0  0
  -22.9300  -41.6176  -73.8159 H   0  0  0  0  0  0  0  0  0  0  0  0
  -22.6023  -43.7200  -74.5168 H   0  0  0  0  0  0  0  0  0  0  0  0
  -20.8297  -43.4258  -74.3723 H   0  0  0  0  0  0  0  0  0  0  0  0
  -21.2082  -43.9706  -71.8361 H   0  0  0  0  0  0  0  0  0  0  0  0
  -22.7353  -44.7457  -72.4361 H   0  0  0  0  0  0  0  0  0  0  0  0
  -21.4410  -46.5750  -72.6789 H   0  0  0  0  0  0  0  0  0  0  0  0
  -20.8983  -45.7408  -74.1913 H   0  0  0  0  0  0  0  0  0  0  0  0
  -19.5293  -45.6484  -71.4721 H   0  0  0  0  0  0  0  0  0  0  0  0
  -18.9661  -46.5299  -72.9324 H   0  0  0  0  0  0  0  0  0  0  0  0
  -19.0205  -44.7344  -72.9324 H   0  0  0  0  0  0  0  0  0  0  0  0
  1  2  1  0
  1 22  1  0
  2  3  1  0
  2  4  1  0
  3 32  1  0
  4  5  1  0
  4  6  1  0
  6  7  1  0
  7  8  1  0
  8  9  1  0
  9 10  1  0
 10 11  1  0
 11 12  1  0
 12 13  1  0
 13 14  1  0
 14 15  1  0
 15 16  1  0
 16 17  1  0
 17 18  1  0
 18 19  1  0
 19 20  1  0
 21 22  1  0
 21 23  1  0
 21 31  1  0
 23 24  1  0
 23 25  1  0
 25 26  1  0
 25 27  1  0
 27 29  1  0
 28 30  1  0
 29 30  1  0
 29 31  1  0
 32 33  2  0
 32 34  1  0
 34 35  1  0
 35 36  1  0
 36 37  1  0
 37 38  1  0
 38 39  1  0
 39 40  1  0
 40 41  1  0
 41 42  1  0
 42 43  1  0
 43 44  1  0
 44 45  1  0
 45 46  1  0
 46 47  1  0
 47 48  1  0
 48 49  1  0
 49 50  1  0
 50 51  1  0
 51 52  1  0
 52 53  1  0
 53 54  1  0
 54 55  1  0
 55 56  1  0
 56 57  1  0
 57 58  1  0
  1 59  1  0
  1 60  1  0
  2 61  1  0
  3 62  1  0
  4 63  1  0
  5 64  1  0
  6 65  1  0
  6 66  1  0
  7 67  1  0
  7 68  1  0
  8 69  1  0
  8 70  1  0
  9 71  1  0
  9 72  1  0
 10 73  1  0
 10 74  1  0
 11 75  1  0
 11 76  1  0
 12 77  1  0
 12 78  1  0
 13 79  1  0
 13 80  1  0
 14 81  1  0
 14 82  1  0
 15 83  1  0
 15 84  1  0
 16 85  1  0
 16 86  1  0
 17 87  1  0
 17 88  1  0
 18 89  1  0
 18 90  1  0
 19 91  1  0
 19 92  1  0
 20 93  1  0
 20 94  1  0
 20 95  1  0
 21 96  1  0
 23 97  1  0
 24 98  1  0
 25 99  1  0
 26100  1  0
 27101  1  0
 27102  1  0
 28103  1  0
 29104  1  0
 30105  1  0
 30106  1  0
 34107  1  0
 34108  1  0
 35109  1  0
 35110  1  0
 36111  1  0
 36112  1  0
 37113  1  0
 37114  1  0
 38115  1  0
 38116  1  0
 39117  1  0
 39118  1  0
 40119  1  0
 40120  1  0
 41121  1  0
 41122  1  0
 42123  1  0
 42124  1  0
 43125  1  0
 43126  1  0
 44127  1  0
 44128  1  0
 45129  1  0
 45130  1  0
 46131  1  0
 46132  1  0
 47133  1  0
 47134  1  0
 48135  1  0
 48136  1  0
 49137  1  0
 49138  1  0
 50139  1  0
 50140  1  0
 51141  1  0
 51142  1  0
 52143  1  0
 52144  1  0
 53145  1  0
 53146  1  0
 54147  1  0
 54148  1  0
 55149  1  0
 55150  1  0
 56151  1  0
 56152  1  0
 57153  1  0
 57154  1  0
 58155  1  0
 58156  1  0
 58157  1  0
A    1
C1
A    2
C2
A    3
N2
A    4
C3
A    5
O3
A    6
C4
A    7
C5
A    8
C6
A    9
C7
A   10
C8
A   11
C9
A   12
C10
A   13
C11
A   14
C12
A   15
C13
A   16
C14
A   17
C15
A   18
C16
A   19
C17
A   20
C18
A   21
C1A
A   22
O1A
A   23
C2A
A   24
O2A
A   25
C3A
A   26
O3A
A   27
C4A
A   28
O5A
A   29
C5M
A   30
C6A
A   31
O6A
A   32
CAA
A   33
OAA
A   34
CAB
A   35
CAC
A   36
CAD
A   37
CAE
A   38
CAF
A   39
CAG
A   40
CAH
A   41
CAI
A   42
CAJ
A   43
CAK
A   44
CAL
A   45
CAM
A   46
CAN
A   47
CAO
A   48
CAP
A   49
CAQ
A   50
CAR
A   51
CAS
A   52
CAT
A   53
CAU
A   54
CAV
A   55
CAW
A   56
CAX
A   57
CAY
A   58
CAZ
M  END
