3VYE_VYE_A_402
     RDKit          3D

 65 67  0  0  0  0  0  0  0  0999 V2000
  179.7930  202.1500  100.7210 C   0  0  0  0  0  0  0  0  0  0  0  0
  179.4240  203.6160  100.5170 C   0  0  0  0  0  0  0  0  0  0  0  0
  179.5100  204.0200   99.1220 N   0  0  0  0  0  0  0  0  0  0  0  0
  178.6230  203.2160   98.2830 C   0  0  0  0  0  0  0  0  0  0  0  0
  178.9560  201.7290   98.3620 C   0  0  0  0  0  0  0  0  0  0  0  0
  178.9910  201.2090   99.8010 C   0  0  0  0  0  0  0  0  0  0  0  0
  178.1080  200.9350   97.4740 N   0  0  0  0  0  0  0  0  0  0  0  0
  176.7920  200.5940   97.9520 C   0  0  0  0  0  0  0  0  0  0  0  0
  175.8500  200.0060   96.8830 C   0  0  0  0  0  0  0  0  0  0  0  0
  176.4170  199.6350   95.6740 N   0  0  0  0  0  0  0  0  0  0  0  0
  177.8600  199.7850   95.3910 C   0  0  0  0  0  0  0  0  0  0  0  0
  178.7460  199.9750   96.6020 C   0  0  0  0  0  0  0  0  0  0  0  0
  174.6600  199.8850   97.1190 O   0  0  0  0  0  0  0  0  0  0  0  0
  180.1180  200.5000   96.1500 C   0  0  0  0  0  0  0  0  0  0  0  0
  178.9310  198.6410   97.3400 C   0  0  0  0  0  0  0  0  0  0  0  0
  175.6030  199.1090   94.6860 C   0  0  0  0  0  0  0  0  0  0  0  0
  175.3040  197.7630   94.5850 C   0  0  0  0  0  0  0  0  0  0  0  0
  174.4870  197.2520   93.5920 C   0  0  0  0  0  0  0  0  0  0  0  0
  173.9500  198.1350   92.6610 C   0  0  0  0  0  0  0  0  0  0  0  0
  174.2380  199.4970   92.7400 C   0  0  0  0  0  0  0  0  0  0  0  0
  175.0670  199.9860   93.7540 C   0  0  0  0  0  0  0  0  0  0  0  0
  175.9620  196.6730   95.7350 Cl  0  0  0  0  0  0  0  0  0  0  0  0
  179.6450  201.7510  102.1970 C   0  0  0  0  0  0  0  0  0  0  0  0
  178.7060  201.0650  102.5920 O   0  0  0  0  0  0  0  0  0  0  0  0
  180.6350  202.2230  102.9770 N   0  0  0  0  0  0  0  0  0  0  0  0
  180.6000  201.9030  104.3970 C   0  0  0  0  0  0  0  0  0  0  0  0
  181.0380  200.4520  104.6060 C   0  0  0  0  0  0  0  0  0  0  0  0
  182.5190  200.3000  104.9620 C   0  0  0  0  0  0  0  0  0  0  0  0
  183.0970  198.9570  104.5150 C   0  0  0  0  0  0  0  0  0  0  0  0
  183.3890  201.4870  104.5340 C   0  0  0  0  0  0  0  0  0  0  0  0
  180.8500  202.0383  100.4377 H   0  0  0  0  0  0  0  0  0  0  0  0
  180.1112  204.2390  101.1083 H   0  0  0  0  0  0  0  0  0  0  0  0
  178.3811  203.7478  100.8410 H   0  0  0  0  0  0  0  0  0  0  0  0
  180.4799  203.9002   98.7967 H   0  0  0  0  0  0  0  0  0  0  0  0
  178.7240  203.5478   97.2391 H   0  0  0  0  0  0  0  0  0  0  0  0
  177.5938  203.3540   98.6459 H   0  0  0  0  0  0  0  0  0  0  0  0
  179.9838  201.6074   97.9893 H   0  0  0  0  0  0  0  0  0  0  0  0
  177.9607  201.1321  100.1787 H   0  0  0  0  0  0  0  0  0  0  0  0
  179.4819  200.2246   99.8009 H   0  0  0  0  0  0  0  0  0  0  0  0
  176.3267  201.5060   98.3542 H   0  0  0  0  0  0  0  0  0  0  0  0
  176.9308  199.8084   98.7093 H   0  0  0  0  0  0  0  0  0  0  0  0
  178.1973  198.8808   94.8631 H   0  0  0  0  0  0  0  0  0  0  0  0
  177.9568  200.7071   94.7990 H   0  0  0  0  0  0  0  0  0  0  0  0
  180.7302  200.7342   97.0334 H   0  0  0  0  0  0  0  0  0  0  0  0
  180.6239  199.7319   95.5466 H   0  0  0  0  0  0  0  0  0  0  0  0
  179.9819  201.4096   95.5466 H   0  0  0  0  0  0  0  0  0  0  0  0
  178.9067  198.8162   98.4257 H   0  0  0  0  0  0  0  0  0  0  0  0
  178.1198  197.9523   97.0615 H   0  0  0  0  0  0  0  0  0  0  0  0
  179.8990  198.1990   97.0615 H   0  0  0  0  0  0  0  0  0  0  0  0
  174.2678  196.1753   93.5402 H   0  0  0  0  0  0  0  0  0  0  0  0
  173.2966  197.7579   91.8605 H   0  0  0  0  0  0  0  0  0  0  0  0
  173.8107  200.1904   92.0006 H   0  0  0  0  0  0  0  0  0  0  0  0
  175.2932  201.0609   93.8126 H   0  0  0  0  0  0  0  0  0  0  0  0
  181.3953  202.7940  102.5810 H   0  0  0  0  0  0  0  0  0  0  0  0
  181.2821  202.5734  104.9405 H   0  0  0  0  0  0  0  0  0  0  0  0
  179.5758  202.0341  104.7763 H   0  0  0  0  0  0  0  0  0  0  0  0
  180.4390  200.0229  105.4227 H   0  0  0  0  0  0  0  0  0  0  0  0
  180.8823  199.9291  103.6508 H   0  0  0  0  0  0  0  0  0  0  0  0
  182.5488  200.3063  106.0616 H   0  0  0  0  0  0  0  0  0  0  0  0
  183.3555  198.3564  105.3996 H   0  0  0  0  0  0  0  0  0  0  0  0
  182.3507  198.4191  103.9119 H   0  0  0  0  0  0  0  0  0  0  0  0
  184.0007  199.1292  103.9119 H   0  0  0  0  0  0  0  0  0  0  0  0
  183.7683  202.0046  105.4274 H   0  0  0  0  0  0  0  0  0  0  0  0
  184.2359  201.1232  103.9337 H   0  0  0  0  0  0  0  0  0  0  0  0
  182.7871  202.1851  103.9337 H   0  0  0  0  0  0  0  0  0  0  0  0
 19 20  2  0
 19 18  1  0
 20 21  1  0
 18 17  2  0
 21 16  2  0
 17 16  1  0
 17 22  1  0
 16 10  1  0
 11 10  1  0
 11 12  1  0
 10  9  1  0
 14 12  1  0
 12 15  1  0
 12  7  1  0
  9 13  2  0
  9  8  1  0
  7  8  1  0
  7  5  1  0
  4  5  1  0
  4  3  1  0
  5  6  1  0
  3  2  1  0
  6  1  1  0
  2  1  1  0
  1 23  1  0
 23 24  2  0
 23 25  1  0
 25 26  1  0
 26 27  1  0
 29 28  1  0
 30 28  1  0
 27 28  1  0
  1 31  1  0
  2 32  1  0
  2 33  1  0
  3 34  1  0
  4 35  1  0
  4 36  1  0
  5 37  1  0
  6 38  1  0
  6 39  1  0
  8 40  1  0
  8 41  1  0
 11 42  1  0
 11 43  1  0
 14 44  1  0
 14 45  1  0
 14 46  1  0
 15 47  1  0
 15 48  1  0
 15 49  1  0
 18 50  1  0
 19 51  1  0
 20 52  1  0
 21 53  1  0
 25 54  1  0
 26 55  1  0
 26 56  1  0
 27 57  1  0
 27 58  1  0
 28 59  1  0
 29 60  1  0
 29 61  1  0
 29 62  1  0
 30 63  1  0
 30 64  1  0
 30 65  1  0
A    1
C1
A    2
C2
A    3
N3
A    4
C4
A    5
C5
A    6
C6
A    7
N7
A    8
C8
A    9
C9
A   10
N10
A   11
C11
A   12
C12
A   13
O13
A   14
C14
A   15
C15
A   16
C16
A   17
C17
A   18
C18
A   19
C19
A   20
C20
A   21
C21
A   22
CL1
A   23
C23
A   24
O24
A   25
N25
A   26
C26
A   27
C27
A   28
C28
A   29
C29
A   30
C30
M  END
