3W0A_DS5_A_501
     RDKit          3D

 72 73  0  0  0  0  0  0  0  0999 V2000
   13.6470   19.0600   33.7610 C   0  0  0  0  0  0  0  0  0  0  0  0
    4.4230   25.8190   34.8410 O   0  0  0  0  0  0  0  0  0  0  0  0
   12.4950   19.5760   34.3560 C   0  0  0  0  0  0  0  0  0  0  0  0
   13.8210   17.7100   33.9570 O   0  0  0  0  0  0  0  0  0  0  0  0
   12.2410   20.9330   34.2210 C   0  0  0  0  0  0  0  0  0  0  0  0
   13.1020   21.7970   33.5410 C   0  0  0  0  0  0  0  0  0  0  0  0
   14.2300   21.2360   32.9400 C   0  0  0  0  0  0  0  0  0  0  0  0
   14.5130   19.8790   33.0410 C   0  0  0  0  0  0  0  0  0  0  0  0
   12.8800   23.3250   33.5770 C   0  0  0  0  0  0  0  0  0  0  0  0
   11.3820   23.6970   33.6380 C   0  0  0  0  0  0  0  0  0  0  0  0
   10.9290   24.7990   34.3710 C   0  0  0  0  0  0  0  0  0  0  0  0
    9.5880   25.1690   34.4200 C   0  0  0  0  0  0  0  0  0  0  0  0
    9.1830   26.3770   35.2280 C   0  0  0  0  0  0  0  0  0  0  0  0
    8.6450   24.3720   33.6810 C   0  0  0  0  0  0  0  0  0  0  0  0
    7.2310   24.5340   33.8210 C   0  0  0  0  0  0  0  0  0  0  0  0
    6.0530   24.6170   33.9280 C   0  0  0  0  0  0  0  0  0  0  0  0
    4.6840   24.6700   34.1540 C   0  0  0  0  0  0  0  0  0  0  0  0
    3.9310   24.6300   32.7520 C   0  0  0  0  0  0  0  0  0  0  0  0
    4.2170   23.4260   34.9950 C   0  0  0  0  0  0  0  0  0  0  0  0
    9.1090   23.3130   32.9030 C   0  0  0  0  0  0  0  0  0  0  0  0
   13.6760   23.8810   34.8480 C   0  0  0  0  0  0  0  0  0  0  0  0
   15.1180   15.7480   34.3100 C   0  0  0  0  0  0  0  0  0  0  0  0
   13.8830   14.8910   34.0610 C   0  0  0  0  0  0  0  0  0  0  0  0
   13.9000   13.4930   34.6960 C   0  0  0  0  0  0  0  0  0  0  0  0
   13.4740   13.4680   36.1370 C   0  0  0  0  0  0  0  0  0  0  0  0
   13.5060   24.0370   32.3320 C   0  0  0  0  0  0  0  0  0  0  0  0
   13.2400   23.4250   36.2410 C   0  0  0  0  0  0  0  0  0  0  0  0
   12.9550   23.6760   30.9530 C   0  0  0  0  0  0  0  0  0  0  0  0
   10.4480   22.9790   32.8950 C   0  0  0  0  0  0  0  0  0  0  0  0
   11.5180   18.6990   35.0940 C   0  0  0  0  0  0  0  0  0  0  0  0
   15.0240   17.0550   33.5410 C   0  0  0  0  0  0  0  0  0  0  0  0
    4.3950   25.5810   31.9560 F   0  0  0  0  0  0  0  0  0  0  0  0
    4.0960   23.4630   32.1190 F   0  0  0  0  0  0  0  0  0  0  0  0
    2.6180   24.8330   32.9090 F   0  0  0  0  0  0  0  0  0  0  0  0
    2.9270   23.5740   35.3170 F   0  0  0  0  0  0  0  0  0  0  0  0
    4.3340   22.2760   34.3330 F   0  0  0  0  0  0  0  0  0  0  0  0
    4.9130   23.3080   36.1310 F   0  0  0  0  0  0  0  0  0  0  0  0
   15.2230   16.0620   35.7080 O   0  0  0  0  0  0  0  0  0  0  0  0
   13.3760   12.2390   36.6490 O   0  0  0  0  0  0  0  0  0  0  0  0
   13.2280   14.4860   36.7700 O   0  0  0  0  0  0  0  0  0  0  0  0
    4.4640   25.6385   35.8135 H   0  0  0  0  0  0  0  0  0  0  0  0
   11.3242   21.3453   34.6677 H   0  0  0  0  0  0  0  0  0  0  0  0
   14.9127   21.8848   32.3717 H   0  0  0  0  0  0  0  0  0  0  0  0
   15.4079   19.4582   32.5593 H   0  0  0  0  0  0  0  0  0  0  0  0
   11.6623   25.3975   34.9314 H   0  0  0  0  0  0  0  0  0  0  0  0
    9.2611   26.1440   36.3002 H   0  0  0  0  0  0  0  0  0  0  0  0
    9.8479   27.2194   34.9865 H   0  0  0  0  0  0  0  0  0  0  0  0
    8.1447   26.6484   34.9865 H   0  0  0  0  0  0  0  0  0  0  0  0
    8.4007   22.7374   32.2890 H   0  0  0  0  0  0  0  0  0  0  0  0
   14.7289   23.5872   34.7253 H   0  0  0  0  0  0  0  0  0  0  0  0
   13.4696   24.9614   34.8424 H   0  0  0  0  0  0  0  0  0  0  0  0
   15.9983   15.1793   33.9757 H   0  0  0  0  0  0  0  0  0  0  0  0
   13.0114   15.4316   34.4586 H   0  0  0  0  0  0  0  0  0  0  0  0
   13.8491   14.7248   32.9742 H   0  0  0  0  0  0  0  0  0  0  0  0
   13.2198   12.8453   34.1235 H   0  0  0  0  0  0  0  0  0  0  0  0
   14.9430   13.1446   34.6676 H   0  0  0  0  0  0  0  0  0  0  0  0
   14.5811   23.8042   32.3270 H   0  0  0  0  0  0  0  0  0  0  0  0
   13.2510   25.0990   32.4629 H   0  0  0  0  0  0  0  0  0  0  0  0
   13.7883   23.9985   37.0029 H   0  0  0  0  0  0  0  0  0  0  0  0
   12.1599   23.5949   36.3611 H   0  0  0  0  0  0  0  0  0  0  0  0
   13.4582   22.3536   36.3611 H   0  0  0  0  0  0  0  0  0  0  0  0
   12.0400   23.0765   31.0692 H   0  0  0  0  0  0  0  0  0  0  0  0
   12.7220   24.5971   30.3986 H   0  0  0  0  0  0  0  0  0  0  0  0
   13.7064   23.0945   30.3986 H   0  0  0  0  0  0  0  0  0  0  0  0
   10.7854   22.1261   32.2878 H   0  0  0  0  0  0  0  0  0  0  0  0
   11.6583   18.8250   36.1777 H   0  0  0  0  0  0  0  0  0  0  0  0
   10.4911   18.9841   34.8216 H   0  0  0  0  0  0  0  0  0  0  0  0
   11.6910   17.6474   34.8216 H   0  0  0  0  0  0  0  0  0  0  0  0
   14.9882   16.8537   32.4602 H   0  0  0  0  0  0  0  0  0  0  0  0
   15.9008   17.6882   33.7419 H   0  0  0  0  0  0  0  0  0  0  0  0
   14.9591   15.2727   36.2442 H   0  0  0  0  0  0  0  0  0  0  0  0
   13.2327   14.4667   37.7598 H   0  0  0  0  0  0  0  0  0  0  0  0
 28 26  1  0
 32 18  1  0
 33 18  1  0
 26  9  1  0
 18 34  1  0
 18 17  1  0
 29 20  2  0
 29 10  1  0
 20 14  1  0
  7  8  1  0
  7  6  2  0
  8  1  2  0
 31  4  1  0
 31 22  1  0
  6  9  1  0
  6  5  1  0
  9 10  1  0
  9 21  1  0
 10 11  2  0
 14 15  1  0
 14 12  2  0
  1  4  1  0
  1  3  1  0
 15 16  3  0
 16 17  1  0
 23 22  1  0
 23 24  1  0
 17  2  1  0
 17 19  1  0
  5  3  2  0
 22 38  1  0
 36 19  1  0
  3 30  1  0
 11 12  1  0
 12 13  1  0
 24 25  1  0
 21 27  1  0
 19 35  1  0
 19 37  1  0
 25 39  2  0
 25 40  1  0
  2 41  1  0
  5 42  1  0
  7 43  1  0
  8 44  1  0
 11 45  1  0
 13 46  1  0
 13 47  1  0
 13 48  1  0
 20 49  1  0
 21 50  1  0
 21 51  1  0
 22 52  1  0
 23 53  1  0
 23 54  1  0
 24 55  1  0
 24 56  1  0
 26 57  1  0
 26 58  1  0
 27 59  1  0
 27 60  1  0
 27 61  1  0
 28 62  1  0
 28 63  1  0
 28 64  1  0
 29 65  1  0
 30 66  1  0
 30 67  1  0
 30 68  1  0
 31 69  1  0
 31 70  1  0
 38 71  1  0
 40 72  1  0
A    1
C1
A    2
O1
A    3
C2
A    4
O2
A    5
C3
A    6
C4
A    7
C5
A    8
C6
A    9
C7
A   10
C8
A   11
C9
A   12
C10
A   13
C11
A   14
C12
A   15
C13
A   16
C14
A   17
C15
A   18
C16
A   19
C17
A   20
C18
A   21
C20
A   22
C26
A   23
C27
A   24
C28
A   25
C29
A   26
C22
A   27
C21
A   28
C23
A   29
C19
A   30
C24
A   31
C25
A   32
F1
A   33
F2
A   34
F3
A   35
F4
A   36
F5
A   37
F6
A   38
O3
A   39
O5
A   40
O4
M  END
