3W0T_HPU_A_202
     RDKit          3D

 41 43  0  0  0  0  0  0  0  0999 V2000
   14.7640    7.3060   43.8010 C   0  0  0  0  0  0  0  0  0  0  0  0
   12.1760    5.9740   44.5770 C   0  0  0  0  0  0  0  0  0  0  0  0
   12.3510    3.2220   44.0120 C   0  0  0  0  0  0  0  0  0  0  0  0
   13.2370    4.1260   43.4400 C   0  0  0  0  0  0  0  0  0  0  0  0
   11.3590    3.7020   44.8890 C   0  0  0  0  0  0  0  0  0  0  0  0
   11.2840    5.0720   45.1820 C   0  0  0  0  0  0  0  0  0  0  0  0
   13.1390    5.5030   43.6670 C   0  0  0  0  0  0  0  0  0  0  0  0
   14.1070    6.3150   43.0620 C   0  0  0  0  0  0  0  0  0  0  0  0
   12.6900    0.4260   45.9800 C   0  0  0  0  0  0  0  0  0  0  0  0
   11.9270    0.6360   44.4010 S   0  0  0  0  0  0  0  0  0  0  0  0
   10.4240    0.7610   44.5620 O   0  0  0  0  0  0  0  0  0  0  0  0
   12.2630   -0.5920   43.5910 O   0  0  0  0  0  0  0  0  0  0  0  0
   12.4960    1.9480   43.6230 N   0  0  0  0  0  0  0  0  0  0  0  0
   14.5540    6.0280   41.7350 N   0  0  0  0  0  0  0  0  0  0  0  0
   13.9680    4.9910   40.8940 O   0  0  0  0  0  0  0  0  0  0  0  0
   15.5990    6.7610   41.1860 C   0  0  0  0  0  0  0  0  0  0  0  0
   15.9510    6.5350   40.0250 O   0  0  0  0  0  0  0  0  0  0  0  0
   16.2450    7.7460   41.9370 C   0  0  0  0  0  0  0  0  0  0  0  0
   15.8120    8.0540   43.2420 C   0  0  0  0  0  0  0  0  0  0  0  0
   16.4800    9.0480   43.9910 C   0  0  0  0  0  0  0  0  0  0  0  0
   17.8660    9.2380   43.8440 C   0  0  0  0  0  0  0  0  0  0  0  0
   18.5410   10.2410   44.5560 C   0  0  0  0  0  0  0  0  0  0  0  0
   17.8160   11.0620   45.4220 C   0  0  0  0  0  0  0  0  0  0  0  0
   16.4350   10.8910   45.5760 C   0  0  0  0  0  0  0  0  0  0  0  0
   15.7590    9.8990   44.8490 C   0  0  0  0  0  0  0  0  0  0  0  0
   14.4535    7.5019   44.8379 H   0  0  0  0  0  0  0  0  0  0  0  0
   12.1209    7.0465   44.8149 H   0  0  0  0  0  0  0  0  0  0  0  0
   14.0394    3.7481   42.7893 H   0  0  0  0  0  0  0  0  0  0  0  0
   10.6427    3.0024   45.3445 H   0  0  0  0  0  0  0  0  0  0  0  0
   10.5249    5.4412   45.8873 H   0  0  0  0  0  0  0  0  0  0  0  0
   11.9545    0.6284   46.7725 H   0  0  0  0  0  0  0  0  0  0  0  0
   13.0570   -0.6066   46.0755 H   0  0  0  0  0  0  0  0  0  0  0  0
   13.5337    1.1253   46.0755 H   0  0  0  0  0  0  0  0  0  0  0  0
   13.0164    1.7833   42.7496 H   0  0  0  0  0  0  0  0  0  0  0  0
   13.5258    4.2084   41.3089 H   0  0  0  0  0  0  0  0  0  0  0  0
   17.1002    8.2865   41.5053 H   0  0  0  0  0  0  0  0  0  0  0  0
   18.4306    8.5887   43.1587 H   0  0  0  0  0  0  0  0  0  0  0  0
   19.6255   10.3786   44.4338 H   0  0  0  0  0  0  0  0  0  0  0  0
   18.3343   11.8499   45.9881 H   0  0  0  0  0  0  0  0  0  0  0  0
   15.8773   11.5371   46.2699 H   0  0  0  0  0  0  0  0  0  0  0  0
   14.6693    9.7871   44.9495 H   0  0  0  0  0  0  0  0  0  0  0  0
 23 24  2  0
 23 22  1  0
 24 25  1  0
 22 21  2  0
 25 20  2  0
 21 20  1  0
 20 19  1  0
 19  1  1  0
 19 18  2  0
  1  8  2  0
 18 16  1  0
  8  7  1  0
  8 14  1  0
  2  7  2  0
  2  6  1  0
  7  4  1  0
 16 14  1  0
 16 17  2  0
  9 10  1  0
  6  5  2  0
 14 15  1  0
  4  3  2  0
  5  3  1  0
  3 13  1  0
 10 11  2  0
 10 13  1  0
 10 12  2  0
  1 26  1  0
  2 27  1  0
  4 28  1  0
  5 29  1  0
  6 30  1  0
  9 31  1  0
  9 32  1  0
  9 33  1  0
 13 34  1  0
 15 35  1  0
 18 36  1  0
 21 37  1  0
 22 38  1  0
 23 39  1  0
 24 40  1  0
 25 41  1  0
A    1
C14
A    2
C11
A    3
C7
A    4
C8
A    5
C9
A    6
C10
A    7
C12
A    8
C13
A    9
C1
A   10
S2
A   11
O3
A   12
O4
A   13
N5
A   14
N15
A   15
O16
A   16
C18
A   17
O19
A   18
C20
A   19
C21
A   20
C22
A   21
C23
A   22
C24
A   23
C25
A   24
C26
A   25
C27
M  END
