3W10_RO9_A_501
     RDKit          3D

 43 46  0  0  0  0  0  0  0  0999 V2000
    8.4320  -36.1920   -3.5310 C   0  0  0  0  0  0  0  0  0  0  0  0
    8.9560  -36.9910   -2.5190 C   0  0  0  0  0  0  0  0  0  0  0  0
    8.5190  -41.1810   -2.7500 C   0  0  0  0  0  0  0  0  0  0  0  0
    5.7580  -39.3620   -5.5950 C   0  0  0  0  0  0  0  0  0  0  0  0
    4.9890  -39.8130   -6.6610 C   0  0  0  0  0  0  0  0  0  0  0  0
    9.3170  -39.2080   -1.6140 C   0  0  0  0  0  0  0  0  0  0  0  0
    8.5600  -34.8510   -3.4560 N   0  0  0  0  0  0  0  0  0  0  0  0
    9.1700  -40.6020   -1.6830 C   0  0  0  0  0  0  0  0  0  0  0  0
    8.1360  -38.9490   -3.6640 C   0  0  0  0  0  0  0  0  0  0  0  0
    7.6580  -33.0610   -6.2510 C   0  0  0  0  0  0  0  0  0  0  0  0
    7.1440  -32.7710   -7.6760 C   0  0  0  0  0  0  0  0  0  0  0  0
    7.7790  -34.2670   -5.6800 C   0  0  0  0  0  0  0  0  0  0  0  0
    8.0540  -32.1020   -5.4150 N   0  0  0  0  0  0  0  0  0  0  0  0
    8.4080  -32.6980   -4.3210 N   0  0  0  0  0  0  0  0  0  0  0  0
    8.2570  -34.0130   -4.4590 C   0  0  0  0  0  0  0  0  0  0  0  0
    7.7830  -36.7790   -4.5370 N   0  0  0  0  0  0  0  0  0  0  0  0
    8.8150  -38.3740   -2.6060 C   0  0  0  0  0  0  0  0  0  0  0  0
    8.0030  -40.3430   -3.7290 C   0  0  0  0  0  0  0  0  0  0  0  0
    7.6120  -38.1050   -4.6490 C   0  0  0  0  0  0  0  0  0  0  0  0
    6.8870  -38.5620   -5.7710 C   0  0  0  0  0  0  0  0  0  0  0  0
    7.2450  -38.1640   -7.0520 C   0  0  0  0  0  0  0  0  0  0  0  0
    6.4900  -38.5910   -8.1210 C   0  0  0  0  0  0  0  0  0  0  0  0
    5.3720  -39.4070   -7.9260 C   0  0  0  0  0  0  0  0  0  0  0  0
    3.8970  -40.6250   -6.4390 O   0  0  0  0  0  0  0  0  0  0  0  0
    3.3510  -41.3840   -7.5360 C   0  0  0  0  0  0  0  0  0  0  0  0
    9.4745  -36.5364   -1.6620 H   0  0  0  0  0  0  0  0  0  0  0  0
    8.4114  -42.2732   -2.8239 H   0  0  0  0  0  0  0  0  0  0  0  0
    5.4653  -39.6467   -4.5736 H   0  0  0  0  0  0  0  0  0  0  0  0
    9.8418  -38.7651   -0.7547 H   0  0  0  0  0  0  0  0  0  0  0  0
    8.9113  -34.4465   -2.5763 H   0  0  0  0  0  0  0  0  0  0  0  0
    9.5767  -41.2355   -0.8809 H   0  0  0  0  0  0  0  0  0  0  0  0
    6.1873  -32.2312   -7.6179 H   0  0  0  0  0  0  0  0  0  0  0  0
    7.8804  -32.1552   -8.2132 H   0  0  0  0  0  0  0  0  0  0  0  0
    6.9977  -33.7197   -8.2132 H   0  0  0  0  0  0  0  0  0  0  0  0
    7.5386  -35.2467   -6.1185 H   0  0  0  0  0  0  0  0  0  0  0  0
    8.0745  -31.0892   -5.6015 H   0  0  0  0  0  0  0  0  0  0  0  0
    7.4723  -40.7874   -4.5839 H   0  0  0  0  0  0  0  0  0  0  0  0
    8.1199  -37.5164   -7.2106 H   0  0  0  0  0  0  0  0  0  0  0  0
    6.7697  -38.2865   -9.1403 H   0  0  0  0  0  0  0  0  0  0  0  0
    4.7846  -39.7329   -8.7971 H   0  0  0  0  0  0  0  0  0  0  0  0
    2.7512  -42.2178   -7.1423 H   0  0  0  0  0  0  0  0  0  0  0  0
    2.7135  -40.7322   -8.1514 H   0  0  0  0  0  0  0  0  0  0  0  0
    4.1717  -41.7812   -8.1514 H   0  0  0  0  0  0  0  0  0  0  0  0
 22 23  2  0
 22 21  1  0
 23  5  1  0
 11 10  1  0
 25 24  1  0
 21 20  2  0
  5 24  1  0
  5  4  2  0
 10 12  2  0
 10 13  1  0
 20  4  1  0
 20 19  1  0
 12 15  1  0
 13 14  1  0
 19 16  2  0
 19  9  1  0
 16  1  1  0
 15 14  2  0
 15  7  1  0
 18  9  1  0
 18  3  2  0
  9 17  2  0
  1  7  1  0
  1  2  2  0
  3  8  1  0
 17  2  1  0
 17  6  1  0
  8  6  2  0
  2 26  1  0
  3 27  1  0
  4 28  1  0
  6 29  1  0
  7 30  1  0
  8 31  1  0
 11 32  1  0
 11 33  1  0
 11 34  1  0
 12 35  1  0
 13 36  1  0
 18 37  1  0
 21 38  1  0
 22 39  1  0
 23 40  1  0
 25 41  1  0
 25 42  1  0
 25 43  1  0
A    1
C5
A    2
C6
A    3
C10
A    4
C15
A    5
C14
A    6
C12
A    7
N17
A    8
C11
A    9
C8
A   10
C21
A   11
C23
A   12
C22
A   13
N20
A   14
N19
A   15
C18
A   16
N4
A   17
C7
A   18
C9
A   19
C3
A   20
C16
A   21
C29
A   22
C32
A   23
C43
A   24
O24
A   25
C25
M  END
