3W1N_IRO_A_403
     RDKit          3D

 15 15  0  0  0  0  0  0  0  0999 V2000
    4.6880   52.3340   75.3300 O   0  0  0  0  0  0  0  0  0  0  0  0
    5.8840   52.0400   75.5410 C   0  0  0  0  0  0  0  0  0  0  0  0
    6.6930   52.9730   75.5050 O   0  0  0  0  0  0  0  0  0  0  0  0
    6.2100   50.6840   75.5410 C   0  0  0  0  0  0  0  0  0  0  0  0
    7.0510   50.1540   74.5490 C   0  0  0  0  0  0  0  0  0  0  0  0
    7.9910   51.4470   73.1300 I   0  0  0  0  0  0  0  0  0  0  0  0
    7.2900   48.7930   74.4580 C   0  0  0  0  0  0  0  0  0  0  0  0
    8.0280   48.3400   73.5860 O   0  0  0  0  0  0  0  0  0  0  0  0
    6.6790   47.9540   75.3830 N   0  0  0  0  0  0  0  0  0  0  0  0
    5.8370   48.4860   76.3520 C   0  0  0  0  0  0  0  0  0  0  0  0
    5.3000   47.7250   77.1280 O   0  0  0  0  0  0  0  0  0  0  0  0
    5.5950   49.8510   76.4370 N   0  0  0  0  0  0  0  0  0  0  0  0
    7.0335   53.3657   76.3476 H   0  0  0  0  0  0  0  0  0  0  0  0
    6.8503   46.9389   75.3501 H   0  0  0  0  0  0  0  0  0  0  0  0
    4.9656   50.2290   77.1594 H   0  0  0  0  0  0  0  0  0  0  0  0
  6  5  1  0
  8  7  2  0
  7  5  1  0
  7  9  1  0
  5  4  2  0
  1  2  2  0
  9 10  1  0
  3  2  1  0
  4  2  1  0
  4 12  1  0
 10 12  1  0
 10 11  2  0
  3 13  1  0
  9 14  1  0
 12 15  1  0
A    1
OAA
A    2
CAH
A    3
OAD
A    4
CAI
A    5
CAJ
A    6
I
A    7
CAL
A    8
OAC
A    9
NAG
A   10
CAK
A   11
OAB
A   12
NAF
M  END
