3W1X_XRO_A_401
     RDKit          3D

 35 36  0  0  0  0  0  0  0  0999 V2000
    4.8740   17.2020   14.4310 O   0  0  0  0  0  0  0  0  0  0  0  0
    6.1020   17.1940   14.3660 C   0  0  0  0  0  0  0  0  0  0  0  0
    6.8860   18.1750   14.2890 O   0  0  0  0  0  0  0  0  0  0  0  0
    6.7670   15.7930   14.3620 C   0  0  0  0  0  0  0  0  0  0  0  0
    6.3050   14.9960   15.4180 N   0  0  0  0  0  0  0  0  0  0  0  0
    6.6290   13.7020   15.5310 C   0  0  0  0  0  0  0  0  0  0  0  0
    6.2220   12.9860   16.4370 O   0  0  0  0  0  0  0  0  0  0  0  0
    7.5840   13.2510   14.6250 N   0  0  0  0  0  0  0  0  0  0  0  0
    8.1520   14.0070   13.5580 C   0  0  0  0  0  0  0  0  0  0  0  0
    8.9980   13.4720   12.8060 O   0  0  0  0  0  0  0  0  0  0  0  0
    7.7540   15.3700   13.4930 C   0  0  0  0  0  0  0  0  0  0  0  0
    8.2370   16.1490   12.3760 C   0  0  0  0  0  0  0  0  0  0  0  0
    7.6620   15.7140   10.9870 C   0  0  0  0  0  0  0  0  0  0  0  0
    6.2550   15.9300   10.9260 C   0  0  0  0  0  0  0  0  0  0  0  0
    5.7010   17.1320   10.5020 C   0  0  0  0  0  0  0  0  0  0  0  0
    4.2540   17.3230   10.5750 C   0  0  0  0  0  0  0  0  0  0  0  0
    3.4130   16.3470   11.0090 C   0  0  0  0  0  0  0  0  0  0  0  0
    1.9110   16.4890   11.0920 C   0  0  0  0  0  0  0  0  0  0  0  0
    1.6510   17.3980   12.3130 C   0  0  0  0  0  0  0  0  0  0  0  0
    1.4980   18.0280   13.2280 N   0  0  0  0  0  0  0  0  0  0  0  0
    3.9550   15.0980   11.3450 C   0  0  0  0  0  0  0  0  0  0  0  0
    5.3570   14.9200   11.2910 C   0  0  0  0  0  0  0  0  0  0  0  0
    4.4250   17.2049   15.3133 H   0  0  0  0  0  0  0  0  0  0  0  0
    5.6953   15.4203   16.1316 H   0  0  0  0  0  0  0  0  0  0  0  0
    7.9110   12.2806   14.7355 H   0  0  0  0  0  0  0  0  0  0  0  0
    9.3324   16.0553   12.3394 H   0  0  0  0  0  0  0  0  0  0  0  0
    7.9001   17.1824   12.5452 H   0  0  0  0  0  0  0  0  0  0  0  0
    7.8688   14.6449   10.8310 H   0  0  0  0  0  0  0  0  0  0  0  0
    8.1434   16.3182   10.2039 H   0  0  0  0  0  0  0  0  0  0  0  0
    6.3469   17.9336   10.1144 H   0  0  0  0  0  0  0  0  0  0  0  0
    3.8304   18.2906   10.2680 H   0  0  0  0  0  0  0  0  0  0  0  0
    1.5173   16.9534   10.1759 H   0  0  0  0  0  0  0  0  0  0  0  0
    1.4133   15.5135   11.1953 H   0  0  0  0  0  0  0  0  0  0  0  0
    3.2988   14.2682   11.6464 H   0  0  0  0  0  0  0  0  0  0  0  0
    5.7649   13.9319   11.5505 H   0  0  0  0  0  0  0  0  0  0  0  0
 15 16  2  0
 15 14  1  0
 16 17  1  0
 14 13  1  0
 14 22  2  0
 13 12  1  0
 17 18  1  0
 17 21  2  0
 18 19  1  0
 22 21  1  0
 19 20  3  0
 12 11  1  0
 10  9  2  0
 11  9  1  0
 11  4  2  0
  9  8  1  0
  3  2  2  0
  4  2  1  0
  4  5  1  0
  2  1  1  0
  8  6  1  0
  5  6  1  0
  6  7  2  0
  1 23  1  0
  5 24  1  0
  8 25  1  0
 12 26  1  0
 12 27  1  0
 13 28  1  0
 13 29  1  0
 15 30  1  0
 16 31  1  0
 18 32  1  0
 18 33  1  0
 21 34  1  0
 22 35  1  0
A    1
OAB
A    2
CAP
A    3
OAE
A    4
CAS
A    5
NAN
A    6
CAU
A    7
OAC
A    8
NAO
A    9
CAV
A   10
OAD
A   11
CAT
A   12
CAM
A   13
CAL
A   14
CAR
A   15
CAI
A   16
CAG
A   17
CAQ
A   18
CAK
A   19
CAF
A   20
NAA
A   21
CAH
A   22
CAJ
M  END
