3W22_2RO_A_401
     RDKit          3D

 43 44  0  0  0  0  0  0  0  0999 V2000
    7.1210   18.2700   14.4230 O   0  0  0  0  0  0  0  0  0  0  0  0
    6.3910   17.2660   14.5320 C   0  0  0  0  0  0  0  0  0  0  0  0
    5.1460   17.4010   14.6570 O   0  0  0  0  0  0  0  0  0  0  0  0
    6.8970   15.9230   14.5080 C   0  0  0  0  0  0  0  0  0  0  0  0
    6.3530   15.0630   15.4990 N   0  0  0  0  0  0  0  0  0  0  0  0
    6.7100   13.7070   15.5750 C   0  0  0  0  0  0  0  0  0  0  0  0
    6.2640   12.9530   16.4510 O   0  0  0  0  0  0  0  0  0  0  0  0
    7.5880   13.2180   14.6290 N   0  0  0  0  0  0  0  0  0  0  0  0
    8.0840   14.0190   13.5600 C   0  0  0  0  0  0  0  0  0  0  0  0
    8.8150   13.4400   12.7250 O   0  0  0  0  0  0  0  0  0  0  0  0
    7.7230   15.4040   13.4920 C   0  0  0  0  0  0  0  0  0  0  0  0
    8.1730   16.2480   12.4990 C   0  0  0  0  0  0  0  0  0  0  0  0
    7.7180   15.7000   11.1110 C   0  0  0  0  0  0  0  0  0  0  0  0
    6.3830   16.2050   10.9620 C   0  0  0  0  0  0  0  0  0  0  0  0
    5.3250   15.4770   11.4920 C   0  0  0  0  0  0  0  0  0  0  0  0
    3.9950   15.9240   11.4020 C   0  0  0  0  0  0  0  0  0  0  0  0
    3.6470   17.1370   10.7590 C   0  0  0  0  0  0  0  0  0  0  0  0
    2.2150   17.5050   10.7810 C   0  0  0  0  0  0  0  0  0  0  0  0
    1.2780   16.3370   10.3010 C   0  0  0  0  0  0  0  0  0  0  0  0
    1.7990   17.7970   12.2750 C   0  0  0  0  0  0  0  0  0  0  0  0
    1.9040   18.7940    9.9380 C   0  0  0  0  0  0  0  0  0  0  0  0
    4.7330   17.8730   10.2580 C   0  0  0  0  0  0  0  0  0  0  0  0
    6.0560   17.4070   10.3640 C   0  0  0  0  0  0  0  0  0  0  0  0
    4.7410   17.4449   15.5593 H   0  0  0  0  0  0  0  0  0  0  0  0
    5.6796   15.4436   16.1791 H   0  0  0  0  0  0  0  0  0  0  0  0
    7.8962   12.2376   14.6983 H   0  0  0  0  0  0  0  0  0  0  0  0
    9.2713   16.3005   12.5312 H   0  0  0  0  0  0  0  0  0  0  0  0
    7.7551   17.2538   12.6530 H   0  0  0  0  0  0  0  0  0  0  0  0
    7.7236   14.6000   11.1034 H   0  0  0  0  0  0  0  0  0  0  0  0
    8.3836   16.0118   10.2926 H   0  0  0  0  0  0  0  0  0  0  0  0
    5.5341   14.5225   11.9971 H   0  0  0  0  0  0  0  0  0  0  0  0
    3.1973   15.3105   11.8463 H   0  0  0  0  0  0  0  0  0  0  0  0
    0.8614   15.8177   11.1767 H   0  0  0  0  0  0  0  0  0  0  0  0
    0.4580   16.7501    9.6953 H   0  0  0  0  0  0  0  0  0  0  0  0
    1.8591   15.6261    9.6953 H   0  0  0  0  0  0  0  0  0  0  0  0
    2.5060   17.3008   12.9561 H   0  0  0  0  0  0  0  0  0  0  0  0
    1.8165   18.8820   12.4551 H   0  0  0  0  0  0  0  0  0  0  0  0
    0.7845   17.4118   12.4551 H   0  0  0  0  0  0  0  0  0  0  0  0
    1.7009   19.6357   10.6165 H   0  0  0  0  0  0  0  0  0  0  0  0
    2.7698   19.0350    9.3037 H   0  0  0  0  0  0  0  0  0  0  0  0
    1.0236   18.6137    9.3037 H   0  0  0  0  0  0  0  0  0  0  0  0
    4.5440   18.8402    9.7694 H   0  0  0  0  0  0  0  0  0  0  0  0
    6.8662   18.0270    9.9526 H   0  0  0  0  0  0  0  0  0  0  0  0
 21 18  1  0
 22 23  2  0
 22 17  1  0
 19 18  1  0
 23 14  1  0
 17 18  1  0
 17 16  2  0
 18 20  1  0
 14 13  1  0
 14 15  2  0
 13 12  1  0
 16 15  1  0
 12 11  1  0
 10  9  2  0
 11  9  1  0
 11  4  2  0
  9  8  1  0
  1  2  2  0
  4  2  1  0
  4  5  1  0
  2  3  1  0
  8  6  1  0
  5  6  1  0
  6  7  2  0
  3 24  1  0
  5 25  1  0
  8 26  1  0
 12 27  1  0
 12 28  1  0
 13 29  1  0
 13 30  1  0
 15 31  1  0
 16 32  1  0
 19 33  1  0
 19 34  1  0
 19 35  1  0
 20 36  1  0
 20 37  1  0
 20 38  1  0
 21 39  1  0
 21 40  1  0
 21 41  1  0
 22 42  1  0
 23 43  1  0
A    1
OAD
A    2
CAP
A    3
OAG
A    4
CAS
A    5
NAN
A    6
CAU
A    7
OAE
A    8
NAO
A    9
CAV
A   10
OAF
A   11
CAT
A   12
CAM
A   13
CAL
A   14
CAQ
A   15
CAH
A   16
CAJ
A   17
CAR
A   18
CAW
A   19
CAB
A   20
CAC
A   21
CAA
A   22
CAK
A   23
CAI
M  END
