3W23_3RO_A_401
     RDKit          3D

 31 32  0  0  0  0  0  0  0  0999 V2000
    4.8680   17.2680   14.4870 O   0  0  0  0  0  0  0  0  0  0  0  0
    6.1010   17.3570   14.3820 C   0  0  0  0  0  0  0  0  0  0  0  0
    6.9100   18.2720   14.4140 O   0  0  0  0  0  0  0  0  0  0  0  0
    6.7390   15.9360   14.4190 C   0  0  0  0  0  0  0  0  0  0  0  0
    6.2940   15.0980   15.4820 N   0  0  0  0  0  0  0  0  0  0  0  0
    6.6650   13.7570   15.5940 C   0  0  0  0  0  0  0  0  0  0  0  0
    6.2210   13.0060   16.4780 O   0  0  0  0  0  0  0  0  0  0  0  0
    7.5600   13.3320   14.6720 N   0  0  0  0  0  0  0  0  0  0  0  0
    8.0990   14.1030   13.6220 C   0  0  0  0  0  0  0  0  0  0  0  0
    8.9070   13.5640   12.8410 O   0  0  0  0  0  0  0  0  0  0  0  0
    7.6590   15.4540   13.5440 C   0  0  0  0  0  0  0  0  0  0  0  0
    8.1710   16.2130   12.4420 C   0  0  0  0  0  0  0  0  0  0  0  0
    7.4990   15.8360   11.0040 C   0  0  0  0  0  0  0  0  0  0  0  0
    6.3000   16.3670   10.8220 C   0  0  0  0  0  0  0  0  0  0  0  0
    6.1800   17.6270   10.1830 C   0  0  0  0  0  0  0  0  0  0  0  0
    4.8600   18.0930   10.0740 C   0  0  0  0  0  0  0  0  0  0  0  0
    4.6510   19.7210    9.3650 Cl  0  0  0  0  0  0  0  0  0  0  0  0
    3.7250   17.3990   10.5200 C   0  0  0  0  0  0  0  0  0  0  0  0
    3.8620   16.1460   11.0700 C   0  0  0  0  0  0  0  0  0  0  0  0
    5.1630   15.6040   11.1910 C   0  0  0  0  0  0  0  0  0  0  0  0
    4.4484   17.2377   15.3832 H   0  0  0  0  0  0  0  0  0  0  0  0
    5.6720   15.4989   16.1984 H   0  0  0  0  0  0  0  0  0  0  0  0
    7.8767   12.3546   14.7442 H   0  0  0  0  0  0  0  0  0  0  0  0
    9.2545   16.0355   12.3741 H   0  0  0  0  0  0  0  0  0  0  0  0
    7.9246   17.2665   12.6408 H   0  0  0  0  0  0  0  0  0  0  0  0
    7.4078   14.7417   10.9394 H   0  0  0  0  0  0  0  0  0  0  0  0
    8.1555   16.2488   10.2239 H   0  0  0  0  0  0  0  0  0  0  0  0
    7.0459   18.1906    9.8054 H   0  0  0  0  0  0  0  0  0  0  0  0
    2.7284   17.8559   10.4300 H   0  0  0  0  0  0  0  0  0  0  0  0
    2.9817   15.5793   11.4075 H   0  0  0  0  0  0  0  0  0  0  0  0
    5.2939   14.5815   11.5748 H   0  0  0  0  0  0  0  0  0  0  0  0
 17 16  1  0
 16 15  2  0
 16 18  1  0
 15 14  1  0
 18 19  2  0
 14 13  1  0
 14 20  2  0
 13 12  1  0
 19 20  1  0
 12 11  1  0
 10  9  2  0
 11  9  1  0
 11  4  2  0
  9  8  1  0
  2  3  2  0
  2  4  1  0
  2  1  1  0
  4  5  1  0
  8  6  1  0
  5  6  1  0
  6  7  2  0
  1 21  1  0
  5 22  1  0
  8 23  1  0
 12 24  1  0
 12 25  1  0
 13 26  1  0
 13 27  1  0
 15 28  1  0
 18 29  1  0
 19 30  1  0
 20 31  1  0
A    1
OAA
A    2
CAN
A    3
OAD
A    4
CAQ
A    5
NAL
A    6
CAS
A    7
OAB
A    8
NAM
A    9
CAT
A   10
OAC
A   11
CAR
A   12
CAK
A   13
CAJ
A   14
CAP
A   15
CAI
A   16
CAO
A   17
CL1
A   18
CAG
A   19
CAF
A   20
CAH
M  END
