3W2K_KRO_A_401
     RDKit          3D

 34 35  0  0  0  0  0  0  0  0999 V2000
    6.9870   18.2910   14.4370 O   0  0  0  0  0  0  0  0  0  0  0  0
    6.2230   17.3020   14.4420 C   0  0  0  0  0  0  0  0  0  0  0  0
    4.9960   17.3520   14.5230 O   0  0  0  0  0  0  0  0  0  0  0  0
    6.8320   15.8810   14.4560 C   0  0  0  0  0  0  0  0  0  0  0  0
    6.2580   15.0370   15.4850 N   0  0  0  0  0  0  0  0  0  0  0  0
    6.6130   13.6940   15.5550 C   0  0  0  0  0  0  0  0  0  0  0  0
    6.1540   12.9700   16.4510 O   0  0  0  0  0  0  0  0  0  0  0  0
    7.5820   13.2480   14.6220 N   0  0  0  0  0  0  0  0  0  0  0  0
    8.1140   14.0570   13.5870 C   0  0  0  0  0  0  0  0  0  0  0  0
    8.9230   13.5270   12.7700 O   0  0  0  0  0  0  0  0  0  0  0  0
    7.6400   15.3520   13.5060 C   0  0  0  0  0  0  0  0  0  0  0  0
    8.1190   16.1990   12.4800 C   0  0  0  0  0  0  0  0  0  0  0  0
    7.5980   15.6850   11.0730 C   0  0  0  0  0  0  0  0  0  0  0  0
    6.5590   16.3470   10.7670 C   0  0  0  0  0  0  0  0  0  0  0  0
    6.8590   17.4670   10.0040 C   0  0  0  0  0  0  0  0  0  0  0  0
    5.9070   18.3520    9.6720 C   0  0  0  0  0  0  0  0  0  0  0  0
    6.2570   19.4670    8.8260 C   0  0  0  0  0  0  0  0  0  0  0  0
    4.5760   18.0770   10.0790 C   0  0  0  0  0  0  0  0  0  0  0  0
    3.6160   18.9500    9.7070 F   0  0  0  0  0  0  0  0  0  0  0  0
    4.2150   16.9610   10.8560 C   0  0  0  0  0  0  0  0  0  0  0  0
    5.2490   16.0590   11.2130 C   0  0  0  0  0  0  0  0  0  0  0  0
    4.5589   17.3698   15.4111 H   0  0  0  0  0  0  0  0  0  0  0  0
    5.5892   15.4305   16.1623 H   0  0  0  0  0  0  0  0  0  0  0  0
    7.9198   12.2781   14.7008 H   0  0  0  0  0  0  0  0  0  0  0  0
    9.2190   16.1943   12.4862 H   0  0  0  0  0  0  0  0  0  0  0  0
    7.7521   17.2216   12.6520 H   0  0  0  0  0  0  0  0  0  0  0  0
    7.3521   14.6147   11.1357 H   0  0  0  0  0  0  0  0  0  0  0  0
    8.3753   15.8238   10.3071 H   0  0  0  0  0  0  0  0  0  0  0  0
    7.8929   17.6314    9.6665 H   0  0  0  0  0  0  0  0  0  0  0  0
    6.5281   20.3306    9.4511 H   0  0  0  0  0  0  0  0  0  0  0  0
    7.1118   19.1913    8.1910 H   0  0  0  0  0  0  0  0  0  0  0  0
    5.3980   19.7293    8.1910 H   0  0  0  0  0  0  0  0  0  0  0  0
    3.1748   16.7953   11.1730 H   0  0  0  0  0  0  0  0  0  0  0  0
    5.0386   15.1643   11.8173 H   0  0  0  0  0  0  0  0  0  0  0  0
 17 16  1  0
 16 15  2  0
 16 18  1  0
 19 18  1  0
 15 14  1  0
 18 20  2  0
 14 13  1  0
 14 21  2  0
 20 21  1  0
 13 12  1  0
 12 11  1  0
 10  9  2  0
 11  9  1  0
 11  4  2  0
  9  8  1  0
  1  2  2  0
  2  4  1  0
  2  3  1  0
  4  5  1  0
  8  6  1  0
  5  6  1  0
  6  7  2  0
  3 22  1  0
  5 23  1  0
  8 24  1  0
 12 25  1  0
 12 26  1  0
 13 27  1  0
 13 28  1  0
 15 29  1  0
 17 30  1  0
 17 31  1  0
 17 32  1  0
 20 33  1  0
 21 34  1  0
A    1
OAB
A    2
CAN
A    3
OAE
A    4
CAR
A    5
NAL
A    6
CAT
A    7
OAC
A    8
NAM
A    9
CAU
A   10
OAD
A   11
CAS
A   12
CAK
A   13
CAJ
A   14
CAP
A   15
CAI
A   16
CAO
A   17
CAA
A   18
CAQ
A   19
FAF
A   20
CAH
A   21
CAG
M  END
