3W2R_W2R_A_1101
     RDKit          3D

 73 77  0  0  0  0  0  0  0  0999 V2000
    5.4560   16.1160   46.4940 C   0  0  0  0  0  0  0  0  0  0  0  0
    4.5280   16.9110   45.8490 C   0  0  0  0  0  0  0  0  0  0  0  0
    4.6750   10.7990   46.8950 C   0  0  0  0  0  0  0  0  0  0  0  0
    5.7160   14.8610   45.9700 C   0  0  0  0  0  0  0  0  0  0  0  0
    4.5450   11.9180   46.1060 C   0  0  0  0  0  0  0  0  0  0  0  0
    8.1300    5.2950   49.6710 C   0  0  0  0  0  0  0  0  0  0  0  0
    4.1270   15.2310   44.1940 C   0  0  0  0  0  0  0  0  0  0  0  0
    6.5170   10.0600   45.5680 C   0  0  0  0  0  0  0  0  0  0  0  0
    6.7800    5.0150   49.6240 C   0  0  0  0  0  0  0  0  0  0  0  0
    9.3050    8.3340   48.1570 C   0  0  0  0  0  0  0  0  0  0  0  0
    8.3420    6.5280   49.0090 C   0  0  0  0  0  0  0  0  0  0  0  0
    7.1150    6.9990   48.5740 C   0  0  0  0  0  0  0  0  0  0  0  0
    3.8620   16.4740   44.7190 C   0  0  0  0  0  0  0  0  0  0  0  0
    5.6630    9.8700   46.6410 C   0  0  0  0  0  0  0  0  0  0  0  0
    5.0560   14.4370   44.8300 C   0  0  0  0  0  0  0  0  0  0  0  0
    5.4080   12.1030   45.0460 C   0  0  0  0  0  0  0  0  0  0  0  0
    6.3930   11.1810   44.7670 C   0  0  0  0  0  0  0  0  0  0  0  0
    7.0290    8.1880   47.8800 C   0  0  0  0  0  0  0  0  0  0  0  0
    2.1950   17.1610   42.9610 C   0  0  0  0  0  0  0  0  0  0  0  0
   -0.7060   19.6670   39.2140 C   0  0  0  0  0  0  0  0  0  0  0  0
   -1.4180   19.3690   40.5060 C   0  0  0  0  0  0  0  0  0  0  0  0
    0.4580   18.6950   39.0020 C   0  0  0  0  0  0  0  0  0  0  0  0
   -0.4180   19.4270   41.6450 C   0  0  0  0  0  0  0  0  0  0  0  0
    1.4260   18.7470   40.1680 C   0  0  0  0  0  0  0  0  0  0  0  0
    0.6770   18.4010   41.4380 C   0  0  0  0  0  0  0  0  0  0  0  0
    4.7550    6.0500   48.7010 C   0  0  0  0  0  0  0  0  0  0  0  0
    3.9410    6.6060   49.8330 C   0  0  0  0  0  0  0  0  0  0  0  0
    2.3010    9.6130   49.5660 C   0  0  0  0  0  0  0  0  0  0  0  0
    3.0480    8.6650   50.4530 C   0  0  0  0  0  0  0  0  0  0  0  0
    9.4960    7.1960   48.8190 N   0  0  0  0  0  0  0  0  0  0  0  0
    8.1730    8.8550   47.6800 N   0  0  0  0  0  0  0  0  0  0  0  0
    6.1830    6.0500   48.9590 N   0  0  0  0  0  0  0  0  0  0  0  0
    5.7890    8.7040   47.4220 N   0  0  0  0  0  0  0  0  0  0  0  0
    2.9300   17.3440   44.1180 N   0  0  0  0  0  0  0  0  0  0  0  0
    1.5540   18.3230   42.5940 N   0  0  0  0  0  0  0  0  0  0  0  0
    2.0300   16.1120   42.3630 O   0  0  0  0  0  0  0  0  0  0  0  0
    1.5420    8.8190   48.6810 O   0  0  0  0  0  0  0  0  0  0  0  0
    5.3030   13.2140   44.2270 O   0  0  0  0  0  0  0  0  0  0  0  0
    4.0050    8.0080   49.6250 O   0  0  0  0  0  0  0  0  0  0  0  0
    7.4610   11.4160   43.4250 Cl  0  0  0  0  0  0  0  0  0  0  0  0
    5.9734   16.4700   47.3979 H   0  0  0  0  0  0  0  0  0  0  0  0
    4.3141   17.9152   46.2439 H   0  0  0  0  0  0  0  0  0  0  0  0
    3.9844   10.6431   47.7369 H   0  0  0  0  0  0  0  0  0  0  0  0
    6.4471   14.2011   46.4599 H   0  0  0  0  0  0  0  0  0  0  0  0
    3.7600   12.6587   46.3184 H   0  0  0  0  0  0  0  0  0  0  0  0
    8.9047    4.6705   50.1400 H   0  0  0  0  0  0  0  0  0  0  0  0
    3.6102   14.8794   43.2889 H   0  0  0  0  0  0  0  0  0  0  0  0
    7.2978    9.3161   45.3514 H   0  0  0  0  0  0  0  0  0  0  0  0
    6.2796    4.1288   50.0415 H   0  0  0  0  0  0  0  0  0  0  0  0
   10.2108    8.9316   47.9769 H   0  0  0  0  0  0  0  0  0  0  0  0
   -0.3169   20.6954   39.2448 H   0  0  0  0  0  0  0  0  0  0  0  0
   -1.4178   19.5536   38.3831 H   0  0  0  0  0  0  0  0  0  0  0  0
   -2.2094   20.1148   40.6716 H   0  0  0  0  0  0  0  0  0  0  0  0
   -1.8703   18.3674   40.4589 H   0  0  0  0  0  0  0  0  0  0  0  0
    0.0614   17.6732   38.9085 H   0  0  0  0  0  0  0  0  0  0  0  0
    0.9949   18.9842   38.0865 H   0  0  0  0  0  0  0  0  0  0  0  0
    0.0289   20.4314   41.6844 H   0  0  0  0  0  0  0  0  0  0  0  0
   -0.9387   19.2082   42.5889 H   0  0  0  0  0  0  0  0  0  0  0  0
    2.2375   18.0218   40.0078 H   0  0  0  0  0  0  0  0  0  0  0  0
    1.8582   19.7551   40.2511 H   0  0  0  0  0  0  0  0  0  0  0  0
    0.2359   17.3993   41.3280 H   0  0  0  0  0  0  0  0  0  0  0  0
    4.5635    6.6569   47.8038 H   0  0  0  0  0  0  0  0  0  0  0  0
    4.4506    5.0013   48.5688 H   0  0  0  0  0  0  0  0  0  0  0  0
    2.9022    6.2477   49.7842 H   0  0  0  0  0  0  0  0  0  0  0  0
    4.3144    6.3006   50.8216 H   0  0  0  0  0  0  0  0  0  0  0  0
    3.0060   10.2421   49.0028 H   0  0  0  0  0  0  0  0  0  0  0  0
    1.6554   10.2826   50.1533 H   0  0  0  0  0  0  0  0  0  0  0  0
    3.5562    9.2170   51.2574 H   0  0  0  0  0  0  0  0  0  0  0  0
    2.3675    7.9421   50.9267 H   0  0  0  0  0  0  0  0  0  0  0  0
    4.9297    8.1958   47.6756 H   0  0  0  0  0  0  0  0  0  0  0  0
    2.7754   18.2373   44.6069 H   0  0  0  0  0  0  0  0  0  0  0  0
    1.7019   19.1701   43.1610 H   0  0  0  0  0  0  0  0  0  0  0  0
    0.9598    8.2099   49.2008 H   0  0  0  0  0  0  0  0  0  0  0  0
 22 20  1  0
 22 24  1  0
 20 21  1  0
 24 25  1  0
 21 23  1  0
 25 23  1  0
 25 35  1  0
 36 19  2  0
 35 19  1  0
 19 34  1  0
 40 17  1  0
 34 13  1  0
  7 13  2  0
  7 15  1  0
 38 15  1  0
 38 16  1  0
 13  2  1  0
 17 16  2  0
 17  8  1  0
 15  4  2  0
 16  5  1  0
  8 14  2  0
  2  1  2  0
  4  1  1  0
  5  3  2  0
 14  3  1  0
 14 33  1  0
 33 18  1  0
 31 18  2  0
 31 10  1  0
 18 12  1  0
 10 30  2  0
 12 32  1  0
 12 11  2  0
 37 28  1  0
 26 32  1  0
 26 27  1  0
 30 11  1  0
 32  9  1  0
 11  6  1  0
 28 29  1  0
  9  6  2  0
 39 27  1  0
 39 29  1  0
  1 41  1  0
  2 42  1  0
  3 43  1  0
  4 44  1  0
  5 45  1  0
  6 46  1  0
  7 47  1  0
  8 48  1  0
  9 49  1  0
 10 50  1  0
 20 51  1  0
 20 52  1  0
 21 53  1  0
 21 54  1  0
 22 55  1  0
 22 56  1  0
 23 57  1  0
 23 58  1  0
 24 59  1  0
 24 60  1  0
 25 61  1  0
 26 62  1  0
 26 63  1  0
 27 64  1  0
 27 65  1  0
 28 66  1  0
 28 67  1  0
 29 68  1  0
 29 69  1  0
 33 70  1  0
 34 71  1  0
 35 72  1  0
 37 73  1  0
A    1
C1
A    2
C2
A    3
C3
A    4
C4
A    5
C5
A    6
C6
A    7
C7
A    8
C8
A    9
C9
A   10
C10
A   11
C11
A   12
C12
A   13
C13
A   14
C14
A   15
C15
A   16
C16
A   17
C17
A   18
C18
A   19
C19
A   20
C20
A   21
C21
A   22
C22
A   23
C23
A   24
C24
A   25
C25
A   26
C26
A   27
C27
A   28
C28
A   29
C29
A   30
N30
A   31
N31
A   32
N32
A   33
N33
A   34
N34
A   35
N35
A   36
O36
A   37
O37
A   38
O38
A   39
O39
A   40
CL1
M  END
