3W33_W19_A_1101
     RDKit          3D

 57 61  0  0  0  0  0  0  0  0999 V2000
   18.1380   29.6370    6.3460 C   0  0  0  0  0  0  0  0  0  0  0  0
   17.5280   32.8280   11.2660 C   0  0  0  0  0  0  0  0  0  0  0  0
   18.0650   30.9560    6.7410 C   0  0  0  0  0  0  0  0  0  0  0  0
   17.5790   32.4710    9.9370 C   0  0  0  0  0  0  0  0  0  0  0  0
   17.0580   28.7870    6.4820 C   0  0  0  0  0  0  0  0  0  0  0  0
   14.5340   30.9960    7.9760 C   0  0  0  0  0  0  0  0  0  0  0  0
   15.9490   34.5580   10.7240 C   0  0  0  0  0  0  0  0  0  0  0  0
   13.6320   29.9650    8.0080 C   0  0  0  0  0  0  0  0  0  0  0  0
   13.2060   33.8790   13.8920 C   0  0  0  0  0  0  0  0  0  0  0  0
   15.8170   30.6690    7.4450 C   0  0  0  0  0  0  0  0  0  0  0  0
   15.4160   34.8310   15.0410 C   0  0  0  0  0  0  0  0  0  0  0  0
   16.7100   33.8780   11.6700 C   0  0  0  0  0  0  0  0  0  0  0  0
   16.9090   31.4830    7.2940 C   0  0  0  0  0  0  0  0  0  0  0  0
   16.8110   33.1500    9.0120 C   0  0  0  0  0  0  0  0  0  0  0  0
   15.9180   29.3400    7.0420 C   0  0  0  0  0  0  0  0  0  0  0  0
   15.9940   34.1970    9.3990 C   0  0  0  0  0  0  0  0  0  0  0  0
   14.1950   34.8430   15.7160 C   0  0  0  0  0  0  0  0  0  0  0  0
   15.4230   34.3190   13.7540 C   0  0  0  0  0  0  0  0  0  0  0  0
   16.6660   35.4100   15.5710 C   0  0  0  0  0  0  0  0  0  0  0  0
   17.0560   35.4950   16.8450 C   0  0  0  0  0  0  0  0  0  0  0  0
   18.3500   36.1810   17.1170 C   0  0  0  0  0  0  0  0  0  0  0  0
   16.2420   34.9900   17.9680 C   0  0  0  0  0  0  0  0  0  0  0  0
   14.9810   35.8450   17.9060 C   0  0  0  0  0  0  0  0  0  0  0  0
   20.2410   37.0910   15.8830 C   0  0  0  0  0  0  0  0  0  0  0  0
   21.6500   36.6330   16.1700 C   0  0  0  0  0  0  0  0  0  0  0  0
   13.0870   34.3590   15.1270 N   0  0  0  0  0  0  0  0  0  0  0  0
   14.3310   33.8280   13.1710 N   0  0  0  0  0  0  0  0  0  0  0  0
   13.9540   35.3000   17.0250 N   0  0  0  0  0  0  0  0  0  0  0  0
   16.6390   34.2990   13.0000 N   0  0  0  0  0  0  0  0  0  0  0  0
   19.2900   36.0320   16.1340 N   0  0  0  0  0  0  0  0  0  0  0  0
   18.5380   36.8390   18.1370 O   0  0  0  0  0  0  0  0  0  0  0  0
   21.7000   36.2510   17.5370 O   0  0  0  0  0  0  0  0  0  0  0  0
   16.8660   32.8250    7.6660 O   0  0  0  0  0  0  0  0  0  0  0  0
   14.4040   28.5880    7.3480 S   0  0  0  0  0  0  0  0  0  0  0  0
   15.0450   35.0360    8.2210 Cl  0  0  0  0  0  0  0  0  0  0  0  0
   19.0745   29.2543    5.9142 H   0  0  0  0  0  0  0  0  0  0  0  0
   18.1328   32.2840   12.0065 H   0  0  0  0  0  0  0  0  0  0  0  0
   18.9444   31.6046    6.6142 H   0  0  0  0  0  0  0  0  0  0  0  0
   18.2306   31.6462    9.6128 H   0  0  0  0  0  0  0  0  0  0  0  0
   17.1005   27.7346    6.1648 H   0  0  0  0  0  0  0  0  0  0  0  0
   14.2860   32.0058    8.3349 H   0  0  0  0  0  0  0  0  0  0  0  0
   15.3054   35.3923   11.0399 H   0  0  0  0  0  0  0  0  0  0  0  0
   12.6009   30.0137    8.3882 H   0  0  0  0  0  0  0  0  0  0  0  0
   12.2931   33.4872   13.4195 H   0  0  0  0  0  0  0  0  0  0  0  0
   17.3614   35.8219   14.8249 H   0  0  0  0  0  0  0  0  0  0  0  0
   16.0021   33.9251   17.8321 H   0  0  0  0  0  0  0  0  0  0  0  0
   16.7589   35.0583   18.9366 H   0  0  0  0  0  0  0  0  0  0  0  0
   15.2562   36.8463   17.5431 H   0  0  0  0  0  0  0  0  0  0  0  0
   14.5571   35.8724   18.9207 H   0  0  0  0  0  0  0  0  0  0  0  0
   20.1698   37.3957   14.8285 H   0  0  0  0  0  0  0  0  0  0  0  0
   20.0060   37.9369   16.5458 H   0  0  0  0  0  0  0  0  0  0  0  0
   21.9047   35.7754   15.5300 H   0  0  0  0  0  0  0  0  0  0  0  0
   22.3706   37.4382   15.9642 H   0  0  0  0  0  0  0  0  0  0  0  0
   12.9902   35.2462   17.3842 H   0  0  0  0  0  0  0  0  0  0  0  0
   17.5056   34.6107   13.4612 H   0  0  0  0  0  0  0  0  0  0  0  0
   19.3198   35.1677   15.5745 H   0  0  0  0  0  0  0  0  0  0  0  0
   21.5950   37.0530   18.1078 H   0  0  0  0  0  0  0  0  0  0  0  0
  1  5  2  0
  1  3  1  0
  5 15  1  0
  3 13  2  0
 15 34  1  0
 15 10  2  0
 13 10  1  0
 13 33  1  0
 34  8  1  0
 10  6  1  0
 33 14  1  0
  6  8  2  0
 35 16  1  0
 14 16  2  0
 14  4  1  0
 16  7  1  0
  4  2  2  0
  7 12  2  0
  2 12  1  0
 12 29  1  0
 29 18  1  0
 27 18  1  0
 27  9  2  0
 18 11  2  0
  9 26  1  0
 11 19  1  0
 11 17  1  0
 26 17  2  0
 19 20  2  0
 17 28  1  0
 24 30  1  0
 24 25  1  0
 30 21  1  0
 25 32  1  0
 20 21  1  0
 20 22  1  0
 28 23  1  0
 21 31  2  0
 23 22  1  0
  1 36  1  0
  2 37  1  0
  3 38  1  0
  4 39  1  0
  5 40  1  0
  6 41  1  0
  7 42  1  0
  8 43  1  0
  9 44  1  0
 19 45  1  0
 22 46  1  0
 22 47  1  0
 23 48  1  0
 23 49  1  0
 24 50  1  0
 24 51  1  0
 25 52  1  0
 25 53  1  0
 28 54  1  0
 29 55  1  0
 30 56  1  0
 32 57  1  0
A    1
C1
A    2
C2
A    3
C3
A    4
C4
A    5
C5
A    6
C6
A    7
C7
A    8
C8
A    9
C9
A   10
C10
A   11
C11
A   12
C12
A   13
C13
A   14
C14
A   15
C15
A   16
C16
A   17
C17
A   18
C18
A   19
C19
A   20
C20
A   21
C21
A   22
C22
A   23
C23
A   24
C24
A   25
C25
A   26
N26
A   27
N27
A   28
N28
A   29
N29
A   30
N30
A   31
O31
A   32
O32
A   33
O33
A   34
S34
A   35
CL1
M  END
