3W3J_C09_A_1014
     RDKit          3D

 32 34  0  0  0  0  0  0  0  0999 V2000
   25.8420    2.1570   -2.8270 N   0  0  0  0  0  0  0  0  0  0  0  0
   26.4030    1.3240   -3.7340 C   0  0  0  0  0  0  0  0  0  0  0  0
   27.5280    1.8220   -4.5510 C   0  0  0  0  0  0  0  0  0  0  0  0
   28.1960    2.9820   -4.6600 N   0  0  0  0  0  0  0  0  0  0  0  0
   29.1450    2.7980   -5.6200 C   0  0  0  0  0  0  0  0  0  0  0  0
   30.1190    3.8550   -6.0260 C   0  0  0  0  0  0  0  0  0  0  0  0
   31.3960    3.2430   -5.8130 O   0  0  0  0  0  0  0  0  0  0  0  0
   31.8570    3.4510   -4.4860 C   0  0  0  0  0  0  0  0  0  0  0  0
   33.0150    2.5380   -4.1770 C   0  0  0  0  0  0  0  0  0  0  0  0
   29.1010    1.5540   -6.1600 N   0  0  0  0  0  0  0  0  0  0  0  0
   28.1280    0.9130   -5.5180 C   0  0  0  0  0  0  0  0  0  0  0  0
   27.6660   -0.3790   -5.6720 C   0  0  0  0  0  0  0  0  0  0  0  0
   28.2160   -1.2660   -6.5940 C   0  0  0  0  0  0  0  0  0  0  0  0
   27.6860   -2.5510   -6.6770 C   0  0  0  0  0  0  0  0  0  0  0  0
   26.6130   -2.9530   -5.8670 C   0  0  0  0  0  0  0  0  0  0  0  0
   26.0350   -2.0940   -4.9340 C   0  0  0  0  0  0  0  0  0  0  0  0
   26.5350   -0.8020   -4.8060 C   0  0  0  0  0  0  0  0  0  0  0  0
   25.9860    0.0460   -3.8990 N   0  0  0  0  0  0  0  0  0  0  0  0
   25.9625    1.9781   -1.8198 H   0  0  0  0  0  0  0  0  0  0  0  0
   25.2945    2.9699   -3.1438 H   0  0  0  0  0  0  0  0  0  0  0  0
   29.9856    4.1253   -7.0839 H   0  0  0  0  0  0  0  0  0  0  0  0
   29.9948    4.7887   -5.4579 H   0  0  0  0  0  0  0  0  0  0  0  0
   31.0370    3.2455   -3.7822 H   0  0  0  0  0  0  0  0  0  0  0  0
   32.1918    4.4941   -4.3866 H   0  0  0  0  0  0  0  0  0  0  0  0
   33.1298    2.4475   -3.0868 H   0  0  0  0  0  0  0  0  0  0  0  0
   32.8243    1.5447   -4.6093 H   0  0  0  0  0  0  0  0  0  0  0  0
   33.9364    2.9553   -4.6093 H   0  0  0  0  0  0  0  0  0  0  0  0
   29.6982    1.1823   -6.9124 H   0  0  0  0  0  0  0  0  0  0  0  0
   29.0501   -0.9586   -7.2419 H   0  0  0  0  0  0  0  0  0  0  0  0
   28.1176   -3.2661   -7.3927 H   0  0  0  0  0  0  0  0  0  0  0  0
   26.2172   -3.9740   -5.9713 H   0  0  0  0  0  0  0  0  0  0  0  0
   25.1961   -2.4325   -4.3082 H   0  0  0  0  0  0  0  0  0  0  0  0
 15 14  2  0
 15 16  1  0
 14 13  1  0
 16 17  2  0
 13 12  2  0
 17 12  1  0
 17 18  1  0
 12 11  1  0
 18  2  2  0
 11 10  1  0
 11  3  2  0
  2  3  1  0
  2  1  1  0
 10  5  1  0
  3  4  1  0
  5  4  2  0
  5  6  1  0
  9  8  1  0
  8  7  1  0
  7  6  1  0
  1 19  1  0
  1 20  1  0
  6 21  1  0
  6 22  1  0
  8 23  1  0
  8 24  1  0
  9 25  1  0
  9 26  1  0
  9 27  1  0
 10 28  1  0
 13 29  1  0
 14 30  1  0
 15 31  1  0
 16 32  1  0
A    1
N
A    2
C
A    3
C4
A    4
N2
A    5
C5
A    6
C6
A    7
O
A    8
C7
A    9
C8
A   10
N3
A   11
C3
A   12
C2
A   13
C9
A   14
C10
A   15
C11
A   16
C12
A   17
C1
A   18
N1
M  END
