3W3O_ROE_A_401
     RDKit          3D

 41 43  0  0  0  0  0  0  0  0999 V2000
    5.1400   17.4050   14.6360 O   0  0  0  0  0  0  0  0  0  0  0  0
    6.3990   17.2320   14.5350 C   0  0  0  0  0  0  0  0  0  0  0  0
    7.1950   18.2160   14.4720 O   0  0  0  0  0  0  0  0  0  0  0  0
    6.8710   15.8750   14.4830 C   0  0  0  0  0  0  0  0  0  0  0  0
    6.3070   15.0120   15.4850 N   0  0  0  0  0  0  0  0  0  0  0  0
    6.6320   13.6550   15.5540 C   0  0  0  0  0  0  0  0  0  0  0  0
    6.1150   12.9090   16.4040 O   0  0  0  0  0  0  0  0  0  0  0  0
    7.5080   13.1660   14.5940 N   0  0  0  0  0  0  0  0  0  0  0  0
    8.0670   13.9600   13.5340 C   0  0  0  0  0  0  0  0  0  0  0  0
    8.8630   13.4060   12.7330 O   0  0  0  0  0  0  0  0  0  0  0  0
    7.7240   15.3610   13.4870 C   0  0  0  0  0  0  0  0  0  0  0  0
    8.1950   16.1910   12.4640 C   0  0  0  0  0  0  0  0  0  0  0  0
    7.5310   15.6910   11.0670 C   0  0  0  0  0  0  0  0  0  0  0  0
    6.3070   16.5020   10.8530 C   0  0  0  0  0  0  0  0  0  0  0  0
    5.0740   16.2810   11.4870 C   0  0  0  0  0  0  0  0  0  0  0  0
    4.0270   17.1880   11.1640 C   0  0  0  0  0  0  0  0  0  0  0  0
    2.8390   17.0130   11.8000 C   0  0  0  0  0  0  0  0  0  0  0  0
    1.8120   17.8680   11.5500 C   0  0  0  0  0  0  0  0  0  0  0  0
    1.8650   18.9100   10.6510 C   0  0  0  0  0  0  0  0  0  0  0  0
    0.7490   19.6930   10.4500 O   0  0  0  0  0  0  0  0  0  0  0  0
   -0.4620   19.0110   10.6590 C   0  0  0  0  0  0  0  0  0  0  0  0
    3.0380   19.1510    9.9850 C   0  0  0  0  0  0  0  0  0  0  0  0
    4.0900   18.2600   10.2660 C   0  0  0  0  0  0  0  0  0  0  0  0
    5.2640   18.4530    9.6160 C   0  0  0  0  0  0  0  0  0  0  0  0
    6.3240   17.5740    9.9620 C   0  0  0  0  0  0  0  0  0  0  0  0
    4.7184   17.4629   15.5299 H   0  0  0  0  0  0  0  0  0  0  0  0
    5.6457   15.4046   16.1702 H   0  0  0  0  0  0  0  0  0  0  0  0
    7.7739   12.1722   14.6445 H   0  0  0  0  0  0  0  0  0  0  0  0
    9.2911   16.1223   12.4022 H   0  0  0  0  0  0  0  0  0  0  0  0
    7.9219   17.2376   12.6643 H   0  0  0  0  0  0  0  0  0  0  0  0
    7.2705   14.6243   11.1331 H   0  0  0  0  0  0  0  0  0  0  0  0
    8.2352   15.8156   10.2312 H   0  0  0  0  0  0  0  0  0  0  0  0
    4.9258   15.4520   12.1946 H   0  0  0  0  0  0  0  0  0  0  0  0
    2.7091   16.1850   12.5124 H   0  0  0  0  0  0  0  0  0  0  0  0
    0.8738   17.7171   12.1041 H   0  0  0  0  0  0  0  0  0  0  0  0
   -0.6436   18.9088   11.7391 H   0  0  0  0  0  0  0  0  0  0  0  0
   -1.2858   19.5778   10.2007 H   0  0  0  0  0  0  0  0  0  0  0  0
   -0.4044   18.0127   10.2007 H   0  0  0  0  0  0  0  0  0  0  0  0
    3.1498   19.9858    9.2775 H   0  0  0  0  0  0  0  0  0  0  0  0
    5.3883   19.2455    8.8634 H   0  0  0  0  0  0  0  0  0  0  0  0
    7.2848   17.7638    9.4612 H   0  0  0  0  0  0  0  0  0  0  0  0
 24 25  2  0
 24 23  1  0
 25 14  1  0
 22 23  1  0
 22 19  2  0
 23 16  2  0
 20 19  1  0
 20 21  1  0
 19 18  1  0
 14 13  1  0
 14 15  2  0
 13 12  1  0
 16 15  1  0
 16 17  1  0
 18 17  2  0
 12 11  1  0
 10  9  2  0
 11  9  1  0
 11  4  2  0
  9  8  1  0
  3  2  2  0
  4  2  1  0
  4  5  1  0
  2  1  1  0
  8  6  1  0
  5  6  1  0
  6  7  2  0
  1 26  1  0
  5 27  1  0
  8 28  1  0
 12 29  1  0
 12 30  1  0
 13 31  1  0
 13 32  1  0
 15 33  1  0
 17 34  1  0
 18 35  1  0
 21 36  1  0
 21 37  1  0
 21 38  1  0
 22 39  1  0
 24 40  1  0
 25 41  1  0
A    1
OAB
A    2
CAQ
A    3
OAE
A    4
CAT
A    5
NAN
A    6
CAV
A    7
OAC
A    8
NAO
A    9
CAW
A   10
OAD
A   11
CAU
A   12
CAM
A   13
CAL
A   14
CAR
A   15
CAJ
A   16
CAX
A   17
CAI
A   18
CAG
A   19
CAS
A   20
OAP
A   21
CAA
A   22
CAK
A   23
CAY
A   24
CAH
A   25
CAF
M  END
