3W4K_3LD_A_402
     RDKit          3D

 28 29  0  0  0  0  0  0  0  0999 V2000
   25.7510   65.4340   16.1420 C   0  0  0  0  0  0  0  0  0  0  0  0
   27.0540   65.3770   18.1640 C   0  0  0  0  0  0  0  0  0  0  0  0
   26.9280   65.1880   16.8070 C   0  0  0  0  0  0  0  0  0  0  0  0
   30.0640   66.9100   16.9330 C   0  0  0  0  0  0  0  0  0  0  0  0
   29.3360   66.9240   15.8220 C   0  0  0  0  0  0  0  0  0  0  0  0
   29.9650   69.3830   16.4640 C   0  0  0  0  0  0  0  0  0  0  0  0
   24.8320   66.0730   18.2920 C   0  0  0  0  0  0  0  0  0  0  0  0
   24.7230   65.8860   16.9240 C   0  0  0  0  0  0  0  0  0  0  0  0
   26.0140   65.8180   18.9410 C   0  0  0  0  0  0  0  0  0  0  0  0
   30.4380   68.2560   17.3280 C   0  0  0  0  0  0  0  0  0  0  0  0
   28.1200   64.7000   16.0690 C   0  0  0  0  0  0  0  0  0  0  0  0
   28.8340   65.6920   15.1590 C   0  0  0  0  0  0  0  0  0  0  0  0
   29.2750   69.3220   15.4050 N   0  0  0  0  0  0  0  0  0  0  0  0
   28.9660   68.0400   15.1110 N   0  0  0  0  0  0  0  0  0  0  0  0
   31.1330   68.5280   18.2940 O   0  0  0  0  0  0  0  0  0  0  0  0
   30.3520   70.5720   16.9170 O   0  0  0  0  0  0  0  0  0  0  0  0
   25.6428   65.2787   15.0584 H   0  0  0  0  0  0  0  0  0  0  0  0
   28.0223   65.1671   18.6419 H   0  0  0  0  0  0  0  0  0  0  0  0
   30.3462   65.9990   17.4812 H   0  0  0  0  0  0  0  0  0  0  0  0
   23.9626   66.4294   18.8639 H   0  0  0  0  0  0  0  0  0  0  0  0
   23.7608   66.1124   16.4414 H   0  0  0  0  0  0  0  0  0  0  0  0
   26.1213   65.9598   20.0265 H   0  0  0  0  0  0  0  0  0  0  0  0
   27.7985   63.8524   15.4459 H   0  0  0  0  0  0  0  0  0  0  0  0
   28.8545   64.4548   16.8502 H   0  0  0  0  0  0  0  0  0  0  0  0
   28.1300   65.9950   14.3699 H   0  0  0  0  0  0  0  0  0  0  0  0
   29.7249   65.1681   14.7823 H   0  0  0  0  0  0  0  0  0  0  0  0
   28.3950   67.8833   14.2682 H   0  0  0  0  0  0  0  0  0  0  0  0
   30.4057   70.7369   17.8917 H   0  0  0  0  0  0  0  0  0  0  0  0
 14 13  1  0
 14  5  1  0
 12  5  1  0
 12 11  1  0
 13  6  2  0
  5  4  2  0
 11  3  1  0
  1  3  2  0
  1  8  1  0
  6 16  1  0
  6 10  1  0
  3  2  1  0
  8  7  2  0
  4 10  1  0
 10 15  2  0
  2  9  2  0
  7  9  1  0
  1 17  1  0
  2 18  1  0
  4 19  1  0
  7 20  1  0
  8 21  1  0
  9 22  1  0
 11 23  1  0
 11 24  1  0
 12 25  1  0
 12 26  1  0
 14 27  1  0
 16 28  1  0
A    1
C4
A    2
C5
A    3
C6
A    4
C7
A    5
C8
A    6
C10
A    7
C1
A    8
C2
A    9
C3
A   10
C9
A   11
C11
A   12
C12
A   13
N13
A   14
N14
A   15
O15
A   16
O16
M  END
