3W5T_LHP_A_500
     RDKit          3D

 75 78  0  0  0  0  0  0  0  0999 V2000
   66.0260   12.8810   -5.9940 O   0  0  0  0  0  0  0  0  0  0  0  0
   64.2380   15.2100   -8.4270 C   0  0  0  0  0  0  0  0  0  0  0  0
   65.3250   14.7040   -7.3940 C   0  0  0  0  0  0  0  0  0  0  0  0
   65.0850   13.1670   -6.9550 C   0  0  0  0  0  0  0  0  0  0  0  0
   63.6070   12.9260   -6.3410 C   0  0  0  0  0  0  0  0  0  0  0  0
   62.4920   13.3930   -7.4610 C   0  0  0  0  0  0  0  0  0  0  0  0
   60.9690   13.1860   -6.8650 C   0  0  0  0  0  0  0  0  0  0  0  0
   60.7810   14.0730   -5.5290 C   0  0  0  0  0  0  0  0  0  0  0  0
   61.0330   15.6600   -5.8150 C   0  0  0  0  0  0  0  0  0  0  0  0
   62.5460   15.8960   -6.3790 C   0  0  0  0  0  0  0  0  0  0  0  0
   62.7690   15.0160   -7.8320 C   0  0  0  0  0  0  0  0  0  0  0  0
   62.7840   17.4480   -6.6420 C   0  0  0  0  0  0  0  0  0  0  0  0
   62.5890   18.3370   -5.3590 C   0  0  0  0  0  0  0  0  0  0  0  0
   61.1370   18.1000   -4.6580 C   0  0  0  0  0  0  0  0  0  0  0  0
   60.8810   16.4930   -4.5150 C   0  0  0  0  0  0  0  0  0  0  0  0
   59.4330   16.4270   -3.8220 C   0  0  0  0  0  0  0  0  0  0  0  0
   59.7670   17.3220   -2.6860 C   0  0  0  0  0  0  0  0  0  0  0  0
   60.8830   18.4080   -3.0940 C   0  0  0  0  0  0  0  0  0  0  0  0
   60.0150   18.8290   -5.6730 C   0  0  0  0  0  0  0  0  0  0  0  0
   61.8030   15.5480   -8.9270 C   0  0  0  0  0  0  0  0  0  0  0  0
   60.4350   19.9390   -2.7100 C   0  0  0  0  0  0  0  0  0  0  0  0
   61.6180   20.9820   -3.1090 C   0  0  0  0  0  0  0  0  0  0  0  0
   60.2020   19.9410   -1.2220 C   0  0  0  0  0  0  0  0  0  0  0  0
   59.7430   21.2150   -0.5330 C   0  0  0  0  0  0  0  0  0  0  0  0
   59.4990   21.0500    0.9060 C   0  0  0  0  0  0  0  0  0  0  0  0
   66.5960   11.7520   -5.7490 C   0  0  0  0  0  0  0  0  0  0  0  0
   67.8030   11.6340   -4.7800 C   0  0  0  0  0  0  0  0  0  0  0  0
   68.9550   12.1030   -3.8090 C   0  0  0  0  0  0  0  0  0  0  0  0
   58.5220   21.6690    1.3440 O   0  0  0  0  0  0  0  0  0  0  0  0
   60.2270   20.3120    1.6060 O   0  0  0  0  0  0  0  0  0  0  0  0
   66.4540   10.5820   -6.0900 O   0  0  0  0  0  0  0  0  0  0  0  0
   64.3297   14.6347   -9.3600 H   0  0  0  0  0  0  0  0  0  0  0  0
   64.4042   16.2795   -8.6234 H   0  0  0  0  0  0  0  0  0  0  0  0
   66.3193   14.7886   -7.8568 H   0  0  0  0  0  0  0  0  0  0  0  0
   65.2478   15.3279   -6.4914 H   0  0  0  0  0  0  0  0  0  0  0  0
   65.1730   12.5168   -7.8379 H   0  0  0  0  0  0  0  0  0  0  0  0
   63.4843   13.5220   -5.4246 H   0  0  0  0  0  0  0  0  0  0  0  0
   63.4705   11.8627   -6.0944 H   0  0  0  0  0  0  0  0  0  0  0  0
   62.5841   12.7811   -8.3704 H   0  0  0  0  0  0  0  0  0  0  0  0
   60.2348   13.5028   -7.6203 H   0  0  0  0  0  0  0  0  0  0  0  0
   60.8147   12.1244   -6.6216 H   0  0  0  0  0  0  0  0  0  0  0  0
   59.7563   13.9373   -5.1527 H   0  0  0  0  0  0  0  0  0  0  0  0
   61.5217   13.7371   -4.7884 H   0  0  0  0  0  0  0  0  0  0  0  0
   60.2853   15.9822   -6.5547 H   0  0  0  0  0  0  0  0  0  0  0  0
   63.2710   15.5415   -5.6315 H   0  0  0  0  0  0  0  0  0  0  0  0
   63.8119   17.5858   -7.0085 H   0  0  0  0  0  0  0  0  0  0  0  0
   62.0329   17.7712   -7.3778 H   0  0  0  0  0  0  0  0  0  0  0  0
   63.3772   18.0884   -4.6331 H   0  0  0  0  0  0  0  0  0  0  0  0
   62.6458   19.3912   -5.6679 H   0  0  0  0  0  0  0  0  0  0  0  0
   61.6632   16.0022   -3.9172 H   0  0  0  0  0  0  0  0  0  0  0  0
   58.6359   16.8321   -4.4627 H   0  0  0  0  0  0  0  0  0  0  0  0
   59.0375   15.4301   -3.5774 H   0  0  0  0  0  0  0  0  0  0  0  0
   58.8557   17.8493   -2.3674 H   0  0  0  0  0  0  0  0  0  0  0  0
   60.1703   16.7050   -1.8695 H   0  0  0  0  0  0  0  0  0  0  0  0
   61.8258   18.3292   -2.5329 H   0  0  0  0  0  0  0  0  0  0  0  0
   59.2445   19.3296   -5.0683 H   0  0  0  0  0  0  0  0  0  0  0  0
   60.5222   19.5706   -6.3077 H   0  0  0  0  0  0  0  0  0  0  0  0
   59.5435   18.0643   -6.3077 H   0  0  0  0  0  0  0  0  0  0  0  0
   60.9350   16.0260   -8.4494 H   0  0  0  0  0  0  0  0  0  0  0  0
   62.3284   16.2840   -9.5533 H   0  0  0  0  0  0  0  0  0  0  0  0
   61.4619   14.7105   -9.5533 H   0  0  0  0  0  0  0  0  0  0  0  0
   59.5308   20.2498   -3.2539 H   0  0  0  0  0  0  0  0  0  0  0  0
   62.0754   21.3853   -2.1935 H   0  0  0  0  0  0  0  0  0  0  0  0
   62.3832   20.4593   -3.7016 H   0  0  0  0  0  0  0  0  0  0  0  0
   61.1953   21.8067   -3.7016 H   0  0  0  0  0  0  0  0  0  0  0  0
   59.4391   19.1754   -1.0177 H   0  0  0  0  0  0  0  0  0  0  0  0
   61.2061   19.7725   -0.8056 H   0  0  0  0  0  0  0  0  0  0  0  0
   60.5192   21.9826   -0.6684 H   0  0  0  0  0  0  0  0  0  0  0  0
   58.7855   21.5029   -0.9917 H   0  0  0  0  0  0  0  0  0  0  0  0
   67.3186   10.9489   -4.0686 H   0  0  0  0  0  0  0  0  0  0  0  0
   68.4411   11.9605   -5.6144 H   0  0  0  0  0  0  0  0  0  0  0  0
   68.6316   11.9713   -2.7659 H   0  0  0  0  0  0  0  0  0  0  0  0
   69.8569   11.5005   -3.9921 H   0  0  0  0  0  0  0  0  0  0  0  0
   69.1796   13.1642   -3.9921 H   0  0  0  0  0  0  0  0  0  0  0  0
   60.1781   20.3615    2.5936 H   0  0  0  0  0  0  0  0  0  0  0  0
 20 11  1  0
  2 11  1  0
  2  3  1  0
 11  6  1  0
 11 10  1  0
  6  7  1  0
  6  5  1  0
  3  4  1  0
  4  5  1  0
  4  1  1  0
  7  8  1  0
 12 10  1  0
 12 13  1  0
 10  9  1  0
 31 26  2  0
  1 26  1  0
  9  8  1  0
  9 15  1  0
 26 27  1  0
 19 14  1  0
 13 14  1  0
 27 28  1  0
 14 15  1  0
 14 18  1  0
 15 16  1  0
 16 17  1  0
 22 21  1  0
 18 21  1  0
 18 17  1  0
 21 23  1  0
 23 24  1  0
 24 25  1  0
 25 29  2  0
 25 30  1  0
  2 32  1  0
  2 33  1  0
  3 34  1  0
  3 35  1  0
  4 36  1  0
  5 37  1  0
  5 38  1  0
  6 39  1  0
  7 40  1  0
  7 41  1  0
  8 42  1  0
  8 43  1  0
  9 44  1  0
 10 45  1  0
 12 46  1  0
 12 47  1  0
 13 48  1  0
 13 49  1  0
 15 50  1  0
 16 51  1  0
 16 52  1  0
 17 53  1  0
 17 54  1  0
 18 55  1  0
 19 56  1  0
 19 57  1  0
 19 58  1  0
 20 59  1  0
 20 60  1  0
 20 61  1  0
 21 62  1  0
 22 63  1  0
 22 64  1  0
 22 65  1  0
 23 66  1  0
 23 67  1  0
 24 68  1  0
 24 69  1  0
 27 70  1  0
 27 71  1  0
 28 72  1  0
 28 73  1  0
 28 74  1  0
 30 75  1  0
A    1
O3
A    2
C1
A    3
C2
A    4
C3
A    5
C4
A    6
C5
A    7
C6
A    8
C7
A    9
C8
A   10
C9
A   11
C10
A   12
C11
A   13
C12
A   14
C13
A   15
C14
A   16
C15
A   17
C16
A   18
C17
A   19
C18
A   20
C19
A   21
C20
A   22
C21
A   23
C22
A   24
C23
A   25
C24
A   26
C26
A   27
C27
A   28
C28
A   29
OT1
A   30
OT2
A   31
O25
M  END
