3W7C_W7C_A_401
     RDKit          3D

 41 43  0  0  0  0  0  0  0  0999 V2000
    7.1440   18.2540   14.4890 O   0  0  0  0  0  0  0  0  0  0  0  0
    6.4100   17.2400   14.4830 C   0  0  0  0  0  0  0  0  0  0  0  0
    5.1870   17.3520   14.5980 O   0  0  0  0  0  0  0  0  0  0  0  0
    6.9150   15.8930   14.4710 C   0  0  0  0  0  0  0  0  0  0  0  0
    6.3350   15.0660   15.4920 N   0  0  0  0  0  0  0  0  0  0  0  0
    6.7140   13.7300   15.5480 C   0  0  0  0  0  0  0  0  0  0  0  0
    6.2230   12.9900   16.3970 O   0  0  0  0  0  0  0  0  0  0  0  0
    7.5820   13.2310   14.6140 N   0  0  0  0  0  0  0  0  0  0  0  0
    8.1110   14.0140   13.5430 C   0  0  0  0  0  0  0  0  0  0  0  0
    8.8990   13.4620   12.7770 O   0  0  0  0  0  0  0  0  0  0  0  0
    7.7740   15.3540   13.4890 C   0  0  0  0  0  0  0  0  0  0  0  0
    8.2140   16.1810   12.4920 C   0  0  0  0  0  0  0  0  0  0  0  0
    7.6960   15.7290   11.0770 C   0  0  0  0  0  0  0  0  0  0  0  0
    6.4250   16.3720   10.8660 C   0  0  0  0  0  0  0  0  0  0  0  0
    6.2250   17.5860   10.2170 C   0  0  0  0  0  0  0  0  0  0  0  0
    5.2960   15.7340   11.3900 C   0  0  0  0  0  0  0  0  0  0  0  0
    4.0340   16.2620   11.2970 C   0  0  0  0  0  0  0  0  0  0  0  0
    3.8280   17.4820   10.6900 C   0  0  0  0  0  0  0  0  0  0  0  0
    4.9180   18.1210   10.0690 C   0  0  0  0  0  0  0  0  0  0  0  0
    4.6590   19.3420    9.4440 C   0  0  0  0  0  0  0  0  0  0  0  0
    3.3710   19.8810    9.4220 C   0  0  0  0  0  0  0  0  0  0  0  0
    2.2820   19.2000    9.9690 C   0  0  0  0  0  0  0  0  0  0  0  0
    2.5180   17.9890   10.6050 C   0  0  0  0  0  0  0  0  0  0  0  0
    1.5500   17.1620   11.1710 O   0  0  0  0  0  0  0  0  0  0  0  0
    0.2180   17.5730   11.1180 C   0  0  0  0  0  0  0  0  0  0  0  0
    4.7758   17.3897   15.4978 H   0  0  0  0  0  0  0  0  0  0  0  0
    5.6569   15.4523   16.1642 H   0  0  0  0  0  0  0  0  0  0  0  0
    7.8670   12.2439   14.6872 H   0  0  0  0  0  0  0  0  0  0  0  0
    9.3140   16.1750   12.4857 H   0  0  0  0  0  0  0  0  0  0  0  0
    7.8217   17.1894   12.6903 H   0  0  0  0  0  0  0  0  0  0  0  0
    7.5748   14.6360   11.0510 H   0  0  0  0  0  0  0  0  0  0  0  0
    8.4119   16.0092   10.2902 H   0  0  0  0  0  0  0  0  0  0  0  0
    7.0878   18.1370    9.8145 H   0  0  0  0  0  0  0  0  0  0  0  0
    5.4261   14.7673   11.8985 H   0  0  0  0  0  0  0  0  0  0  0  0
    3.1788   15.7072   11.7103 H   0  0  0  0  0  0  0  0  0  0  0  0
    5.4826   19.8883    8.9611 H   0  0  0  0  0  0  0  0  0  0  0  0
    3.2104   20.8672    8.9620 H   0  0  0  0  0  0  0  0  0  0  0  0
    1.2645   19.6119    9.8979 H   0  0  0  0  0  0  0  0  0  0  0  0
   -0.1698   17.6926   12.1404 H   0  0  0  0  0  0  0  0  0  0  0  0
    0.1515   18.5334   10.5859 H   0  0  0  0  0  0  0  0  0  0  0  0
   -0.3781   16.8170   10.5859 H   0  0  0  0  0  0  0  0  0  0  0  0
 21 20  2  0
 21 22  1  0
 20 19  1  0
 22 23  2  0
 19 15  2  0
 19 18  1  0
 15 14  1  0
 23 18  1  0
 23 24  1  0
 18 17  2  0
 14 13  1  0
 14 16  2  0
 13 12  1  0
 25 24  1  0
 17 16  1  0
 12 11  1  0
 10  9  2  0
 11  9  1  0
 11  4  2  0
  9  8  1  0
  4  2  1  0
  4  5  1  0
  2  1  2  0
  2  3  1  0
  8  6  1  0
  5  6  1  0
  6  7  2  0
  3 26  1  0
  5 27  1  0
  8 28  1  0
 12 29  1  0
 12 30  1  0
 13 31  1  0
 13 32  1  0
 15 33  1  0
 16 34  1  0
 17 35  1  0
 20 36  1  0
 21 37  1  0
 22 38  1  0
 25 39  1  0
 25 40  1  0
 25 41  1  0
A    1
OAB
A    2
CAQ
A    3
OAE
A    4
CAT
A    5
NAN
A    6
CAV
A    7
OAC
A    8
NAO
A    9
CAW
A   10
OAD
A   11
CAU
A   12
CAM
A   13
CAL
A   14
CAR
A   15
CAK
A   16
CAH
A   17
CAJ
A   18
CAY
A   19
CAX
A   20
CAI
A   21
CAF
A   22
CAG
A   23
CAS
A   24
OAP
A   25
CAA
M  END
