3W7E_W7F_A_401
     RDKit          3D

 41 43  0  0  0  0  0  0  0  0999 V2000
    4.9880   17.2940   14.5380 O   0  0  0  0  0  0  0  0  0  0  0  0
    6.2080   17.2750   14.4540 C   0  0  0  0  0  0  0  0  0  0  0  0
    6.9630   18.2420   14.5840 O   0  0  0  0  0  0  0  0  0  0  0  0
    6.7830   15.8780   14.4580 C   0  0  0  0  0  0  0  0  0  0  0  0
    6.3890   15.0860   15.5820 N   0  0  0  0  0  0  0  0  0  0  0  0
    6.7950   13.7570   15.6780 C   0  0  0  0  0  0  0  0  0  0  0  0
    6.3890   13.0270   16.5700 O   0  0  0  0  0  0  0  0  0  0  0  0
    7.6740   13.2970   14.7050 N   0  0  0  0  0  0  0  0  0  0  0  0
    8.1460   14.1060   13.6370 C   0  0  0  0  0  0  0  0  0  0  0  0
    8.9540   13.5940   12.8360 O   0  0  0  0  0  0  0  0  0  0  0  0
    7.6000   15.4240   13.5100 C   0  0  0  0  0  0  0  0  0  0  0  0
    7.9650   16.1990   12.3670 C   0  0  0  0  0  0  0  0  0  0  0  0
    7.3130   15.6350   11.0280 C   0  0  0  0  0  0  0  0  0  0  0  0
    7.4750   16.7380   10.0070 C   0  0  0  0  0  0  0  0  0  0  0  0
    6.4540   17.7630    9.8630 C   0  0  0  0  0  0  0  0  0  0  0  0
    5.2740   17.6700   10.5680 C   0  0  0  0  0  0  0  0  0  0  0  0
    4.3130   18.6590   10.4160 C   0  0  0  0  0  0  0  0  0  0  0  0
    3.1270   18.6150   11.1790 O   0  0  0  0  0  0  0  0  0  0  0  0
    2.7560   17.6250   12.2080 C   0  0  0  0  0  0  0  0  0  0  0  0
    4.6180   19.6630    9.4880 C   0  0  0  0  0  0  0  0  0  0  0  0
    5.7340   19.7790    8.7760 C   0  0  0  0  0  0  0  0  0  0  0  0
    6.7180   18.8080    8.9350 C   0  0  0  0  0  0  0  0  0  0  0  0
    7.9140   18.8640    8.1770 C   0  0  0  0  0  0  0  0  0  0  0  0
    8.9180   17.8910    8.2590 C   0  0  0  0  0  0  0  0  0  0  0  0
    8.6520   16.8580    9.2310 C   0  0  0  0  0  0  0  0  0  0  0  0
    7.2103   18.5588   15.4888 H   0  0  0  0  0  0  0  0  0  0  0  0
    5.8038   15.4993   16.3220 H   0  0  0  0  0  0  0  0  0  0  0  0
    7.9993   12.3213   14.7609 H   0  0  0  0  0  0  0  0  0  0  0  0
    9.0599   16.1830   12.2625 H   0  0  0  0  0  0  0  0  0  0  0  0
    7.5937   17.2231   12.5194 H   0  0  0  0  0  0  0  0  0  0  0  0
    6.2479   15.4086   11.1843 H   0  0  0  0  0  0  0  0  0  0  0  0
    7.7934   14.7011   10.7009 H   0  0  0  0  0  0  0  0  0  0  0  0
    5.0957   16.8208   11.2441 H   0  0  0  0  0  0  0  0  0  0  0  0
    2.9176   18.0563   13.2069 H   0  0  0  0  0  0  0  0  0  0  0  0
    1.6958   17.3555   12.0921 H   0  0  0  0  0  0  0  0  0  0  0  0
    3.3779   16.7251   12.0921 H   0  0  0  0  0  0  0  0  0  0  0  0
    3.8526   20.4375    9.3321 H   0  0  0  0  0  0  0  0  0  0  0  0
    5.8760   20.6192    8.0803 H   0  0  0  0  0  0  0  0  0  0  0  0
    8.0608   19.7119    7.4917 H   0  0  0  0  0  0  0  0  0  0  0  0
    9.8264   17.9122    7.6391 H   0  0  0  0  0  0  0  0  0  0  0  0
    9.4324   16.0976    9.3817 H   0  0  0  0  0  0  0  0  0  0  0  0
 23 24  2  0
 23 22  1  0
 24 25  1  0
 21 22  2  0
 21 20  1  0
 22 15  1  0
 25 14  2  0
 20 17  2  0
 15 14  1  0
 15 16  2  0
 14 13  1  0
 17 16  1  0
 17 18  1  0
 13 12  1  0
 18 19  1  0
 12 11  1  0
 10  9  2  0
 11  9  1  0
 11  4  2  0
  9  8  1  0
  2  4  1  0
  2  1  2  0
  2  3  1  0
  4  5  1  0
  8  6  1  0
  5  6  1  0
  6  7  2  0
  3 26  1  0
  5 27  1  0
  8 28  1  0
 12 29  1  0
 12 30  1  0
 13 31  1  0
 13 32  1  0
 16 33  1  0
 19 34  1  0
 19 35  1  0
 19 36  1  0
 20 37  1  0
 21 38  1  0
 23 39  1  0
 24 40  1  0
 25 41  1  0
A    1
OAB
A    2
CAQ
A    3
OAE
A    4
CAT
A    5
NAN
A    6
CAV
A    7
OAC
A    8
NAO
A    9
CAW
A   10
OAD
A   11
CAU
A   12
CAM
A   13
CAL
A   14
CAS
A   15
CAY
A   16
CAK
A   17
CAR
A   18
OAP
A   19
CAA
A   20
CAH
A   21
CAJ
A   22
CAX
A   23
CAI
A   24
CAF
A   25
CAG
M  END
