3W7H_W7H_A_401
     RDKit          3D

 37 39  0  0  0  0  0  0  0  0999 V2000
    5.1310   17.3880   14.6530 O   0  0  0  0  0  0  0  0  0  0  0  0
    6.3590   17.2910   14.5280 C   0  0  0  0  0  0  0  0  0  0  0  0
    7.1240   18.2500   14.4520 O   0  0  0  0  0  0  0  0  0  0  0  0
    6.9010   15.8930   14.4790 C   0  0  0  0  0  0  0  0  0  0  0  0
    6.3230   15.0530   15.4690 N   0  0  0  0  0  0  0  0  0  0  0  0
    6.6850   13.7380   15.5810 C   0  0  0  0  0  0  0  0  0  0  0  0
    6.1360   13.0230   16.4170 O   0  0  0  0  0  0  0  0  0  0  0  0
    7.5870   13.2810   14.6520 N   0  0  0  0  0  0  0  0  0  0  0  0
    8.0920   14.0190   13.5630 C   0  0  0  0  0  0  0  0  0  0  0  0
    8.9330   13.5260   12.7880 O   0  0  0  0  0  0  0  0  0  0  0  0
    7.7550   15.4080   13.5460 C   0  0  0  0  0  0  0  0  0  0  0  0
    8.2440   16.1990   12.4990 C   0  0  0  0  0  0  0  0  0  0  0  0
    7.5430   15.7970   11.1010 C   0  0  0  0  0  0  0  0  0  0  0  0
    6.2640   16.4310   11.0080 C   0  0  0  0  0  0  0  0  0  0  0  0
    6.0710   17.5990   10.2630 C   0  0  0  0  0  0  0  0  0  0  0  0
    4.7630   18.2110   10.2470 C   0  0  0  0  0  0  0  0  0  0  0  0
    4.5430   19.3870    9.5240 C   0  0  0  0  0  0  0  0  0  0  0  0
    3.2940   19.9870    9.5450 C   0  0  0  0  0  0  0  0  0  0  0  0
    2.1990   19.4490   10.2210 C   0  0  0  0  0  0  0  0  0  0  0  0
    2.3770   18.2500   10.9050 C   0  0  0  0  0  0  0  0  0  0  0  0
    3.6800   17.6660   10.9380 C   0  0  0  0  0  0  0  0  0  0  0  0
    3.8890   16.4880   11.6400 C   0  0  0  0  0  0  0  0  0  0  0  0
    5.1510   15.8750   11.6650 C   0  0  0  0  0  0  0  0  0  0  0  0
    4.7263   17.4200   15.5560 H   0  0  0  0  0  0  0  0  0  0  0  0
    5.6193   15.4407   16.1135 H   0  0  0  0  0  0  0  0  0  0  0  0
    7.9241   12.3138   14.7607 H   0  0  0  0  0  0  0  0  0  0  0  0
    9.3307   16.0518   12.4130 H   0  0  0  0  0  0  0  0  0  0  0  0
    8.0165   17.2528   12.7173 H   0  0  0  0  0  0  0  0  0  0  0  0
    7.4151   14.7054   11.0558 H   0  0  0  0  0  0  0  0  0  0  0  0
    8.1771   16.1274   10.2651 H   0  0  0  0  0  0  0  0  0  0  0  0
    6.9029   18.0446    9.6979 H   0  0  0  0  0  0  0  0  0  0  0  0
    5.3599   19.8353    8.9394 H   0  0  0  0  0  0  0  0  0  0  0  0
    3.1596   20.9341    9.0019 H   0  0  0  0  0  0  0  0  0  0  0  0
    1.2235   19.9573   10.2137 H   0  0  0  0  0  0  0  0  0  0  0  0
    1.5307   17.7617   11.4103 H   0  0  0  0  0  0  0  0  0  0  0  0
    3.0524   16.0272   12.1856 H   0  0  0  0  0  0  0  0  0  0  0  0
    5.2739   14.9305   12.2153 H   0  0  0  0  0  0  0  0  0  0  0  0
 17 18  2  0
 17 16  1  0
 18 19  1  0
 19 20  2  0
 16 15  2  0
 16 21  1  0
 15 14  1  0
 20 21  1  0
 21 22  2  0
 14 13  1  0
 14 23  2  0
 13 12  1  0
 22 23  1  0
 12 11  1  0
 10  9  2  0
 11  9  1  0
 11  4  2  0
  9  8  1  0
  3  2  2  0
  4  2  1  0
  4  5  1  0
  2  1  1  0
  8  6  1  0
  5  6  1  0
  6  7  2  0
  1 24  1  0
  5 25  1  0
  8 26  1  0
 12 27  1  0
 12 28  1  0
 13 29  1  0
 13 30  1  0
 15 31  1  0
 17 32  1  0
 18 33  1  0
 19 34  1  0
 20 35  1  0
 22 36  1  0
 23 37  1  0
A    1
OAA
A    2
CAP
A    3
OAD
A    4
CAS
A    5
NAN
A    6
CAT
A    7
OAB
A    8
NAO
A    9
CAU
A   10
OAC
A   11
CAR
A   12
CAM
A   13
CAL
A   14
CAQ
A   15
CAK
A   16
CAW
A   17
CAI
A   18
CAF
A   19
CAE
A   20
CAH
A   21
CAV
A   22
CAJ
A   23
CAG
M  END
