3W7I_W7I_A_401
     RDKit          3D

 41 43  0  0  0  0  0  0  0  0999 V2000
    5.1350   17.4050   14.5180 O   0  0  0  0  0  0  0  0  0  0  0  0
    6.3590   17.2900   14.4570 C   0  0  0  0  0  0  0  0  0  0  0  0
    7.1810   18.2770   14.4710 O   0  0  0  0  0  0  0  0  0  0  0  0
    6.8540   15.8870   14.4360 C   0  0  0  0  0  0  0  0  0  0  0  0
    6.3210   15.0710   15.4720 N   0  0  0  0  0  0  0  0  0  0  0  0
    6.6580   13.7470   15.5550 C   0  0  0  0  0  0  0  0  0  0  0  0
    6.1410   13.0270   16.4060 O   0  0  0  0  0  0  0  0  0  0  0  0
    7.5350   13.3020   14.6530 N   0  0  0  0  0  0  0  0  0  0  0  0
    8.1090   14.0420   13.5850 C   0  0  0  0  0  0  0  0  0  0  0  0
    8.9140   13.5310   12.7990 O   0  0  0  0  0  0  0  0  0  0  0  0
    7.7160   15.3840   13.5000 C   0  0  0  0  0  0  0  0  0  0  0  0
    8.2000   16.1930   12.4460 C   0  0  0  0  0  0  0  0  0  0  0  0
    7.6530   15.7470   11.0020 C   0  0  0  0  0  0  0  0  0  0  0  0
    6.2700   16.0480   10.9050 C   0  0  0  0  0  0  0  0  0  0  0  0
    5.8550   17.3430   10.5410 C   0  0  0  0  0  0  0  0  0  0  0  0
    4.4900   17.6700   10.5560 C   0  0  0  0  0  0  0  0  0  0  0  0
    4.0750   18.9350   10.1690 C   0  0  0  0  0  0  0  0  0  0  0  0
    2.6870   19.2870   10.2130 C   0  0  0  0  0  0  0  0  0  0  0  0
    1.6960   18.3800   10.6300 C   0  0  0  0  0  0  0  0  0  0  0  0
    2.1090   17.0850   11.0140 C   0  0  0  0  0  0  0  0  0  0  0  0
    3.5250   16.7650   10.9780 C   0  0  0  0  0  0  0  0  0  0  0  0
    3.9070   15.4940   11.3590 C   0  0  0  0  0  0  0  0  0  0  0  0
    5.2770   15.1610   11.3700 C   0  0  0  0  0  0  0  0  0  0  0  0
    5.6040   13.8920   11.6860 O   0  0  0  0  0  0  0  0  0  0  0  0
    4.8290   13.0010   10.7310 C   0  0  0  0  0  0  0  0  0  0  0  0
    4.6851   17.4473   15.3988 H   0  0  0  0  0  0  0  0  0  0  0  0
    5.6770   15.4792   16.1645 H   0  0  0  0  0  0  0  0  0  0  0  0
    7.8265   12.3180   14.7405 H   0  0  0  0  0  0  0  0  0  0  0  0
    9.2984   16.1348   12.4369 H   0  0  0  0  0  0  0  0  0  0  0  0
    7.8416   17.2167   12.6291 H   0  0  0  0  0  0  0  0  0  0  0  0
    7.8025   14.6650   10.8717 H   0  0  0  0  0  0  0  0  0  0  0  0
    8.2017   16.2906   10.2188 H   0  0  0  0  0  0  0  0  0  0  0  0
    6.5991   18.0973   10.2453 H   0  0  0  0  0  0  0  0  0  0  0  0
    4.8157   19.6725    9.8262 H   0  0  0  0  0  0  0  0  0  0  0  0
    2.3860   20.3009    9.9105 H   0  0  0  0  0  0  0  0  0  0  0  0
    0.6351   18.6695   10.6562 H   0  0  0  0  0  0  0  0  0  0  0  0
    1.3723   16.3335   11.3341 H   0  0  0  0  0  0  0  0  0  0  0  0
    3.1512   14.7498   11.6506 H   0  0  0  0  0  0  0  0  0  0  0  0
    4.2139   12.2938   11.3068 H   0  0  0  0  0  0  0  0  0  0  0  0
    4.1782   13.6213   10.0972 H   0  0  0  0  0  0  0  0  0  0  0  0
    5.5335   12.4425   10.0972 H   0  0  0  0  0  0  0  0  0  0  0  0
 17 18  2  0
 17 16  1  0
 18 19  1  0
 15 16  2  0
 15 14  1  0
 16 21  1  0
 13 14  1  0
 13 12  1  0
 19 20  2  0
 14 23  2  0
 21 20  1  0
 21 22  2  0
 23 22  1  0
 23 24  1  0
 24 25  1  0
 12 11  1  0
 10  9  2  0
 11  9  1  0
 11  4  2  0
  9  8  1  0
  4  2  1  0
  4  5  1  0
  3  2  2  0
  2  1  1  0
  8  6  1  0
  5  6  1  0
  6  7  2  0
  1 26  1  0
  5 27  1  0
  8 28  1  0
 12 29  1  0
 12 30  1  0
 13 31  1  0
 13 32  1  0
 15 33  1  0
 17 34  1  0
 18 35  1  0
 19 36  1  0
 20 37  1  0
 22 38  1  0
 25 39  1  0
 25 40  1  0
 25 41  1  0
A    1
OAB
A    2
CAQ
A    3
OAE
A    4
CAT
A    5
NAN
A    6
CAV
A    7
OAC
A    8
NAO
A    9
CAW
A   10
OAD
A   11
CAU
A   12
CAM
A   13
CAL
A   14
CAR
A   15
CAJ
A   16
CAX
A   17
CAH
A   18
CAF
A   19
CAG
A   20
CAI
A   21
CAY
A   22
CAK
A   23
CAS
A   24
OAP
A   25
CAA
M  END
