3W7J_W7J_A_401
     RDKit          3D

 40 42  0  0  0  0  0  0  0  0999 V2000
   -4.9340   17.3200  -14.5870 O   0  0  0  0  0  0  0  0  0  0  0  0
   -6.1480   17.2400  -14.4990 C   0  0  0  0  0  0  0  0  0  0  0  0
   -6.9160   18.2200  -14.3880 O   0  0  0  0  0  0  0  0  0  0  0  0
   -6.7000   15.8650  -14.4800 C   0  0  0  0  0  0  0  0  0  0  0  0
   -6.2240   15.0400  -15.5140 N   0  0  0  0  0  0  0  0  0  0  0  0
   -6.6230   13.7210  -15.6130 C   0  0  0  0  0  0  0  0  0  0  0  0
   -6.1230   12.9520  -16.4540 O   0  0  0  0  0  0  0  0  0  0  0  0
   -7.4760   13.2850  -14.6950 N   0  0  0  0  0  0  0  0  0  0  0  0
   -8.0670   14.0690  -13.6690 C   0  0  0  0  0  0  0  0  0  0  0  0
   -8.8430   13.5510  -12.8680 O   0  0  0  0  0  0  0  0  0  0  0  0
   -7.6480   15.4030  -13.5970 C   0  0  0  0  0  0  0  0  0  0  0  0
   -8.1560   16.1750  -12.4970 C   0  0  0  0  0  0  0  0  0  0  0  0
   -7.5110   15.8780  -11.0190 C   0  0  0  0  0  0  0  0  0  0  0  0
   -6.2730   16.6160  -10.7970 C   0  0  0  0  0  0  0  0  0  0  0  0
   -6.1560   17.7500   -9.9610 C   0  0  0  0  0  0  0  0  0  0  0  0
   -4.8530   18.3600   -9.9030 C   0  0  0  0  0  0  0  0  0  0  0  0
   -4.6470   19.5430   -9.2530 C   0  0  0  0  0  0  0  0  0  0  0  0
   -3.3570   20.0900   -9.2150 C   0  0  0  0  0  0  0  0  0  0  0  0
   -2.2610   19.5530   -9.9100 C   0  0  0  0  0  0  0  0  0  0  0  0
   -0.9290   20.1270   -9.8450 C   0  0  0  0  0  0  0  0  0  0  0  0
   -0.7890   21.0030   -8.9390 O   0  0  0  0  0  0  0  0  0  0  0  0
    0.0000   19.8900  -10.7120 O   0  0  0  0  0  0  0  0  0  0  0  0
   -2.4500   18.4470  -10.5970 C   0  0  0  0  0  0  0  0  0  0  0  0
   -3.7650   17.8990  -10.6370 C   0  0  0  0  0  0  0  0  0  0  0  0
   -3.8450   16.7780  -11.3230 C   0  0  0  0  0  0  0  0  0  0  0  0
   -5.1090   16.1900  -11.4330 C   0  0  0  0  0  0  0  0  0  0  0  0
   -7.1732   18.5482  -13.4901 H   0  0  0  0  0  0  0  0  0  0  0  0
   -5.5677   15.4248  -16.2084 H   0  0  0  0  0  0  0  0  0  0  0  0
   -7.7326   12.2881  -14.7297 H   0  0  0  0  0  0  0  0  0  0  0  0
   -7.9819   17.2363  -12.7279 H   0  0  0  0  0  0  0  0  0  0  0  0
   -9.2141   15.8871  -12.4102 H   0  0  0  0  0  0  0  0  0  0  0  0
   -8.2403   16.1709  -10.2494 H   0  0  0  0  0  0  0  0  0  0  0  0
   -7.2775   14.8045  -10.9633 H   0  0  0  0  0  0  0  0  0  0  0  0
   -7.0095   18.1429   -9.3890 H   0  0  0  0  0  0  0  0  0  0  0  0
   -5.4849   20.0615   -8.7641 H   0  0  0  0  0  0  0  0  0  0  0  0
   -3.1937   20.9914   -8.6060 H   0  0  0  0  0  0  0  0  0  0  0  0
   -0.8310   20.7401   -7.9855 H   0  0  0  0  0  0  0  0  0  0  0  0
   -1.6173   17.9595  -11.1251 H   0  0  0  0  0  0  0  0  0  0  0  0
   -2.9576   16.3245  -11.7886 H   0  0  0  0  0  0  0  0  0  0  0  0
   -5.1921   15.3070  -12.0837 H   0  0  0  0  0  0  0  0  0  0  0  0
  7  6  2  0
  6  5  1  0
  6  8  1  0
  5  4  1  0
  8  9  1  0
  1  2  2  0
  2  4  1  0
  2  3  1  0
  4 11  2  0
  9 11  1  0
  9 10  2  0
 11 12  1  0
 12 13  1  0
 26 25  2  0
 26 14  1  0
 25 24  1  0
 13 14  1  0
 14 15  2  0
 22 20  2  0
 24 23  1  0
 24 16  2  0
 23 19  2  0
 15 16  1  0
 19 20  1  0
 19 18  1  0
 16 17  1  0
 20 21  1  0
 17 18  2  0
  3 27  1  0
  5 28  1  0
  8 29  1  0
 12 30  1  0
 12 31  1  0
 13 32  1  0
 13 33  1  0
 15 34  1  0
 17 35  1  0
 18 36  1  0
 21 37  1  0
 23 38  1  0
 25 39  1  0
 26 40  1  0
A    1
OAJ
A    2
CAI
A    3
OAK
A    4
C4
A    5
N3
A    6
C2
A    7
O2
A    8
N1
A    9
C6
A   10
O6
A   11
C5
A   12
CAL
A   13
CAM
A   14
CAN
A   15
CAO
A   16
CAP
A   17
CAT
A   18
CAU
A   19
CAV
A   20
CAX
A   21
OAZ
A   22
OAY
A   23
CAW
A   24
CAQ
A   25
CAR
A   26
CAS
M  END
