3W7L_W7L_A_401
     RDKit          3D

 41 43  0  0  0  0  0  0  0  0999 V2000
    6.6070   18.1080   14.1650 O   0  0  0  0  0  0  0  0  0  0  0  0
    5.9690   17.0720   14.2580 C   0  0  0  0  0  0  0  0  0  0  0  0
    4.7590   17.0810   14.3230 O   0  0  0  0  0  0  0  0  0  0  0  0
    6.6350   15.7640   14.3100 C   0  0  0  0  0  0  0  0  0  0  0  0
    6.2170   14.9650   15.3490 N   0  0  0  0  0  0  0  0  0  0  0  0
    6.7260   13.6470   15.5420 C   0  0  0  0  0  0  0  0  0  0  0  0
    6.3180   12.8980   16.4350 O   0  0  0  0  0  0  0  0  0  0  0  0
    7.5910   13.2030   14.6000 N   0  0  0  0  0  0  0  0  0  0  0  0
    7.9980   13.9980   13.4810 C   0  0  0  0  0  0  0  0  0  0  0  0
    8.8070   13.4680   12.6910 O   0  0  0  0  0  0  0  0  0  0  0  0
    7.4920   15.3270   13.3470 C   0  0  0  0  0  0  0  0  0  0  0  0
    7.7750   16.1500   12.2260 C   0  0  0  0  0  0  0  0  0  0  0  0
    7.2050   15.5030   10.9200 C   0  0  0  0  0  0  0  0  0  0  0  0
    5.8120   15.6630   10.8110 C   0  0  0  0  0  0  0  0  0  0  0  0
    4.8920   14.6340   11.2380 C   0  0  0  0  0  0  0  0  0  0  0  0
    3.4870   14.7770   11.2250 C   0  0  0  0  0  0  0  0  0  0  0  0
    2.9490   16.0090   10.8010 C   0  0  0  0  0  0  0  0  0  0  0  0
    3.8130   17.0470   10.3640 C   0  0  0  0  0  0  0  0  0  0  0  0
    3.2520   18.2600    9.9610 C   0  0  0  0  0  0  0  0  0  0  0  0
    5.2140   16.9240   10.3840 C   0  0  0  0  0  0  0  0  0  0  0  0
    6.0000   17.9960    9.9340 C   0  0  0  0  0  0  0  0  0  0  0  0
    5.4190   19.1910    9.4370 C   0  0  0  0  0  0  0  0  0  0  0  0
    4.0670   19.3110    9.4930 C   0  0  0  0  0  0  0  0  0  0  0  0
    3.5120   20.5300    9.0690 O   0  0  0  0  0  0  0  0  0  0  0  0
    2.1320   20.7440    9.3450 C   0  0  0  0  0  0  0  0  0  0  0  0
    4.3107   17.0843   15.2057 H   0  0  0  0  0  0  0  0  0  0  0  0
    5.5146   15.3301   16.0079 H   0  0  0  0  0  0  0  0  0  0  0  0
    7.9733   12.2510   14.6924 H   0  0  0  0  0  0  0  0  0  0  0  0
    8.8643   16.2671   12.1275 H   0  0  0  0  0  0  0  0  0  0  0  0
    7.3025   17.1322   12.3746 H   0  0  0  0  0  0  0  0  0  0  0  0
    7.4385   14.4281   10.9263 H   0  0  0  0  0  0  0  0  0  0  0  0
    7.6708   16.0093   10.0617 H   0  0  0  0  0  0  0  0  0  0  0  0
    5.3112   13.6817   11.5948 H   0  0  0  0  0  0  0  0  0  0  0  0
    2.8313   13.9507   11.5368 H   0  0  0  0  0  0  0  0  0  0  0  0
    1.8603   16.1659   10.8088 H   0  0  0  0  0  0  0  0  0  0  0  0
    2.1617   18.3975   10.0091 H   0  0  0  0  0  0  0  0  0  0  0  0
    7.0959   17.9073    9.9675 H   0  0  0  0  0  0  0  0  0  0  0  0
    6.0433   19.9947    9.0196 H   0  0  0  0  0  0  0  0  0  0  0  0
    1.9752   20.7683   10.4335 H   0  0  0  0  0  0  0  0  0  0  0  0
    1.8148   21.7021    8.9074 H   0  0  0  0  0  0  0  0  0  0  0  0
    1.5396   19.9270    8.9074 H   0  0  0  0  0  0  0  0  0  0  0  0
 25 24  1  0
 17 16  1  0
 17 18  2  0
 16 15  2  0
 19 18  1  0
 19 23  2  0
 18 20  1  0
 24 23  1  0
 15 14  1  0
 23 22  1  0
 20 14  2  0
 20 21  1  0
 14 13  1  0
 22 21  2  0
 13 12  1  0
 12 11  1  0
 10  9  2  0
 11  9  1  0
 11  4  2  0
  9  8  1  0
  4  2  1  0
  4  5  1  0
  2  1  2  0
  2  3  1  0
  8  6  1  0
  5  6  1  0
  6  7  2  0
  3 26  1  0
  5 27  1  0
  8 28  1  0
 12 29  1  0
 12 30  1  0
 13 31  1  0
 13 32  1  0
 15 33  1  0
 16 34  1  0
 17 35  1  0
 19 36  1  0
 21 37  1  0
 22 38  1  0
 25 39  1  0
 25 40  1  0
 25 41  1  0
A    1
OAB
A    2
CAQ
A    3
OAE
A    4
CAT
A    5
NAN
A    6
CAV
A    7
OAC
A    8
NAO
A    9
CAW
A   10
OAD
A   11
CAU
A   12
CAM
A   13
CAL
A   14
CAS
A   15
CAG
A   16
CAF
A   17
CAI
A   18
CAX
A   19
CAK
A   20
CAY
A   21
CAJ
A   22
CAH
A   23
CAR
A   24
OAP
A   25
CAA
M  END
