3W7M_W7M_A_401
     RDKit          3D

 43 45  0  0  0  0  0  0  0  0999 V2000
   27.1310   18.2810  -14.4390 O   0  0  0  0  0  0  0  0  0  0  0  0
   27.9450   17.2990  -14.4180 C   0  0  0  0  0  0  0  0  0  0  0  0
   29.1940   17.4610  -14.4650 O   0  0  0  0  0  0  0  0  0  0  0  0
   27.4710   15.9860  -14.4360 C   0  0  0  0  0  0  0  0  0  0  0  0
   27.9980   15.1930  -15.4560 N   0  0  0  0  0  0  0  0  0  0  0  0
   27.6280   13.8720  -15.5730 C   0  0  0  0  0  0  0  0  0  0  0  0
   28.0970   13.1690  -16.4740 O   0  0  0  0  0  0  0  0  0  0  0  0
   26.7350   13.3660  -14.6810 N   0  0  0  0  0  0  0  0  0  0  0  0
   26.1930   14.1390  -13.6470 C   0  0  0  0  0  0  0  0  0  0  0  0
   25.3670   13.6100  -12.8730 O   0  0  0  0  0  0  0  0  0  0  0  0
   26.5670   15.4710  -13.5200 C   0  0  0  0  0  0  0  0  0  0  0  0
   26.0340   16.2030  -12.4580 C   0  0  0  0  0  0  0  0  0  0  0  0
   26.8400   15.7840  -11.1390 C   0  0  0  0  0  0  0  0  0  0  0  0
   28.0690   16.4810  -10.9620 C   0  0  0  0  0  0  0  0  0  0  0  0
   28.1640   17.6540  -10.1860 C   0  0  0  0  0  0  0  0  0  0  0  0
   29.2370   15.9810  -11.5470 C   0  0  0  0  0  0  0  0  0  0  0  0
   30.4650   16.6450  -11.3970 C   0  0  0  0  0  0  0  0  0  0  0  0
   30.5660   17.8180  -10.6490 C   0  0  0  0  0  0  0  0  0  0  0  0
   31.7980   18.4680  -10.5280 C   0  0  0  0  0  0  0  0  0  0  0  0
   29.4110   18.3260  -10.0250 C   0  0  0  0  0  0  0  0  0  0  0  0
   29.5240   19.5130   -9.2840 C   0  0  0  0  0  0  0  0  0  0  0  0
   30.7720   20.1440   -9.1660 C   0  0  0  0  0  0  0  0  0  0  0  0
   31.9450   19.6540   -9.7750 C   0  0  0  0  0  0  0  0  0  0  0  0
   33.1880   20.3630   -9.5910 C   0  0  0  0  0  0  0  0  0  0  0  0
   33.2250   21.4630   -9.0480 O   0  0  0  0  0  0  0  0  0  0  0  0
   34.3760   19.7900   -9.9410 O   0  0  0  0  0  0  0  0  0  0  0  0
   34.5710   19.4130  -11.2900 C   0  0  0  0  0  0  0  0  0  0  0  0
   26.8061   18.6729  -13.5899 H   0  0  0  0  0  0  0  0  0  0  0  0
   28.6678   15.5983  -16.1254 H   0  0  0  0  0  0  0  0  0  0  0  0
   26.4476   12.3808  -14.7690 H   0  0  0  0  0  0  0  0  0  0  0  0
   26.1534   17.2802  -12.6459 H   0  0  0  0  0  0  0  0  0  0  0  0
   24.9603   15.9943  -12.3411 H   0  0  0  0  0  0  0  0  0  0  0  0
   26.2011   15.9833  -10.2660 H   0  0  0  0  0  0  0  0  0  0  0  0
   27.0924   14.7188  -11.2468 H   0  0  0  0  0  0  0  0  0  0  0  0
   27.2639   18.0562   -9.6981 H   0  0  0  0  0  0  0  0  0  0  0  0
   29.1927   15.0520  -12.1344 H   0  0  0  0  0  0  0  0  0  0  0  0
   31.3640   16.2325  -11.8783 H   0  0  0  0  0  0  0  0  0  0  0  0
   32.6779   18.0436  -11.0337 H   0  0  0  0  0  0  0  0  0  0  0  0
   28.6378   19.9468   -8.7978 H   0  0  0  0  0  0  0  0  0  0  0  0
   30.8380   21.0657   -8.5693 H   0  0  0  0  0  0  0  0  0  0  0  0
   35.0761   18.4366  -11.3285 H   0  0  0  0  0  0  0  0  0  0  0  0
   33.5966   19.3420  -11.7954 H   0  0  0  0  0  0  0  0  0  0  0  0
   35.1921   20.1672  -11.7954 H   0  0  0  0  0  0  0  0  0  0  0  0
  7  6  2  0
  6  5  1  0
  6  8  1  0
  5  4  1  0
  8  9  1  0
  3  2  2  0
  1  2  1  0
  4  2  1  0
  4 11  2  0
  9 11  1  0
  9 10  2  0
 11 12  1  0
 12 13  1  0
 16 17  2  0
 16 14  1  0
 17 18  1  0
 27 26  1  0
 13 14  1  0
 14 15  2  0
 18 19  1  0
 18 20  2  0
 19 23  2  0
 15 20  1  0
 20 21  1  0
 26 24  1  0
 23 24  1  0
 23 22  1  0
 24 25  2  0
 21 22  2  0
  1 28  1  0
  5 29  1  0
  8 30  1  0
 12 31  1  0
 12 32  1  0
 13 33  1  0
 13 34  1  0
 15 35  1  0
 16 36  1  0
 17 37  1  0
 19 38  1  0
 21 39  1  0
 22 40  1  0
 27 41  1  0
 27 42  1  0
 27 43  1  0
A    1
OAB
A    2
CAR
A    3
OAF
A    4
CAV
A    5
NAO
A    6
CAX
A    7
OAD
A    8
NAP
A    9
CAY
A   10
OAE
A   11
CAW
A   12
CAN
A   13
CAM
A   14
CAT
A   15
CAK
A   16
CAG
A   17
CAI
A   18
CBA
A   19
CAL
A   20
CAZ
A   21
CAJ
A   22
CAH
A   23
CAU
A   24
CAS
A   25
OAC
A   26
OAQ
A   27
CAA
M  END
