3W7N_W7N_A_401
     RDKit          3D

 48 50  0  0  0  0  0  0  0  0999 V2000
    6.9600   18.5460   14.6310 O   0  0  0  0  0  0  0  0  0  0  0  0
    6.1320   17.5890   14.5390 C   0  0  0  0  0  0  0  0  0  0  0  0
    4.8890   17.8330   14.4950 O   0  0  0  0  0  0  0  0  0  0  0  0
    6.5400   16.2260   14.5270 C   0  0  0  0  0  0  0  0  0  0  0  0
    5.9630   15.3640   15.5000 N   0  0  0  0  0  0  0  0  0  0  0  0
    6.2760   13.9960   15.5480 C   0  0  0  0  0  0  0  0  0  0  0  0
    5.7770   13.2400   16.3760 O   0  0  0  0  0  0  0  0  0  0  0  0
    7.1540   13.4950   14.6600 N   0  0  0  0  0  0  0  0  0  0  0  0
    7.7400   14.3040   13.6640 C   0  0  0  0  0  0  0  0  0  0  0  0
    8.5690   13.7730   12.8890 O   0  0  0  0  0  0  0  0  0  0  0  0
    7.4400   15.6770   13.6060 C   0  0  0  0  0  0  0  0  0  0  0  0
    8.0380   16.4760   12.5950 C   0  0  0  0  0  0  0  0  0  0  0  0
    7.4970   16.0470   11.1740 C   0  0  0  0  0  0  0  0  0  0  0  0
    6.2540   16.6060   11.0110 C   0  0  0  0  0  0  0  0  0  0  0  0
    6.1420   17.7470   10.2200 C   0  0  0  0  0  0  0  0  0  0  0  0
    5.1300   16.0660   11.6540 C   0  0  0  0  0  0  0  0  0  0  0  0
    3.8770   16.6510   11.5210 C   0  0  0  0  0  0  0  0  0  0  0  0
    3.7740   17.7790   10.7170 C   0  0  0  0  0  0  0  0  0  0  0  0
    2.5280   18.3540   10.5920 C   0  0  0  0  0  0  0  0  0  0  0  0
    4.8960   18.3490   10.0640 C   0  0  0  0  0  0  0  0  0  0  0  0
    4.7940   19.4940    9.2610 C   0  0  0  0  0  0  0  0  0  0  0  0
    3.5170   20.0650    9.1460 C   0  0  0  0  0  0  0  0  0  0  0  0
    2.3970   19.4970    9.8030 C   0  0  0  0  0  0  0  0  0  0  0  0
    1.1240   20.0660    9.6970 C   0  0  0  0  0  0  0  0  0  0  0  0
    0.8920   20.9050    8.8190 O   0  0  0  0  0  0  0  0  0  0  0  0
    0.2430   19.6940   10.6740 N   0  0  0  0  0  0  0  0  0  0  0  0
   -1.1470   20.1850   10.7410 C   0  0  0  0  0  0  0  0  0  0  0  0
   -1.7290   20.5520    9.3410 C   0  0  0  0  0  0  0  0  0  0  0  0
   -2.0300   19.3840    8.5390 O   0  0  0  0  0  0  0  0  0  0  0  0
    7.2423   18.8723   15.5220 H   0  0  0  0  0  0  0  0  0  0  0  0
    5.2998   15.7524   16.1857 H   0  0  0  0  0  0  0  0  0  0  0  0
    7.4042   12.4970   14.7086 H   0  0  0  0  0  0  0  0  0  0  0  0
    9.1295   16.3430   12.6242 H   0  0  0  0  0  0  0  0  0  0  0  0
    7.7849   17.5315   12.7733 H   0  0  0  0  0  0  0  0  0  0  0  0
    7.4246   14.9509   11.1166 H   0  0  0  0  0  0  0  0  0  0  0  0
    8.1796   16.3918   10.3833 H   0  0  0  0  0  0  0  0  0  0  0  0
    7.0287   18.1682    9.7236 H   0  0  0  0  0  0  0  0  0  0  0  0
    5.2428   15.1643   12.2738 H   0  0  0  0  0  0  0  0  0  0  0  0
    2.9973   16.2355   12.0344 H   0  0  0  0  0  0  0  0  0  0  0  0
    1.6555   17.9211   11.1033 H   0  0  0  0  0  0  0  0  0  0  0  0
    5.6682   19.9219    8.7485 H   0  0  0  0  0  0  0  0  0  0  0  0
    3.3830   20.9698    8.5349 H   0  0  0  0  0  0  0  0  0  0  0  0
    0.5656   19.0381   11.3997 H   0  0  0  0  0  0  0  0  0  0  0  0
   -1.1723   21.0817   11.3777 H   0  0  0  0  0  0  0  0  0  0  0  0
   -1.7645   19.3732   11.1528 H   0  0  0  0  0  0  0  0  0  0  0  0
   -0.9927   21.1679    8.8039 H   0  0  0  0  0  0  0  0  0  0  0  0
   -2.6712   21.0958    9.5041 H   0  0  0  0  0  0  0  0  0  0  0  0
   -2.2275   18.6174    9.1335 H   0  0  0  0  0  0  0  0  0  0  0  0
 29 28  1  0
 25 24  2  0
 22 21  2  0
 22 23  1  0
 21 20  1  0
 28 27  1  0
 24 23  1  0
 24 26  1  0
 23 19  2  0
 20 15  2  0
 20 18  1  0
 15 14  1  0
 19 18  1  0
 26 27  1  0
 18 17  2  0
 14 13  1  0
 14 16  2  0
 13 12  1  0
 17 16  1  0
 12 11  1  0
 10  9  2  0
 11  9  1  0
 11  4  2  0
  9  8  1  0
  3  2  2  0
  4  2  1  0
  4  5  1  0
  2  1  1  0
  8  6  1  0
  5  6  1  0
  6  7  2  0
  1 30  1  0
  5 31  1  0
  8 32  1  0
 12 33  1  0
 12 34  1  0
 13 35  1  0
 13 36  1  0
 15 37  1  0
 16 38  1  0
 17 39  1  0
 19 40  1  0
 21 41  1  0
 22 42  1  0
 26 43  1  0
 27 44  1  0
 27 45  1  0
 28 46  1  0
 28 47  1  0
 29 48  1  0
A    1
OAA
A    2
CAT
A    3
OAF
A    4
CAY
A    5
NAR
A    6
CAZ
A    7
OAC
A    8
NAS
A    9
CBA
A   10
OAD
A   11
CAX
A   12
CAP
A   13
CAO
A   14
CAV
A   15
CAK
A   16
CAG
A   17
CAI
A   18
CBC
A   19
CAL
A   20
CBB
A   21
CAJ
A   22
CAH
A   23
CAW
A   24
CAU
A   25
OAB
A   26
NAQ
A   27
CAN
A   28
CAM
A   29
OAE
M  END
