3W7O_W7O_A_401
     RDKit          3D

 34 35  0  0  0  0  0  0  0  0999 V2000
    3.9910   19.0980   10.1160 O   0  0  0  0  0  0  0  0  0  0  0  0
    3.4110   18.0040   10.3910 C   0  0  0  0  0  0  0  0  0  0  0  0
    2.1410   17.8580   10.2130 O   0  0  0  0  0  0  0  0  0  0  0  0
    4.1380   16.8670   10.6960 C   0  0  0  0  0  0  0  0  0  0  0  0
    5.5670   16.9360   10.7320 C   0  0  0  0  0  0  0  0  0  0  0  0
    3.4190   15.7140   10.9670 C   0  0  0  0  0  0  0  0  0  0  0  0
    4.0500   14.5300   11.2750 C   0  0  0  0  0  0  0  0  0  0  0  0
    5.4760   14.5630   11.3080 C   0  0  0  0  0  0  0  0  0  0  0  0
    6.2160   15.7460   11.0180 C   0  0  0  0  0  0  0  0  0  0  0  0
    7.5760   15.7470   11.1250 C   0  0  0  0  0  0  0  0  0  0  0  0
    8.1460   16.2040   12.5130 C   0  0  0  0  0  0  0  0  0  0  0  0
    7.6940   15.3720   13.5900 C   0  0  0  0  0  0  0  0  0  0  0  0
    8.1160   14.0180   13.6700 C   0  0  0  0  0  0  0  0  0  0  0  0
    8.9360   13.5530   12.8710 O   0  0  0  0  0  0  0  0  0  0  0  0
    7.6150   13.2450   14.7160 N   0  0  0  0  0  0  0  0  0  0  0  0
    6.6400   13.7020   15.6120 C   0  0  0  0  0  0  0  0  0  0  0  0
    6.1790   12.9730   16.4990 O   0  0  0  0  0  0  0  0  0  0  0  0
    6.2910   15.0460   15.4750 N   0  0  0  0  0  0  0  0  0  0  0  0
    6.8020   15.8610   14.4960 C   0  0  0  0  0  0  0  0  0  0  0  0
    6.1910   17.2360   14.4780 C   0  0  0  0  0  0  0  0  0  0  0  0
    4.9350   17.1950   14.5070 O   0  0  0  0  0  0  0  0  0  0  0  0
    6.8900   18.2470   14.4400 O   0  0  0  0  0  0  0  0  0  0  0  0
    1.5365   17.7885   10.9939 H   0  0  0  0  0  0  0  0  0  0  0  0
    6.1138   17.8720   10.5450 H   0  0  0  0  0  0  0  0  0  0  0  0
    2.3199   15.7455   10.9353 H   0  0  0  0  0  0  0  0  0  0  0  0
    3.4859   13.6091   11.4842 H   0  0  0  0  0  0  0  0  0  0  0  0
    6.0229   13.6441   11.5660 H   0  0  0  0  0  0  0  0  0  0  0  0
    7.9313   14.7237   10.9335 H   0  0  0  0  0  0  0  0  0  0  0  0
    7.9349   16.4864   10.3940 H   0  0  0  0  0  0  0  0  0  0  0  0
    9.2446   16.1654   12.4738 H   0  0  0  0  0  0  0  0  0  0  0  0
    7.7853   17.2255   12.7040 H   0  0  0  0  0  0  0  0  0  0  0  0
    7.9801   12.2894   14.8363 H   0  0  0  0  0  0  0  0  0  0  0  0
    5.6161   15.4466   16.1420 H   0  0  0  0  0  0  0  0  0  0  0  0
    4.4602   17.1795   15.3756 H   0  0  0  0  0  0  0  0  0  0  0  0
  1  2  2  0
  3  2  1  0
  2  4  1  0
  4  5  2  0
  4  6  1  0
  5  9  1  0
  6  7  2  0
  9 10  1  0
  9  8  2  0
 10 11  1  0
  7  8  1  0
 11 12  1  0
 14 13  2  0
 12 13  1  0
 12 19  2  0
 13 15  1  0
 22 20  2  0
 20 19  1  0
 20 21  1  0
 19 18  1  0
 15 16  1  0
 18 16  1  0
 16 17  2  0
  3 23  1  0
  5 24  1  0
  6 25  1  0
  7 26  1  0
  8 27  1  0
 10 28  1  0
 10 29  1  0
 11 30  1  0
 11 31  1  0
 15 32  1  0
 18 33  1  0
 21 34  1  0
A    1
OAA
A    2
CAO
A    3
OAE
A    4
CAR
A    5
CAJ
A    6
CAI
A    7
CAG
A    8
CAH
A    9
CAQ
A   10
CAK
A   11
CAL
A   12
CAS
A   13
CAV
A   14
OAD
A   15
NAN
A   16
CAU
A   17
OAC
A   18
NAM
A   19
CAT
A   20
CAP
A   21
OAF
A   22
OAB
M  END
