3W86_W86_A_401
     RDKit          3D

 43 44  0  0  0  0  0  0  0  0999 V2000
    4.1950  -14.9970  -14.5580 O   0  0  0  0  0  0  0  0  0  0  0  0
    5.4540  -14.8550  -14.5000 C   0  0  0  0  0  0  0  0  0  0  0  0
    6.2260  -15.8200  -14.3950 O   0  0  0  0  0  0  0  0  0  0  0  0
    6.0060  -13.5320  -14.4230 C   0  0  0  0  0  0  0  0  0  0  0  0
    5.4500  -12.6450  -15.3580 N   0  0  0  0  0  0  0  0  0  0  0  0
    5.7500  -11.3380  -15.3570 C   0  0  0  0  0  0  0  0  0  0  0  0
    5.3100  -10.5430  -16.2340 O   0  0  0  0  0  0  0  0  0  0  0  0
    6.6080  -10.8460  -14.3930 N   0  0  0  0  0  0  0  0  0  0  0  0
    7.1880  -11.6600  -13.4320 C   0  0  0  0  0  0  0  0  0  0  0  0
    7.9120  -11.1430  -12.5820 O   0  0  0  0  0  0  0  0  0  0  0  0
    6.8270  -13.0550  -13.4330 C   0  0  0  0  0  0  0  0  0  0  0  0
    7.4120  -13.9260  -12.3570 C   0  0  0  0  0  0  0  0  0  0  0  0
    6.6290  -13.7400  -11.0130 C   0  0  0  0  0  0  0  0  0  0  0  0
    5.2360  -14.3640  -11.1390 C   0  0  0  0  0  0  0  0  0  0  0  0
    4.5410  -14.6230   -9.7250 C   0  0  0  0  0  0  0  0  0  0  0  0
    3.4440  -15.4720   -9.8320 C   0  0  0  0  0  0  0  0  0  0  0  0
    3.3810  -16.6890   -9.1170 C   0  0  0  0  0  0  0  0  0  0  0  0
    2.2800  -17.5100   -9.2250 C   0  0  0  0  0  0  0  0  0  0  0  0
    2.4000  -15.1040  -10.5970 C   0  0  0  0  0  0  0  0  0  0  0  0
    1.2760  -15.9200  -10.7120 C   0  0  0  0  0  0  0  0  0  0  0  0
    1.1860  -17.1460  -10.0400 C   0  0  0  0  0  0  0  0  0  0  0  0
    0.0760  -18.0110  -10.1440 C   0  0  0  0  0  0  0  0  0  0  0  0
    0.1620  -19.0890   -9.5350 O   0  0  0  0  0  0  0  0  0  0  0  0
   -0.9650  -17.7420  -11.0740 O   0  0  0  0  0  0  0  0  0  0  0  0
   -1.4990  -16.4720  -11.2990 C   0  0  0  0  0  0  0  0  0  0  0  0
    6.4888  -16.1485  -13.4988 H   0  0  0  0  0  0  0  0  0  0  0  0
    4.7937  -13.0079  -16.0641 H   0  0  0  0  0  0  0  0  0  0  0  0
    6.8246   -9.8390  -14.3878 H   0  0  0  0  0  0  0  0  0  0  0  0
    7.3491  -14.9788  -12.6697 H   0  0  0  0  0  0  0  0  0  0  0  0
    8.4621  -13.6388  -12.1992 H   0  0  0  0  0  0  0  0  0  0  0  0
    7.1787  -14.2333  -10.1978 H   0  0  0  0  0  0  0  0  0  0  0  0
    6.5299  -12.6667  -10.7937 H   0  0  0  0  0  0  0  0  0  0  0  0
    4.5987  -13.6847  -11.7241 H   0  0  0  0  0  0  0  0  0  0  0  0
    5.3549  -15.3401  -11.6321 H   0  0  0  0  0  0  0  0  0  0  0  0
    5.2769  -15.0773   -9.0453 H   0  0  0  0  0  0  0  0  0  0  0  0
    4.1864  -13.6562   -9.3381 H   0  0  0  0  0  0  0  0  0  0  0  0
    4.2189  -16.9837   -8.4681 H   0  0  0  0  0  0  0  0  0  0  0  0
    2.2529  -18.4595   -8.6702 H   0  0  0  0  0  0  0  0  0  0  0  0
    2.4341  -14.1471  -11.1384 H   0  0  0  0  0  0  0  0  0  0  0  0
    0.4387  -15.5933  -11.3462 H   0  0  0  0  0  0  0  0  0  0  0  0
   -1.7041  -15.9843  -10.3346 H   0  0  0  0  0  0  0  0  0  0  0  0
   -0.7789  -15.8673  -11.8699 H   0  0  0  0  0  0  0  0  0  0  0  0
   -2.4348  -16.5636  -11.8699 H   0  0  0  0  0  0  0  0  0  0  0  0
  7  6  2  0
  6  5  1  0
  6  8  1  0
  5  4  1  0
  8  9  1  0
  4  2  1  0
  4 11  2  0
  1  2  2  0
  3  2  1  0
  9 11  1  0
  9 10  2  0
 11 12  1  0
 12 13  1  0
 13 14  1  0
 14 15  1  0
 25 24  1  0
 18 17  2  0
 18 21  1  0
 17 16  1  0
 24 22  1  0
 22 21  1  0
 22 23  2  0
 21 20  2  0
 16 15  1  0
 16 19  2  0
 20 19  1  0
  3 26  1  0
  5 27  1  0
  8 28  1  0
 12 29  1  0
 12 30  1  0
 13 31  1  0
 13 32  1  0
 14 33  1  0
 14 34  1  0
 15 35  1  0
 15 36  1  0
 17 37  1  0
 18 38  1  0
 19 39  1  0
 20 40  1  0
 25 41  1  0
 25 42  1  0
 25 43  1  0
A    1
OAB
A    2
CAR
A    3
OAF
A    4
CAV
A    5
NAO
A    6
CAX
A    7
OAD
A    8
NAP
A    9
CAY
A   10
OAE
A   11
CAW
A   12
CAN
A   13
CAL
A   14
CAK
A   15
CAM
A   16
CAT
A   17
CAH
A   18
CAJ
A   19
CAG
A   20
CAI
A   21
CAU
A   22
CAS
A   23
OAC
A   24
OAQ
A   25
CAA
M  END
