3W88_W88_A_401
     RDKit          3D

 46 48  0  0  0  0  0  0  0  0999 V2000
    4.2370  -14.9680  -14.5490 O   0  0  0  0  0  0  0  0  0  0  0  0
    5.4800  -14.8580  -14.4010 C   0  0  0  0  0  0  0  0  0  0  0  0
    6.2860  -15.8040  -14.3650 O   0  0  0  0  0  0  0  0  0  0  0  0
    6.0060  -13.4950  -14.3830 C   0  0  0  0  0  0  0  0  0  0  0  0
    5.4250  -12.6090  -15.3190 N   0  0  0  0  0  0  0  0  0  0  0  0
    5.8210  -11.2810  -15.3290 C   0  0  0  0  0  0  0  0  0  0  0  0
    5.3240  -10.5230  -16.1920 O   0  0  0  0  0  0  0  0  0  0  0  0
    6.6130  -10.8200  -14.3450 N   0  0  0  0  0  0  0  0  0  0  0  0
    7.2300  -11.6570  -13.3860 C   0  0  0  0  0  0  0  0  0  0  0  0
    7.9820  -11.1160  -12.5580 O   0  0  0  0  0  0  0  0  0  0  0  0
    6.8520  -13.0200  -13.4020 C   0  0  0  0  0  0  0  0  0  0  0  0
    7.4600  -13.9070  -12.3350 C   0  0  0  0  0  0  0  0  0  0  0  0
    6.8150  -13.6130  -10.9420 C   0  0  0  0  0  0  0  0  0  0  0  0
    5.4160  -13.9840  -10.8960 C   0  0  0  0  0  0  0  0  0  0  0  0
    4.9130  -14.2820   -9.3930 C   0  0  0  0  0  0  0  0  0  0  0  0
    3.8410  -15.2210   -9.3850 C   0  0  0  0  0  0  0  0  0  0  0  0
    2.7610  -14.9680  -10.2370 C   0  0  0  0  0  0  0  0  0  0  0  0
    1.6310  -15.8060  -10.2930 C   0  0  0  0  0  0  0  0  0  0  0  0
    0.5540  -15.4940  -11.1870 C   0  0  0  0  0  0  0  0  0  0  0  0
   -0.5830  -16.3410  -11.2620 C   0  0  0  0  0  0  0  0  0  0  0  0
   -0.6070  -17.4950  -10.4450 C   0  0  0  0  0  0  0  0  0  0  0  0
   -1.7440  -18.3400  -10.5020 C   0  0  0  0  0  0  0  0  0  0  0  0
   -1.8140  -19.3850   -9.7780 O   0  0  0  0  0  0  0  0  0  0  0  0
   -2.7330  -18.0330  -11.2420 O   0  0  0  0  0  0  0  0  0  0  0  0
    0.4850  -17.8000   -9.5540 C   0  0  0  0  0  0  0  0  0  0  0  0
    1.6290  -16.9660   -9.4700 C   0  0  0  0  0  0  0  0  0  0  0  0
    2.7310  -17.2300   -8.5820 C   0  0  0  0  0  0  0  0  0  0  0  0
    3.8360  -16.3450   -8.5340 C   0  0  0  0  0  0  0  0  0  0  0  0
    6.5908  -16.1617  -13.4937 H   0  0  0  0  0  0  0  0  0  0  0  0
    4.7159  -12.9465  -15.9855 H   0  0  0  0  0  0  0  0  0  0  0  0
    6.7790   -9.8051  -14.2865 H   0  0  0  0  0  0  0  0  0  0  0  0
    7.2862  -14.9607  -12.5987 H   0  0  0  0  0  0  0  0  0  0  0  0
    8.5392  -13.7024  -12.2764 H   0  0  0  0  0  0  0  0  0  0  0  0
    7.3577  -14.1827  -10.1733 H   0  0  0  0  0  0  0  0  0  0  0  0
    6.8826  -12.5301  -10.7612 H   0  0  0  0  0  0  0  0  0  0  0  0
    4.8174  -13.1607  -11.3130 H   0  0  0  0  0  0  0  0  0  0  0  0
    5.2922  -14.9065  -11.4823 H   0  0  0  0  0  0  0  0  0  0  0  0
    5.7510  -14.6892   -8.8083 H   0  0  0  0  0  0  0  0  0  0  0  0
    4.5543  -13.3400   -8.9525 H   0  0  0  0  0  0  0  0  0  0  0  0
    2.7958  -14.0815  -10.8874 H   0  0  0  0  0  0  0  0  0  0  0  0
    0.6090  -14.5943  -11.8175 H   0  0  0  0  0  0  0  0  0  0  0  0
   -1.4204  -16.1065  -11.9356 H   0  0  0  0  0  0  0  0  0  0  0  0
   -1.8086  -19.3048   -8.7913 H   0  0  0  0  0  0  0  0  0  0  0  0
    0.4294  -18.7006   -8.9248 H   0  0  0  0  0  0  0  0  0  0  0  0
    2.7149  -18.1220   -7.9386 H   0  0  0  0  0  0  0  0  0  0  0  0
    4.6739  -16.5311   -7.8461 H   0  0  0  0  0  0  0  0  0  0  0  0
  7  6  2  0
  6  5  1  0
  6  8  1  0
  5  4  1  0
  8  9  1  0
  1  2  2  0
  3  2  1  0
  4  2  1  0
  4 11  2  0
  9 11  1  0
  9 10  2  0
 11 12  1  0
 12 13  1  0
 13 14  1  0
 14 15  1  0
 28 27  2  0
 28 16  1  0
 27 26  1  0
 15 16  1  0
 16 17  2  0
 26 25  1  0
 26 18  2  0
 25 21  2  0
 17 18  1  0
 18 19  1  0
 24 22  2  0
 21 22  1  0
 21 20  1  0
 22 23  1  0
 19 20  2  0
  3 29  1  0
  5 30  1  0
  8 31  1  0
 12 32  1  0
 12 33  1  0
 13 34  1  0
 13 35  1  0
 14 36  1  0
 14 37  1  0
 15 38  1  0
 15 39  1  0
 17 40  1  0
 19 41  1  0
 20 42  1  0
 23 43  1  0
 25 44  1  0
 27 45  1  0
 28 46  1  0
A    1
OAB
A    2
CAT
A    3
OAF
A    4
CAX
A    5
NAQ
A    6
CAY
A    7
OAC
A    8
NAR
A    9
CAZ
A   10
OAD
A   11
CAW
A   12
CAP
A   13
CAN
A   14
CAM
A   15
CAO
A   16
CAU
A   17
CAK
A   18
CBA
A   19
CAJ
A   20
CAH
A   21
CAV
A   22
CAS
A   23
OAE
A   24
OAA
A   25
CAL
A   26
CBB
A   27
CAI
A   28
CAG
M  END
