3WAW_DWW_A_937
     RDKit          3D

 40 42  0  0  0  0  0  0  0  0999 V2000
   19.9710   40.3730   19.8830 C   0  0  0  0  0  0  0  0  0  0  0  0
   19.4810   40.3840   18.6120 C   0  0  0  0  0  0  0  0  0  0  0  0
   18.1580   39.9420   18.2970 N   0  0  0  0  0  0  0  0  0  0  0  0
   17.7170   40.0860   16.7560 C   0  0  0  0  0  0  0  0  0  0  0  0
   17.4020   39.3810   16.4460 C   0  0  0  0  0  0  0  0  0  0  0  0
   16.9650   39.3530   19.2140 C   0  0  0  0  0  0  0  0  0  0  0  0
   16.5140   38.7210   18.8830 C   0  0  0  0  0  0  0  0  0  0  0  0
   16.1620   38.8370   17.3110 N   0  0  0  0  0  0  0  0  0  0  0  0
   14.8190   38.3730   17.0310 C   0  0  0  0  0  0  0  0  0  0  0  0
   14.1340   38.2060   15.4910 S   0  0  0  0  0  0  0  0  0  0  0  0
   13.8980   37.9610   17.9460 N   0  0  0  0  0  0  0  0  0  0  0  0
   12.6990   37.5390   17.4030 C   0  0  0  0  0  0  0  0  0  0  0  0
   11.6260   37.0750   18.1290 O   0  0  0  0  0  0  0  0  0  0  0  0
   12.6370   37.6030   16.0090 C   0  0  0  0  0  0  0  0  0  0  0  0
   11.4170   37.1950   15.2490 C   0  0  0  0  0  0  0  0  0  0  0  0
   11.4620   37.1850   13.7560 C   0  0  0  0  0  0  0  0  0  0  0  0
   11.0400   36.0190   13.1460 C   0  0  0  0  0  0  0  0  0  0  0  0
   11.0160   35.9110   11.7690 C   0  0  0  0  0  0  0  0  0  0  0  0
   10.4950   34.4230   11.0520 Cl  0  0  0  0  0  0  0  0  0  0  0  0
   11.4140   36.9880   10.9810 C   0  0  0  0  0  0  0  0  0  0  0  0
   11.3780   36.8250    9.2530 Cl  0  0  0  0  0  0  0  0  0  0  0  0
   11.8280   38.1740   11.5900 C   0  0  0  0  0  0  0  0  0  0  0  0
   11.8450   38.2810   12.9810 C   0  0  0  0  0  0  0  0  0  0  0  0
   19.1355   40.3918   20.5982 H   0  0  0  0  0  0  0  0  0  0  0  0
   20.5664   39.4613   20.0385 H   0  0  0  0  0  0  0  0  0  0  0  0
   20.6067   41.2571   20.0385 H   0  0  0  0  0  0  0  0  0  0  0  0
   19.5451   41.4270   18.2684 H   0  0  0  0  0  0  0  0  0  0  0  0
   20.0987   39.6155   18.1244 H   0  0  0  0  0  0  0  0  0  0  0  0
   16.9550   40.8757   16.6800 H   0  0  0  0  0  0  0  0  0  0  0  0
   18.6169   40.3331   16.1737 H   0  0  0  0  0  0  0  0  0  0  0  0
   17.0610   39.5680   15.4170 H   0  0  0  0  0  0  0  0  0  0  0  0
   18.1932   38.6173   16.4736 H   0  0  0  0  0  0  0  0  0  0  0  0
   17.4116   38.9902   20.1515 H   0  0  0  0  0  0  0  0  0  0  0  0
   16.2552   40.1840   19.3390 H   0  0  0  0  0  0  0  0  0  0  0  0
   17.0823   37.7909   19.0310 H   0  0  0  0  0  0  0  0  0  0  0  0
   15.5449   38.7500   19.4025 H   0  0  0  0  0  0  0  0  0  0  0  0
   10.4988   36.9061   15.7814 H   0  0  0  0  0  0  0  0  0  0  0  0
   10.7196   35.1672   13.7639 H   0  0  0  0  0  0  0  0  0  0  0  0
   12.1420   39.0273   10.9709 H   0  0  0  0  0  0  0  0  0  0  0  0
   12.1571   39.2197   13.4622 H   0  0  0  0  0  0  0  0  0  0  0  0
  1  2  1  0
  2  3  1  0
  3  4  1  0
  3  6  1  0
  4  5  1  0
  5  8  1  0
  6  7  1  0
  7  8  1  0
  8  9  1  0
  9 10  1  0
  9 11  2  0
 10 14  1  0
 11 12  1  0
 12 13  2  0
 12 14  1  0
 14 15  2  0
 15 16  1  0
 16 17  2  0
 16 23  1  0
 17 18  1  0
 18 20  2  0
 20 22  1  0
 22 23  2  0
 18 19  1  0
 20 21  1  0
  1 24  1  0
  1 25  1  0
  1 26  1  0
  2 27  1  0
  2 28  1  0
  4 29  1  0
  4 30  1  0
  5 31  1  0
  5 32  1  0
  6 33  1  0
  6 34  1  0
  7 35  1  0
  7 36  1  0
 15 37  1  0
 17 38  1  0
 22 39  1  0
 23 40  1  0
A    1
CBB
A    2
CAV
A    3
NAS
A    4
CAT
A    5
CAU
A    6
CAR
A    7
CAQ
A    8
NAP
A    9
CAJ
A   10
SAI
A   11
NAK
A   12
CAL
A   13
OAO
A   14
CAH
A   15
CAG
A   16
CAF
A   17
CAA
A   18
CAB
A   19
CLN
A   20
CAC
A   21
CLM
A   22
CAD
A   23
CAE
M  END
