3WAY_DWY_A_931
     RDKit          3D

 51 54  0  0  0  0  0  0  0  0999 V2000
   11.8990   38.0700   12.7480 C   0  0  0  0  0  0  0  0  0  0  0  0
   11.7590   38.0040   11.3610 C   0  0  0  0  0  0  0  0  0  0  0  0
   12.2060   39.3670   10.3800 Cl  0  0  0  0  0  0  0  0  0  0  0  0
   11.2640   36.8400   10.7630 C   0  0  0  0  0  0  0  0  0  0  0  0
   11.1440   36.7160    8.9710 Cl  0  0  0  0  0  0  0  0  0  0  0  0
   10.8840   35.7640   11.5580 C   0  0  0  0  0  0  0  0  0  0  0  0
   10.9760   35.8550   12.9480 C   0  0  0  0  0  0  0  0  0  0  0  0
   11.4020   37.0460   13.5380 C   0  0  0  0  0  0  0  0  0  0  0  0
   11.5350   36.9110   14.9480 C   0  0  0  0  0  0  0  0  0  0  0  0
   12.4130   37.5260   15.7520 C   0  0  0  0  0  0  0  0  0  0  0  0
   14.0140   38.1650   15.3190 S   0  0  0  0  0  0  0  0  0  0  0  0
   12.4080   37.4440   17.1130 C   0  0  0  0  0  0  0  0  0  0  0  0
   11.4520   37.0290   17.7690 O   0  0  0  0  0  0  0  0  0  0  0  0
   13.4560   37.9870   17.7630 N   0  0  0  0  0  0  0  0  0  0  0  0
   14.4080   38.4490   16.9310 C   0  0  0  0  0  0  0  0  0  0  0  0
   15.5970   38.8880   17.3860 N   0  0  0  0  0  0  0  0  0  0  0  0
   15.8680   39.4160   18.7450 C   0  0  0  0  0  0  0  0  0  0  0  0
   17.2400   38.9080   19.2300 C   0  0  0  0  0  0  0  0  0  0  0  0
   16.6800   39.1540   16.4410 C   0  0  0  0  0  0  0  0  0  0  0  0
   17.9610   38.6940   17.0560 C   0  0  0  0  0  0  0  0  0  0  0  0
   18.3470   39.3280   18.3320 N   0  0  0  0  0  0  0  0  0  0  0  0
   19.6510   38.8070   18.8730 C   0  0  0  0  0  0  0  0  0  0  0  0
   20.5800   38.5910   17.8210 C   0  0  0  0  0  0  0  0  0  0  0  0
   20.6730   37.2610   17.4380 C   0  0  0  0  0  0  0  0  0  0  0  0
   21.4700   36.8760   16.3930 C   0  0  0  0  0  0  0  0  0  0  0  0
   22.2100   37.8540   15.7760 C   0  0  0  0  0  0  0  0  0  0  0  0
   23.1870   37.1820   14.3610 B   0  0  0  0  0  0  0  0  0  0  0  0
   23.5890   35.7340   14.5060 O   0  0  0  0  0  0  0  0  0  0  0  0
   24.0190   38.2480   13.5940 O   0  0  0  0  0  0  0  0  0  0  0  0
   22.1360   39.2110   16.1040 C   0  0  0  0  0  0  0  0  0  0  0  0
   21.3110   39.5960   17.1770 C   0  0  0  0  0  0  0  0  0  0  0  0
   12.4018   38.9313   13.2120 H   0  0  0  0  0  0  0  0  0  0  0  0
   10.5107   34.8406   11.0912 H   0  0  0  0  0  0  0  0  0  0  0  0
   10.7136   34.9910   13.5762 H   0  0  0  0  0  0  0  0  0  0  0  0
   10.8332   36.2191   15.4366 H   0  0  0  0  0  0  0  0  0  0  0  0
   15.8733   40.5156   18.7167 H   0  0  0  0  0  0  0  0  0  0  0  0
   15.0844   39.0705   19.4353 H   0  0  0  0  0  0  0  0  0  0  0  0
   17.4298   39.3087   20.2367 H   0  0  0  0  0  0  0  0  0  0  0  0
   17.2092   37.8084   19.2343 H   0  0  0  0  0  0  0  0  0  0  0  0
   16.4993   38.6066   15.5041 H   0  0  0  0  0  0  0  0  0  0  0  0
   16.7317   40.2295   16.2160 H   0  0  0  0  0  0  0  0  0  0  0  0
   17.8762   37.6117   17.2334 H   0  0  0  0  0  0  0  0  0  0  0  0
   18.7456   38.9812   16.3406 H   0  0  0  0  0  0  0  0  0  0  0  0
   20.0683   39.5407   19.5783 H   0  0  0  0  0  0  0  0  0  0  0  0
   19.4654   37.8503   19.3831 H   0  0  0  0  0  0  0  0  0  0  0  0
   20.0953   36.5008   17.9843 H   0  0  0  0  0  0  0  0  0  0  0  0
   21.5153   35.8279   16.0621 H   0  0  0  0  0  0  0  0  0  0  0  0
   23.6529   35.5039   15.4668 H   0  0  0  0  0  0  0  0  0  0  0  0
   24.4789   38.8373   14.2431 H   0  0  0  0  0  0  0  0  0  0  0  0
   22.7088   39.9596   15.5370 H   0  0  0  0  0  0  0  0  0  0  0  0
   21.2432   40.6462   17.4973 H   0  0  0  0  0  0  0  0  0  0  0  0
  1  2  2  0
  1  8  1  0
  2  3  1  0
  2  4  1  0
  4  5  1  0
  4  6  2  0
  6  7  1  0
  7  8  2  0
  8  9  1  0
  9 10  2  0
 10 11  1  0
 10 12  1  0
 11 15  1  0
 12 13  2  0
 12 14  1  0
 14 15  2  0
 15 16  1  0
 16 17  1  0
 16 19  1  0
 17 18  1  0
 18 21  1  0
 19 20  1  0
 20 21  1  0
 21 22  1  0
 22 23  1  0
 23 24  2  0
 23 31  1  0
 24 25  1  0
 25 26  2  0
 26 30  1  0
 27 28  1  0
 27 29  1  0
 30 31  2  0
 26 27  1  0
  1 32  1  0
  6 33  1  0
  7 34  1  0
  9 35  1  0
 17 36  1  0
 17 37  1  0
 18 38  1  0
 18 39  1  0
 19 40  1  0
 19 41  1  0
 20 42  1  0
 20 43  1  0
 22 44  1  0
 22 45  1  0
 24 46  1  0
 25 47  1  0
 28 48  1  0
 29 49  1  0
 30 50  1  0
 31 51  1  0
A    1
CAA
A    2
CAB
A    3
CLN
A    4
CAC
A    5
CLM
A    6
CAD
A    7
CAE
A    8
CAF
A    9
CAG
A   10
CAH
A   11
SAI
A   12
CAL
A   13
OAO
A   14
NAK
A   15
CAJ
A   16
NAP
A   17
CAU
A   18
CAT
A   19
CAQ
A   20
CAR
A   21
NAS
A   22
CAV
A   23
CBB
A   24
CAW
A   25
CAX
A   26
CAY
A   27
BBC
A   28
OBE
A   29
OBD
A   30
CAZ
A   31
CBA
M  END
