3WB2_YGP_A_201
     RDKit          3D

 54 57  0  0  0  0  0  0  0  0999 V2000
   24.4570  -49.4070   10.9450 C   0  0  0  0  0  0  0  0  0  0  0  0
   24.7880  -50.4560   11.6910 N   0  0  0  0  0  0  0  0  0  0  0  0
   24.3060  -48.3190    8.8660 C   0  0  0  0  0  0  0  0  0  0  0  0
   23.7160  -47.2250    9.4150 C   0  0  0  0  0  0  0  0  0  0  0  0
   23.4990  -47.1920   10.7370 C   0  0  0  0  0  0  0  0  0  0  0  0
   22.9910  -46.2110   11.2590 O   0  0  0  0  0  0  0  0  0  0  0  0
   23.8430  -48.3010   11.5590 N   0  0  0  0  0  0  0  0  0  0  0  0
   24.6600  -49.3820    9.6000 N   0  0  0  0  0  0  0  0  0  0  0  0
   23.4880  -46.3090    8.4540 N   0  0  0  0  0  0  0  0  0  0  0  0
   23.9030  -46.8710    7.3170 C   0  0  0  0  0  0  0  0  0  0  0  0
   24.4010  -48.1010    7.5720 N   0  0  0  0  0  0  0  0  0  0  0  0
   24.9730  -49.1020    6.5990 C   0  0  0  0  0  0  0  0  0  0  0  0
   25.1760  -48.5410    5.2430 O   0  0  0  0  0  0  0  0  0  0  0  0
   23.9560  -50.2350    6.4540 C   0  0  0  0  0  0  0  0  0  0  0  0
   24.6260  -51.4240    6.1600 O   0  0  0  0  0  0  0  0  0  0  0  0
   23.1510  -49.7810    5.2660 C   0  0  0  0  0  0  0  0  0  0  0  0
   22.4820  -50.8790    4.6230 O   0  0  0  0  0  0  0  0  0  0  0  0
   24.2190  -49.1830    4.3430 C   0  0  0  0  0  0  0  0  0  0  0  0
   23.5570  -48.0990    3.5240 C   0  0  0  0  0  0  0  0  0  0  0  0
   22.7420  -47.2520    4.3770 O   0  0  0  0  0  0  0  0  0  0  0  0
   21.9320  -46.0490    3.6740 P   0  0  0  0  0  0  0  0  0  0  0  0
   21.3320  -45.1170    4.7510 O   0  0  0  0  0  0  0  0  0  0  0  0
   20.8770  -46.5250    2.7710 O   0  0  0  0  0  0  0  0  0  0  0  0
   23.0740  -45.1770    2.8550 O   0  0  0  0  0  0  0  0  0  0  0  0
   24.3020  -44.7660    3.3060 C   0  0  0  0  0  0  0  0  0  0  0  0
   24.5230  -44.1670    4.5590 C   0  0  0  0  0  0  0  0  0  0  0  0
   25.8180  -43.7780    4.9380 C   0  0  0  0  0  0  0  0  0  0  0  0
   26.0780  -43.2040    6.1910 C   0  0  0  0  0  0  0  0  0  0  0  0
   26.8850  -43.9610    3.9970 N   0  0  0  0  0  0  0  0  0  0  0  0
   26.6570  -44.5470    2.7430 C   0  0  0  0  0  0  0  0  0  0  0  0
   27.6310  -44.6700    1.9830 O   0  0  0  0  0  0  0  0  0  0  0  0
   25.3390  -44.9550    2.3850 C   0  0  0  0  0  0  0  0  0  0  0  0
   25.0130  -45.5650    1.1250 C   0  0  0  0  0  0  0  0  0  0  0  0
   24.7656  -50.3850   12.7183 H   0  0  0  0  0  0  0  0  0  0  0  0
   25.0669  -51.3399   11.2418 H   0  0  0  0  0  0  0  0  0  0  0  0
   23.6487  -48.2940   12.5705 H   0  0  0  0  0  0  0  0  0  0  0  0
   23.8480  -46.4037    6.3227 H   0  0  0  0  0  0  0  0  0  0  0  0
   25.9482  -49.4260    6.9916 H   0  0  0  0  0  0  0  0  0  0  0  0
   23.3504  -50.4244    7.3525 H   0  0  0  0  0  0  0  0  0  0  0  0
   24.8809  -51.8763    7.0030 H   0  0  0  0  0  0  0  0  0  0  0  0
   22.3513  -49.0761    5.5375 H   0  0  0  0  0  0  0  0  0  0  0  0
   22.1112  -51.4876    5.3102 H   0  0  0  0  0  0  0  0  0  0  0  0
   24.6869  -49.9297    3.6846 H   0  0  0  0  0  0  0  0  0  0  0  0
   24.3311  -47.4872    3.0378 H   0  0  0  0  0  0  0  0  0  0  0  0
   22.9143  -48.5662    2.7633 H   0  0  0  0  0  0  0  0  0  0  0  0
   21.5560  -45.4649    5.6504 H   0  0  0  0  0  0  0  0  0  0  0  0
   23.6786  -44.0026    5.2445 H   0  0  0  0  0  0  0  0  0  0  0  0
   25.7637  -43.8979    6.9845 H   0  0  0  0  0  0  0  0  0  0  0  0
   27.1552  -43.0025    6.2856 H   0  0  0  0  0  0  0  0  0  0  0  0
   25.5190  -42.2614    6.2856 H   0  0  0  0  0  0  0  0  0  0  0  0
   27.8367  -43.6564    4.2468 H   0  0  0  0  0  0  0  0  0  0  0  0
   24.5013  -46.5224    1.3026 H   0  0  0  0  0  0  0  0  0  0  0  0
   24.3520  -44.8964    0.5541 H   0  0  0  0  0  0  0  0  0  0  0  0
   25.9362  -45.7430    0.5541 H   0  0  0  0  0  0  0  0  0  0  0  0
 33 32  1  0
 31 30  2  0
 32 30  1  0
 32 25  2  0
 30 29  1  0
 23 21  2  0
 24 25  1  0
 24 21  1  0
 25 26  1  0
 19 18  1  0
 19 20  1  0
 21 20  1  0
 21 22  1  0
 29 27  1  0
 18 13  1  0
 18 16  1  0
 26 27  2  0
 17 16  1  0
 27 28  1  0
 13 12  1  0
 16 14  1  0
 15 14  1  0
 14 12  1  0
 12 11  1  0
 10 11  1  0
 10  9  2  0
 11  3  1  0
  9  4  1  0
  3  4  2  0
  3  8  1  0
  4  5  1  0
  8  1  2  0
  5  6  2  0
  5  7  1  0
  1  7  1  0
  1  2  1  0
  2 34  1  0
  2 35  1  0
  7 36  1  0
 10 37  1  0
 12 38  1  0
 14 39  1  0
 15 40  1  0
 16 41  1  0
 17 42  1  0
 18 43  1  0
 19 44  1  0
 19 45  1  0
 22 46  1  0
 26 47  1  0
 28 48  1  0
 28 49  1  0
 28 50  1  0
 29 51  1  0
 33 52  1  0
 33 53  1  0
 33 54  1  0
A    1
C2
A    2
N2
A    3
C4
A    4
C5
A    5
C6
A    6
O6
A    7
N1
A    8
N3
A    9
N7
A   10
C8
A   11
N9
A   12
C1'
A   13
O4'
A   14
C2'
A   15
O2'
A   16
C3'
A   17
O3'
A   18
C4'
A   19
C5'
A   20
O5'
A   21
PBG
A   22
OAI
A   23
OAF
A   24
OAR
A   25
CAW
A   26
CAK
A   27
CAT
A   28
CAA
A   29
NAO
A   30
CAX
A   31
OAD
A   32
CAV
A   33
CAB
M  END
