3WC7_EF1_A_403
     RDKit          3D

 64 64  0  0  0  0  0  0  0  0999 V2000
    4.7640  -17.5580    4.0460 O   0  0  0  0  0  0  0  0  0  0  0  0
    3.9570  -18.3930    3.5650 C   0  0  0  0  0  0  0  0  0  0  0  0
    2.8420  -18.6020    4.0860 O   0  0  0  0  0  0  0  0  0  0  0  0
    4.3300  -19.1190    2.2900 C   0  0  0  0  0  0  0  0  0  0  0  0
    3.6440  -18.4160    1.1080 C   0  0  0  0  0  0  0  0  0  0  0  0
    3.6510  -16.9000    1.2450 C   0  0  0  0  0  0  0  0  0  0  0  0
    3.1030  -16.2370   -0.0170 C   0  0  0  0  0  0  0  0  0  0  0  0
    4.0120  -16.5280   -1.2120 C   0  0  0  0  0  0  0  0  0  0  0  0
    5.3340  -15.7740   -1.1260 C   0  0  0  0  0  0  0  0  0  0  0  0
    5.1260  -14.3940   -0.7170 N   0  0  0  0  0  0  0  0  0  0  0  0
    3.8210  -20.5520    2.2690 C   0  0  0  0  0  0  0  0  0  0  0  0
    4.7130  -21.5880    3.4550 P   0  0  0  0  0  0  0  0  0  0  0  0
    5.8450  -22.2800    2.7480 O   0  0  0  0  0  0  0  0  0  0  0  0
    5.1230  -20.7130    4.6120 O   0  0  0  0  0  0  0  0  0  0  0  0
    3.6090  -22.9310    4.0390 C   0  0  0  0  0  0  0  0  0  0  0  0
    3.3260  -23.9540    2.9290 C   0  0  0  0  0  0  0  0  0  0  0  0
    2.4090  -23.3200    1.8800 C   0  0  0  0  0  0  0  0  0  0  0  0
    2.6890  -25.2250    3.4870 C   0  0  0  0  0  0  0  0  0  0  0  0
    2.3760  -22.3820    4.5640 N   0  0  0  0  0  0  0  0  0  0  0  0
    2.0050  -22.6300    5.8320 C   0  0  0  0  0  0  0  0  0  0  0  0
    2.6340  -23.3600    6.6080 O   0  0  0  0  0  0  0  0  0  0  0  0
    0.7420  -21.9360    6.3130 C   0  0  0  0  0  0  0  0  0  0  0  0
   -0.1860  -22.9970    6.8770 C   0  0  0  0  0  0  0  0  0  0  0  0
   -0.5040  -24.0820    5.8660 C   0  0  0  0  0  0  0  0  0  0  0  0
   -1.0770  -23.7380    4.6420 C   0  0  0  0  0  0  0  0  0  0  0  0
   -0.2520  -25.4140    6.1760 C   0  0  0  0  0  0  0  0  0  0  0  0
   -0.5520  -26.3900    5.2380 C   0  0  0  0  0  0  0  0  0  0  0  0
   -1.1130  -26.0360    4.0080 C   0  0  0  0  0  0  0  0  0  0  0  0
   -1.3690  -24.7110    3.7010 C   0  0  0  0  0  0  0  0  0  0  0  0
    2.7516  -18.6190    5.0717 H   0  0  0  0  0  0  0  0  0  0  0  0
    5.4282  -19.1134    2.2266 H   0  0  0  0  0  0  0  0  0  0  0  0
    2.6007  -18.7598    1.0509 H   0  0  0  0  0  0  0  0  0  0  0  0
    4.2055  -18.6710    0.1971 H   0  0  0  0  0  0  0  0  0  0  0  0
    4.6830  -16.5581    1.4125 H   0  0  0  0  0  0  0  0  0  0  0  0
    3.0114  -16.6207    2.0952 H   0  0  0  0  0  0  0  0  0  0  0  0
    3.0481  -15.1496    0.1399 H   0  0  0  0  0  0  0  0  0  0  0  0
    2.1012  -16.6409   -0.2250 H   0  0  0  0  0  0  0  0  0  0  0  0
    3.4923  -16.2281   -2.1339 H   0  0  0  0  0  0  0  0  0  0  0  0
    4.2364  -17.6049   -1.2116 H   0  0  0  0  0  0  0  0  0  0  0  0
    5.9841  -16.2719   -0.3915 H   0  0  0  0  0  0  0  0  0  0  0  0
    5.8017  -15.7758   -2.1216 H   0  0  0  0  0  0  0  0  0  0  0  0
    5.1176  -14.3383    0.3115 H   0  0  0  0  0  0  0  0  0  0  0  0
    5.8881  -13.8078   -1.0864 H   0  0  0  0  0  0  0  0  0  0  0  0
    2.7511  -20.5554    2.5247 H   0  0  0  0  0  0  0  0  0  0  0  0
    3.9832  -20.9619    1.2612 H   0  0  0  0  0  0  0  0  0  0  0  0
    4.9088  -21.1702    5.4636 H   0  0  0  0  0  0  0  0  0  0  0  0
    4.1274  -23.4632    4.8502 H   0  0  0  0  0  0  0  0  0  0  0  0
    4.2822  -24.2391    2.4660 H   0  0  0  0  0  0  0  0  0  0  0  0
    1.6048  -22.7640    2.3840 H   0  0  0  0  0  0  0  0  0  0  0  0
    2.9924  -22.6315    1.2511 H   0  0  0  0  0  0  0  0  0  0  0  0
    1.9709  -24.1090    1.2511 H   0  0  0  0  0  0  0  0  0  0  0  0
    2.7058  -25.1914    4.5864 H   0  0  0  0  0  0  0  0  0  0  0  0
    1.6482  -25.2971    3.1383 H   0  0  0  0  0  0  0  0  0  0  0  0
    3.2541  -26.1019    3.1383 H   0  0  0  0  0  0  0  0  0  0  0  0
    1.7791  -21.7974    3.9616 H   0  0  0  0  0  0  0  0  0  0  0  0
    0.9922  -21.2040    7.0950 H   0  0  0  0  0  0  0  0  0  0  0  0
    0.2562  -21.4039    5.4818 H   0  0  0  0  0  0  0  0  0  0  0  0
   -1.1256  -22.5162    7.1869 H   0  0  0  0  0  0  0  0  0  0  0  0
    0.3238  -23.4707    7.7289 H   0  0  0  0  0  0  0  0  0  0  0  0
   -1.2992  -22.6834    4.4219 H   0  0  0  0  0  0  0  0  0  0  0  0
    0.1786  -25.6890    7.1501 H   0  0  0  0  0  0  0  0  0  0  0  0
   -0.3476  -27.4472    5.4629 H   0  0  0  0  0  0  0  0  0  0  0  0
   -1.3540  -26.8199    3.2750 H   0  0  0  0  0  0  0  0  0  0  0  0
   -1.7972  -24.4355    2.7259 H   0  0  0  0  0  0  0  0  0  0  0  0
  8  9  1  0
  8  7  1  0
  9 10  1  0
  7  6  1  0
  5  6  1  0
  5  4  1  0
 17 16  1  0
 11  4  1  0
 11 12  1  0
  4  2  1  0
 13 12  2  0
 16 18  1  0
 16 15  1  0
 12 15  1  0
 12 14  1  0
  2  1  2  0
  2  3  1  0
 29 28  2  0
 29 25  1  0
 28 27  1  0
 15 19  1  0
 19 20  1  0
 25 24  2  0
 27 26  2  0
 20 22  1  0
 20 21  2  0
 24 26  1  0
 24 23  1  0
 22 23  1  0
  3 30  1  0
  4 31  1  0
  5 32  1  0
  5 33  1  0
  6 34  1  0
  6 35  1  0
  7 36  1  0
  7 37  1  0
  8 38  1  0
  8 39  1  0
  9 40  1  0
  9 41  1  0
 10 42  1  0
 10 43  1  0
 11 44  1  0
 11 45  1  0
 14 46  1  0
 15 47  1  0
 16 48  1  0
 17 49  1  0
 17 50  1  0
 17 51  1  0
 18 52  1  0
 18 53  1  0
 18 54  1  0
 19 55  1  0
 22 56  1  0
 22 57  1  0
 23 58  1  0
 23 59  1  0
 25 60  1  0
 26 61  1  0
 27 62  1  0
 28 63  1  0
 29 64  1  0
A    1
O23
A    2
C21
A    3
O22
A    4
C20
A    5
C24
A    6
C25
A    7
C26
A    8
C27
A    9
C28
A   10
N29
A   11
C17
A   12
P13
A   13
O18
A   14
O19
A   15
C12
A   16
C14
A   17
C16
A   18
C15
A   19
N10
A   20
C9
A   21
O11
A   22
C8
A   23
C7
A   24
C1
A   25
C6
A   26
C2
A   27
C3
A   28
C4
A   29
C5
M  END
