3WCI_BH5_A_401
     RDKit          3D

 71 71  0  0  0  0  0  0  0  0999 V2000
  -20.8630   43.9190  -53.4910 O   0  0  0  0  0  0  0  0  0  0  0  0
  -20.2270   45.3760  -53.2270 P   0  0  0  0  0  0  0  0  0  0  0  0
  -18.8050   45.0150  -52.5640 O   0  0  0  0  0  0  0  0  0  0  0  0
  -21.0250   46.2460  -52.3300 O   0  0  0  0  0  0  0  0  0  0  0  0
  -19.8430   46.1370  -54.8980 C   0  0  0  0  0  0  0  0  0  0  0  0
  -20.1840   44.9780  -56.3270 P   0  0  0  0  0  0  0  0  0  0  0  0
  -19.5930   45.7710  -57.6000 O   0  0  0  0  0  0  0  0  0  0  0  0
  -19.2210   43.7180  -56.0440 O   0  0  0  0  0  0  0  0  0  0  0  0
  -21.6040   44.5980  -56.5250 O   0  0  0  0  0  0  0  0  0  0  0  0
  -20.3850   47.4410  -55.1140 O   0  0  0  0  0  0  0  0  0  0  0  0
  -18.3230   46.3310  -54.9060 C   0  0  0  0  0  0  0  0  0  0  0  0
  -17.9090   47.5000  -54.0940 N   0  0  0  0  0  0  0  0  0  0  0  0
  -18.4890   48.0680  -53.0370 C   0  0  0  0  0  0  0  0  0  0  0  0
  -16.8070   48.1900  -54.3700 C   0  0  0  0  0  0  0  0  0  0  0  0
  -16.7100   49.1860  -53.4950 C   0  0  0  0  0  0  0  0  0  0  0  0
  -17.7610   49.1220  -52.6810 N   0  0  0  0  0  0  0  0  0  0  0  0
  -18.1910   50.2270  -51.7930 C   0  0  0  0  0  0  0  0  0  0  0  0
  -17.8490   49.9620  -50.3250 C   0  0  0  0  0  0  0  0  0  0  0  0
  -16.3780   49.5580  -50.2180 C   0  0  0  0  0  0  0  0  0  0  0  0
  -15.9150   49.7110  -48.7680 C   0  0  0  0  0  0  0  0  0  0  0  0
  -14.4740   49.2140  -48.6420 C   0  0  0  0  0  0  0  0  0  0  0  0
  -14.4710   47.6850  -48.6170 C   0  0  0  0  0  0  0  0  0  0  0  0
  -13.0270   47.1800  -48.6200 C   0  0  0  0  0  0  0  0  0  0  0  0
  -12.9910   45.7200  -48.1640 C   0  0  0  0  0  0  0  0  0  0  0  0
  -13.4190   45.6600  -46.6960 C   0  0  0  0  0  0  0  0  0  0  0  0
  -13.3610   44.2240  -46.1730 C   0  0  0  0  0  0  0  0  0  0  0  0
  -13.7570   44.2410  -44.6950 C   0  0  0  0  0  0  0  0  0  0  0  0
  -13.7870   42.8220  -44.1250 C   0  0  0  0  0  0  0  0  0  0  0  0
  -14.2040   42.9100  -42.6550 C   0  0  0  0  0  0  0  0  0  0  0  0
  -14.2660   41.5170  -42.0280 C   0  0  0  0  0  0  0  0  0  0  0  0
  -14.6450   41.6550  -40.5520 C   0  0  0  0  0  0  0  0  0  0  0  0
  -18.8861   45.0356  -51.5775 H   0  0  0  0  0  0  0  0  0  0  0  0
  -20.8209   46.0235  -51.3872 H   0  0  0  0  0  0  0  0  0  0  0  0
  -19.1233   43.5902  -55.0672 H   0  0  0  0  0  0  0  0  0  0  0  0
  -20.5644   47.8725  -54.2412 H   0  0  0  0  0  0  0  0  0  0  0  0
  -17.8474   45.4276  -54.4966 H   0  0  0  0  0  0  0  0  0  0  0  0
  -18.0084   46.5098  -55.9448 H   0  0  0  0  0  0  0  0  0  0  0  0
  -19.4105   47.7243  -52.5444 H   0  0  0  0  0  0  0  0  0  0  0  0
  -16.0976   47.9741  -55.1824 H   0  0  0  0  0  0  0  0  0  0  0  0
  -15.9028   49.9321  -53.4514 H   0  0  0  0  0  0  0  0  0  0  0  0
  -17.6884   51.1522  -52.1114 H   0  0  0  0  0  0  0  0  0  0  0  0
  -19.2846   50.3149  -51.8722 H   0  0  0  0  0  0  0  0  0  0  0  0
  -18.0241   50.8742  -49.7357 H   0  0  0  0  0  0  0  0  0  0  0  0
  -18.4845   49.1522  -49.9372 H   0  0  0  0  0  0  0  0  0  0  0  0
  -16.2610   48.5104  -50.5323 H   0  0  0  0  0  0  0  0  0  0  0  0
  -15.7705   50.2043  -50.8686 H   0  0  0  0  0  0  0  0  0  0  0  0
  -15.9651   50.7704  -48.4762 H   0  0  0  0  0  0  0  0  0  0  0  0
  -16.5675   49.1198  -48.1087 H   0  0  0  0  0  0  0  0  0  0  0  0
  -13.8857   49.5693  -49.5009 H   0  0  0  0  0  0  0  0  0  0  0  0
  -14.0293   49.6001  -47.7129 H   0  0  0  0  0  0  0  0  0  0  0  0
  -14.9955   47.3023  -49.5049 H   0  0  0  0  0  0  0  0  0  0  0  0
  -14.9823   47.3312  -47.7096 H   0  0  0  0  0  0  0  0  0  0  0  0
  -12.6151   47.2558  -49.6372 H   0  0  0  0  0  0  0  0  0  0  0  0
  -12.4254   47.7918  -47.9317 H   0  0  0  0  0  0  0  0  0  0  0  0
  -13.6820   45.1226  -48.7768 H   0  0  0  0  0  0  0  0  0  0  0  0
  -11.9749   45.3143  -48.2776 H   0  0  0  0  0  0  0  0  0  0  0  0
  -12.7443   46.2896  -46.0974 H   0  0  0  0  0  0  0  0  0  0  0  0
  -14.4539   46.0239  -46.6147 H   0  0  0  0  0  0  0  0  0  0  0  0
  -14.0609   43.5922  -46.7395 H   0  0  0  0  0  0  0  0  0  0  0  0
  -12.3465   43.8156  -46.2915 H   0  0  0  0  0  0  0  0  0  0  0  0
  -13.0259   44.8403  -44.1325 H   0  0  0  0  0  0  0  0  0  0  0  0
  -14.7619   44.6791  -44.6040 H   0  0  0  0  0  0  0  0  0  0  0  0
  -14.5123   42.2113  -44.6826 H   0  0  0  0  0  0  0  0  0  0  0  0
  -12.7952   42.3545  -44.2129 H   0  0  0  0  0  0  0  0  0  0  0  0
  -13.4709   43.5205  -42.1074 H   0  0  0  0  0  0  0  0  0  0  0  0
  -15.2018   43.3694  -42.5967 H   0  0  0  0  0  0  0  0  0  0  0  0
  -15.0223   40.9110  -42.5484 H   0  0  0  0  0  0  0  0  0  0  0  0
  -13.2867   41.0240  -42.1171 H   0  0  0  0  0  0  0  0  0  0  0  0
  -13.7958   41.3458  -39.9249 H   0  0  0  0  0  0  0  0  0  0  0  0
  -14.8985   42.7032  -40.3350 H   0  0  0  0  0  0  0  0  0  0  0  0
  -15.5131   41.0153  -40.3350 H   0  0  0  0  0  0  0  0  0  0  0  0
  9  6  2  0
  7  6  1  0
  6  8  1  0
  6  5  1  0
  1  2  2  0
 10  5  1  0
  3  2  1  0
  5  2  1  0
  5 11  1  0
  2  4  1  0
 11 12  1  0
 14 12  1  0
 14 15  2  0
 12 13  1  0
 15 16  1  0
 13 16  2  0
 16 17  1  0
 17 18  1  0
 18 19  1  0
 19 20  1  0
 20 21  1  0
 22 23  1  0
 22 21  1  0
 23 24  1  0
 24 25  1  0
 25 26  1  0
 26 27  1  0
 27 28  1  0
 28 29  1  0
 29 30  1  0
 30 31  1  0
  3 32  1  0
  4 33  1  0
  8 34  1  0
 10 35  1  0
 11 36  1  0
 11 37  1  0
 13 38  1  0
 14 39  1  0
 15 40  1  0
 17 41  1  0
 17 42  1  0
 18 43  1  0
 18 44  1  0
 19 45  1  0
 19 46  1  0
 20 47  1  0
 20 48  1  0
 21 49  1  0
 21 50  1  0
 22 51  1  0
 22 52  1  0
 23 53  1  0
 23 54  1  0
 24 55  1  0
 24 56  1  0
 25 57  1  0
 25 58  1  0
 26 59  1  0
 26 60  1  0
 27 61  1  0
 27 62  1  0
 28 63  1  0
 28 64  1  0
 29 65  1  0
 29 66  1  0
 30 67  1  0
 30 68  1  0
 31 69  1  0
 31 70  1  0
 31 71  1  0
M  CHG  2   7  -1  16   1
A    1
OAE
A    2
PBD
A    3
OAF
A    4
OAB
A    5
CBC
A    6
PBE
A    7
OAG
A    8
OAH
A    9
OAC
A   10
OAD
A   11
CAZ
A   12
NBB
A   13
CAK
A   14
CAJ
A   15
CAI
A   16
NBA
A   17
CAY
A   18
CAX
A   19
CAW
A   20
CAV
A   21
CAU
A   22
CAT
A   23
CAS
A   24
CAR
A   25
CAQ
A   26
CAP
A   27
CAO
A   28
CAN
A   29
CAM
A   30
CAL
A   31
CAA
M  END
