3WCE_ER4_A_401
     RDKit          3D

 60 63  0  0  0  0  0  0  0  0999 V2000
   83.7320    0.8620   45.6670 C   0  0  0  0  0  0  0  0  0  0  0  0
   84.1080    2.3150   45.9090 C   0  0  0  0  0  0  0  0  0  0  0  0
   83.4310    2.7810   47.1880 C   0  0  0  0  0  0  0  0  0  0  0  0
   84.0140    1.9940   48.3500 C   0  0  0  0  0  0  0  0  0  0  0  0
   83.8800    0.5120   48.0380 C   0  0  0  0  0  0  0  0  0  0  0  0
   83.0470    0.3050   46.8440 N   0  0  0  0  0  0  0  0  0  0  0  0
   81.7530    0.9820   47.0200 C   0  0  0  0  0  0  0  0  0  0  0  0
   81.9420    2.4890   47.1060 C   0  0  0  0  0  0  0  0  0  0  0  0
   81.2900    2.9910   48.2810 O   0  0  0  0  0  0  0  0  0  0  0  0
   81.3810    3.1440   45.9170 C   0  0  0  0  0  0  0  0  0  0  0  0
   80.9240    3.7120   44.9320 C   0  0  0  0  0  0  0  0  0  0  0  0
   80.4110    4.4070   43.7910 C   0  0  0  0  0  0  0  0  0  0  0  0
   80.7450    5.7450   43.6240 C   0  0  0  0  0  0  0  0  0  0  0  0
   80.5120    6.3500   42.3950 C   0  0  0  0  0  0  0  0  0  0  0  0
   79.9550    5.6050   41.3620 C   0  0  0  0  0  0  0  0  0  0  0  0
   79.9040    6.1660   40.1230 O   0  0  0  0  0  0  0  0  0  0  0  0
   79.2960    5.3170   39.1470 C   0  0  0  0  0  0  0  0  0  0  0  0
   79.3030    6.0660   37.8120 C   0  0  0  0  0  0  0  0  0  0  0  0
   78.6200    5.2360   36.7240 C   0  0  0  0  0  0  0  0  0  0  0  0
   78.6590    5.9620   35.4920 O   0  0  0  0  0  0  0  0  0  0  0  0
   77.7380    5.3850   34.5630 C   0  0  0  0  0  0  0  0  0  0  0  0
   79.6150    4.3230   41.5610 N   0  0  0  0  0  0  0  0  0  0  0  0
   79.8080    3.7180   42.7430 C   0  0  0  0  0  0  0  0  0  0  0  0
   79.1540    2.5200   43.0090 C   0  0  0  0  0  0  0  0  0  0  0  0
   79.6830    1.4960   42.2320 C   0  0  0  0  0  0  0  0  0  0  0  0
   80.9670    1.0240   42.4820 C   0  0  0  0  0  0  0  0  0  0  0  0
   81.4280   -0.1190   41.8390 C   0  0  0  0  0  0  0  0  0  0  0  0
   80.6050   -0.7930   40.9430 C   0  0  0  0  0  0  0  0  0  0  0  0
   79.3230   -0.3190   40.6880 C   0  0  0  0  0  0  0  0  0  0  0  0
   78.8630    0.8250   41.3310 C   0  0  0  0  0  0  0  0  0  0  0  0
   83.0628    0.8013   44.7961 H   0  0  0  0  0  0  0  0  0  0  0  0
   84.6487    0.2831   45.4813 H   0  0  0  0  0  0  0  0  0  0  0  0
   85.1995    2.4036   46.0132 H   0  0  0  0  0  0  0  0  0  0  0  0
   83.7812    2.9354   45.0615 H   0  0  0  0  0  0  0  0  0  0  0  0
   83.5913    3.8604   47.3267 H   0  0  0  0  0  0  0  0  0  0  0  0
   85.0754    2.2525   48.4789 H   0  0  0  0  0  0  0  0  0  0  0  0
   83.4767    2.2358   49.2789 H   0  0  0  0  0  0  0  0  0  0  0  0
   83.4150    0.0032   48.8952 H   0  0  0  0  0  0  0  0  0  0  0  0
   84.8814    0.0992   47.8462 H   0  0  0  0  0  0  0  0  0  0  0  0
   81.1035    0.7478   46.1637 H   0  0  0  0  0  0  0  0  0  0  0  0
   81.2936    0.6292   47.9551 H   0  0  0  0  0  0  0  0  0  0  0  0
   81.7458    2.6401   49.0867 H   0  0  0  0  0  0  0  0  0  0  0  0
   81.1875    6.3173   44.4527 H   0  0  0  0  0  0  0  0  0  0  0  0
   80.7661    7.4091   42.2409 H   0  0  0  0  0  0  0  0  0  0  0  0
   78.2617    5.0869   39.4424 H   0  0  0  0  0  0  0  0  0  0  0  0
   79.8489    4.3700   39.0611 H   0  0  0  0  0  0  0  0  0  0  0  0
   80.3432    6.2651   37.5149 H   0  0  0  0  0  0  0  0  0  0  0  0
   78.7537    7.0113   37.9335 H   0  0  0  0  0  0  0  0  0  0  0  0
   77.5742    5.0456   37.0071 H   0  0  0  0  0  0  0  0  0  0  0  0
   79.1424    4.2751   36.6062 H   0  0  0  0  0  0  0  0  0  0  0  0
   76.9308    4.8793   35.1131 H   0  0  0  0  0  0  0  0  0  0  0  0
   77.3105    6.1770   33.9306 H   0  0  0  0  0  0  0  0  0  0  0  0
   78.2642    4.6548   33.9306 H   0  0  0  0  0  0  0  0  0  0  0  0
   78.0840    2.6327   42.7803 H   0  0  0  0  0  0  0  0  0  0  0  0
   79.2891    2.2680   44.0712 H   0  0  0  0  0  0  0  0  0  0  0  0
   81.6192    1.5562   43.1901 H   0  0  0  0  0  0  0  0  0  0  0  0
   82.4439   -0.4905   42.0389 H   0  0  0  0  0  0  0  0  0  0  0  0
   80.9678   -1.6997   40.4368 H   0  0  0  0  0  0  0  0  0  0  0  0
   78.6722   -0.8493   39.9772 H   0  0  0  0  0  0  0  0  0  0  0  0
   77.8492    1.1998   41.1268 H   0  0  0  0  0  0  0  0  0  0  0  0
 21 20  1  0
 20 19  1  0
 19 18  1  0
 18 17  1  0
 17 16  1  0
 16 15  1  0
 29 28  2  0
 29 30  1  0
 28 27  1  0
 15 22  2  0
 15 14  1  0
 30 25  2  0
 22 23  1  0
 27 26  2  0
 25 26  1  0
 25 24  1  0
 14 13  2  0
 23 24  1  0
 23 12  2  0
 13 12  1  0
 12 11  1  0
 11 10  3  0
  1  2  1  0
  1  6  1  0
  2  3  1  0
 10  8  1  0
  6  7  1  0
  6  5  1  0
  7  8  1  0
  8  3  1  0
  8  9  1  0
  3  4  1  0
  5  4  1  0
  1 31  1  0
  1 32  1  0
  2 33  1  0
  2 34  1  0
  3 35  1  0
  4 36  1  0
  4 37  1  0
  5 38  1  0
  5 39  1  0
  7 40  1  0
  7 41  1  0
  9 42  1  0
 13 43  1  0
 14 44  1  0
 17 45  1  0
 17 46  1  0
 18 47  1  0
 18 48  1  0
 19 49  1  0
 19 50  1  0
 21 51  1  0
 21 52  1  0
 21 53  1  0
 24 54  1  0
 24 55  1  0
 26 56  1  0
 27 57  1  0
 28 58  1  0
 29 59  1  0
 30 60  1  0
A    1
CAQ
A    2
CAO
A    3
CBB
A    4
CAP
A    5
CAR
A    6
NBC
A    7
CAT
A    8
CBD
A    9
OAB
A   10
CAD
A   11
CAC
A   12
CAY
A   13
CAJ
A   14
CAK
A   15
CAZ
A   16
OAW
A   17
CAN
A   18
CAL
A   19
CAM
A   20
OAV
A   21
CAA
A   22
NAU
A   23
CBA
A   24
CAS
A   25
CAX
A   26
CAH
A   27
CAF
A   28
CAE
A   29
CAG
A   30
CAI
M  END
