3WD4_QUB_A_512
     RDKit          3D

 28 29  0  0  0  0  0  0  0  0999 V2000
  -20.3780    2.5030  -23.3560 C   0  0  0  0  0  0  0  0  0  0  0  0
  -19.9330    1.7070  -24.3810 C   0  0  0  0  0  0  0  0  0  0  0  0
  -18.9330    0.7840  -24.1570 C   0  0  0  0  0  0  0  0  0  0  0  0
  -18.3700    0.6810  -22.9120 C   0  0  0  0  0  0  0  0  0  0  0  0
  -18.8150    1.4960  -21.8880 C   0  0  0  0  0  0  0  0  0  0  0  0
  -19.8250    2.4100  -22.1070 C   0  0  0  0  0  0  0  0  0  0  0  0
  -20.2530    3.1910  -21.1100 N   0  0  0  0  0  0  0  0  0  0  0  0
  -21.2030    4.0780  -21.2790 C   0  0  0  0  0  0  0  0  0  0  0  0
  -21.7910    4.2210  -22.5220 C   0  0  0  0  0  0  0  0  0  0  0  0
  -21.3800    3.4120  -23.5610 C   0  0  0  0  0  0  0  0  0  0  0  0
  -21.9540    3.5700  -24.7900 C   0  0  0  0  0  0  0  0  0  0  0  0
  -22.0380    4.8310  -25.1190 N   0  0  0  0  0  0  0  0  0  0  0  0
  -22.5680    5.2470  -26.2750 O   0  0  0  0  0  0  0  0  0  0  0  0
  -22.7690    6.6500  -26.1720 C   0  0  0  0  0  0  0  0  0  0  0  0
  -21.9260    7.2860  -27.0610 C   0  0  0  0  0  0  0  0  0  0  0  0
  -20.6910    7.7420  -26.6440 C   0  0  0  0  0  0  0  0  0  0  0  0
  -20.3747    1.8052  -25.3836 H   0  0  0  0  0  0  0  0  0  0  0  0
  -18.5888    0.1333  -24.9744 H   0  0  0  0  0  0  0  0  0  0  0  0
  -17.5668   -0.0477  -22.7281 H   0  0  0  0  0  0  0  0  0  0  0  0
  -18.3599    1.4151  -20.8898 H   0  0  0  0  0  0  0  0  0  0  0  0
  -21.5306    4.7050  -20.4367 H   0  0  0  0  0  0  0  0  0  0  0  0
  -22.5786    4.9723  -22.6809 H   0  0  0  0  0  0  0  0  0  0  0  0
  -22.3016    2.7401  -25.4228 H   0  0  0  0  0  0  0  0  0  0  0  0
  -22.5443    6.9816  -25.1475 H   0  0  0  0  0  0  0  0  0  0  0  0
  -23.8150    6.8962  -26.4070 H   0  0  0  0  0  0  0  0  0  0  0  0
  -22.2392    7.4301  -28.1056 H   0  0  0  0  0  0  0  0  0  0  0  0
  -20.0225    8.2483  -27.3559 H   0  0  0  0  0  0  0  0  0  0  0  0
  -20.3757    7.5990  -25.5999 H   0  0  0  0  0  0  0  0  0  0  0  0
 15 16  2  3
 15 14  1  0
 13 14  1  0
 13 12  1  0
 12 11  2  0
 11 10  1  0
  2  3  2  0
  2  1  1  0
  3  4  1  0
 10  1  2  0
 10  9  1  0
  1  6  1  0
  4  5  2  0
  9  8  2  0
  6  5  1  0
  6  7  2  0
  8  7  1  0
  2 17  1  0
  3 18  1  0
  4 19  1  0
  5 20  1  0
  8 21  1  0
  9 22  1  0
 11 23  1  0
 14 24  1  0
 14 25  1  0
 15 26  1  0
 16 27  1  0
 16 28  1  0
A    1
C5
A    2
C6
A    3
C7
A    4
C8
A    5
C9
A    6
C4
A    7
N1
A    8
C3
A    9
C2
A   10
C1
A   11
C10
A   12
N2
A   13
O1
A   14
C11
A   15
C12
A   16
C13
M  END
