3WD9_QPC_A_901
     RDKit          3D

 58 60  0  0  0  0  0  0  0  0999 V2000
   27.8840   19.0800  -16.3670 C   0  0  0  0  0  0  0  0  0  0  0  0
   27.8150   19.5120  -17.6410 N   0  0  0  0  0  0  0  0  0  0  0  0
   26.6090   19.4440  -18.2290 C   0  0  0  0  0  0  0  0  0  0  0  0
   25.5110   18.9730  -17.6210 N   0  0  0  0  0  0  0  0  0  0  0  0
   25.5830   18.5420  -16.3490 C   0  0  0  0  0  0  0  0  0  0  0  0
   26.7970   18.5830  -15.6680 C   0  0  0  0  0  0  0  0  0  0  0  0
   26.4600   19.9230  -19.6170 C   0  0  0  0  0  0  0  0  0  0  0  0
   27.4330   20.6960  -20.2310 C   0  0  0  0  0  0  0  0  0  0  0  0
   27.3200   21.1540  -21.5320 C   0  0  0  0  0  0  0  0  0  0  0  0
   26.1980   20.8510  -22.2770 C   0  0  0  0  0  0  0  0  0  0  0  0
   25.2080   20.0850  -21.6950 C   0  0  0  0  0  0  0  0  0  0  0  0
   25.3450   19.6320  -20.3910 C   0  0  0  0  0  0  0  0  0  0  0  0
   24.4020   18.0640  -15.7270 N   0  0  0  0  0  0  0  0  0  0  0  0
   23.2270   17.7140  -16.4590 C   0  0  0  0  0  0  0  0  0  0  0  0
   22.6100   16.4970  -16.2770 C   0  0  0  0  0  0  0  0  0  0  0  0
   21.4710   16.1360  -16.9720 C   0  0  0  0  0  0  0  0  0  0  0  0
   20.9240   17.0090  -17.8830 C   0  0  0  0  0  0  0  0  0  0  0  0
   21.5240   18.2310  -18.0630 C   0  0  0  0  0  0  0  0  0  0  0  0
   22.6500   18.5780  -17.3610 C   0  0  0  0  0  0  0  0  0  0  0  0
   19.7000   16.7060  -18.6780 C   0  0  0  0  0  0  0  0  0  0  0  0
   19.9260   15.7660  -19.8280 C   0  0  0  0  0  0  0  0  0  0  0  0
   21.1160   15.9760  -20.4980 N   0  0  0  0  0  0  0  0  0  0  0  0
   19.1000   14.9080  -20.1150 O   0  0  0  0  0  0  0  0  0  0  0  0
   26.9660   18.1420  -14.2570 C   0  0  0  0  0  0  0  0  0  0  0  0
   26.0250   18.1470  -13.4760 O   0  0  0  0  0  0  0  0  0  0  0  0
   28.2290   17.7600  -13.9060 N   0  0  0  0  0  0  0  0  0  0  0  0
   21.4120   15.3270  -21.7630 C   0  0  0  0  0  0  0  0  0  0  0  0
   21.8780   16.2590  -22.8780 C   0  0  0  0  0  0  0  0  0  0  0  0
   20.8670   17.3420  -23.1700 C   0  0  0  0  0  0  0  0  0  0  0  0
   23.1930   16.9150  -22.5360 C   0  0  0  0  0  0  0  0  0  0  0  0
   22.0810   15.4450  -24.1300 C   0  0  0  0  0  0  0  0  0  0  0  0
   28.8562   19.1245  -15.8544 H   0  0  0  0  0  0  0  0  0  0  0  0
   28.3353   20.9571  -19.6586 H   0  0  0  0  0  0  0  0  0  0  0  0
   28.1251   21.7601  -21.9730 H   0  0  0  0  0  0  0  0  0  0  0  0
   26.0952   21.2118  -23.3110 H   0  0  0  0  0  0  0  0  0  0  0  0
   24.3044   19.8321  -22.2691 H   0  0  0  0  0  0  0  0  0  0  0  0
   24.5415   19.0204  -19.9548 H   0  0  0  0  0  0  0  0  0  0  0  0
   24.3911   17.9648  -14.7018 H   0  0  0  0  0  0  0  0  0  0  0  0
   23.0381   15.7874  -15.5536 H   0  0  0  0  0  0  0  0  0  0  0  0
   21.0044   15.1553  -16.7973 H   0  0  0  0  0  0  0  0  0  0  0  0
   21.0943   18.9436  -18.7824 H   0  0  0  0  0  0  0  0  0  0  0  0
   23.1013   19.5680  -17.5225 H   0  0  0  0  0  0  0  0  0  0  0  0
   19.3066   17.6519  -19.0786 H   0  0  0  0  0  0  0  0  0  0  0  0
   18.9974   16.2053  -17.9956 H   0  0  0  0  0  0  0  0  0  0  0  0
   21.8144   16.6122  -20.0878 H   0  0  0  0  0  0  0  0  0  0  0  0
   28.4859   17.6823  -12.9116 H   0  0  0  0  0  0  0  0  0  0  0  0
   28.9249   17.5495  -14.6356 H   0  0  0  0  0  0  0  0  0  0  0  0
   20.4997   14.8165  -22.1052 H   0  0  0  0  0  0  0  0  0  0  0  0
   22.2508   14.6430  -21.5663 H   0  0  0  0  0  0  0  0  0  0  0  0
   20.4847   17.7516  -22.2234 H   0  0  0  0  0  0  0  0  0  0  0  0
   21.3465   18.1446  -23.7497 H   0  0  0  0  0  0  0  0  0  0  0  0
   20.0334   16.9188  -23.7497 H   0  0  0  0  0  0  0  0  0  0  0  0
   23.3022   16.9695  -21.4428 H   0  0  0  0  0  0  0  0  0  0  0  0
   24.0187   16.3232  -22.9579 H   0  0  0  0  0  0  0  0  0  0  0  0
   23.2168   17.9306  -22.9579 H   0  0  0  0  0  0  0  0  0  0  0  0
   22.3389   14.4110  -23.8573 H   0  0  0  0  0  0  0  0  0  0  0  0
   21.1547   15.4476  -24.7233 H   0  0  0  0  0  0  0  0  0  0  0  0
   22.8976   15.8823  -24.7233 H   0  0  0  0  0  0  0  0  0  0  0  0
 31 28  1  0
 29 28  1  0
 28 30  1  0
 28 27  1  0
 10 11  2  0
 10  9  1  0
 27 22  1  0
 11 12  1  0
  9  8  2  0
 22 21  1  0
 12  7  2  0
  8  7  1  0
 23 21  2  0
 21 20  1  0
  7  3  1  0
 20 17  1  0
  3  2  1  0
  3  4  2  0
 18 17  2  0
 18 19  1  0
 17 16  1  0
  2  1  2  0
  4  5  1  0
 19 14  2  0
 16 15  2  0
 14 15  1  0
 14 13  1  0
  1  6  1  0
  5 13  1  0
  5  6  2  0
  6 24  1  0
 24 26  1  0
 24 25  2  0
  1 32  1  0
  8 33  1  0
  9 34  1  0
 10 35  1  0
 11 36  1  0
 12 37  1  0
 13 38  1  0
 15 39  1  0
 16 40  1  0
 18 41  1  0
 19 42  1  0
 20 43  1  0
 20 44  1  0
 22 45  1  0
 26 46  1  0
 26 47  1  0
 27 48  1  0
 27 49  1  0
 29 50  1  0
 29 51  1  0
 29 52  1  0
 30 53  1  0
 30 54  1  0
 30 55  1  0
 31 56  1  0
 31 57  1  0
 31 58  1  0
A    1
C1
A    2
N1
A    3
C2
A    4
N2
A    5
C3
A    6
C4
A    7
C5
A    8
C6
A    9
C7
A   10
C8
A   11
C9
A   12
C10
A   13
N3
A   14
C11
A   15
C12
A   16
C13
A   17
C14
A   18
C15
A   19
C16
A   20
C17
A   21
C18
A   22
N4
A   23
O1
A   24
C19
A   25
O2
A   26
N5
A   27
C20
A   28
C21
A   29
C22
A   30
C23
A   31
C24
M  END
