3WEZ_N8V_A_706
     RDKit          3D

 49 49  0  0  0  0  0  0  0  0999 V2000
   -2.8730   -6.8670    4.3180 O   0  0  0  0  0  0  0  0  0  0  0  0
   -3.7500   -6.8130    5.4410 C   0  0  0  0  0  0  0  0  0  0  0  0
   -2.8170   -6.7370    6.6630 C   0  0  0  0  0  0  0  0  0  0  0  0
   -2.0900   -5.5010    6.6290 O   0  0  0  0  0  0  0  0  0  0  0  0
   -3.5750   -6.8790    7.9600 C   0  0  0  0  0  0  0  0  0  0  0  0
   -4.4400   -5.7460    8.1330 O   0  0  0  0  0  0  0  0  0  0  0  0
   -4.7380   -8.0130    5.4270 C   0  0  0  0  0  0  0  0  0  0  0  0
   -4.7230   -8.7330    6.7780 C   0  0  0  0  0  0  0  0  0  0  0  0
   -4.4330   -8.1140    7.9350 C   0  0  0  0  0  0  0  0  0  0  0  0
   -5.0380   -8.6560    9.2350 C   0  0  0  0  0  0  0  0  0  0  0  0
   -4.1440   -8.6630   10.3590 O   0  0  0  0  0  0  0  0  0  0  0  0
   -6.0880   -7.5680    5.0000 N   0  0  0  0  0  0  0  0  0  0  0  0
   -7.3040   -7.7690    5.7950 C   0  0  0  0  0  0  0  0  0  0  0  0
   -8.1590   -6.5460    6.1010 C   0  0  0  0  0  0  0  0  0  0  0  0
   -8.5170   -6.4040    7.5860 C   0  0  0  0  0  0  0  0  0  0  0  0
   -9.7640   -7.1900    8.0050 C   0  0  0  0  0  0  0  0  0  0  0  0
  -10.7610   -6.2820    8.7260 C   0  0  0  0  0  0  0  0  0  0  0  0
  -11.4190   -7.0340    9.8850 C   0  0  0  0  0  0  0  0  0  0  0  0
  -12.9080   -6.7380   10.0100 C   0  0  0  0  0  0  0  0  0  0  0  0
  -13.2310   -6.1440   11.3660 C   0  0  0  0  0  0  0  0  0  0  0  0
   -1.9363   -6.9247    4.6333 H   0  0  0  0  0  0  0  0  0  0  0  0
   -4.4211   -5.9414    5.4441 H   0  0  0  0  0  0  0  0  0  0  0  0
   -2.1114   -7.5794    6.6138 H   0  0  0  0  0  0  0  0  0  0  0  0
   -1.9115   -5.1976    7.5543 H   0  0  0  0  0  0  0  0  0  0  0  0
   -2.8463   -6.9464    8.7812 H   0  0  0  0  0  0  0  0  0  0  0  0
   -4.5706   -5.5750    9.0993 H   0  0  0  0  0  0  0  0  0  0  0  0
   -4.4123   -8.7545    4.6827 H   0  0  0  0  0  0  0  0  0  0  0  0
   -4.9606   -9.8067    6.8028 H   0  0  0  0  0  0  0  0  0  0  0  0
   -5.9074   -8.0335    9.4933 H   0  0  0  0  0  0  0  0  0  0  0  0
   -5.2986   -9.7068    9.0404 H   0  0  0  0  0  0  0  0  0  0  0  0
   -4.6690   -8.6589   11.1983 H   0  0  0  0  0  0  0  0  0  0  0  0
   -6.0142   -6.5511    4.8537 H   0  0  0  0  0  0  0  0  0  0  0  0
   -7.9375   -8.4853    5.2513 H   0  0  0  0  0  0  0  0  0  0  0  0
   -6.9419   -8.1083    6.7767 H   0  0  0  0  0  0  0  0  0  0  0  0
   -7.6058   -5.6479    5.7890 H   0  0  0  0  0  0  0  0  0  0  0  0
   -9.1040   -6.6668    5.5511 H   0  0  0  0  0  0  0  0  0  0  0  0
   -7.6654   -6.7627    8.1828 H   0  0  0  0  0  0  0  0  0  0  0  0
   -8.7382   -5.3405    7.7595 H   0  0  0  0  0  0  0  0  0  0  0  0
  -10.2427   -7.6114    7.1088 H   0  0  0  0  0  0  0  0  0  0  0  0
   -9.4599   -7.9946    8.6907 H   0  0  0  0  0  0  0  0  0  0  0  0
  -10.2320   -5.4009    9.1183 H   0  0  0  0  0  0  0  0  0  0  0  0
  -11.5390   -5.9674    8.0148 H   0  0  0  0  0  0  0  0  0  0  0  0
  -11.2876   -8.1141    9.7231 H   0  0  0  0  0  0  0  0  0  0  0  0
  -10.9353   -6.6993   10.8145 H   0  0  0  0  0  0  0  0  0  0  0  0
  -13.2000   -6.0242    9.2257 H   0  0  0  0  0  0  0  0  0  0  0  0
  -13.4635   -7.6809    9.8988 H   0  0  0  0  0  0  0  0  0  0  0  0
  -12.8658   -6.8156   12.1569 H   0  0  0  0  0  0  0  0  0  0  0  0
  -12.7418   -5.1635   11.4627 H   0  0  0  0  0  0  0  0  0  0  0  0
  -14.3199   -6.0216   11.4627 H   0  0  0  0  0  0  0  0  0  0  0  0
  1  2  1  0
 12  7  1  0
 12 13  1  0
  7  2  1  0
  7  8  1  0
  2  3  1  0
 13 14  1  0
 14 15  1  0
  4  3  1  0
  3  5  1  0
  8  9  2  0
 15 16  1  0
  9  5  1  0
  9 10  1  0
  5  6  1  0
 16 17  1  0
 17 18  1  0
 10 11  1  0
 18 19  1  0
 19 20  1  0
  1 21  1  0
  2 22  1  0
  3 23  1  0
  4 24  1  0
  5 25  1  0
  6 26  1  0
  7 27  1  0
  8 28  1  0
 10 29  1  0
 10 30  1  0
 11 31  1  0
 12 32  1  0
 13 33  1  0
 13 34  1  0
 14 35  1  0
 14 36  1  0
 15 37  1  0
 15 38  1  0
 16 39  1  0
 16 40  1  0
 17 41  1  0
 17 42  1  0
 18 43  1  0
 18 44  1  0
 19 45  1  0
 19 46  1  0
 20 47  1  0
 20 48  1  0
 20 49  1  0
A    1
O2
A    2
C2
A    3
C3
A    4
O3
A    5
C4
A    6
O4
A    7
C1
A    8
C7
A    9
C5
A   10
C6
A   11
O6
A   12
N8
A   13
C9
A   14
C10
A   15
C11
A   16
C12
A   17
C13
A   18
C14
A   19
C15
A   20
C16
M  END
