3WF0_6DJ_A_706
     RDKit          3D

 37 38  0  0  0  0  0  0  0  0999 V2000
   -2.4740   -6.5930    4.1280 O   0  0  0  0  0  0  0  0  0  0  0  0
   -3.3730   -6.5050    5.2420 C   0  0  0  0  0  0  0  0  0  0  0  0
   -2.5690   -6.5080    6.5470 C   0  0  0  0  0  0  0  0  0  0  0  0
   -1.8540   -5.2530    6.6140 O   0  0  0  0  0  0  0  0  0  0  0  0
   -4.3320   -7.6880    5.1300 C   0  0  0  0  0  0  0  0  0  0  0  0
   -5.1240   -7.6770    6.3440 N   0  0  0  0  0  0  0  0  0  0  0  0
   -4.3360   -8.0340    7.5250 C   0  0  0  0  0  0  0  0  0  0  0  0
   -3.4640   -6.7860    7.7650 C   0  0  0  0  0  0  0  0  0  0  0  0
   -4.3290   -5.6720    7.9660 O   0  0  0  0  0  0  0  0  0  0  0  0
   -6.9690   -7.5310    8.1160 S   0  0  0  0  0  0  0  0  0  0  0  0
   -5.4100   -8.2620    8.5940 C   0  0  0  0  0  0  0  0  0  0  0  0
   -6.4160   -7.4010    6.5200 C   0  0  0  0  0  0  0  0  0  0  0  0
   -7.1370   -7.0770    5.5280 N   0  0  0  0  0  0  0  0  0  0  0  0
   -8.5690   -6.7780    5.4810 C   0  0  0  0  0  0  0  0  0  0  0  0
   -9.2450   -8.1480    5.1760 C   0  0  0  0  0  0  0  0  0  0  0  0
  -10.7780   -8.0800    5.2600 C   0  0  0  0  0  0  0  0  0  0  0  0
  -11.4440   -9.3790    5.6990 C   0  0  0  0  0  0  0  0  0  0  0  0
   -1.5456   -6.6839    4.4595 H   0  0  0  0  0  0  0  0  0  0  0  0
   -3.9556   -5.5720    5.2405 H   0  0  0  0  0  0  0  0  0  0  0  0
   -1.8383   -7.3301    6.5619 H   0  0  0  0  0  0  0  0  0  0  0  0
   -1.7122   -5.0042    7.5617 H   0  0  0  0  0  0  0  0  0  0  0  0
   -4.9808   -7.5719    4.2494 H   0  0  0  0  0  0  0  0  0  0  0  0
   -3.7887   -8.6372    5.0121 H   0  0  0  0  0  0  0  0  0  0  0  0
   -3.6798   -8.9157    7.4796 H   0  0  0  0  0  0  0  0  0  0  0  0
   -2.8220   -6.9525    8.6425 H   0  0  0  0  0  0  0  0  0  0  0  0
   -4.4486   -5.5180    8.9366 H   0  0  0  0  0  0  0  0  0  0  0  0
   -5.5502   -9.3438    8.7358 H   0  0  0  0  0  0  0  0  0  0  0  0
   -5.0760   -7.7866    9.5280 H   0  0  0  0  0  0  0  0  0  0  0  0
   -8.7882   -6.0508    4.6853 H   0  0  0  0  0  0  0  0  0  0  0  0
   -8.9336   -6.3316    6.4179 H   0  0  0  0  0  0  0  0  0  0  0  0
   -8.8844   -8.8891    5.9045 H   0  0  0  0  0  0  0  0  0  0  0  0
   -8.9790   -8.4299    4.1465 H   0  0  0  0  0  0  0  0  0  0  0  0
  -11.0483   -7.2943    5.9809 H   0  0  0  0  0  0  0  0  0  0  0  0
  -11.1387   -7.8713    4.2420 H   0  0  0  0  0  0  0  0  0  0  0  0
  -11.4679   -9.4257    6.7977 H   0  0  0  0  0  0  0  0  0  0  0  0
  -12.4716   -9.4146    5.3080 H   0  0  0  0  0  0  0  0  0  0  0  0
  -10.8731  -10.2341    5.3080 H   0  0  0  0  0  0  0  0  0  0  0  0
  1  2  1  0
 16 15  1  0
 16 17  1  0
  5  2  1  0
  5  6  1  0
 15 14  1  0
  2  3  1  0
 14 13  1  0
 13 12  2  0
  6 12  1  0
  6  7  1  0
 12 10  1  0
  3  4  1  0
  3  8  1  0
  7  8  1  0
  7 11  1  0
  8  9  1  0
 10 11  1  0
  1 18  1  0
  2 19  1  0
  3 20  1  0
  4 21  1  0
  5 22  1  0
  5 23  1  0
  7 24  1  0
  8 25  1  0
  9 26  1  0
 11 27  1  0
 11 28  1  0
 14 29  1  0
 14 30  1  0
 15 31  1  0
 15 32  1  0
 16 33  1  0
 16 34  1  0
 17 35  1  0
 17 36  1  0
 17 37  1  0
A    1
O2
A    2
C2
A    3
C3
A    4
O3
A    5
C1
A    6
N5
A    7
C5
A    8
C4
A    9
O4
A   10
S6
A   11
C6
A   12
C7
A   13
N8
A   14
C9
A   15
C10
A   16
C11
A   17
C12
M  END
