3WF2_NDJ_A_706
     RDKit          3D

 40 40  0  0  0  0  0  0  0  0999 V2000
   -2.7070  -21.2310    4.2540 O   0  0  0  0  0  0  0  0  0  0  0  0
   -3.5950  -21.1650    5.3880 C   0  0  0  0  0  0  0  0  0  0  0  0
   -2.7640  -21.1130    6.6950 C   0  0  0  0  0  0  0  0  0  0  0  0
   -2.0890  -19.8600    6.8350 O   0  0  0  0  0  0  0  0  0  0  0  0
   -4.5530  -22.3900    5.3200 C   0  0  0  0  0  0  0  0  0  0  0  0
   -5.3910  -22.3120    6.5090 N   0  0  0  0  0  0  0  0  0  0  0  0
   -4.5240  -22.6280    7.7030 C   0  0  0  0  0  0  0  0  0  0  0  0
   -5.2670  -22.8160    9.0240 C   0  0  0  0  0  0  0  0  0  0  0  0
   -4.4100  -23.0150   10.1980 O   0  0  0  0  0  0  0  0  0  0  0  0
   -3.6580  -21.3590    7.8840 C   0  0  0  0  0  0  0  0  0  0  0  0
   -4.5600  -20.2300    8.0720 O   0  0  0  0  0  0  0  0  0  0  0  0
   -6.7100  -21.8420    6.4410 C   0  0  0  0  0  0  0  0  0  0  0  0
   -7.1720  -20.9940    7.4120 N   0  0  0  0  0  0  0  0  0  0  0  0
   -7.7380  -22.1980    5.2240 S   0  0  0  0  0  0  0  0  0  0  0  0
   -8.5400  -20.4730    7.5180 C   0  0  0  0  0  0  0  0  0  0  0  0
   -9.2920  -21.0810    8.7100 C   0  0  0  0  0  0  0  0  0  0  0  0
  -10.6930  -20.4970    8.9050 C   0  0  0  0  0  0  0  0  0  0  0  0
  -11.3670  -21.0150   10.1690 C   0  0  0  0  0  0  0  0  0  0  0  0
   -1.7717  -21.3005    4.5709 H   0  0  0  0  0  0  0  0  0  0  0  0
   -4.2082  -20.2519    5.3729 H   0  0  0  0  0  0  0  0  0  0  0  0
   -2.0000  -21.9029    6.6449 H   0  0  0  0  0  0  0  0  0  0  0  0
   -1.9766  -19.6513    7.7962 H   0  0  0  0  0  0  0  0  0  0  0  0
   -5.1723  -22.3408    4.4122 H   0  0  0  0  0  0  0  0  0  0  0  0
   -3.9940  -23.3366    5.2829 H   0  0  0  0  0  0  0  0  0  0  0  0
   -4.0006  -23.5748    7.5038 H   0  0  0  0  0  0  0  0  0  0  0  0
   -5.8822  -21.9211    9.1991 H   0  0  0  0  0  0  0  0  0  0  0  0
   -5.8560  -23.7386    8.9152 H   0  0  0  0  0  0  0  0  0  0  0  0
   -4.9448  -22.8908   11.0218 H   0  0  0  0  0  0  0  0  0  0  0  0
   -3.0003  -21.4910    8.7558 H   0  0  0  0  0  0  0  0  0  0  0  0
   -4.6891  -20.0684    9.0402 H   0  0  0  0  0  0  0  0  0  0  0  0
   -6.4992  -20.6951    8.1324 H   0  0  0  0  0  0  0  0  0  0  0  0
   -8.4962  -19.3812    7.6444 H   0  0  0  0  0  0  0  0  0  0  0  0
   -9.0806  -20.7439    6.5991 H   0  0  0  0  0  0  0  0  0  0  0  0
   -9.3853  -22.1649    8.5476 H   0  0  0  0  0  0  0  0  0  0  0  0
   -8.7125  -20.8452    9.6147 H   0  0  0  0  0  0  0  0  0  0  0  0
  -10.6133  -19.4019    8.9705 H   0  0  0  0  0  0  0  0  0  0  0  0
  -11.3076  -20.8056    8.0465 H   0  0  0  0  0  0  0  0  0  0  0  0
  -10.8469  -20.6153   11.0520 H   0  0  0  0  0  0  0  0  0  0  0  0
  -12.4177  -20.6898   10.1839 H   0  0  0  0  0  0  0  0  0  0  0  0
  -11.3231  -22.1140   10.1839 H   0  0  0  0  0  0  0  0  0  0  0  0
  1  2  1  0
 14 12  2  0
  5  2  1  0
  5  6  1  0
  2  3  1  0
 12  6  1  0
 12 13  1  0
  6  7  1  0
  3  4  1  0
  3 10  1  0
 13 15  1  0
 15 16  1  0
  7 10  1  0
  7  8  1  0
 10 11  1  0
 16 17  1  0
 17 18  1  0
  8  9  1  0
  1 19  1  0
  2 20  1  0
  3 21  1  0
  4 22  1  0
  5 23  1  0
  5 24  1  0
  7 25  1  0
  8 26  1  0
  8 27  1  0
  9 28  1  0
 10 29  1  0
 11 30  1  0
 13 31  1  0
 15 32  1  0
 15 33  1  0
 16 34  1  0
 16 35  1  0
 17 36  1  0
 17 37  1  0
 18 38  1  0
 18 39  1  0
 18 40  1  0
A    1
O2
A    2
C2
A    3
C3
A    4
O3
A    5
C1
A    6
N5
A    7
C5
A    8
C6
A    9
O6
A   10
C4
A   11
O4
A   12
C7
A   13
N8
A   14
S7
A   15
C9
A   16
C10
A   17
C11
A   18
C12
M  END
