3WF5_FZ8_A_402
     RDKit          3D

 41 45  0  0  0  0  0  0  0  0999 V2000
  -13.1510    7.1800  -14.8580 N   0  0  0  0  0  0  0  0  0  0  0  0
  -13.4170    8.3490  -15.4210 C   0  0  0  0  0  0  0  0  0  0  0  0
  -13.4410    9.5790  -14.8610 N   0  0  0  0  0  0  0  0  0  0  0  0
  -13.1640    9.6770  -13.5500 C   0  0  0  0  0  0  0  0  0  0  0  0
  -13.2170   10.9450  -12.9280 N   0  0  0  0  0  0  0  0  0  0  0  0
  -13.0560   12.1910  -13.7480 C   0  0  0  0  0  0  0  0  0  0  0  0
  -12.0490   13.1250  -13.0700 C   0  0  0  0  0  0  0  0  0  0  0  0
  -12.1570   13.3600  -11.5430 C   0  0  0  0  0  0  0  0  0  0  0  0
  -11.0440   14.1540  -11.0110 C   0  0  0  0  0  0  0  0  0  0  0  0
  -10.8190   15.4340  -11.5810 N   0  0  0  0  0  0  0  0  0  0  0  0
   -9.6880   15.9640  -10.9210 C   0  0  0  0  0  0  0  0  0  0  0  0
   -9.0210   17.1960  -11.0570 C   0  0  0  0  0  0  0  0  0  0  0  0
   -7.9260   17.3810  -10.2380 C   0  0  0  0  0  0  0  0  0  0  0  0
   -7.5010   16.4070   -9.3180 C   0  0  0  0  0  0  0  0  0  0  0  0
   -8.1630   15.2130   -9.1790 C   0  0  0  0  0  0  0  0  0  0  0  0
   -9.2840   14.9780   -9.9940 C   0  0  0  0  0  0  0  0  0  0  0  0
  -10.1440   13.8650  -10.0770 N   0  0  0  0  0  0  0  0  0  0  0  0
  -12.5060   12.0390  -10.8840 C   0  0  0  0  0  0  0  0  0  0  0  0
  -13.5360   11.1140  -11.4980 C   0  0  0  0  0  0  0  0  0  0  0  0
  -12.8730    8.5180  -12.8120 C   0  0  0  0  0  0  0  0  0  0  0  0
  -12.5200    8.1550  -11.4620 C   0  0  0  0  0  0  0  0  0  0  0  0
  -12.3430    6.8160  -11.3730 N   0  0  0  0  0  0  0  0  0  0  0  0
  -12.5570    6.2930  -12.6130 N   0  0  0  0  0  0  0  0  0  0  0  0
  -12.8820    7.2910  -13.5180 C   0  0  0  0  0  0  0  0  0  0  0  0
  -13.6513    8.3140  -16.4952 H   0  0  0  0  0  0  0  0  0  0  0  0
  -14.0271   12.7004  -13.8347 H   0  0  0  0  0  0  0  0  0  0  0  0
  -12.6897   11.9242  -14.7503 H   0  0  0  0  0  0  0  0  0  0  0  0
  -11.0470   12.7145  -13.2634 H   0  0  0  0  0  0  0  0  0  0  0  0
  -12.2670   14.1111  -13.5060 H   0  0  0  0  0  0  0  0  0  0  0  0
  -12.9893   14.0295  -11.2802 H   0  0  0  0  0  0  0  0  0  0  0  0
  -11.3692   15.8854  -12.3256 H   0  0  0  0  0  0  0  0  0  0  0  0
   -9.3521   17.9637  -11.7718 H   0  0  0  0  0  0  0  0  0  0  0  0
   -7.3654   18.3249  -10.3076 H   0  0  0  0  0  0  0  0  0  0  0  0
   -6.6169   16.6066   -8.6947 H   0  0  0  0  0  0  0  0  0  0  0  0
   -7.8260   14.4610   -8.4504 H   0  0  0  0  0  0  0  0  0  0  0  0
  -11.5699   11.4653  -10.8164 H   0  0  0  0  0  0  0  0  0  0  0  0
  -12.9886   12.3538   -9.9470 H   0  0  0  0  0  0  0  0  0  0  0  0
  -14.5394   11.5518  -11.3905 H   0  0  0  0  0  0  0  0  0  0  0  0
  -13.5188   10.1388  -10.9893 H   0  0  0  0  0  0  0  0  0  0  0  0
  -12.4106    8.8625  -10.6268 H   0  0  0  0  0  0  0  0  0  0  0  0
  -12.4868    5.2922  -12.8460 H   0  0  0  0  0  0  0  0  0  0  0  0
  2  1  2  0
  2  3  1  0
  1 24  1  0
  3  4  2  0
  6  7  1  0
  6  5  1  0
  4  5  1  0
  4 20  1  0
 24 20  2  0
 24 23  1  0
  7  8  1  0
  5 19  1  0
 20 21  1  0
 23 22  1  0
 10  9  1  0
 10 11  1  0
  8  9  1  0
  8 18  1  0
 19 18  1  0
 21 22  2  0
 12 11  2  0
 12 13  1  0
  9 17  2  0
 11 16  1  0
 13 14  2  0
 17 16  1  0
 16 15  2  0
 14 15  1  0
  2 25  1  0
  6 26  1  0
  6 27  1  0
  7 28  1  0
  7 29  1  0
  8 30  1  0
 10 31  1  0
 12 32  1  0
 13 33  1  0
 14 34  1  0
 15 35  1  0
 18 36  1  0
 18 37  1  0
 19 38  1  0
 19 39  1  0
 21 40  1  0
 23 41  1  0
A    1
N01
A    2
C02
A    3
N03
A    4
C04
A    5
N05
A    6
C06
A    7
C07
A    8
C08
A    9
C09
A   10
N10
A   11
C11
A   12
C12
A   13
C13
A   14
C14
A   15
C15
A   16
C16
A   17
N17
A   18
C18
A   19
C19
A   20
C20
A   21
C21
A   22
N22
A   23
N23
A   24
C24
M  END
