3WF6_FZ9_A_402
     RDKit          3D

 40 44  0  0  0  0  0  0  0  0999 V2000
    7.2240  -13.3080   15.0940 N   0  0  0  0  0  0  0  0  0  0  0  0
    8.4280  -13.4240   15.6520 C   0  0  0  0  0  0  0  0  0  0  0  0
    9.6410  -13.2620   15.1040 N   0  0  0  0  0  0  0  0  0  0  0  0
    9.7020  -12.9480   13.8060 C   0  0  0  0  0  0  0  0  0  0  0  0
   10.9700  -12.7780   13.2230 N   0  0  0  0  0  0  0  0  0  0  0  0
   11.1550  -12.3820   11.7720 C   0  0  0  0  0  0  0  0  0  0  0  0
   12.3560  -11.5960   11.4690 C   0  0  0  0  0  0  0  0  0  0  0  0
   13.4760  -11.7070   12.1810 C   0  0  0  0  0  0  0  0  0  0  0  0
   14.6630  -10.9260   11.8970 C   0  0  0  0  0  0  0  0  0  0  0  0
   14.8490   -9.8060   11.0080 C   0  0  0  0  0  0  0  0  0  0  0  0
   14.0300   -9.0960   10.1160 C   0  0  0  0  0  0  0  0  0  0  0  0
   14.5500   -8.0450    9.3920 C   0  0  0  0  0  0  0  0  0  0  0  0
   15.8970   -7.6620    9.5170 C   0  0  0  0  0  0  0  0  0  0  0  0
   16.7430   -8.3380   10.3610 C   0  0  0  0  0  0  0  0  0  0  0  0
   16.2060   -9.4070   11.1010 C   0  0  0  0  0  0  0  0  0  0  0  0
   16.8290  -10.2400   12.0340 N   0  0  0  0  0  0  0  0  0  0  0  0
   15.8810  -11.1550   12.5050 C   0  0  0  0  0  0  0  0  0  0  0  0
   13.5230  -12.6770   13.3100 C   0  0  0  0  0  0  0  0  0  0  0  0
   12.1980  -12.8870   14.0330 C   0  0  0  0  0  0  0  0  0  0  0  0
    8.4990  -12.7930   13.0590 C   0  0  0  0  0  0  0  0  0  0  0  0
    8.0730  -12.5000   11.7280 C   0  0  0  0  0  0  0  0  0  0  0  0
    6.7310  -12.5070   11.6450 N   0  0  0  0  0  0  0  0  0  0  0  0
    6.2540  -12.8070   12.8840 N   0  0  0  0  0  0  0  0  0  0  0  0
    7.2840  -12.9950   13.7740 C   0  0  0  0  0  0  0  0  0  0  0  0
    8.4270  -13.6920   16.7189 H   0  0  0  0  0  0  0  0  0  0  0  0
   10.2792  -11.7885   11.4706 H   0  0  0  0  0  0  0  0  0  0  0  0
   11.2704  -13.3258   11.2190 H   0  0  0  0  0  0  0  0  0  0  0  0
   12.6272  -11.8381   10.4308 H   0  0  0  0  0  0  0  0  0  0  0  0
   12.0290  -10.5751   11.7155 H   0  0  0  0  0  0  0  0  0  0  0  0
   12.9738   -9.3784    9.9950 H   0  0  0  0  0  0  0  0  0  0  0  0
   13.8963   -7.4932    8.7005 H   0  0  0  0  0  0  0  0  0  0  0  0
   16.2772   -6.8114    8.9322 H   0  0  0  0  0  0  0  0  0  0  0  0
   17.8016   -8.0542   10.4551 H   0  0  0  0  0  0  0  0  0  0  0  0
   17.8158  -10.1892   12.3248 H   0  0  0  0  0  0  0  0  0  0  0  0
   16.0772  -11.9406   13.2496 H   0  0  0  0  0  0  0  0  0  0  0  0
   14.4448  -13.2024   13.6002 H   0  0  0  0  0  0  0  0  0  0  0  0
   12.1346  -12.1366   14.8348 H   0  0  0  0  0  0  0  0  0  0  0  0
   12.2221  -13.9315   14.3772 H   0  0  0  0  0  0  0  0  0  0  0  0
    8.7503  -12.2963   10.8855 H   0  0  0  0  0  0  0  0  0  0  0  0
    5.2549  -12.8829   13.1225 H   0  0  0  0  0  0  0  0  0  0  0  0
 12 13  1  0
 12 11  2  0
 13 14  2  0
 11 10  1  0
 14 15  1  0
 10 15  2  0
 10  9  1  0
 15 16  1  0
  7  6  1  0
  7  8  1  0
 22 21  2  0
 22 23  1  0
 21 20  1  0
  6  5  1  0
  9  8  1  0
  9 17  2  0
 16 17  1  0
  8 18  2  0
 23 24  1  0
 20 24  1  0
 20  4  2  0
  5  4  1  0
  5 19  1  0
 18 19  1  0
 24  1  2  0
  4  3  1  0
  1  2  1  0
  3  2  2  0
  2 25  1  0
  6 26  1  0
  6 27  1  0
  7 28  1  0
  7 29  1  0
 11 30  1  0
 12 31  1  0
 13 32  1  0
 14 33  1  0
 16 34  1  0
 17 35  1  0
 18 36  1  0
 19 37  1  0
 19 38  1  0
 21 39  1  0
 23 40  1  0
A    1
N01
A    2
C02
A    3
N03
A    4
C04
A    5
N05
A    6
C06
A    7
C07
A    8
C08
A    9
C09
A   10
C10
A   11
C11
A   12
C12
A   13
C13
A   14
C14
A   15
C15
A   16
N16
A   17
C17
A   18
C18
A   19
C19
A   20
C20
A   21
C21
A   22
N22
A   23
N23
A   24
C24
M  END
