3WF8_F76_A_402
     RDKit          3D

 55 58  0  0  0  0  0  0  0  0999 V2000
   -3.9230   14.6280  -30.6320 N   0  0  0  0  0  0  0  0  0  0  0  0
   -3.6930   15.9200  -30.1150 C   0  0  0  0  0  0  0  0  0  0  0  0
   -4.6980   16.5640  -29.3350 C   0  0  0  0  0  0  0  0  0  0  0  0
   -4.4580   17.8460  -28.8380 C   0  0  0  0  0  0  0  0  0  0  0  0
   -3.2440   18.5000  -29.1050 C   0  0  0  0  0  0  0  0  0  0  0  0
   -2.2610   17.8780  -29.8710 C   0  0  0  0  0  0  0  0  0  0  0  0
   -2.5040   16.5620  -30.3710 C   0  0  0  0  0  0  0  0  0  0  0  0
   -1.5230   15.9210  -31.1430 C   0  0  0  0  0  0  0  0  0  0  0  0
   -0.2650   16.6720  -31.4220 C   0  0  0  0  0  0  0  0  0  0  0  0
   -0.2230   17.3370  -32.4460 O   0  0  0  0  0  0  0  0  0  0  0  0
    0.8340   16.6530  -30.5920 O   0  0  0  0  0  0  0  0  0  0  0  0
    1.8960   17.4410  -31.0090 C   0  0  0  0  0  0  0  0  0  0  0  0
    2.6160   16.9950  -32.2500 C   0  0  0  0  0  0  0  0  0  0  0  0
    2.2610   15.9500  -32.7840 O   0  0  0  0  0  0  0  0  0  0  0  0
    3.6780   17.8090  -32.7850 N   0  0  0  0  0  0  0  0  0  0  0  0
    4.4400   17.4790  -33.9660 C   0  0  0  0  0  0  0  0  0  0  0  0
    5.6150   18.1740  -34.1790 C   0  0  0  0  0  0  0  0  0  0  0  0
    6.3870   17.9090  -35.3000 C   0  0  0  0  0  0  0  0  0  0  0  0
    5.9910   16.9550  -36.2240 C   0  0  0  0  0  0  0  0  0  0  0  0
    7.0140   16.6320  -37.6300 S   0  0  0  0  0  0  0  0  0  0  0  0
    7.7950   17.7830  -37.9860 O   0  0  0  0  0  0  0  0  0  0  0  0
    6.2110   16.3510  -38.7740 O   0  0  0  0  0  0  0  0  0  0  0  0
    7.9570   15.3460  -37.3060 N   0  0  0  0  0  0  0  0  0  0  0  0
    4.8100   16.2540  -36.0290 C   0  0  0  0  0  0  0  0  0  0  0  0
    4.0360   16.5250  -34.9000 C   0  0  0  0  0  0  0  0  0  0  0  0
   -1.7330   14.6270  -31.6620 C   0  0  0  0  0  0  0  0  0  0  0  0
   -0.6490   13.9800  -32.5050 C   0  0  0  0  0  0  0  0  0  0  0  0
   -0.1310   12.6620  -32.0150 C   0  0  0  0  0  0  0  0  0  0  0  0
   -1.0200   11.4920  -32.2720 C   0  0  0  0  0  0  0  0  0  0  0  0
   -2.3150   11.5190  -31.5250 C   0  0  0  0  0  0  0  0  0  0  0  0
   -3.2770   12.5930  -31.9000 C   0  0  0  0  0  0  0  0  0  0  0  0
   -2.9450   13.9820  -31.3970 C   0  0  0  0  0  0  0  0  0  0  0  0
   -5.6515   16.0563  -29.1273 H   0  0  0  0  0  0  0  0  0  0  0  0
   -5.2263   18.3485  -28.2320 H   0  0  0  0  0  0  0  0  0  0  0  0
   -3.0684   19.5101  -28.7065 H   0  0  0  0  0  0  0  0  0  0  0  0
   -1.3128   18.3918  -30.0875 H   0  0  0  0  0  0  0  0  0  0  0  0
    2.6299   17.4729  -30.1903 H   0  0  0  0  0  0  0  0  0  0  0  0
    1.4528   18.4149  -31.2642 H   0  0  0  0  0  0  0  0  0  0  0  0
    3.9086   18.6837  -32.2925 H   0  0  0  0  0  0  0  0  0  0  0  0
    5.9387   18.9390  -33.4579 H   0  0  0  0  0  0  0  0  0  0  0  0
    7.3245   18.4624  -35.4577 H   0  0  0  0  0  0  0  0  0  0  0  0
    8.0416   15.2306  -36.2860 H   0  0  0  0  0  0  0  0  0  0  0  0
    7.5349   14.4994  -37.7135 H   0  0  0  0  0  0  0  0  0  0  0  0
    4.4875   15.4937  -36.7556 H   0  0  0  0  0  0  0  0  0  0  0  0
    3.0940   15.9786  -34.7444 H   0  0  0  0  0  0  0  0  0  0  0  0
    0.2001   14.6776  -32.5537 H   0  0  0  0  0  0  0  0  0  0  0  0
   -1.1174   13.7700  -33.4779 H   0  0  0  0  0  0  0  0  0  0  0  0
    0.8332   12.4711  -32.5088 H   0  0  0  0  0  0  0  0  0  0  0  0
   -0.0559   12.7524  -30.9213 H   0  0  0  0  0  0  0  0  0  0  0  0
   -1.2452   11.4619  -33.3483 H   0  0  0  0  0  0  0  0  0  0  0  0
   -0.4755   10.6032  -31.9204 H   0  0  0  0  0  0  0  0  0  0  0  0
   -2.8141   10.5521  -31.6865 H   0  0  0  0  0  0  0  0  0  0  0  0
   -2.0432   11.7241  -30.4790 H   0  0  0  0  0  0  0  0  0  0  0  0
   -3.3248   12.6345  -32.9982 H   0  0  0  0  0  0  0  0  0  0  0  0
   -4.2288   12.3217  -31.4199 H   0  0  0  0  0  0  0  0  0  0  0  0
 22 20  2  0
 21 20  2  0
 20 23  1  0
 20 19  1  0
 19 24  2  0
 19 18  1  0
 24 25  1  0
 18 17  2  0
 25 16  2  0
 17 16  1  0
 16 15  1  0
 15 13  1  0
 14 13  2  0
 27 28  1  0
 27 26  1  0
 10  9  2  0
 13 12  1  0
 29 28  1  0
 29 30  1  0
 31 30  1  0
 31 32  1  0
 26 32  1  0
 26  8  2  0
  9  8  1  0
  9 11  1  0
 32  1  2  0
  8  7  1  0
 12 11  1  0
  1  2  1  0
  7  2  2  0
  7  6  1  0
  2  3  1  0
  6  5  2  0
  3  4  2  0
  5  4  1  0
  3 33  1  0
  4 34  1  0
  5 35  1  0
  6 36  1  0
 12 37  1  0
 12 38  1  0
 15 39  1  0
 17 40  1  0
 18 41  1  0
 23 42  1  0
 23 43  1  0
 24 44  1  0
 25 45  1  0
 27 46  1  0
 27 47  1  0
 28 48  1  0
 28 49  1  0
 29 50  1  0
 29 51  1  0
 30 52  1  0
 30 53  1  0
 31 54  1  0
 31 55  1  0
A    1
N01
A    2
C02
A    3
C03
A    4
C04
A    5
C05
A    6
C06
A    7
C07
A    8
C08
A    9
C09
A   10
O10
A   11
O11
A   12
C12
A   13
C13
A   14
O14
A   15
N15
A   16
C16
A   17
C17
A   18
C18
A   19
C19
A   20
S20
A   21
O21
A   22
O22
A   23
N23
A   24
C24
A   25
C25
A   26
C26
A   27
C27
A   28
C28
A   29
C29
A   30
C30
A   31
C31
A   32
C32
M  END
