3WF9_FS7_A_402
     RDKit          3D

 58 61  0  0  0  0  0  0  0  0999 V2000
  -28.3420  -17.5330    0.9210 N   0  0  0  0  0  0  0  0  0  0  0  0
  -28.1500  -16.2170    1.3970 C   0  0  0  0  0  0  0  0  0  0  0  0
  -29.1930  -15.5740    2.1350 C   0  0  0  0  0  0  0  0  0  0  0  0
  -28.9830  -14.2710    2.5990 C   0  0  0  0  0  0  0  0  0  0  0  0
  -27.7670  -13.6080    2.3490 C   0  0  0  0  0  0  0  0  0  0  0  0
  -26.7440  -14.2380    1.6270 C   0  0  0  0  0  0  0  0  0  0  0  0
  -26.9600  -15.5690    1.1530 C   0  0  0  0  0  0  0  0  0  0  0  0
  -25.9630  -16.2330    0.4180 C   0  0  0  0  0  0  0  0  0  0  0  0
  -24.6730  -15.5180    0.1420 C   0  0  0  0  0  0  0  0  0  0  0  0
  -24.5560  -14.8840   -0.8950 O   0  0  0  0  0  0  0  0  0  0  0  0
  -23.5290  -15.9100    0.8260 O   0  0  0  0  0  0  0  0  0  0  0  0
  -22.4230  -15.0930    0.6410 C   0  0  0  0  0  0  0  0  0  0  0  0
  -21.5130  -14.9930    1.8320 C   0  0  0  0  0  0  0  0  0  0  0  0
  -21.7310  -15.4350   -0.6680 C   0  0  0  0  0  0  0  0  0  0  0  0
  -22.0840  -16.4470   -1.2540 O   0  0  0  0  0  0  0  0  0  0  0  0
  -20.6860  -14.5590   -1.1730 N   0  0  0  0  0  0  0  0  0  0  0  0
  -19.9580  -14.8490   -2.4010 C   0  0  0  0  0  0  0  0  0  0  0  0
  -20.3800  -15.8250   -3.3070 C   0  0  0  0  0  0  0  0  0  0  0  0
  -19.6450  -16.0910   -4.4590 C   0  0  0  0  0  0  0  0  0  0  0  0
  -18.4850  -15.3680   -4.6770 C   0  0  0  0  0  0  0  0  0  0  0  0
  -17.5180  -15.6770   -6.1110 S   0  0  0  0  0  0  0  0  0  0  0  0
  -16.7270  -14.5350   -6.4280 O   0  0  0  0  0  0  0  0  0  0  0  0
  -18.3720  -15.8720   -7.2540 O   0  0  0  0  0  0  0  0  0  0  0  0
  -16.5750  -16.9840   -5.8450 N   0  0  0  0  0  0  0  0  0  0  0  0
  -18.0580  -14.4110   -3.7760 C   0  0  0  0  0  0  0  0  0  0  0  0
  -18.7960  -14.1430   -2.6230 C   0  0  0  0  0  0  0  0  0  0  0  0
  -26.1560  -17.5570   -0.0660 C   0  0  0  0  0  0  0  0  0  0  0  0
  -25.0640  -18.2070   -0.8230 C   0  0  0  0  0  0  0  0  0  0  0  0
  -25.4210  -19.4410   -1.5560 C   0  0  0  0  0  0  0  0  0  0  0  0
  -24.1780  -20.2360   -1.8370 C   0  0  0  0  0  0  0  0  0  0  0  0
  -26.4440  -20.3270   -0.9260 C   0  0  0  0  0  0  0  0  0  0  0  0
  -27.6410  -19.6200   -0.2870 C   0  0  0  0  0  0  0  0  0  0  0  0
  -27.3440  -18.1910    0.1940 C   0  0  0  0  0  0  0  0  0  0  0  0
  -30.1418  -16.0939    2.3338 H   0  0  0  0  0  0  0  0  0  0  0  0
  -29.7759  -13.7598    3.1647 H   0  0  0  0  0  0  0  0  0  0  0  0
  -27.6179  -12.5847    2.7241 H   0  0  0  0  0  0  0  0  0  0  0  0
  -25.7946  -13.7188    1.4293 H   0  0  0  0  0  0  0  0  0  0  0  0
  -22.7882  -14.0593    0.5514 H   0  0  0  0  0  0  0  0  0  0  0  0
  -22.1082  -15.0584    2.7547 H   0  0  0  0  0  0  0  0  0  0  0  0
  -20.7841  -15.8165    1.8067 H   0  0  0  0  0  0  0  0  0  0  0  0
  -20.9803  -14.0309    1.8067 H   0  0  0  0  0  0  0  0  0  0  0  0
  -20.4530  -13.7057   -0.6453 H   0  0  0  0  0  0  0  0  0  0  0  0
  -21.3030  -16.3894   -3.1080 H   0  0  0  0  0  0  0  0  0  0  0  0
  -19.9773  -16.8554   -5.1769 H   0  0  0  0  0  0  0  0  0  0  0  0
  -16.4693  -17.1305   -4.8310 H   0  0  0  0  0  0  0  0  0  0  0  0
  -17.0125  -17.8149   -6.2682 H   0  0  0  0  0  0  0  0  0  0  0  0
  -17.1283  -13.8559   -3.9697 H   0  0  0  0  0  0  0  0  0  0  0  0
  -18.4566  -13.3823   -1.9046 H   0  0  0  0  0  0  0  0  0  0  0  0
  -24.2656  -18.4596   -0.1098 H   0  0  0  0  0  0  0  0  0  0  0  0
  -24.7691  -17.4813   -1.5952 H   0  0  0  0  0  0  0  0  0  0  0  0
  -25.9038  -19.0780   -2.4753 H   0  0  0  0  0  0  0  0  0  0  0  0
  -23.7111  -20.5346   -0.8868 H   0  0  0  0  0  0  0  0  0  0  0  0
  -24.4402  -21.1344   -2.4150 H   0  0  0  0  0  0  0  0  0  0  0  0
  -23.4724  -19.6212   -2.4150 H   0  0  0  0  0  0  0  0  0  0  0  0
  -26.8284  -21.0033   -1.7037 H   0  0  0  0  0  0  0  0  0  0  0  0
  -25.9262  -20.8381   -0.1010 H   0  0  0  0  0  0  0  0  0  0  0  0
  -28.4509  -19.5728   -1.0299 H   0  0  0  0  0  0  0  0  0  0  0  0
  -27.9145  -20.2036    0.6044 H   0  0  0  0  0  0  0  0  0  0  0  0
 23 21  2  0
 22 21  2  0
 21 24  1  0
 21 20  1  0
 20 19  1  0
 20 25  2  0
 19 18  2  0
 25 26  1  0
 18 17  1  0
 26 17  2  0
 17 16  1  0
 30 29  1  0
 29 31  1  0
 29 28  1  0
 15 14  2  0
 16 14  1  0
 31 32  1  0
 28 27  1  0
 10  9  2  0
 14 12  1  0
 32 33  1  0
 27 33  1  0
 27  8  2  0
 33  1  2  0
  9  8  1  0
  9 11  1  0
  8  7  1  0
 12 11  1  0
 12 13  1  0
  1  2  1  0
  7  2  2  0
  7  6  1  0
  2  3  1  0
  6  5  2  0
  3  4  2  0
  5  4  1  0
  3 34  1  0
  4 35  1  0
  5 36  1  0
  6 37  1  0
 12 38  1  0
 13 39  1  0
 13 40  1  0
 13 41  1  0
 16 42  1  0
 18 43  1  0
 19 44  1  0
 24 45  1  0
 24 46  1  0
 25 47  1  0
 26 48  1  0
 28 49  1  0
 28 50  1  0
 29 51  1  0
 30 52  1  0
 30 53  1  0
 30 54  1  0
 31 55  1  0
 31 56  1  0
 32 57  1  0
 32 58  1  0
A    1
N01
A    2
C02
A    3
C03
A    4
C04
A    5
C05
A    6
C06
A    7
C07
A    8
C08
A    9
C09
A   10
O10
A   11
O11
A   12
C12
A   13
C13
A   14
C14
A   15
O15
A   16
N16
A   17
C17
A   18
C18
A   19
C19
A   20
C20
A   21
S21
A   22
O22
A   23
O23
A   24
N24
A   25
C25
A   26
C26
A   27
C27
A   28
C28
A   29
C29
A   30
C30
A   31
C31
A   32
C32
A   33
C33
M  END
