3WFF_WFF_A_1001
     RDKit          3D

 36 39  0  0  0  0  0  0  0  0999 V2000
    4.1330    6.0110   59.4660 C   0  0  0  0  0  0  0  0  0  0  0  0
    2.7020    9.7150   58.1390 C   0  0  0  0  0  0  0  0  0  0  0  0
    4.5280    5.1990   60.5090 C   0  0  0  0  0  0  0  0  0  0  0  0
    2.2180   10.5500   59.1300 C   0  0  0  0  0  0  0  0  0  0  0  0
    3.6730    4.0730   58.1490 C   0  0  0  0  0  0  0  0  0  0  0  0
    0.8740    8.7980   60.0430 C   0  0  0  0  0  0  0  0  0  0  0  0
    3.6980    5.4510   58.2730 C   0  0  0  0  0  0  0  0  0  0  0  0
    2.2490    8.4070   58.1050 C   0  0  0  0  0  0  0  0  0  0  0  0
    4.0650    3.2670   59.1960 C   0  0  0  0  0  0  0  0  0  0  0  0
    4.4810    3.8280   60.3740 C   0  0  0  0  0  0  0  0  0  0  0  0
    1.3220   10.0920   60.0690 C   0  0  0  0  0  0  0  0  0  0  0  0
    1.3440    7.9800   59.0430 C   0  0  0  0  0  0  0  0  0  0  0  0
    2.6950    7.4810   57.0840 C   0  0  0  0  0  0  0  0  0  0  0  0
    3.2730    6.2780   57.1390 C   0  0  0  0  0  0  0  0  0  0  0  0
    2.5250    7.7900   55.6580 C   0  0  0  0  0  0  0  0  0  0  0  0
    4.1830    1.0400   60.1270 C   0  0  0  0  0  0  0  0  0  0  0  0
    3.5120    5.7480   55.7660 C   0  0  0  0  0  0  0  0  0  0  0  0
    4.1520    1.7770   61.4460 C   0  0  0  0  0  0  0  0  0  0  0  0
    4.0590    1.8830   59.0580 N   0  0  0  0  0  0  0  0  0  0  0  0
    2.0280    8.8120   55.2280 O   0  0  0  0  0  0  0  0  0  0  0  0
    4.3070   -0.1800   60.0490 O   0  0  0  0  0  0  0  0  0  0  0  0
    4.9080    3.0120   61.3930 O   0  0  0  0  0  0  0  0  0  0  0  0
    3.0240    6.7740   54.9110 O   0  0  0  0  0  0  0  0  0  0  0  0
    0.8310   10.8630   61.0530 F   0  0  0  0  0  0  0  0  0  0  0  0
    0.9020    6.7210   58.9970 F   0  0  0  0  0  0  0  0  0  0  0  0
    4.1629    7.1046   59.5802 H   0  0  0  0  0  0  0  0  0  0  0  0
    3.4277   10.0805   57.3975 H   0  0  0  0  0  0  0  0  0  0  0  0
    4.8810    5.6463   61.4499 H   0  0  0  0  0  0  0  0  0  0  0  0
    2.5545   11.5966   59.1682 H   0  0  0  0  0  0  0  0  0  0  0  0
    3.3372    3.6167   57.2061 H   0  0  0  0  0  0  0  0  0  0  0  0
    0.1632    8.4263   60.7957 H   0  0  0  0  0  0  0  0  0  0  0  0
    2.9588    4.8106   55.6070 H   0  0  0  0  0  0  0  0  0  0  0  0
    4.5704    5.5115   55.5819 H   0  0  0  0  0  0  0  0  0  0  0  0
    3.1071    2.0103   61.6985 H   0  0  0  0  0  0  0  0  0  0  0  0
    4.6095    1.1298   62.2088 H   0  0  0  0  0  0  0  0  0  0  0  0
    3.9574    1.4786   58.1162 H   0  0  0  0  0  0  0  0  0  0  0  0
 23 15  1  0
 23 17  1  0
 20 15  2  0
 15 13  1  0
 17 14  1  0
 13 14  2  0
 13  8  1  0
 14  7  1  0
  8  2  2  0
  8 12  1  0
  2  4  1  0
  5  7  1  0
  5  9  2  0
  7  1  2  0
 25 12  1  0
 12  6  2  0
 19  9  1  0
 19 16  1  0
  4 11  2  0
  9 10  1  0
  1  3  1  0
  6 11  1  0
 21 16  2  0
 11 24  1  0
 16 18  1  0
 10  3  2  0
 10 22  1  0
 22 18  1  0
  1 26  1  0
  2 27  1  0
  3 28  1  0
  4 29  1  0
  5 30  1  0
  6 31  1  0
 17 32  1  0
 17 33  1  0
 18 34  1  0
 18 35  1  0
 19 36  1  0
A    1
C1
A    2
C2
A    3
C3
A    4
C4
A    5
C5
A    6
C6
A    7
C7
A    8
C8
A    9
C9
A   10
C10
A   11
C11
A   12
C12
A   13
C13
A   14
C14
A   15
C15
A   16
C16
A   17
C17
A   18
C18
A   19
N19
A   20
O20
A   21
O21
A   22
O22
A   23
O23
A   24
F24
A   25
F25
M  END
