3WFG_WFG_A_1001
     RDKit          3D

 39 42  0  0  0  0  0  0  0  0999 V2000
    1.5810   30.8420   42.2480 C   0  0  0  0  0  0  0  0  0  0  0  0
    0.7280   33.6720   40.6850 C   0  0  0  0  0  0  0  0  0  0  0  0
    1.7030   33.1140   38.5870 C   0  0  0  0  0  0  0  0  0  0  0  0
    2.0640   30.6480   43.5240 C   0  0  0  0  0  0  0  0  0  0  0  0
    1.4630   34.8340   40.7160 C   0  0  0  0  0  0  0  0  0  0  0  0
    2.4320   34.2870   38.6260 C   0  0  0  0  0  0  0  0  0  0  0  0
   -0.5290   29.9430   42.8980 C   0  0  0  0  0  0  0  0  0  0  0  0
    0.8410   32.7900   39.6310 C   0  0  0  0  0  0  0  0  0  0  0  0
    0.2770   30.5040   41.9120 C   0  0  0  0  0  0  0  0  0  0  0  0
   -0.0380   29.7500   44.1750 C   0  0  0  0  0  0  0  0  0  0  0  0
    1.2420   30.1070   44.4980 C   0  0  0  0  0  0  0  0  0  0  0  0
    2.2920   35.1370   39.6850 C   0  0  0  0  0  0  0  0  0  0  0  0
    0.0430   31.5530   39.5980 C   0  0  0  0  0  0  0  0  0  0  0  0
   -0.2420   30.6540   40.5480 C   0  0  0  0  0  0  0  0  0  0  0  0
   -0.7510   31.1550   38.4010 C   0  0  0  0  0  0  0  0  0  0  0  0
   -0.5200   29.1930   46.4870 C   0  0  0  0  0  0  0  0  0  0  0  0
    0.7340   29.9610   46.7970 C   0  0  0  0  0  0  0  0  0  0  0  0
   -1.1680   29.6060   40.0370 C   0  0  0  0  0  0  0  0  0  0  0  0
   -0.5990   28.2150   40.0690 C   0  0  0  0  0  0  0  0  0  0  0  0
   -0.8570   29.1790   45.1770 N   0  0  0  0  0  0  0  0  0  0  0  0
   -0.8170   31.7190   37.3130 O   0  0  0  0  0  0  0  0  0  0  0  0
   -1.1990   28.6880   47.3840 O   0  0  0  0  0  0  0  0  0  0  0  0
    1.7440   29.8890   45.7790 O   0  0  0  0  0  0  0  0  0  0  0  0
   -1.4140   30.0070   38.6890 O   0  0  0  0  0  0  0  0  0  0  0  0
    3.0170   36.2960   39.7420 F   0  0  0  0  0  0  0  0  0  0  0  0
    2.2413   31.2729   41.4810 H   0  0  0  0  0  0  0  0  0  0  0  0
    0.0404   33.4430   41.5125 H   0  0  0  0  0  0  0  0  0  0  0  0
    1.8040   32.4340   37.7283 H   0  0  0  0  0  0  0  0  0  0  0  0
    3.1008   30.9225   43.7683 H   0  0  0  0  0  0  0  0  0  0  0  0
    1.3792   35.5164   41.5746 H   0  0  0  0  0  0  0  0  0  0  0  0
    3.1227   34.5351   37.8067 H   0  0  0  0  0  0  0  0  0  0  0  0
   -1.5625   29.6516   42.6595 H   0  0  0  0  0  0  0  0  0  0  0  0
    1.1584   29.5632   47.7306 H   0  0  0  0  0  0  0  0  0  0  0  0
    0.4419   31.0188   46.8733 H   0  0  0  0  0  0  0  0  0  0  0  0
   -2.0676   29.5415   40.6667 H   0  0  0  0  0  0  0  0  0  0  0  0
   -0.4686   27.8961   41.1137 H   0  0  0  0  0  0  0  0  0  0  0  0
   -1.2873   27.5254   39.5584 H   0  0  0  0  0  0  0  0  0  0  0  0
    0.3753   28.2055   39.5584 H   0  0  0  0  0  0  0  0  0  0  0  0
   -1.7440   28.7356   44.8985 H   0  0  0  0  0  0  0  0  0  0  0  0
 21 15  2  0
 15 24  1  0
 15 13  1  0
  3  6  2  0
  3  8  1  0
  6 12  1  0
 24 18  1  0
 13  8  1  0
 13 14  2  0
  8  2  2  0
 12 25  1  0
 12  5  2  0
 18 19  1  0
 18 14  1  0
 14  9  1  0
  2  5  1  0
  9  1  2  0
  9  7  1  0
  1  4  1  0
  7 10  2  0
  4 11  2  0
 10 11  1  0
 10 20  1  0
 11 23  1  0
 20 16  1  0
 23 17  1  0
 16 17  1  0
 16 22  2  0
  1 26  1  0
  2 27  1  0
  3 28  1  0
  4 29  1  0
  5 30  1  0
  6 31  1  0
  7 32  1  0
 17 33  1  0
 17 34  1  0
 18 35  1  0
 19 36  1  0
 19 37  1  0
 19 38  1  0
 20 39  1  0
A    1
C1
A    2
C2
A    3
C3
A    4
C4
A    5
C5
A    6
C6
A    7
C7
A    8
C8
A    9
C9
A   10
C10
A   11
C11
A   12
C12
A   13
C13
A   14
C14
A   15
C15
A   16
C16
A   17
C17
A   18
C18
A   19
C19
A   20
N20
A   21
O21
A   22
O22
A   23
O23
A   24
O24
A   25
F25
M  END
