3WGP_ED9_A_501
     RDKit          3D

 85 87  0  0  0  0  0  0  0  0999 V2000
   16.8990   17.6770   34.2600 O   0  0  0  0  0  0  0  0  0  0  0  0
    4.3810   26.5010   34.6430 O   0  0  0  0  0  0  0  0  0  0  0  0
   14.0980   17.6510   35.1980 C   0  0  0  0  0  0  0  0  0  0  0  0
   14.6810   16.6460   34.1790 C   0  0  0  0  0  0  0  0  0  0  0  0
   15.8400   17.3070   33.3370 C   0  0  0  0  0  0  0  0  0  0  0  0
   15.3270   18.6050   32.5780 C   0  0  0  0  0  0  0  0  0  0  0  0
   14.5460   19.5740   33.4500 C   0  0  0  0  0  0  0  0  0  0  0  0
   14.6080   20.8700   33.3630 C   0  0  0  0  0  0  0  0  0  0  0  0
   13.9150   21.9440   34.1320 C   0  0  0  0  0  0  0  0  0  0  0  0
   13.7400   23.1580   33.6910 C   0  0  0  0  0  0  0  0  0  0  0  0
   14.1920   23.6380   32.2380 C   0  0  0  0  0  0  0  0  0  0  0  0
   13.5720   18.9050   34.4560 C   0  0  0  0  0  0  0  0  0  0  0  0
   12.9280   24.1870   31.3530 C   0  0  0  0  0  0  0  0  0  0  0  0
   12.0510   25.1750   32.2610 C   0  0  0  0  0  0  0  0  0  0  0  0
   11.6420   24.6010   33.7480 C   0  0  0  0  0  0  0  0  0  0  0  0
   13.0240   24.2260   34.4760 C   0  0  0  0  0  0  0  0  0  0  0  0
   12.4530   23.8680   35.9980 C   0  0  0  0  0  0  0  0  0  0  0  0
   11.3140   24.9460   36.1610 C   0  0  0  0  0  0  0  0  0  0  0  0
   11.1520   25.6320   34.7630 C   0  0  0  0  0  0  0  0  0  0  0  0
   10.6830   23.2580   33.4670 C   0  0  0  0  0  0  0  0  0  0  0  0
   12.3320   19.3320   34.6210 C   0  0  0  0  0  0  0  0  0  0  0  0
    9.7320   26.1930   34.3280 C   0  0  0  0  0  0  0  0  0  0  0  0
    9.5780   27.6230   35.0450 C   0  0  0  0  0  0  0  0  0  0  0  0
    8.5050   25.4090   34.8510 C   0  0  0  0  0  0  0  0  0  0  0  0
    7.2260   25.7570   34.0640 C   0  0  0  0  0  0  0  0  0  0  0  0
    6.1020   24.8770   34.2980 C   0  0  0  0  0  0  0  0  0  0  0  0
    4.7240   25.3480   33.9230 C   0  0  0  0  0  0  0  0  0  0  0  0
    4.7510   25.6080   32.4360 C   0  0  0  0  0  0  0  0  0  0  0  0
    3.6400   24.2560   34.2690 C   0  0  0  0  0  0  0  0  0  0  0  0
   13.1000   17.0190   36.0390 O   0  0  0  0  0  0  0  0  0  0  0  0
   15.2100   15.5400   34.9160 O   0  0  0  0  0  0  0  0  0  0  0  0
   15.4180   14.3270   34.0410 C   0  0  0  0  0  0  0  0  0  0  0  0
   14.0960   13.5780   34.0880 C   0  0  0  0  0  0  0  0  0  0  0  0
   14.2830   12.5580   35.1980 C   0  0  0  0  0  0  0  0  0  0  0  0
   13.0210   12.2740   35.7860 O   0  0  0  0  0  0  0  0  0  0  0  0
   16.5797   17.5654   35.1904 H   0  0  0  0  0  0  0  0  0  0  0  0
    4.4369   26.3129   35.6134 H   0  0  0  0  0  0  0  0  0  0  0  0
   14.8924   17.9888   35.8798 H   0  0  0  0  0  0  0  0  0  0  0  0
   13.8918   16.3246   33.4834 H   0  0  0  0  0  0  0  0  0  0  0  0
   16.1992   16.5932   32.5810 H   0  0  0  0  0  0  0  0  0  0  0  0
   16.2016   19.1349   32.1728 H   0  0  0  0  0  0  0  0  0  0  0  0
   14.6354   18.2588   31.7958 H   0  0  0  0  0  0  0  0  0  0  0  0
   15.2923   21.2395   32.5850 H   0  0  0  0  0  0  0  0  0  0  0  0
   13.5283   21.6965   35.1316 H   0  0  0  0  0  0  0  0  0  0  0  0
   14.6528   22.7895   31.7110 H   0  0  0  0  0  0  0  0  0  0  0  0
   14.9063   24.4655   32.3602 H   0  0  0  0  0  0  0  0  0  0  0  0
   13.3016   24.7290   30.4717 H   0  0  0  0  0  0  0  0  0  0  0  0
   12.3105   23.3403   31.0186 H   0  0  0  0  0  0  0  0  0  0  0  0
   12.6247   26.1028   32.4027 H   0  0  0  0  0  0  0  0  0  0  0  0
   11.1025   25.3158   31.7220 H   0  0  0  0  0  0  0  0  0  0  0  0
   13.8207   24.9816   34.5415 H   0  0  0  0  0  0  0  0  0  0  0  0
   12.0500   22.8456   36.0469 H   0  0  0  0  0  0  0  0  0  0  0  0
   13.2197   23.8995   36.7861 H   0  0  0  0  0  0  0  0  0  0  0  0
   11.5999   25.6900   36.9191 H   0  0  0  0  0  0  0  0  0  0  0  0
   10.3716   24.4840   36.4903 H   0  0  0  0  0  0  0  0  0  0  0  0
   11.7301   26.5661   34.8190 H   0  0  0  0  0  0  0  0  0  0  0  0
   10.3718   22.8222   34.4278 H   0  0  0  0  0  0  0  0  0  0  0  0
    9.7926   23.5566   32.8943 H   0  0  0  0  0  0  0  0  0  0  0  0
   11.2545   22.5127   32.8943 H   0  0  0  0  0  0  0  0  0  0  0  0
   11.6699   18.8327   35.3437 H   0  0  0  0  0  0  0  0  0  0  0  0
   11.9621   20.1867   34.0356 H   0  0  0  0  0  0  0  0  0  0  0  0
    9.7262   26.1621   33.2284 H   0  0  0  0  0  0  0  0  0  0  0  0
    9.5924   27.4892   36.1367 H   0  0  0  0  0  0  0  0  0  0  0  0
   10.4111   28.2755   34.7445 H   0  0  0  0  0  0  0  0  0  0  0  0
    8.6251   28.0831   34.7445 H   0  0  0  0  0  0  0  0  0  0  0  0
    8.3493   25.6571   35.9113 H   0  0  0  0  0  0  0  0  0  0  0  0
    8.7047   24.3350   34.7217 H   0  0  0  0  0  0  0  0  0  0  0  0
    7.4667   25.7242   32.9912 H   0  0  0  0  0  0  0  0  0  0  0  0
    6.9133   26.7522   34.4130 H   0  0  0  0  0  0  0  0  0  0  0  0
    6.0854   24.6529   35.3748 H   0  0  0  0  0  0  0  0  0  0  0  0
    6.2851   24.0263   33.6251 H   0  0  0  0  0  0  0  0  0  0  0  0
    4.8631   26.6871   32.2544 H   0  0  0  0  0  0  0  0  0  0  0  0
    5.5981   25.0704   31.9851 H   0  0  0  0  0  0  0  0  0  0  0  0
    3.8115   25.2559   31.9851 H   0  0  0  0  0  0  0  0  0  0  0  0
    3.5483   24.1636   35.3613 H   0  0  0  0  0  0  0  0  0  0  0  0
    2.6704   24.5541   33.8435 H   0  0  0  0  0  0  0  0  0  0  0  0
    3.9452   23.2886   33.8435 H   0  0  0  0  0  0  0  0  0  0  0  0
   13.3302   17.1648   36.9908 H   0  0  0  0  0  0  0  0  0  0  0  0
   16.2317   13.7006   34.4353 H   0  0  0  0  0  0  0  0  0  0  0  0
   15.7017   14.6014   33.0142 H   0  0  0  0  0  0  0  0  0  0  0  0
   13.2680   14.2629   34.3234 H   0  0  0  0  0  0  0  0  0  0  0  0
   13.8430   13.1103   33.1251 H   0  0  0  0  0  0  0  0  0  0  0  0
   14.7114   11.6345   34.7813 H   0  0  0  0  0  0  0  0  0  0  0  0
   14.9649   12.9615   35.9610 H   0  0  0  0  0  0  0  0  0  0  0  0
   13.1047   12.2928   36.7723 H   0  0  0  0  0  0  0  0  0  0  0  0
 13 11  1  0
 13 14  1  0
 11 10  1  0
 14 15  1  0
 28 27  1  0
  6  5  1  0
  6  7  1  0
  5  4  1  0
  5  1  1  0
  8  7  2  0
  8  9  1  0
  7 12  1  0
 20 15  1  0
 10  9  2  0
 10 16  1  0
 15 16  1  0
 15 19  1  0
 27 29  1  0
 27 26  1  0
 27  2  1  0
 32 33  1  0
 32 31  1  0
 25 26  1  0
 25 24  1  0
 33 34  1  0
  4 31  1  0
  4  3  1  0
 22 19  1  0
 22 24  1  0
 22 23  1  0
 12 21  2  0
 12  3  1  0
 16 17  1  0
 19 18  1  0
 34 35  1  0
  3 30  1  0
 17 18  1  0
  1 36  1  0
  2 37  1  0
  3 38  1  0
  4 39  1  0
  5 40  1  0
  6 41  1  0
  6 42  1  0
  8 43  1  0
  9 44  1  0
 11 45  1  0
 11 46  1  0
 13 47  1  0
 13 48  1  0
 14 49  1  0
 14 50  1  0
 16 51  1  0
 17 52  1  0
 17 53  1  0
 18 54  1  0
 18 55  1  0
 19 56  1  0
 20 57  1  0
 20 58  1  0
 20 59  1  0
 21 60  1  0
 21 61  1  0
 22 62  1  0
 23 63  1  0
 23 64  1  0
 23 65  1  0
 24 66  1  0
 24 67  1  0
 25 68  1  0
 25 69  1  0
 26 70  1  0
 26 71  1  0
 28 72  1  0
 28 73  1  0
 28 74  1  0
 29 75  1  0
 29 76  1  0
 29 77  1  0
 30 78  1  0
 32 79  1  0
 32 80  1  0
 33 81  1  0
 33 82  1  0
 34 83  1  0
 34 84  1  0
 35 85  1  0
A    1
O2
A    2
O3
A    3
C1
A    4
C2
A    5
C3
A    6
C4
A    7
C5
A    8
C6
A    9
C7
A   10
C8
A   11
C9
A   12
C10
A   13
C11
A   14
C12
A   15
C13
A   16
C14
A   17
C15
A   18
C16
A   19
C17
A   20
C18
A   21
C19
A   22
C20
A   23
C21
A   24
C22
A   25
C23
A   26
C24
A   27
C25
A   28
C26
A   29
C27
A   30
O1
A   31
O4
A   32
C28
A   33
C29
A   34
C30
A   35
O5
M  END
