3WGW_T2B_A_301
     RDKit          3D

 36 37  0  0  0  0  0  0  0  0999 V2000
  -47.9150   -3.3860   37.6960 O   0  0  0  0  0  0  0  0  0  0  0  0
  -47.3460   -3.3980   39.0310 C   0  0  0  0  0  0  0  0  0  0  0  0
  -46.7230   -2.0980   39.6460 C   0  0  0  0  0  0  0  0  0  0  0  0
  -47.3580   -0.8640   39.1700 N   0  0  0  0  0  0  0  0  0  0  0  0
  -46.8850   -2.1470   41.1690 C   0  0  0  0  0  0  0  0  0  0  0  0
  -45.9260   -3.0090   42.0040 C   0  0  0  0  0  0  0  0  0  0  0  0
  -44.5410   -2.6940   42.1360 C   0  0  0  0  0  0  0  0  0  0  0  0
  -43.7590   -3.4000   42.9830 C   0  0  0  0  0  0  0  0  0  0  0  0
  -41.7430   -2.9780   43.0810 I   0  0  0  0  0  0  0  0  0  0  0  0
  -44.3220   -4.5340   43.7440 C   0  0  0  0  0  0  0  0  0  0  0  0
  -45.7610   -4.9190   43.6190 C   0  0  0  0  0  0  0  0  0  0  0  0
  -46.7250   -6.5280   44.7480 I   0  0  0  0  0  0  0  0  0  0  0  0
  -46.4880   -4.0740   42.7390 C   0  0  0  0  0  0  0  0  0  0  0  0
  -43.5080   -5.2930   44.5100 O   0  0  0  0  0  0  0  0  0  0  0  0
  -43.2400   -5.0190   45.8220 C   0  0  0  0  0  0  0  0  0  0  0  0
  -42.4590   -5.8930   46.6110 C   0  0  0  0  0  0  0  0  0  0  0  0
  -42.1870   -5.6090   47.9580 C   0  0  0  0  0  0  0  0  0  0  0  0
  -42.7190   -4.4470   48.4920 C   0  0  0  0  0  0  0  0  0  0  0  0
  -42.5130   -4.0880   49.7820 O   0  0  0  0  0  0  0  0  0  0  0  0
  -43.4870   -3.6000   47.6960 C   0  0  0  0  0  0  0  0  0  0  0  0
  -43.7370   -3.8600   46.3620 C   0  0  0  0  0  0  0  0  0  0  0  0
  -48.9028   -3.3652   37.7585 H   0  0  0  0  0  0  0  0  0  0  0  0
  -46.5494   -4.1566   39.0264 H   0  0  0  0  0  0  0  0  0  0  0  0
  -48.2233   -3.5761   39.6703 H   0  0  0  0  0  0  0  0  0  0  0  0
  -45.6685   -2.0751   39.3339 H   0  0  0  0  0  0  0  0  0  0  0  0
  -47.6508   -0.2951   39.9772 H   0  0  0  0  0  0  0  0  0  0  0  0
  -46.6867   -0.3305   38.5993 H   0  0  0  0  0  0  0  0  0  0  0  0
  -46.7875   -1.1141   41.5346 H   0  0  0  0  0  0  0  0  0  0  0  0
  -47.8605   -2.6354   41.3096 H   0  0  0  0  0  0  0  0  0  0  0  0
  -44.1075   -1.8731   41.5460 H   0  0  0  0  0  0  0  0  0  0  0  0
  -47.5653   -4.2633   42.6223 H   0  0  0  0  0  0  0  0  0  0  0  0
  -42.0569   -6.8128   46.1612 H   0  0  0  0  0  0  0  0  0  0  0  0
  -41.5722   -6.2862   48.5691 H   0  0  0  0  0  0  0  0  0  0  0  0
  -42.8440   -4.6649   50.5153 H   0  0  0  0  0  0  0  0  0  0  0  0
  -43.9103   -2.6900   48.1463 H   0  0  0  0  0  0  0  0  0  0  0  0
  -44.3192   -3.1561   45.7492 H   0  0  0  0  0  0  0  0  0  0  0  0
 19 18  1  0
 18 17  1  0
 18 20  2  0
 17 16  2  0
 20 21  1  0
 16 15  1  0
 21 15  2  0
 15 14  1  0
  9  8  1  0
 14 10  1  0
 10  8  2  0
 10 11  1  0
  8  7  1  0
 12 11  1  0
 11 13  2  0
  7  6  2  0
 13  6  1  0
  3  4  1  0
  3  2  1  0
  3  5  1  0
  6  5  1  0
  2  1  1  0
  1 22  1  0
  2 23  1  0
  2 24  1  0
  3 25  1  0
  4 26  1  0
  4 27  1  0
  5 28  1  0
  5 29  1  0
  7 30  1  0
 13 31  1  0
 16 32  1  0
 17 33  1  0
 19 34  1  0
 20 35  1  0
 21 36  1  0
A    1
O4
A    2
C17
A    3
C15
A    4
N1
A    5
C13
A    6
C1
A    7
C11
A    8
C9
A    9
I3
A   10
C7
A   11
C5
A   12
I1
A   13
C3
A   14
O2
A   15
C2
A   16
C12
A   17
C10
A   18
C8
A   19
O1
A   20
C6
A   21
C4
M  END
