3WH0_O4B_A_202
     RDKit          3D

 42 42  0  0  0  0  0  0  0  0999 V2000
  -16.4540   28.8580    8.0780 C   0  0  0  0  0  0  0  0  0  0  0  0
  -17.8560   29.1040    7.9810 O   0  0  0  0  0  0  0  0  0  0  0  0
  -18.3150   30.1570    8.7870 C   0  0  0  0  0  0  0  0  0  0  0  0
  -19.8250   30.1090    8.7740 C   0  0  0  0  0  0  0  0  0  0  0  0
  -20.2720   30.5120    7.5080 O   0  0  0  0  0  0  0  0  0  0  0  0
  -21.7370   30.3880    7.4270 C   0  0  0  0  0  0  0  0  0  0  0  0
  -22.1540   30.7160    6.0500 C   0  0  0  0  0  0  0  0  0  0  0  0
  -21.6560   29.6260    5.1520 O   0  0  0  0  0  0  0  0  0  0  0  0
  -21.9000   29.8920    3.8460 C   0  0  0  0  0  0  0  0  0  0  0  0
  -21.1410   28.8060    3.0860 C   0  0  0  0  0  0  0  0  0  0  0  0
  -19.8950   29.3360    2.5930 O   0  0  0  0  0  0  0  0  0  0  0  0
  -18.7920   28.4550    2.1260 C   0  0  0  0  0  0  0  0  0  0  0  0
  -17.8420   28.2670    3.3350 C   0  0  0  0  0  0  0  0  0  0  0  0
  -16.7100   28.6840    2.9670 O   0  0  0  0  0  0  0  0  0  0  0  0
  -15.6300   28.1500    3.7590 C   0  0  0  0  0  0  0  0  0  0  0  0
  -15.8860   27.6820    4.8940 C   0  0  0  0  0  0  0  0  0  0  0  0
  -16.3130   28.6680    5.7290 O   0  0  0  0  0  0  0  0  0  0  0  0
  -16.0070   28.0270    6.8840 C   0  0  0  0  0  0  0  0  0  0  0  0
  -15.9122   29.8153    8.0833 H   0  0  0  0  0  0  0  0  0  0  0  0
  -16.2384   28.3128    9.0087 H   0  0  0  0  0  0  0  0  0  0  0  0
  -17.9435   30.0335    9.8150 H   0  0  0  0  0  0  0  0  0  0  0  0
  -17.9533   31.1238    8.4070 H   0  0  0  0  0  0  0  0  0  0  0  0
  -20.1654   29.0832    8.9785 H   0  0  0  0  0  0  0  0  0  0  0  0
  -20.2300   30.7783    9.5473 H   0  0  0  0  0  0  0  0  0  0  0  0
  -22.0373   29.3584    7.6713 H   0  0  0  0  0  0  0  0  0  0  0  0
  -22.2156   31.0738    8.1416 H   0  0  0  0  0  0  0  0  0  0  0  0
  -23.2510   30.7751    5.9947 H   0  0  0  0  0  0  0  0  0  0  0  0
  -21.7398   31.6877    5.7430 H   0  0  0  0  0  0  0  0  0  0  0  0
  -22.9776   29.8352    3.6324 H   0  0  0  0  0  0  0  0  0  0  0  0
  -21.5805   30.9046    3.5587 H   0  0  0  0  0  0  0  0  0  0  0  0
  -20.9372   27.9620    3.7614 H   0  0  0  0  0  0  0  0  0  0  0  0
  -21.7509   28.4624    2.2375 H   0  0  0  0  0  0  0  0  0  0  0  0
  -19.1925   27.4831    1.8019 H   0  0  0  0  0  0  0  0  0  0  0  0
  -18.2639   28.8972    1.2683 H   0  0  0  0  0  0  0  0  0  0  0  0
  -18.2012   28.8508    4.1953 H   0  0  0  0  0  0  0  0  0  0  0  0
  -17.7967   27.2129    3.6462 H   0  0  0  0  0  0  0  0  0  0  0  0
  -15.1685   27.3417    3.1728 H   0  0  0  0  0  0  0  0  0  0  0  0
  -14.9971   29.0248    3.9691 H   0  0  0  0  0  0  0  0  0  0  0  0
  -16.6729   26.9189    4.8022 H   0  0  0  0  0  0  0  0  0  0  0  0
  -14.9713   27.2341    5.3096 H   0  0  0  0  0  0  0  0  0  0  0  0
  -14.9194   27.8708    6.9362 H   0  0  0  0  0  0  0  0  0  0  0  0
  -16.5260   27.0574    6.9059 H   0  0  0  0  0  0  0  0  0  0  0  0
  1  2  1  0
  1 18  1  0
  2  3  1  0
  3  4  1  0
  4  5  1  0
  5  6  1  0
  6  7  1  0
  7  8  1  0
  8  9  1  0
  9 10  1  0
 10 11  1  0
 11 12  1  0
 12 13  1  0
 13 14  1  0
 14 15  1  0
 15 16  1  0
 16 17  1  0
 17 18  1  0
  1 19  1  0
  1 20  1  0
  3 21  1  0
  3 22  1  0
  4 23  1  0
  4 24  1  0
  6 25  1  0
  6 26  1  0
  7 27  1  0
  7 28  1  0
  9 29  1  0
  9 30  1  0
 10 31  1  0
 10 32  1  0
 12 33  1  0
 12 34  1  0
 13 35  1  0
 13 36  1  0
 15 37  1  0
 15 38  1  0
 16 39  1  0
 16 40  1  0
 18 41  1  0
 18 42  1  0
A    1
CAA
A    2
OAM
A    3
CAC
A    4
CAD
A    5
OAO
A    6
CAG
A    7
CAH
A    8
OAQ
A    9
CAK
A   10
CAL
A   11
OAR
A   12
CAJ
A   13
CAI
A   14
OAP
A   15
CAF
A   16
CAE
A   17
OAN
A   18
CAB
M  END
