3WHA_WHA_A_302
     RDKit          3D

 46 49  0  0  0  0  0  0  0  0999 V2000
  -26.5560   22.8700  -23.6750 C   0  0  0  0  0  0  0  0  0  0  0  0
  -26.7140   22.3110  -19.9670 C   0  0  0  0  0  0  0  0  0  0  0  0
  -27.8930   22.6370  -24.0380 C   0  0  0  0  0  0  0  0  0  0  0  0
  -28.8560   22.3240  -23.0650 C   0  0  0  0  0  0  0  0  0  0  0  0
  -24.4550   23.0270  -20.6330 C   0  0  0  0  0  0  0  0  0  0  0  0
  -28.4670   22.2020  -21.7230 C   0  0  0  0  0  0  0  0  0  0  0  0
  -27.1300   22.4020  -21.3210 C   0  0  0  0  0  0  0  0  0  0  0  0
  -26.1750   22.7690  -22.3160 C   0  0  0  0  0  0  0  0  0  0  0  0
  -24.8480   23.0950  -21.9580 C   0  0  0  0  0  0  0  0  0  0  0  0
  -25.3670   22.6010  -19.6610 C   0  0  0  0  0  0  0  0  0  0  0  0
  -25.5720   23.2950  -24.6420 C   0  0  0  0  0  0  0  0  0  0  0  0
  -23.9160   23.4620  -22.9880 C   0  0  0  0  0  0  0  0  0  0  0  0
  -24.5610   24.1490  -24.1120 O   0  0  0  0  0  0  0  0  0  0  0  0
  -24.7540   22.4130  -18.0400 Cl  0  0  0  0  0  0  0  0  0  0  0  0
  -27.5970   21.9130  -18.9150 C   0  0  0  0  0  0  0  0  0  0  0  0
  -28.2150   20.7170  -19.0070 N   0  0  0  0  0  0  0  0  0  0  0  0
  -27.8440   22.7130  -17.8470 N   0  0  0  0  0  0  0  0  0  0  0  0
  -28.6850   22.3220  -16.8960 C   0  0  0  0  0  0  0  0  0  0  0  0
  -28.8510   23.1000  -15.8570 N   0  0  0  0  0  0  0  0  0  0  0  0
  -29.2720   21.1190  -16.9520 N   0  0  0  0  0  0  0  0  0  0  0  0
  -29.0710   20.3470  -18.0360 C   0  0  0  0  0  0  0  0  0  0  0  0
  -29.8560   18.8180  -18.0590 S   0  0  0  0  0  0  0  0  0  0  0  0
  -29.6370   18.3000  -19.8080 C   0  0  0  0  0  0  0  0  0  0  0  0
  -30.5730   19.0360  -20.7620 C   0  0  0  0  0  0  0  0  0  0  0  0
  -32.0290   18.5880  -20.5740 C   0  0  0  0  0  0  0  0  0  0  0  0
  -32.9830   19.3170  -21.4780 C   0  0  0  0  0  0  0  0  0  0  0  0
  -33.5080   18.7340  -22.4320 O   0  0  0  0  0  0  0  0  0  0  0  0
  -33.2150   20.5730  -21.1370 N   0  0  0  0  0  0  0  0  0  0  0  0
  -28.1887   22.7004  -25.0956 H   0  0  0  0  0  0  0  0  0  0  0  0
  -29.9072   22.1757  -23.3531 H   0  0  0  0  0  0  0  0  0  0  0  0
  -23.4307   23.3064  -20.3452 H   0  0  0  0  0  0  0  0  0  0  0  0
  -29.2225   21.9443  -20.9662 H   0  0  0  0  0  0  0  0  0  0  0  0
  -26.0912   23.8344  -25.4479 H   0  0  0  0  0  0  0  0  0  0  0  0
  -25.0637   22.3858  -24.9954 H   0  0  0  0  0  0  0  0  0  0  0  0
  -23.4295   22.5501  -23.3645 H   0  0  0  0  0  0  0  0  0  0  0  0
  -23.1869   24.1571  -22.5461 H   0  0  0  0  0  0  0  0  0  0  0  0
  -28.7685   22.7135  -14.9058 H   0  0  0  0  0  0  0  0  0  0  0  0
  -29.0641   24.0988  -15.9904 H   0  0  0  0  0  0  0  0  0  0  0  0
  -29.8358   17.2207  -19.8828 H   0  0  0  0  0  0  0  0  0  0  0  0
  -28.6052   18.5449  -20.1002 H   0  0  0  0  0  0  0  0  0  0  0  0
  -30.2652   18.8276  -21.7973 H   0  0  0  0  0  0  0  0  0  0  0  0
  -30.5112   20.1128  -20.5459 H   0  0  0  0  0  0  0  0  0  0  0  0
  -32.3221   18.7739  -19.5302 H   0  0  0  0  0  0  0  0  0  0  0  0
  -32.0825   17.5191  -20.8282 H   0  0  0  0  0  0  0  0  0  0  0  0
  -33.2636   20.8360  -20.1423 H   0  0  0  0  0  0  0  0  0  0  0  0
  -33.3472   21.2886  -21.8660 H   0  0  0  0  0  0  0  0  0  0  0  0
 11 13  1  0
 11  1  1  0
 13 12  1  0
  3  1  2  0
  3  4  1  0
  1  8  1  0
  4  6  2  0
 12  9  1  0
 27 26  2  0
  8  9  2  0
  8  7  1  0
  9  5  1  0
  6  7  1  0
 26 28  1  0
 26 25  1  0
  7  2  2  0
 24 25  1  0
 24 23  1  0
  5 10  2  0
  2 10  1  0
  2 15  1  0
 23 22  1  0
 10 14  1  0
 16 15  2  0
 16 21  1  0
 15 17  1  0
 22 21  1  0
 21 20  2  0
 17 18  2  0
 20 18  1  0
 18 19  1  0
  3 29  1  0
  4 30  1  0
  5 31  1  0
  6 32  1  0
 11 33  1  0
 11 34  1  0
 12 35  1  0
 12 36  1  0
 19 37  1  0
 19 38  1  0
 23 39  1  0
 23 40  1  0
 24 41  1  0
 24 42  1  0
 25 43  1  0
 25 44  1  0
 28 45  1  0
 28 46  1  0
A    1
C4
A    2
C14
A    3
C5
A    4
C6
A    5
C11
A    6
C7
A    7
C8
A    8
C9
A    9
C10
A   10
C12
A   11
C3
A   12
C1
A   13
O2
A   14
CL1
A   15
C15
A   16
N16
A   17
N17
A   18
C18
A   19
N19
A   20
N22
A   21
C23
A   22
S24
A   23
C25
A   24
C26
A   25
C27
A   26
C28
A   27
O29
A   28
N30
M  END
