3WIL_LCD_A_401
     RDKit          3D

 42 44  0  0  0  0  0  0  0  0999 V2000
  -39.2190  -13.1310   -5.8580 C   0  0  0  0  0  0  0  0  0  0  0  0
  -37.8290  -12.8550   -6.1810 O   0  0  0  0  0  0  0  0  0  0  0  0
  -37.6090  -11.5510   -6.5640 C   0  0  0  0  0  0  0  0  0  0  0  0
  -37.4230  -11.2300   -7.9240 C   0  0  0  0  0  0  0  0  0  0  0  0
  -37.5440  -10.5130   -5.6150 C   0  0  0  0  0  0  0  0  0  0  0  0
  -37.6940  -10.7840   -4.2790 O   0  0  0  0  0  0  0  0  0  0  0  0
  -36.4400  -11.2440   -3.7050 C   0  0  0  0  0  0  0  0  0  0  0  0
  -37.3120   -9.1950   -6.0500 C   0  0  0  0  0  0  0  0  0  0  0  0
  -37.1250   -8.8890   -7.4100 C   0  0  0  0  0  0  0  0  0  0  0  0
  -37.1770   -9.9120   -8.3600 C   0  0  0  0  0  0  0  0  0  0  0  0
  -37.0020   -9.6990   -9.7360 C   0  0  0  0  0  0  0  0  0  0  0  0
  -36.9180   -8.4860  -10.4460 C   0  0  0  0  0  0  0  0  0  0  0  0
  -36.5890   -8.3600  -11.8120 C   0  0  0  0  0  0  0  0  0  0  0  0
  -36.3210   -9.2530  -12.6190 O   0  0  0  0  0  0  0  0  0  0  0  0
  -37.1500   -7.2270   -9.9400 O   0  0  0  0  0  0  0  0  0  0  0  0
  -36.9600   -6.3290  -10.9820 C   0  0  0  0  0  0  0  0  0  0  0  0
  -37.0620   -4.9450  -11.0300 C   0  0  0  0  0  0  0  0  0  0  0  0
  -36.6120   -7.0210  -12.1590 C   0  0  0  0  0  0  0  0  0  0  0  0
  -36.3780   -6.3580  -13.3710 C   0  0  0  0  0  0  0  0  0  0  0  0
  -36.4820   -4.9750  -13.4020 C   0  0  0  0  0  0  0  0  0  0  0  0
  -36.8240   -4.2940  -12.2310 C   0  0  0  0  0  0  0  0  0  0  0  0
  -36.9470   -2.9680  -12.2200 O   0  0  0  0  0  0  0  0  0  0  0  0
  -36.9450   -2.5640  -13.5550 C   0  0  0  0  0  0  0  0  0  0  0  0
  -36.4500   -1.1480  -13.3890 C   0  0  0  0  0  0  0  0  0  0  0  0
  -35.7090   -0.7190  -14.3180 O   0  0  0  0  0  0  0  0  0  0  0  0
  -36.8110   -0.5250  -12.3410 O   0  0  0  0  0  0  0  0  0  0  0  0
  -39.3436  -13.1557   -4.7654 H   0  0  0  0  0  0  0  0  0  0  0  0
  -39.8576  -12.3421   -6.2821 H   0  0  0  0  0  0  0  0  0  0  0  0
  -39.5078  -14.1040   -6.2821 H   0  0  0  0  0  0  0  0  0  0  0  0
  -37.4715  -12.0359   -8.6711 H   0  0  0  0  0  0  0  0  0  0  0  0
  -36.5082  -11.2190   -2.6074 H   0  0  0  0  0  0  0  0  0  0  0  0
  -36.2408  -12.2737   -4.0366 H   0  0  0  0  0  0  0  0  0  0  0  0
  -35.6222  -10.5873   -4.0366 H   0  0  0  0  0  0  0  0  0  0  0  0
  -37.2760   -8.3838   -5.3079 H   0  0  0  0  0  0  0  0  0  0  0  0
  -36.9391   -7.8512   -7.7235 H   0  0  0  0  0  0  0  0  0  0  0  0
  -36.9185  -10.6098  -10.3472 H   0  0  0  0  0  0  0  0  0  0  0  0
  -37.3277   -4.3734  -10.1285 H   0  0  0  0  0  0  0  0  0  0  0  0
  -36.1174   -6.9222  -14.2786 H   0  0  0  0  0  0  0  0  0  0  0  0
  -36.2978   -4.4225  -14.3352 H   0  0  0  0  0  0  0  0  0  0  0  0
  -37.9527   -2.5970  -13.9947 H   0  0  0  0  0  0  0  0  0  0  0  0
  -36.3469   -3.1916  -14.2321 H   0  0  0  0  0  0  0  0  0  0  0  0
  -36.5972   -0.8939  -11.4475 H   0  0  0  0  0  0  0  0  0  0  0  0
 25 24  2  0
 23 24  1  0
 23 22  1  0
 20 19  1  0
 20 21  2  0
 24 26  1  0
 19 18  2  0
 14 13  2  0
 21 22  1  0
 21 17  1  0
 18 13  1  0
 18 16  1  0
 13 12  1  0
 17 16  2  0
 16 15  1  0
 12 15  1  0
 12 11  2  0
 11 10  1  0
 10  4  1  0
 10  9  2  0
  4  3  2  0
  9  8  1  0
  3  2  1  0
  3  5  1  0
  2  1  1  0
  8  5  2  0
  5  6  1  0
  6  7  1  0
  1 27  1  0
  1 28  1  0
  1 29  1  0
  4 30  1  0
  7 31  1  0
  7 32  1  0
  7 33  1  0
  8 34  1  0
  9 35  1  0
 11 36  1  0
 17 37  1  0
 19 38  1  0
 20 39  1  0
 23 40  1  0
 23 41  1  0
 26 42  1  0
A    1
CAB
A    2
OAO
A    3
CAV
A    4
CAK
A    5
CAU
A    6
OAN
A    7
CAA
A    8
CAH
A    9
CAG
A   10
CAS
A   11
CAF
A   12
CAX
A   13
CAW
A   14
OAD
A   15
OAQ
A   16
CAY
A   17
CAL
A   18
CAZ
A   19
CAJ
A   20
CAI
A   21
CAT
A   22
OAP
A   23
CAM
A   24
CAR
A   25
OAE
A   26
OAC
M  END
