3WJW_U6M_A_301
     RDKit          3D

 37 38  0  0  0  0  0  0  0  0999 V2000
   15.9160   38.6260   37.1020 O   0  0  0  0  0  0  0  0  0  0  0  0
   15.5740   39.5820   36.3850 C   0  0  0  0  0  0  0  0  0  0  0  0
   14.2580   39.8870   36.2970 N   0  0  0  0  0  0  0  0  0  0  0  0
   13.8450   40.9290   35.5600 C   0  0  0  0  0  0  0  0  0  0  0  0
   12.5980   41.1050   35.4780 O   0  0  0  0  0  0  0  0  0  0  0  0
   14.7160   41.5010   34.6450 C   0  0  0  0  0  0  0  0  0  0  0  0
   16.0580   41.1290   34.5980 C   0  0  0  0  0  0  0  0  0  0  0  0
   16.7990   41.2860   33.2890 C   0  0  0  0  0  0  0  0  0  0  0  0
   16.5300   40.2660   35.6550 N   0  0  0  0  0  0  0  0  0  0  0  0
   17.9780   40.0110   35.8510 C   0  0  0  0  0  0  0  0  0  0  0  0
   18.2080   38.6740   35.3370 O   0  0  0  0  0  0  0  0  0  0  0  0
   18.4730   39.9960   37.2640 C   0  0  0  0  0  0  0  0  0  0  0  0
   18.9280   41.3080   37.5750 O   0  0  0  0  0  0  0  0  0  0  0  0
   19.6290   39.0280   37.1890 C   0  0  0  0  0  0  0  0  0  0  0  0
   20.7580   39.6830   36.5790 O   0  0  0  0  0  0  0  0  0  0  0  0
   19.1320   37.9880   36.2100 C   0  0  0  0  0  0  0  0  0  0  0  0
   18.3860   36.8240   36.8530 C   0  0  0  0  0  0  0  0  0  0  0  0
   19.4310   36.0410   37.4610 O   0  0  0  0  0  0  0  0  0  0  0  0
   19.0740   34.7050   38.2980 P   0  0  0  0  0  0  0  0  0  0  0  0
   18.9640   33.5920   37.3150 O   0  0  0  0  0  0  0  0  0  0  0  0
   17.7810   34.8920   39.0070 O   0  0  0  0  0  0  0  0  0  0  0  0
   20.2500   34.5700   39.2360 O   0  0  0  0  0  0  0  0  0  0  0  0
   13.5669   39.3132   36.8010 H   0  0  0  0  0  0  0  0  0  0  0  0
   14.3410   42.2615   33.9442 H   0  0  0  0  0  0  0  0  0  0  0  0
   17.8568   41.5101   33.4911 H   0  0  0  0  0  0  0  0  0  0  0  0
   16.7257   40.3524   32.7119 H   0  0  0  0  0  0  0  0  0  0  0  0
   16.3534   42.1097   32.7119 H   0  0  0  0  0  0  0  0  0  0  0  0
   18.5076   40.8370   35.3538 H   0  0  0  0  0  0  0  0  0  0  0  0
   17.7317   39.7105   38.0249 H   0  0  0  0  0  0  0  0  0  0  0  0
   18.9667   41.4195   38.5579 H   0  0  0  0  0  0  0  0  0  0  0  0
   19.9282   38.6351   38.1719 H   0  0  0  0  0  0  0  0  0  0  0  0
   21.3584   40.0313   37.2849 H   0  0  0  0  0  0  0  0  0  0  0  0
   20.0055   37.5523   35.7028 H   0  0  0  0  0  0  0  0  0  0  0  0
   17.6751   37.1848   37.6109 H   0  0  0  0  0  0  0  0  0  0  0  0
   17.7894   36.2491   36.1295 H   0  0  0  0  0  0  0  0  0  0  0  0
   17.9346   34.8698   39.9848 H   0  0  0  0  0  0  0  0  0  0  0  0
   19.9310   34.6066   40.1725 H   0  0  0  0  0  0  0  0  0  0  0  0
  8  7  1  0
  7  6  2  0
  7  9  1  0
  6  4  1  0
 11 10  1  0
 11 16  1  0
  5  4  2  0
  4  3  1  0
  9 10  1  0
  9  2  1  0
 10 12  1  0
 16 17  1  0
 16 14  1  0
  3  2  1  0
  2  1  2  0
 15 14  1  0
 17 18  1  0
 14 12  1  0
 12 13  1  0
 20 19  2  0
 18 19  1  0
 19 21  1  0
 19 22  1  0
  3 23  1  0
  6 24  1  0
  8 25  1  0
  8 26  1  0
  8 27  1  0
 10 28  1  0
 12 29  1  0
 13 30  1  0
 14 31  1  0
 15 32  1  0
 16 33  1  0
 17 34  1  0
 17 35  1  0
 21 36  1  0
 22 37  1  0
A    1
O2
A    2
C2
A    3
N3
A    4
C4
A    5
O4
A    6
C5
A    7
C6
A    8
C7
A    9
N1
A   10
C1'
A   11
O4'
A   12
C2'
A   13
O2'
A   14
C3'
A   15
O3'
A   16
C4'
A   17
C5'
A   18
O5'
A   19
P
A   20
O3P
A   21
O1P
A   22
O2P
M  END
