3WK0_O7M_A_301
     RDKit          3D

 40 41  0  0  0  0  0  0  0  0999 V2000
   18.9950   33.5050   37.4450 O   0  0  0  0  0  0  0  0  0  0  0  0
   19.0960   34.6530   38.4020 P   0  0  0  0  0  0  0  0  0  0  0  0
   17.8050   34.8600   39.1360 O   0  0  0  0  0  0  0  0  0  0  0  0
   20.2930   34.5440   39.3400 O   0  0  0  0  0  0  0  0  0  0  0  0
   19.4440   35.9940   37.5680 O   0  0  0  0  0  0  0  0  0  0  0  0
   18.3970   36.7610   36.9240 C   0  0  0  0  0  0  0  0  0  0  0  0
   19.1430   37.8900   36.2800 C   0  0  0  0  0  0  0  0  0  0  0  0
   18.2300   38.6290   35.4350 O   0  0  0  0  0  0  0  0  0  0  0  0
   19.6580   38.9440   37.2260 C   0  0  0  0  0  0  0  0  0  0  0  0
   20.7940   39.6230   36.6680 O   0  0  0  0  0  0  0  0  0  0  0  0
   18.4940   39.9180   37.4020 C   0  0  0  0  0  0  0  0  0  0  0  0
   18.9940   41.2040   37.7440 O   0  0  0  0  0  0  0  0  0  0  0  0
   17.9510   39.9310   35.9690 C   0  0  0  0  0  0  0  0  0  0  0  0
   16.4990   40.1860   35.8740 N   0  0  0  0  0  0  0  0  0  0  0  0
   15.5880   39.5110   36.5200 C   0  0  0  0  0  0  0  0  0  0  0  0
   15.9170   38.5540   37.2520 O   0  0  0  0  0  0  0  0  0  0  0  0
   14.2680   39.8270   36.4550 N   0  0  0  0  0  0  0  0  0  0  0  0
   13.8400   40.8250   35.6770 C   0  0  0  0  0  0  0  0  0  0  0  0
   12.5810   41.0330   35.6320 O   0  0  0  0  0  0  0  0  0  0  0  0
   14.7440   41.5890   34.9240 C   0  0  0  0  0  0  0  0  0  0  0  0
   16.0730   41.1920   35.0290 C   0  0  0  0  0  0  0  0  0  0  0  0
   16.9510   41.5480   33.9050 C   0  0  0  0  0  0  0  0  0  0  0  0
   17.7540   40.7490   33.4580 O   0  0  0  0  0  0  0  0  0  0  0  0
   16.8280   42.8720   33.3270 O   0  0  0  0  0  0  0  0  0  0  0  0
   16.3920   43.0510   31.9880 C   0  0  0  0  0  0  0  0  0  0  0  0
   17.9720   34.8332   40.1114 H   0  0  0  0  0  0  0  0  0  0  0  0
   19.9802   34.5725   40.2789 H   0  0  0  0  0  0  0  0  0  0  0  0
   17.6733   37.1372   37.6621 H   0  0  0  0  0  0  0  0  0  0  0  0
   17.8089   36.1693   36.2071 H   0  0  0  0  0  0  0  0  0  0  0  0
   19.9870   37.4002   35.7723 H   0  0  0  0  0  0  0  0  0  0  0  0
   19.9892   38.5088   38.1804 H   0  0  0  0  0  0  0  0  0  0  0  0
   21.3663   39.9650   37.3999 H   0  0  0  0  0  0  0  0  0  0  0  0
   17.7638   39.6529   38.1808 H   0  0  0  0  0  0  0  0  0  0  0  0
   19.0287   41.2932   38.7294 H   0  0  0  0  0  0  0  0  0  0  0  0
   18.4310   40.7530   35.4177 H   0  0  0  0  0  0  0  0  0  0  0  0
   13.5887   39.2901   37.0128 H   0  0  0  0  0  0  0  0  0  0  0  0
   14.4264   42.4365   34.2988 H   0  0  0  0  0  0  0  0  0  0  0  0
   15.3744   43.4688   31.9865 H   0  0  0  0  0  0  0  0  0  0  0  0
   17.0730   43.7423   31.4700 H   0  0  0  0  0  0  0  0  0  0  0  0
   16.3908   42.0806   31.4700 H   0  0  0  0  0  0  0  0  0  0  0  0
 25 24  1  0
 24 22  1  0
 23 22  2  0
 22 21  1  0
 20 21  2  0
 20 18  1  0
 21 14  1  0
  8 13  1  0
  8  7  1  0
 19 18  2  0
 18 17  1  0
 14 13  1  0
 14 15  1  0
 13 11  1  0
  7  6  1  0
  7  9  1  0
 17 15  1  0
 15 16  2  0
 10  9  1  0
  6  5  1  0
  9 11  1  0
 11 12  1  0
  1  2  2  0
  5  2  1  0
  2  3  1  0
  2  4  1  0
  3 26  1  0
  4 27  1  0
  6 28  1  0
  6 29  1  0
  7 30  1  0
  9 31  1  0
 10 32  1  0
 11 33  1  0
 12 34  1  0
 13 35  1  0
 17 36  1  0
 20 37  1  0
 25 38  1  0
 25 39  1  0
 25 40  1  0
A    1
O3P
A    2
P
A    3
O1P
A    4
O2P
A    5
O5'
A    6
C5'
A    7
C4'
A    8
O4'
A    9
C3'
A   10
O3'
A   11
C2'
A   12
O2'
A   13
C1'
A   14
N1
A   15
C2
A   16
O2
A   17
N3
A   18
C4
A   19
O4
A   20
C5
A   21
C6
A   22
C7
A   23
O71
A   24
O72
A   25
C8
M  END
