3WK1_O7E_A_301
     RDKit          3D

 43 44  0  0  0  0  0  0  0  0999 V2000
   18.8990   33.5240   37.4310 O   0  0  0  0  0  0  0  0  0  0  0  0
   19.0130   34.6500   38.4030 P   0  0  0  0  0  0  0  0  0  0  0  0
   17.7280   34.8470   39.1360 O   0  0  0  0  0  0  0  0  0  0  0  0
   20.2040   34.5070   39.3140 O   0  0  0  0  0  0  0  0  0  0  0  0
   19.3850   35.9770   37.5510 O   0  0  0  0  0  0  0  0  0  0  0  0
   18.3100   36.7350   36.9330 C   0  0  0  0  0  0  0  0  0  0  0  0
   19.0630   37.8960   36.2820 C   0  0  0  0  0  0  0  0  0  0  0  0
   18.1410   38.6070   35.4200 O   0  0  0  0  0  0  0  0  0  0  0  0
   19.5660   38.9160   37.2660 C   0  0  0  0  0  0  0  0  0  0  0  0
   20.6760   39.6110   36.6640 O   0  0  0  0  0  0  0  0  0  0  0  0
   18.3840   39.8660   37.3540 C   0  0  0  0  0  0  0  0  0  0  0  0
   18.8490   41.1440   37.7580 O   0  0  0  0  0  0  0  0  0  0  0  0
   17.8840   39.9180   35.9140 C   0  0  0  0  0  0  0  0  0  0  0  0
   16.4250   40.1980   35.8140 N   0  0  0  0  0  0  0  0  0  0  0  0
   15.5020   39.5040   36.4860 C   0  0  0  0  0  0  0  0  0  0  0  0
   15.8250   38.5540   37.2070 O   0  0  0  0  0  0  0  0  0  0  0  0
   14.1970   39.8340   36.4080 N   0  0  0  0  0  0  0  0  0  0  0  0
   13.7500   40.8450   35.6570 C   0  0  0  0  0  0  0  0  0  0  0  0
   12.5090   41.0710   35.6500 O   0  0  0  0  0  0  0  0  0  0  0  0
   14.6530   41.5970   34.9260 C   0  0  0  0  0  0  0  0  0  0  0  0
   15.9810   41.2260   35.0280 C   0  0  0  0  0  0  0  0  0  0  0  0
   16.8730   41.8270   34.0560 C   0  0  0  0  0  0  0  0  0  0  0  0
   17.4810   41.1140   33.2700 O   0  0  0  0  0  0  0  0  0  0  0  0
   16.9530   43.2830   34.1460 O   0  0  0  0  0  0  0  0  0  0  0  0
   17.0470   43.9450   35.3960 C   0  0  0  0  0  0  0  0  0  0  0  0
   16.3190   45.2700   35.3340 C   0  0  0  0  0  0  0  0  0  0  0  0
   17.8970   34.8211   40.1111 H   0  0  0  0  0  0  0  0  0  0  0  0
   19.9044   34.5430   40.2569 H   0  0  0  0  0  0  0  0  0  0  0  0
   17.5937   37.0966   37.6855 H   0  0  0  0  0  0  0  0  0  0  0  0
   17.7077   36.1478   36.2242 H   0  0  0  0  0  0  0  0  0  0  0  0
   19.9222   37.4527   35.7574 H   0  0  0  0  0  0  0  0  0  0  0  0
   19.8927   38.5065   38.2332 H   0  0  0  0  0  0  0  0  0  0  0  0
   21.2605   39.9770   37.3742 H   0  0  0  0  0  0  0  0  0  0  0  0
   17.6077   39.5572   38.0696 H   0  0  0  0  0  0  0  0  0  0  0  0
   18.8663   41.1915   38.7467 H   0  0  0  0  0  0  0  0  0  0  0  0
   18.3807   40.7252   35.3557 H   0  0  0  0  0  0  0  0  0  0  0  0
   13.5158   39.2836   36.9502 H   0  0  0  0  0  0  0  0  0  0  0  0
   14.3323   42.4422   34.2992 H   0  0  0  0  0  0  0  0  0  0  0  0
   16.5938   43.3162   36.1766 H   0  0  0  0  0  0  0  0  0  0  0  0
   18.1064   44.1249   35.6314 H   0  0  0  0  0  0  0  0  0  0  0  0
   16.1221   45.6283   36.3552 H   0  0  0  0  0  0  0  0  0  0  0  0
   16.9400   46.0050   34.8009 H   0  0  0  0  0  0  0  0  0  0  0  0
   15.3657   45.1400   34.8009 H   0  0  0  0  0  0  0  0  0  0  0  0
 23 22  2  0
 22 24  1  0
 22 21  1  0
 24 25  1  0
 20 21  2  0
 20 18  1  0
 21 14  1  0
 26 25  1  0
  8 13  1  0
  8  7  1  0
 19 18  2  0
 18 17  1  0
 14 13  1  0
 14 15  1  0
 13 11  1  0
  7  6  1  0
  7  9  1  0
 17 15  1  0
 15 16  2  0
 10  9  1  0
  6  5  1  0
  9 11  1  0
 11 12  1  0
  1  2  2  0
  5  2  1  0
  2  3  1  0
  2  4  1  0
  3 27  1  0
  4 28  1  0
  6 29  1  0
  6 30  1  0
  7 31  1  0
  9 32  1  0
 10 33  1  0
 11 34  1  0
 12 35  1  0
 13 36  1  0
 17 37  1  0
 20 38  1  0
 25 39  1  0
 25 40  1  0
 26 41  1  0
 26 42  1  0
 26 43  1  0
A    1
O3P
A    2
P
A    3
O1P
A    4
O2P
A    5
O5'
A    6
C5'
A    7
C4'
A    8
O4'
A    9
C3'
A   10
O3'
A   11
C2'
A   12
O2'
A   13
C1'
A   14
N1
A   15
C2
A   16
O2
A   17
N3
A   18
C4
A   19
O4
A   20
C5
A   21
C6
A   22
C7
A   23
O71
A   24
O72
A   25
C8
A   26
C9
M  END
