3WK6_S0B_A_603
     RDKit          3D

 31 32  0  0  0  0  0  0  0  0999 V2000
  -17.7760  -13.6400   68.9160 C   0  0  0  0  0  0  0  0  0  0  0  0
  -18.9120  -12.8660   69.0940 C   0  0  0  0  0  0  0  0  0  0  0  0
  -16.7370  -13.0990   68.2200 C   0  0  0  0  0  0  0  0  0  0  0  0
  -19.0390  -11.5810   68.6150 C   0  0  0  0  0  0  0  0  0  0  0  0
  -16.8720  -11.8050   67.7360 C   0  0  0  0  0  0  0  0  0  0  0  0
  -18.0040  -11.0390   67.9150 C   0  0  0  0  0  0  0  0  0  0  0  0
  -17.8300   -7.9850   64.1450 C   0  0  0  0  0  0  0  0  0  0  0  0
  -17.4190   -7.9760   61.9090 C   0  0  0  0  0  0  0  0  0  0  0  0
  -17.4240   -6.5120   62.1620 C   0  0  0  0  0  0  0  0  0  0  0  0
  -17.9720   -5.8550   60.9440 C   0  0  0  0  0  0  0  0  0  0  0  0
  -18.1150   -9.6390   67.3890 C   0  0  0  0  0  0  0  0  0  0  0  0
  -18.2530   -9.5980   65.8860 C   0  0  0  0  0  0  0  0  0  0  0  0
  -17.2340   -8.6550   63.2300 N   0  0  0  0  0  0  0  0  0  0  0  0
  -17.8990   -8.2650   65.4760 N   0  0  0  0  0  0  0  0  0  0  0  0
  -18.6120   -6.5550   63.5300 S   0  0  0  0  0  0  0  0  0  0  0  0
  -17.7151  -14.6597   69.3241 H   0  0  0  0  0  0  0  0  0  0  0  0
  -19.7572  -13.3013   69.6474 H   0  0  0  0  0  0  0  0  0  0  0  0
  -15.8149  -13.6730   68.0461 H   0  0  0  0  0  0  0  0  0  0  0  0
  -19.9581  -11.0039   68.7942 H   0  0  0  0  0  0  0  0  0  0  0  0
  -16.0302  -11.3672   67.1796 H   0  0  0  0  0  0  0  0  0  0  0  0
  -18.3741   -8.2834   61.4582 H   0  0  0  0  0  0  0  0  0  0  0  0
  -16.6108   -8.2485   61.2143 H   0  0  0  0  0  0  0  0  0  0  0  0
  -16.4815   -5.9876   62.3779 H   0  0  0  0  0  0  0  0  0  0  0  0
  -18.6506   -5.0414   61.2401 H   0  0  0  0  0  0  0  0  0  0  0  0
  -17.1455   -5.4437   60.3459 H   0  0  0  0  0  0  0  0  0  0  0  0
  -18.5249   -6.5943   60.3459 H   0  0  0  0  0  0  0  0  0  0  0  0
  -17.2115   -9.0811   67.6761 H   0  0  0  0  0  0  0  0  0  0  0  0
  -19.0209   -9.1892   67.8213 H   0  0  0  0  0  0  0  0  0  0  0  0
  -19.2896   -9.8220   65.5940 H   0  0  0  0  0  0  0  0  0  0  0  0
  -17.6029  -10.3455   65.4078 H   0  0  0  0  0  0  0  0  0  0  0  0
  -17.7014   -7.5360   66.1763 H   0  0  0  0  0  0  0  0  0  0  0  0
 10  9  1  0
  8  9  1  0
  8 13  1  0
  9 15  1  0
 13  7  2  0
 15  7  1  0
  7 14  1  0
 14 12  1  0
 12 11  1  0
 11  6  1  0
  5  6  2  0
  5  3  1  0
  6  4  1  0
  3  1  2  0
  4  2  2  0
  1  2  1  0
  1 16  1  0
  2 17  1  0
  3 18  1  0
  4 19  1  0
  5 20  1  0
  8 21  1  0
  8 22  1  0
  9 23  1  0
 10 24  1  0
 10 25  1  0
 10 26  1  0
 11 27  1  0
 11 28  1  0
 12 29  1  0
 12 30  1  0
 14 31  1  0
A    1
C15
A    2
C13
A    3
C14
A    4
C11
A    5
C12
A    6
C10
A    7
C1
A    8
C7
A    9
C5
A   10
C8
A   11
C9
A   12
C6
A   13
N4
A   14
N3
A   15
S2
M  END
