3WKA_S0G_A_603
     RDKit          3D

 32 33  0  0  0  0  0  0  0  0999 V2000
  -16.4540   -9.4940   70.6780 C   0  0  0  0  0  0  0  0  0  0  0  0
  -16.2550   -9.8590   71.9530 C   0  0  0  0  0  0  0  0  0  0  0  0
  -16.1090   -8.0940   70.2770 C   0  0  0  0  0  0  0  0  0  0  0  0
  -15.3900   -7.6630   72.5630 C   0  0  0  0  0  0  0  0  0  0  0  0
  -17.9050  -12.1560   67.5970 C   0  0  0  0  0  0  0  0  0  0  0  0
  -16.5450  -12.3550   68.2540 C   0  0  0  0  0  0  0  0  0  0  0  0
  -18.8610  -11.3940   68.4850 C   0  0  0  0  0  0  0  0  0  0  0  0
  -15.9660  -11.0830   68.8860 C   0  0  0  0  0  0  0  0  0  0  0  0
  -18.2530  -10.1230   69.0680 C   0  0  0  0  0  0  0  0  0  0  0  0
  -15.5220   -9.4520   74.2800 C   0  0  0  0  0  0  0  0  0  0  0  0
  -15.6140   -7.2810   71.2640 N   0  0  0  0  0  0  0  0  0  0  0  0
  -16.9600  -10.3710   69.7210 N   0  0  0  0  0  0  0  0  0  0  0  0
  -15.7270   -8.9850   72.9020 N   0  0  0  0  0  0  0  0  0  0  0  0
  -16.5840  -11.1420   72.2950 N   0  0  0  0  0  0  0  0  0  0  0  0
  -16.2610   -7.6490   69.1470 O   0  0  0  0  0  0  0  0  0  0  0  0
  -14.9200   -6.8420   73.3330 O   0  0  0  0  0  0  0  0  0  0  0  0
  -17.7676  -11.5952   66.6607 H   0  0  0  0  0  0  0  0  0  0  0  0
  -18.3379  -13.1495   67.4083 H   0  0  0  0  0  0  0  0  0  0  0  0
  -16.6492  -13.1160   69.0414 H   0  0  0  0  0  0  0  0  0  0  0  0
  -15.8490  -12.6609   67.4591 H   0  0  0  0  0  0  0  0  0  0  0  0
  -19.7455  -11.1186   67.8919 H   0  0  0  0  0  0  0  0  0  0  0  0
  -19.1186  -12.0509   69.3289 H   0  0  0  0  0  0  0  0  0  0  0  0
  -15.1075  -11.3595   69.5156 H   0  0  0  0  0  0  0  0  0  0  0  0
  -15.6642  -10.4084   68.0713 H   0  0  0  0  0  0  0  0  0  0  0  0
  -18.1051   -9.3967   68.2552 H   0  0  0  0  0  0  0  0  0  0  0  0
  -18.9462   -9.7378   69.8303 H   0  0  0  0  0  0  0  0  0  0  0  0
  -15.8618   -8.6780   74.9838 H   0  0  0  0  0  0  0  0  0  0  0  0
  -16.0978  -10.3748   74.4439 H   0  0  0  0  0  0  0  0  0  0  0  0
  -14.4530   -9.6528   74.4439 H   0  0  0  0  0  0  0  0  0  0  0  0
  -15.3930   -6.3074   71.0107 H   0  0  0  0  0  0  0  0  0  0  0  0
  -16.6525  -11.4090   73.2874 H   0  0  0  0  0  0  0  0  0  0  0  0
  -16.7633  -11.8410   71.5601 H   0  0  0  0  0  0  0  0  0  0  0  0
  5  6  1  0
  5  7  1  0
  6  8  1  0
  7  9  1  0
  8 12  1  0
  9 12  1  0
 15  3  2  0
 12  1  1  0
  3  1  1  0
  3 11  1  0
  1  2  2  0
 11  4  1  0
  2 14  1  0
  2 13  1  0
  4 13  1  0
  4 16  2  0
 13 10  1  0
  5 17  1  0
  5 18  1  0
  6 19  1  0
  6 20  1  0
  7 21  1  0
  7 22  1  0
  8 23  1  0
  8 24  1  0
  9 25  1  0
  9 26  1  0
 10 27  1  0
 10 28  1  0
 10 29  1  0
 11 30  1  0
 14 31  1  0
 14 32  1  0
A    1
C3
A    2
C1
A    3
C6
A    4
C4
A    5
C16
A    6
C15
A    7
C14
A    8
C12
A    9
C13
A   10
C11
A   11
N5
A   12
N7
A   13
N2
A   14
N10
A   15
O9
A   16
O8
M  END
