3WKC_S0J_A_603
     RDKit          3D

 38 40  0  0  0  0  0  0  0  0999 V2000
  -13.6730   -3.5510   59.7680 C   0  0  0  0  0  0  0  0  0  0  0  0
  -11.5370   -4.3000   57.7840 C   0  0  0  0  0  0  0  0  0  0  0  0
  -13.7460   -4.6650   58.9070 C   0  0  0  0  0  0  0  0  0  0  0  0
  -12.7610   -4.9140   57.9030 C   0  0  0  0  0  0  0  0  0  0  0  0
  -14.8390   -3.5650   60.4850 C   0  0  0  0  0  0  0  0  0  0  0  0
  -14.9340   -5.3420   59.0840 C   0  0  0  0  0  0  0  0  0  0  0  0
  -12.1830   -5.8720   56.0100 C   0  0  0  0  0  0  0  0  0  0  0  0
  -18.5990   -6.9170   62.7270 C   0  0  0  0  0  0  0  0  0  0  0  0
  -18.3580   -5.4800   62.5010 C   0  0  0  0  0  0  0  0  0  0  0  0
  -17.7580   -7.5230   61.6440 C   0  0  0  0  0  0  0  0  0  0  0  0
  -16.9560   -5.4950   61.9390 C   0  0  0  0  0  0  0  0  0  0  0  0
  -15.2280   -2.5860   61.5170 C   0  0  0  0  0  0  0  0  0  0  0  0
  -15.4940   -6.5530   58.4230 C   0  0  0  0  0  0  0  0  0  0  0  0
  -16.9310   -5.0530   60.5050 C   0  0  0  0  0  0  0  0  0  0  0  0
  -13.1280   -5.7840   56.9100 N   0  0  0  0  0  0  0  0  0  0  0  0
  -15.5820   -4.6620   60.0750 N   0  0  0  0  0  0  0  0  0  0  0  0
  -12.2480   -6.6380   54.9160 N   0  0  0  0  0  0  0  0  0  0  0  0
  -16.5310   -6.8190   61.8110 O   0  0  0  0  0  0  0  0  0  0  0  0
  -10.8110   -4.8990   56.3500 S   0  0  0  0  0  0  0  0  0  0  0  0
  -12.8517   -2.8235   59.8470 H   0  0  0  0  0  0  0  0  0  0  0  0
  -11.1047   -3.5636   58.4774 H   0  0  0  0  0  0  0  0  0  0  0  0
  -19.6618   -7.1725   62.6036 H   0  0  0  0  0  0  0  0  0  0  0  0
  -18.3509   -7.2640   63.7409 H   0  0  0  0  0  0  0  0  0  0  0  0
  -18.4080   -4.9113   63.4413 H   0  0  0  0  0  0  0  0  0  0  0  0
  -19.0989   -4.9984   61.8459 H   0  0  0  0  0  0  0  0  0  0  0  0
  -18.1925   -7.3432   60.6496 H   0  0  0  0  0  0  0  0  0  0  0  0
  -17.6606   -8.6167   61.7103 H   0  0  0  0  0  0  0  0  0  0  0  0
  -16.3559   -4.8588   62.6062 H   0  0  0  0  0  0  0  0  0  0  0  0
  -15.0567   -3.0170   62.5144 H   0  0  0  0  0  0  0  0  0  0  0  0
  -14.6240   -1.6737   61.4032 H   0  0  0  0  0  0  0  0  0  0  0  0
  -16.2934   -2.3370   61.4032 H   0  0  0  0  0  0  0  0  0  0  0  0
  -15.8251   -7.2691   59.1895 H   0  0  0  0  0  0  0  0  0  0  0  0
  -16.3505   -6.2653   57.7956 H   0  0  0  0  0  0  0  0  0  0  0  0
  -14.7201   -7.0192   57.7956 H   0  0  0  0  0  0  0  0  0  0  0  0
  -17.6053   -4.1921   60.3866 H   0  0  0  0  0  0  0  0  0  0  0  0
  -17.2550   -5.8997   59.8820 H   0  0  0  0  0  0  0  0  0  0  0  0
  -12.3347   -7.6603   55.0075 H   0  0  0  0  0  0  0  0  0  0  0  0
  -12.2113   -6.2058   53.9818 H   0  0  0  0  0  0  0  0  0  0  0  0
 17  7  1  0
  7 19  1  0
  7 15  2  0
 19  2  1  0
 15  4  1  0
  2  4  2  0
  4  3  1  0
 13  6  1  0
  3  6  2  0
  3  1  1  0
  6 16  1  0
  1  5  2  0
 16  5  1  0
 16 14  1  0
  5 12  1  0
 14 11  1  0
 10 18  1  0
 10  8  1  0
 18 11  1  0
 11  9  1  0
  9  8  1  0
  1 20  1  0
  2 21  1  0
  8 22  1  0
  8 23  1  0
  9 24  1  0
  9 25  1  0
 10 26  1  0
 10 27  1  0
 11 28  1  0
 12 29  1  0
 12 30  1  0
 12 31  1  0
 13 32  1  0
 13 33  1  0
 13 34  1  0
 14 35  1  0
 14 36  1  0
 17 37  1  0
 17 38  1  0
A    1
C3
A    2
C15
A    3
C4
A    4
C14
A    5
C2
A    6
C5
A    7
C17
A    8
C11
A    9
C10
A   10
C12
A   11
C9
A   12
C1
A   13
C6
A   14
C8
A   15
N19
A   16
N7
A   17
N18
A   18
O13
A   19
S16
M  END
