3WQQ_IB3_A_503
     RDKit          3D

 37 37  0  0  0  0  0  0  0  0999 V2000
  -16.0410   17.7010   15.6540 C   0  0  0  0  0  0  0  0  0  0  0  0
  -15.3580   17.2960   14.5140 C   0  0  0  0  0  0  0  0  0  0  0  0
  -14.4820   16.2210   14.5770 C   0  0  0  0  0  0  0  0  0  0  0  0
  -14.2840   15.5530   15.7900 C   0  0  0  0  0  0  0  0  0  0  0  0
  -14.9620   15.9580   16.9370 C   0  0  0  0  0  0  0  0  0  0  0  0
  -15.8480   17.0340   16.8630 C   0  0  0  0  0  0  0  0  0  0  0  0
  -15.8570   16.2740   11.7910 O   0  0  0  0  0  0  0  0  0  0  0  0
  -14.8360   15.2140   12.0150 P   0  0  0  0  0  0  0  0  0  0  0  0
  -13.9350   15.0080   10.8150 O   0  0  0  0  0  0  0  0  0  0  0  0
  -15.3500   13.9240   12.6010 O   0  0  0  0  0  0  0  0  0  0  0  0
  -13.7380   15.8130   13.3550 C   0  0  0  0  0  0  0  0  0  0  0  0
  -12.8960   17.0070   12.8830 C   0  0  0  0  0  0  0  0  0  0  0  0
  -11.7740   17.4000   13.8530 C   0  0  0  0  0  0  0  0  0  0  0  0
  -10.8010   16.2690   14.1150 C   0  0  0  0  0  0  0  0  0  0  0  0
  -10.5640   15.8920   15.3710 N   0  0  0  0  0  0  0  0  0  0  0  0
  -11.1190   16.4710   16.5790 C   0  0  0  0  0  0  0  0  0  0  0  0
   -9.6760   14.8360   15.5420 O   0  0  0  0  0  0  0  0  0  0  0  0
  -10.2580   15.6810   13.1930 O   0  0  0  0  0  0  0  0  0  0  0  0
  -16.6090   17.5140   18.0750 C   0  0  0  0  0  0  0  0  0  0  0  0
  -16.7369   18.5514   15.6025 H   0  0  0  0  0  0  0  0  0  0  0  0
  -15.5112   17.8265   13.5626 H   0  0  0  0  0  0  0  0  0  0  0  0
  -13.5883   14.7023   15.8382 H   0  0  0  0  0  0  0  0  0  0  0  0
  -14.8010   15.4354   17.8914 H   0  0  0  0  0  0  0  0  0  0  0  0
  -16.1808   16.6101   12.6641 H   0  0  0  0  0  0  0  0  0  0  0  0
  -15.3282   13.9787   13.5892 H   0  0  0  0  0  0  0  0  0  0  0  0
  -13.0908   14.9609   13.6101 H   0  0  0  0  0  0  0  0  0  0  0  0
  -13.5630   17.8725   12.7564 H   0  0  0  0  0  0  0  0  0  0  0  0
  -12.4128   16.7044   11.9423 H   0  0  0  0  0  0  0  0  0  0  0  0
  -12.2261   17.7031   14.8089 H   0  0  0  0  0  0  0  0  0  0  0  0
  -11.2088   18.2222   13.3897 H   0  0  0  0  0  0  0  0  0  0  0  0
  -10.6615   15.9937   17.4581 H   0  0  0  0  0  0  0  0  0  0  0  0
  -10.9099   17.5508   16.5976 H   0  0  0  0  0  0  0  0  0  0  0  0
  -12.2067   16.3078   16.5976 H   0  0  0  0  0  0  0  0  0  0  0  0
   -9.5391   14.6732   16.5089 H   0  0  0  0  0  0  0  0  0  0  0  0
  -16.0895   17.1863   18.9876 H   0  0  0  0  0  0  0  0  0  0  0  0
  -16.6669   18.6124   18.0603 H   0  0  0  0  0  0  0  0  0  0  0  0
  -17.6252   17.0931   18.0603 H   0  0  0  0  0  0  0  0  0  0  0  0
 19  6  1  0
  6  5  1  0
  6  1  2  0
  5  4  2  0
  1  2  1  0
 16 15  1  0
  4  3  1  0
  2  3  2  0
  3 11  1  0
 15 17  1  0
 15 14  1  0
 13 14  1  0
 13 12  1  0
 11 12  1  0
 11  8  1  0
 14 18  2  0
  9  8  2  0
  7  8  1  0
  8 10  1  0
  1 20  1  0
  2 21  1  0
  4 22  1  0
  5 23  1  0
  7 24  1  0
 10 25  1  0
 11 26  1  0
 12 27  1  0
 12 28  1  0
 13 29  1  0
 13 30  1  0
 16 31  1  0
 16 32  1  0
 16 33  1  0
 17 34  1  0
 19 35  1  0
 19 36  1  0
 19 37  1  0
A    1
C1
A    2
C2
A    3
C3
A    4
C4
A    5
C5
A    6
C6
A    7
O9
A    8
P8
A    9
O11
A   10
O10
A   11
C7
A   12
C12
A   13
C13
A   14
C14
A   15
N16
A   16
C17
A   17
O18
A   18
O15
A   19
C19
M  END
