3WQS_KBK_B_503
     RDKit          3D

 36 36  0  0  0  0  0  0  0  0999 V2000
   43.6390   -6.6260   -1.6240 O   0  0  0  0  0  0  0  0  0  0  0  0
   42.2380   -6.6130   -2.1920 P   0  0  0  0  0  0  0  0  0  0  0  0
   42.2120   -6.4500   -3.6920 O   0  0  0  0  0  0  0  0  0  0  0  0
   41.5180   -7.8650   -1.7220 O   0  0  0  0  0  0  0  0  0  0  0  0
   41.2590   -5.2120   -1.5650 C   0  0  0  0  0  0  0  0  0  0  0  0
   40.8490   -5.4610   -0.2110 O   0  0  0  0  0  0  0  0  0  0  0  0
   39.7900   -4.6030    0.2980 C   0  0  0  0  0  0  0  0  0  0  0  0
   38.5170   -4.6840   -0.5280 C   0  0  0  0  0  0  0  0  0  0  0  0
   37.9940   -3.6580   -1.1990 N   0  0  0  0  0  0  0  0  0  0  0  0
   38.5270   -2.3010   -1.3020 C   0  0  0  0  0  0  0  0  0  0  0  0
   36.8190   -3.9430   -1.9240 O   0  0  0  0  0  0  0  0  0  0  0  0
   37.9320   -5.7230   -0.5930 O   0  0  0  0  0  0  0  0  0  0  0  0
   41.9600   -3.8930   -1.7090 C   0  0  0  0  0  0  0  0  0  0  0  0
   41.5100   -2.9780   -2.6650 C   0  0  0  0  0  0  0  0  0  0  0  0
   42.1370   -1.7380   -2.8150 C   0  0  0  0  0  0  0  0  0  0  0  0
   43.2270   -1.3740   -2.0230 C   0  0  0  0  0  0  0  0  0  0  0  0
   43.8190   -0.1340   -2.2080 O   0  0  0  0  0  0  0  0  0  0  0  0
   45.1790    0.1380   -1.8860 C   0  0  0  0  0  0  0  0  0  0  0  0
   43.6730   -2.2760   -1.0530 C   0  0  0  0  0  0  0  0  0  0  0  0
   43.0450   -3.5240   -0.8990 C   0  0  0  0  0  0  0  0  0  0  0  0
   43.5941   -6.6256   -0.6350 H   0  0  0  0  0  0  0  0  0  0  0  0
   41.5056   -7.8866   -0.7323 H   0  0  0  0  0  0  0  0  0  0  0  0
   40.3594   -5.1321   -2.1930 H   0  0  0  0  0  0  0  0  0  0  0  0
   40.1473   -3.5626    0.2917 H   0  0  0  0  0  0  0  0  0  0  0  0
   39.5469   -4.9453    1.3147 H   0  0  0  0  0  0  0  0  0  0  0  0
   38.6874   -1.8925   -0.2933 H   0  0  0  0  0  0  0  0  0  0  0  0
   39.4833   -2.3229   -1.8451 H   0  0  0  0  0  0  0  0  0  0  0  0
   37.8114   -1.6662   -1.8451 H   0  0  0  0  0  0  0  0  0  0  0  0
   36.0775   -4.1229   -1.2932 H   0  0  0  0  0  0  0  0  0  0  0  0
   40.6539   -3.2364   -3.3056 H   0  0  0  0  0  0  0  0  0  0  0  0
   41.7635   -1.0341   -3.5733 H   0  0  0  0  0  0  0  0  0  0  0  0
   45.2992    0.1620   -0.7929 H   0  0  0  0  0  0  0  0  0  0  0  0
   45.8204   -0.6497   -2.3082 H   0  0  0  0  0  0  0  0  0  0  0  0
   45.4681    1.1117   -2.3082 H   0  0  0  0  0  0  0  0  0  0  0  0
   44.5210   -2.0075   -0.4059 H   0  0  0  0  0  0  0  0  0  0  0  0
   43.4097   -4.2225   -0.1315 H   0  0  0  0  0  0  0  0  0  0  0  0
  3  2  2  0
 15 14  1  0
 15 16  2  0
 14 13  2  0
 17 16  1  0
 17 18  1  0
  2  4  1  0
  2  1  1  0
  2  5  1  0
 16 19  1  0
 11  9  1  0
 13  5  1  0
 13 20  1  0
  5  6  1  0
 10  9  1  0
  9  8  1  0
 19 20  2  0
 12  8  2  0
  8  7  1  0
  6  7  1  0
  1 21  1  0
  4 22  1  0
  5 23  1  0
  7 24  1  0
  7 25  1  0
 10 26  1  0
 10 27  1  0
 10 28  1  0
 11 29  1  0
 14 30  1  0
 15 31  1  0
 18 32  1  0
 18 33  1  0
 18 34  1  0
 19 35  1  0
 20 36  1  0
A    1
O9
A    2
P8
A    3
O11
A    4
O10
A    5
C7
A    6
O12
A    7
C13
A    8
C14
A    9
N16
A   10
C17
A   11
O18
A   12
O15
A   13
C3
A   14
C4
A   15
C5
A   16
C6
A   17
O19
A   18
C20
A   19
C1
A   20
C2
M  END
