3WS8_X4C_A_803
     RDKit          3D

 49 53  0  0  0  0  0  0  0  0999 V2000
   17.7930    7.9410   55.8070 C   0  0  0  0  0  0  0  0  0  0  0  0
   18.9400    8.5620   56.2580 C   0  0  0  0  0  0  0  0  0  0  0  0
   17.7190    6.5580   55.7980 C   0  0  0  0  0  0  0  0  0  0  0  0
   23.9800    6.2340   55.0160 C   0  0  0  0  0  0  0  0  0  0  0  0
   22.6290    6.3550   55.2740 C   0  0  0  0  0  0  0  0  0  0  0  0
   20.0020    7.7970   56.6930 C   0  0  0  0  0  0  0  0  0  0  0  0
   18.7890    5.7840   56.2120 C   0  0  0  0  0  0  0  0  0  0  0  0
   24.4690    4.9810   57.0140 C   0  0  0  0  0  0  0  0  0  0  0  0
   24.8670    5.5740   55.8430 C   0  0  0  0  0  0  0  0  0  0  0  0
   23.1270    5.0900   57.2950 C   0  0  0  0  0  0  0  0  0  0  0  0
   22.2530    5.7480   56.4530 C   0  0  0  0  0  0  0  0  0  0  0  0
   19.9240    6.4180   56.6600 C   0  0  0  0  0  0  0  0  0  0  0  0
   18.5290    3.2650   63.0460 C   0  0  0  0  0  0  0  0  0  0  0  0
   17.6880    2.7140   62.1070 C   0  0  0  0  0  0  0  0  0  0  0  0
   21.2050    4.9630   58.2160 C   0  0  0  0  0  0  0  0  0  0  0  0
   19.5800    3.3700   61.1870 C   0  0  0  0  0  0  0  0  0  0  0  0
   16.6580    1.7800   59.7050 C   0  0  0  0  0  0  0  0  0  0  0  0
   17.8780    2.3240   59.7280 C   0  0  0  0  0  0  0  0  0  0  0  0
   15.9830    1.7320   61.0270 C   0  0  0  0  0  0  0  0  0  0  0  0
   26.2950    5.5080   55.4580 C   0  0  0  0  0  0  0  0  0  0  0  0
   18.3350    3.4520   64.4870 C   0  0  0  0  0  0  0  0  0  0  0  0
   20.1140    4.6550   59.1600 C   0  0  0  0  0  0  0  0  0  0  0  0
   20.5820    3.6160   60.1580 C   0  0  0  0  0  0  0  0  0  0  0  0
   22.4630    4.6120   58.3740 N   0  0  0  0  0  0  0  0  0  0  0  0
   19.6990    3.6740   62.4610 N   0  0  0  0  0  0  0  0  0  0  0  0
   16.4530    2.1650   62.1560 N   0  0  0  0  0  0  0  0  0  0  0  0
   21.0260    5.6550   57.0520 N   0  0  0  0  0  0  0  0  0  0  0  0
   18.3730    2.7800   60.9230 N   0  0  0  0  0  0  0  0  0  0  0  0
   16.9411    8.5419   55.4561 H   0  0  0  0  0  0  0  0  0  0  0  0
   19.0068    9.6599   56.2705 H   0  0  0  0  0  0  0  0  0  0  0  0
   16.7956    6.0673   55.4566 H   0  0  0  0  0  0  0  0  0  0  0  0
   24.3734    6.6910   54.0960 H   0  0  0  0  0  0  0  0  0  0  0  0
   21.9273    6.8801   54.6092 H   0  0  0  0  0  0  0  0  0  0  0  0
   20.9135    8.2861   57.0672 H   0  0  0  0  0  0  0  0  0  0  0  0
   18.7328    4.6858   56.1833 H   0  0  0  0  0  0  0  0  0  0  0  0
   25.1711    4.4570   57.6792 H   0  0  0  0  0  0  0  0  0  0  0  0
   16.1924    1.3995   58.7839 H   0  0  0  0  0  0  0  0  0  0  0  0
   18.4737    2.4046   58.8068 H   0  0  0  0  0  0  0  0  0  0  0  0
   14.9795    1.2822   61.0514 H   0  0  0  0  0  0  0  0  0  0  0  0
   26.9181    5.4792   56.3641 H   0  0  0  0  0  0  0  0  0  0  0  0
   26.4725    4.6007   54.8619 H   0  0  0  0  0  0  0  0  0  0  0  0
   26.5554    6.3951   54.8619 H   0  0  0  0  0  0  0  0  0  0  0  0
   19.0204    2.7913   65.0380 H   0  0  0  0  0  0  0  0  0  0  0  0
   18.5428    4.4992   64.7521 H   0  0  0  0  0  0  0  0  0  0  0  0
   17.2962    3.2059   64.7521 H   0  0  0  0  0  0  0  0  0  0  0  0
   19.8234    5.5712   59.6949 H   0  0  0  0  0  0  0  0  0  0  0  0
   19.2499    4.2630   58.6035 H   0  0  0  0  0  0  0  0  0  0  0  0
   20.7847    2.6753   59.6252 H   0  0  0  0  0  0  0  0  0  0  0  0
   21.4915    3.9946   60.6474 H   0  0  0  0  0  0  0  0  0  0  0  0
  4  5  2  0
  4  9  1  0
  5 11  1  0
 20  9  1  0
  3  1  2  0
  3  7  1  0
  1  2  1  0
  9  8  2  0
  7 12  2  0
  2  6  2  0
 11 27  1  0
 11 10  2  0
 12  6  1  0
 12 27  1  0
  8 10  1  0
 27 15  1  0
 10 24  1  0
 15 24  2  0
 15 22  1  0
 22 23  1  0
 17 18  2  0
 17 19  1  0
 18 28  1  0
 23 16  1  0
 28 16  1  0
 28 14  1  0
 19 26  2  0
 16 25  2  0
 14 26  1  0
 14 13  2  0
 25 13  1  0
 13 21  1  0
  1 29  1  0
  2 30  1  0
  3 31  1  0
  4 32  1  0
  5 33  1  0
  6 34  1  0
  7 35  1  0
  8 36  1  0
 17 37  1  0
 18 38  1  0
 19 39  1  0
 20 40  1  0
 20 41  1  0
 20 42  1  0
 21 43  1  0
 21 44  1  0
 21 45  1  0
 22 46  1  0
 22 47  1  0
 23 48  1  0
 23 49  1  0
A    1
C25
A    2
C24
A    3
C26
A    4
C17
A    5
C15
A    6
C23
A    7
C27
A    8
C12
A    9
C16
A   10
C8
A   11
C10
A   12
C18
A   13
C9
A   14
C7
A   15
C1
A   16
C2
A   17
C21
A   18
C14
A   19
C22
A   20
C20
A   21
C28
A   22
C11
A   23
C13
A   24
N4
A   25
N3
A   26
N19
A   27
N5
A   28
N6
M  END
