2ZJV_CT4_A_301
     RDKit          3D

 23 23  0  0  0  0  0  0  0  0999 V2000
   30.8480  -27.0810  -28.5190 N   0  0  0  0  0  0  0  0  0  0  0  0
   30.0040  -27.3870  -27.4620 C   0  0  0  0  0  0  0  0  0  0  0  0
   30.6110  -26.9700  -26.2840 N   0  0  0  0  0  0  0  0  0  0  0  0
   28.8410  -27.9650  -27.7360 N   0  0  0  0  0  0  0  0  0  0  0  0
   30.5540  -27.3640  -29.9180 C   0  0  0  0  0  0  0  0  0  0  0  0
   30.1890  -26.1590  -30.7360 C   0  0  0  0  0  0  0  0  0  0  0  0
   31.8990  -26.3320  -26.0630 C   0  0  0  0  0  0  0  0  0  0  0  0
   29.7710  -26.3170  -32.3990 S   0  0  0  0  0  0  0  0  0  0  0  0
   29.5470  -24.6300  -32.4690 C   0  0  0  0  0  0  0  0  0  0  0  0
   29.7510  -23.9410  -31.3700 N   0  0  0  0  0  0  0  0  0  0  0  0
   30.1210  -24.8210  -30.3730 C   0  0  0  0  0  0  0  0  0  0  0  0
   29.0740  -23.8930  -33.9390 Cl  0  0  0  0  0  0  0  0  0  0  0  0
   27.9500  -28.2990  -26.7700 N   0  0  0  0  0  0  0  0  0  0  0  0
   26.8880  -28.8470  -27.1360 O   0  0  0  0  0  0  0  0  0  0  0  0
   28.1910  -28.0530  -25.5610 O   0  0  0  0  0  0  0  0  0  0  0  0
   31.7439  -26.6223  -28.3003 H   0  0  0  0  0  0  0  0  0  0  0  0
   30.0605  -27.1400  -25.4302 H   0  0  0  0  0  0  0  0  0  0  0  0
   31.4438  -27.8279  -30.3686 H   0  0  0  0  0  0  0  0  0  0  0  0
   29.6737  -28.0235  -29.9244 H   0  0  0  0  0  0  0  0  0  0  0  0
   32.0825  -26.2411  -24.9822 H   0  0  0  0  0  0  0  0  0  0  0  0
   32.6930  -26.9410  -26.5198 H   0  0  0  0  0  0  0  0  0  0  0  0
   31.8957  -25.3313  -26.5198 H   0  0  0  0  0  0  0  0  0  0  0  0
   30.3484  -24.4821  -29.3515 H   0  0  0  0  0  0  0  0  0  0  0  0
  1  2  1  0
  1  5  1  0
  2  3  1  0
  2  4  2  0
  3  7  1  0
  4 13  1  0
  5  6  1  0
  6  8  1  0
  6 11  2  0
  8  9  1  0
  9 10  2  0
  9 12  1  0
 10 11  1  0
 13 14  1  0
 13 15  2  0
  1 16  1  0
  3 17  1  0
  5 18  1  0
  5 19  1  0
  7 20  1  0
  7 21  1  0
  7 22  1  0
 11 23  1  0
M  CHG  2  13   1  14  -1
A    1
N
A    2
C
A    3
N1
A    4
N2
A    5
C1
A    6
C2
A    7
C3
A    8
S
A    9
C4
A   10
N4
A   11
C5
A   12
CL
A   13
N5
A   14
O1
A   15
O2
M  END
