3WTN_N2Y_A_301
     RDKit          3D

 25 26  0  0  0  0  0  0  0  0999 V2000
    1.5070   22.8980   16.8610 N   0  0  0  0  0  0  0  0  0  0  0  0
    2.3290   22.4100   14.6810 N   0  0  0  0  0  0  0  0  0  0  0  0
    2.1540   23.2440   15.8200 C   0  0  0  0  0  0  0  0  0  0  0  0
    2.7860   24.4820   15.6310 N   0  0  0  0  0  0  0  0  0  0  0  0
    3.4210   24.5100   14.3190 C   0  0  0  0  0  0  0  0  0  0  0  0
    3.1210   23.1470   13.6850 C   0  0  0  0  0  0  0  0  0  0  0  0
    4.7040   17.8120   14.1240 C   0  0  0  0  0  0  0  0  0  0  0  0
    5.8620   16.5330   13.9870 Cl  0  0  0  0  0  0  0  0  0  0  0  0
    5.0540   18.9700   14.7290 N   0  0  0  0  0  0  0  0  0  0  0  0
    4.1850   19.9930   14.8560 C   0  0  0  0  0  0  0  0  0  0  0  0
    2.8450   19.8910   14.3470 C   0  0  0  0  0  0  0  0  0  0  0  0
    2.4730   18.6750   13.7110 C   0  0  0  0  0  0  0  0  0  0  0  0
    3.4000   17.6200   13.5910 C   0  0  0  0  0  0  0  0  0  0  0  0
    1.8210   21.0350   14.4690 C   0  0  0  0  0  0  0  0  0  0  0  0
    1.4176   23.5510   17.6525 H   0  0  0  0  0  0  0  0  0  0  0  0
    2.7994   25.2527   16.3141 H   0  0  0  0  0  0  0  0  0  0  0  0
    4.5066   24.6551   14.4211 H   0  0  0  0  0  0  0  0  0  0  0  0
    3.0419   25.3377   13.7016 H   0  0  0  0  0  0  0  0  0  0  0  0
    2.5460   23.2745   12.7560 H   0  0  0  0  0  0  0  0  0  0  0  0
    4.0442   22.6096   13.4223 H   0  0  0  0  0  0  0  0  0  0  0  0
    4.5062   20.9186   15.3562 H   0  0  0  0  0  0  0  0  0  0  0  0
    1.4555   18.5568   13.3101 H   0  0  0  0  0  0  0  0  0  0  0  0
    3.1227   16.6758   13.0994 H   0  0  0  0  0  0  0  0  0  0  0  0
    1.2310   21.0449   13.5406 H   0  0  0  0  0  0  0  0  0  0  0  0
    1.2645   20.8053   15.3896 H   0  0  0  0  0  0  0  0  0  0  0  0
 13 12  1  0
 13  7  2  0
  6  5  1  0
  6  2  1  0
 12 11  2  0
  8  7  1  0
  7  9  1  0
  5  4  1  0
 11 14  1  0
 11 10  1  0
 14  2  1  0
  2  3  1  0
  9 10  2  0
  4  3  1  0
  3  1  2  3
  1 15  1  0
  4 16  1  0
  5 17  1  0
  5 18  1  0
  6 19  1  0
  6 20  1  0
 10 21  1  0
 12 22  1  0
 13 23  1  0
 14 24  1  0
 14 25  1  0
A    1
N2
A    2
N3
A    3
C1
A    4
N4
A    5
C2
A    6
C3
A    7
C4
A    8
CL1
A    9
N6
A   10
C5
A   11
C6
A   12
C7
A   13
C8
A   14
C9
M  END
