3WYL_3KB_A_1003
     RDKit          3D

 45 48  0  0  0  0  0  0  0  0999 V2000
    9.9470    1.7290  -20.4580 C   0  0  0  0  0  0  0  0  0  0  0  0
    8.6890    1.7000  -19.8990 C   0  0  0  0  0  0  0  0  0  0  0  0
   10.8860    0.7730  -20.1220 C   0  0  0  0  0  0  0  0  0  0  0  0
    9.6400   -0.7770  -23.7360 C   0  0  0  0  0  0  0  0  0  0  0  0
    9.7030   -1.6400  -24.8040 C   0  0  0  0  0  0  0  0  0  0  0  0
    8.3700    0.7150  -18.9900 C   0  0  0  0  0  0  0  0  0  0  0  0
   10.5730   -0.2190  -19.2200 C   0  0  0  0  0  0  0  0  0  0  0  0
    8.9240   -1.1400  -22.6220 C   0  0  0  0  0  0  0  0  0  0  0  0
    8.0730   -2.8730  -16.6620 C   0  0  0  0  0  0  0  0  0  0  0  0
    8.3490   -3.2100  -23.6220 C   0  0  0  0  0  0  0  0  0  0  0  0
    8.9060   -2.0950  -15.8260 C   0  0  0  0  0  0  0  0  0  0  0  0
    9.0570   -2.8570  -24.7420 C   0  0  0  0  0  0  0  0  0  0  0  0
    9.3150   -0.2290  -18.6660 C   0  0  0  0  0  0  0  0  0  0  0  0
    8.2740   -2.3550  -22.5570 C   0  0  0  0  0  0  0  0  0  0  0  0
    8.1540   -2.2770  -17.9010 C   0  0  0  0  0  0  0  0  0  0  0  0
    6.3250   -3.3220  -21.4590 C   0  0  0  0  0  0  0  0  0  0  0  0
    7.5520   -2.6330  -19.1400 C   0  0  0  0  0  0  0  0  0  0  0  0
    5.5990   -3.6620  -20.3910 C   0  0  0  0  0  0  0  0  0  0  0  0
    6.2160   -3.3140  -19.1170 C   0  0  0  0  0  0  0  0  0  0  0  0
    3.9800   -4.8360  -21.5600 C   0  0  0  0  0  0  0  0  0  0  0  0
    9.0930   -3.8320  -25.8710 C   0  0  0  0  0  0  0  0  0  0  0  0
    9.4800   -1.0780  -16.4760 N   0  0  0  0  0  0  0  0  0  0  0  0
    8.1710   -2.3560  -20.2400 N   0  0  0  0  0  0  0  0  0  0  0  0
    9.0040   -1.2120  -17.7310 N   0  0  0  0  0  0  0  0  0  0  0  0
    7.5510   -2.7050  -21.4080 N   0  0  0  0  0  0  0  0  0  0  0  0
    5.6620   -3.5680  -18.0640 O   0  0  0  0  0  0  0  0  0  0  0  0
    4.3680   -4.2770  -20.3040 O   0  0  0  0  0  0  0  0  0  0  0  0
    9.8720   -3.4330  -26.9270 F   0  0  0  0  0  0  0  0  0  0  0  0
    9.5590   -5.0610  -25.4720 F   0  0  0  0  0  0  0  0  0  0  0  0
    7.8320   -4.0290  -26.3680 F   0  0  0  0  0  0  0  0  0  0  0  0
   10.2063    2.5195  -21.1777 H   0  0  0  0  0  0  0  0  0  0  0  0
    7.9428    2.4590  -20.1766 H   0  0  0  0  0  0  0  0  0  0  0  0
   11.8871    0.8045  -20.5767 H   0  0  0  0  0  0  0  0  0  0  0  0
   10.1572    0.1931  -23.7733 H   0  0  0  0  0  0  0  0  0  0  0  0
   10.2673   -1.3607  -25.7060 H   0  0  0  0  0  0  0  0  0  0  0  0
    7.3716    0.6845  -18.5294 H   0  0  0  0  0  0  0  0  0  0  0  0
   11.3130   -0.9863  -18.9488 H   0  0  0  0  0  0  0  0  0  0  0  0
    8.8678   -0.4503  -21.7669 H   0  0  0  0  0  0  0  0  0  0  0  0
    7.4873   -3.7615  -16.3835 H   0  0  0  0  0  0  0  0  0  0  0  0
    7.8396   -4.1841  -23.5799 H   0  0  0  0  0  0  0  0  0  0  0  0
    9.0644   -2.3037  -14.7577 H   0  0  0  0  0  0  0  0  0  0  0  0
    5.9111   -3.5529  -22.4517 H   0  0  0  0  0  0  0  0  0  0  0  0
    3.3605   -5.7286  -21.3884 H   0  0  0  0  0  0  0  0  0  0  0  0
    3.4026   -4.0928  -22.1294 H   0  0  0  0  0  0  0  0  0  0  0  0
    4.8782   -5.1171  -22.1294 H   0  0  0  0  0  0  0  0  0  0  0  0
 28 21  1  0
 30 21  1  0
 21 29  1  0
 21 12  1  0
  5 12  1  0
  5  4  2  0
 12 10  2  0
  4  8  1  0
 10 14  1  0
  8 14  2  0
 14 25  1  0
 20 27  1  0
 16 25  1  0
 16 18  2  0
 25 23  1  0
  1  3  2  0
  1  2  1  0
 18 27  1  0
 18 19  1  0
 23 17  2  0
  3  7  1  0
  2  6  2  0
  7 13  2  0
 17 19  1  0
 17 15  1  0
 19 26  2  0
  6 13  1  0
 13 24  1  0
 15 24  1  0
 15  9  2  0
 24 22  1  0
  9 11  1  0
 22 11  2  0
  1 31  1  0
  2 32  1  0
  3 33  1  0
  4 34  1  0
  5 35  1  0
  6 36  1  0
  7 37  1  0
  8 38  1  0
  9 39  1  0
 10 40  1  0
 11 41  1  0
 16 42  1  0
 20 43  1  0
 20 44  1  0
 20 45  1  0
A    1
C26
A    2
C25
A    3
C27
A    4
C14
A    5
C13
A    6
C24
A    7
C28
A    8
C15
A    9
C19
A   10
C7
A   11
C20
A   12
C8
A   13
C23
A   14
C6
A   15
C18
A   16
C4
A   17
C17
A   18
C3
A   19
C29
A   20
C1
A   21
C9
A   22
N21
A   23
N16
A   24
N22
A   25
N5
A   26
O30
A   27
O2
A   28
F10
A   29
F11
A   30
F12
M  END
