3WYY_O17_A_901
     RDKit          3D

 75 79  0  0  0  0  0  0  0  0999 V2000
  -32.9620  -17.4130   -2.2690 N   0  0  0  0  0  0  0  0  0  0  0  0
  -33.4470  -17.6640   -3.2990 C   0  0  0  0  0  0  0  0  0  0  0  0
  -34.0670  -17.9820   -4.6010 C   0  0  0  0  0  0  0  0  0  0  0  0
  -33.1200  -17.8750   -5.6780 O   0  0  0  0  0  0  0  0  0  0  0  0
  -33.5250  -17.6620   -6.9840 C   0  0  0  0  0  0  0  0  0  0  0  0
  -33.5900  -16.2770   -7.5340 C   0  0  0  0  0  0  0  0  0  0  0  0
  -33.2970  -15.1490   -6.6230 C   0  0  0  0  0  0  0  0  0  0  0  0
  -34.3700  -15.0510   -5.8280 C   0  0  0  0  0  0  0  0  0  0  0  0
  -34.6640  -14.1290   -4.7180 C   0  0  0  0  0  0  0  0  0  0  0  0
  -33.9500  -14.1550   -3.7270 O   0  0  0  0  0  0  0  0  0  0  0  0
  -35.7380  -13.3370   -4.8180 N   0  0  0  0  0  0  0  0  0  0  0  0
  -35.7620  -12.1460   -5.6560 C   0  0  0  0  0  0  0  0  0  0  0  0
  -36.9790  -11.2660   -5.3680 C   0  0  0  0  0  0  0  0  0  0  0  0
  -36.5760  -10.1100   -4.6220 O   0  0  0  0  0  0  0  0  0  0  0  0
  -37.3570   -8.9470   -4.9280 C   0  0  0  0  0  0  0  0  0  0  0  0
  -33.8560  -18.7270   -7.8230 C   0  0  0  0  0  0  0  0  0  0  0  0
  -34.2710  -18.4980   -9.1390 C   0  0  0  0  0  0  0  0  0  0  0  0
  -34.3380  -17.1890   -9.6430 C   0  0  0  0  0  0  0  0  0  0  0  0
  -34.0160  -16.0810   -8.8520 C   0  0  0  0  0  0  0  0  0  0  0  0
  -34.5640  -19.5940   -9.8920 N   0  0  0  0  0  0  0  0  0  0  0  0
  -35.4370  -19.7200  -10.9410 C   0  0  0  0  0  0  0  0  0  0  0  0
  -35.9040  -18.6520  -11.6540 N   0  0  0  0  0  0  0  0  0  0  0  0
  -36.7570  -18.7790  -12.7060 C   0  0  0  0  0  0  0  0  0  0  0  0
  -37.2060  -20.1370  -13.1030 C   0  0  0  0  0  0  0  0  0  0  0  0
  -38.0160  -20.3120  -14.0890 C   0  0  0  0  0  0  0  0  0  0  0  0
  -38.7570  -20.4860  -14.9640 N   0  0  0  0  0  0  0  0  0  0  0  0
  -36.6900  -21.2810  -12.3290 C   0  0  0  0  0  0  0  0  0  0  0  0
  -37.0600  -22.5450  -12.6420 N   0  0  0  0  0  0  0  0  0  0  0  0
  -35.8220  -21.0230  -11.2770 C   0  0  0  0  0  0  0  0  0  0  0  0
  -37.2180  -17.7180  -13.4220 N   0  0  0  0  0  0  0  0  0  0  0  0
  -36.9230  -16.3230  -13.1470 C   0  0  0  0  0  0  0  0  0  0  0  0
  -37.3170  -15.5010  -14.3870 C   0  0  0  0  0  0  0  0  0  0  0  0
  -37.0740  -13.9990  -14.1480 C   0  0  0  0  0  0  0  0  0  0  0  0
  -35.5930  -13.7500  -13.8400 C   0  0  0  0  0  0  0  0  0  0  0  0
  -37.9170  -13.5730  -12.9390 C   0  0  0  0  0  0  0  0  0  0  0  0
  -37.5280  -14.3730  -11.6860 C   0  0  0  0  0  0  0  0  0  0  0  0
  -37.7450  -15.8690  -11.9310 C   0  0  0  0  0  0  0  0  0  0  0  0
  -36.0380  -14.1490  -11.4020 C   0  0  0  0  0  0  0  0  0  0  0  0
  -35.1870  -14.5740  -12.6120 C   0  0  0  0  0  0  0  0  0  0  0  0
  -35.4270  -16.0680  -12.8930 C   0  0  0  0  0  0  0  0  0  0  0  0
  -34.8952  -17.2812   -4.7828 H   0  0  0  0  0  0  0  0  0  0  0  0
  -34.4313  -19.0193   -4.5647 H   0  0  0  0  0  0  0  0  0  0  0  0
  -32.3917  -14.5245   -6.6029 H   0  0  0  0  0  0  0  0  0  0  0  0
  -35.1649  -15.7814   -6.0394 H   0  0  0  0  0  0  0  0  0  0  0  0
  -36.5823  -13.5796   -4.2803 H   0  0  0  0  0  0  0  0  0  0  0  0
  -35.7892  -12.4551   -6.7113 H   0  0  0  0  0  0  0  0  0  0  0  0
  -34.8586  -11.5582   -5.4361 H   0  0  0  0  0  0  0  0  0  0  0  0
  -37.4327  -10.9477   -6.3182 H   0  0  0  0  0  0  0  0  0  0  0  0
  -37.7118  -11.8397   -4.7816 H   0  0  0  0  0  0  0  0  0  0  0  0
  -37.6801   -8.4659   -3.9930 H   0  0  0  0  0  0  0  0  0  0  0  0
  -36.7494   -8.2408   -5.5128 H   0  0  0  0  0  0  0  0  0  0  0  0
  -38.2406   -9.2422   -5.5128 H   0  0  0  0  0  0  0  0  0  0  0  0
  -33.7898  -19.7580   -7.4452 H   0  0  0  0  0  0  0  0  0  0  0  0
  -34.6514  -17.0310  -10.6855 H   0  0  0  0  0  0  0  0  0  0  0  0
  -34.0971  -15.0639   -9.2630 H   0  0  0  0  0  0  0  0  0  0  0  0
  -34.0560  -20.4527   -9.6362 H   0  0  0  0  0  0  0  0  0  0  0  0
  -37.2587  -23.2238  -11.8932 H   0  0  0  0  0  0  0  0  0  0  0  0
  -37.1428  -22.8279  -13.6289 H   0  0  0  0  0  0  0  0  0  0  0  0
  -35.4259  -21.8657  -10.6914 H   0  0  0  0  0  0  0  0  0  0  0  0
  -37.8276  -17.9213  -14.2269 H   0  0  0  0  0  0  0  0  0  0  0  0
  -38.3831  -15.6638  -14.6036 H   0  0  0  0  0  0  0  0  0  0  0  0
  -36.6992  -15.8270  -15.2367 H   0  0  0  0  0  0  0  0  0  0  0  0
  -37.3520  -13.4241  -15.0437 H   0  0  0  0  0  0  0  0  0  0  0  0
  -34.9820  -14.0515  -14.7036 H   0  0  0  0  0  0  0  0  0  0  0  0
  -35.4329  -12.6809  -13.6366 H   0  0  0  0  0  0  0  0  0  0  0  0
  -37.7545  -12.5022  -12.7467 H   0  0  0  0  0  0  0  0  0  0  0  0
  -38.9758  -13.7682  -13.1643 H   0  0  0  0  0  0  0  0  0  0  0  0
  -38.1463  -14.0406  -10.8391 H   0  0  0  0  0  0  0  0  0  0  0  0
  -38.8121  -16.0567  -12.1211 H   0  0  0  0  0  0  0  0  0  0  0  0
  -37.4213  -16.4326  -11.0435 H   0  0  0  0  0  0  0  0  0  0  0  0
  -35.7433  -14.7447  -10.5255 H   0  0  0  0  0  0  0  0  0  0  0  0
  -35.8704  -13.0792  -11.2083 H   0  0  0  0  0  0  0  0  0  0  0  0
  -34.1222  -14.4020  -12.3963 H   0  0  0  0  0  0  0  0  0  0  0  0
  -35.0991  -16.6590  -12.0251 H   0  0  0  0  0  0  0  0  0  0  0  0
  -34.8543  -16.3639  -13.7843 H   0  0  0  0  0  0  0  0  0  0  0  0
 26 25  3  0
 32 33  1  0
 32 31  1  0
 33 34  1  0
 33 35  1  0
 25 24  1  0
 34 39  1  0
 30 31  1  0
 30 23  1  0
 31 40  1  0
 31 37  1  0
 24 23  1  0
 24 27  2  0
 35 36  1  0
 40 39  1  0
 23 22  2  0
 28 27  1  0
 39 38  1  0
 27 29  1  0
 37 36  1  0
 36 38  1  0
 22 21  1  0
 29 21  2  0
 21 20  1  0
 20 17  1  0
 18 17  2  0
 18 19  1  0
 17 16  1  0
 19  6  2  0
 16  5  2  0
  6  5  1  0
  6  7  1  0
  5  4  1  0
  7  8  2  0
  8  9  1  0
  4  3  1  0
 12 13  1  0
 12 11  1  0
 13 14  1  0
 15 14  1  0
 11  9  1  0
  9 10  2  0
  3  2  1  0
  2  1  3  0
  3 41  1  0
  3 42  1  0
  7 43  1  0
  8 44  1  0
 11 45  1  0
 12 46  1  0
 12 47  1  0
 13 48  1  0
 13 49  1  0
 15 50  1  0
 15 51  1  0
 15 52  1  0
 16 53  1  0
 18 54  1  0
 19 55  1  0
 20 56  1  0
 28 57  1  0
 28 58  1  0
 29 59  1  0
 30 60  1  0
 32 61  1  0
 32 62  1  0
 33 63  1  0
 34 64  1  0
 34 65  1  0
 35 66  1  0
 35 67  1  0
 36 68  1  0
 37 69  1  0
 37 70  1  0
 38 71  1  0
 38 72  1  0
 39 73  1  0
 40 74  1  0
 40 75  1  0
A    1
N6
A    2
C29
A    3
C28
A    4
O2
A    5
C27
A    6
C6
A    7
C5
A    8
C4
A    9
C3
A   10
O1
A   11
N
A   12
C2
A   13
C1
A   14
O
A   15
C
A   16
C26
A   17
C9
A   18
C8
A   19
C7
A   20
N1
A   21
C10
A   22
N5
A   23
C15
A   24
C13
A   25
C14
A   26
N3
A   27
C12
A   28
N2
A   29
C11
A   30
N4
A   31
C16
A   32
C25
A   33
C20
A   34
C19
A   35
C21
A   36
C22
A   37
C24
A   38
C23
A   39
C18
A   40
C17
M  END
