3WZ6_IXZ_A_409
     RDKit          3D

 58 61  0  0  0  0  0  0  0  0999 V2000
   46.4610    5.8500   10.8400 O   0  0  0  0  0  0  0  0  0  0  0  0
   47.0880    5.5240    9.8580 C   0  0  0  0  0  0  0  0  0  0  0  0
   47.5370    4.0890    9.6810 C   0  0  0  0  0  0  0  0  0  0  0  0
   46.5860    3.2280   10.4100 N   0  0  0  0  0  0  0  0  0  0  0  0
   45.3870    2.9880    9.5810 C   0  0  0  0  0  0  0  0  0  0  0  0
   44.3180    2.1460   10.2370 C   0  0  0  0  0  0  0  0  0  0  0  0
   44.4170    0.7640   10.2220 C   0  0  0  0  0  0  0  0  0  0  0  0
   43.4250   -0.0060   10.8130 C   0  0  0  0  0  0  0  0  0  0  0  0
   42.3350    0.6050   11.4100 C   0  0  0  0  0  0  0  0  0  0  0  0
   42.2360    1.9870   11.4240 C   0  0  0  0  0  0  0  0  0  0  0  0
   43.2260    2.7570   10.8370 C   0  0  0  0  0  0  0  0  0  0  0  0
   47.4000    6.4610    8.8890 N   0  0  0  0  0  0  0  0  0  0  0  0
   46.9010    7.7850    8.8450 C   0  0  0  0  0  0  0  0  0  0  0  0
   47.8490    9.0760    8.8650 S   0  0  0  0  0  0  0  0  0  0  0  0
   45.5810    8.2120    8.7980 C   0  0  0  0  0  0  0  0  0  0  0  0
   45.4790    9.6080    8.7650 C   0  0  0  0  0  0  0  0  0  0  0  0
   44.2170   10.3790    8.7130 C   0  0  0  0  0  0  0  0  0  0  0  0
   44.0920   11.5470    9.4570 C   0  0  0  0  0  0  0  0  0  0  0  0
   42.9160   12.2810    9.4130 C   0  0  0  0  0  0  0  0  0  0  0  0
   41.8610   11.8560    8.6190 C   0  0  0  0  0  0  0  0  0  0  0  0
   41.9820   10.6920    7.8740 C   0  0  0  0  0  0  0  0  0  0  0  0
   43.1610    9.9580    7.9150 C   0  0  0  0  0  0  0  0  0  0  0  0
   46.7220   10.2130    8.8030 C   0  0  0  0  0  0  0  0  0  0  0  0
   44.4180    7.3070    8.7770 C   0  0  0  0  0  0  0  0  0  0  0  0
   43.5640    7.3880    9.6340 O   0  0  0  0  0  0  0  0  0  0  0  0
   44.3290    6.3640    7.7710 N   0  0  0  0  0  0  0  0  0  0  0  0
   43.1640    5.4920    7.5500 C   0  0  0  0  0  0  0  0  0  0  0  0
   41.9930    6.2920    7.0520 C   0  0  0  0  0  0  0  0  0  0  0  0
   42.1330    7.1250    5.9540 C   0  0  0  0  0  0  0  0  0  0  0  0
   41.0520    7.8640    5.5050 C   0  0  0  0  0  0  0  0  0  0  0  0
   39.8290    7.7720    6.1500 C   0  0  0  0  0  0  0  0  0  0  0  0
   39.6930    6.9420    7.2530 C   0  0  0  0  0  0  0  0  0  0  0  0
   40.7740    6.2020    7.7050 C   0  0  0  0  0  0  0  0  0  0  0  0
   47.5378    3.8258    8.6130 H   0  0  0  0  0  0  0  0  0  0  0  0
   48.5565    3.9535   10.0713 H   0  0  0  0  0  0  0  0  0  0  0  0
   46.3078    3.6921   11.2864 H   0  0  0  0  0  0  0  0  0  0  0  0
   45.7052    2.4789    8.6593 H   0  0  0  0  0  0  0  0  0  0  0  0
   44.9348    3.9743    9.3999 H   0  0  0  0  0  0  0  0  0  0  0  0
   45.2798    0.2783    9.7428 H   0  0  0  0  0  0  0  0  0  0  0  0
   43.5047   -1.1031   10.8072 H   0  0  0  0  0  0  0  0  0  0  0  0
   41.5473   -0.0072   11.8734 H   0  0  0  0  0  0  0  0  0  0  0  0
   41.3716    2.4721   11.9010 H   0  0  0  0  0  0  0  0  0  0  0  0
   43.1467    3.8541   10.8463 H   0  0  0  0  0  0  0  0  0  0  0  0
   48.0463    6.1725    8.1407 H   0  0  0  0  0  0  0  0  0  0  0  0
   44.9290   11.8902   10.0829 H   0  0  0  0  0  0  0  0  0  0  0  0
   42.8199   13.2010   10.0083 H   0  0  0  0  0  0  0  0  0  0  0  0
   40.9302   12.4408    8.5801 H   0  0  0  0  0  0  0  0  0  0  0  0
   41.1433   10.3497    7.2499 H   0  0  0  0  0  0  0  0  0  0  0  0
   43.2583    9.0417    7.3143 H   0  0  0  0  0  0  0  0  0  0  0  0
   46.9067   11.2973    8.7924 H   0  0  0  0  0  0  0  0  0  0  0  0
   45.1316    6.2646    7.1331 H   0  0  0  0  0  0  0  0  0  0  0  0
   42.8921    5.0044    8.4978 H   0  0  0  0  0  0  0  0  0  0  0  0
   43.4245    4.7358    6.7948 H   0  0  0  0  0  0  0  0  0  0  0  0
   43.1024    7.1991    5.4394 H   0  0  0  0  0  0  0  0  0  0  0  0
   41.1642    8.5261    4.6338 H   0  0  0  0  0  0  0  0  0  0  0  0
   38.9691    8.3551    5.7886 H   0  0  0  0  0  0  0  0  0  0  0  0
   38.7248    6.8710    7.7702 H   0  0  0  0  0  0  0  0  0  0  0  0
   40.6647    5.5446    8.5802 H   0  0  0  0  0  0  0  0  0  0  0  0
 30 29  2  0
 30 31  1  0
 29 28  1  0
 31 32  2  0
 28 27  1  0
 28 33  2  0
 32 33  1  0
 27 26  1  0
 26 24  1  0
 19 18  2  0
 19 20  1  0
 18 17  1  0
 20 21  2  0
 17 16  1  0
 17 22  2  0
 16 15  1  0
 16 23  2  0
 24 15  1  0
 24 25  2  0
 15 13  2  0
 23 14  1  0
 13 14  1  0
 13 12  1  0
 12  2  1  0
 21 22  1  0
  5  6  1  0
  5  4  1  0
  3  2  1  0
  3  4  1  0
  2  1  2  0
  7  6  2  0
  7  8  1  0
  6 11  1  0
  8  9  2  0
 11 10  2  0
  9 10  1  0
  3 34  1  0
  3 35  1  0
  4 36  1  0
  5 37  1  0
  5 38  1  0
  7 39  1  0
  8 40  1  0
  9 41  1  0
 10 42  1  0
 11 43  1  0
 12 44  1  0
 18 45  1  0
 19 46  1  0
 20 47  1  0
 21 48  1  0
 22 49  1  0
 23 50  1  0
 26 51  1  0
 27 52  1  0
 27 53  1  0
 29 54  1  0
 30 55  1  0
 31 56  1  0
 32 57  1  0
 33 58  1  0
A    1
O1
A    2
C18
A    3
C19
A    4
N2
A    5
C20
A    6
C21
A    7
C23
A    8
C25
A    9
C26
A   10
C24
A   11
C22
A   12
N1
A   13
C2
A   14
S
A   15
C3
A   16
C1
A   17
C4
A   18
C6
A   19
C8
A   20
C9
A   21
C7
A   22
C5
A   23
C
A   24
C10
A   25
O
A   26
N
A   27
C11
A   28
C12
A   29
C14
A   30
C16
A   31
C17
A   32
C15
A   33
C13
M  END
