3WZP_ZOF_A_201
     RDKit          3D

 52 53  0  0  0  0  0  0  0  0999 V2000
   34.9460   -5.0490   33.2030 O   0  0  0  0  0  0  0  0  0  0  0  0
   34.6840   -3.9670   32.5880 C   0  0  0  0  0  0  0  0  0  0  0  0
   35.4650   -3.3650   31.7630 O   0  0  0  0  0  0  0  0  0  0  0  0
   33.3790   -3.2680   33.0790 C   0  0  0  0  0  0  0  0  0  0  0  0
   32.1570   -3.8540   32.3500 C   0  0  0  0  0  0  0  0  0  0  0  0
   30.8470   -3.2820   32.8680 C   0  0  0  0  0  0  0  0  0  0  0  0
   29.6940   -3.8380   32.0630 C   0  0  0  0  0  0  0  0  0  0  0  0
   28.3890   -3.3380   32.7000 C   0  0  0  0  0  0  0  0  0  0  0  0
   27.2370   -3.8930   32.0030 N   0  0  0  0  0  0  0  0  0  0  0  0
   26.7510   -5.1070   32.3150 C   0  0  0  0  0  0  0  0  0  0  0  0
   27.3160   -5.8340   33.1270 O   0  0  0  0  0  0  0  0  0  0  0  0
   25.4190   -5.5650   31.6760 C   0  0  0  0  0  0  0  0  0  0  0  0
   25.4130   -6.9760   31.0750 C   0  0  0  0  0  0  0  0  0  0  0  0
   26.4080   -7.0290   29.9100 C   0  0  0  0  0  0  0  0  0  0  0  0
   26.4540   -8.4060   29.2550 C   0  0  0  0  0  0  0  0  0  0  0  0
   27.4670   -8.3660   28.1030 C   0  0  0  0  0  0  0  0  0  0  0  0
   26.8600   -7.5690   26.5960 S   0  0  0  0  0  0  0  0  0  0  0  0
   28.3760   -8.0830   25.7280 C   0  0  0  0  0  0  0  0  0  0  0  0
   28.6640   -9.4850   26.1960 C   0  0  0  0  0  0  0  0  0  0  0  0
   27.9800   -9.7610   27.5840 C   0  0  0  0  0  0  0  0  0  0  0  0
   26.9300  -10.7160   27.2120 N   0  0  0  0  0  0  0  0  0  0  0  0
   26.9790  -10.9750   25.8890 C   0  0  0  0  0  0  0  0  0  0  0  0
   26.1650  -11.8320   25.2870 N   0  0  0  0  0  0  0  0  0  0  0  0
   28.0060  -10.3950   25.2660 N   0  0  0  0  0  0  0  0  0  0  0  0
   34.9504   -5.0672   34.1928 H   0  0  0  0  0  0  0  0  0  0  0  0
   33.4438   -2.1898   32.8711 H   0  0  0  0  0  0  0  0  0  0  0  0
   33.2667   -3.4353   34.1604 H   0  0  0  0  0  0  0  0  0  0  0  0
   32.1484   -4.9445   32.4942 H   0  0  0  0  0  0  0  0  0  0  0  0
   32.2418   -3.5902   31.2855 H   0  0  0  0  0  0  0  0  0  0  0  0
   30.8639   -2.1862   32.7737 H   0  0  0  0  0  0  0  0  0  0  0  0
   30.7208   -3.5601   33.9248 H   0  0  0  0  0  0  0  0  0  0  0  0
   29.7214   -4.9375   32.0811 H   0  0  0  0  0  0  0  0  0  0  0  0
   29.7616   -3.5054   31.0167 H   0  0  0  0  0  0  0  0  0  0  0  0
   28.3542   -2.2402   32.6402 H   0  0  0  0  0  0  0  0  0  0  0  0
   28.3590   -3.6611   33.7510 H   0  0  0  0  0  0  0  0  0  0  0  0
   26.7859   -3.3449   31.2567 H   0  0  0  0  0  0  0  0  0  0  0  0
   25.1694   -4.8559   30.8730 H   0  0  0  0  0  0  0  0  0  0  0  0
   24.6882   -5.5891   32.4978 H   0  0  0  0  0  0  0  0  0  0  0  0
   24.4039   -7.2162   30.7088 H   0  0  0  0  0  0  0  0  0  0  0  0
   25.7029   -7.7075   31.8436 H   0  0  0  0  0  0  0  0  0  0  0  0
   27.4109   -6.7831   30.2890 H   0  0  0  0  0  0  0  0  0  0  0  0
   26.0787   -6.3043   29.1508 H   0  0  0  0  0  0  0  0  0  0  0  0
   25.4586   -8.6642   28.8645 H   0  0  0  0  0  0  0  0  0  0  0  0
   26.7542   -9.1639   29.9936 H   0  0  0  0  0  0  0  0  0  0  0  0
   28.2705   -7.8000   28.5970 H   0  0  0  0  0  0  0  0  0  0  0  0
   29.2103   -7.4143   25.9864 H   0  0  0  0  0  0  0  0  0  0  0  0
   28.2508   -8.0393   24.6360 H   0  0  0  0  0  0  0  0  0  0  0  0
   29.7539   -9.6178   26.2623 H   0  0  0  0  0  0  0  0  0  0  0  0
   28.5920  -10.1757   28.3985 H   0  0  0  0  0  0  0  0  0  0  0  0
   26.2520  -11.1298   27.8677 H   0  0  0  0  0  0  0  0  0  0  0  0
   25.3846  -12.2549   25.8095 H   0  0  0  0  0  0  0  0  0  0  0  0
   28.2876  -10.5623   24.2895 H   0  0  0  0  0  0  0  0  0  0  0  0
 24 22  1  0
 24 19  1  0
 23 22  2  3
 18 19  1  0
 18 17  1  0
 22 21  1  0
 19 20  1  0
 17 16  1  0
 21 20  1  0
 20 16  1  0
 16 15  1  0
 15 14  1  0
 14 13  1  0
 13 12  1  0
 12 10  1  0
  3  2  2  0
  9 10  1  0
  9  8  1  0
  7  8  1  0
  7  6  1  0
 10 11  2  0
  5  6  1  0
  5  4  1  0
  2  4  1  0
  2  1  1  0
  1 25  1  0
  4 26  1  0
  4 27  1  0
  5 28  1  0
  5 29  1  0
  6 30  1  0
  6 31  1  0
  7 32  1  0
  7 33  1  0
  8 34  1  0
  8 35  1  0
  9 36  1  0
 12 37  1  0
 12 38  1  0
 13 39  1  0
 13 40  1  0
 14 41  1  0
 14 42  1  0
 15 43  1  0
 15 44  1  0
 16 45  1  0
 18 46  1  0
 18 47  1  0
 19 48  1  0
 20 49  1  0
 21 50  1  0
 23 51  1  0
 24 52  1  0
A    1
OAW
A    2
CAV
A    3
OAX
A    4
CAU
A    5
CAT
A    6
CAS
A    7
CAR
A    8
CAQ
A    9
NAO
A   10
CAN
A   11
OAP
A   12
CAM
A   13
CAL
A   14
CAK
A   15
CAI
A   16
CAH
A   17
SAG
A   18
CAF
A   19
CAC
A   20
CAD
A   21
NAE
A   22
CAA
A   23
NAJ
A   24
NAB
M  END
