3X36_41W_A_501
     RDKit          3D

 73 75  0  0  0  0  0  0  0  0999 V2000
    4.5870    0.4860  -31.3510 O   0  0  0  0  0  0  0  0  0  0  0  0
    4.8040   -0.5520  -32.3130 C   0  0  0  0  0  0  0  0  0  0  0  0
    3.7500   -1.5940  -32.0810 C   0  0  0  0  0  0  0  0  0  0  0  0
    4.7870    0.0100  -33.7460 C   0  0  0  0  0  0  0  0  0  0  0  0
    6.1720   -1.1910  -31.9920 C   0  0  0  0  0  0  0  0  0  0  0  0
    7.3210   -0.2070  -31.9330 C   0  0  0  0  0  0  0  0  0  0  0  0
    8.5930   -0.8950  -31.4080 C   0  0  0  0  0  0  0  0  0  0  0  0
    9.8780   -0.1280  -31.7620 C   0  0  0  0  0  0  0  0  0  0  0  0
    9.8180    1.1320  -30.9280 C   0  0  0  0  0  0  0  0  0  0  0  0
   11.2870   -0.7830  -31.5680 C   0  0  0  0  0  0  0  0  0  0  0  0
   11.8500   -1.6510  -32.6720 C   0  0  0  0  0  0  0  0  0  0  0  0
   10.8200   -2.7190  -33.0900 C   0  0  0  0  0  0  0  0  0  0  0  0
   12.3280   -0.8260  -33.8510 C   0  0  0  0  0  0  0  0  0  0  0  0
   11.4770   -1.6190  -30.2650 C   0  0  0  0  0  0  0  0  0  0  0  0
   12.5550   -2.6430  -30.5600 C   0  0  0  0  0  0  0  0  0  0  0  0
   13.0830   -2.2730  -31.9740 C   0  0  0  0  0  0  0  0  0  0  0  0
   13.8820   -3.1210  -32.9090 C   0  0  0  0  0  0  0  0  0  0  0  0
   14.3480   -2.3150  -34.0790 C   0  0  0  0  0  0  0  0  0  0  0  0
   13.0740   -1.7660  -34.7700 C   0  0  0  0  0  0  0  0  0  0  0  0
   14.2590   -4.4460  -32.9190 C   0  0  0  0  0  0  0  0  0  0  0  0
   13.8320   -5.3860  -31.8890 C   0  0  0  0  0  0  0  0  0  0  0  0
   14.0570   -6.7200  -31.9780 C   0  0  0  0  0  0  0  0  0  0  0  0
   13.4510   -7.6160  -30.9270 C   0  0  0  0  0  0  0  0  0  0  0  0
   14.2490   -8.8450  -30.5030 C   0  0  0  0  0  0  0  0  0  0  0  0
   13.2340   -9.6090  -29.8660 O   0  0  0  0  0  0  0  0  0  0  0  0
   14.8510   -9.5400  -31.7230 C   0  0  0  0  0  0  0  0  0  0  0  0
   15.6930   -8.5610  -32.5470 C   0  0  0  0  0  0  0  0  0  0  0  0
   16.7210   -8.1800  -31.6600 O   0  0  0  0  0  0  0  0  0  0  0  0
   14.8750   -7.3630  -33.0560 C   0  0  0  0  0  0  0  0  0  0  0  0
    4.6653    0.1114  -30.4380 H   0  0  0  0  0  0  0  0  0  0  0  0
    3.6064   -1.7359  -30.9997 H   0  0  0  0  0  0  0  0  0  0  0  0
    2.8039   -1.2664  -32.5366 H   0  0  0  0  0  0  0  0  0  0  0  0
    4.0668   -2.5438  -32.5366 H   0  0  0  0  0  0  0  0  0  0  0  0
    4.7538    1.1089  -33.7085 H   0  0  0  0  0  0  0  0  0  0  0  0
    5.6953   -0.3115  -34.2767 H   0  0  0  0  0  0  0  0  0  0  0  0
    3.8998   -0.3658  -34.2767 H   0  0  0  0  0  0  0  0  0  0  0  0
    6.0974   -1.6924  -31.0158 H   0  0  0  0  0  0  0  0  0  0  0  0
    6.3952   -1.8869  -32.8142 H   0  0  0  0  0  0  0  0  0  0  0  0
    7.5126    0.1868  -32.9421 H   0  0  0  0  0  0  0  0  0  0  0  0
    7.0525    0.6130  -31.2507 H   0  0  0  0  0  0  0  0  0  0  0  0
    8.5223   -0.9750  -30.3132 H   0  0  0  0  0  0  0  0  0  0  0  0
    8.6557   -1.8830  -31.8875 H   0  0  0  0  0  0  0  0  0  0  0  0
    9.8483   -0.0266  -32.8569 H   0  0  0  0  0  0  0  0  0  0  0  0
    9.8307    0.8662  -29.8607 H   0  0  0  0  0  0  0  0  0  0  0  0
   10.6870    1.7659  -31.1583 H   0  0  0  0  0  0  0  0  0  0  0  0
    8.8927    1.6805  -31.1583 H   0  0  0  0  0  0  0  0  0  0  0  0
   11.8438    0.1654  -31.5431 H   0  0  0  0  0  0  0  0  0  0  0  0
   10.3798   -3.1755  -32.1912 H   0  0  0  0  0  0  0  0  0  0  0  0
   10.0261   -2.2483  -33.6885 H   0  0  0  0  0  0  0  0  0  0  0  0
   11.3191   -3.4953  -33.6885 H   0  0  0  0  0  0  0  0  0  0  0  0
   12.9972   -0.0243  -33.5054 H   0  0  0  0  0  0  0  0  0  0  0  0
   11.4811   -0.3553  -34.3718 H   0  0  0  0  0  0  0  0  0  0  0  0
   11.7905   -0.9657  -29.4374 H   0  0  0  0  0  0  0  0  0  0  0  0
   10.5375   -2.1072  -29.9667 H   0  0  0  0  0  0  0  0  0  0  0  0
   12.1342   -3.6593  -30.5579 H   0  0  0  0  0  0  0  0  0  0  0  0
   13.3540   -2.6321  -29.8041 H   0  0  0  0  0  0  0  0  0  0  0  0
   13.9731   -1.6758  -31.7269 H   0  0  0  0  0  0  0  0  0  0  0  0
   14.9150   -2.9495  -34.7760 H   0  0  0  0  0  0  0  0  0  0  0  0
   15.0115   -1.4976  -33.7602 H   0  0  0  0  0  0  0  0  0  0  0  0
   13.3636   -1.2241  -35.6824 H   0  0  0  0  0  0  0  0  0  0  0  0
   12.4160   -2.6114  -35.0195 H   0  0  0  0  0  0  0  0  0  0  0  0
   14.9049   -4.8077  -33.7326 H   0  0  0  0  0  0  0  0  0  0  0  0
   13.3063   -4.9971  -31.0045 H   0  0  0  0  0  0  0  0  0  0  0  0
   13.2860   -7.0041  -30.0279 H   0  0  0  0  0  0  0  0  0  0  0  0
   12.5413   -8.0206  -31.3947 H   0  0  0  0  0  0  0  0  0  0  0  0
   15.1175   -8.6526  -29.8559 H   0  0  0  0  0  0  0  0  0  0  0  0
   13.3326   -9.5348  -28.8837 H   0  0  0  0  0  0  0  0  0  0  0  0
   14.0384   -9.9338  -32.3511 H   0  0  0  0  0  0  0  0  0  0  0  0
   15.4996  -10.3586  -31.3778 H   0  0  0  0  0  0  0  0  0  0  0  0
   16.0828   -9.0143  -33.4704 H   0  0  0  0  0  0  0  0  0  0  0  0
   16.4111   -8.2949  -30.7268 H   0  0  0  0  0  0  0  0  0  0  0  0
   15.5674   -6.6133  -33.4665 H   0  0  0  0  0  0  0  0  0  0  0  0
   14.1794   -7.7375  -33.8215 H   0  0  0  0  0  0  0  0  0  0  0  0
 19 18  1  0
 19 13  1  0
 18 17  1  0
 13 11  1  0
  4  2  1  0
 12 11  1  0
 29 27  1  0
 29 22  1  0
 20 17  2  0
 20 21  1  0
 17 16  1  0
 11 16  1  0
 11 10  1  0
 27 26  1  0
 27 28  1  0
  2  3  1  0
  2  5  1  0
  2  1  1  0
  5  6  1  0
 22 21  2  0
 22 23  1  0
 16 15  1  0
  6  7  1  0
  8 10  1  0
  8  7  1  0
  8  9  1  0
 26 24  1  0
 10 14  1  0
 23 24  1  0
 15 14  1  0
 24 25  1  0
  1 30  1  0
  3 31  1  0
  3 32  1  0
  3 33  1  0
  4 34  1  0
  4 35  1  0
  4 36  1  0
  5 37  1  0
  5 38  1  0
  6 39  1  0
  6 40  1  0
  7 41  1  0
  7 42  1  0
  8 43  1  0
  9 44  1  0
  9 45  1  0
  9 46  1  0
 10 47  1  0
 12 48  1  0
 12 49  1  0
 12 50  1  0
 13 51  1  0
 13 52  1  0
 14 53  1  0
 14 54  1  0
 15 55  1  0
 15 56  1  0
 16 57  1  0
 18 58  1  0
 18 59  1  0
 19 60  1  0
 19 61  1  0
 20 62  1  0
 21 63  1  0
 23 64  1  0
 23 65  1  0
 24 66  1  0
 25 67  1  0
 26 68  1  0
 26 69  1  0
 27 70  1  0
 28 71  1  0
 29 72  1  0
 29 73  1  0
A    1
O29
A    2
C26
A    3
C27
A    4
C28
A    5
C25
A    6
C24
A    7
C23
A    8
C20
A    9
C21
A   10
C9
A   11
C6
A   12
C19
A   13
C1
A   14
C8
A   15
C7
A   16
C5
A   17
C4
A   18
C3
A   19
C2
A   20
C10
A   21
C11
A   22
C12
A   23
C17
A   24
C16
A   25
O18
A   26
C15
A   27
C14
A   28
O22
A   29
C13
M  END
