3ZCW_4A2_A_1366
     RDKit          3D

 50 53  0  0  0  0  0  0  0  0999 V2000
   -2.9620   -5.8180   12.6990 F   0  0  0  0  0  0  0  0  0  0  0  0
   -1.6840   -5.6420   12.5050 C   0  0  0  0  0  0  0  0  0  0  0  0
   -1.0290   -6.0040   13.5880 F   0  0  0  0  0  0  0  0  0  0  0  0
   -1.3320   -6.4500   11.4950 F   0  0  0  0  0  0  0  0  0  0  0  0
   -1.3780   -4.1690   12.1960 C   0  0  0  0  0  0  0  0  0  0  0  0
   -0.3580   -3.5260   12.9450 C   0  0  0  0  0  0  0  0  0  0  0  0
   -0.0470   -2.2110   12.6690 C   0  0  0  0  0  0  0  0  0  0  0  0
   -0.7440   -1.5430   11.6660 C   0  0  0  0  0  0  0  0  0  0  0  0
   -1.7450   -2.1600   10.9340 C   0  0  0  0  0  0  0  0  0  0  0  0
   -2.0620   -3.4870   11.2000 C   0  0  0  0  0  0  0  0  0  0  0  0
   -3.1910   -4.1740   10.3780 C   0  0  0  0  0  0  0  0  0  0  0  0
   -3.4540   -3.4850    9.0980 N   0  0  0  0  0  0  0  0  0  0  0  0
   -2.7890   -3.7480    7.9930 C   0  0  0  0  0  0  0  0  0  0  0  0
   -1.7260   -4.6350    7.7430 C   0  0  0  0  0  0  0  0  0  0  0  0
   -1.2060   -4.7040    6.4490 C   0  0  0  0  0  0  0  0  0  0  0  0
   -1.7540   -3.8730    5.4540 C   0  0  0  0  0  0  0  0  0  0  0  0
   -1.2090   -3.9140    4.0320 C   0  0  0  0  0  0  0  0  0  0  0  0
   -1.9160   -3.4550    3.0880 O   0  0  0  0  0  0  0  0  0  0  0  0
   -0.0980   -4.4270    3.8110 O   0  0  0  0  0  0  0  0  0  0  0  0
   -2.7990   -2.9870    5.7330 C   0  0  0  0  0  0  0  0  0  0  0  0
   -3.3340   -2.9330    7.0130 C   0  0  0  0  0  0  0  0  0  0  0  0
   -4.3010   -2.1940    7.5680 N   0  0  0  0  0  0  0  0  0  0  0  0
   -4.3750   -2.5490    8.8710 C   0  0  0  0  0  0  0  0  0  0  0  0
   -5.2440   -2.0790    9.7660 N   0  0  0  0  0  0  0  0  0  0  0  0
   -6.0270   -0.9950    9.6720 C   0  0  0  0  0  0  0  0  0  0  0  0
   -5.6460    0.0950    8.9050 C   0  0  0  0  0  0  0  0  0  0  0  0
   -6.4800    1.2050    8.8360 C   0  0  0  0  0  0  0  0  0  0  0  0
   -6.1240    2.2710    8.1170 F   0  0  0  0  0  0  0  0  0  0  0  0
   -7.6710    1.2720    9.5440 C   0  0  0  0  0  0  0  0  0  0  0  0
   -8.4470    2.3880    9.4500 O   0  0  0  0  0  0  0  0  0  0  0  0
   -9.4170    2.5720   10.5220 C   0  0  0  0  0  0  0  0  0  0  0  0
   -8.0600    0.1740   10.3020 C   0  0  0  0  0  0  0  0  0  0  0  0
   -7.2370   -0.9590   10.3760 C   0  0  0  0  0  0  0  0  0  0  0  0
    0.1782   -4.0702   13.7364 H   0  0  0  0  0  0  0  0  0  0  0  0
    0.7430   -1.6957   13.2351 H   0  0  0  0  0  0  0  0  0  0  0  0
   -0.4924   -0.4945   11.4484 H   0  0  0  0  0  0  0  0  0  0  0  0
   -2.2832   -1.6060   10.1508 H   0  0  0  0  0  0  0  0  0  0  0  0
   -2.8926   -5.2113   10.1661 H   0  0  0  0  0  0  0  0  0  0  0  0
   -4.1133   -4.1343   10.9762 H   0  0  0  0  0  0  0  0  0  0  0  0
   -1.3138   -5.2601    8.5488 H   0  0  0  0  0  0  0  0  0  0  0  0
   -0.3835   -5.3948    6.2117 H   0  0  0  0  0  0  0  0  0  0  0  0
   -2.7289   -2.9272    3.2898 H   0  0  0  0  0  0  0  0  0  0  0  0
   -3.1959   -2.3349    4.9410 H   0  0  0  0  0  0  0  0  0  0  0  0
   -4.8803   -1.4875    7.0925 H   0  0  0  0  0  0  0  0  0  0  0  0
   -4.6928    0.0817    8.3562 H   0  0  0  0  0  0  0  0  0  0  0  0
   -8.9116    2.4761   11.4943 H   0  0  0  0  0  0  0  0  0  0  0  0
   -9.8684    3.5718   10.4404 H   0  0  0  0  0  0  0  0  0  0  0  0
  -10.2032    1.8070   10.4404 H   0  0  0  0  0  0  0  0  0  0  0  0
   -9.0162    0.1937   10.8454 H   0  0  0  0  0  0  0  0  0  0  0  0
   -7.5423   -1.8206   10.9879 H   0  0  0  0  0  0  0  0  0  0  0  0
  1  2  1  0
  2  3  1  0
  2  4  1  0
  2  5  1  0
  5  6  2  0
  5 10  1  0
  6  7  1  0
  7  8  2  0
  8  9  1  0
  9 10  2  0
 10 11  1  0
 11 12  1  0
 12 13  1  0
 12 23  1  0
 13 14  2  0
 13 21  1  0
 14 15  1  0
 15 16  2  0
 16 17  1  0
 16 20  1  0
 17 18  1  0
 17 19  2  0
 20 21  2  0
 21 22  1  0
 22 23  1  0
 23 24  2  0
 24 25  1  0
 25 26  2  0
 25 33  1  0
 26 27  1  0
 27 28  1  0
 27 29  2  0
 29 30  1  0
 29 32  1  0
 30 31  1  0
 32 33  2  0
  6 34  1  0
  7 35  1  0
  8 36  1  0
  9 37  1  0
 11 38  1  0
 11 39  1  0
 14 40  1  0
 15 41  1  0
 18 42  1  0
 20 43  1  0
 22 44  1  0
 26 45  1  0
 31 46  1  0
 31 47  1  0
 31 48  1  0
 32 49  1  0
 33 50  1  0
A    1
FAA
A    2
CAC
A    3
FAB
A    4
FAG
A    5
CAD
A    6
CAE
A    7
CAF
A    8
CAK
A    9
CAJ
A   10
CAI
A   11
CAH
A   12
NAP
A   13
CAO
A   14
CAN
A   15
CAM
A   16
CAW
A   17
CAV
A   18
OAL
A   19
OBG
A   20
CAX
A   21
CAY
A   22
NAZ
A   23
CBA
A   24
NBB
A   25
CBC
A   26
CBD
A   27
CBE
A   28
FBF
A   29
CAS
A   30
OAT
A   31
CAU
A   32
CAR
A   33
CAQ
M  END
