3ZDG_XRX_A_301
     RDKit          3D

 33 32  0  0  0  0  0  0  0  0999 V2000
  -16.2360   58.6290  -23.7580 N   0  0  0  0  0  0  0  0  0  0  0  0
  -16.8710   57.8680  -20.9380 C   0  0  0  0  0  0  0  0  0  0  0  0
  -15.5400   58.3850  -21.0140 O   0  0  0  0  0  0  0  0  0  0  0  0
  -15.8010   60.0590  -23.7120 C   0  0  0  0  0  0  0  0  0  0  0  0
  -13.5060   58.7190  -19.9770 N   0  0  0  0  0  0  0  0  0  0  0  0
  -15.0420   57.1130  -19.2190 O   0  0  0  0  0  0  0  0  0  0  0  0
  -17.6600   58.4040  -23.3590 C   0  0  0  0  0  0  0  0  0  0  0  0
  -17.8200   58.6820  -21.8420 C   0  0  0  0  0  0  0  0  0  0  0  0
  -14.6860   57.9610  -20.0350 C   0  0  0  0  0  0  0  0  0  0  0  0
  -15.9140   57.9460  -25.0660 C   0  0  0  0  0  0  0  0  0  0  0  0
  -18.6460   59.2160  -24.2480 C   0  0  0  0  0  0  0  0  0  0  0  0
  -12.4100   58.2530  -19.1130 C   0  0  0  0  0  0  0  0  0  0  0  0
  -13.1870   59.8150  -20.9230 C   0  0  0  0  0  0  0  0  0  0  0  0
  -16.8707   56.8181  -21.2661 H   0  0  0  0  0  0  0  0  0  0  0  0
  -17.2217   57.9405  -19.8979 H   0  0  0  0  0  0  0  0  0  0  0  0
  -15.7036   60.3791  -22.6641 H   0  0  0  0  0  0  0  0  0  0  0  0
  -14.8304   60.1635  -24.2190 H   0  0  0  0  0  0  0  0  0  0  0  0
  -16.5490   60.6863  -24.2190 H   0  0  0  0  0  0  0  0  0  0  0  0
  -17.9261   57.3509  -23.5326 H   0  0  0  0  0  0  0  0  0  0  0  0
  -18.8551   58.4433  -21.5564 H   0  0  0  0  0  0  0  0  0  0  0  0
  -17.5647   59.7411  -21.6897 H   0  0  0  0  0  0  0  0  0  0  0  0
  -15.4528   56.9678  -24.8650 H   0  0  0  0  0  0  0  0  0  0  0  0
  -16.8397   57.8034  -25.6428 H   0  0  0  0  0  0  0  0  0  0  0  0
  -15.2149   58.5694  -25.6428 H   0  0  0  0  0  0  0  0  0  0  0  0
  -19.3356   59.7839  -23.6062 H   0  0  0  0  0  0  0  0  0  0  0  0
  -18.0787   59.9123  -24.8831 H   0  0  0  0  0  0  0  0  0  0  0  0
  -19.2206   58.5257  -24.8831 H   0  0  0  0  0  0  0  0  0  0  0  0
  -12.6973   58.3752  -18.0582 H   0  0  0  0  0  0  0  0  0  0  0  0
  -12.2081   57.1912  -19.3174 H   0  0  0  0  0  0  0  0  0  0  0  0
  -11.5052   58.8443  -19.3174 H   0  0  0  0  0  0  0  0  0  0  0  0
  -12.9232   60.7215  -20.3585 H   0  0  0  0  0  0  0  0  0  0  0  0
  -12.3382   59.5174  -21.5562 H   0  0  0  0  0  0  0  0  0  0  0  0
  -14.0629   60.0194  -21.5562 H   0  0  0  0  0  0  0  0  0  0  0  0
  1  4  1  0
  1  7  1  0
  1 10  1  0
  2  3  1  0
  2  8  1  0
  3  9  1  0
  5  9  1  0
  5 12  1  0
  5 13  1  0
  6  9  2  0
  7  8  1  0
  7 11  1  0
  2 14  1  0
  2 15  1  0
  4 16  1  0
  4 17  1  0
  4 18  1  0
  7 19  1  0
  8 20  1  0
  8 21  1  0
 10 22  1  0
 10 23  1  0
 10 24  1  0
 11 25  1  0
 11 26  1  0
 11 27  1  0
 12 28  1  0
 12 29  1  0
 12 30  1  0
 13 31  1  0
 13 32  1  0
 13 33  1  0
A    1
N1
A    2
C2
A    3
O3
A    4
C4
A    5
N5
A    6
O6
A    7
C7
A    8
C8
A    9
C9
A   10
C10
A   11
C11
A   12
C12
A   13
C13
M  END
