3ZDU_38R_A_350
     RDKit          3D

 48 51  0  0  0  0  0  0  0  0999 V2000
   27.8070   21.0070   59.0230 C   0  0  0  0  0  0  0  0  0  0  0  0
   28.6710   21.2220   57.9420 C   0  0  0  0  0  0  0  0  0  0  0  0
   28.7790   20.2590   56.9440 C   0  0  0  0  0  0  0  0  0  0  0  0
   28.0660   19.1200   57.0440 N   0  0  0  0  0  0  0  0  0  0  0  0
   27.0900   19.8440   59.0640 N   0  0  0  0  0  0  0  0  0  0  0  0
   24.1760   19.8670   64.3520 C   0  0  0  0  0  0  0  0  0  0  0  0
   23.9630   20.8110   63.2330 C   0  0  0  0  0  0  0  0  0  0  0  0
   25.1060   21.5210   62.5700 C   0  0  0  0  0  0  0  0  0  0  0  0
   25.7430   21.1400   61.3950 C   0  0  0  0  0  0  0  0  0  0  0  0
   25.7660   22.5710   63.0380 N   0  0  0  0  0  0  0  0  0  0  0  0
   26.7840   22.9080   62.1750 N   0  0  0  0  0  0  0  0  0  0  0  0
   26.7840   22.0300   61.1430 C   0  0  0  0  0  0  0  0  0  0  0  0
   27.7090   22.0350   60.0260 N   0  0  0  0  0  0  0  0  0  0  0  0
   22.3890   18.9690   63.0370 C   0  0  0  0  0  0  0  0  0  0  0  0
   27.2530   18.8990   58.0940 C   0  0  0  0  0  0  0  0  0  0  0  0
   26.5240   17.6680   58.0520 N   0  0  0  0  0  0  0  0  0  0  0  0
   25.9280   16.9810   59.1480 C   0  0  0  0  0  0  0  0  0  0  0  0
   26.3710   17.0730   60.4620 C   0  0  0  0  0  0  0  0  0  0  0  0
   25.7210   16.3440   61.4500 C   0  0  0  0  0  0  0  0  0  0  0  0
   24.8650   16.1430   58.8070 C   0  0  0  0  0  0  0  0  0  0  0  0
   24.2190   15.3870   59.7600 C   0  0  0  0  0  0  0  0  0  0  0  0
   24.6540   15.5000   61.1010 C   0  0  0  0  0  0  0  0  0  0  0  0
   23.9770   14.6630   62.1210 C   0  0  0  0  0  0  0  0  0  0  0  0
   23.4410   18.6340   64.0440 C   0  0  0  0  0  0  0  0  0  0  0  0
   23.0650   15.2470   63.1070 C   0  0  0  0  0  0  0  0  0  0  0  0
   22.6950   20.3760   62.5860 C   0  0  0  0  0  0  0  0  0  0  0  0
   22.3390   15.6410   63.8830 N   0  0  0  0  0  0  0  0  0  0  0  0
   29.2615   22.1481   57.8824 H   0  0  0  0  0  0  0  0  0  0  0  0
   29.4404   20.4258   56.0810 H   0  0  0  0  0  0  0  0  0  0  0  0
   25.2486   19.6470   64.4572 H   0  0  0  0  0  0  0  0  0  0  0  0
   23.8175   20.3027   65.2963 H   0  0  0  0  0  0  0  0  0  0  0  0
   23.8379   21.8679   63.5111 H   0  0  0  0  0  0  0  0  0  0  0  0
   25.4701   20.2783   60.7680 H   0  0  0  0  0  0  0  0  0  0  0  0
   27.4367   23.6959   62.2939 H   0  0  0  0  0  0  0  0  0  0  0  0
   28.3474   22.8391   59.9437 H   0  0  0  0  0  0  0  0  0  0  0  0
   22.4364   18.2738   62.1859 H   0  0  0  0  0  0  0  0  0  0  0  0
   21.3775   18.8878   63.4616 H   0  0  0  0  0  0  0  0  0  0  0  0
   26.4187   17.2301   57.1257 H   0  0  0  0  0  0  0  0  0  0  0  0
   27.2266   17.7157   60.7169 H   0  0  0  0  0  0  0  0  0  0  0  0
   26.0401   16.4273   62.4994 H   0  0  0  0  0  0  0  0  0  0  0  0
   24.5374   16.0854   57.7585 H   0  0  0  0  0  0  0  0  0  0  0  0
   23.3909   14.7165   59.4867 H   0  0  0  0  0  0  0  0  0  0  0  0
   23.3960   13.9098   61.5686 H   0  0  0  0  0  0  0  0  0  0  0  0
   24.8171   14.3261   62.7461 H   0  0  0  0  0  0  0  0  0  0  0  0
   24.1288   17.8817   63.6305 H   0  0  0  0  0  0  0  0  0  0  0  0
   22.9833   18.2216   64.9553 H   0  0  0  0  0  0  0  0  0  0  0  0
   21.8765   21.0479   62.8836 H   0  0  0  0  0  0  0  0  0  0  0  0
   22.7986   20.4081   61.4914 H   0  0  0  0  0  0  0  0  0  0  0  0
  1  2  2  0
  1  5  1  0
  1 13  1  0
  2  3  1  0
  3  4  2  0
  4 15  1  0
  5 15  2  0
  6  7  1  0
  6 24  1  0
  7  8  1  0
  7 26  1  0
  8  9  1  0
  8 10  2  0
  9 12  2  0
 10 11  1  0
 11 12  1  0
 12 13  1  0
 14 24  1  0
 14 26  1  0
 15 16  1  0
 16 17  1  0
 17 20  1  0
 17 18  2  0
 20 21  2  0
 21 22  1  0
 18 19  1  0
 19 22  2  0
 22 23  1  0
 23 25  1  0
 25 27  3  0
  2 28  1  0
  3 29  1  0
  6 30  1  0
  6 31  1  0
  7 32  1  0
  9 33  1  0
 11 34  1  0
 13 35  1  0
 14 36  1  0
 14 37  1  0
 16 38  1  0
 18 39  1  0
 19 40  1  0
 20 41  1  0
 21 42  1  0
 23 43  1  0
 23 44  1  0
 24 45  1  0
 24 46  1  0
 26 47  1  0
 26 48  1  0
A    1
C4
A    2
C5
A    3
C6
A    4
N1
A    5
N3
A    6
C1U
A    7
C1T
A    8
C1R
A    9
C1S
A   10
N1Q
A   11
N1P
A   12
C1H
A   13
N1G
A   14
C1Y
A   15
C2
A   16
N1I
A   17
C1J
A   18
C1K
A   19
C1L
A   20
C1O
A   21
C1N
A   22
C1M
A   23
C1V
A   24
C01
A   25
C1Z
A   26
C03
A   27
N1A
M  END
