3ZG2_UDO_A_1490
     RDKit          3D

 53 56  0  0  0  0  0  0  0  0999 V2000
   15.5700    9.9470  -21.2000 C   0  0  0  0  0  0  0  0  0  0  0  0
   14.3930    9.4520  -21.7400 C   0  0  0  0  0  0  0  0  0  0  0  0
   13.4220   10.3200  -22.2180 C   0  0  0  0  0  0  0  0  0  0  0  0
   12.2390    9.8200  -22.7560 C   0  0  0  0  0  0  0  0  0  0  0  0
   11.9210    8.6730  -22.1670 F   0  0  0  0  0  0  0  0  0  0  0  0
   12.3920    9.6030  -24.0590 F   0  0  0  0  0  0  0  0  0  0  0  0
   11.2650   10.7040  -22.5640 F   0  0  0  0  0  0  0  0  0  0  0  0
   13.6550   11.6870  -22.1480 C   0  0  0  0  0  0  0  0  0  0  0  0
   14.8340   12.1910  -21.6110 C   0  0  0  0  0  0  0  0  0  0  0  0
   15.7920   11.3130  -21.1270 C   0  0  0  0  0  0  0  0  0  0  0  0
   16.9520   11.7360  -20.6120 N   0  0  0  0  0  0  0  0  0  0  0  0
   17.0020   12.7280  -19.5150 C   0  0  0  0  0  0  0  0  0  0  0  0
   18.4040   12.8550  -18.9160 C   0  0  0  0  0  0  0  0  0  0  0  0
   18.1930   11.1510  -21.1530 C   0  0  0  0  0  0  0  0  0  0  0  0
   19.2570   12.2360  -21.2600 C   0  0  0  0  0  0  0  0  0  0  0  0
   19.4360   12.9440  -19.9700 N   0  0  0  0  0  0  0  0  0  0  0  0
   20.5620   13.6470  -19.8070 C   0  0  0  0  0  0  0  0  0  0  0  0
   21.4200   13.7240  -20.6770 O   0  0  0  0  0  0  0  0  0  0  0  0
   20.7580   14.3870  -18.4860 C   0  0  0  0  0  0  0  0  0  0  0  0
   22.1040   14.3520  -18.1390 C   0  0  0  0  0  0  0  0  0  0  0  0
   22.5830   13.2300  -17.4810 C   0  0  0  0  0  0  0  0  0  0  0  0
   23.9200   13.1350  -17.1200 C   0  0  0  0  0  0  0  0  0  0  0  0
   24.8010   14.1610  -17.4270 C   0  0  0  0  0  0  0  0  0  0  0  0
   26.4550   14.0310  -16.9680 Cl  0  0  0  0  0  0  0  0  0  0  0  0
   24.3270   15.2840  -18.0900 C   0  0  0  0  0  0  0  0  0  0  0  0
   22.9890   15.3750  -18.4500 C   0  0  0  0  0  0  0  0  0  0  0  0
   20.2910   15.6930  -18.5500 C   0  0  0  0  0  0  0  0  0  0  0  0
   19.8540   16.3110  -19.7130 C   0  0  0  0  0  0  0  0  0  0  0  0
   19.3940   17.6180  -19.6990 C   0  0  0  0  0  0  0  0  0  0  0  0
   19.3680   18.3210  -18.5090 C   0  0  0  0  0  0  0  0  0  0  0  0
   19.7960   17.7020  -17.3380 N   0  0  0  0  0  0  0  0  0  0  0  0
   20.2610   16.3920  -17.3580 C   0  0  0  0  0  0  0  0  0  0  0  0
   16.3342    9.2496  -20.8263 H   0  0  0  0  0  0  0  0  0  0  0  0
   14.2282    8.3656  -21.7897 H   0  0  0  0  0  0  0  0  0  0  0  0
   12.8922   12.3844  -22.5246 H   0  0  0  0  0  0  0  0  0  0  0  0
   15.0055   13.2768  -21.5704 H   0  0  0  0  0  0  0  0  0  0  0  0
   16.6947   13.7080  -19.9090 H   0  0  0  0  0  0  0  0  0  0  0  0
   16.3237   12.3867  -18.7191 H   0  0  0  0  0  0  0  0  0  0  0  0
   18.4471   13.7624  -18.2957 H   0  0  0  0  0  0  0  0  0  0  0  0
   18.6040   11.9582  -18.3113 H   0  0  0  0  0  0  0  0  0  0  0  0
   18.5467   10.3546  -20.4817 H   0  0  0  0  0  0  0  0  0  0  0  0
   17.9969   10.7281  -22.1494 H   0  0  0  0  0  0  0  0  0  0  0  0
   20.2120   11.7739  -21.5506 H   0  0  0  0  0  0  0  0  0  0  0  0
   18.9326   12.9671  -22.0152 H   0  0  0  0  0  0  0  0  0  0  0  0
   20.1667   13.8810  -17.7086 H   0  0  0  0  0  0  0  0  0  0  0  0
   21.8956   12.4052  -17.2421 H   0  0  0  0  0  0  0  0  0  0  0  0
   24.2820   12.2426  -16.5884 H   0  0  0  0  0  0  0  0  0  0  0  0
   25.0154   16.1072  -18.3319 H   0  0  0  0  0  0  0  0  0  0  0  0
   22.6275   16.2650  -18.9860 H   0  0  0  0  0  0  0  0  0  0  0  0
   19.8731   15.7543  -20.6615 H   0  0  0  0  0  0  0  0  0  0  0  0
   19.0514   18.0936  -20.6298 H   0  0  0  0  0  0  0  0  0  0  0  0
   19.0118   19.3615  -18.4876 H   0  0  0  0  0  0  0  0  0  0  0  0
   20.6038   15.9136  -16.4287 H   0  0  0  0  0  0  0  0  0  0  0  0
  1  2  2  0
  1 10  1  0
  2  3  1  0
  3  4  1  0
  3  8  2  0
  4  5  1  0
  4  6  1  0
  4  7  1  0
  8  9  1  0
  9 10  2  0
 10 11  1  0
 11 12  1  0
 11 14  1  0
 12 13  1  0
 13 16  1  0
 14 15  1  0
 15 16  1  0
 16 17  1  0
 17 18  2  0
 17 19  1  0
 19 20  1  0
 19 27  1  0
 20 21  2  0
 20 26  1  0
 21 22  1  0
 22 23  2  0
 23 24  1  0
 23 25  1  0
 25 26  2  0
 27 28  2  0
 27 32  1  0
 28 29  1  0
 29 30  2  0
 30 31  1  0
 31 32  2  0
  1 33  1  0
  2 34  1  0
  8 35  1  0
  9 36  1  0
 12 37  1  0
 12 38  1  0
 13 39  1  0
 13 40  1  0
 14 41  1  0
 14 42  1  0
 15 43  1  0
 15 44  1  0
 19 45  1  0
 21 46  1  0
 22 47  1  0
 25 48  1  0
 26 49  1  0
 28 50  1  0
 29 51  1  0
 30 52  1  0
 32 53  1  0
A    1
CAM
A    2
CAO
A    3
CBB
A    4
CBF
A    5
FAC
A    6
FAD
A    7
FAB
A    8
CAP
A    9
CAN
A   10
CBA
A   11
NBE
A   12
CAU
A   13
CAS
A   14
CAT
A   15
CAR
A   16
NBD
A   17
CAW
A   18
OAA
A   19
CBC
A   20
CAY
A   21
CAK
A   22
CAI
A   23
CAX
A   24
CLA
A   25
CAJ
A   26
CAL
A   27
CAZ
A   28
CAH
A   29
CAF
A   30
CAG
A   31
NAV
A   32
CAQ
M  END
