3ZGF_IUG_B_452
     RDKit          3D

 76 79  0  0  0  0  0  0  0  0999 V2000
  -11.7220   17.8730  -23.3020 C   0  0  0  0  0  0  0  0  0  0  0  0
  -11.8780   19.2750  -23.1380 O   0  0  0  0  0  0  0  0  0  0  0  0
  -10.5100   17.4200  -22.4940 C   0  0  0  0  0  0  0  0  0  0  0  0
  -10.7690   17.4720  -21.0750 O   0  0  0  0  0  0  0  0  0  0  0  0
   -9.3240   18.2840  -22.8980 C   0  0  0  0  0  0  0  0  0  0  0  0
   -8.1630   17.8660  -22.1740 O   0  0  0  0  0  0  0  0  0  0  0  0
   -9.0920   18.1660  -24.4070 C   0  0  0  0  0  0  0  0  0  0  0  0
   -8.5490   16.8870  -24.7760 O   0  0  0  0  0  0  0  0  0  0  0  0
  -10.3760   18.3710  -25.2110 C   0  0  0  0  0  0  0  0  0  0  0  0
  -11.4870   17.6290  -24.6890 O   0  0  0  0  0  0  0  0  0  0  0  0
  -10.1350   17.8790  -26.6260 C   0  0  0  0  0  0  0  0  0  0  0  0
  -11.3050   18.0270  -27.4220 O   0  0  0  0  0  0  0  0  0  0  0  0
  -16.1720   19.6230  -16.2140 C   0  0  0  0  0  0  0  0  0  0  0  0
  -16.9820   18.6290  -17.0210 C   0  0  0  0  0  0  0  0  0  0  0  0
  -16.8660   17.3350  -16.4160 O   0  0  0  0  0  0  0  0  0  0  0  0
  -16.2610   18.5870  -18.3340 C   0  0  0  0  0  0  0  0  0  0  0  0
  -16.5230   17.3530  -19.0080 O   0  0  0  0  0  0  0  0  0  0  0  0
  -14.8150   18.7310  -17.8750 C   0  0  0  0  0  0  0  0  0  0  0  0
  -14.8630   19.6630  -16.7960 O   0  0  0  0  0  0  0  0  0  0  0  0
  -13.8620   19.2030  -18.9550 C   0  0  0  0  0  0  0  0  0  0  0  0
  -14.3580   20.4090  -19.5250 O   0  0  0  0  0  0  0  0  0  0  0  0
  -18.3210   24.6340  -16.4650 O   0  0  0  0  0  0  0  0  0  0  0  0
  -18.4470   20.4110  -14.9590 O   0  0  0  0  0  0  0  0  0  0  0  0
  -12.3520   14.6370  -31.6670 O   0  0  0  0  0  0  0  0  0  0  0  0
  -15.5590   21.7210  -21.2560 O   0  0  0  0  0  0  0  0  0  0  0  0
  -14.3500   18.9430  -23.7860 O   0  0  0  0  0  0  0  0  0  0  0  0
  -12.1760   14.5450  -29.5690 O   0  0  0  0  0  0  0  0  0  0  0  0
  -15.6060   19.1060  -21.3680 O   0  0  0  0  0  0  0  0  0  0  0  0
  -13.1140   21.1880  -24.2430 O   0  0  0  0  0  0  0  0  0  0  0  0
   -9.1470   18.2260  -31.1300 C   0  0  0  0  0  0  0  0  0  0  0  0
   -9.3410   17.2830  -32.1280 C   0  0  0  0  0  0  0  0  0  0  0  0
   -9.8670   18.1310  -29.9440 C   0  0  0  0  0  0  0  0  0  0  0  0
  -10.2520   16.2550  -31.9290 C   0  0  0  0  0  0  0  0  0  0  0  0
  -16.6440   23.2030  -17.1190 C   0  0  0  0  0  0  0  0  0  0  0  0
  -16.1230   21.9140  -17.0340 C   0  0  0  0  0  0  0  0  0  0  0  0
  -11.5270   17.0370  -28.4550 C   0  0  0  0  0  0  0  0  0  0  0  0
  -18.3970   22.5220  -15.7030 N   0  0  0  0  0  0  0  0  0  0  0  0
  -13.4930   20.4120  -21.8550 O   0  0  0  0  0  0  0  0  0  0  0  0
  -10.7870   17.1020  -29.7410 C   0  0  0  0  0  0  0  0  0  0  0  0
  -10.9720   16.1500  -30.7400 C   0  0  0  0  0  0  0  0  0  0  0  0
  -17.8120   23.4870  -16.4230 C   0  0  0  0  0  0  0  0  0  0  0  0
  -17.8730   21.2840  -15.6400 C   0  0  0  0  0  0  0  0  0  0  0  0
  -16.7510   20.9750  -16.3120 N   0  0  0  0  0  0  0  0  0  0  0  0
  -11.8760   15.0760  -30.6330 N   0  0  0  0  0  0  0  0  0  0  0  0
  -14.8830   20.3870  -21.0410 P   0  0  0  0  0  0  0  0  0  0  0  0
  -13.3090   19.9570  -23.3860 P   0  0  0  0  0  0  0  0  0  0  0  0
  -12.6137   17.3277  -22.9594 H   0  0  0  0  0  0  0  0  0  0  0  0
  -10.2823   16.3665  -22.7139 H   0  0  0  0  0  0  0  0  0  0  0  0
   -9.9286   17.3033  -20.5797 H   0  0  0  0  0  0  0  0  0  0  0  0
   -9.5306   19.3373  -22.6575 H   0  0  0  0  0  0  0  0  0  0  0  0
   -8.3396   17.9296  -21.2020 H   0  0  0  0  0  0  0  0  0  0  0  0
   -8.3716   18.9624  -24.6451 H   0  0  0  0  0  0  0  0  0  0  0  0
   -8.3307   16.3729  -23.9586 H   0  0  0  0  0  0  0  0  0  0  0  0
  -10.6221   19.4421  -25.1641 H   0  0  0  0  0  0  0  0  0  0  0  0
   -9.3176   18.4620  -27.0755 H   0  0  0  0  0  0  0  0  0  0  0  0
   -9.8699   16.8122  -26.5864 H   0  0  0  0  0  0  0  0  0  0  0  0
  -16.1572   19.3191  -15.1569 H   0  0  0  0  0  0  0  0  0  0  0  0
  -18.0464   18.8958  -17.0973 H   0  0  0  0  0  0  0  0  0  0  0  0
  -16.8745   17.4295  -15.4306 H   0  0  0  0  0  0  0  0  0  0  0  0
  -16.5558   19.3538  -19.0655 H   0  0  0  0  0  0  0  0  0  0  0  0
  -16.6748   16.6380  -18.3403 H   0  0  0  0  0  0  0  0  0  0  0  0
  -14.4155   17.7482  -17.5843 H   0  0  0  0  0  0  0  0  0  0  0  0
  -12.8699   19.3848  -18.5160 H   0  0  0  0  0  0  0  0  0  0  0  0
  -13.7792   18.4328  -19.7360 H   0  0  0  0  0  0  0  0  0  0  0  0
  -11.9312   14.9783  -28.7132 H   0  0  0  0  0  0  0  0  0  0  0  0
  -15.8639   18.6491  -20.5285 H   0  0  0  0  0  0  0  0  0  0  0  0
  -12.9887   21.9789  -23.6609 H   0  0  0  0  0  0  0  0  0  0  0  0
   -8.4273   19.0450  -31.2757 H   0  0  0  0  0  0  0  0  0  0  0  0
   -8.7772   17.3492  -33.0702 H   0  0  0  0  0  0  0  0  0  0  0  0
   -9.7086   18.8791  -29.1533 H   0  0  0  0  0  0  0  0  0  0  0  0
  -10.4086   15.5103  -32.7233 H   0  0  0  0  0  0  0  0  0  0  0  0
  -16.1437   23.9756  -17.7214 H   0  0  0  0  0  0  0  0  0  0  0  0
  -15.1909   21.6650  -17.5623 H   0  0  0  0  0  0  0  0  0  0  0  0
  -11.2942   16.0593  -28.0080 H   0  0  0  0  0  0  0  0  0  0  0  0
  -12.5657   17.2311  -28.7605 H   0  0  0  0  0  0  0  0  0  0  0  0
  -19.2641   22.7308  -15.1878 H   0  0  0  0  0  0  0  0  0  0  0  0
 10  1  1  0
  1  2  1  0
  1  3  1  0
 46  2  1  0
  5  3  1  0
  3  4  1  0
  7  5  1  0
  5  6  1  0
  9  7  1  0
  8  7  1  0
 11  9  1  0
  9 10  1  0
 12 11  1  0
 36 12  1  0
 14 13  1  0
 19 13  1  0
 43 13  1  0
 16 14  1  0
 14 15  1  0
 17 16  1  0
 16 18  1  0
 20 18  1  0
 18 19  1  0
 21 20  1  0
 45 21  1  0
 22 41  2  0
 42 23  2  0
 44 24  2  0
 25 45  2  0
 26 46  2  0
 27 44  1  0
 28 45  1  0
 29 46  1  0
 31 30  2  0
 30 32  1  0
 31 33  1  0
 32 39  2  0
 33 40  2  0
 34 35  2  0
 34 41  1  0
 35 43  1  0
 39 36  1  0
 41 37  1  0
 37 42  1  0
 46 38  1  0
 38 45  1  0
 40 39  1  0
 40 44  1  0
 43 42  1  0
  1 47  1  0
  3 48  1  0
  4 49  1  0
  5 50  1  0
  6 51  1  0
  7 52  1  0
  8 53  1  0
  9 54  1  0
 11 55  1  0
 11 56  1  0
 13 57  1  0
 14 58  1  0
 15 59  1  0
 16 60  1  0
 17 61  1  0
 18 62  1  0
 20 63  1  0
 20 64  1  0
 27 65  1  0
 28 66  1  0
 29 67  1  0
 30 68  1  0
 31 69  1  0
 32 70  1  0
 33 71  1  0
 34 72  1  0
 35 73  1  0
 36 74  1  0
 36 75  1  0
 37 76  1  0
M  CHG  1  44   1
A    1
C1
A    2
O1
A    3
C2
A    4
O2
A    5
C3
A    6
O3
A    7
C4
A    8
O4
A    9
C5
A   10
O5
A   11
C6
A   12
O6
A   13
C1'
A   14
C2'
A   15
O2'
A   16
C3'
A   17
O3'
A   18
C4'
A   19
O4'
A   20
C5'
A   21
O5'
A   22
OAA
A   23
OAB
A   24
OAC
A   25
OAD
A   26
OAE
A   27
OAK
A   28
OAL
A   29
OAM
A   30
CAN
A   31
CAO
A   32
CAP
A   33
CAQ
A   34
CAR
A   35
CAS
A   36
CAT
A   37
NAW
A   38
OBC
A   39
CBD
A   40
CBE
A   41
CBF
A   42
CBG
A   43
NBQ
A   44
NBR
A   45
PBS
A   46
PBT
M  END
