3ZK5_Z18_A_1408
     RDKit          3D

 62 62  0  0  0  0  0  0  0  0999 V2000
  -19.3930   -7.1490   12.4270 N   0  0  0  0  0  0  0  0  0  0  0  0
  -22.8360   -4.9420    3.8390 C   0  0  0  0  0  0  0  0  0  0  0  0
  -23.8300   -2.6000    7.2480 O   0  0  0  0  0  0  0  0  0  0  0  0
  -23.2150   -4.2530    4.8830 C   0  0  0  0  0  0  0  0  0  0  0  0
  -21.5430   -2.0670    7.3740 O   0  0  0  0  0  0  0  0  0  0  0  0
  -24.1910   -3.1230    4.8120 C   0  0  0  0  0  0  0  0  0  0  0  0
  -21.0760   -6.0310    9.2060 O   0  0  0  0  0  0  0  0  0  0  0  0
  -25.5710   -3.7760    4.9350 C   0  0  0  0  0  0  0  0  0  0  0  0
  -19.2930   -5.1150   10.2760 O   0  0  0  0  0  0  0  0  0  0  0  0
  -23.8940   -2.0710    5.8970 C   0  0  0  0  0  0  0  0  0  0  0  0
  -20.7940   -6.0040    3.5390 O   0  0  0  0  0  0  0  0  0  0  0  0
  -24.8960   -0.9260    5.8350 C   0  0  0  0  0  0  0  0  0  0  0  0
  -26.1730   -1.2520    6.5450 C   0  0  0  0  0  0  0  0  0  0  0  0
  -22.4670   -2.8080    7.7580 C   0  0  0  0  0  0  0  0  0  0  0  0
  -22.2560   -3.9650    8.7310 C   0  0  0  0  0  0  0  0  0  0  0  0
  -22.0670   -3.4610   10.1450 C   0  0  0  0  0  0  0  0  0  0  0  0
  -21.0840   -4.8680    8.3340 C   0  0  0  0  0  0  0  0  0  0  0  0
  -20.0630   -6.0740   10.2180 C   0  0  0  0  0  0  0  0  0  0  0  0
  -19.9830   -7.3290   11.0960 C   0  0  0  0  0  0  0  0  0  0  0  0
  -17.9350   -6.9760   12.4340 C   0  0  0  0  0  0  0  0  0  0  0  0
  -19.7270   -8.3080   13.2610 C   0  0  0  0  0  0  0  0  0  0  0  0
  -21.1410   -5.3750    6.8780 C   0  0  0  0  0  0  0  0  0  0  0  0
  -19.7600   -5.8350    6.4520 C   0  0  0  0  0  0  0  0  0  0  0  0
  -22.1030   -6.5610    6.6540 C   0  0  0  0  0  0  0  0  0  0  0  0
  -22.1790   -7.0780    5.1890 C   0  0  0  0  0  0  0  0  0  0  0  0
  -23.5200   -7.7840    4.8780 C   0  0  0  0  0  0  0  0  0  0  0  0
  -21.8690   -6.0090    4.1350 C   0  0  0  0  0  0  0  0  0  0  0  0
  -23.2092   -4.7404    2.8241 H   0  0  0  0  0  0  0  0  0  0  0  0
  -22.7942   -4.5182    5.8641 H   0  0  0  0  0  0  0  0  0  0  0  0
  -24.1285   -2.5581    3.8702 H   0  0  0  0  0  0  0  0  0  0  0  0
  -25.8261   -3.8967    5.9982 H   0  0  0  0  0  0  0  0  0  0  0  0
  -26.3232   -3.1383    4.4476 H   0  0  0  0  0  0  0  0  0  0  0  0
  -25.5549   -4.7620    4.4476 H   0  0  0  0  0  0  0  0  0  0  0  0
  -22.8842   -1.7013    5.6654 H   0  0  0  0  0  0  0  0  0  0  0  0
  -24.4475   -0.0373    6.3030 H   0  0  0  0  0  0  0  0  0  0  0  0
  -25.1353   -0.7440    4.7769 H   0  0  0  0  0  0  0  0  0  0  0  0
  -26.0092   -1.2102    7.6319 H   0  0  0  0  0  0  0  0  0  0  0  0
  -26.9462   -0.5224    6.2624 H   0  0  0  0  0  0  0  0  0  0  0  0
  -26.5019   -2.2629    6.2624 H   0  0  0  0  0  0  0  0  0  0  0  0
  -23.1702   -4.5750    8.6848 H   0  0  0  0  0  0  0  0  0  0  0  0
  -22.3615   -4.2464   10.8566 H   0  0  0  0  0  0  0  0  0  0  0  0
  -21.0101   -3.2005   10.3032 H   0  0  0  0  0  0  0  0  0  0  0  0
  -22.6920   -2.5697   10.3032 H   0  0  0  0  0  0  0  0  0  0  0  0
  -20.1766   -4.2537    8.4305 H   0  0  0  0  0  0  0  0  0  0  0  0
  -19.3803   -8.0766   10.5595 H   0  0  0  0  0  0  0  0  0  0  0  0
  -21.0253   -7.6324   11.2734 H   0  0  0  0  0  0  0  0  0  0  0  0
  -17.5758   -6.9334   13.4728 H   0  0  0  0  0  0  0  0  0  0  0  0
  -17.4626   -7.8244   11.9172 H   0  0  0  0  0  0  0  0  0  0  0  0
  -17.6743   -6.0406   11.9172 H   0  0  0  0  0  0  0  0  0  0  0  0
  -19.6472   -8.0310   14.3226 H   0  0  0  0  0  0  0  0  0  0  0  0
  -20.7552   -8.6325   13.0430 H   0  0  0  0  0  0  0  0  0  0  0  0
  -19.0292   -9.1299   13.0430 H   0  0  0  0  0  0  0  0  0  0  0  0
  -21.5118   -4.5253    6.2860 H   0  0  0  0  0  0  0  0  0  0  0  0
  -19.1498   -6.0383    7.3444 H   0  0  0  0  0  0  0  0  0  0  0  0
  -19.8481   -6.7523    5.8513 H   0  0  0  0  0  0  0  0  0  0  0  0
  -19.2805   -5.0481    5.8513 H   0  0  0  0  0  0  0  0  0  0  0  0
  -21.7731   -7.3934    7.2929 H   0  0  0  0  0  0  0  0  0  0  0  0
  -23.1090   -6.1920    6.9024 H   0  0  0  0  0  0  0  0  0  0  0  0
  -21.3756   -7.8262    5.1195 H   0  0  0  0  0  0  0  0  0  0  0  0
  -24.0223   -8.0484    5.8202 H   0  0  0  0  0  0  0  0  0  0  0  0
  -24.1640   -7.1080    4.2963 H   0  0  0  0  0  0  0  0  0  0  0  0
  -23.3272   -8.6975    4.2963 H   0  0  0  0  0  0  0  0  0  0  0  0
  1 19  1  0
  1 20  1  0
  1 21  1  0
  2  4  2  0
  2 27  1  0
  3 10  1  0
  3 14  1  0
  4  6  1  0
  5 14  2  0
  6  8  1  0
  6 10  1  0
  7 17  1  0
  7 18  1  0
  9 18  2  0
 10 12  1  0
 11 27  2  0
 12 13  1  0
 14 15  1  0
 15 16  1  0
 15 17  1  0
 17 22  1  0
 18 19  1  0
 22 23  1  0
 22 24  1  0
 24 25  1  0
 25 26  1  0
 25 27  1  0
  2 28  1  0
  4 29  1  0
  6 30  1  0
  8 31  1  0
  8 32  1  0
  8 33  1  0
 10 34  1  0
 12 35  1  0
 12 36  1  0
 13 37  1  0
 13 38  1  0
 13 39  1  0
 15 40  1  0
 16 41  1  0
 16 42  1  0
 16 43  1  0
 17 44  1  0
 19 45  1  0
 19 46  1  0
 20 47  1  0
 20 48  1  0
 20 49  1  0
 21 50  1  0
 21 51  1  0
 21 52  1  0
 22 53  1  0
 23 54  1  0
 23 55  1  0
 23 56  1  0
 24 57  1  0
 24 58  1  0
 25 59  1  0
 26 60  1  0
 26 61  1  0
 26 62  1  0
A    1
N
A    2
C1
A    3
O1
A    4
C2
A    5
O2
A    6
C3
A    7
O3
A    8
C4
A    9
O4
A   10
C5
A   11
O5
A   12
C6
A   13
C7
A   14
C8
A   15
C9
A   16
C10
A   17
C11
A   18
C12
A   19
C13
A   20
C14
A   21
C15
A   22
C16
A   23
C17
A   24
C18
A   25
C19
A   26
C20
A   27
C21
M  END
