3ZK6_H1I_A_1198
     RDKit          3D

 71 75  0  0  0  0  0  0  0  0999 V2000
   30.7200   50.0570   -4.1500 C   0  0  0  0  0  0  0  0  0  0  0  0
   30.0050   48.8680   -4.2080 C   0  0  0  0  0  0  0  0  0  0  0  0
   28.9950   48.6220   -3.2860 C   0  0  0  0  0  0  0  0  0  0  0  0
   28.6870   49.5600   -2.3090 C   0  0  0  0  0  0  0  0  0  0  0  0
   29.3850   50.7590   -2.2610 C   0  0  0  0  0  0  0  0  0  0  0  0
   30.4020   51.0010   -3.1820 C   0  0  0  0  0  0  0  0  0  0  0  0
   28.9070   51.5040   -1.2270 N   0  0  0  0  0  0  0  0  0  0  0  0
   27.9280   50.8200   -0.6180 C   0  0  0  0  0  0  0  0  0  0  0  0
   27.4550   49.2490   -1.1810 S   0  0  0  0  0  0  0  0  0  0  0  0
   27.2740   51.3280    0.4260 N   0  0  0  0  0  0  0  0  0  0  0  0
   26.3240   50.5760    0.9220 N   0  0  0  0  0  0  0  0  0  0  0  0
   25.6950   50.9540    1.9340 C   0  0  0  0  0  0  0  0  0  0  0  0
   25.9260   52.2890    2.5610 C   0  0  0  0  0  0  0  0  0  0  0  0
   24.6210   50.1110    2.4470 C   0  0  0  0  0  0  0  0  0  0  0  0
   23.9950   49.9080    3.6590 C   0  0  0  0  0  0  0  0  0  0  0  0
   23.0240   48.9530    3.3670 C   0  0  0  0  0  0  0  0  0  0  0  0
   23.1170   48.6270    2.0090 C   0  0  0  0  0  0  0  0  0  0  0  0
   24.1180   49.3540    1.4410 O   0  0  0  0  0  0  0  0  0  0  0  0
   22.2780   47.6810    1.2350 C   0  0  0  0  0  0  0  0  0  0  0  0
   22.8400   46.9650    0.1930 C   0  0  0  0  0  0  0  0  0  0  0  0
   22.0330   46.1130   -0.5410 C   0  0  0  0  0  0  0  0  0  0  0  0
   20.6790   45.9720   -0.2580 C   0  0  0  0  0  0  0  0  0  0  0  0
   20.0910   46.7220    0.7640 C   0  0  0  0  0  0  0  0  0  0  0  0
   20.9130   47.5770    1.5100 C   0  0  0  0  0  0  0  0  0  0  0  0
   18.5260   46.5680    1.1110 S   0  0  0  0  0  0  0  0  0  0  0  0
   17.9090   45.6630    0.1930 O   0  0  0  0  0  0  0  0  0  0  0  0
   18.3960   46.0230    2.4330 O   0  0  0  0  0  0  0  0  0  0  0  0
   17.7830   47.8840    1.0070 N   0  0  0  0  0  0  0  0  0  0  0  0
   17.8840   48.8250    1.9390 C   0  0  0  0  0  0  0  0  0  0  0  0
   18.5840   48.7180    2.9350 O   0  0  0  0  0  0  0  0  0  0  0  0
   17.0880   50.0890    1.7020 C   0  0  0  0  0  0  0  0  0  0  0  0
   15.6610   49.9220    2.2120 C   0  0  0  0  0  0  0  0  0  0  0  0
   15.1820   51.2400    2.8010 C   0  0  0  0  0  0  0  0  0  0  0  0
   13.7870   51.1320    3.4030 C   0  0  0  0  0  0  0  0  0  0  0  0
   13.4400   52.4000    4.1850 C   0  0  0  0  0  0  0  0  0  0  0  0
   12.0250   52.3110    4.7190 C   0  0  0  0  0  0  0  0  0  0  0  0
   11.0490   51.6290    4.0040 C   0  0  0  0  0  0  0  0  0  0  0  0
    9.7460   51.5520    4.4870 C   0  0  0  0  0  0  0  0  0  0  0  0
    9.4190   52.1580    5.6980 C   0  0  0  0  0  0  0  0  0  0  0  0
   10.3960   52.8420    6.4130 C   0  0  0  0  0  0  0  0  0  0  0  0
   11.6940   52.9170    5.9230 C   0  0  0  0  0  0  0  0  0  0  0  0
   31.5327   50.2499   -4.8658 H   0  0  0  0  0  0  0  0  0  0  0  0
   30.2378   48.1223   -4.9824 H   0  0  0  0  0  0  0  0  0  0  0  0
   28.4346   47.6765   -3.3302 H   0  0  0  0  0  0  0  0  0  0  0  0
   30.9586   51.9490   -3.1422 H   0  0  0  0  0  0  0  0  0  0  0  0
   27.5013   52.2531    0.8177 H   0  0  0  0  0  0  0  0  0  0  0  0
   25.9085   52.1877    3.6562 H   0  0  0  0  0  0  0  0  0  0  0  0
   26.9049   52.6784    2.2444 H   0  0  0  0  0  0  0  0  0  0  0  0
   25.1349   52.9846    2.2444 H   0  0  0  0  0  0  0  0  0  0  0  0
   24.2110   50.3862    4.6258 H   0  0  0  0  0  0  0  0  0  0  0  0
   22.3055   48.5270    4.0827 H   0  0  0  0  0  0  0  0  0  0  0  0
   23.9081   47.0709   -0.0476 H   0  0  0  0  0  0  0  0  0  0  0  0
   22.4727   45.5344   -1.3668 H   0  0  0  0  0  0  0  0  0  0  0  0
   20.0681   45.2671   -0.8411 H   0  0  0  0  0  0  0  0  0  0  0  0
   20.4768   48.1748    2.3239 H   0  0  0  0  0  0  0  0  0  0  0  0
   17.1812   48.0543    0.1887 H   0  0  0  0  0  0  0  0  0  0  0  0
   17.5674   50.9242    2.2335 H   0  0  0  0  0  0  0  0  0  0  0  0
   17.0590   50.2951    0.6219 H   0  0  0  0  0  0  0  0  0  0  0  0
   15.0043   49.6313    1.3788 H   0  0  0  0  0  0  0  0  0  0  0  0
   15.6345   49.1406    2.9857 H   0  0  0  0  0  0  0  0  0  0  0  0
   15.8839   51.5511    3.5887 H   0  0  0  0  0  0  0  0  0  0  0  0
   15.1401   51.9771    1.9856 H   0  0  0  0  0  0  0  0  0  0  0  0
   13.0539   50.9935    2.5947 H   0  0  0  0  0  0  0  0  0  0  0  0
   13.7620   50.2731    4.0898 H   0  0  0  0  0  0  0  0  0  0  0  0
   14.1400   52.5118    5.0261 H   0  0  0  0  0  0  0  0  0  0  0  0
   13.5182   53.2690    3.5152 H   0  0  0  0  0  0  0  0  0  0  0  0
   11.3075   51.1466    3.0498 H   0  0  0  0  0  0  0  0  0  0  0  0
    8.9764   51.0140    3.9140 H   0  0  0  0  0  0  0  0  0  0  0  0
    8.3920   52.0957    6.0871 H   0  0  0  0  0  0  0  0  0  0  0  0
   10.1408   53.3245    7.3680 H   0  0  0  0  0  0  0  0  0  0  0  0
   12.4632   53.4594    6.4922 H   0  0  0  0  0  0  0  0  0  0  0  0
  1  2  2  0
  1  6  1  0
  2  3  1  0
  3  4  2  0
  4  5  1  0
  4  9  1  0
  5  6  2  0
  5  7  1  0
  7  8  2  0
  8  9  1  0
  8 10  1  0
 10 11  1  0
 11 12  2  0
 12 13  1  0
 12 14  1  0
 14 15  2  0
 14 18  1  0
 15 16  1  0
 16 17  2  0
 17 18  1  0
 17 19  1  0
 19 20  2  0
 19 24  1  0
 20 21  1  0
 21 22  2  0
 22 23  1  0
 23 24  2  0
 23 25  1  0
 25 26  2  0
 25 27  2  0
 25 28  1  0
 28 29  1  0
 29 30  2  0
 29 31  1  0
 31 32  1  0
 32 33  1  0
 33 34  1  0
 34 35  1  0
 35 36  1  0
 36 37  2  0
 36 41  1  0
 37 38  1  0
 38 39  2  0
 39 40  1  0
 40 41  2  0
  1 42  1  0
  2 43  1  0
  3 44  1  0
  6 45  1  0
 10 46  1  0
 13 47  1  0
 13 48  1  0
 13 49  1  0
 15 50  1  0
 16 51  1  0
 20 52  1  0
 21 53  1  0
 22 54  1  0
 24 55  1  0
 28 56  1  0
 31 57  1  0
 31 58  1  0
 32 59  1  0
 32 60  1  0
 33 61  1  0
 33 62  1  0
 34 63  1  0
 34 64  1  0
 35 65  1  0
 35 66  1  0
 37 67  1  0
 38 68  1  0
 39 69  1  0
 40 70  1  0
 41 71  1  0
A    1
C1
A    2
C2
A    3
C3
A    4
C4
A    5
C5
A    6
C6
A    7
N7
A    8
C8
A    9
S9
A   10
N10
A   11
N11
A   12
C12
A   13
C13
A   14
C14
A   15
C15
A   16
C16
A   17
C17
A   18
O18
A   19
C19
A   20
C20
A   21
C21
A   22
C22
A   23
C23
A   24
C24
A   25
S25
A   26
O25
A   27
O26
A   28
N26
A   29
C27
A   30
O27
A   31
C28
A   32
C29
A   33
C30
A   34
C31
A   35
C32
A   36
C33
A   37
C34
A   38
C35
A   39
C36
A   40
C37
A   41
C38
M  END
