3ZKI_WZV_A_1398
     RDKit          3D

 51 53  0  0  0  0  0  0  0  0999 V2000
  -12.2870    0.2780  -32.4460 F   0  0  0  0  0  0  0  0  0  0  0  0
  -13.0910    0.6520  -31.4880 C   0  0  0  0  0  0  0  0  0  0  0  0
  -12.6420    1.7810  -30.9620 F   0  0  0  0  0  0  0  0  0  0  0  0
  -13.1260   -0.3250  -30.5980 F   0  0  0  0  0  0  0  0  0  0  0  0
  -14.4820    0.8780  -32.0760 C   0  0  0  0  0  0  0  0  0  0  0  0
  -14.4700    2.0860  -32.8230 O   0  0  0  0  0  0  0  0  0  0  0  0
  -15.6010    2.6330  -33.3430 C   0  0  0  0  0  0  0  0  0  0  0  0
  -15.4840    3.4910  -34.4350 C   0  0  0  0  0  0  0  0  0  0  0  0
  -16.5890    4.0620  -34.9610 N   0  0  0  0  0  0  0  0  0  0  0  0
  -16.8580    2.3520  -32.7900 C   0  0  0  0  0  0  0  0  0  0  0  0
  -17.9910    2.9540  -33.3470 C   0  0  0  0  0  0  0  0  0  0  0  0
  -17.8360    3.8010  -34.4510 C   0  0  0  0  0  0  0  0  0  0  0  0
  -19.0410    4.4370  -35.0940 C   0  0  0  0  0  0  0  0  0  0  0  0
  -20.1190    4.3860  -34.5310 O   0  0  0  0  0  0  0  0  0  0  0  0
  -18.8480    4.9950  -36.2990 N   0  0  0  0  0  0  0  0  0  0  0  0
  -19.7510    5.6730  -37.1120 C   0  0  0  0  0  0  0  0  0  0  0  0
  -19.2240    6.2970  -38.2420 C   0  0  0  0  0  0  0  0  0  0  0  0
  -21.1000    5.7810  -36.8050 C   0  0  0  0  0  0  0  0  0  0  0  0
  -21.9200    6.4960  -37.6790 C   0  0  0  0  0  0  0  0  0  0  0  0
  -21.4070    7.1140  -38.8300 C   0  0  0  0  0  0  0  0  0  0  0  0
  -20.0500    7.0150  -39.1270 C   0  0  0  0  0  0  0  0  0  0  0  0
  -19.4830    7.6900  -40.3560 C   0  0  0  0  0  0  0  0  0  0  0  0
  -19.9530    7.0620  -41.6580 C   0  0  0  0  0  0  0  0  0  0  0  0
  -19.3270    5.6920  -41.7770 C   0  0  0  0  0  0  0  0  0  0  0  0
  -20.0150    4.7720  -42.1920 O   0  0  0  0  0  0  0  0  0  0  0  0
  -19.9220    9.1370  -40.2630 C   0  0  0  0  0  0  0  0  0  0  0  0
  -18.0410    7.5860  -40.3510 N   0  0  0  0  0  0  0  0  0  0  0  0
  -17.4110    6.5950  -40.8130 C   0  0  0  0  0  0  0  0  0  0  0  0
  -16.1680    6.6270  -40.6980 N   0  0  0  0  0  0  0  0  0  0  0  0
  -18.0310    5.5380  -41.4080 N   0  0  0  0  0  0  0  0  0  0  0  0
  -17.3370    4.2690  -41.6440 C   0  0  0  0  0  0  0  0  0  0  0  0
  -14.7462    0.0379  -32.7351 H   0  0  0  0  0  0  0  0  0  0  0  0
  -15.2244    0.9450  -31.2671 H   0  0  0  0  0  0  0  0  0  0  0  0
  -14.4948    3.7024  -34.8671 H   0  0  0  0  0  0  0  0  0  0  0  0
  -16.9518    1.6695  -31.9324 H   0  0  0  0  0  0  0  0  0  0  0  0
  -18.9887    2.7649  -32.9241 H   0  0  0  0  0  0  0  0  0  0  0  0
  -17.8936    4.9090  -36.6766 H   0  0  0  0  0  0  0  0  0  0  0  0
  -18.1452    6.2270  -38.4451 H   0  0  0  0  0  0  0  0  0  0  0  0
  -21.5118    5.3156  -35.8973 H   0  0  0  0  0  0  0  0  0  0  0  0
  -22.9950    6.5772  -37.4604 H   0  0  0  0  0  0  0  0  0  0  0  0
  -22.0766    7.6764  -39.4973 H   0  0  0  0  0  0  0  0  0  0  0  0
  -21.0492    6.9709  -41.6526 H   0  0  0  0  0  0  0  0  0  0  0  0
  -19.6556    7.6900  -42.5107 H   0  0  0  0  0  0  0  0  0  0  0  0
  -20.0098    9.4263  -39.2054 H   0  0  0  0  0  0  0  0  0  0  0  0
  -19.1780    9.7784  -40.7581 H   0  0  0  0  0  0  0  0  0  0  0  0
  -20.8970    9.2569  -40.7581 H   0  0  0  0  0  0  0  0  0  0  0  0
  -15.7375    6.6381  -39.7624 H   0  0  0  0  0  0  0  0  0  0  0  0
  -15.5732    6.6423  -41.5388 H   0  0  0  0  0  0  0  0  0  0  0  0
  -17.0832    3.8050  -40.6795 H   0  0  0  0  0  0  0  0  0  0  0  0
  -17.9914    3.5938  -42.2148 H   0  0  0  0  0  0  0  0  0  0  0  0
  -16.4154    4.4557  -42.2148 H   0  0  0  0  0  0  0  0  0  0  0  0
  1  2  1  0
  2  3  1  0
  2  4  1  0
  2  5  1  0
  5  6  1  0
  6  7  1  0
  7  8  2  0
  7 10  1  0
  8  9  1  0
  9 12  2  0
 10 11  2  0
 11 12  1  0
 12 13  1  0
 13 14  2  0
 13 15  1  0
 15 16  1  0
 16 17  2  0
 16 18  1  0
 17 21  1  0
 18 19  2  0
 19 20  1  0
 20 21  2  0
 21 22  1  0
 22 23  1  0
 22 26  1  0
 22 27  1  0
 23 24  1  0
 24 25  2  0
 24 30  1  0
 27 28  2  0
 28 29  1  0
 28 30  1  0
 30 31  1  0
  5 32  1  0
  5 33  1  0
  8 34  1  0
 10 35  1  0
 11 36  1  0
 15 37  1  0
 17 38  1  0
 18 39  1  0
 19 40  1  0
 20 41  1  0
 23 42  1  0
 23 43  1  0
 26 44  1  0
 26 45  1  0
 26 46  1  0
 29 47  1  0
 29 48  1  0
 31 49  1  0
 31 50  1  0
 31 51  1  0
A    1
F30
A    2
C28
A    3
F31
A    4
F29
A    5
C27
A    6
O26
A    7
C18
A    8
C23
A    9
N22
A   10
C19
A   11
C20
A   12
C21
A   13
C24
A   14
O25
A   15
N13
A   16
C7
A   17
C12
A   18
C8
A   19
C9
A   20
C10
A   21
C11
A   22
C1
A   23
C2
A   24
C3
A   25
O16
A   26
C14
A   27
N6
A   28
C5
A   29
N15
A   30
N4
A   31
C17
M  END
