3ZKP_ERB_A_413
     RDKit          3D

117119  0  0  0  0  0  0  0  0999 V2000
   15.3110   -2.5370   30.2640 C   0  0  0  0  0  0  0  0  0  0  0  0
    8.6290   -6.8780   24.4300 N   0  0  0  0  0  0  0  0  0  0  0  0
   16.4040   -2.9500   29.8950 O   0  0  0  0  0  0  0  0  0  0  0  0
   14.2850   -3.3500   31.0290 C   0  0  0  0  0  0  0  0  0  0  0  0
   14.8960   -1.1940   29.9780 O   0  0  0  0  0  0  0  0  0  0  0  0
   13.7620   -4.5710   30.2340 C   0  0  0  0  0  0  0  0  0  0  0  0
   12.5580   -5.0080   30.8920 O   0  0  0  0  0  0  0  0  0  0  0  0
   13.4850   -4.2210   28.7620 C   0  0  0  0  0  0  0  0  0  0  0  0
   11.1340   -6.7610   30.3240 O   0  0  0  0  0  0  0  0  0  0  0  0
   13.6580   -5.4430   27.8190 C   0  0  0  0  0  0  0  0  0  0  0  0
   11.1020   -5.1570   33.5990 O   0  0  0  0  0  0  0  0  0  0  0  0
   15.0500   -5.5510   27.1820 C   0  0  0  0  0  0  0  0  0  0  0  0
    8.6210   -6.2890   32.9340 O   0  0  0  0  0  0  0  0  0  0  0  0
   15.1600   -4.5000   26.0570 C   0  0  0  0  0  0  0  0  0  0  0  0
   12.7190   -5.4040   26.7380 O   0  0  0  0  0  0  0  0  0  0  0  0
   16.5380   -3.8900   25.7470 C   0  0  0  0  0  0  0  0  0  0  0  0
   10.2890   -4.6940   25.4200 O   0  0  0  0  0  0  0  0  0  0  0  0
   16.3970   -2.5840   24.9740 C   0  0  0  0  0  0  0  0  0  0  0  0
   12.0010   -7.6230   26.8790 O   0  0  0  0  0  0  0  0  0  0  0  0
   15.8670   -1.3020   25.6210 C   0  0  0  0  0  0  0  0  0  0  0  0
   16.0610   -5.3630   28.1770 O   0  0  0  0  0  0  0  0  0  0  0  0
   16.2250   -1.2540   27.1100 C   0  0  0  0  0  0  0  0  0  0  0  0
   16.6900   -2.5420   23.7940 O   0  0  0  0  0  0  0  0  0  0  0  0
   15.5160   -0.1390   27.8980 C   0  0  0  0  0  0  0  0  0  0  0  0
   17.6510   -1.1440   27.2250 O   0  0  0  0  0  0  0  0  0  0  0  0
   15.8000   -0.2660   29.3990 C   0  0  0  0  0  0  0  0  0  0  0  0
   12.3630   -6.4280   30.9980 C   0  0  0  0  0  0  0  0  0  0  0  0
   12.3370   -6.9010   32.4680 C   0  0  0  0  0  0  0  0  0  0  0  0
   11.0440   -6.5430   33.2310 C   0  0  0  0  0  0  0  0  0  0  0  0
    9.8200   -6.7770   32.3290 C   0  0  0  0  0  0  0  0  0  0  0  0
    9.9800   -6.1790   30.9240 C   0  0  0  0  0  0  0  0  0  0  0  0
   10.9930   -7.3950   34.5210 C   0  0  0  0  0  0  0  0  0  0  0  0
   10.7660   -4.6820   34.9150 C   0  0  0  0  0  0  0  0  0  0  0  0
    8.7760   -6.4480   30.0250 C   0  0  0  0  0  0  0  0  0  0  0  0
   11.5710   -6.2610   26.8240 C   0  0  0  0  0  0  0  0  0  0  0  0
   10.6910   -6.0760   25.5860 C   0  0  0  0  0  0  0  0  0  0  0  0
    9.4910   -7.0420   25.6430 C   0  0  0  0  0  0  0  0  0  0  0  0
    9.9770   -8.4860   25.8820 C   0  0  0  0  0  0  0  0  0  0  0  0
   10.9280   -8.5520   27.0790 C   0  0  0  0  0  0  0  0  0  0  0  0
   11.5480   -9.9470   27.2390 C   0  0  0  0  0  0  0  0  0  0  0  0
    9.2260   -7.3270   23.1380 C   0  0  0  0  0  0  0  0  0  0  0  0
    7.3480   -7.5820   24.6160 C   0  0  0  0  0  0  0  0  0  0  0  0
   14.8070   -3.6740   32.4370 C   0  0  0  0  0  0  0  0  0  0  0  0
   12.1250   -3.5150   28.6120 C   0  0  0  0  0  0  0  0  0  0  0  0
   15.2510   -6.9660   26.6130 C   0  0  0  0  0  0  0  0  0  0  0  0
   17.4210   -4.9050   25.0000 C   0  0  0  0  0  0  0  0  0  0  0  0
   16.3260   -0.0300   24.8940 C   0  0  0  0  0  0  0  0  0  0  0  0
   14.0160   -0.0800   27.5620 C   0  0  0  0  0  0  0  0  0  0  0  0
   15.5120    1.0310   30.1480 C   0  0  0  0  0  0  0  0  0  0  0  0
   15.9160    0.8870   31.6050 C   0  0  0  0  0  0  0  0  0  0  0  0
   13.3835   -2.7343   31.1639 H   0  0  0  0  0  0  0  0  0  0  0  0
   14.5202   -5.3678   30.2189 H   0  0  0  0  0  0  0  0  0  0  0  0
   14.2507   -3.5020   28.4354 H   0  0  0  0  0  0  0  0  0  0  0  0
   13.4945   -6.3105   28.4753 H   0  0  0  0  0  0  0  0  0  0  0  0
    8.7101   -6.3253   33.9193 H   0  0  0  0  0  0  0  0  0  0  0  0
   14.8017   -4.9767   25.1326 H   0  0  0  0  0  0  0  0  0  0  0  0
   14.5691   -3.6495   26.4278 H   0  0  0  0  0  0  0  0  0  0  0  0
   17.0361   -3.6505   26.6981 H   0  0  0  0  0  0  0  0  0  0  0  0
   10.1676   -4.2765   26.3094 H   0  0  0  0  0  0  0  0  0  0  0  0
   14.7714   -1.3298   25.5267 H   0  0  0  0  0  0  0  0  0  0  0  0
   15.6561   -5.4383   29.0772 H   0  0  0  0  0  0  0  0  0  0  0  0
   15.8629   -2.1857   27.5691 H   0  0  0  0  0  0  0  0  0  0  0  0
   15.9306    0.8305   27.5847 H   0  0  0  0  0  0  0  0  0  0  0  0
   17.9044   -1.1245   28.1818 H   0  0  0  0  0  0  0  0  0  0  0  0
   16.8572   -0.5580   29.4827 H   0  0  0  0  0  0  0  0  0  0  0  0
   13.2094   -6.9475   30.5251 H   0  0  0  0  0  0  0  0  0  0  0  0
   12.4513   -7.9950   32.4793 H   0  0  0  0  0  0  0  0  0  0  0  0
   13.1583   -6.3783   32.9802 H   0  0  0  0  0  0  0  0  0  0  0  0
    9.7449   -7.8682   32.2121 H   0  0  0  0  0  0  0  0  0  0  0  0
   10.0730   -5.0881   31.0303 H   0  0  0  0  0  0  0  0  0  0  0  0
   11.0326   -6.7336   35.3991 H   0  0  0  0  0  0  0  0  0  0  0  0
   10.0585   -7.9750   34.5407 H   0  0  0  0  0  0  0  0  0  0  0  0
   11.8516   -8.0823   34.5407 H   0  0  0  0  0  0  0  0  0  0  0  0
   11.2281   -5.3353   35.6697 H   0  0  0  0  0  0  0  0  0  0  0  0
   11.1397   -3.6551   35.0407 H   0  0  0  0  0  0  0  0  0  0  0  0
    9.6733   -4.6924   35.0407 H   0  0  0  0  0  0  0  0  0  0  0  0
    7.8907   -6.6458   30.6472 H   0  0  0  0  0  0  0  0  0  0  0  0
    8.5890   -5.5695   29.3900 H   0  0  0  0  0  0  0  0  0  0  0  0
    8.9807   -7.3226   29.3900 H   0  0  0  0  0  0  0  0  0  0  0  0
   10.9989   -6.0054   27.7280 H   0  0  0  0  0  0  0  0  0  0  0  0
   11.2791   -6.3284   24.6913 H   0  0  0  0  0  0  0  0  0  0  0  0
    8.8491   -6.7939   26.5012 H   0  0  0  0  0  0  0  0  0  0  0  0
    9.1074   -9.1308   26.0771 H   0  0  0  0  0  0  0  0  0  0  0  0
   10.5161   -8.8278   24.9861 H   0  0  0  0  0  0  0  0  0  0  0  0
   10.3432   -8.3124   27.9793 H   0  0  0  0  0  0  0  0  0  0  0  0
   11.6522  -10.1814   28.3087 H   0  0  0  0  0  0  0  0  0  0  0  0
   10.8973  -10.6944   26.7615 H   0  0  0  0  0  0  0  0  0  0  0  0
   12.5388   -9.9649   26.7615 H   0  0  0  0  0  0  0  0  0  0  0  0
   10.0902   -7.9770   23.3397 H   0  0  0  0  0  0  0  0  0  0  0  0
    8.4741   -7.8853   22.5610 H   0  0  0  0  0  0  0  0  0  0  0  0
    9.5538   -6.4497   22.5610 H   0  0  0  0  0  0  0  0  0  0  0  0
    7.1440   -7.6941   25.6911 H   0  0  0  0  0  0  0  0  0  0  0  0
    6.5393   -7.0016   24.1479 H   0  0  0  0  0  0  0  0  0  0  0  0
    7.4044   -8.5758   24.1479 H   0  0  0  0  0  0  0  0  0  0  0  0
   14.1240   -3.2501   33.1878 H   0  0  0  0  0  0  0  0  0  0  0  0
   14.8618   -4.7651   32.5657 H   0  0  0  0  0  0  0  0  0  0  0  0
   15.8091   -3.2389   32.5657 H   0  0  0  0  0  0  0  0  0  0  0  0
   11.7114   -3.3003   29.6084 H   0  0  0  0  0  0  0  0  0  0  0  0
   12.2598   -2.5730   28.0602 H   0  0  0  0  0  0  0  0  0  0  0  0
   11.4321   -4.1673   28.0602 H   0  0  0  0  0  0  0  0  0  0  0  0
   15.3529   -7.6831   27.4409 H   0  0  0  0  0  0  0  0  0  0  0  0
   14.3827   -7.2397   25.9956 H   0  0  0  0  0  0  0  0  0  0  0  0
   16.1612   -6.9871   25.9956 H   0  0  0  0  0  0  0  0  0  0  0  0
   17.9618   -5.5267   25.7287 H   0  0  0  0  0  0  0  0  0  0  0  0
   16.7886   -5.5464   24.3687 H   0  0  0  0  0  0  0  0  0  0  0  0
   18.1438   -4.3674   24.3687 H   0  0  0  0  0  0  0  0  0  0  0  0
   16.6023    0.7357   25.6338 H   0  0  0  0  0  0  0  0  0  0  0  0
   17.1971   -0.2620   24.2636 H   0  0  0  0  0  0  0  0  0  0  0  0
   15.5075    0.3477   24.2636 H   0  0  0  0  0  0  0  0  0  0  0  0
   13.4321   -0.0570   28.4940 H   0  0  0  0  0  0  0  0  0  0  0  0
   13.8069    0.8271   26.9759 H   0  0  0  0  0  0  0  0  0  0  0  0
   13.7363   -0.9678   26.9759 H   0  0  0  0  0  0  0  0  0  0  0  0
   16.0842    1.8514   29.6902 H   0  0  0  0  0  0  0  0  0  0  0  0
   14.4358    1.2511   30.0906 H   0  0  0  0  0  0  0  0  0  0  0  0
   15.0764    1.1863   32.2496 H   0  0  0  0  0  0  0  0  0  0  0  0
   16.1806   -0.1608   31.8103 H   0  0  0  0  0  0  0  0  0  0  0  0
   16.7836    1.5312   31.8103 H   0  0  0  0  0  0  0  0  0  0  0  0
  1  3  2  0
  1  4  1  0
  1  5  1  0
  2 37  1  0
  2 41  1  0
  2 42  1  0
  4  6  1  0
  4 43  1  0
  5 26  1  0
  6  7  1  0
  6  8  1  0
  7 27  1  0
  8 10  1  0
  8 44  1  0
  9 27  1  0
  9 31  1  0
 10 12  1  0
 10 15  1  0
 11 29  1  0
 11 33  1  0
 12 14  1  0
 12 21  1  0
 12 45  1  0
 13 30  1  0
 14 16  1  0
 15 35  1  0
 16 18  1  0
 16 46  1  0
 17 36  1  0
 18 20  1  0
 18 23  2  0
 19 35  1  0
 19 39  1  0
 20 22  1  0
 20 47  1  0
 22 24  1  0
 22 25  1  0
 24 26  1  0
 24 48  1  0
 26 49  1  0
 27 28  1  0
 28 29  1  0
 29 30  1  0
 29 32  1  0
 30 31  1  0
 31 34  1  0
 35 36  1  0
 36 37  1  0
 37 38  1  0
 38 39  1  0
 39 40  1  0
 49 50  1  0
  4 51  1  0
  6 52  1  0
  8 53  1  0
 10 54  1  0
 13 55  1  0
 14 56  1  0
 14 57  1  0
 16 58  1  0
 17 59  1  0
 20 60  1  0
 21 61  1  0
 22 62  1  0
 24 63  1  0
 25 64  1  0
 26 65  1  0
 27 66  1  0
 28 67  1  0
 28 68  1  0
 30 69  1  0
 31 70  1  0
 32 71  1  0
 32 72  1  0
 32 73  1  0
 33 74  1  0
 33 75  1  0
 33 76  1  0
 34 77  1  0
 34 78  1  0
 34 79  1  0
 35 80  1  0
 36 81  1  0
 37 82  1  0
 38 83  1  0
 38 84  1  0
 39 85  1  0
 40 86  1  0
 40 87  1  0
 40 88  1  0
 41 89  1  0
 41 90  1  0
 41 91  1  0
 42 92  1  0
 42 93  1  0
 42 94  1  0
 43 95  1  0
 43 96  1  0
 43 97  1  0
 44 98  1  0
 44 99  1  0
 44100  1  0
 45101  1  0
 45102  1  0
 45103  1  0
 46104  1  0
 46105  1  0
 46106  1  0
 47107  1  0
 47108  1  0
 47109  1  0
 48110  1  0
 48111  1  0
 48112  1  0
 49113  1  0
 49114  1  0
 50115  1  0
 50116  1  0
 50117  1  0
A    1
C1
A    2
N1
A    3
O1
A    4
C2
A    5
O2
A    6
C3
A    7
O3
A    8
C4
A    9
O4
A   10
C5
A   11
O5
A   12
C6
A   13
O6
A   14
C7
A   15
O7
A   16
C8
A   17
O8
A   18
C9
A   19
O9
A   20
C10
A   21
O10
A   22
C11
A   23
O11
A   24
C12
A   25
O12
A   26
C13
A   27
C14
A   28
C15
A   29
C16
A   30
C17
A   31
C18
A   32
C19
A   33
C20
A   34
C21
A   35
C22
A   36
C23
A   37
C24
A   38
C25
A   39
C26
A   40
C27
A   41
C28
A   42
C29
A   43
C30
A   44
C31
A   45
C32
A   46
C33
A   47
C34
A   48
C35
A   49
C36
A   50
C37
M  END
