3ZKU_HCV_A_1329
     RDKit          3D

 52 51  0  0  0  0  0  0  0  0999 V2000
   12.3260   39.1500    5.5620 C   0  0  0  0  0  0  0  0  0  0  0  0
   13.0250   39.8070    4.7920 O   0  0  0  0  0  0  0  0  0  0  0  0
   17.3010   35.9760    4.3620 O   0  0  0  0  0  0  0  0  0  0  0  0
   12.9280   38.4600    6.7650 C   0  0  0  0  0  0  0  0  0  0  0  0
   17.1800   36.4870    5.4320 C   0  0  0  0  0  0  0  0  0  0  0  0
   15.8700   36.3120    6.2420 C   0  0  0  0  0  0  0  0  0  0  0  0
   15.0060   37.3880    5.6560 C   0  0  0  0  0  0  0  0  0  0  0  0
   13.6500   37.1730    6.3870 C   0  0  0  0  0  0  0  0  0  0  0  0
   15.8900   36.5550    7.6850 N   0  0  0  0  0  0  0  0  0  0  0  0
   18.0610   37.2550    5.9410 O   0  0  0  0  0  0  0  0  0  0  0  0
   11.0190   38.9400    5.3640 N   0  0  0  0  0  0  0  0  0  0  0  0
   10.1070   39.9270    4.7830 C   0  0  0  0  0  0  0  0  0  0  0  0
   10.8180   41.2500    4.5340 C   0  0  0  0  0  0  0  0  0  0  0  0
   11.1310   41.8450    5.9310 C   0  0  0  0  0  0  0  0  0  0  0  0
   10.6210   40.7720    7.3020 S   0  0  0  0  0  0  0  0  0  0  0  0
    9.3730   39.3240    3.5880 C   0  0  0  0  0  0  0  0  0  0  0  0
    9.3690   39.8310    2.4340 O   0  0  0  0  0  0  0  0  0  0  0  0
    8.5910   38.3030    3.9690 N   0  0  0  0  0  0  0  0  0  0  0  0
    7.3330   38.6870    4.5750 C   0  0  0  0  0  0  0  0  0  0  0  0
    6.8790   40.0140    3.9230 C   0  0  0  0  0  0  0  0  0  0  0  0
    5.9970   40.8270    4.8740 C   0  0  0  0  0  0  0  0  0  0  0  0
    6.1970   39.8140    2.5230 C   0  0  0  0  0  0  0  0  0  0  0  0
    7.4160   38.7780    6.0900 C   0  0  0  0  0  0  0  0  0  0  0  0
    6.3630   38.8840    6.7090 O   0  0  0  0  0  0  0  0  0  0  0  0
    8.6160   38.7300    6.6830 O   0  0  0  0  0  0  0  0  0  0  0  0
   13.6466   39.1425    7.2424 H   0  0  0  0  0  0  0  0  0  0  0  0
   12.1084   38.1992    7.4507 H   0  0  0  0  0  0  0  0  0  0  0  0
   15.5708   35.2563    6.1651 H   0  0  0  0  0  0  0  0  0  0  0  0
   14.8954   37.2600    4.5691 H   0  0  0  0  0  0  0  0  0  0  0  0
   15.4179   38.3993    5.7884 H   0  0  0  0  0  0  0  0  0  0  0  0
   13.8422   36.6031    7.3080 H   0  0  0  0  0  0  0  0  0  0  0  0
   12.9944   36.6406    5.6823 H   0  0  0  0  0  0  0  0  0  0  0  0
   15.8161   35.6577    8.1853 H   0  0  0  0  0  0  0  0  0  0  0  0
   16.7721   37.0202    7.9426 H   0  0  0  0  0  0  0  0  0  0  0  0
   18.1450   37.3283    6.9247 H   0  0  0  0  0  0  0  0  0  0  0  0
   10.6303   38.0263    5.6377 H   0  0  0  0  0  0  0  0  0  0  0  0
    9.3135   40.1877    5.4988 H   0  0  0  0  0  0  0  0  0  0  0  0
   11.7498   41.0822    3.9739 H   0  0  0  0  0  0  0  0  0  0  0  0
   10.1945   41.9333    3.9388 H   0  0  0  0  0  0  0  0  0  0  0  0
   10.6049   42.8063    6.0263 H   0  0  0  0  0  0  0  0  0  0  0  0
   12.2229   41.9601    5.9976 H   0  0  0  0  0  0  0  0  0  0  0  0
   10.9117   41.3835    8.4930 H   0  0  0  0  0  0  0  0  0  0  0  0
    8.8650   37.3185    3.8401 H   0  0  0  0  0  0  0  0  0  0  0  0
    6.5804   37.9069    4.3877 H   0  0  0  0  0  0  0  0  0  0  0  0
    7.7938   40.5936    3.7302 H   0  0  0  0  0  0  0  0  0  0  0  0
    6.2595   40.5851    5.9145 H   0  0  0  0  0  0  0  0  0  0  0  0
    6.1576   41.9005    4.6955 H   0  0  0  0  0  0  0  0  0  0  0  0
    4.9401   40.5797    4.6955 H   0  0  0  0  0  0  0  0  0  0  0  0
    5.1503   39.5071    2.6655 H   0  0  0  0  0  0  0  0  0  0  0  0
    6.2287   40.7593    1.9613 H   0  0  0  0  0  0  0  0  0  0  0  0
    6.7342   39.0356    1.9613 H   0  0  0  0  0  0  0  0  0  0  0  0
    8.6802   38.7274    7.6709 H   0  0  0  0  0  0  0  0  0  0  0  0
 21 20  1  0
 16 18  1  0
 18 19  1  0
 17 16  2  0
 14 15  1  0
 20 19  1  0
 20 22  1  0
 12 11  1  0
 11  1  1  0
  2  1  2  0
  6  9  1  0
  3  5  2  0
 19 23  1  0
  5 10  1  0
 16 12  1  0
 23 25  1  0
 13 12  1  0
 23 24  2  0
 13 14  1  0
  1  4  1  0
  8  4  1  0
  7  8  1  0
  7  6  1  0
  5  6  1  0
  4 26  1  0
  4 27  1  0
  6 28  1  0
  7 29  1  0
  7 30  1  0
  8 31  1  0
  8 32  1  0
  9 33  1  0
  9 34  1  0
 10 35  1  0
 11 36  1  0
 12 37  1  0
 13 38  1  0
 13 39  1  0
 14 40  1  0
 14 41  1  0
 15 42  1  0
 18 43  1  0
 19 44  1  0
 20 45  1  0
 21 46  1  0
 21 47  1  0
 21 48  1  0
 22 49  1  0
 22 50  1  0
 22 51  1  0
 25 52  1  0
A    1
C8
A    2
O1
A    3
O2
A    4
C9
A    5
C13
A    6
C12
A    7
C11
A    8
C10
A    9
N2
A   10
O3
A   11
N1
A   12
C5
A   13
C6
A   14
C7
A   15
S
A   16
C4
A   17
O
A   18
N
A   19
C3
A   20
C1
A   21
C
A   22
C2
A   23
C14
A   24
O5
A   25
O4
M  END
