3ZKY_WT4_A_1333
     RDKit          3D

 50 49  0  0  0  0  0  0  0  0999 V2000
   12.2790   39.5460    5.7570 C   0  0  0  0  0  0  0  0  0  0  0  0
   12.5820   40.4490    4.9800 O   0  0  0  0  0  0  0  0  0  0  0  0
   17.1820   36.4280    4.1250 O   0  0  0  0  0  0  0  0  0  0  0  0
   12.9910   39.3840    7.0610 C   0  0  0  0  0  0  0  0  0  0  0  0
   17.0140   36.8560    5.2650 C   0  0  0  0  0  0  0  0  0  0  0  0
   15.5250   36.9790    5.7490 C   0  0  0  0  0  0  0  0  0  0  0  0
   14.9670   38.4290    5.4630 C   0  0  0  0  0  0  0  0  0  0  0  0
   14.4560   38.8460    6.8980 C   0  0  0  0  0  0  0  0  0  0  0  0
   15.2640   36.6040    7.1780 N   0  0  0  0  0  0  0  0  0  0  0  0
   18.0020   37.1890    6.0930 O   0  0  0  0  0  0  0  0  0  0  0  0
   11.2870   38.6740    5.5150 N   0  0  0  0  0  0  0  0  0  0  0  0
    9.8950   38.9710    5.7820 C   0  0  0  0  0  0  0  0  0  0  0  0
    9.5560   40.3530    5.2450 C   0  0  0  0  0  0  0  0  0  0  0  0
   10.5810   40.4060    3.9850 C   0  0  0  0  0  0  0  0  0  0  0  0
    9.6360   40.0110    2.4930 S   0  0  0  0  0  0  0  0  0  0  0  0
    9.0590   37.9030    5.1020 C   0  0  0  0  0  0  0  0  0  0  0  0
    9.5870   36.8810    4.6610 O   0  0  0  0  0  0  0  0  0  0  0  0
    4.6640   39.2010    1.5730 C   0  0  0  0  0  0  0  0  0  0  0  0
    7.7490   38.1740    4.9980 N   0  0  0  0  0  0  0  0  0  0  0  0
    6.1960   39.4130    2.5500 S   0  0  0  0  0  0  0  0  0  0  0  0
    6.7040   37.7030    2.8410 C   0  0  0  0  0  0  0  0  0  0  0  0
    6.7640   37.3260    4.3350 C   0  0  0  0  0  0  0  0  0  0  0  0
    5.2850   38.2530    6.0160 O   0  0  0  0  0  0  0  0  0  0  0  0
    4.4490   36.6930    4.6730 O   0  0  0  0  0  0  0  0  0  0  0  0
    5.4430   37.4440    5.1040 C   0  0  0  0  0  0  0  0  0  0  0  0
   13.0308   40.3623    7.5624 H   0  0  0  0  0  0  0  0  0  0  0  0
   12.4322   38.6423    7.6506 H   0  0  0  0  0  0  0  0  0  0  0  0
   14.9866   36.2248    5.1564 H   0  0  0  0  0  0  0  0  0  0  0  0
   14.1452   38.4083    4.7321 H   0  0  0  0  0  0  0  0  0  0  0  0
   15.7036   39.1195    5.0264 H   0  0  0  0  0  0  0  0  0  0  0  0
   15.1307   39.6344    7.2631 H   0  0  0  0  0  0  0  0  0  0  0  0
   14.4521   37.9004    7.4600 H   0  0  0  0  0  0  0  0  0  0  0  0
   15.7327   37.2774    7.8008 H   0  0  0  0  0  0  0  0  0  0  0  0
   14.2498   36.6190    7.3572 H   0  0  0  0  0  0  0  0  0  0  0  0
   17.8641   37.1425    7.0722 H   0  0  0  0  0  0  0  0  0  0  0  0
   11.5268   37.7527    5.1219 H   0  0  0  0  0  0  0  0  0  0  0  0
    9.6896   38.9714    6.8627 H   0  0  0  0  0  0  0  0  0  0  0  0
    8.5062   40.4229    4.9239 H   0  0  0  0  0  0  0  0  0  0  0  0
    9.6580   41.1756    5.9681 H   0  0  0  0  0  0  0  0  0  0  0  0
   11.3858   39.6694    4.1251 H   0  0  0  0  0  0  0  0  0  0  0  0
   11.0373   41.4033    3.9002 H   0  0  0  0  0  0  0  0  0  0  0  0
    8.4150   39.5007    2.8475 H   0  0  0  0  0  0  0  0  0  0  0  0
    3.8083   39.0826    2.2540 H   0  0  0  0  0  0  0  0  0  0  0  0
    4.5081   40.0861    0.9388 H   0  0  0  0  0  0  0  0  0  0  0  0
    4.7544   38.3068    0.9388 H   0  0  0  0  0  0  0  0  0  0  0  0
    7.4117   39.0509    5.4200 H   0  0  0  0  0  0  0  0  0  0  0  0
    5.9852   37.0363    2.3421 H   0  0  0  0  0  0  0  0  0  0  0  0
    7.7219   37.5944    2.4383 H   0  0  0  0  0  0  0  0  0  0  0  0
    7.0306   36.2589    4.3502 H   0  0  0  0  0  0  0  0  0  0  0  0
    5.3433   37.9545    6.9581 H   0  0  0  0  0  0  0  0  0  0  0  0
 18 20  1  0
 22 19  1  0
 19 16  1  0
 17 16  2  0
 20 21  1  0
 21 22  1  0
 11  1  1  0
 11 12  1  0
  2  1  2  0
 15 14  1  0
 22 25  1  0
  6  9  1  0
  3  5  2  0
 16 12  1  0
  5 10  1  0
 13 12  1  0
 25 23  1  0
 14 13  1  0
 24 25  2  0
  1  4  1  0
  8  4  1  0
  7  8  1  0
  7  6  1  0
  5  6  1  0
  4 26  1  0
  4 27  1  0
  6 28  1  0
  7 29  1  0
  7 30  1  0
  8 31  1  0
  8 32  1  0
  9 33  1  0
  9 34  1  0
 10 35  1  0
 11 36  1  0
 12 37  1  0
 13 38  1  0
 13 39  1  0
 14 40  1  0
 14 41  1  0
 15 42  1  0
 18 43  1  0
 18 44  1  0
 18 45  1  0
 19 46  1  0
 21 47  1  0
 21 48  1  0
 22 49  1  0
 23 50  1  0
A    1
C7
A    2
O1
A    3
O2
A    4
C8
A    5
C12
A    6
C11
A    7
C10
A    8
C9
A    9
N2
A   10
O3
A   11
N1
A   12
C4
A   13
C5
A   14
C6
A   15
S1
A   16
C3
A   17
O
A   18
C
A   19
N
A   20
S
A   21
C1
A   22
C2
A   23
O4
A   24
O5
A   25
C13
M  END
