3ZLN_H0Y_A_1197
     RDKit          3D

 48 52  0  0  0  0  0  0  0  0999 V2000
  -22.8520  -17.8700   10.7470 O   0  0  0  0  0  0  0  0  0  0  0  0
  -22.9250  -17.5760   11.9690 C   0  0  0  0  0  0  0  0  0  0  0  0
  -23.5920  -18.2650   12.7710 O   0  0  0  0  0  0  0  0  0  0  0  0
  -22.2330  -16.3340   12.4690 C   0  0  0  0  0  0  0  0  0  0  0  0
  -21.3010  -15.7440   11.7060 N   0  0  0  0  0  0  0  0  0  0  0  0
  -22.5720  -15.7870   13.7020 C   0  0  0  0  0  0  0  0  0  0  0  0
  -21.9360  -14.6250   14.1170 C   0  0  0  0  0  0  0  0  0  0  0  0
  -20.9790  -14.0350   13.3050 C   0  0  0  0  0  0  0  0  0  0  0  0
  -20.6880  -14.6160   12.0780 C   0  0  0  0  0  0  0  0  0  0  0  0
  -19.7270  -14.0760   11.2350 C   0  0  0  0  0  0  0  0  0  0  0  0
  -19.7100  -14.4340    9.8940 C   0  0  0  0  0  0  0  0  0  0  0  0
  -18.7240  -13.9080    9.0510 C   0  0  0  0  0  0  0  0  0  0  0  0
  -17.7600  -13.0300    9.5480 C   0  0  0  0  0  0  0  0  0  0  0  0
  -16.6920  -12.4660    8.6270 C   0  0  0  0  0  0  0  0  0  0  0  0
  -15.4140  -12.2290    9.4150 C   0  0  0  0  0  0  0  0  0  0  0  0
  -15.6780  -11.1900   10.4980 C   0  0  0  0  0  0  0  0  0  0  0  0
  -18.7560  -13.2060   11.7310 C   0  0  0  0  0  0  0  0  0  0  0  0
  -17.7780  -12.6820   10.8910 C   0  0  0  0  0  0  0  0  0  0  0  0
  -16.7280  -11.7470   11.4270 C   0  0  0  0  0  0  0  0  0  0  0  0
  -16.7190  -11.3670   12.6320 N   0  0  0  0  0  0  0  0  0  0  0  0
  -15.8020  -10.5270   13.0920 N   0  0  0  0  0  0  0  0  0  0  0  0
  -16.1430   -9.6960   14.1150 C   0  0  0  0  0  0  0  0  0  0  0  0
  -17.7920   -9.5270   14.6760 S   0  0  0  0  0  0  0  0  0  0  0  0
  -17.1130   -8.4180   15.7620 C   0  0  0  0  0  0  0  0  0  0  0  0
  -17.9020   -7.7620   16.6920 C   0  0  0  0  0  0  0  0  0  0  0  0
  -17.3240   -6.8540   17.5720 C   0  0  0  0  0  0  0  0  0  0  0  0
  -15.2020   -8.9320   14.7090 N   0  0  0  0  0  0  0  0  0  0  0  0
  -15.7460   -8.1770   15.7040 C   0  0  0  0  0  0  0  0  0  0  0  0
  -15.1670   -7.2720   16.5940 C   0  0  0  0  0  0  0  0  0  0  0  0
  -15.9540   -6.6080   17.5240 C   0  0  0  0  0  0  0  0  0  0  0  0
  -22.6228  -18.7932   10.4728 H   0  0  0  0  0  0  0  0  0  0  0  0
  -23.3310  -16.2669   14.3373 H   0  0  0  0  0  0  0  0  0  0  0  0
  -22.1904  -14.1734   15.0872 H   0  0  0  0  0  0  0  0  0  0  0  0
  -20.4587  -13.1212   13.6279 H   0  0  0  0  0  0  0  0  0  0  0  0
  -20.4664  -15.1266    9.4963 H   0  0  0  0  0  0  0  0  0  0  0  0
  -18.7090  -14.1892    7.9877 H   0  0  0  0  0  0  0  0  0  0  0  0
  -16.4942  -13.1808    7.8146 H   0  0  0  0  0  0  0  0  0  0  0  0
  -17.0415  -11.5136    8.2018 H   0  0  0  0  0  0  0  0  0  0  0  0
  -15.0888  -13.1711    9.8805 H   0  0  0  0  0  0  0  0  0  0  0  0
  -14.6254  -11.8662    8.7394 H   0  0  0  0  0  0  0  0  0  0  0  0
  -14.7523  -10.9893   11.0573 H   0  0  0  0  0  0  0  0  0  0  0  0
  -16.0240  -10.2472   10.0491 H   0  0  0  0  0  0  0  0  0  0  0  0
  -18.7634  -12.9315   12.7962 H   0  0  0  0  0  0  0  0  0  0  0  0
  -14.8558  -10.5038   12.6857 H   0  0  0  0  0  0  0  0  0  0  0  0
  -18.9834   -7.9589   16.7344 H   0  0  0  0  0  0  0  0  0  0  0  0
  -17.9503   -6.3286   18.3080 H   0  0  0  0  0  0  0  0  0  0  0  0
  -14.0837   -7.0844   16.5583 H   0  0  0  0  0  0  0  0  0  0  0  0
  -15.4975   -5.8898   18.2210 H   0  0  0  0  0  0  0  0  0  0  0  0
  1  2  1  0
  2  3  2  0
  2  4  1  0
  4  5  2  0
  4  6  1  0
  5  9  1  0
  6  7  2  0
  7  8  1  0
  8  9  2  0
  9 10  1  0
 10 11  2  0
 10 17  1  0
 11 12  1  0
 12 13  2  0
 13 14  1  0
 13 18  1  0
 14 15  1  0
 15 16  1  0
 16 19  1  0
 17 18  2  0
 18 19  1  0
 19 20  2  0
 20 21  1  0
 21 22  1  0
 22 23  1  0
 22 27  2  0
 23 24  1  0
 24 25  2  0
 24 28  1  0
 25 26  1  0
 26 30  2  0
 27 28  1  0
 28 29  2  0
 29 30  1  0
  1 31  1  0
  6 32  1  0
  7 33  1  0
  8 34  1  0
 11 35  1  0
 12 36  1  0
 14 37  1  0
 14 38  1  0
 15 39  1  0
 15 40  1  0
 16 41  1  0
 16 42  1  0
 17 43  1  0
 21 44  1  0
 25 45  1  0
 26 46  1  0
 29 47  1  0
 30 48  1  0
A    1
O82
A    2
C28
A    3
O81
A    4
C24
A    5
N23
A    6
C25
A    7
C26
A    8
C27
A    9
C22
A   10
C19
A   11
C20
A   12
C21
A   13
C16
A   14
C15
A   15
C14
A   16
C13
A   17
C18
A   18
C17
A   19
C12
A   20
N11
A   21
N10
A   22
C8
A   23
S9
A   24
C4
A   25
C3
A   26
C2
A   27
N7
A   28
C5
A   29
C6
A   30
C1
M  END
