3ZLO_X8U_A_1198
     RDKit          3D

 67 72  0  0  0  0  0  0  0  0999 V2000
    8.7650  -31.1510    6.8190 O   0  0  0  0  0  0  0  0  0  0  0  0
    9.3840  -32.2090    6.5020 C   0  0  0  0  0  0  0  0  0  0  0  0
    8.9180  -32.9600    5.6190 O   0  0  0  0  0  0  0  0  0  0  0  0
   10.6860  -32.6750    7.1060 C   0  0  0  0  0  0  0  0  0  0  0  0
   11.2810  -33.8560    6.7660 N   0  0  0  0  0  0  0  0  0  0  0  0
   11.4020  -31.9310    8.0640 C   0  0  0  0  0  0  0  0  0  0  0  0
   11.0520  -30.6070    8.6790 C   0  0  0  0  0  0  0  0  0  0  0  0
   10.6100  -30.8470   10.1190 C   0  0  0  0  0  0  0  0  0  0  0  0
    9.9610  -29.5800   10.6550 C   0  0  0  0  0  0  0  0  0  0  0  0
   10.9550  -28.4360   10.5340 C   0  0  0  0  0  0  0  0  0  0  0  0
   10.4910  -27.1580   11.2200 C   0  0  0  0  0  0  0  0  0  0  0  0
   10.4450  -27.0840   12.6120 C   0  0  0  0  0  0  0  0  0  0  0  0
   10.0160  -25.9030   13.2200 C   0  0  0  0  0  0  0  0  0  0  0  0
    9.6510  -24.8010   12.4500 C   0  0  0  0  0  0  0  0  0  0  0  0
    9.7000  -24.8720   11.0590 C   0  0  0  0  0  0  0  0  0  0  0  0
   10.1220  -26.0540   10.4490 C   0  0  0  0  0  0  0  0  0  0  0  0
   12.8500  -32.7850    8.5250 S   0  0  0  0  0  0  0  0  0  0  0  0
   12.4450  -34.0800    7.4360 C   0  0  0  0  0  0  0  0  0  0  0  0
   13.4040  -35.1170    7.1980 C   0  0  0  0  0  0  0  0  0  0  0  0
   13.3440  -35.8120    6.0040 C   0  0  0  0  0  0  0  0  0  0  0  0
   14.2550  -36.8280    5.7420 C   0  0  0  0  0  0  0  0  0  0  0  0
   15.2420  -37.1510    6.6620 C   0  0  0  0  0  0  0  0  0  0  0  0
   16.2260  -38.2580    6.3250 C   0  0  0  0  0  0  0  0  0  0  0  0
   16.6510  -39.0450    7.5620 C   0  0  0  0  0  0  0  0  0  0  0  0
   17.1500  -38.1490    8.6900 C   0  0  0  0  0  0  0  0  0  0  0  0
   14.3980  -35.4330    8.1310 C   0  0  0  0  0  0  0  0  0  0  0  0
   15.3120  -36.4630    7.8690 C   0  0  0  0  0  0  0  0  0  0  0  0
   16.4220  -36.8230    8.8110 C   0  0  0  0  0  0  0  0  0  0  0  0
   16.8080  -36.0010    9.6820 N   0  0  0  0  0  0  0  0  0  0  0  0
   17.8100  -36.2560   10.5090 N   0  0  0  0  0  0  0  0  0  0  0  0
   18.3820  -35.2210   11.1660 C   0  0  0  0  0  0  0  0  0  0  0  0
   17.9650  -33.5530   10.8620 S   0  0  0  0  0  0  0  0  0  0  0  0
   19.0920  -33.1100   12.0460 C   0  0  0  0  0  0  0  0  0  0  0  0
   19.4150  -31.8270   12.4790 C   0  0  0  0  0  0  0  0  0  0  0  0
   20.3710  -31.6950   13.4820 C   0  0  0  0  0  0  0  0  0  0  0  0
   19.2590  -35.4410   12.0550 N   0  0  0  0  0  0  0  0  0  0  0  0
   19.7000  -34.2400   12.6000 C   0  0  0  0  0  0  0  0  0  0  0  0
   20.6560  -34.0870   13.6080 C   0  0  0  0  0  0  0  0  0  0  0  0
   20.9900  -32.8130   14.0440 C   0  0  0  0  0  0  0  0  0  0  0  0
    8.6314  -30.9226    7.7730 H   0  0  0  0  0  0  0  0  0  0  0  0
   11.9318  -29.9469    8.6655 H   0  0  0  0  0  0  0  0  0  0  0  0
   10.2417  -30.1282    8.1097 H   0  0  0  0  0  0  0  0  0  0  0  0
    9.8853  -31.6740   10.1495 H   0  0  0  0  0  0  0  0  0  0  0  0
   11.4817  -31.1083   10.7369 H   0  0  0  0  0  0  0  0  0  0  0  0
    9.0585  -29.3500   10.0697 H   0  0  0  0  0  0  0  0  0  0  0  0
    9.6769  -29.7205   11.7083 H   0  0  0  0  0  0  0  0  0  0  0  0
   11.9060  -28.7505   10.9887 H   0  0  0  0  0  0  0  0  0  0  0  0
   11.0617  -28.2098    9.4628 H   0  0  0  0  0  0  0  0  0  0  0  0
   10.7437  -27.9475   13.2245 H   0  0  0  0  0  0  0  0  0  0  0  0
    9.9657  -25.8420   14.3172 H   0  0  0  0  0  0  0  0  0  0  0  0
    9.3234  -23.8727   12.9409 H   0  0  0  0  0  0  0  0  0  0  0  0
    9.4089  -24.0049   10.4480 H   0  0  0  0  0  0  0  0  0  0  0  0
   10.1643  -26.1165    9.3516 H   0  0  0  0  0  0  0  0  0  0  0  0
   12.5737  -35.5601    5.2603 H   0  0  0  0  0  0  0  0  0  0  0  0
   14.1929  -37.3827    4.7941 H   0  0  0  0  0  0  0  0  0  0  0  0
   15.7527  -38.9480    5.6110 H   0  0  0  0  0  0  0  0  0  0  0  0
   17.1249  -37.7926    5.8944 H   0  0  0  0  0  0  0  0  0  0  0  0
   15.7872  -39.6205    7.9263 H   0  0  0  0  0  0  0  0  0  0  0  0
   17.4835  -39.7008    7.2673 H   0  0  0  0  0  0  0  0  0  0  0  0
   17.0319  -38.6933    9.6386 H   0  0  0  0  0  0  0  0  0  0  0  0
   18.1983  -37.9097    8.4582 H   0  0  0  0  0  0  0  0  0  0  0  0
   14.4624  -34.8706    9.0742 H   0  0  0  0  0  0  0  0  0  0  0  0
   18.1460  -37.2196   10.6488 H   0  0  0  0  0  0  0  0  0  0  0  0
   18.9287  -30.9429   12.0410 H   0  0  0  0  0  0  0  0  0  0  0  0
   20.6439  -30.6908   13.8386 H   0  0  0  0  0  0  0  0  0  0  0  0
   21.1397  -34.9696   14.0520 H   0  0  0  0  0  0  0  0  0  0  0  0
   21.7442  -32.6835   14.8342 H   0  0  0  0  0  0  0  0  0  0  0  0
  1  2  1  0
  2  3  2  0
  2  4  1  0
  4  5  1  0
  4  6  2  0
  5 18  2  0
  6  7  1  0
  6 17  1  0
  7  8  1  0
  8  9  1  0
  9 10  1  0
 10 11  1  0
 11 12  2  0
 11 16  1  0
 12 13  1  0
 13 14  2  0
 14 15  1  0
 15 16  2  0
 17 18  1  0
 18 19  1  0
 19 20  2  0
 19 26  1  0
 20 21  1  0
 21 22  2  0
 22 23  1  0
 22 27  1  0
 23 24  1  0
 24 25  1  0
 25 28  1  0
 26 27  2  0
 27 28  1  0
 28 29  2  0
 29 30  1  0
 30 31  1  0
 31 32  1  0
 31 36  2  0
 32 33  1  0
 33 34  2  0
 33 37  1  0
 34 35  1  0
 35 39  2  0
 36 37  1  0
 37 38  2  0
 38 39  1  0
  1 40  1  0
  7 41  1  0
  7 42  1  0
  8 43  1  0
  8 44  1  0
  9 45  1  0
  9 46  1  0
 10 47  1  0
 10 48  1  0
 12 49  1  0
 13 50  1  0
 14 51  1  0
 15 52  1  0
 16 53  1  0
 20 54  1  0
 21 55  1  0
 23 56  1  0
 23 57  1  0
 24 58  1  0
 24 59  1  0
 25 60  1  0
 25 61  1  0
 26 62  1  0
 30 63  1  0
 34 64  1  0
 35 65  1  0
 38 66  1  0
 39 67  1  0
A    1
O2
A    2
C20
A    3
O1
A    4
C19
A    5
N4
A    6
C21
A    7
C22
A    8
C23
A    9
C24
A   10
C25
A   11
C26
A   12
C31
A   13
C30
A   14
C29
A   15
C28
A   16
C27
A   17
S2
A   18
C18
A   19
C15
A   20
C16
A   21
C17
A   22
C12
A   23
C11
A   24
C10
A   25
C9
A   26
C14
A   27
C13
A   28
C8
A   29
N3
A   30
N2
A   31
C7
A   32
S1
A   33
C4
A   34
C3
A   35
C2
A   36
N1
A   37
C5
A   38
C6
A   39
C1
M  END
