3ZLX_5EZ_A_1383
     RDKit          3D

 34 36  0  0  0  0  0  0  0  0999 V2000
  -14.1690   23.0800   -4.4850 N   0  0  0  0  0  0  0  0  0  0  0  0
  -15.4140   23.9130   -4.5070 C   0  0  0  0  0  0  0  0  0  0  0  0
  -13.0530   24.0640   -4.3720 C   0  0  0  0  0  0  0  0  0  0  0  0
  -15.1250   25.0650   -3.5010 C   0  0  0  0  0  0  0  0  0  0  0  0
  -13.6420   25.3560   -3.7290 C   0  0  0  0  0  0  0  0  0  0  0  0
  -15.9810   26.2860   -3.7710 C   0  0  0  0  0  0  0  0  0  0  0  0
  -17.2070   25.9850   -3.0950 O   0  0  0  0  0  0  0  0  0  0  0  0
  -20.8020   26.9370   -2.8900 C   0  0  0  0  0  0  0  0  0  0  0  0
  -19.5430   26.1450   -2.7100 C   0  0  0  0  0  0  0  0  0  0  0  0
  -18.3750   26.7320   -3.4670 C   0  0  0  0  0  0  0  0  0  0  0  0
  -18.2270   28.1830   -3.1140 C   0  0  0  0  0  0  0  0  0  0  0  0
  -20.6990   28.2640   -2.9350 C   0  0  0  0  0  0  0  0  0  0  0  0
  -19.3650   28.9500   -2.9700 C   0  0  0  0  0  0  0  0  0  0  0  0
  -19.3280   30.3680   -2.7360 C   0  0  0  0  0  0  0  0  0  0  0  0
  -20.4720   31.0810   -2.6400 C   0  0  0  0  0  0  0  0  0  0  0  0
  -21.7660   30.5260   -2.7670 N   0  0  0  0  0  0  0  0  0  0  0  0
  -21.9410   29.1280   -3.0660 C   0  0  0  0  0  0  0  0  0  0  0  0
  -22.9780   28.5220   -2.4240 O   0  0  0  0  0  0  0  0  0  0  0  0
  -19.8050   24.4160   -3.2950 Cl  0  0  0  0  0  0  0  0  0  0  0  0
  -14.1735   22.4423   -3.6762 H   0  0  0  0  0  0  0  0  0  0  0  0
  -15.5972   24.3131   -5.5152 H   0  0  0  0  0  0  0  0  0  0  0  0
  -16.3105   23.3353   -4.2376 H   0  0  0  0  0  0  0  0  0  0  0  0
  -12.2541   23.6564   -3.7351 H   0  0  0  0  0  0  0  0  0  0  0  0
  -12.6218   24.2810   -5.3604 H   0  0  0  0  0  0  0  0  0  0  0  0
  -15.3596   24.7917   -2.4616 H   0  0  0  0  0  0  0  0  0  0  0  0
  -13.1419   25.5711   -2.7731 H   0  0  0  0  0  0  0  0  0  0  0  0
  -13.4951   26.2343   -4.3747 H   0  0  0  0  0  0  0  0  0  0  0  0
  -15.5155   27.1928   -3.3576 H   0  0  0  0  0  0  0  0  0  0  0  0
  -16.1190   26.4862   -4.8438 H   0  0  0  0  0  0  0  0  0  0  0  0
  -21.7786   26.4391   -2.9819 H   0  0  0  0  0  0  0  0  0  0  0  0
  -17.2304   28.6267   -2.9727 H   0  0  0  0  0  0  0  0  0  0  0  0
  -18.3586   30.8778   -2.6341 H   0  0  0  0  0  0  0  0  0  0  0  0
  -20.3912   32.1616   -2.4511 H   0  0  0  0  0  0  0  0  0  0  0  0
  -22.5927   31.1280   -2.6444 H   0  0  0  0  0  0  0  0  0  0  0  0
  1  2  1  0
  1  3  1  0
  2  4  1  0
  3  5  1  0
  4  5  1  0
  4  6  1  0
  6  7  1  0
  7 10  1  0
  8  9  2  0
  8 12  1  0
  9 10  1  0
  9 19  1  0
 10 11  2  0
 11 13  1  0
 12 13  2  0
 12 17  1  0
 13 14  1  0
 14 15  2  0
 15 16  1  0
 16 17  1  0
 17 18  2  0
  1 20  1  0
  2 21  1  0
  2 22  1  0
  3 23  1  0
  3 24  1  0
  4 25  1  0
  5 26  1  0
  5 27  1  0
  6 28  1  0
  6 29  1  0
  8 30  1  0
 11 31  1  0
 14 32  1  0
 15 33  1  0
 16 34  1  0
A    1
N1
A    2
C2
A    3
C3
A    4
C4
A    5
C5
A    6
C6
A    7
O7
A    8
C8
A    9
C9
A   10
C11
A   11
C13
A   12
C14
A   13
C15
A   14
C16
A   15
C17
A   16
N18
A   17
C19
A   18
O21
A   19
CL2
M  END
