3ZM4_22T_A_1383
     RDKit          3D

 31 33  0  0  0  0  0  0  0  0999 V2000
  -19.0190   25.2900   -3.2610 Cl  0  0  0  0  0  0  0  0  0  0  0  0
  -19.1530   27.0080   -3.0440 C   0  0  0  0  0  0  0  0  0  0  0  0
  -20.4100   27.5660   -2.9160 C   0  0  0  0  0  0  0  0  0  0  0  0
  -20.5510   28.9490   -2.8100 C   0  0  0  0  0  0  0  0  0  0  0  0
  -21.8970   29.5390   -2.7600 C   0  0  0  0  0  0  0  0  0  0  0  0
  -22.9180   28.8770   -2.6270 O   0  0  0  0  0  0  0  0  0  0  0  0
  -21.9360   30.9280   -2.7640 N   0  0  0  0  0  0  0  0  0  0  0  0
  -20.8210   31.7060   -2.7600 C   0  0  0  0  0  0  0  0  0  0  0  0
  -19.3930   29.7700   -2.8130 C   0  0  0  0  0  0  0  0  0  0  0  0
  -18.1330   29.1770   -2.9160 C   0  0  0  0  0  0  0  0  0  0  0  0
  -18.0050   27.8000   -3.0320 C   0  0  0  0  0  0  0  0  0  0  0  0
  -16.8080   27.1270   -3.1150 O   0  0  0  0  0  0  0  0  0  0  0  0
  -15.5420   27.8730   -3.1080 C   0  0  0  0  0  0  0  0  0  0  0  0
  -15.1170   28.1720   -4.5800 C   0  0  0  0  0  0  0  0  0  0  0  0
  -19.5480   31.2000   -2.7690 C   0  0  0  0  0  0  0  0  0  0  0  0
  -14.5230   26.8800   -2.5820 C   0  0  0  0  0  0  0  0  0  0  0  0
  -13.9880   26.1850   -3.8560 C   0  0  0  0  0  0  0  0  0  0  0  0
  -14.0970   27.1730   -4.9730 N   0  0  0  0  0  0  0  0  0  0  0  0
  -21.2997   26.9193   -2.8977 H   0  0  0  0  0  0  0  0  0  0  0  0
  -22.8558   31.3915   -2.7703 H   0  0  0  0  0  0  0  0  0  0  0  0
  -20.9477   32.7986   -2.7490 H   0  0  0  0  0  0  0  0  0  0  0  0
  -17.2321   29.8081   -2.9051 H   0  0  0  0  0  0  0  0  0  0  0  0
  -15.6212   28.8058   -2.5305 H   0  0  0  0  0  0  0  0  0  0  0  0
  -15.9906   28.0947   -5.2439 H   0  0  0  0  0  0  0  0  0  0  0  0
  -14.7067   29.1894   -4.6604 H   0  0  0  0  0  0  0  0  0  0  0  0
  -18.6724   31.8654   -2.7434 H   0  0  0  0  0  0  0  0  0  0  0  0
  -13.7119   27.3972   -2.0485 H   0  0  0  0  0  0  0  0  0  0  0  0
  -14.9555   26.1701   -1.8616 H   0  0  0  0  0  0  0  0  0  0  0  0
  -12.9377   25.8912   -3.7130 H   0  0  0  0  0  0  0  0  0  0  0  0
  -14.5660   25.2760   -4.0788 H   0  0  0  0  0  0  0  0  0  0  0  0
  -14.3864   26.6957   -5.8386 H   0  0  0  0  0  0  0  0  0  0  0  0
  1  2  1  0
  2  3  2  0
  2 11  1  0
  3  4  1  0
  4  5  1  0
  4  9  2  0
  5  6  2  0
  5  7  1  0
  7  8  1  0
  8 15  2  0
  9 10  1  0
  9 15  1  0
 10 11  2  0
 11 12  1  0
 12 13  1  0
 13 14  1  0
 13 16  1  0
 14 18  1  0
 16 17  1  0
 17 18  1  0
  3 19  1  0
  7 20  1  0
  8 21  1  0
 10 22  1  0
 13 23  1  0
 14 24  1  0
 14 25  1  0
 15 26  1  0
 16 27  1  0
 16 28  1  0
 17 29  1  0
 17 30  1  0
 18 31  1  0
A    1
CL21
A    2
C14
A    3
C13
A    4
C10
A    5
C11
A    6
O13
A    7
N20
A    8
C12
A    9
C9
A   10
C8
A   11
C7
A   12
O9
A   13
C5
A   14
C6
A   15
C15
A   16
C4
A   17
C3
A   18
N1
M  END
