3ZME_QC5_A_1291
     RDKit          3D

 41 43  0  0  0  0  0  0  0  0999 V2000
   91.6350   93.0120  -43.9920 C   0  0  0  0  0  0  0  0  0  0  0  0
   91.0740   93.0000  -45.2980 C   0  0  0  0  0  0  0  0  0  0  0  0
   90.5380   94.2620  -45.5020 C   0  0  0  0  0  0  0  0  0  0  0  0
   90.7630   95.0070  -44.3140 N   0  0  0  0  0  0  0  0  0  0  0  0
   90.3740   96.3960  -44.0930 C   0  0  0  0  0  0  0  0  0  0  0  0
   91.6420   97.1880  -43.8670 C   0  0  0  0  0  0  0  0  0  0  0  0
   91.4090   98.6190  -44.0060 N   0  0  0  0  0  0  0  0  0  0  0  0
   90.6070   98.8890  -45.1580 C   0  0  0  0  0  0  0  0  0  0  0  0
   92.6840   99.3180  -44.1370 C   0  0  0  0  0  0  0  0  0  0  0  0
   91.4300   94.2490  -43.4150 N   0  0  0  0  0  0  0  0  0  0  0  0
   93.9410   90.9280  -42.0850 C   0  0  0  0  0  0  0  0  0  0  0  0
   92.8140   90.0910  -42.1410 C   0  0  0  0  0  0  0  0  0  0  0  0
   91.8110   90.7260  -42.8650 C   0  0  0  0  0  0  0  0  0  0  0  0
   92.3230   91.9820  -43.2550 N   0  0  0  0  0  0  0  0  0  0  0  0
   93.6400   92.1010  -42.7670 C   0  0  0  0  0  0  0  0  0  0  0  0
   90.9780   89.9080  -48.3210 C   0  0  0  0  0  0  0  0  0  0  0  0
   89.8940   90.7770  -48.1600 C   0  0  0  0  0  0  0  0  0  0  0  0
   89.9320   91.7710  -47.1760 C   0  0  0  0  0  0  0  0  0  0  0  0
   91.0450   91.8840  -46.3480 C   0  0  0  0  0  0  0  0  0  0  0  0
   92.1360   91.0190  -46.5220 C   0  0  0  0  0  0  0  0  0  0  0  0
   92.0970   90.0280  -47.5090 C   0  0  0  0  0  0  0  0  0  0  0  0
   90.9280   88.9650  -49.2660 F   0  0  0  0  0  0  0  0  0  0  0  0
   90.0337   94.6190  -46.4121 H   0  0  0  0  0  0  0  0  0  0  0  0
   89.8410   96.7823  -44.9743 H   0  0  0  0  0  0  0  0  0  0  0  0
   89.7033   96.4790  -43.2251 H   0  0  0  0  0  0  0  0  0  0  0  0
   92.0153   96.9834  -42.8527 H   0  0  0  0  0  0  0  0  0  0  0  0
   92.3792   96.8830  -44.6243 H   0  0  0  0  0  0  0  0  0  0  0  0
   89.6091   99.2249  -44.8395 H   0  0  0  0  0  0  0  0  0  0  0  0
   91.0839   99.6761  -45.7605 H   0  0  0  0  0  0  0  0  0  0  0  0
   90.5108   97.9737  -45.7605 H   0  0  0  0  0  0  0  0  0  0  0  0
   93.0858   99.5383  -43.1370 H   0  0  0  0  0  0  0  0  0  0  0  0
   93.3952   98.6836  -44.6864 H   0  0  0  0  0  0  0  0  0  0  0  0
   92.5317  100.2587  -44.6864 H   0  0  0  0  0  0  0  0  0  0  0  0
   94.8946   90.6956  -41.5884 H   0  0  0  0  0  0  0  0  0  0  0  0
   92.7373   89.0929  -41.6850 H   0  0  0  0  0  0  0  0  0  0  0  0
   90.8112   90.3264  -43.0903 H   0  0  0  0  0  0  0  0  0  0  0  0
   94.3078   92.9647  -42.9014 H   0  0  0  0  0  0  0  0  0  0  0  0
   89.0104   90.6789  -48.8078 H   0  0  0  0  0  0  0  0  0  0  0  0
   89.0841   92.4616  -47.0571 H   0  0  0  0  0  0  0  0  0  0  0  0
   93.0241   91.1202  -45.8809 H   0  0  0  0  0  0  0  0  0  0  0  0
   92.9503   89.3464  -47.6409 H   0  0  0  0  0  0  0  0  0  0  0  0
  1  2  1  0
  1 10  2  0
  1 14  1  0
  2  3  2  0
  2 19  1  0
  3  4  1  0
  4  5  1  0
  4 10  1  0
  5  6  1  0
  6  7  1  0
  7  8  1  0
  7  9  1  0
 11 12  1  0
 11 15  2  0
 12 13  2  0
 13 14  1  0
 14 15  1  0
 16 17  2  0
 16 21  1  0
 16 22  1  0
 17 18  1  0
 18 19  2  0
 19 20  1  0
 20 21  2  0
  3 23  1  0
  5 24  1  0
  5 25  1  0
  6 26  1  0
  6 27  1  0
  8 28  1  0
  8 29  1  0
  8 30  1  0
  9 31  1  0
  9 32  1  0
  9 33  1  0
 11 34  1  0
 12 35  1  0
 13 36  1  0
 15 37  1  0
 17 38  1  0
 18 39  1  0
 20 40  1  0
 21 41  1  0
A    1
C1
A    2
C2
A    3
C3
A    4
N1
A    5
C4
A    6
C5
A    7
N2
A    8
C6
A    9
C7
A   10
N3
A   11
C8
A   12
C9
A   13
C10
A   14
N4
A   15
C11
A   16
C12
A   17
C13
A   18
C14
A   19
C15
A   20
C16
A   21
C17
A   22
F
M  END
