3ZNO_SE5_A_360
     RDKit          3D

 29 30  0  0  0  0  0  0  0  0999 V2000
   -7.0880  -22.7960  -50.7640 O   0  0  0  0  0  0  0  0  0  0  0  0
   -5.9690  -23.1910  -51.1590 C   0  0  0  0  0  0  0  0  0  0  0  0
   -5.8220  -23.7080  -52.2860 O   0  0  0  0  0  0  0  0  0  0  0  0
   -4.7780  -23.0530  -50.2730 C   0  0  0  0  0  0  0  0  0  0  0  0
   -4.7760  -22.6900  -48.9330 C   0  0  0  0  0  0  0  0  0  0  0  0
   -3.4560  -22.6920  -48.5100 C   0  0  0  0  0  0  0  0  0  0  0  0
   -2.9340  -22.3640  -47.1300 C   0  0  0  0  0  0  0  0  0  0  0  0
   -3.8060  -23.0020  -46.0490 C   0  0  0  0  0  0  0  0  0  0  0  0
   -3.8800  -24.4990  -46.2440 C   0  0  0  0  0  0  0  0  0  0  0  0
   -2.7210  -25.2370  -46.4580 C   0  0  0  0  0  0  0  0  0  0  0  0
   -5.1140  -25.1400  -46.2080 C   0  0  0  0  0  0  0  0  0  0  0  0
   -5.1900  -26.5170  -46.3870 C   0  0  0  0  0  0  0  0  0  0  0  0
   -4.0290  -27.2520  -46.6010 C   0  0  0  0  0  0  0  0  0  0  0  0
   -2.6840  -23.0570  -49.6010 C   0  0  0  0  0  0  0  0  0  0  0  0
   -4.1210  -29.0280  -46.8340 Cl  0  0  0  0  0  0  0  0  0  0  0  0
   -2.7950  -26.6120  -46.6370 C   0  0  0  0  0  0  0  0  0  0  0  0
   -3.5100  -23.2680  -50.6500 N   0  0  0  0  0  0  0  0  0  0  0  0
   -7.2755  -22.7298  -49.7942 H   0  0  0  0  0  0  0  0  0  0  0  0
   -5.6572  -22.4464  -48.3213 H   0  0  0  0  0  0  0  0  0  0  0  0
   -1.9063  -22.7444  -47.0342 H   0  0  0  0  0  0  0  0  0  0  0  0
   -2.9544  -21.2722  -46.9978 H   0  0  0  0  0  0  0  0  0  0  0  0
   -3.3732  -22.7866  -45.0609 H   0  0  0  0  0  0  0  0  0  0  0  0
   -4.8210  -22.5836  -46.1177 H   0  0  0  0  0  0  0  0  0  0  0  0
   -1.7446  -24.7311  -46.4855 H   0  0  0  0  0  0  0  0  0  0  0  0
   -6.0310  -24.5569  -46.0377 H   0  0  0  0  0  0  0  0  0  0  0  0
   -6.1660  -27.0236  -46.3594 H   0  0  0  0  0  0  0  0  0  0  0  0
   -1.5887  -23.1577  -49.6117 H   0  0  0  0  0  0  0  0  0  0  0  0
   -1.8777  -27.1948  -46.8072 H   0  0  0  0  0  0  0  0  0  0  0  0
   -3.2108  -23.5506  -51.5942 H   0  0  0  0  0  0  0  0  0  0  0  0
  3  2  2  0
  2  1  1  0
  2  4  1  0
 17  4  1  0
 17 14  1  0
  4  5  2  0
 14  6  2  0
  5  6  1  0
  6  7  1  0
  7  8  1  0
 15 13  1  0
 16 13  1  0
 16 10  2  0
 13 12  2  0
 10  9  1  0
 12 11  1  0
  9 11  2  0
  9  8  1  0
  1 18  1  0
  5 19  1  0
  7 20  1  0
  7 21  1  0
  8 22  1  0
  8 23  1  0
 10 24  1  0
 11 25  1  0
 12 26  1  0
 14 27  1  0
 16 28  1  0
 17 29  1  0
A    1
O1
A    2
C1
A    3
O2
A    4
C2
A    5
C3
A    6
C4
A    7
C5
A    8
C6
A    9
C7
A   10
C8
A   11
C9
A   12
C10
A   13
C11
A   14
C12
A   15
CL1
A   16
C13
A   17
N1
M  END
