3ZNR_NU9_A_1000
     RDKit          3D

 57 61  0  0  0  0  0  0  0  0999 V2000
   -2.3520   -1.2290  -12.7580 F   0  0  0  0  0  0  0  0  0  0  0  0
   -3.5380   -1.5770  -12.2760 C   0  0  0  0  0  0  0  0  0  0  0  0
   -3.8520   -2.7950  -12.7110 F   0  0  0  0  0  0  0  0  0  0  0  0
   -3.5080   -1.5610  -10.9480 F   0  0  0  0  0  0  0  0  0  0  0  0
   -4.5600   -0.6010  -12.7360 C   0  0  0  0  0  0  0  0  0  0  0  0
   -5.7140   -0.9060  -13.3770 N   0  0  0  0  0  0  0  0  0  0  0  0
   -6.4170    0.2810  -13.6040 C   0  0  0  0  0  0  0  0  0  0  0  0
   -5.6580    1.3040  -13.1290 N   0  0  0  0  0  0  0  0  0  0  0  0
   -4.5130    0.7690  -12.5620 O   0  0  0  0  0  0  0  0  0  0  0  0
   -7.6150    0.3910  -14.3000 C   0  0  0  0  0  0  0  0  0  0  0  0
   -8.2790   -0.7610  -14.7530 C   0  0  0  0  0  0  0  0  0  0  0  0
   -9.4830   -0.6460  -15.4630 C   0  0  0  0  0  0  0  0  0  0  0  0
  -10.0330    0.6130  -15.7250 C   0  0  0  0  0  0  0  0  0  0  0  0
   -9.3760    1.7610  -15.2680 C   0  0  0  0  0  0  0  0  0  0  0  0
   -8.1670    1.6530  -14.5690 C   0  0  0  0  0  0  0  0  0  0  0  0
   -9.9300    3.1120  -15.5560 C   0  0  0  0  0  0  0  0  0  0  0  0
  -11.0670    3.4290  -15.2390 O   0  0  0  0  0  0  0  0  0  0  0  0
   -9.0430    3.9960  -16.2380 N   0  0  0  0  0  0  0  0  0  0  0  0
   -9.3750    5.3410  -16.6240 C   0  0  0  0  0  0  0  0  0  0  0  0
   -8.6790    5.9040  -17.8860 C   0  0  0  0  0  0  0  0  0  0  0  0
   -9.3620    7.2260  -18.1040 C   0  0  0  0  0  0  0  0  0  0  0  0
   -9.1840    7.7470  -19.5350 C   0  0  0  0  0  0  0  0  0  0  0  0
   -8.4900    6.8350  -20.4010 O   0  0  0  0  0  0  0  0  0  0  0  0
   -8.9880    5.4860  -20.3600 C   0  0  0  0  0  0  0  0  0  0  0  0
   -9.0510    4.9000  -18.9430 C   0  0  0  0  0  0  0  0  0  0  0  0
   -7.2350    5.9110  -17.4560 C   0  0  0  0  0  0  0  0  0  0  0  0
   -6.4450    4.6980  -17.1390 N   0  0  0  0  0  0  0  0  0  0  0  0
   -4.9450    5.1260  -16.6630 C   0  0  0  0  0  0  0  0  0  0  0  0
   -4.8640    6.5640  -16.7600 C   0  0  0  0  0  0  0  0  0  0  0  0
   -6.2920    7.1180  -17.2710 S   0  0  0  0  0  0  0  0  0  0  0  0
   -3.9610    4.2280  -16.2570 C   0  0  0  0  0  0  0  0  0  0  0  0
   -4.3380    2.9560  -15.7960 C   0  0  0  0  0  0  0  0  0  0  0  0
   -3.3670    2.0370  -15.3820 C   0  0  0  0  0  0  0  0  0  0  0  0
   -2.0080    2.3810  -15.4260 C   0  0  0  0  0  0  0  0  0  0  0  0
   -1.6280    3.6470  -15.8850 C   0  0  0  0  0  0  0  0  0  0  0  0
   -2.6000    4.5650  -16.3000 C   0  0  0  0  0  0  0  0  0  0  0  0
   -7.8539   -1.7551  -14.5505 H   0  0  0  0  0  0  0  0  0  0  0  0
   -9.9980   -1.5516  -15.8160 H   0  0  0  0  0  0  0  0  0  0  0  0
  -10.9751    0.7002  -16.2862 H   0  0  0  0  0  0  0  0  0  0  0  0
   -7.6479    2.5614  -14.2294 H   0  0  0  0  0  0  0  0  0  0  0  0
   -8.1017    3.6480  -16.4696 H   0  0  0  0  0  0  0  0  0  0  0  0
  -10.4602    5.3769  -16.8001 H   0  0  0  0  0  0  0  0  0  0  0  0
   -9.0172    5.9712  -15.7965 H   0  0  0  0  0  0  0  0  0  0  0  0
  -10.4368    7.1057  -17.9030 H   0  0  0  0  0  0  0  0  0  0  0  0
   -8.9036    7.9569  -17.4216 H   0  0  0  0  0  0  0  0  0  0  0  0
  -10.1799    7.9397  -19.9605 H   0  0  0  0  0  0  0  0  0  0  0  0
   -8.5707    8.6579  -19.4708 H   0  0  0  0  0  0  0  0  0  0  0  0
  -10.0019    5.4760  -20.7864 H   0  0  0  0  0  0  0  0  0  0  0  0
   -8.2871    4.8645  -20.9365 H   0  0  0  0  0  0  0  0  0  0  0  0
   -8.3558    4.0498  -18.8819 H   0  0  0  0  0  0  0  0  0  0  0  0
  -10.0893    4.5884  -18.7566 H   0  0  0  0  0  0  0  0  0  0  0  0
   -3.9811    7.1770  -16.5260 H   0  0  0  0  0  0  0  0  0  0  0  0
   -5.4023    2.6805  -15.7601 H   0  0  0  0  0  0  0  0  0  0  0  0
   -3.6703    1.0430  -15.0214 H   0  0  0  0  0  0  0  0  0  0  0  0
   -1.2444    1.6589  -15.1012 H   0  0  0  0  0  0  0  0  0  0  0  0
   -0.5634    3.9215  -15.9198 H   0  0  0  0  0  0  0  0  0  0  0  0
   -2.2944    5.5576  -16.6624 H   0  0  0  0  0  0  0  0  0  0  0  0
  1  2  1  0
  2  3  1  0
  2  4  1  0
  2  5  1  0
  5  6  2  0
  5  9  1  0
  6  7  1  0
  7  8  2  0
  7 10  1  0
  8  9  1  0
 10 11  2  0
 10 15  1  0
 11 12  1  0
 12 13  2  0
 13 14  1  0
 14 15  2  0
 14 16  1  0
 16 17  2  0
 16 18  1  0
 18 19  1  0
 19 20  1  0
 20 21  1  0
 20 25  1  0
 20 26  1  0
 21 22  1  0
 22 23  1  0
 23 24  1  0
 24 25  1  0
 26 27  2  0
 26 30  1  0
 27 28  1  0
 28 29  2  0
 28 31  1  0
 29 30  1  0
 31 32  2  0
 31 36  1  0
 32 33  1  0
 33 34  2  0
 34 35  1  0
 35 36  2  0
 11 37  1  0
 12 38  1  0
 13 39  1  0
 15 40  1  0
 18 41  1  0
 19 42  1  0
 19 43  1  0
 21 44  1  0
 21 45  1  0
 22 46  1  0
 22 47  1  0
 24 48  1  0
 24 49  1  0
 25 50  1  0
 25 51  1  0
 29 52  1  0
 32 53  1  0
 33 54  1  0
 34 55  1  0
 35 56  1  0
 36 57  1  0
A    1
F01
A    2
C02
A    3
F03
A    4
F04
A    5
C05
A    6
N06
A    7
C07
A    8
N08
A    9
O09
A   10
C10
A   11
C11
A   12
C12
A   13
C13
A   14
C14
A   15
C15
A   16
C16
A   17
O17
A   18
N18
A   19
C19
A   20
C20
A   21
C21
A   22
C22
A   23
O23
A   24
C24
A   25
C25
A   26
C26
A   27
N27
A   28
C28
A   29
C29
A   30
S30
A   31
C31
A   32
C32
A   33
C33
A   34
C34
A   35
C35
A   36
C36
M  END
