3ZPR_3WC_A_500
     RDKit          3D

 34 36  0  0  0  0  0  0  0  0999 V2000
  -20.8840  -11.6040   25.0980 C   0  0  0  0  0  0  0  0  0  0  0  0
  -19.7670  -11.5410   25.9180 C   0  0  0  0  0  0  0  0  0  0  0  0
  -18.6570  -10.7940   25.5110 C   0  0  0  0  0  0  0  0  0  0  0  0
  -23.9000  -13.6810   24.7880 C   0  0  0  0  0  0  0  0  0  0  0  0
  -25.3020  -13.2080   24.9700 C   0  0  0  0  0  0  0  0  0  0  0  0
  -25.6890  -12.3590   23.8230 N   0  0  0  0  0  0  0  0  0  0  0  0
  -24.9860  -11.0540   23.8680 C   0  0  0  0  0  0  0  0  0  0  0  0
  -23.4840  -11.3530   23.7870 C   0  0  0  0  0  0  0  0  0  0  0  0
  -21.9920  -12.3470   25.5080 C   0  0  0  0  0  0  0  0  0  0  0  0
  -18.7000  -12.2120   28.0030 C   0  0  0  0  0  0  0  0  0  0  0  0
  -20.9460  -12.9740   27.4960 C   0  0  0  0  0  0  0  0  0  0  0  0
  -23.0810  -12.4410   24.7280 N   0  0  0  0  0  0  0  0  0  0  0  0
  -21.0030  -13.6820   28.6990 C   0  0  0  0  0  0  0  0  0  0  0  0
  -19.9120  -13.6600   29.5730 C   0  0  0  0  0  0  0  0  0  0  0  0
  -22.0010  -13.0090   26.6890 N   0  0  0  0  0  0  0  0  0  0  0  0
  -19.7990  -12.2340   27.1350 C   0  0  0  0  0  0  0  0  0  0  0  0
  -18.7700  -12.9210   29.2190 C   0  0  0  0  0  0  0  0  0  0  0  0
  -20.8964  -11.0737   24.1343 H   0  0  0  0  0  0  0  0  0  0  0  0
  -18.1156  -10.4296   26.3965 H   0  0  0  0  0  0  0  0  0  0  0  0
  -17.9897  -11.4275   24.9082 H   0  0  0  0  0  0  0  0  0  0  0  0
  -18.9926   -9.9373   24.9082 H   0  0  0  0  0  0  0  0  0  0  0  0
  -23.5902  -14.3084   25.6368 H   0  0  0  0  0  0  0  0  0  0  0  0
  -23.7854  -14.2964   23.8835 H   0  0  0  0  0  0  0  0  0  0  0  0
  -25.9767  -14.0748   25.0286 H   0  0  0  0  0  0  0  0  0  0  0  0
  -25.3739  -12.6237   25.8992 H   0  0  0  0  0  0  0  0  0  0  0  0
  -25.4446  -12.8434   22.9475 H   0  0  0  0  0  0  0  0  0  0  0  0
  -25.2936  -10.4293   23.0165 H   0  0  0  0  0  0  0  0  0  0  0  0
  -25.2291  -10.5079   24.7914 H   0  0  0  0  0  0  0  0  0  0  0  0
  -23.2377  -11.6615   22.7603 H   0  0  0  0  0  0  0  0  0  0  0  0
  -22.9390  -10.4398   24.0683 H   0  0  0  0  0  0  0  0  0  0  0  0
  -17.7932  -11.6482   27.7388 H   0  0  0  0  0  0  0  0  0  0  0  0
  -21.9049  -14.2559   28.9582 H   0  0  0  0  0  0  0  0  0  0  0  0
  -19.9468  -14.2127   30.5234 H   0  0  0  0  0  0  0  0  0  0  0  0
  -17.9117  -12.8955   29.9065 H   0  0  0  0  0  0  0  0  0  0  0  0
  1  2  2  0
  1  9  1  0
  2  3  1  0
  2 16  1  0
  4  5  1  0
  4 12  1  0
  5  6  1  0
  6  7  1  0
  7  8  1  0
  8 12  1  0
  9 12  1  0
  9 15  2  0
 10 17  1  0
 10 16  2  0
 11 13  2  0
 11 15  1  0
 11 16  1  0
 13 14  1  0
 14 17  2  0
  1 18  1  0
  3 19  1  0
  3 20  1  0
  3 21  1  0
  4 22  1  0
  4 23  1  0
  5 24  1  0
  5 25  1  0
  6 26  1  0
  7 27  1  0
  7 28  1  0
  8 29  1  0
  8 30  1  0
 10 31  1  0
 13 32  1  0
 14 33  1  0
 17 34  1  0
A    1
C4
A    2
C5
A    3
C6
A    4
C8
A    5
C10
A    6
N12
A    7
C13
A    8
C15
A    9
C11
A   10
C20
A   11
C22
A   12
N10
A   13
C24
A   14
C26
A   15
N11
A   16
C2
A   17
C28
M  END
