2YDM_SLC_A_1626
     RDKit          3D

 27 27  0  0  0  0  0  0  0  0999 V2000
   12.9620   -8.3170  -21.7140 C   0  0  0  0  0  0  0  0  0  0  0  0
   11.8620   -8.6530  -21.3290 O   0  0  0  0  0  0  0  0  0  0  0  0
   13.9790   -8.1970  -20.6680 C   0  0  0  0  0  0  0  0  0  0  0  0
   15.2600   -8.2290  -20.9450 C   0  0  0  0  0  0  0  0  0  0  0  0
   13.5610   -8.1020  -19.2200 C   0  0  0  0  0  0  0  0  0  0  0  0
   13.7880   -6.2380  -18.6610 Se  0  0  0  0  0  2  0  0  0  0  0  0
   13.2500   -8.1130  -23.0170 N   0  0  0  0  0  0  0  0  0  0  0  0
   12.3260   -8.2580  -23.9570 C   0  0  0  0  0  0  0  0  0  0  0  0
   11.4960   -9.3140  -24.0970 C   0  0  0  0  0  0  0  0  0  0  0  0
   10.6740   -9.3950  -25.0330 O   0  0  0  0  0  0  0  0  0  0  0  0
   12.5120   -7.1560  -24.9390 C   0  0  0  0  0  0  0  0  0  0  0  0
   14.0340   -7.0490  -24.9080 C   0  0  0  0  0  0  0  0  0  0  0  0
   14.5170   -7.6820  -23.5970 C   0  0  0  0  0  0  0  0  0  0  0  0
   11.4890  -10.2190  -23.2480 O   0  0  0  0  0  0  0  0  0  0  0  0
   16.0000   -8.1362  -20.1365 H   0  0  0  0  0  0  0  0  0  0  0  0
   15.5948   -8.3486  -21.9860 H   0  0  0  0  0  0  0  0  0  0  0  0
   12.5076   -8.4003  -19.1130 H   0  0  0  0  0  0  0  0  0  0  0  0
   14.1726   -8.7703  -18.5961 H   0  0  0  0  0  0  0  0  0  0  0  0
   13.7972   -6.1628  -17.1629 H   0  0  0  0  0  0  0  0  0  0  0  0
   11.3126   -8.5911  -23.6887 H   0  0  0  0  0  0  0  0  0  0  0  0
   12.1396   -7.4284  -25.9376 H   0  0  0  0  0  0  0  0  0  0  0  0
   11.9714   -6.2261  -24.7087 H   0  0  0  0  0  0  0  0  0  0  0  0
   14.4653   -7.5866  -25.7653 H   0  0  0  0  0  0  0  0  0  0  0  0
   14.3485   -5.9966  -24.9676 H   0  0  0  0  0  0  0  0  0  0  0  0
   15.1878   -8.5339  -23.7821 H   0  0  0  0  0  0  0  0  0  0  0  0
   15.1049   -7.0085  -22.9562 H   0  0  0  0  0  0  0  0  0  0  0  0
   11.4907   -9.9934  -22.2840 H   0  0  0  0  0  0  0  0  0  0  0  0
 14  9  1  0
  9 10  2  0
  9  8  1  0
  8 11  1  0
  8  7  1  0
 11 12  1  0
 12 13  1  0
 13  7  1  0
  7  1  1  0
  1  2  2  0
  1  3  1  0
  3  4  2  3
  3  5  1  0
  5  6  1  0
  4 15  1  0
  4 16  1  0
  5 17  1  0
  5 18  1  0
  6 19  1  0
  8 20  1  0
 11 21  1  0
 11 22  1  0
 12 23  1  0
 12 24  1  0
 13 25  1  0
 13 26  1  0
 14 27  1  0
A    1
C4
A    2
O1
A    3
C2
A    4
C3
A    5
C1
A    6
SE
A    7
N
A    8
C8
A    9
C9
A   10
O3
A   11
C7
A   12
C6
A   13
C5
A   14
O2
M  END
