3ZRB_ORC_B_1000
     RDKit          3D

 47 49  0  0  0  0  0  0  0  0999 V2000
   15.8760    9.2380   22.2990 O   0  0  0  0  0  0  0  0  0  0  0  0
   16.5390    8.9850   23.5230 S   0  0  0  0  0  0  0  0  0  0  0  0
   17.6040    8.0530   23.6070 O   0  0  0  0  0  0  0  0  0  0  0  0
   15.3380    8.5460   24.7310 C   0  0  0  0  0  0  0  0  0  0  0  0
   15.6350    8.1380   26.0460 C   0  0  0  0  0  0  0  0  0  0  0  0
   17.0260    7.9530   26.5970 C   0  0  0  0  0  0  0  0  0  0  0  0
   14.4870    7.9500   26.6520 N   0  0  0  0  0  0  0  0  0  0  0  0
   13.5520    8.1820   25.9100 O   0  0  0  0  0  0  0  0  0  0  0  0
   13.9730    8.5740   24.6950 C   0  0  0  0  0  0  0  0  0  0  0  0
   13.0850    8.9600   23.5420 C   0  0  0  0  0  0  0  0  0  0  0  0
   17.1970   10.4380   23.9810 N   0  0  0  0  0  0  0  0  0  0  0  0
   16.2990   11.6030   24.0760 C   0  0  0  0  0  0  0  0  0  0  0  0
   17.1780   12.8260   24.3330 C   0  0  0  0  0  0  0  0  0  0  0  0
   15.2970   11.5380   25.2010 C   0  0  0  0  0  0  0  0  0  0  0  0
   13.9730   11.8810   24.9670 C   0  0  0  0  0  0  0  0  0  0  0  0
   13.0540   11.8250   26.0070 C   0  0  0  0  0  0  0  0  0  0  0  0
   15.6880   11.1660   26.4830 C   0  0  0  0  0  0  0  0  0  0  0  0
   14.7770   11.1080   27.5220 C   0  0  0  0  0  0  0  0  0  0  0  0
   13.4400   11.4240   27.2920 C   0  0  0  0  0  0  0  0  0  0  0  0
   12.4400   11.4060   28.4040 C   0  0  0  0  0  0  0  0  0  0  0  0
   12.5390   11.9930   29.6400 C   0  0  0  0  0  0  0  0  0  0  0  0
   13.7000   12.7590   30.2170 C   0  0  0  0  0  0  0  0  0  0  0  0
   11.3730   11.7700   30.2590 O   0  0  0  0  0  0  0  0  0  0  0  0
   10.6140   11.1320   29.5680 N   0  0  0  0  0  0  0  0  0  0  0  0
   11.1270   10.8440   28.4170 C   0  0  0  0  0  0  0  0  0  0  0  0
   10.4320   10.0690   27.3300 C   0  0  0  0  0  0  0  0  0  0  0  0
   16.9886    7.9580   27.6964 H   0  0  0  0  0  0  0  0  0  0  0  0
   17.4338    6.9927   26.2483 H   0  0  0  0  0  0  0  0  0  0  0  0
   17.6706    8.7733   26.2483 H   0  0  0  0  0  0  0  0  0  0  0  0
   12.1404    9.3706   23.9282 H   0  0  0  0  0  0  0  0  0  0  0  0
   13.5910    9.7194   22.9277 H   0  0  0  0  0  0  0  0  0  0  0  0
   12.8749    8.0720   22.9277 H   0  0  0  0  0  0  0  0  0  0  0  0
   17.6230   10.3028   24.9090 H   0  0  0  0  0  0  0  0  0  0  0  0
   15.7251   11.6394   23.1383 H   0  0  0  0  0  0  0  0  0  0  0  0
   17.2871   12.9778   25.4170 H   0  0  0  0  0  0  0  0  0  0  0  0
   18.1692   12.6662   23.8835 H   0  0  0  0  0  0  0  0  0  0  0  0
   16.7105   13.7145   23.8835 H   0  0  0  0  0  0  0  0  0  0  0  0
   13.6528   12.1957   23.9628 H   0  0  0  0  0  0  0  0  0  0  0  0
   12.0058   12.1001   25.8181 H   0  0  0  0  0  0  0  0  0  0  0  0
   16.7414   10.9132   26.6740 H   0  0  0  0  0  0  0  0  0  0  0  0
   15.1078   10.8127   28.5287 H   0  0  0  0  0  0  0  0  0  0  0  0
   13.6510   12.7267   31.3154 H   0  0  0  0  0  0  0  0  0  0  0  0
   14.6432   12.3053   29.8785 H   0  0  0  0  0  0  0  0  0  0  0  0
   13.6539   13.8046   29.8785 H   0  0  0  0  0  0  0  0  0  0  0  0
    9.7626    9.3226   27.7825 H   0  0  0  0  0  0  0  0  0  0  0  0
    9.8441   10.7586   26.7065 H   0  0  0  0  0  0  0  0  0  0  0  0
   11.1814    9.5594   26.7065 H   0  0  0  0  0  0  0  0  0  0  0  0
  1  2  2  0
  2  3  2  0
  2  4  1  0
  2 11  1  0
  4  5  1  0
  4  9  2  0
  5  6  1  0
  5  7  2  0
  7  8  1  0
  8  9  1  0
  9 10  1  0
 11 12  1  0
 12 13  1  0
 12 14  1  0
 14 15  2  0
 14 17  1  0
 15 16  1  0
 16 19  2  0
 17 18  2  0
 18 19  1  0
 19 20  1  0
 20 21  2  0
 20 25  1  0
 21 22  1  0
 21 23  1  0
 23 24  1  0
 24 25  2  0
 25 26  1  0
  6 27  1  0
  6 28  1  0
  6 29  1  0
 10 30  1  0
 10 31  1  0
 10 32  1  0
 11 33  1  0
 12 34  1  0
 13 35  1  0
 13 36  1  0
 13 37  1  0
 15 38  1  0
 16 39  1  0
 17 40  1  0
 18 41  1  0
 22 42  1  0
 22 43  1  0
 22 44  1  0
 26 45  1  0
 26 46  1  0
 26 47  1  0
A    1
O13
A    2
S10
A    3
O11
A    4
C12
A    5
C17
A    6
C19
A    7
N16
A    8
O15
A    9
C14
A   10
C18
A   11
N8
A   12
C7
A   13
C9
A   14
C5
A   15
C6
A   16
C1
A   17
C4
A   18
C3
A   19
C2
A   20
C20
A   21
C24
A   22
C26
A   23
O23
A   24
N22
A   25
C21
A   26
C25
M  END
