3ZRK_ZRK_A_1400
     RDKit          3D

 24 26  0  0  0  0  0  0  0  0999 V2000
  105.1820   21.9270  -10.2670 C   0  0  0  0  0  0  0  0  0  0  0  0
  105.2610   23.0400  -11.0100 C   0  0  0  0  0  0  0  0  0  0  0  0
  104.0910   23.8060  -11.0360 C   0  0  0  0  0  0  0  0  0  0  0  0
  102.9370   23.4740  -10.3700 C   0  0  0  0  0  0  0  0  0  0  0  0
  102.8510   22.2840   -9.5800 C   0  0  0  0  0  0  0  0  0  0  0  0
  101.8240   21.9760   -8.9870 O   0  0  0  0  0  0  0  0  0  0  0  0
  103.8940   24.9830  -11.7020 O   0  0  0  0  0  0  0  0  0  0  0  0
  102.6150   25.3850  -11.4500 C   0  0  0  0  0  0  0  0  0  0  0  0
  102.2020   26.6240  -12.0500 C   0  0  0  0  0  0  0  0  0  0  0  0
  103.0810   27.3790  -12.7980 C   0  0  0  0  0  0  0  0  0  0  0  0
  102.6320   28.5640  -13.3410 C   0  0  0  0  0  0  0  0  0  0  0  0
  101.9760   24.4800  -10.6270 C   0  0  0  0  0  0  0  0  0  0  0  0
  101.3890   29.0400  -13.1950 N   0  0  0  0  0  0  0  0  0  0  0  0
  100.5630   28.2830  -12.4640 C   0  0  0  0  0  0  0  0  0  0  0  0
  104.0400   21.5640   -9.5840 N   0  0  0  0  0  0  0  0  0  0  0  0
  100.9150   27.0860  -11.8770 C   0  0  0  0  0  0  0  0  0  0  0  0
  106.0656   21.2754  -10.1991 H   0  0  0  0  0  0  0  0  0  0  0  0
  106.1722   23.3276  -11.5551 H   0  0  0  0  0  0  0  0  0  0  0  0
  104.1163   27.0434  -12.9576 H   0  0  0  0  0  0  0  0  0  0  0  0
  103.3426   29.1584  -13.9340 H   0  0  0  0  0  0  0  0  0  0  0  0
  100.9431   24.5300  -10.2520 H   0  0  0  0  0  0  0  0  0  0  0  0
   99.5323   28.6399  -12.3214 H   0  0  0  0  0  0  0  0  0  0  0  0
  104.0706   20.6930   -9.0351 H   0  0  0  0  0  0  0  0  0  0  0  0
  100.1860   26.5134  -11.2847 H   0  0  0  0  0  0  0  0  0  0  0  0
  1  2  2  0
  1 15  1  0
  2  3  1  0
  3  4  2  0
  3  7  1  0
  4  5  1  0
  4 12  1  0
  5  6  2  0
  5 15  1  0
  7  8  1  0
  8  9  1  0
  8 12  2  0
  9 16  1  0
  9 10  2  0
 16 14  2  0
 14 13  1  0
 13 11  2  0
 11 10  1  0
  1 17  1  0
  2 18  1  0
 10 19  1  0
 11 20  1  0
 12 21  1  0
 14 22  1  0
 15 23  1  0
 16 24  1  0
A    1
C1
A    2
C2
A    3
C3
A    4
C4
A    5
C5
A    6
O8
A    7
O10
A    8
C11
A    9
C12
A   10
C17
A   11
C16
A   12
C9
A   13
N15
A   14
C14
A   15
N3
A   16
C13
M  END
