3ZRM_ZRM_A_1388
     RDKit          3D

 35 38  0  0  0  0  0  0  0  0999 V2000
  108.4140   21.0740  -11.7200 C   0  0  0  0  0  0  0  0  0  0  0  0
  108.3530   23.4530  -11.7750 C   0  0  0  0  0  0  0  0  0  0  0  0
  109.6950   21.0790  -12.2320 C   0  0  0  0  0  0  0  0  0  0  0  0
  109.6310   23.4750  -12.2950 C   0  0  0  0  0  0  0  0  0  0  0  0
  104.0540   27.0970  -12.9880 C   0  0  0  0  0  0  0  0  0  0  0  0
  101.9920   26.5690  -11.9280 C   0  0  0  0  0  0  0  0  0  0  0  0
  103.2510   24.1130  -10.8430 C   0  0  0  0  0  0  0  0  0  0  0  0
  103.4690   28.2740  -13.4050 C   0  0  0  0  0  0  0  0  0  0  0  0
  101.5010   27.7690  -12.4050 C   0  0  0  0  0  0  0  0  0  0  0  0
  103.2930   26.2270  -12.2310 C   0  0  0  0  0  0  0  0  0  0  0  0
  107.7310   22.2530  -11.4860 C   0  0  0  0  0  0  0  0  0  0  0  0
  104.1050   23.0400  -10.4930 C   0  0  0  0  0  0  0  0  0  0  0  0
  110.2940   22.2840  -12.5150 C   0  0  0  0  0  0  0  0  0  0  0  0
  103.8430   25.0030  -11.7150 C   0  0  0  0  0  0  0  0  0  0  0  0
  105.3400   23.1230  -11.0930 C   0  0  0  0  0  0  0  0  0  0  0  0
  106.0750   21.2160  -10.0860 C   0  0  0  0  0  0  0  0  0  0  0  0
  106.3830   22.2160  -10.9190 C   0  0  0  0  0  0  0  0  0  0  0  0
  103.7990   21.9620   -9.6030 C   0  0  0  0  0  0  0  0  0  0  0  0
  102.2090   28.6420  -13.1320 N   0  0  0  0  0  0  0  0  0  0  0  0
  104.8520   21.0810   -9.4680 N   0  0  0  0  0  0  0  0  0  0  0  0
  102.7090   21.8670   -9.0520 O   0  0  0  0  0  0  0  0  0  0  0  0
  111.5720   22.2830  -13.0310 O   0  0  0  0  0  0  0  0  0  0  0  0
  105.4480   24.5050  -12.1080 S   0  0  0  0  0  0  0  0  0  0  0  0
  107.9269   20.1140  -11.4937 H   0  0  0  0  0  0  0  0  0  0  0  0
  107.8243   24.3994  -11.5887 H   0  0  0  0  0  0  0  0  0  0  0  0
  110.2288   20.1340  -12.4110 H   0  0  0  0  0  0  0  0  0  0  0  0
  110.1172   24.4328  -12.5321 H   0  0  0  0  0  0  0  0  0  0  0  0
  105.0952   26.8579  -13.2501 H   0  0  0  0  0  0  0  0  0  0  0  0
  101.3607   25.9029  -11.3215 H   0  0  0  0  0  0  0  0  0  0  0  0
  102.2256   24.2252  -10.4608 H   0  0  0  0  0  0  0  0  0  0  0  0
  104.0815   28.9620  -14.0062 H   0  0  0  0  0  0  0  0  0  0  0  0
  100.4569   28.0246  -12.1714 H   0  0  0  0  0  0  0  0  0  0  0  0
  106.8442   20.4565   -9.8826 H   0  0  0  0  0  0  0  0  0  0  0  0
  104.7130   20.2614   -8.8598 H   0  0  0  0  0  0  0  0  0  0  0  0
  112.3520   22.2824  -12.4213 H   0  0  0  0  0  0  0  0  0  0  0  0
  1  3  2  0
  1 11  1  0
  2  4  1  0
  2 11  2  0
  3 13  1  0
  4 13  2  0
  5  8  2  0
  5 10  1  0
  6  9  1  0
  6 10  2  0
  7 12  1  0
  7 14  2  0
  8 19  1  0
  9 19  2  0
 10 14  1  0
 11 17  1  0
 12 15  2  0
 12 18  1  0
 13 22  1  0
 14 23  1  0
 15 17  1  0
 15 23  1  0
 16 17  2  0
 16 20  1  0
 18 20  1  0
 18 21  2  0
  1 24  1  0
  2 25  1  0
  3 26  1  0
  4 27  1  0
  5 28  1  0
  6 29  1  0
  7 30  1  0
  8 31  1  0
  9 32  1  0
 16 33  1  0
 20 34  1  0
 22 35  1  0
A    1
C4
A    2
C6
A    3
C3
A    4
C7
A    5
C19
A    6
C23
A    7
C14
A    8
C20
A    9
C22
A   10
C18
A   11
C5
A   12
C13
A   13
C2
A   14
C15
A   15
C17
A   16
C9
A   17
C8
A   18
C11
A   19
N21
A   20
N10
A   21
O12
A   22
O1
A   23
S16
M  END
