1OX5_1PR_A_991
     RDKit          3D

 66 67  0  0  0  0  0  0  0  0999 V2000
   88.2040    7.3750   14.2630 O   0  0  0  0  0  0  0  0  0  0  0  0
   87.9690    6.8470   11.8370 O   0  0  0  0  0  0  0  0  0  0  0  0
   87.8350    5.0670   13.5530 O   0  0  0  0  0  0  0  0  0  0  0  0
   85.9080    6.6500   13.2770 O   0  0  0  0  0  0  0  0  0  0  0  0
   85.2720    7.5220   14.2010 C   0  0  0  0  0  0  0  0  0  0  0  0
   84.0790    6.8990   14.8790 C   0  0  0  0  0  0  0  0  0  0  0  0
   82.9480    6.8110   13.9470 O   0  0  0  0  0  0  0  0  0  0  0  0
   84.1870    5.4530   15.3700 C   0  0  0  0  0  0  0  0  0  0  0  0
   84.7430    5.3740   16.4860 O   0  0  0  0  0  0  0  0  0  0  0  0
   82.7760    4.9310   15.3390 C   0  0  0  0  0  0  0  0  0  0  0  0
   82.0370    5.0620   16.5270 O   0  0  0  0  0  0  0  0  0  0  0  0
   82.1410    5.6670   14.1890 C   0  0  0  0  0  0  0  0  0  0  0  0
   82.0400    4.7890   13.0010 N   0  0  0  0  0  0  0  0  0  0  0  0
   83.0230    4.5940   12.0500 C   0  0  0  0  0  0  0  0  0  0  0  0
   82.6950    3.7820   11.0990 N   0  0  0  0  0  0  0  0  0  0  0  0
   81.4310    3.3800   11.3820 C   0  0  0  0  0  0  0  0  0  0  0  0
   80.5980    2.4800   10.6320 C   0  0  0  0  0  0  0  0  0  0  0  0
   79.4290    2.0970   10.8740 O   0  0  0  0  0  0  0  0  0  0  0  0
   81.2600    2.0070    9.4920 N   0  0  0  0  0  0  0  0  0  0  0  0
   79.6100    3.7310   13.1280 N   0  0  0  0  0  0  0  0  0  0  0  0
   80.9590    3.9830   12.5680 C   0  0  0  0  0  0  0  0  0  0  0  0
   79.0210    4.2260   14.2180 C   0  0  0  0  0  0  0  0  0  0  0  0
   78.1340    3.5850   16.5010 C   0  0  0  0  0  0  0  0  0  0  0  0
   77.5860    4.9740   16.8920 C   0  0  0  0  0  0  0  0  0  0  0  0
   76.0940    5.3320   16.6940 C   0  0  0  0  0  0  0  0  0  0  0  0
   75.2190    5.2790   17.9690 C   0  0  0  0  0  0  0  0  0  0  0  0
   73.7860    5.6730   17.5680 C   0  0  0  0  0  0  0  0  0  0  0  0
   78.7960    3.3380   15.1950 N   0  0  0  0  0  0  0  0  0  0  0  0
   78.3620    5.8310   17.3750 O   0  0  0  0  0  0  0  0  0  0  0  0
   76.0660    6.6450   16.1470 O   0  0  0  0  0  0  0  0  0  0  0  0
   75.3130    3.9570   18.4270 O   0  0  0  0  0  0  0  0  0  0  0  0
   72.9120    4.8280   18.0980 O   0  0  0  0  0  0  0  0  0  0  0  0
   71.4090    4.8630   17.9620 P   0  0  0  0  0  0  0  0  0  0  0  0
   70.9840    4.7990   16.4890 O   0  0  0  0  0  0  0  0  0  0  0  0
   70.9160    6.2220   18.6550 O   0  0  0  0  0  0  0  0  0  0  0  0
   71.0900    3.6360   18.8060 O   0  0  0  0  0  0  0  0  0  0  0  0
   87.5420    6.4980   13.2410 P   0  0  0  0  0  0  0  0  0  0  0  0
   87.9666    7.0605   15.1712 H   0  0  0  0  0  0  0  0  0  0  0  0
   88.7351    7.4731   11.8711 H   0  0  0  0  0  0  0  0  0  0  0  0
   86.0027    7.8080   14.9719 H   0  0  0  0  0  0  0  0  0  0  0  0
   84.9090    8.3917   13.6337 H   0  0  0  0  0  0  0  0  0  0  0  0
   83.9749    7.5691   15.7451 H   0  0  0  0  0  0  0  0  0  0  0  0
   84.8373    4.8359   14.7326 H   0  0  0  0  0  0  0  0  0  0  0  0
   84.0644    5.4704   17.2003 H   0  0  0  0  0  0  0  0  0  0  0  0
   82.7877    3.8377   15.2186 H   0  0  0  0  0  0  0  0  0  0  0  0
   82.6404    4.9550   17.3045 H   0  0  0  0  0  0  0  0  0  0  0  0
   81.1114    5.9760   14.4225 H   0  0  0  0  0  0  0  0  0  0  0  0
   84.0042    5.0890   12.0980 H   0  0  0  0  0  0  0  0  0  0  0  0
   82.0942    1.4110    9.5910 H   0  0  0  0  0  0  0  0  0  0  0  0
   80.9127    2.2552    8.5546 H   0  0  0  0  0  0  0  0  0  0  0  0
   79.0352    3.0674   12.5894 H   0  0  0  0  0  0  0  0  0  0  0  0
   79.6648    5.0212   14.6219 H   0  0  0  0  0  0  0  0  0  0  0  0
   78.0321    4.5843   13.8959 H   0  0  0  0  0  0  0  0  0  0  0  0
   78.8686    3.3153   17.2741 H   0  0  0  0  0  0  0  0  0  0  0  0
   77.2124    2.9917   16.4079 H   0  0  0  0  0  0  0  0  0  0  0  0
   77.8095    5.3466   15.8815 H   0  0  0  0  0  0  0  0  0  0  0  0
   75.6538    4.5690   16.0352 H   0  0  0  0  0  0  0  0  0  0  0  0
   75.5335    5.9668   18.7678 H   0  0  0  0  0  0  0  0  0  0  0  0
   73.5740    6.6896   17.9307 H   0  0  0  0  0  0  0  0  0  0  0  0
   73.6983    5.6386   16.4720 H   0  0  0  0  0  0  0  0  0  0  0  0
   78.2372    2.5946   14.7523 H   0  0  0  0  0  0  0  0  0  0  0  0
   78.3249    5.7900   18.3635 H   0  0  0  0  0  0  0  0  0  0  0  0
   76.0519    7.3084   16.8818 H   0  0  0  0  0  0  0  0  0  0  0  0
   75.3135    3.9500   19.4170 H   0  0  0  0  0  0  0  0  0  0  0  0
   70.9521    6.1225   19.6393 H   0  0  0  0  0  0  0  0  0  0  0  0
   71.1510    3.8707   19.7658 H   0  0  0  0  0  0  0  0  0  0  0  0
  1 37  1  0
  2 37  1  0
  3 37  2  0
  4  5  1  0
  4 37  1  0
  5  6  1  0
  6  7  1  0
  6  8  1  0
  7 12  1  0
  8  9  1  0
  8 10  1  0
 10 11  1  0
 10 12  1  0
 12 13  1  0
 13 14  1  0
 13 21  1  0
 14 15  2  0
 15 16  1  0
 16 17  1  0
 16 21  2  0
 17 18  2  0
 17 19  1  0
 20 21  1  0
 20 22  1  0
 22 28  1  0
 23 24  1  0
 23 28  1  0
 24 25  1  0
 24 29  1  0
 25 26  1  0
 25 30  1  0
 26 27  1  0
 26 31  1  0
 27 32  1  0
 32 33  1  0
 33 34  2  0
 33 35  1  0
 33 36  1  0
  1 38  1  0
  2 39  1  0
  5 40  1  0
  5 41  1  0
  6 42  1  0
  8 43  1  0
  9 44  1  0
 10 45  1  0
 11 46  1  0
 12 47  1  0
 14 48  1  0
 19 49  1  0
 19 50  1  0
 20 51  1  0
 22 52  1  0
 22 53  1  0
 23 54  1  0
 23 55  1  0
 24 56  1  0
 25 57  1  0
 26 58  1  0
 27 59  1  0
 27 60  1  0
 28 61  1  0
 29 62  1  0
 30 63  1  0
 31 64  1  0
 35 65  1  0
 36 66  1  0
A    1
O9'
A    2
O8'
A    3
O'1
A    4
O6'
A    5
C5'
A    6
C4'
A    7
O4'
A    8
C3'
A    9
O3'
A   10
C2'
A   11
O2'
A   12
C1'
A   13
N1
A   14
C2
A   15
N3
A   16
C4
A   17
C9
A   18
O9
A   19
N9
A   20
N6
A   21
C5
A   22
C7
A   23
C1B
A   24
C2B
A   25
C3B
A   26
C4B
A   27
C5B
A   28
N8
A   29
O2B
A   30
O3B
A   31
O4B
A   32
O6B
A   33
P7B
A   34
O'L
A   35
O8B
A   36
O9B
A   37
P7'
M  END
