2Y46_MIV_A_460
     RDKit          3D

110112  0  0  0  0  0  0  0  0999 V2000
  -14.3450    3.2740   56.6720 O   0  0  0  0  0  0  0  0  0  0  0  0
  -13.7820    3.3300   55.5800 C   0  0  0  0  0  0  0  0  0  0  0  0
  -14.1230    4.2930   54.4960 C   0  0  0  0  0  0  0  0  0  0  0  0
  -14.7000    5.4410   54.7890 C   0  0  0  0  0  0  0  0  0  0  0  0
  -14.9720    6.4400   53.7060 C   0  0  0  0  0  0  0  0  0  0  0  0
  -14.1410    7.6590   54.1340 C   0  0  0  0  0  0  0  0  0  0  0  0
  -16.4550    6.8630   53.5790 C   0  0  0  0  0  0  0  0  0  0  0  0
  -16.5880    7.7030   52.4130 O   0  0  0  0  0  0  0  0  0  0  0  0
  -16.8340    9.0820   52.7010 C   0  0  0  0  0  0  0  0  0  0  0  0
  -18.2430    9.2470   53.0110 O   0  0  0  0  0  0  0  0  0  0  0  0
  -18.6420   10.6320   53.1410 C   0  0  0  0  0  0  0  0  0  0  0  0
  -20.1260   10.6810   53.4560 C   0  0  0  0  0  0  0  0  0  0  0  0
  -18.2840   11.4650   51.9050 C   0  0  0  0  0  0  0  0  0  0  0  0
  -16.7730   11.3870   51.6610 C   0  0  0  0  0  0  0  0  0  0  0  0
  -16.3760   12.0410   50.3970 N   0  0  0  0  0  0  0  0  0  0  0  0
  -16.9680   11.4570   49.1920 C   0  0  0  0  0  0  0  0  0  0  0  0
  -16.2140   13.5020   50.4330 C   0  0  0  0  0  0  0  0  0  0  0  0
  -16.3580    9.9100   51.4970 C   0  0  0  0  0  0  0  0  0  0  0  0
  -14.9400    9.7640   51.2130 O   0  0  0  0  0  0  0  0  0  0  0  0
  -17.4500    5.6970   53.4170 C   0  0  0  0  0  0  0  0  0  0  0  0
  -18.8810    6.1850   53.6920 C   0  0  0  0  0  0  0  0  0  0  0  0
  -17.2780    5.0580   52.0200 C   0  0  0  0  0  0  0  0  0  0  0  0
  -18.2220    3.9180   51.6490 C   0  0  0  0  0  0  0  0  0  0  0  0
  -18.0510    3.5220   50.1810 C   0  0  0  0  0  0  0  0  0  0  0  0
  -17.9440    2.7140   52.5090 C   0  0  0  0  0  0  0  0  0  0  0  0
  -18.8910    2.0760   53.0020 O   0  0  0  0  0  0  0  0  0  0  0  0
  -16.5400    2.3130   52.7810 C   0  0  0  0  0  0  0  0  0  0  0  0
  -16.2900    1.2090   53.5020 C   0  0  0  0  0  0  0  0  0  0  0  0
  -14.9090    0.8500   53.7840 C   0  0  0  0  0  0  0  0  0  0  0  0
  -14.5850    0.4140   55.0080 C   0  0  0  0  0  0  0  0  0  0  0  0
  -12.6720    2.4400   55.3050 O   0  0  0  0  0  0  0  0  0  0  0  0
  -12.5250    1.2710   56.1190 C   0  0  0  0  0  0  0  0  0  0  0  0
  -11.0350    1.0530   56.3510 C   0  0  0  0  0  0  0  0  0  0  0  0
  -10.2860    2.3550   56.5780 C   0  0  0  0  0  0  0  0  0  0  0  0
  -13.1230    0.0910   55.3360 C   0  0  0  0  0  0  0  0  0  0  0  0
  -12.8780   -1.2630   56.0140 C   0  0  0  0  0  0  0  0  0  0  0  0
  -13.3330   -1.2860   57.3710 O   0  0  0  0  0  0  0  0  0  0  0  0
  -14.4380   -2.1700   57.5010 C   0  0  0  0  0  0  0  0  0  0  0  0
  -15.6330   -1.4210   57.7960 O   0  0  0  0  0  0  0  0  0  0  0  0
  -16.8340   -2.1910   57.9780 C   0  0  0  0  0  0  0  0  0  0  0  0
  -18.0380   -1.2470   58.2350 C   0  0  0  0  0  0  0  0  0  0  0  0
  -16.5890   -3.2520   59.0830 C   0  0  0  0  0  0  0  0  0  0  0  0
  -17.6930   -4.1490   59.2510 O   0  0  0  0  0  0  0  0  0  0  0  0
  -15.2840   -4.0750   58.8810 C   0  0  0  0  0  0  0  0  0  0  0  0
  -15.3200   -5.2140   57.9450 O   0  0  0  0  0  0  0  0  0  0  0  0
  -16.2670   -5.3370   56.8490 C   0  0  0  0  0  0  0  0  0  0  0  0
  -14.1040   -3.1130   58.6360 C   0  0  0  0  0  0  0  0  0  0  0  0
  -12.8360   -3.7530   58.3450 O   0  0  0  0  0  0  0  0  0  0  0  0
  -12.3290   -4.5670   59.4220 C   0  0  0  0  0  0  0  0  0  0  0  0
  -13.8928    4.0455   53.4492 H   0  0  0  0  0  0  0  0  0  0  0  0
  -14.9818    5.6657   55.8283 H   0  0  0  0  0  0  0  0  0  0  0  0
  -14.7201    6.0127   52.7242 H   0  0  0  0  0  0  0  0  0  0  0  0
  -14.1054    7.7112   55.2322 H   0  0  0  0  0  0  0  0  0  0  0  0
  -13.1192    7.5634   53.7382 H   0  0  0  0  0  0  0  0  0  0  0  0
  -14.6034    8.5752   53.7382 H   0  0  0  0  0  0  0  0  0  0  0  0
  -16.7055    7.3711   54.5219 H   0  0  0  0  0  0  0  0  0  0  0  0
  -16.2770    9.4376   53.5804 H   0  0  0  0  0  0  0  0  0  0  0  0
  -18.0795   11.0899   53.9679 H   0  0  0  0  0  0  0  0  0  0  0  0
  -20.2694   10.6857   54.5466 H   0  0  0  0  0  0  0  0  0  0  0  0
  -20.5624   11.5940   53.0248 H   0  0  0  0  0  0  0  0  0  0  0  0
  -20.6217    9.7987   53.0248 H   0  0  0  0  0  0  0  0  0  0  0  0
  -18.8185   11.0700   51.0285 H   0  0  0  0  0  0  0  0  0  0  0  0
  -18.5768   12.5125   52.0695 H   0  0  0  0  0  0  0  0  0  0  0  0
  -16.2941   11.8824   52.5184 H   0  0  0  0  0  0  0  0  0  0  0  0
  -17.7239   10.7113   49.4793 H   0  0  0  0  0  0  0  0  0  0  0  0
  -17.4432   12.2499   48.5957 H   0  0  0  0  0  0  0  0  0  0  0  0
  -16.1817   10.9711   48.5957 H   0  0  0  0  0  0  0  0  0  0  0  0
  -16.1764   13.8411   51.4788 H   0  0  0  0  0  0  0  0  0  0  0  0
  -15.2795   13.7800   49.9236 H   0  0  0  0  0  0  0  0  0  0  0  0
  -17.0649   13.9779   49.9236 H   0  0  0  0  0  0  0  0  0  0  0  0
  -16.8652    9.5035   50.6096 H   0  0  0  0  0  0  0  0  0  0  0  0
  -14.4367    9.7122   52.0639 H   0  0  0  0  0  0  0  0  0  0  0  0
  -17.2420    4.9092   54.1560 H   0  0  0  0  0  0  0  0  0  0  0  0
  -19.0468    6.2415   54.7780 H   0  0  0  0  0  0  0  0  0  0  0  0
  -19.0204    7.1815   53.2474 H   0  0  0  0  0  0  0  0  0  0  0  0
  -19.6002    5.4813   53.2474 H   0  0  0  0  0  0  0  0  0  0  0  0
  -17.4132    5.8547   51.2737 H   0  0  0  0  0  0  0  0  0  0  0  0
  -16.2781    4.6001   52.0409 H   0  0  0  0  0  0  0  0  0  0  0  0
  -19.2518    4.2685   51.8123 H   0  0  0  0  0  0  0  0  0  0  0  0
  -17.6156    2.5136   50.1216 H   0  0  0  0  0  0  0  0  0  0  0  0
  -19.0318    3.5278   49.6830 H   0  0  0  0  0  0  0  0  0  0  0  0
  -17.3827    4.2399   49.6830 H   0  0  0  0  0  0  0  0  0  0  0  0
  -15.7079    2.9188   52.3928 H   0  0  0  0  0  0  0  0  0  0  0  0
  -17.1164    0.5855   53.8738 H   0  0  0  0  0  0  0  0  0  0  0  0
  -14.1404    0.9356   53.0017 H   0  0  0  0  0  0  0  0  0  0  0  0
  -15.3642    0.2883   55.7742 H   0  0  0  0  0  0  0  0  0  0  0  0
  -13.0346    1.3699   57.0888 H   0  0  0  0  0  0  0  0  0  0  0  0
  -10.9056    0.4125   57.2359 H   0  0  0  0  0  0  0  0  0  0  0  0
  -10.6210    0.5819   55.4473 H   0  0  0  0  0  0  0  0  0  0  0  0
  -10.1825    2.5349   57.6582 H   0  0  0  0  0  0  0  0  0  0  0  0
   -9.2881    2.2886   56.1201 H   0  0  0  0  0  0  0  0  0  0  0  0
  -10.8451    3.1843   56.1201 H   0  0  0  0  0  0  0  0  0  0  0  0
  -12.5967   -0.0333   54.3781 H   0  0  0  0  0  0  0  0  0  0  0  0
  -13.4116   -2.0420   55.4496 H   0  0  0  0  0  0  0  0  0  0  0  0
  -11.7926   -1.4417   56.0220 H   0  0  0  0  0  0  0  0  0  0  0  0
  -14.6200   -2.7286   56.5710 H   0  0  0  0  0  0  0  0  0  0  0  0
  -17.0970   -2.7487   57.0670 H   0  0  0  0  0  0  0  0  0  0  0  0
  -18.1874   -1.1299   59.3185 H   0  0  0  0  0  0  0  0  0  0  0  0
  -17.8360   -0.2641   57.7844 H   0  0  0  0  0  0  0  0  0  0  0  0
  -18.9443   -1.6777   57.7844 H   0  0  0  0  0  0  0  0  0  0  0  0
  -16.4751   -2.6556   60.0003 H   0  0  0  0  0  0  0  0  0  0  0  0
  -17.8624   -4.2866   60.2166 H   0  0  0  0  0  0  0  0  0  0  0  0
  -15.1444   -4.6175   59.8277 H   0  0  0  0  0  0  0  0  0  0  0  0
  -17.2813   -5.4687   57.2538 H   0  0  0  0  0  0  0  0  0  0  0  0
  -16.2338   -4.4270   56.2319 H   0  0  0  0  0  0  0  0  0  0  0  0
  -16.0025   -6.2083   56.2319 H   0  0  0  0  0  0  0  0  0  0  0  0
  -13.9699   -2.5810   59.5894 H   0  0  0  0  0  0  0  0  0  0  0  0
  -12.6096   -4.1165   60.3855 H   0  0  0  0  0  0  0  0  0  0  0  0
  -12.7577   -5.5775   59.3510 H   0  0  0  0  0  0  0  0  0  0  0  0
  -11.2330   -4.6279   59.3510 H   0  0  0  0  0  0  0  0  0  0  0  0
  1  2  2  0
  2  3  1  0
  2 31  1  0
  3  4  2  0
  4  5  1  0
  5  6  1  0
  5  7  1  0
  7  8  1  0
  7 20  1  0
  8  9  1  0
  9 10  1  0
  9 18  1  0
 10 11  1  0
 11 12  1  0
 11 13  1  0
 13 14  1  0
 14 15  1  0
 14 18  1  0
 15 16  1  0
 15 17  1  0
 18 19  1  0
 20 21  1  0
 20 22  1  0
 22 23  1  0
 23 24  1  0
 23 25  1  0
 25 26  2  0
 25 27  1  0
 27 28  2  0
 28 29  1  0
 29 30  2  0
 30 35  1  0
 31 32  1  0
 32 33  1  0
 32 35  1  0
 33 34  1  0
 35 36  1  0
 36 37  1  0
 37 38  1  0
 38 39  1  0
 38 47  1  0
 39 40  1  0
 40 41  1  0
 40 42  1  0
 42 43  1  0
 42 44  1  0
 44 45  1  0
 44 47  1  0
 45 46  1  0
 47 48  1  0
 48 49  1  0
  3 50  1  0
  4 51  1  0
  5 52  1  0
  6 53  1  0
  6 54  1  0
  6 55  1  0
  7 56  1  0
  9 57  1  0
 11 58  1  0
 12 59  1  0
 12 60  1  0
 12 61  1  0
 13 62  1  0
 13 63  1  0
 14 64  1  0
 16 65  1  0
 16 66  1  0
 16 67  1  0
 17 68  1  0
 17 69  1  0
 17 70  1  0
 18 71  1  0
 19 72  1  0
 20 73  1  0
 21 74  1  0
 21 75  1  0
 21 76  1  0
 22 77  1  0
 22 78  1  0
 23 79  1  0
 24 80  1  0
 24 81  1  0
 24 82  1  0
 27 83  1  0
 28 84  1  0
 29 85  1  0
 30 86  1  0
 32 87  1  0
 33 88  1  0
 33 89  1  0
 34 90  1  0
 34 91  1  0
 34 92  1  0
 35 93  1  0
 36 94  1  0
 36 95  1  0
 38 96  1  0
 40 97  1  0
 41 98  1  0
 41 99  1  0
 41100  1  0
 42101  1  0
 43102  1  0
 44103  1  0
 46104  1  0
 46105  1  0
 46106  1  0
 47107  1  0
 49108  1  0
 49109  1  0
 49110  1  0
A    1
O5
A    2
C24
A    3
C23
A    4
C22
A    5
C20
A    6
C21
A    7
C11
A    8
O2
A    9
C12
A   10
O4
A   11
C18
A   12
C19
A   13
C17
A   14
C14
A   15
N
A   16
C16
A   17
C15
A   18
C13
A   19
O3
A   20
C9
A   21
C10
A   22
C8
A   23
C6
A   24
C7
A   25
C5
A   26
O1
A   27
C4
A   28
C3
A   29
C2
A   30
C1
A   31
O6
A   32
C25
A   33
C26
A   34
C27
A   35
C28
A   36
C29
A   37
O7
A   38
C30
A   39
O11
A   40
C36
A   41
C37
A   42
C35
A   43
O10
A   44
C33
A   45
O9
A   46
C34
A   47
C31
A   48
O8
A   49
C32
M  END
