1CXF_ACX_A_688
     RDKit          3D

126132  0  0  0  0  0  0  0  0999 V2000
   77.9420   63.6010   45.9370 C   0  0  0  0  0  0  0  0  0  0  0  0
   77.2690   62.4090   46.5730 C   0  0  0  0  0  0  0  0  0  0  0  0
   77.8270   61.1240   46.0230 C   0  0  0  0  0  0  0  0  0  0  0  0
   77.7670   61.0890   44.5180 C   0  0  0  0  0  0  0  0  0  0  0  0
   78.4970   62.3000   44.0040 C   0  0  0  0  0  0  0  0  0  0  0  0
   78.3880   62.4290   42.5240 C   0  0  0  0  0  0  0  0  0  0  0  0
   79.2730   63.6270   46.3620 O   0  0  0  0  0  0  0  0  0  0  0  0
   77.4750   62.4570   47.9730 O   0  0  0  0  0  0  0  0  0  0  0  0
   77.1590   59.9740   46.5350 O   0  0  0  0  0  0  0  0  0  0  0  0
   77.9160   63.4820   44.5320 O   0  0  0  0  0  0  0  0  0  0  0  0
   78.7210   63.7470   42.0990 O   0  0  0  0  0  0  0  0  0  0  0  0
   82.2570   65.7840   48.0610 C   0  0  0  0  0  0  0  0  0  0  0  0
   81.0890   65.4910   48.9570 C   0  0  0  0  0  0  0  0  0  0  0  0
   80.2290   64.4250   48.3350 C   0  0  0  0  0  0  0  0  0  0  0  0
   79.8330   64.8110   46.9340 C   0  0  0  0  0  0  0  0  0  0  0  0
   81.0610   65.1820   46.1150 C   0  0  0  0  0  0  0  0  0  0  0  0
   80.6770   65.8150   44.8070 C   0  0  0  0  0  0  0  0  0  0  0  0
   82.9670   64.6200   47.8950 O   0  0  0  0  0  0  0  0  0  0  0  0
   81.5230   65.0270   50.2380 O   0  0  0  0  0  0  0  0  0  0  0  0
   79.1090   64.2310   49.1750 O   0  0  0  0  0  0  0  0  0  0  0  0
   81.7520   66.2100   46.8070 O   0  0  0  0  0  0  0  0  0  0  0  0
   81.7670   65.7190   43.8950 O   0  0  0  0  0  0  0  0  0  0  0  0
   86.6550   62.8900   47.8650 C   0  0  0  0  0  0  0  0  0  0  0  0
   86.0760   63.0790   49.2520 C   0  0  0  0  0  0  0  0  0  0  0  0
   84.5990   63.3810   49.1280 C   0  0  0  0  0  0  0  0  0  0  0  0
   84.3470   64.5650   48.2170 C   0  0  0  0  0  0  0  0  0  0  0  0
   85.1070   64.4560   46.8980 C   0  0  0  0  0  0  0  0  0  0  0  0
   85.1840   65.7750   46.1920 C   0  0  0  0  0  0  0  0  0  0  0  0
   85.9920   61.8090   47.2400 O   0  0  0  0  0  0  0  0  0  0  0  0
   86.3210   61.9220   50.0490 O   0  0  0  0  0  0  0  0  0  0  0  0
   84.0040   63.7070   50.3830 O   0  0  0  0  0  0  0  0  0  0  0  0
   86.4690   64.0910   47.1210 O   0  0  0  0  0  0  0  0  0  0  0  0
   86.3530   66.5140   46.5600 O   0  0  0  0  0  0  0  0  0  0  0  0
   86.5460   58.1740   45.3630 C   0  0  0  0  0  0  0  0  0  0  0  0
   86.6290   58.1870   46.8630 C   0  0  0  0  0  0  0  0  0  0  0  0
   86.0450   59.4570   47.4290 C   0  0  0  0  0  0  0  0  0  0  0  0
   86.7580   60.6560   46.8420 C   0  0  0  0  0  0  0  0  0  0  0  0
   86.8140   60.6210   45.3070 C   0  0  0  0  0  0  0  0  0  0  0  0
   87.8810   61.5640   44.8070 C   0  0  0  0  0  0  0  0  0  0  0  0
   85.2380   57.9810   44.9560 O   0  0  0  0  0  0  0  0  0  0  0  0
   85.9020   57.0840   47.4070 O   0  0  0  0  0  0  0  0  0  0  0  0
   86.1560   59.4080   48.8490 O   0  0  0  0  0  0  0  0  0  0  0  0
   87.1920   59.3280   44.8000 O   0  0  0  0  0  0  0  0  0  0  0  0
   88.7400   61.9020   45.9050 O   0  0  0  0  0  0  0  0  0  0  0  0
   82.2430   56.1020   42.7930 C   0  0  0  0  0  0  0  0  0  0  0  0
   82.8850   55.2780   43.8960 C   0  0  0  0  0  0  0  0  0  0  0  0
   83.5900   56.1940   44.8540 C   0  0  0  0  0  0  0  0  0  0  0  0
   84.6960   56.9470   44.1380 C   0  0  0  0  0  0  0  0  0  0  0  0
   84.1860   57.6290   42.8760 C   0  0  0  0  0  0  0  0  0  0  0  0
   85.3520   57.9310   41.9710 C   0  0  0  0  0  0  0  0  0  0  0  0
   81.2980   56.9930   43.3700 O   0  0  0  0  0  0  0  0  0  0  0  0
   81.9410   54.4800   44.6020 O   0  0  0  0  0  0  0  0  0  0  0  0
   84.1630   55.4320   45.9190 O   0  0  0  0  0  0  0  0  0  0  0  0
   83.2700   56.8180   42.1030 O   0  0  0  0  0  0  0  0  0  0  0  0
   85.0130   58.6910   40.7990 O   0  0  0  0  0  0  0  0  0  0  0  0
   77.9150   59.2190   42.9990 C   0  0  0  0  0  0  0  0  0  0  0  0
   77.6660   57.8680   43.5510 C   0  0  0  0  0  0  0  0  0  0  0  0
   78.9940   57.2770   43.9740 C   0  0  0  0  0  0  0  0  0  0  0  0
   79.9740   57.1950   42.8000 C   0  0  0  0  0  0  0  0  0  0  0  0
   80.0330   58.5340   42.0510 C   0  0  0  0  0  0  0  0  0  0  0  0
   80.6420   58.4060   40.6760 C   0  0  0  0  0  0  0  0  0  0  0  0
   78.4760   59.9750   44.0000 O   0  0  0  0  0  0  0  0  0  0  0  0
   76.8300   58.0400   44.6890 O   0  0  0  0  0  0  0  0  0  0  0  0
   78.7740   56.0380   44.6420 O   0  0  0  0  0  0  0  0  0  0  0  0
   78.7340   59.0890   41.8400 O   0  0  0  0  0  0  0  0  0  0  0  0
   81.4650   59.5540   40.4430 O   0  0  0  0  0  0  0  0  0  0  0  0
   77.4163   64.5222   46.2286 H   0  0  0  0  0  0  0  0  0  0  0  0
   76.1930   62.4428   46.3471 H   0  0  0  0  0  0  0  0  0  0  0  0
   78.8768   61.0958   46.3504 H   0  0  0  0  0  0  0  0  0  0  0  0
   76.7100   61.0449   44.2167 H   0  0  0  0  0  0  0  0  0  0  0  0
   79.5469   62.1756   44.3076 H   0  0  0  0  0  0  0  0  0  0  0  0
   79.0758   61.7138   42.0493 H   0  0  0  0  0  0  0  0  0  0  0  0
   77.3490   62.2189   42.2302 H   0  0  0  0  0  0  0  0  0  0  0  0
   76.6242   62.2588   48.4387 H   0  0  0  0  0  0  0  0  0  0  0  0
   77.1728   59.9977   47.5246 H   0  0  0  0  0  0  0  0  0  0  0  0
   78.8664   64.3224   42.8914 H   0  0  0  0  0  0  0  0  0  0  0  0
   82.9050   66.5627   48.4898 H   0  0  0  0  0  0  0  0  0  0  0  0
   80.5210   66.4243   49.0846 H   0  0  0  0  0  0  0  0  0  0  0  0
   80.7822   63.4784   48.2462 H   0  0  0  0  0  0  0  0  0  0  0  0
   79.1426   65.6673   46.9423 H   0  0  0  0  0  0  0  0  0  0  0  0
   81.6464   64.2643   45.9567 H   0  0  0  0  0  0  0  0  0  0  0  0
   79.8029   65.2935   44.3899 H   0  0  0  0  0  0  0  0  0  0  0  0
   80.4283   66.8739   44.9711 H   0  0  0  0  0  0  0  0  0  0  0  0
   81.0520   65.5306   50.9484 H   0  0  0  0  0  0  0  0  0  0  0  0
   79.3941   64.2804   50.1218 H   0  0  0  0  0  0  0  0  0  0  0  0
   82.6148   65.6443   44.4007 H   0  0  0  0  0  0  0  0  0  0  0  0
   87.7310   62.6675   47.9183 H   0  0  0  0  0  0  0  0  0  0  0  0
   86.5622   63.9267   49.7570 H   0  0  0  0  0  0  0  0  0  0  0  0
   84.1533   62.4621   48.7194 H   0  0  0  0  0  0  0  0  0  0  0  0
   84.6870   65.4613   48.7565 H   0  0  0  0  0  0  0  0  0  0  0  0
   84.5606   63.7064   46.3067 H   0  0  0  0  0  0  0  0  0  0  0  0
   85.2043   65.5960   45.1068 H   0  0  0  0  0  0  0  0  0  0  0  0
   84.3033   66.3669   46.4820 H   0  0  0  0  0  0  0  0  0  0  0  0
   86.2696   62.1646   51.0074 H   0  0  0  0  0  0  0  0  0  0  0  0
   84.5865   63.3879   51.1172 H   0  0  0  0  0  0  0  0  0  0  0  0
   86.4197   66.5562   47.5469 H   0  0  0  0  0  0  0  0  0  0  0  0
   87.1083   57.3168   44.9643 H   0  0  0  0  0  0  0  0  0  0  0  0
   87.6929   58.1183   47.1340 H   0  0  0  0  0  0  0  0  0  0  0  0
   84.9817   59.5527   47.1641 H   0  0  0  0  0  0  0  0  0  0  0  0
   87.7973   60.6716   47.2021 H   0  0  0  0  0  0  0  0  0  0  0  0
   85.8042   60.8923   44.9655 H   0  0  0  0  0  0  0  0  0  0  0  0
   88.4666   61.0752   44.0145 H   0  0  0  0  0  0  0  0  0  0  0  0
   87.4182   62.4735   44.3965 H   0  0  0  0  0  0  0  0  0  0  0  0
   85.9297   57.1260   48.3957 H   0  0  0  0  0  0  0  0  0  0  0  0
   85.3309   59.7722   49.2573 H   0  0  0  0  0  0  0  0  0  0  0  0
   88.2728   61.7182   46.7582 H   0  0  0  0  0  0  0  0  0  0  0  0
   81.7169   55.4552   42.0755 H   0  0  0  0  0  0  0  0  0  0  0  0
   83.6008   54.5903   43.4220 H   0  0  0  0  0  0  0  0  0  0  0  0
   82.8593   56.9102   45.2579 H   0  0  0  0  0  0  0  0  0  0  0  0
   85.4584   56.1918   43.8963 H   0  0  0  0  0  0  0  0  0  0  0  0
   83.6552   58.5300   43.2172 H   0  0  0  0  0  0  0  0  0  0  0  0
   86.0960   58.5007   42.5471 H   0  0  0  0  0  0  0  0  0  0  0  0
   85.7338   56.9620   41.6171 H   0  0  0  0  0  0  0  0  0  0  0  0
   82.0757   54.5939   45.5762 H   0  0  0  0  0  0  0  0  0  0  0  0
   83.8773   55.8119   46.7874 H   0  0  0  0  0  0  0  0  0  0  0  0
   84.6251   59.5605   41.0703 H   0  0  0  0  0  0  0  0  0  0  0  0
   76.9967   59.7302   42.6744 H   0  0  0  0  0  0  0  0  0  0  0  0
   77.1907   57.2003   42.8173 H   0  0  0  0  0  0  0  0  0  0  0  0
   79.4849   57.9447   44.6973 H   0  0  0  0  0  0  0  0  0  0  0  0
   79.6598   56.3926   42.1164 H   0  0  0  0  0  0  0  0  0  0  0  0
   80.6489   59.1770   42.6969 H   0  0  0  0  0  0  0  0  0  0  0  0
   81.2529   57.4928   40.6228 H   0  0  0  0  0  0  0  0  0  0  0  0
   79.8509   58.3445   39.9141 H   0  0  0  0  0  0  0  0  0  0  0  0
   77.3674   57.9294   45.5130 H   0  0  0  0  0  0  0  0  0  0  0  0
   78.7996   56.1819   45.6212 H   0  0  0  0  0  0  0  0  0  0  0  0
   81.7432   59.9421   41.3102 H   0  0  0  0  0  0  0  0  0  0  0  0
  1  2  1  0
  1  7  1  0
  1 10  1  0
  2  3  1  0
  2  8  1  0
  3  4  1  0
  3  9  1  0
  4  5  1  0
  4 62  1  0
  5  6  1  0
  5 10  1  0
  6 11  1  0
  7 15  1  0
 12 13  1  0
 12 18  1  0
 12 21  1  0
 13 14  1  0
 13 19  1  0
 14 15  1  0
 14 20  1  0
 15 16  1  0
 16 17  1  0
 16 21  1  0
 17 22  1  0
 18 26  1  0
 23 24  1  0
 23 29  1  0
 23 32  1  0
 24 25  1  0
 24 30  1  0
 25 26  1  0
 25 31  1  0
 26 27  1  0
 27 28  1  0
 27 32  1  0
 28 33  1  0
 29 37  1  0
 34 35  1  0
 34 40  1  0
 34 43  1  0
 35 36  1  0
 35 41  1  0
 36 37  1  0
 36 42  1  0
 37 38  1  0
 38 39  1  0
 38 43  1  0
 39 44  1  0
 40 48  1  0
 45 46  1  0
 45 51  1  0
 45 54  1  0
 46 47  1  0
 46 52  1  0
 47 48  1  0
 47 53  1  0
 48 49  1  0
 49 50  1  0
 49 54  1  0
 50 55  1  0
 51 59  1  0
 56 57  1  0
 56 62  1  0
 56 65  1  0
 57 58  1  0
 57 63  1  0
 58 59  1  0
 58 64  1  0
 59 60  1  0
 60 61  1  0
 60 65  1  0
 61 66  1  0
  1 67  1  0
  2 68  1  0
  3 69  1  0
  4 70  1  0
  5 71  1  0
  6 72  1  0
  6 73  1  0
  8 74  1  0
  9 75  1  0
 11 76  1  0
 12 77  1  0
 13 78  1  0
 14 79  1  0
 15 80  1  0
 16 81  1  0
 17 82  1  0
 17 83  1  0
 19 84  1  0
 20 85  1  0
 22 86  1  0
 23 87  1  0
 24 88  1  0
 25 89  1  0
 26 90  1  0
 27 91  1  0
 28 92  1  0
 28 93  1  0
 30 94  1  0
 31 95  1  0
 33 96  1  0
 34 97  1  0
 35 98  1  0
 36 99  1  0
 37100  1  0
 38101  1  0
 39102  1  0
 39103  1  0
 41104  1  0
 42105  1  0
 44106  1  0
 45107  1  0
 46108  1  0
 47109  1  0
 48110  1  0
 49111  1  0
 50112  1  0
 50113  1  0
 52114  1  0
 53115  1  0
 55116  1  0
 56117  1  0
 57118  1  0
 58119  1  0
 59120  1  0
 60121  1  0
 61122  1  0
 61123  1  0
 63124  1  0
 64125  1  0
 66126  1  0
A    1
C1A
A    2
C2A
A    3
C3A
A    4
C4A
A    5
C5A
A    6
C6A
A    7
O1A
A    8
O2A
A    9
O3A
A   10
O5A
A   11
O6A
A   12
C1B
A   13
C2B
A   14
C3B
A   15
C4B
A   16
C5B
A   17
C6B
A   18
O1B
A   19
O2B
A   20
O3B
A   21
O5B
A   22
O6B
A   23
C1C
A   24
C2C
A   25
C3C
A   26
C4C
A   27
C5C
A   28
C6C
A   29
O1C
A   30
O2C
A   31
O3C
A   32
O5C
A   33
O6C
A   34
C1D
A   35
C2D
A   36
C3D
A   37
C4D
A   38
C5D
A   39
C6D
A   40
O1D
A   41
O2D
A   42
O3D
A   43
O5D
A   44
O6D
A   45
C1E
A   46
C2E
A   47
C3E
A   48
C4E
A   49
C5E
A   50
C6E
A   51
O1E
A   52
O2E
A   53
O3E
A   54
O5E
A   55
O6E
A   56
C1F
A   57
C2F
A   58
C3F
A   59
C4F
A   60
C5F
A   61
C6F
A   62
O1F
A   63
O2F
A   64
O3F
A   65
O5F
A   66
O6F
M  END
