4CEA_ZSW_A_1217
     RDKit          3D

 72 74  0  0  0  0  0  0  0  0999 V2000
   -9.8260   47.5920    4.8750 C   0  0  0  0  0  0  0  0  0  0  0  0
  -10.6750   48.5200    4.3070 C   0  0  0  0  0  0  0  0  0  0  0  0
   -8.9890   46.8430    4.0750 C   0  0  0  0  0  0  0  0  0  0  0  0
  -10.6940   48.6950    2.9370 C   0  0  0  0  0  0  0  0  0  0  0  0
  -11.6330   44.9920   -2.2660 C   0  0  0  0  0  0  0  0  0  0  0  0
  -12.5450   44.5530   -3.2070 C   0  0  0  0  0  0  0  0  0  0  0  0
   -9.0170   47.0180    2.7100 C   0  0  0  0  0  0  0  0  0  0  0  0
  -13.3940   45.4970   -0.6970 C   0  0  0  0  0  0  0  0  0  0  0  0
   -9.8700   47.9430    2.1260 C   0  0  0  0  0  0  0  0  0  0  0  0
  -12.0410   45.4570   -1.0260 C   0  0  0  0  0  0  0  0  0  0  0  0
  -13.8830   44.6010   -2.8810 C   0  0  0  0  0  0  0  0  0  0  0  0
  -14.3130   45.0460   -1.6400 C   0  0  0  0  0  0  0  0  0  0  0  0
  -10.3760   49.9850   -2.4190 C   0  0  0  0  0  0  0  0  0  0  0  0
  -10.4640   48.6840   -2.1250 C   0  0  0  0  0  0  0  0  0  0  0  0
   -8.1180   46.1620    1.9080 C   0  0  0  0  0  0  0  0  0  0  0  0
  -13.8480   45.9580    0.6430 C   0  0  0  0  0  0  0  0  0  0  0  0
  -16.8830   45.5580   -6.4420 C   0  0  0  0  0  0  0  0  0  0  0  0
   -9.0980   42.4120    0.4650 C   0  0  0  0  0  0  0  0  0  0  0  0
   -7.7440   43.0790    0.5610 C   0  0  0  0  0  0  0  0  0  0  0  0
   -7.5000   43.6490    1.9370 C   0  0  0  0  0  0  0  0  0  0  0  0
   -6.0170   43.8260    2.1850 C   0  0  0  0  0  0  0  0  0  0  0  0
  -16.4880   44.3990   -2.2340 C   0  0  0  0  0  0  0  0  0  0  0  0
  -16.0540   44.6830   -3.6480 C   0  0  0  0  0  0  0  0  0  0  0  0
   -9.9400   48.1690    0.6530 C   0  0  0  0  0  0  0  0  0  0  0  0
  -10.9850   45.9470   -0.0810 C   0  0  0  0  0  0  0  0  0  0  0  0
  -11.5350   48.1780   -1.2430 C   0  0  0  0  0  0  0  0  0  0  0  0
  -16.5820   44.1220   -6.0450 C   0  0  0  0  0  0  0  0  0  0  0  0
  -17.0270   44.0090   -4.6020 C   0  0  0  0  0  0  0  0  0  0  0  0
   -8.2960   44.8310    2.2410 N   0  0  0  0  0  0  0  0  0  0  0  0
  -11.0820   47.4660   -0.0040 N   0  0  0  0  0  0  0  0  0  0  0  0
  -13.3090   46.9650    1.1780 O   0  0  0  0  0  0  0  0  0  0  0  0
  -16.0200   46.0890   -7.1910 O   0  0  0  0  0  0  0  0  0  0  0  0
   -7.3930   46.6350    1.0500 O   0  0  0  0  0  0  0  0  0  0  0  0
  -14.7060   45.2140    1.2190 O   0  0  0  0  0  0  0  0  0  0  0  0
  -17.9390   46.0780   -5.9920 O   0  0  0  0  0  0  0  0  0  0  0  0
  -15.6670   45.1100   -1.3110 O   0  0  0  0  0  0  0  0  0  0  0  0
  -14.7520   44.1530   -3.8440 O   0  0  0  0  0  0  0  0  0  0  0  0
   -9.8170   47.4498    5.9657 H   0  0  0  0  0  0  0  0  0  0  0  0
  -11.3378   49.1214    4.9465 H   0  0  0  0  0  0  0  0  0  0  0  0
   -8.3031   46.1101    4.5250 H   0  0  0  0  0  0  0  0  0  0  0  0
  -11.3703   49.4386    2.4901 H   0  0  0  0  0  0  0  0  0  0  0  0
  -10.5598   44.9719   -2.5066 H   0  0  0  0  0  0  0  0  0  0  0  0
  -12.2131   44.1769   -4.1860 H   0  0  0  0  0  0  0  0  0  0  0  0
   -9.5726   50.3469   -3.0775 H   0  0  0  0  0  0  0  0  0  0  0  0
  -11.1069   50.6937   -2.0024 H   0  0  0  0  0  0  0  0  0  0  0  0
   -9.7294   47.9814   -2.5453 H   0  0  0  0  0  0  0  0  0  0  0  0
   -9.4853   42.2212    1.4767 H   0  0  0  0  0  0  0  0  0  0  0  0
   -9.7936   43.0705   -0.0758 H   0  0  0  0  0  0  0  0  0  0  0  0
   -8.9998   41.4591   -0.0758 H   0  0  0  0  0  0  0  0  0  0  0  0
   -7.6946   43.8937   -0.1765 H   0  0  0  0  0  0  0  0  0  0  0  0
   -6.9727   42.3205    0.3618 H   0  0  0  0  0  0  0  0  0  0  0  0
   -7.8656   42.9079    2.6630 H   0  0  0  0  0  0  0  0  0  0  0  0
   -5.8265   43.8487    3.2681 H   0  0  0  0  0  0  0  0  0  0  0  0
   -5.4670   42.9871    1.7335 H   0  0  0  0  0  0  0  0  0  0  0  0
   -5.6799   44.7707    1.7335 H   0  0  0  0  0  0  0  0  0  0  0  0
  -17.5342   44.7136   -2.1057 H   0  0  0  0  0  0  0  0  0  0  0  0
  -16.3917   43.3204   -2.0405 H   0  0  0  0  0  0  0  0  0  0  0  0
  -16.0423   45.7670   -3.8348 H   0  0  0  0  0  0  0  0  0  0  0  0
  -10.0447   49.2488    0.4710 H   0  0  0  0  0  0  0  0  0  0  0  0
   -9.0156   47.7604    0.2187 H   0  0  0  0  0  0  0  0  0  0  0  0
  -11.1474   45.5125    0.9164 H   0  0  0  0  0  0  0  0  0  0  0  0
   -9.9882   45.6477   -0.4371 H   0  0  0  0  0  0  0  0  0  0  0  0
  -12.1495   49.0360   -0.9329 H   0  0  0  0  0  0  0  0  0  0  0  0
  -12.0783   47.4272   -1.8356 H   0  0  0  0  0  0  0  0  0  0  0  0
  -17.1445   43.4204   -6.6785 H   0  0  0  0  0  0  0  0  0  0  0  0
  -15.5171   43.8754   -6.1680 H   0  0  0  0  0  0  0  0  0  0  0  0
  -17.1032   42.9442   -4.3369 H   0  0  0  0  0  0  0  0  0  0  0  0
  -17.9991   44.5150   -4.5071 H   0  0  0  0  0  0  0  0  0  0  0  0
   -9.1389   44.6426    2.8021 H   0  0  0  0  0  0  0  0  0  0  0  0
  -11.8721   47.5425    0.6523 H   0  0  0  0  0  0  0  0  0  0  0  0
  -13.2691   47.0396    2.1644 H   0  0  0  0  0  0  0  0  0  0  0  0
  -18.0791   46.1470   -5.0144 H   0  0  0  0  0  0  0  0  0  0  0  0
  1  2  2  0
  1  3  1  0
  2  4  1  0
  3  7  2  0
  4  9  2  0
  5  6  2  0
  5 10  1  0
  6 11  1  0
  7  9  1  0
  7 15  1  0
  8 10  2  0
  8 12  1  0
  8 16  1  0
  9 24  1  0
 10 25  1  0
 11 12  2  0
 11 37  1  0
 12 36  1  0
 13 14  2  3
 14 26  1  0
 15 29  1  0
 15 33  2  0
 16 34  2  0
 16 31  1  0
 17 27  1  0
 17 32  2  0
 17 35  1  0
 19 20  1  0
 19 18  1  0
 20 21  1  0
 20 29  1  0
 22 23  1  0
 22 36  1  0
 23 28  1  0
 23 37  1  0
 24 30  1  0
 25 30  1  0
 26 30  1  0
 27 28  1  0
  1 38  1  0
  2 39  1  0
  3 40  1  0
  4 41  1  0
  5 42  1  0
  6 43  1  0
 13 44  1  0
 13 45  1  0
 14 46  1  0
 18 47  1  0
 18 48  1  0
 18 49  1  0
 19 50  1  0
 19 51  1  0
 20 52  1  0
 21 53  1  0
 21 54  1  0
 21 55  1  0
 22 56  1  0
 22 57  1  0
 23 58  1  0
 24 59  1  0
 24 60  1  0
 25 61  1  0
 25 62  1  0
 26 63  1  0
 26 64  1  0
 27 65  1  0
 27 66  1  0
 28 67  1  0
 28 68  1  0
 29 69  1  0
 30 70  1  0
 31 71  1  0
 35 72  1  0
M  CHG  1  30   1
A    1
C1
A    2
C2
A    3
C3
A    4
C4
A    5
C5
A    6
C6
A    7
C7
A    8
C8
A    9
C9
A   10
C10
A   11
C11
A   12
C12
A   13
C13
A   14
C14
A   15
C15
A   16
C16
A   17
C17
A   18
C19
A   19
C18
A   20
C20
A   21
C22
A   22
C23
A   23
C25
A   24
C26
A   25
C27
A   26
C28
A   27
C29
A   28
C31
A   29
N32
A   30
N33
A   31
O37
A   32
O35
A   33
O36
A   34
O34
A   35
O38
A   36
O39
A   37
O40
M  END
