3ZSY_OM3_A_1214
     RDKit          3D

 63 66  0  0  0  0  0  0  0  0999 V2000
  -10.7620   47.9740    5.9960 C   0  0  0  0  0  0  0  0  0  0  0  0
  -11.6040   48.8670    5.3900 C   0  0  0  0  0  0  0  0  0  0  0  0
   -9.8120   47.3360    5.2180 C   0  0  0  0  0  0  0  0  0  0  0  0
  -11.4940   49.0920    4.0320 C   0  0  0  0  0  0  0  0  0  0  0  0
  -11.5710   45.5560   -1.4770 C   0  0  0  0  0  0  0  0  0  0  0  0
  -12.3420   44.9120   -2.4300 C   0  0  0  0  0  0  0  0  0  0  0  0
   -9.6870   47.5650    3.8570 C   0  0  0  0  0  0  0  0  0  0  0  0
  -13.4090   45.6030    0.0840 C   0  0  0  0  0  0  0  0  0  0  0  0
  -10.5510   48.4650    3.2520 C   0  0  0  0  0  0  0  0  0  0  0  0
  -12.0790   45.8970   -0.2310 C   0  0  0  0  0  0  0  0  0  0  0  0
  -13.6500   44.6310   -2.1100 C   0  0  0  0  0  0  0  0  0  0  0  0
  -14.1690   44.9640   -0.8950 C   0  0  0  0  0  0  0  0  0  0  0  0
   -8.6240   46.8240    3.0990 C   0  0  0  0  0  0  0  0  0  0  0  0
  -14.0140   45.9130    1.4150 C   0  0  0  0  0  0  0  0  0  0  0  0
   -8.7120   41.7900   -0.2290 C   0  0  0  0  0  0  0  0  0  0  0  0
   -9.6870   42.7990    0.3090 C   0  0  0  0  0  0  0  0  0  0  0  0
   -7.9070   41.3130    0.9540 C   0  0  0  0  0  0  0  0  0  0  0  0
   -8.9180   43.9910    0.8430 C   0  0  0  0  0  0  0  0  0  0  0  0
   -7.1360   42.4740    1.5640 C   0  0  0  0  0  0  0  0  0  0  0  0
  -15.7000   43.9590   -2.0820 C   0  0  0  0  0  0  0  0  0  0  0  0
   -8.1020   43.5380    2.0300 C   0  0  0  0  0  0  0  0  0  0  0  0
  -11.6600   48.7800   -0.3750 C   0  0  0  0  0  0  0  0  0  0  0  0
  -10.5150   48.8040    1.7950 C   0  0  0  0  0  0  0  0  0  0  0  0
  -11.1300   46.5880    0.7200 C   0  0  0  0  0  0  0  0  0  0  0  0
   -7.4440   44.7240    2.7340 C   0  0  0  0  0  0  0  0  0  0  0  0
   -8.4910   45.4950    3.3790 N   0  0  0  0  0  0  0  0  0  0  0  0
  -11.4530   48.0530    0.9100 N   0  0  0  0  0  0  0  0  0  0  0  0
  -14.9650   45.1730    1.8120 O   0  0  0  0  0  0  0  0  0  0  0  0
   -7.9110   47.3540    2.2670 O   0  0  0  0  0  0  0  0  0  0  0  0
  -13.5220   46.8350    2.1100 O   0  0  0  0  0  0  0  0  0  0  0  0
  -14.5530   44.0200   -2.9320 O   0  0  0  0  0  0  0  0  0  0  0  0
  -15.4970   44.5850   -0.8100 O   0  0  0  0  0  0  0  0  0  0  0  0
  -10.8386   47.7688    7.0740 H   0  0  0  0  0  0  0  0  0  0  0  0
  -12.3627   49.4015    5.9805 H   0  0  0  0  0  0  0  0  0  0  0  0
   -9.1297   46.6194    5.6985 H   0  0  0  0  0  0  0  0  0  0  0  0
  -12.1878   49.8004    3.5557 H   0  0  0  0  0  0  0  0  0  0  0  0
  -10.5260   45.8045   -1.7141 H   0  0  0  0  0  0  0  0  0  0  0  0
  -11.9232   44.6348   -3.4087 H   0  0  0  0  0  0  0  0  0  0  0  0
   -9.2494   40.9479   -0.6895 H   0  0  0  0  0  0  0  0  0  0  0  0
   -8.0660   42.2291   -1.0035 H   0  0  0  0  0  0  0  0  0  0  0  0
  -10.3617   43.1257   -0.4960 H   0  0  0  0  0  0  0  0  0  0  0  0
  -10.2816   42.3477    1.1169 H   0  0  0  0  0  0  0  0  0  0  0  0
   -8.5858   40.8902    1.7093 H   0  0  0  0  0  0  0  0  0  0  0  0
   -7.1949   40.5445    0.6187 H   0  0  0  0  0  0  0  0  0  0  0  0
   -8.2508   44.3833    0.0613 H   0  0  0  0  0  0  0  0  0  0  0  0
   -9.6152   44.7865    1.1447 H   0  0  0  0  0  0  0  0  0  0  0  0
   -6.5486   42.1128    2.4210 H   0  0  0  0  0  0  0  0  0  0  0  0
   -6.4613   42.9008    0.8073 H   0  0  0  0  0  0  0  0  0  0  0  0
  -16.5371   44.4615   -2.5887 H   0  0  0  0  0  0  0  0  0  0  0  0
  -15.9083   42.8957   -1.8920 H   0  0  0  0  0  0  0  0  0  0  0  0
   -8.7451   43.0865    2.7997 H   0  0  0  0  0  0  0  0  0  0  0  0
  -11.9557   49.8185   -0.1652 H   0  0  0  0  0  0  0  0  0  0  0  0
  -10.7247   48.7749   -0.9540 H   0  0  0  0  0  0  0  0  0  0  0  0
  -12.4523   48.2830   -0.9540 H   0  0  0  0  0  0  0  0  0  0  0  0
  -10.7478   49.8745    1.6958 H   0  0  0  0  0  0  0  0  0  0  0  0
   -9.5076   48.5203    1.4564 H   0  0  0  0  0  0  0  0  0  0  0  0
  -11.1851   46.0865    1.6975 H   0  0  0  0  0  0  0  0  0  0  0  0
  -10.1216   46.5253    0.2849 H   0  0  0  0  0  0  0  0  0  0  0  0
   -6.7283   44.3620    3.4868 H   0  0  0  0  0  0  0  0  0  0  0  0
   -6.8999   45.3470    2.0089 H   0  0  0  0  0  0  0  0  0  0  0  0
   -9.1313   45.0407    4.0457 H   0  0  0  0  0  0  0  0  0  0  0  0
  -12.3510   48.0248    1.4138 H   0  0  0  0  0  0  0  0  0  0  0  0
  -15.1243   45.0490    2.7812 H   0  0  0  0  0  0  0  0  0  0  0  0
  1  2  2  0
  1  3  1  0
  2  4  1  0
  3  7  2  0
  4  9  2  0
  5  6  2  0
  5 10  1  0
  6 11  1  0
  7  9  1  0
  7 13  1  0
  8 10  2  0
  8 12  1  0
  8 14  1  0
  9 23  1  0
 10 24  1  0
 11 12  2  0
 11 31  1  0
 12 32  1  0
 13 26  1  0
 13 29  2  0
 14 28  1  0
 14 30  2  0
 15 16  1  0
 15 17  1  0
 16 18  1  0
 17 19  1  0
 18 21  1  0
 19 21  1  0
 20 31  1  0
 20 32  1  0
 21 25  1  0
 22 27  1  0
 23 27  1  0
 24 27  1  0
 25 26  1  0
  1 33  1  0
  2 34  1  0
  3 35  1  0
  4 36  1  0
  5 37  1  0
  6 38  1  0
 15 39  1  0
 15 40  1  0
 16 41  1  0
 16 42  1  0
 17 43  1  0
 17 44  1  0
 18 45  1  0
 18 46  1  0
 19 47  1  0
 19 48  1  0
 20 49  1  0
 20 50  1  0
 21 51  1  0
 22 52  1  0
 22 53  1  0
 22 54  1  0
 23 55  1  0
 23 56  1  0
 24 57  1  0
 24 58  1  0
 25 59  1  0
 25 60  1  0
 26 61  1  0
 27 62  1  0
 28 63  1  0
M  CHG  1  27   1
A    1
C1
A    2
C2
A    3
C3
A    4
C4
A    5
C5
A    6
C6
A    7
C7
A    8
C8
A    9
C9
A   10
C10
A   11
C11
A   12
C12
A   13
C13
A   14
C14
A   15
C15
A   16
C16
A   17
C17
A   18
C18
A   19
C19
A   20
C20
A   21
C21
A   22
C22
A   23
C23
A   24
C24
A   25
C25
A   26
N26
A   27
N27
A   28
O28
A   29
O29
A   30
O30
A   31
O31
A   32
O32
M  END
