3ZSZ_OM2_A_1215
     RDKit          3D

 56 58  0  0  0  0  0  0  0  0999 V2000
   10.2620  -48.0120    6.2140 C   0  0  0  0  0  0  0  0  0  0  0  0
   11.0820  -48.8570    5.4910 C   0  0  0  0  0  0  0  0  0  0  0  0
    9.2760  -47.2570    5.5920 C   0  0  0  0  0  0  0  0  0  0  0  0
   10.8970  -48.9370    4.1200 C   0  0  0  0  0  0  0  0  0  0  0  0
   11.3250  -44.9980   -0.9090 C   0  0  0  0  0  0  0  0  0  0  0  0
   12.1910  -44.5200   -1.8840 C   0  0  0  0  0  0  0  0  0  0  0  0
    9.0970  -47.3250    4.2200 C   0  0  0  0  0  0  0  0  0  0  0  0
   13.1900  -45.5680    0.5200 C   0  0  0  0  0  0  0  0  0  0  0  0
    9.9140  -48.1800    3.4960 C   0  0  0  0  0  0  0  0  0  0  0  0
   11.8080  -45.5270    0.2880 C   0  0  0  0  0  0  0  0  0  0  0  0
   13.5540  -44.5660   -1.6450 C   0  0  0  0  0  0  0  0  0  0  0  0
   14.0410  -45.0710   -0.4730 C   0  0  0  0  0  0  0  0  0  0  0  0
    8.0380  -46.5020    3.5090 C   0  0  0  0  0  0  0  0  0  0  0  0
   13.7490  -46.1020    1.8010 C   0  0  0  0  0  0  0  0  0  0  0  0
   15.7280  -44.2460   -1.6520 C   0  0  0  0  0  0  0  0  0  0  0  0
    7.9040  -42.1320    1.4780 C   0  0  0  0  0  0  0  0  0  0  0  0
    6.1730  -43.5540    3.4870 C   0  0  0  0  0  0  0  0  0  0  0  0
   10.9630  -48.2390   -0.0680 C   0  0  0  0  0  0  0  0  0  0  0  0
    9.7360  -48.2680    2.0130 C   0  0  0  0  0  0  0  0  0  0  0  0
   10.8210  -46.0610    1.3010 C   0  0  0  0  0  0  0  0  0  0  0  0
    8.4550  -43.1240    2.4500 C   0  0  0  0  0  0  0  0  0  0  0  0
    7.4270  -44.1730    2.8620 C   0  0  0  0  0  0  0  0  0  0  0  0
    8.0350  -45.1340    3.7710 N   0  0  0  0  0  0  0  0  0  0  0  0
   10.8180  -47.5770    1.2740 N   0  0  0  0  0  0  0  0  0  0  0  0
   14.7890  -45.5190    2.2480 O   0  0  0  0  0  0  0  0  0  0  0  0
    7.2350  -47.0020    2.7250 O   0  0  0  0  0  0  0  0  0  0  0  0
   13.1430  -47.0500    2.3700 O   0  0  0  0  0  0  0  0  0  0  0  0
   14.5680  -44.1390   -2.4920 O   0  0  0  0  0  0  0  0  0  0  0  0
   15.4380  -45.0110   -0.4540 O   0  0  0  0  0  0  0  0  0  0  0  0
   10.3926  -47.9357    7.3035 H   0  0  0  0  0  0  0  0  0  0  0  0
   11.8615  -49.4508    5.9908 H   0  0  0  0  0  0  0  0  0  0  0  0
    8.6317  -46.5994    6.1940 H   0  0  0  0  0  0  0  0  0  0  0  0
   11.5336  -49.6052    3.5214 H   0  0  0  0  0  0  0  0  0  0  0  0
   10.2397  -44.9588   -1.0837 H   0  0  0  0  0  0  0  0  0  0  0  0
   11.8013  -44.1125   -2.8285 H   0  0  0  0  0  0  0  0  0  0  0  0
   16.5317  -44.7466   -2.2118 H   0  0  0  0  0  0  0  0  0  0  0  0
   16.0368  -43.2334   -1.3531 H   0  0  0  0  0  0  0  0  0  0  0  0
    7.4412  -41.2988    2.0271 H   0  0  0  0  0  0  0  0  0  0  0  0
    8.7177  -41.7473    0.8456 H   0  0  0  0  0  0  0  0  0  0  0  0
    7.1474  -42.6196    0.8456 H   0  0  0  0  0  0  0  0  0  0  0  0
    6.2523  -43.5931    4.5834 H   0  0  0  0  0  0  0  0  0  0  0  0
    6.0806  -42.5068    3.1632 H   0  0  0  0  0  0  0  0  0  0  0  0
    5.2855  -44.1175    3.1632 H   0  0  0  0  0  0  0  0  0  0  0  0
   11.1964  -49.3048    0.0722 H   0  0  0  0  0  0  0  0  0  0  0  0
   10.0220  -48.1405   -0.6290 H   0  0  0  0  0  0  0  0  0  0  0  0
   11.7767  -47.7561   -0.6290 H   0  0  0  0  0  0  0  0  0  0  0  0
    9.7290  -49.3282    1.7200 H   0  0  0  0  0  0  0  0  0  0  0  0
    8.7866  -47.7741    1.7585 H   0  0  0  0  0  0  0  0  0  0  0  0
   11.1070  -45.7153    2.3053 H   0  0  0  0  0  0  0  0  0  0  0  0
    9.8144  -45.6938    1.0522 H   0  0  0  0  0  0  0  0  0  0  0  0
    9.3122  -43.6337    1.9858 H   0  0  0  0  0  0  0  0  0  0  0  0
    8.7522  -42.5744    3.3553 H   0  0  0  0  0  0  0  0  0  0  0  0
    7.0999  -44.6905    1.9481 H   0  0  0  0  0  0  0  0  0  0  0  0
    8.4772  -44.7912    4.6358 H   0  0  0  0  0  0  0  0  0  0  0  0
   11.6962  -47.7063    1.7964 H   0  0  0  0  0  0  0  0  0  0  0  0
   13.1135  -47.0962    3.3585 H   0  0  0  0  0  0  0  0  0  0  0  0
  1  2  2  0
  1  3  1  0
  2  4  1  0
  3  7  2  0
  4  9  2  0
  5  6  2  0
  5 10  1  0
  6 11  1  0
  7  9  1  0
  7 13  1  0
  8 10  2  0
  8 12  1  0
  8 14  1  0
  9 19  1  0
 10 20  1  0
 11 12  2  0
 11 28  1  0
 12 29  1  0
 13 23  1  0
 13 26  2  0
 14 25  2  0
 14 27  1  0
 15 28  1  0
 15 29  1  0
 16 21  1  0
 17 22  1  0
 18 24  1  0
 19 24  1  0
 20 24  1  0
 21 22  1  0
 22 23  1  0
  1 30  1  0
  2 31  1  0
  3 32  1  0
  4 33  1  0
  5 34  1  0
  6 35  1  0
 15 36  1  0
 15 37  1  0
 16 38  1  0
 16 39  1  0
 16 40  1  0
 17 41  1  0
 17 42  1  0
 17 43  1  0
 18 44  1  0
 18 45  1  0
 18 46  1  0
 19 47  1  0
 19 48  1  0
 20 49  1  0
 20 50  1  0
 21 51  1  0
 21 52  1  0
 22 53  1  0
 23 54  1  0
 24 55  1  0
 27 56  1  0
M  CHG  1  24   1
A    1
C1
A    2
C2
A    3
C3
A    4
C4
A    5
C5
A    6
C6
A    7
C7
A    8
C8
A    9
C9
A   10
C10
A   11
C11
A   12
C12
A   13
C13
A   14
C14
A   15
C15
A   16
C16
A   17
C17
A   18
C18
A   19
C19
A   20
C20
A   21
C21
A   22
C22
A   23
N23
A   24
N24
A   25
O25
A   26
O26
A   27
O27
A   28
O28
A   29
O29
M  END
