3ZT1_OM1_A_1215
     RDKit          3D

 58 61  0  0  0  0  0  0  0  0999 V2000
  -11.3470   35.0940    5.8460 C   0  0  0  0  0  0  0  0  0  0  0  0
  -12.4430   34.7230    5.0920 C   0  0  0  0  0  0  0  0  0  0  0  0
  -10.2650   35.7270    5.2500 C   0  0  0  0  0  0  0  0  0  0  0  0
  -12.4470   34.9780    3.7310 C   0  0  0  0  0  0  0  0  0  0  0  0
   -9.3550   33.1610   -1.4380 C   0  0  0  0  0  0  0  0  0  0  0  0
   -5.8750   34.4380    1.7680 C   0  0  0  0  0  0  0  0  0  0  0  0
   -6.7990   36.2310    0.5030 C   0  0  0  0  0  0  0  0  0  0  0  0
   -9.3180   32.2300   -2.4700 C   0  0  0  0  0  0  0  0  0  0  0  0
   -5.6950   33.6950    0.6150 C   0  0  0  0  0  0  0  0  0  0  0  0
   -6.6250   35.5060   -0.6540 C   0  0  0  0  0  0  0  0  0  0  0  0
  -10.2760   35.9790    3.8840 C   0  0  0  0  0  0  0  0  0  0  0  0
  -10.5860   31.6370   -0.0180 C   0  0  0  0  0  0  0  0  0  0  0  0
   -6.4290   35.7020    1.7200 C   0  0  0  0  0  0  0  0  0  0  0  0
  -11.3740   35.5990    3.1290 C   0  0  0  0  0  0  0  0  0  0  0  0
   -9.9760   32.8820   -0.2220 C   0  0  0  0  0  0  0  0  0  0  0  0
   -9.9340   31.0150   -2.2570 C   0  0  0  0  0  0  0  0  0  0  0  0
  -10.5390   30.7240   -1.0670 C   0  0  0  0  0  0  0  0  0  0  0  0
   -6.0780   34.2390   -0.5970 C   0  0  0  0  0  0  0  0  0  0  0  0
   -9.1020   36.6510    3.2680 C   0  0  0  0  0  0  0  0  0  0  0  0
  -11.2660   31.2650    1.2650 C   0  0  0  0  0  0  0  0  0  0  0  0
  -10.5350   28.9280   -2.3310 C   0  0  0  0  0  0  0  0  0  0  0  0
   -5.5900   32.1990   -1.6480 C   0  0  0  0  0  0  0  0  0  0  0  0
   -6.6280   36.4890    2.9800 C   0  0  0  0  0  0  0  0  0  0  0  0
  -11.4570   35.8400    1.6540 C   0  0  0  0  0  0  0  0  0  0  0  0
   -9.9500   33.9800    0.8020 C   0  0  0  0  0  0  0  0  0  0  0  0
   -7.8860   36.0860    3.5800 N   0  0  0  0  0  0  0  0  0  0  0  0
  -11.3040   34.5930    0.8470 N   0  0  0  0  0  0  0  0  0  0  0  0
  -11.2110   30.0470    1.6240 O   0  0  0  0  0  0  0  0  0  0  0  0
   -9.2340   37.6360    2.5420 O   0  0  0  0  0  0  0  0  0  0  0  0
  -11.8280   32.1900    1.9190 O   0  0  0  0  0  0  0  0  0  0  0  0
  -10.0050   29.9760   -3.1650 O   0  0  0  0  0  0  0  0  0  0  0  0
  -11.0750   29.4530   -1.0910 O   0  0  0  0  0  0  0  0  0  0  0  0
   -5.9530   33.5750   -1.8080 O   0  0  0  0  0  0  0  0  0  0  0  0
  -11.3314   34.8865    6.9261 H   0  0  0  0  0  0  0  0  0  0  0  0
  -13.3037   34.2301    5.5676 H   0  0  0  0  0  0  0  0  0  0  0  0
   -9.3998   36.0287    5.8587 H   0  0  0  0  0  0  0  0  0  0  0  0
  -13.3154   34.6819    3.1242 H   0  0  0  0  0  0  0  0  0  0  0  0
   -8.8819   34.1431   -1.5851 H   0  0  0  0  0  0  0  0  0  0  0  0
   -5.5723   34.0156    2.7375 H   0  0  0  0  0  0  0  0  0  0  0  0
   -7.2363   37.2392    0.4556 H   0  0  0  0  0  0  0  0  0  0  0  0
   -8.8153   32.4547   -3.4223 H   0  0  0  0  0  0  0  0  0  0  0  0
   -5.2545   32.6881    0.6617 H   0  0  0  0  0  0  0  0  0  0  0  0
   -6.9211   35.9350   -1.6226 H   0  0  0  0  0  0  0  0  0  0  0  0
  -11.3358   28.4080   -2.8771 H   0  0  0  0  0  0  0  0  0  0  0  0
   -9.7151   28.2376   -2.0838 H   0  0  0  0  0  0  0  0  0  0  0  0
   -5.5266   31.9587   -0.5764 H   0  0  0  0  0  0  0  0  0  0  0  0
   -6.3507   31.5616   -2.1223 H   0  0  0  0  0  0  0  0  0  0  0  0
   -4.6138   32.0198   -2.1223 H   0  0  0  0  0  0  0  0  0  0  0  0
   -5.8023   36.2870    3.6781 H   0  0  0  0  0  0  0  0  0  0  0  0
   -6.6458   37.5653    2.7536 H   0  0  0  0  0  0  0  0  0  0  0  0
  -12.4365   36.2860    1.4268 H   0  0  0  0  0  0  0  0  0  0  0  0
  -10.6269   36.5093    1.3839 H   0  0  0  0  0  0  0  0  0  0  0  0
   -9.6941   33.5656    1.7883 H   0  0  0  0  0  0  0  0  0  0  0  0
   -9.1955   34.7350    0.5361 H   0  0  0  0  0  0  0  0  0  0  0  0
   -7.8682   35.3320    4.2814 H   0  0  0  0  0  0  0  0  0  0  0  0
  -11.9503   33.8908    1.2345 H   0  0  0  0  0  0  0  0  0  0  0  0
  -11.5018   34.8763   -0.1233 H   0  0  0  0  0  0  0  0  0  0  0  0
  -11.2005   29.8146    2.5863 H   0  0  0  0  0  0  0  0  0  0  0  0
  1  2  2  0
  1  3  1  0
  2  4  1  0
  3 11  2  0
  4 14  2  0
  5  8  2  0
  5 15  1  0
  6  9  2  0
  6 13  1  0
  7 10  1  0
  7 13  2  0
  8 16  1  0
  9 18  1  0
 10 18  2  0
 11 14  1  0
 11 19  1  0
 12 15  2  0
 12 17  1  0
 12 20  1  0
 13 23  1  0
 14 24  1  0
 15 25  1  0
 16 17  2  0
 16 31  1  0
 17 32  1  0
 18 33  1  0
 19 26  1  0
 19 29  2  0
 20 28  1  0
 20 30  2  0
 21 31  1  0
 21 32  1  0
 22 33  1  0
 23 26  1  0
 24 27  1  0
 25 27  1  0
  1 34  1  0
  2 35  1  0
  3 36  1  0
  4 37  1  0
  5 38  1  0
  6 39  1  0
  7 40  1  0
  8 41  1  0
  9 42  1  0
 10 43  1  0
 21 44  1  0
 21 45  1  0
 22 46  1  0
 22 47  1  0
 22 48  1  0
 23 49  1  0
 23 50  1  0
 24 51  1  0
 24 52  1  0
 25 53  1  0
 25 54  1  0
 26 55  1  0
 27 56  1  0
 27 57  1  0
 28 58  1  0
M  CHG  1  27   1
A    1
C15
A    2
C16
A    3
C14
A    4
C17
A    5
C23
A    6
C6
A    7
C10
A    8
C24
A    9
C7
A   10
C9
A   11
C13
A   12
C30
A   13
C5
A   14
C18
A   15
C22
A   16
C25
A   17
C29
A   18
C8
A   19
C2
A   20
C31
A   21
C27
A   22
C12
A   23
C4
A   24
C19
A   25
C21
A   26
N3
A   27
N20
A   28
O33
A   29
O1
A   30
O32
A   31
O26
A   32
O28
A   33
O11
M  END
