3ZT2_ZT2_A_1216
     RDKit          3D

 35 38  0  0  0  0  0  0  0  0999 V2000
  -31.0220   28.6060    0.4650 C   0  0  0  0  0  0  0  0  0  0  0  0
  -31.3000   27.4720   -0.2810 C   0  0  0  0  0  0  0  0  0  0  0  0
  -31.8480   29.7120    0.3510 C   0  0  0  0  0  0  0  0  0  0  0  0
  -33.1840   32.2220    1.8450 C   0  0  0  0  0  0  0  0  0  0  0  0
  -32.4000   27.4850   -1.0960 C   0  0  0  0  0  0  0  0  0  0  0  0
  -32.4520   32.8150    2.8790 C   0  0  0  0  0  0  0  0  0  0  0  0
  -32.9340   29.7270   -0.4920 C   0  0  0  0  0  0  0  0  0  0  0  0
  -33.3240   32.7580    0.5900 C   0  0  0  0  0  0  0  0  0  0  0  0
  -32.7430   34.0160    0.3250 C   0  0  0  0  0  0  0  0  0  0  0  0
  -33.2130   28.5940   -1.2240 C   0  0  0  0  0  0  0  0  0  0  0  0
  -31.8660   34.0070    2.5600 C   0  0  0  0  0  0  0  0  0  0  0  0
  -32.0150   34.5880    1.3400 C   0  0  0  0  0  0  0  0  0  0  0  0
  -33.9430   30.7310   -0.7880 C   0  0  0  0  0  0  0  0  0  0  0  0
  -34.9150   30.1040   -1.7170 C   0  0  0  0  0  0  0  0  0  0  0  0
  -34.1500   32.0360   -0.4180 C   0  0  0  0  0  0  0  0  0  0  0  0
  -32.8460   34.6660   -1.0390 C   0  0  0  0  0  0  0  0  0  0  0  0
  -34.4110   28.7400   -2.0820 C   0  0  0  0  0  0  0  0  0  0  0  0
  -30.6430   35.7000    2.4880 C   0  0  0  0  0  0  0  0  0  0  0  0
  -31.8180   35.2260   -1.4970 O   0  0  0  0  0  0  0  0  0  0  0  0
  -35.9610   30.6070   -2.1200 O   0  0  0  0  0  0  0  0  0  0  0  0
  -33.9450   34.5890   -1.7000 O   0  0  0  0  0  0  0  0  0  0  0  0
  -31.0870   34.7500    3.3480 O   0  0  0  0  0  0  0  0  0  0  0  0
  -31.3650   35.7920    1.2490 O   0  0  0  0  0  0  0  0  0  0  0  0
  -30.1543   28.6277    1.1408 H   0  0  0  0  0  0  0  0  0  0  0  0
  -30.6535   26.5841   -0.2200 H   0  0  0  0  0  0  0  0  0  0  0  0
  -31.6284   30.6058    0.9534 H   0  0  0  0  0  0  0  0  0  0  0  0
  -33.6802   31.2623    2.0519 H   0  0  0  0  0  0  0  0  0  0  0  0
  -32.6452   26.5791   -1.6698 H   0  0  0  0  0  0  0  0  0  0  0  0
  -32.3555   32.3561    3.8740 H   0  0  0  0  0  0  0  0  0  0  0  0
  -34.9767   32.5828   -0.8950 H   0  0  0  0  0  0  0  0  0  0  0  0
  -34.1440   28.6881   -3.1478 H   0  0  0  0  0  0  0  0  0  0  0  0
  -35.1557   27.9449   -1.9300 H   0  0  0  0  0  0  0  0  0  0  0  0
  -30.7103   36.6745    2.9938 H   0  0  0  0  0  0  0  0  0  0  0  0
  -29.6155   35.4123    2.2208 H   0  0  0  0  0  0  0  0  0  0  0  0
  -31.1389   35.5960   -0.8789 H   0  0  0  0  0  0  0  0  0  0  0  0
  1  2  2  0
  1  3  1  0
  2  5  1  0
  3  7  2  0
  4  6  2  0
  4  8  1  0
  5 10  2  0
  6 11  1  0
  7 10  1  0
  7 13  1  0
  8  9  2  0
  8 15  1  0
  9 12  1  0
  9 16  1  0
 10 17  1  0
 11 12  2  0
 11 22  1  0
 12 23  1  0
 13 14  1  0
 13 15  2  0
 14 17  1  0
 14 20  2  0
 16 19  1  0
 16 21  2  0
 18 22  1  0
 18 23  1  0
  1 24  1  0
  2 25  1  0
  3 26  1  0
  4 27  1  0
  5 28  1  0
  6 29  1  0
 15 30  1  0
 17 31  1  0
 17 32  1  0
 18 33  1  0
 18 34  1  0
 19 35  1  0
A    1
C1
A    2
C2
A    3
C3
A    4
C4
A    5
C5
A    6
C6
A    7
C7
A    8
C8
A    9
C9
A   10
C10
A   11
C11
A   12
C12
A   13
C13
A   14
C14
A   15
C15
A   16
C16
A   17
C17
A   18
C18
A   19
O19
A   20
O20
A   21
O21
A   22
O22
A   23
O23
M  END
