3ZTX_ZTX_A_1357
     RDKit          3D

 58 62  0  0  0  0  0  0  0  0999 V2000
   12.3520    3.0060    5.9460 N   0  0  0  0  0  0  0  0  0  0  0  0
   12.0970    1.8520    5.2710 C   0  0  0  0  0  0  0  0  0  0  0  0
   10.8650    1.5830    4.7750 N   0  0  0  0  0  0  0  0  0  0  0  0
    9.8630    2.4530    4.9120 C   0  0  0  0  0  0  0  0  0  0  0  0
   10.1040    3.6330    5.6180 C   0  0  0  0  0  0  0  0  0  0  0  0
   11.3780    3.8900    6.1410 C   0  0  0  0  0  0  0  0  0  0  0  0
    7.1050    5.3120    6.3280 O   0  0  0  0  0  0  0  0  0  0  0  0
    7.8560    4.3480    6.1110 C   0  0  0  0  0  0  0  0  0  0  0  0
    7.2290    2.9410    6.1050 C   0  0  0  0  0  0  0  0  0  0  0  0
    7.6370    1.8960    5.2620 C   0  0  0  0  0  0  0  0  0  0  0  0
    8.6930    1.9960    4.4040 N   0  0  0  0  0  0  0  0  0  0  0  0
    8.6050    1.4480    3.0320 C   0  0  0  0  0  0  0  0  0  0  0  0
    5.9370    0.4450    6.2400 C   0  0  0  0  0  0  0  0  0  0  0  0
    5.5210    1.4870    7.0770 C   0  0  0  0  0  0  0  0  0  0  0  0
    6.1550    2.7560    7.0080 C   0  0  0  0  0  0  0  0  0  0  0  0
    6.9930    0.6340    5.3360 C   0  0  0  0  0  0  0  0  0  0  0  0
   13.0720    0.9500    5.1330 N   0  0  0  0  0  0  0  0  0  0  0  0
   13.2090   -0.0990    4.3330 C   0  0  0  0  0  0  0  0  0  0  0  0
   12.2440   -0.7450    3.5370 C   0  0  0  0  0  0  0  0  0  0  0  0
   12.6230   -1.8420    2.7530 C   0  0  0  0  0  0  0  0  0  0  0  0
   13.9650   -2.2830    2.8040 C   0  0  0  0  0  0  0  0  0  0  0  0
   14.5120   -3.3540    2.0860 N   0  0  0  0  0  0  0  0  0  0  0  0
   14.9700   -4.5990    2.8000 C   0  0  0  0  0  0  0  0  0  0  0  0
   14.6620   -5.8490    1.9520 C   0  0  0  0  0  0  0  0  0  0  0  0
   14.9940   -5.6520    0.4480 C   0  0  0  0  0  0  0  0  0  0  0  0
   14.5210   -6.7770   -0.2940 O   0  0  0  0  0  0  0  0  0  0  0  0
   14.3210   -4.3890   -0.1240 C   0  0  0  0  0  0  0  0  0  0  0  0
   14.7910   -3.1540    0.6410 C   0  0  0  0  0  0  0  0  0  0  0  0
   14.8930   -1.6420    3.5980 C   0  0  0  0  0  0  0  0  0  0  0  0
   14.5050   -0.5600    4.3460 C   0  0  0  0  0  0  0  0  0  0  0  0
    9.1890    4.5860    5.8680 N   0  0  0  0  0  0  0  0  0  0  0  0
    9.6660    5.9870    5.9020 C   0  0  0  0  0  0  0  0  0  0  0  0
   11.5706    4.8133    6.7070 H   0  0  0  0  0  0  0  0  0  0  0  0
    8.4308    0.3630    3.0810 H   0  0  0  0  0  0  0  0  0  0  0  0
    7.7726    1.9293    2.4976 H   0  0  0  0  0  0  0  0  0  0  0  0
    9.5462    1.6445    2.4976 H   0  0  0  0  0  0  0  0  0  0  0  0
    5.4315   -0.5306    6.2915 H   0  0  0  0  0  0  0  0  0  0  0  0
    4.7002    1.3224    7.7906 H   0  0  0  0  0  0  0  0  0  0  0  0
    5.8159    3.5840    7.6478 H   0  0  0  0  0  0  0  0  0  0  0  0
    7.3201   -0.1923    4.6877 H   0  0  0  0  0  0  0  0  0  0  0  0
   13.8691    1.0968    5.7686 H   0  0  0  0  0  0  0  0  0  0  0  0
   11.2023   -0.3916    3.5309 H   0  0  0  0  0  0  0  0  0  0  0  0
   11.8901   -2.3508    2.1096 H   0  0  0  0  0  0  0  0  0  0  0  0
   16.0542   -4.5381    2.9754 H   0  0  0  0  0  0  0  0  0  0  0  0
   14.4359   -4.6776    3.7584 H   0  0  0  0  0  0  0  0  0  0  0  0
   15.2578   -6.6900    2.3363 H   0  0  0  0  0  0  0  0  0  0  0  0
   13.5824   -6.0447    2.0302 H   0  0  0  0  0  0  0  0  0  0  0  0
   16.0855   -5.5463    0.3613 H   0  0  0  0  0  0  0  0  0  0  0  0
   14.2238   -7.4839    0.3321 H   0  0  0  0  0  0  0  0  0  0  0  0
   14.5882   -4.2832   -1.1858 H   0  0  0  0  0  0  0  0  0  0  0  0
   13.2299   -4.4835   -0.0211 H   0  0  0  0  0  0  0  0  0  0  0  0
   14.2509   -2.2667    0.2791 H   0  0  0  0  0  0  0  0  0  0  0  0
   15.8695   -3.0044    0.4848 H   0  0  0  0  0  0  0  0  0  0  0  0
   15.9342   -1.9952    3.6309 H   0  0  0  0  0  0  0  0  0  0  0  0
   15.2496   -0.0474    4.9727 H   0  0  0  0  0  0  0  0  0  0  0  0
    9.7765    6.3115    6.9472 H   0  0  0  0  0  0  0  0  0  0  0  0
   10.6382    6.0558    5.3920 H   0  0  0  0  0  0  0  0  0  0  0  0
    8.9378    6.6348    5.3920 H   0  0  0  0  0  0  0  0  0  0  0  0
  2  1  2  0
  1  6  1  0
 17  2  1  0
  3  2  1  0
  3  4  2  0
 11  4  1  0
  4  5  1  0
  5  6  2  0
  5 31  1  0
  8  7  2  0
  9  8  1  0
  8 31  1  0
 10  9  2  0
 15  9  1  0
 16 10  1  0
 10 11  1  0
 12 11  1  0
 13 16  2  0
 13 14  1  0
 14 15  2  0
 18 17  1  0
 19 18  2  0
 30 18  1  0
 20 19  1  0
 21 20  2  0
 22 21  1  0
 21 29  1  0
 23 22  1  0
 22 28  1  0
 24 23  1  0
 24 25  1  0
 26 25  1  0
 25 27  1  0
 27 28  1  0
 29 30  2  0
 31 32  1  0
  6 33  1  0
 12 34  1  0
 12 35  1  0
 12 36  1  0
 13 37  1  0
 14 38  1  0
 15 39  1  0
 16 40  1  0
 17 41  1  0
 19 42  1  0
 20 43  1  0
 23 44  1  0
 23 45  1  0
 24 46  1  0
 24 47  1  0
 25 48  1  0
 26 49  1  0
 27 50  1  0
 27 51  1  0
 28 52  1  0
 28 53  1  0
 29 54  1  0
 30 55  1  0
 32 56  1  0
 32 57  1  0
 32 58  1  0
A    1
N1
A    2
C2
A    3
N3
A    4
C4
A    5
C5
A    6
C6
A    7
OAA
A    8
CAB
A    9
CAC
A   10
CAD
A   11
NAE
A   12
CAF
A   13
CAH
A   14
CAI
A   15
CAK
A   16
CAL
A   17
NAN
A   18
CAO
A   19
CAP
A   20
CAQ
A   21
CAR
A   22
NAS
A   23
CAT
A   24
CAU
A   25
CAV
A   26
OAW
A   27
CAX
A   28
CAY
A   29
CAZ
A   30
CBA
A   31
NBG
A   32
CBH
M  END
