3ZV6_4HB_A_1277
     RDKit          3D

 24 25  0  0  0  0  0  0  0  0999 V2000
   19.7930   -1.4530   40.2790 C   0  0  0  0  0  0  0  0  0  0  0  0
   20.7370   -0.4080   40.2710 C   0  0  0  0  0  0  0  0  0  0  0  0
   20.3660    0.9100   40.0150 C   0  0  0  0  0  0  0  0  0  0  0  0
   19.0410    1.2100   39.7610 C   0  0  0  0  0  0  0  0  0  0  0  0
   18.6520    2.4760   39.5050 O   0  0  0  0  0  0  0  0  0  0  0  0
   18.0970    0.2020   39.7600 C   0  0  0  0  0  0  0  0  0  0  0  0
   18.4690   -1.1140   40.0120 C   0  0  0  0  0  0  0  0  0  0  0  0
   20.1520   -2.7890   40.5400 C   0  0  0  0  0  0  0  0  0  0  0  0
   21.4870   -3.1320   40.8160 C   0  0  0  0  0  0  0  0  0  0  0  0
   21.8670   -4.4480   41.0740 C   0  0  0  0  0  0  0  0  0  0  0  0
   20.9240   -5.4670   41.0740 C   0  0  0  0  0  0  0  0  0  0  0  0
   19.5920   -5.1510   40.8030 C   0  0  0  0  0  0  0  0  0  0  0  0
   19.2070   -3.8300   40.5400 C   0  0  0  0  0  0  0  0  0  0  0  0
   21.3140   -6.7530   41.3250 O   0  0  0  0  0  0  0  0  0  0  0  0
   21.7937   -0.6383   40.4719 H   0  0  0  0  0  0  0  0  0  0  0  0
   21.1234    1.7077   40.0150 H   0  0  0  0  0  0  0  0  0  0  0  0
   18.4615    3.0961   40.2528 H   0  0  0  0  0  0  0  0  0  0  0  0
   17.0426    0.4420   39.5583 H   0  0  0  0  0  0  0  0  0  0  0  0
   17.7023   -1.9027   40.0002 H   0  0  0  0  0  0  0  0  0  0  0  0
   22.2516   -2.3413   40.8287 H   0  0  0  0  0  0  0  0  0  0  0  0
   22.9223   -4.6810   41.2792 H   0  0  0  0  0  0  0  0  0  0  0  0
   18.8350   -5.9491   40.7958 H   0  0  0  0  0  0  0  0  0  0  0  0
   18.1510   -3.6041   40.3306 H   0  0  0  0  0  0  0  0  0  0  0  0
   21.4095   -7.0680   42.2587 H   0  0  0  0  0  0  0  0  0  0  0  0
  1  2  2  0
  1  7  1  0
  1  8  1  0
  2  3  1  0
  3  4  2  0
  4  5  1  0
  4  6  1  0
  6  7  2  0
  8  9  2  0
  8 13  1  0
  9 10  1  0
 10 11  2  0
 11 12  1  0
 11 14  1  0
 12 13  2  0
  2 15  1  0
  3 16  1  0
  5 17  1  0
  6 18  1  0
  7 19  1  0
  9 20  1  0
 10 21  1  0
 12 22  1  0
 13 23  1  0
 14 24  1  0
A    1
CA1
A    2
CA2
A    3
CA3
A    4
CA4
A    5
OA4
A    6
CA5
A    7
CA6
A    8
CB1
A    9
CB2
A   10
CB3
A   11
CB4
A   12
CB5
A   13
CB6
A   14
OAM
M  END
