3ZWS_AVQ_A_1402
     RDKit          3D

 31 33  0  0  0  0  0  0  0  0999 V2000
  -31.6600   -9.2190    0.2060 Cl  0  0  0  0  0  0  0  0  0  0  0  0
  -32.6220   -9.4530    1.6130 C   0  0  0  0  0  0  0  0  0  0  0  0
  -33.4230   -8.4110    2.0820 C   0  0  0  0  0  0  0  0  0  0  0  0
  -34.2300   -8.6120    3.2040 C   0  0  0  0  0  0  0  0  0  0  0  0
  -34.1980   -9.8450    3.8400 C   0  0  0  0  0  0  0  0  0  0  0  0
  -35.1460  -10.1680    5.2280 Cl  0  0  0  0  0  0  0  0  0  0  0  0
  -33.4040  -10.8850    3.3720 C   0  0  0  0  0  0  0  0  0  0  0  0
  -32.6090  -10.7010    2.2400 C   0  0  0  0  0  0  0  0  0  0  0  0
  -31.7510  -11.8890    1.7980 C   0  0  0  0  0  0  0  0  0  0  0  0
  -32.3000  -12.5900    0.2170 S   0  0  0  0  0  0  0  0  0  0  0  0
  -33.3160  -13.8200    0.8680 C   0  0  0  0  0  0  0  0  0  0  0  0
  -33.9730  -14.6740    0.0970 N   0  0  0  0  0  0  0  0  0  0  0  0
  -33.5040  -14.1220    2.1660 N   0  0  0  0  0  0  0  0  0  0  0  0
  -34.2420  -15.1220    2.1930 N   0  0  0  0  0  0  0  0  0  0  0  0
  -34.5520  -15.5300    0.8830 C   0  0  0  0  0  0  0  0  0  0  0  0
  -35.3370  -16.5900    0.6550 N   0  0  0  0  0  0  0  0  0  0  0  0
  -35.8290  -17.3170    1.6720 C   0  0  0  0  0  0  0  0  0  0  0  0
  -36.7260  -18.5150    1.3750 C   0  0  0  0  0  0  0  0  0  0  0  0
  -35.5710  -16.9600    2.9970 C   0  0  0  0  0  0  0  0  0  0  0  0
  -34.7570  -15.8730    3.2500 C   0  0  0  0  0  0  0  0  0  0  0  0
  -34.4530  -15.4920    4.5050 O   0  0  0  0  0  0  0  0  0  0  0  0
  -33.4188   -7.4369    1.5709 H   0  0  0  0  0  0  0  0  0  0  0  0
  -34.8798   -7.8067    3.5772 H   0  0  0  0  0  0  0  0  0  0  0  0
  -33.4022  -11.8533    3.8939 H   0  0  0  0  0  0  0  0  0  0  0  0
  -30.7092  -11.5521    1.6921 H   0  0  0  0  0  0  0  0  0  0  0  0
  -31.8456  -12.6736    2.5632 H   0  0  0  0  0  0  0  0  0  0  0  0
  -37.0626  -18.9645    2.3209 H   0  0  0  0  0  0  0  0  0  0  0  0
  -37.6000  -18.1838    0.7950 H   0  0  0  0  0  0  0  0  0  0  0  0
  -36.1621  -19.2604    0.7950 H   0  0  0  0  0  0  0  0  0  0  0  0
  -36.0089  -17.5351    3.8261 H   0  0  0  0  0  0  0  0  0  0  0  0
  -34.8397  -15.9766    5.2768 H   0  0  0  0  0  0  0  0  0  0  0  0
  1  2  1  0
  2  3  2  0
  2  8  1  0
  3  4  1  0
  4  5  2  0
  5  6  1  0
  5  7  1  0
  7  8  2  0
  8  9  1  0
  9 10  1  0
 10 11  1  0
 11 12  1  0
 11 13  2  0
 12 15  2  0
 13 14  1  0
 14 15  1  0
 14 20  1  0
 15 16  1  0
 16 17  2  0
 17 18  1  0
 17 19  1  0
 19 20  2  0
 20 21  1  0
  3 22  1  0
  4 23  1  0
  7 24  1  0
  9 25  1  0
  9 26  1  0
 18 27  1  0
 18 28  1  0
 18 29  1  0
 19 30  1  0
 21 31  1  0
A    1
CLD
A    2
CAQ
A    3
CAF
A    4
CAE
A    5
CAO
A    6
CLC
A    7
CAH
A    8
CAR
A    9
CAI
A   10
SAM
A   11
CAS
A   12
NAK
A   13
NAL
A   14
NAU
A   15
CAT
A   16
NAJ
A   17
CAN
A   18
CAA
A   19
CAG
A   20
CAP
A   21
OAB
M  END
