3ZWT_KFZ_A_1401
     RDKit          3D

 34 36  0  0  0  0  0  0  0  0999 V2000
  -31.7840   -8.9550    0.0020 Cl  0  0  0  0  0  0  0  0  0  0  0  0
  -32.7100   -9.2230    1.4300 C   0  0  0  0  0  0  0  0  0  0  0  0
  -33.5580   -8.2310    1.9250 C   0  0  0  0  0  0  0  0  0  0  0  0
  -34.3170   -8.4900    3.0690 C   0  0  0  0  0  0  0  0  0  0  0  0
  -34.2120   -9.7240    3.6980 C   0  0  0  0  0  0  0  0  0  0  0  0
  -35.1400  -10.0610    5.1060 Cl  0  0  0  0  0  0  0  0  0  0  0  0
  -33.3620  -10.7080    3.1940 C   0  0  0  0  0  0  0  0  0  0  0  0
  -32.6080  -10.4670    2.0470 C   0  0  0  0  0  0  0  0  0  0  0  0
  -31.6730  -11.5800    1.5390 C   0  0  0  0  0  0  0  0  0  0  0  0
  -32.2510  -12.4180    0.0300 S   0  0  0  0  0  0  0  0  0  0  0  0
  -33.2670  -13.6280    0.7260 C   0  0  0  0  0  0  0  0  0  0  0  0
  -33.8940  -14.5220   -0.0240 N   0  0  0  0  0  0  0  0  0  0  0  0
  -33.5330  -13.8080    2.0230 N   0  0  0  0  0  0  0  0  0  0  0  0
  -34.2760  -14.8000    2.1010 N   0  0  0  0  0  0  0  0  0  0  0  0
  -34.5050  -15.3110    0.8100 C   0  0  0  0  0  0  0  0  0  0  0  0
  -35.2470  -16.3870    0.6080 N   0  0  0  0  0  0  0  0  0  0  0  0
  -35.8060  -17.0690    1.6270 C   0  0  0  0  0  0  0  0  0  0  0  0
  -36.6300  -18.3300    1.3080 C   0  0  0  0  0  0  0  0  0  0  0  0
  -35.6370  -19.5350    1.2430 C   0  0  0  0  0  0  0  0  0  0  0  0
  -35.6180  -16.6190    2.9510 C   0  0  0  0  0  0  0  0  0  0  0  0
  -34.8440  -15.4900    3.1720 C   0  0  0  0  0  0  0  0  0  0  0  0
  -34.6130  -15.0290    4.4250 O   0  0  0  0  0  0  0  0  0  0  0  0
  -33.6279   -7.2562    1.4201 H   0  0  0  0  0  0  0  0  0  0  0  0
  -34.9940   -7.7210    3.4694 H   0  0  0  0  0  0  0  0  0  0  0  0
  -33.2863  -11.6794    3.7044 H   0  0  0  0  0  0  0  0  0  0  0  0
  -30.6895  -11.1340    1.3295 H   0  0  0  0  0  0  0  0  0  0  0  0
  -31.6379  -12.3449    2.3287 H   0  0  0  0  0  0  0  0  0  0  0  0
  -37.3766  -18.5006    2.0976 H   0  0  0  0  0  0  0  0  0  0  0  0
  -37.1621  -18.2140    0.3523 H   0  0  0  0  0  0  0  0  0  0  0  0
  -35.3766  -19.8510    2.2639 H   0  0  0  0  0  0  0  0  0  0  0  0
  -36.1109  -20.3723    0.7097 H   0  0  0  0  0  0  0  0  0  0  0  0
  -34.7246  -19.2299    0.7097 H   0  0  0  0  0  0  0  0  0  0  0  0
  -36.0780  -17.1551    3.7942 H   0  0  0  0  0  0  0  0  0  0  0  0
  -34.8838  -15.5694    5.2090 H   0  0  0  0  0  0  0  0  0  0  0  0
  1  2  1  0
  2  3  2  0
  2  8  1  0
  3  4  1  0
  4  5  2  0
  5  6  1  0
  5  7  1  0
  7  8  2  0
  8  9  1  0
  9 10  1  0
 10 11  1  0
 11 12  1  0
 11 13  2  0
 12 15  2  0
 13 14  1  0
 14 15  1  0
 14 21  1  0
 15 16  1  0
 16 17  2  0
 17 18  1  0
 17 20  1  0
 18 19  1  0
 20 21  2  0
 21 22  1  0
  3 23  1  0
  4 24  1  0
  7 25  1  0
  9 26  1  0
  9 27  1  0
 18 28  1  0
 18 29  1  0
 19 30  1  0
 19 31  1  0
 19 32  1  0
 20 33  1  0
 22 34  1  0
A    1
CL1
A    2
CAQ
A    3
CAF
A    4
CAE
A    5
CAO
A    6
CL2
A    7
CAG
A    8
CAS
A    9
CAJ
A   10
SAN
A   11
CAT
A   12
NAL
A   13
NAM
A   14
NAV
A   15
CAU
A   16
NAK
A   17
CAR
A   18
CAI
A   19
CAA
A   20
CAH
A   21
CAP
A   22
OAB
M  END
