3ZYH_G0S_A_202
     RDKit          3D

 30 30  0  0  0  0  0  0  0  0999 V2000
    8.5580  -18.5960  -37.2060 C   0  0  0  0  0  0  0  0  0  0  0  0
    7.1480  -18.3790  -36.6890 C   0  0  0  0  0  0  0  0  0  0  0  0
    6.2600  -18.0540  -37.7430 O   0  0  0  0  0  0  0  0  0  0  0  0
    7.1350  -17.3300  -35.6740 C   0  0  0  0  0  0  0  0  0  0  0  0
    5.9050  -16.7260  -35.2680 O   0  0  0  0  0  0  0  0  0  0  0  0
    8.2240  -17.1740  -34.7790 C   0  0  0  0  0  0  0  0  0  0  0  0
    7.8640  -17.9760  -33.6440 O   0  0  0  0  0  0  0  0  0  0  0  0
    9.5690  -17.5610  -35.3510 C   0  0  0  0  0  0  0  0  0  0  0  0
    9.4960  -18.7680  -36.1890 O   0  0  0  0  0  0  0  0  0  0  0  0
   10.5740  -17.7560  -34.3180 C   0  0  0  0  0  0  0  0  0  0  0  0
   11.8690  -17.9300  -34.7750 O   0  0  0  0  0  0  0  0  0  0  0  0
    8.5580  -20.0040  -38.2580 S   0  0  0  0  0  0  0  0  0  0  0  0
    9.8530  -19.6770  -39.4160 C   0  0  0  0  0  0  0  0  0  0  0  0
    9.7330  -18.4470  -40.2590 C   0  0  0  0  0  0  0  0  0  0  0  0
    8.8555  -17.6893  -37.7532 H   0  0  0  0  0  0  0  0  0  0  0  0
    6.8054  -19.3199  -36.2336 H   0  0  0  0  0  0  0  0  0  0  0  0
    5.4006  -17.7395  -37.3653 H   0  0  0  0  0  0  0  0  0  0  0  0
    7.4425  -16.6478  -36.4802 H   0  0  0  0  0  0  0  0  0  0  0  0
    5.8590  -16.7034  -34.2793 H   0  0  0  0  0  0  0  0  0  0  0  0
    8.3721  -16.1133  -34.5280 H   0  0  0  0  0  0  0  0  0  0  0  0
    8.0834  -17.4871  -32.8116 H   0  0  0  0  0  0  0  0  0  0  0  0
    9.8707  -16.7119  -35.9819 H   0  0  0  0  0  0  0  0  0  0  0  0
   10.5615  -16.8735  -33.6614 H   0  0  0  0  0  0  0  0  0  0  0  0
   10.3049  -18.6917  -33.8060 H   0  0  0  0  0  0  0  0  0  0  0  0
   12.4831  -18.0125  -34.0029 H   0  0  0  0  0  0  0  0  0  0  0  0
   10.7908  -19.5959  -38.8469 H   0  0  0  0  0  0  0  0  0  0  0  0
    9.8063  -20.5117  -40.1309 H   0  0  0  0  0  0  0  0  0  0  0  0
    9.6468  -17.5639  -39.6089 H   0  0  0  0  0  0  0  0  0  0  0  0
   10.6259  -18.3491  -40.8940 H   0  0  0  0  0  0  0  0  0  0  0  0
    8.8381  -18.5236  -40.8940 H   0  0  0  0  0  0  0  0  0  0  0  0
  1  2  1  0
  1  9  1  0
  1 12  1  0
  2  3  1  0
  2  4  1  0
  4  5  1  0
  4  6  1  0
  6  7  1  0
  6  8  1  0
  8  9  1  0
  8 10  1  0
 10 11  1  0
 12 13  1  0
 13 14  1  0
  1 15  1  0
  2 16  1  0
  3 17  1  0
  4 18  1  0
  5 19  1  0
  6 20  1  0
  7 21  1  0
  8 22  1  0
 10 23  1  0
 10 24  1  0
 11 25  1  0
 13 26  1  0
 13 27  1  0
 14 28  1  0
 14 29  1  0
 14 30  1  0
A    1
C1
A    2
C2
A    3
O2
A    4
C3
A    5
O3
A    6
C4
A    7
O4
A    8
C5
A    9
O5
A   10
C6
A   11
O6
A   12
S1
A   13
C1A
A   14
C2A
M  END
