4A07_AZ7_A_600
     RDKit          3D

 37 39  0  0  0  0  0  0  0  0999 V2000
  -14.8340   40.3470  -14.9250 Cl  0  0  0  0  0  0  0  0  0  0  0  0
  -14.0750   40.0760  -13.3220 C   0  0  0  0  0  0  0  0  0  0  0  0
  -14.8510   39.4990  -12.3180 C   0  0  0  0  0  0  0  0  0  0  0  0
  -14.3240   39.2600  -11.0540 C   0  0  0  0  0  0  0  0  0  0  0  0
  -15.3320   38.5200   -9.7700 Cl  0  0  0  0  0  0  0  0  0  0  0  0
  -12.7400   40.4380  -13.1180 C   0  0  0  0  0  0  0  0  0  0  0  0
  -12.1310   40.2340  -11.8840 C   0  0  0  0  0  0  0  0  0  0  0  0
  -10.9100   40.4620  -11.3800 N   0  0  0  0  0  0  0  0  0  0  0  0
  -10.8700   40.0400  -10.0960 C   0  0  0  0  0  0  0  0  0  0  0  0
  -12.0840   39.5540   -9.7290 N   0  0  0  0  0  0  0  0  0  0  0  0
  -12.9110   39.6310  -10.7900 C   0  0  0  0  0  0  0  0  0  0  0  0
   -9.6720   40.1640   -9.1790 C   0  0  0  0  0  0  0  0  0  0  0  0
   -8.7960   38.9360   -8.8930 C   0  0  0  0  0  0  0  0  0  0  0  0
   -7.4480   39.0430   -9.6050 C   0  0  0  0  0  0  0  0  0  0  0  0
   -6.4800   38.1020   -8.9190 C   0  0  0  0  0  0  0  0  0  0  0  0
   -5.9230   37.2090   -9.5970 O   0  0  0  0  0  0  0  0  0  0  0  0
   -6.2790   38.2470   -7.6920 O   0  0  0  0  0  0  0  0  0  0  0  0
   -9.3750   37.5910   -9.1530 C   0  0  0  0  0  0  0  0  0  0  0  0
   -8.7660   36.7590  -10.0910 C   0  0  0  0  0  0  0  0  0  0  0  0
   -9.2630   35.4840  -10.3380 C   0  0  0  0  0  0  0  0  0  0  0  0
  -10.3620   35.0290   -9.6160 C   0  0  0  0  0  0  0  0  0  0  0  0
  -11.0120   33.3790   -9.9180 Cl  0  0  0  0  0  0  0  0  0  0  0  0
  -10.9570   35.8520   -8.6610 C   0  0  0  0  0  0  0  0  0  0  0  0
  -10.4600   37.1280   -8.4190 C   0  0  0  0  0  0  0  0  0  0  0  0
  -15.8962   39.2287  -12.5291 H   0  0  0  0  0  0  0  0  0  0  0  0
  -12.1658   40.8884  -13.9411 H   0  0  0  0  0  0  0  0  0  0  0  0
  -12.3305   39.1887   -8.7980 H   0  0  0  0  0  0  0  0  0  0  0  0
   -9.0140   40.9288   -9.6173 H   0  0  0  0  0  0  0  0  0  0  0  0
  -10.1232   40.3870   -8.2009 H   0  0  0  0  0  0  0  0  0  0  0  0
   -8.6930   38.9817   -7.7988 H   0  0  0  0  0  0  0  0  0  0  0  0
   -7.5603   38.7579  -10.6615 H   0  0  0  0  0  0  0  0  0  0  0  0
   -7.0731   40.0762   -9.5599 H   0  0  0  0  0  0  0  0  0  0  0  0
   -6.8811   37.8127   -7.0370 H   0  0  0  0  0  0  0  0  0  0  0  0
   -7.8828   37.1148  -10.6417 H   0  0  0  0  0  0  0  0  0  0  0  0
   -8.7921   34.8415  -11.0966 H   0  0  0  0  0  0  0  0  0  0  0  0
  -11.8270   35.4890   -8.0941 H   0  0  0  0  0  0  0  0  0  0  0  0
  -10.9226   37.7663   -7.6518 H   0  0  0  0  0  0  0  0  0  0  0  0
  1  2  1  0
  2  3  2  0
  2  6  1  0
  3  4  1  0
  4  5  1  0
  4 11  2  0
  6  7  2  0
  7  8  1  0
  7 11  1  0
  8  9  2  0
  9 10  1  0
  9 12  1  0
 10 11  1  0
 12 13  1  0
 13 14  1  0
 13 18  1  0
 14 15  1  0
 15 16  2  0
 15 17  1  0
 18 19  2  0
 18 24  1  0
 19 20  1  0
 20 21  2  0
 21 22  1  0
 21 23  1  0
 23 24  2  0
  3 25  1  0
  6 26  1  0
 10 27  1  0
 12 28  1  0
 12 29  1  0
 13 30  1  0
 14 31  1  0
 14 32  1  0
 17 33  1  0
 19 34  1  0
 20 35  1  0
 23 36  1  0
 24 37  1  0
A    1
CL6
A    2
C5
A    3
C6
A    4
C1
A    5
CL5
A    6
C4
A    7
C3
A    8
N9
A    9
C8
A   10
N7
A   11
C2
A   12
C10
A   13
C11
A   14
C19
A   15
C20
A   16
O22
A   17
O21
A   18
C12
A   19
C17
A   20
C16
A   21
C15
A   22
CL9
A   23
C14
A   24
C13
M  END
