1QJ3_KAP_A_1430
     RDKit          3D

 30 29  0  0  0  0  0  0  0  0999 V2000
   23.7660   -4.9350   18.9730 C   0  0  0  0  0  0  0  0  0  0  0  0
   24.8580   -3.8890   19.1510 C   0  0  0  0  0  0  0  0  0  0  0  0
   24.5920   -2.6610   19.0160 O   0  0  0  0  0  0  0  0  0  0  0  0
   26.0320   -4.2220   19.4320 O   0  0  0  0  0  0  0  0  0  0  0  0
   22.5100   -4.2820   18.4040 C   0  0  0  0  0  0  0  0  0  0  0  0
   21.2950   -4.6010   19.2580 C   0  0  0  0  0  0  0  0  0  0  0  0
   20.2350   -3.4880   19.1230 C   0  0  0  0  0  0  0  0  0  0  0  0
   19.0550   -4.1200   19.8150 C   0  0  0  0  0  0  0  0  0  0  0  0
   18.3450   -3.3220   20.8370 C   0  0  0  0  0  0  0  0  0  0  0  0
   18.8090   -2.4090   21.9910 C   0  0  0  0  0  0  0  0  0  0  0  0
   19.7870   -1.3530   21.6310 C   0  0  0  0  0  0  0  0  0  0  0  0
   17.1180   -3.4490   20.8100 O   0  0  0  0  0  0  0  0  0  0  0  0
   19.3470   -3.4320   22.9230 N   0  0  0  0  0  0  0  0  0  0  0  0
   24.1171   -5.7149   18.2812 H   0  0  0  0  0  0  0  0  0  0  0  0
   23.5308   -5.3831   19.9497 H   0  0  0  0  0  0  0  0  0  0  0  0
   24.4684   -2.0905   19.8156 H   0  0  0  0  0  0  0  0  0  0  0  0
   22.6531   -3.1917   18.3753 H   0  0  0  0  0  0  0  0  0  0  0  0
   22.3390   -4.6755   17.3911 H   0  0  0  0  0  0  0  0  0  0  0  0
   20.8611   -5.5566   18.9283 H   0  0  0  0  0  0  0  0  0  0  0  0
   21.6071   -4.6705   20.3105 H   0  0  0  0  0  0  0  0  0  0  0  0
   20.5528   -2.5653   19.6305 H   0  0  0  0  0  0  0  0  0  0  0  0
   20.0367   -3.1776   18.0865 H   0  0  0  0  0  0  0  0  0  0  0  0
   18.3224   -4.3842   19.0382 H   0  0  0  0  0  0  0  0  0  0  0  0
   19.4825   -4.9662   20.3729 H   0  0  0  0  0  0  0  0  0  0  0  0
   18.0060   -1.7751   22.3953 H   0  0  0  0  0  0  0  0  0  0  0  0
   20.1997   -0.9074   22.5481 H   0  0  0  0  0  0  0  0  0  0  0  0
   20.6022   -1.7946   21.0390 H   0  0  0  0  0  0  0  0  0  0  0  0
   19.2843   -0.5741   21.0390 H   0  0  0  0  0  0  0  0  0  0  0  0
   19.1877   -3.1291   23.8945 H   0  0  0  0  0  0  0  0  0  0  0  0
   18.8689   -4.3298   22.7605 H   0  0  0  0  0  0  0  0  0  0  0  0
  1  2  1  0
  1  5  1  0
  2  3  1  0
  2  4  2  0
  5  6  1  0
  6  7  1  0
  7  8  1  0
  8  9  1  0
  9 10  1  0
  9 12  2  0
 10 11  1  0
 10 13  1  0
  1 14  1  0
  1 15  1  0
  3 16  1  0
  5 17  1  0
  5 18  1  0
  6 19  1  0
  6 20  1  0
  7 21  1  0
  7 22  1  0
  8 23  1  0
  8 24  1  0
 10 25  1  0
 11 26  1  0
 11 27  1  0
 11 28  1  0
 13 29  1  0
 13 30  1  0
A    1
CA
A    2
C
A    3
OI1
A    4
OI2
A    5
CB
A    6
CG
A    7
CD
A    8
CE
A    9
CZ
A   10
CH
A   11
CS
A   12
O
A   13
N
M  END
