4A23_C56_A_1542
     RDKit          3D

 33 33  0  0  0  0  0  0  0  0999 V2000
   29.9990   21.3310   10.5810 O   0  0  0  0  0  0  0  0  0  0  0  0
   30.7600   22.2710   10.7700 C   0  0  0  0  0  0  0  0  0  0  0  0
   31.8940   22.4740    9.7840 C   0  0  0  0  0  0  0  0  0  0  0  0
   32.9430   23.3900    9.9280 C   0  0  0  0  0  0  0  0  0  0  0  0
   33.0660   24.2280   11.0080 O   0  0  0  0  0  0  0  0  0  0  0  0
   34.3360   24.8490   11.2090 C   0  0  0  0  0  0  0  0  0  0  0  0
   33.9350   23.4990    8.9600 C   0  0  0  0  0  0  0  0  0  0  0  0
   33.9180   22.6940    7.8400 C   0  0  0  0  0  0  0  0  0  0  0  0
   34.9470   22.8820    6.8950 N   0  0  0  0  0  0  0  0  0  0  0  0
   36.1440   23.6680    7.1720 C   0  0  0  0  0  0  0  0  0  0  0  0
   34.9270   22.3110    5.5600 C   0  0  0  0  0  0  0  0  0  0  0  0
   32.8670   21.7900    7.6960 C   0  0  0  0  0  0  0  0  0  0  0  0
   32.7390   20.9330    6.6100 N   0  0  0  0  0  0  0  0  0  0  0  0
   33.4540   19.7460    6.6660 O   0  0  0  0  0  0  0  0  0  0  0  0
   31.9840   21.2190    5.6980 O   0  0  0  0  0  0  0  0  0  0  0  0
   31.8760   21.6810    8.6540 C   0  0  0  0  0  0  0  0  0  0  0  0
   30.5640   23.0840   11.8150 N   0  0  0  0  0  0  0  0  0  0  0  0
   29.4630   22.8650   12.7470 C   0  0  0  0  0  0  0  0  0  0  0  0
   34.5310   24.9443   12.2874 H   0  0  0  0  0  0  0  0  0  0  0  0
   35.1222   24.2337   10.7472 H   0  0  0  0  0  0  0  0  0  0  0  0
   34.3332   25.8474   10.7472 H   0  0  0  0  0  0  0  0  0  0  0  0
   34.7422   24.2352    9.0887 H   0  0  0  0  0  0  0  0  0  0  0  0
   36.2803   23.7575    8.2599 H   0  0  0  0  0  0  0  0  0  0  0  0
   37.0202   23.1689    6.7325 H   0  0  0  0  0  0  0  0  0  0  0  0
   36.0343   24.6704    6.7325 H   0  0  0  0  0  0  0  0  0  0  0  0
   34.8886   21.2140    5.6310 H   0  0  0  0  0  0  0  0  0  0  0  0
   34.0410   22.6747    5.0189 H   0  0  0  0  0  0  0  0  0  0  0  0
   35.8362   22.6118    5.0189 H   0  0  0  0  0  0  0  0  0  0  0  0
   31.0630   20.9533    8.5141 H   0  0  0  0  0  0  0  0  0  0  0  0
   31.2020   23.8787   11.9640 H   0  0  0  0  0  0  0  0  0  0  0  0
   29.8361   22.9392   13.7791 H   0  0  0  0  0  0  0  0  0  0  0  0
   28.6862   23.6262   12.5823 H   0  0  0  0  0  0  0  0  0  0  0  0
   29.0367   21.8645   12.5823 H   0  0  0  0  0  0  0  0  0  0  0  0
  1  2  2  0
  2  3  1  0
  2 17  1  0
  3  4  2  0
  3 16  1  0
  4  5  1  0
  4  7  1  0
  5  6  1  0
  7  8  2  0
  8  9  1  0
  8 12  1  0
  9 10  1  0
  9 11  1  0
 12 13  1  0
 12 16  2  0
 13 14  1  0
 13 15  2  0
 17 18  1  0
  6 19  1  0
  6 20  1  0
  6 21  1  0
  7 22  1  0
 10 23  1  0
 10 24  1  0
 10 25  1  0
 11 26  1  0
 11 27  1  0
 11 28  1  0
 16 29  1  0
 17 30  1  0
 18 31  1  0
 18 32  1  0
 18 33  1  0
M  CHG  2  13   1  14  -1
A    1
O16
A    2
C15
A    3
C2
A    4
C3
A    5
O13
A    6
C14
A    7
C4
A    8
C5
A    9
N10
A   10
C12
A   11
C11
A   12
C6
A   13
N7
A   14
O9
A   15
O8
A   16
C1
A   17
N17
A   18
C18
M  END
