2OVH_AS0_A_301
     RDKit          3D

 68 72  0  0  0  0  0  0  0  0999 V2000
   30.0600   -5.2290   26.5090 C   0  0  0  0  0  0  0  0  0  0  0  0
   28.1860   -3.8290   26.7850 C   0  0  0  0  0  0  0  0  0  0  0  0
   27.4980   -2.4080   26.6940 C   0  0  0  0  0  0  0  0  0  0  0  0
   27.7900   -1.7420   25.3170 C   0  0  0  0  0  0  0  0  0  0  0  0
   28.8530   -0.5940   25.5690 C   0  0  0  0  0  0  0  0  0  0  0  0
   29.5820   -3.8430   26.4560 O   0  0  0  0  0  0  0  0  0  0  0  0
   29.2020   -0.5850   27.0650 C   0  0  0  0  0  0  0  0  0  0  0  0
   29.5970    0.7110   27.9050 C   0  0  0  0  0  0  0  0  0  0  0  0
   30.9250    1.0870   27.1840 C   0  0  0  0  0  0  0  0  0  0  0  0
   31.5750    2.3060   27.8810 C   0  0  0  0  0  0  0  0  0  0  0  0
   31.9030    1.9950   29.3260 C   0  0  0  0  0  0  0  0  0  0  0  0
   32.9920    2.5700   29.9010 C   0  0  0  0  0  0  0  0  0  0  0  0
   33.3940    2.2980   31.3280 C   0  0  0  0  0  0  0  0  0  0  0  0
   34.3780    2.8470   31.8250 O   0  0  0  0  0  0  0  0  0  0  0  0
   32.5450    1.3100   32.1480 C   0  0  0  0  0  0  0  0  0  0  0  0
   31.2770    0.7100   31.4730 C   0  0  0  0  0  0  0  0  0  0  0  0
   30.9820    1.0420   30.0180 C   0  0  0  0  0  0  0  0  0  0  0  0
   29.8950    0.4380   29.4090 C   0  0  0  0  0  0  0  0  0  0  0  0
   28.9290   -0.5510   30.1320 C   0  0  0  0  0  0  0  0  0  0  0  0
   28.3670   -1.7080   29.2110 C   0  0  0  0  0  0  0  0  0  0  0  0
   28.0110   -1.3050   27.7130 C   0  0  0  0  0  0  0  0  0  0  0  0
   26.8050   -0.3410   27.8610 C   0  0  0  0  0  0  0  0  0  0  0  0
   27.7710    0.1820   30.9080 C   0  0  0  0  0  0  0  0  0  0  0  0
   27.6390    1.6210   30.9000 C   0  0  0  0  0  0  0  0  0  0  0  0
   26.6070    2.2600   31.6410 C   0  0  0  0  0  0  0  0  0  0  0  0
   25.6910    1.5070   32.3940 C   0  0  0  0  0  0  0  0  0  0  0  0
   24.6520    2.2220   33.1440 C   0  0  0  0  0  0  0  0  0  0  0  0
   23.7560    1.5830   33.8560 N   0  0  0  0  0  0  0  0  0  0  0  0
   22.8070    2.3170   34.5610 O   0  0  0  0  0  0  0  0  0  0  0  0
   25.7850    0.0720   32.4190 C   0  0  0  0  0  0  0  0  0  0  0  0
   26.8220   -0.5840   31.6730 C   0  0  0  0  0  0  0  0  0  0  0  0
   26.0520   -2.6180   26.9720 O   0  0  0  0  0  0  0  0  0  0  0  0
   25.6000   -3.9970   27.2970 C   0  0  0  0  0  0  0  0  0  0  0  0
   30.1673   -5.5400   27.5587 H   0  0  0  0  0  0  0  0  0  0  0  0
   29.3365   -5.8859   26.0040 H   0  0  0  0  0  0  0  0  0  0  0  0
   31.0346   -5.3003   26.0040 H   0  0  0  0  0  0  0  0  0  0  0  0
   27.6645   -4.5068   26.0932 H   0  0  0  0  0  0  0  0  0  0  0  0
   28.1124   -4.1422   27.8369 H   0  0  0  0  0  0  0  0  0  0  0  0
   28.1976   -2.4863   24.6170 H   0  0  0  0  0  0  0  0  0  0  0  0
   26.8686   -1.3320   24.8778 H   0  0  0  0  0  0  0  0  0  0  0  0
   29.7590   -0.7884   24.9762 H   0  0  0  0  0  0  0  0  0  0  0  0
   28.4395    0.3801   25.2688 H   0  0  0  0  0  0  0  0  0  0  0  0
   30.2055   -1.0343   27.0980 H   0  0  0  0  0  0  0  0  0  0  0  0
   28.7948    1.4633   27.9294 H   0  0  0  0  0  0  0  0  0  0  0  0
   31.6164    0.2324   27.2239 H   0  0  0  0  0  0  0  0  0  0  0  0
   30.7089    1.3415   26.1359 H   0  0  0  0  0  0  0  0  0  0  0  0
   32.5017    2.5712   27.3510 H   0  0  0  0  0  0  0  0  0  0  0  0
   30.8629    3.1441   27.8563 H   0  0  0  0  0  0  0  0  0  0  0  0
   33.6036    3.2606   29.3018 H   0  0  0  0  0  0  0  0  0  0  0  0
   33.1974    0.4694   32.4268 H   0  0  0  0  0  0  0  0  0  0  0  0
   32.1568    1.9071   32.9863 H   0  0  0  0  0  0  0  0  0  0  0  0
   31.3642   -0.3844   31.5414 H   0  0  0  0  0  0  0  0  0  0  0  0
   30.4445    1.1754   32.0210 H   0  0  0  0  0  0  0  0  0  0  0  0
   29.5656   -1.0480   30.8788 H   0  0  0  0  0  0  0  0  0  0  0  0
   29.1248   -2.5044   29.1730 H   0  0  0  0  0  0  0  0  0  0  0  0
   27.4135   -2.0108   29.6684 H   0  0  0  0  0  0  0  0  0  0  0  0
   26.5972   -0.1749   28.9283 H   0  0  0  0  0  0  0  0  0  0  0  0
   27.0420    0.6194   27.3798 H   0  0  0  0  0  0  0  0  0  0  0  0
   25.9205   -0.7838   27.3798 H   0  0  0  0  0  0  0  0  0  0  0  0
   28.3445    2.2288   30.3144 H   0  0  0  0  0  0  0  0  0  0  0  0
   26.5251    3.3568   31.6243 H   0  0  0  0  0  0  0  0  0  0  0  0
   24.6244    3.3211   33.1078 H   0  0  0  0  0  0  0  0  0  0  0  0
   22.8130    2.3124   35.5510 H   0  0  0  0  0  0  0  0  0  0  0  0
   25.0669   -0.5194   33.0060 H   0  0  0  0  0  0  0  0  0  0  0  0
   26.8919   -1.6817   31.6862 H   0  0  0  0  0  0  0  0  0  0  0  0
   25.5592   -4.1216   28.3892 H   0  0  0  0  0  0  0  0  0  0  0  0
   24.5998   -4.1649   26.8711 H   0  0  0  0  0  0  0  0  0  0  0  0
   26.3067   -4.7244   26.8711 H   0  0  0  0  0  0  0  0  0  0  0  0
  1  6  1  0
  2  6  1  0
  2  3  1  0
  3  4  1  0
  3 32  1  0
  3 21  1  0
  4  5  1  0
  5  7  1  0
  7 21  1  0
  7  8  1  0
  8  9  1  0
  8 18  1  0
  9 10  1  0
 10 11  1  0
 11 12  2  0
 11 17  1  0
 12 13  1  0
 13 14  2  0
 13 15  1  0
 15 16  1  0
 16 17  1  0
 17 18  2  0
 18 19  1  0
 19 20  1  0
 19 23  1  0
 20 21  1  0
 21 22  1  0
 23 24  2  0
 23 31  1  0
 24 25  1  0
 25 26  2  0
 26 30  1  0
 26 27  1  0
 27 28  2  0
 28 29  1  0
 30 31  2  0
 32 33  1  0
  1 34  1  0
  1 35  1  0
  1 36  1  0
  2 37  1  0
  2 38  1  0
  4 39  1  0
  4 40  1  0
  5 41  1  0
  5 42  1  0
  7 43  1  0
  8 44  1  0
  9 45  1  0
  9 46  1  0
 10 47  1  0
 10 48  1  0
 12 49  1  0
 15 50  1  0
 15 51  1  0
 16 52  1  0
 16 53  1  0
 19 54  1  0
 20 55  1  0
 20 56  1  0
 22 57  1  0
 22 58  1  0
 22 59  1  0
 24 60  1  0
 25 61  1  0
 27 62  1  0
 29 63  1  0
 30 64  1  0
 31 65  1  0
 33 66  1  0
 33 67  1  0
 33 68  1  0
A    1
C1
A    2
C3
A    3
C4
A    4
C5
A    5
C6
A    6
O2
A    7
C7
A    8
C8
A    9
C9
A   10
C10
A   11
C11
A   12
C12
A   13
C13
A   14
O14
A   15
C15
A   16
C16
A   17
C17
A   18
C18
A   19
C19
A   20
C20
A   21
C21
A   22
C22
A   23
C23
A   24
C24
A   25
C25
A   26
C26
A   27
C27
A   28
N28
A   29
O29
A   30
C30
A   31
C31
A   32
O32
A   33
C33
M  END
