4A4O_664_A_1332
     RDKit          3D

 62 66  0  0  0  0  0  0  0  0999 V2000
   10.6770   42.6400    8.1170 N   0  0  0  0  0  0  0  0  0  0  0  0
   10.8770   44.0220    8.3330 C   0  0  0  0  0  0  0  0  0  0  0  0
   10.0820   41.9210    9.0040 C   0  0  0  0  0  0  0  0  0  0  0  0
   10.4630   44.5850    9.4260 N   0  0  0  0  0  0  0  0  0  0  0  0
   11.5380   44.7730    7.3180 N   0  0  0  0  0  0  0  0  0  0  0  0
    9.8000   43.8630   10.4470 C   0  0  0  0  0  0  0  0  0  0  0  0
    9.6000   42.5410   10.2550 C   0  0  0  0  0  0  0  0  0  0  0  0
    9.3260   44.5630   11.6970 C   0  0  0  0  0  0  0  0  0  0  0  0
   11.8620   46.1710    7.3880 C   0  0  0  0  0  0  0  0  0  0  0  0
   13.4550   48.0540    7.0520 C   0  0  0  0  0  0  0  0  0  0  0  0
   13.1030   46.5870    6.9840 C   0  0  0  0  0  0  0  0  0  0  0  0
   12.5550   48.9470    7.5030 C   0  0  0  0  0  0  0  0  0  0  0  0
   10.8810   47.1720    7.8840 C   0  0  0  0  0  0  0  0  0  0  0  0
   11.1980   48.4970    7.9410 C   0  0  0  0  0  0  0  0  0  0  0  0
   14.0210   45.5940    6.5010 O   0  0  0  0  0  0  0  0  0  0  0  0
   10.2500   49.4520    8.4050 N   0  0  0  0  0  0  0  0  0  0  0  0
    8.7950   49.1770    8.2200 C   0  0  0  0  0  0  0  0  0  0  0  0
    7.9090   49.9670    9.2000 C   0  0  0  0  0  0  0  0  0  0  0  0
    8.4090   51.3520    9.3020 N   0  0  0  0  0  0  0  0  0  0  0  0
    9.7140   51.3240    9.9620 C   0  0  0  0  0  0  0  0  0  0  0  0
   10.7470   50.6960    9.0260 C   0  0  0  0  0  0  0  0  0  0  0  0
    7.4900   52.1480   10.1110 C   0  0  0  0  0  0  0  0  0  0  0  0
   14.3900   45.6570    5.0820 C   0  0  0  0  0  0  0  0  0  0  0  0
   15.3110   46.6730    4.8560 F   0  0  0  0  0  0  0  0  0  0  0  0
   13.2590   45.8580    4.2880 F   0  0  0  0  0  0  0  0  0  0  0  0
   14.9710   44.4510    4.7260 F   0  0  0  0  0  0  0  0  0  0  0  0
    9.7520   45.8590   12.1770 N   0  0  0  0  0  0  0  0  0  0  0  0
    8.4020   44.0700   12.5580 C   0  0  0  0  0  0  0  0  0  0  0  0
    8.2460   45.0960   13.6040 C   0  0  0  0  0  0  0  0  0  0  0  0
    9.0500   46.1270   13.3500 C   0  0  0  0  0  0  0  0  0  0  0  0
    9.1450   47.3680   14.2190 C   0  0  0  0  0  0  0  0  0  0  0  0
    8.0320   47.3960   15.3420 C   0  0  0  0  0  0  0  0  0  0  0  0
    7.4530   46.0730   15.6860 N   0  0  0  0  0  0  0  0  0  0  0  0
    7.3580   45.0780   14.7740 C   0  0  0  0  0  0  0  0  0  0  0  0
    6.5320   44.1890   14.9290 O   0  0  0  0  0  0  0  0  0  0  0  0
   10.7230   46.7590   11.5760 C   0  0  0  0  0  0  0  0  0  0  0  0
    9.9326   40.8451    8.8302 H   0  0  0  0  0  0  0  0  0  0  0  0
   11.8066   44.2701    6.4602 H   0  0  0  0  0  0  0  0  0  0  0  0
    9.0869   41.9364   11.0173 H   0  0  0  0  0  0  0  0  0  0  0  0
   14.4509   48.3939    6.7316 H   0  0  0  0  0  0  0  0  0  0  0  0
   12.8190   50.0138    7.5497 H   0  0  0  0  0  0  0  0  0  0  0  0
    9.8846   46.8388    8.2099 H   0  0  0  0  0  0  0  0  0  0  0  0
    8.5134   49.4511    7.1926 H   0  0  0  0  0  0  0  0  0  0  0  0
    8.6328   48.1068    8.4160 H   0  0  0  0  0  0  0  0  0  0  0  0
    6.8724   49.9768    8.8321 H   0  0  0  0  0  0  0  0  0  0  0  0
    7.9398   49.4903   10.1908 H   0  0  0  0  0  0  0  0  0  0  0  0
   10.0210   52.3507   10.2104 H   0  0  0  0  0  0  0  0  0  0  0  0
    9.6452   50.7278   10.8838 H   0  0  0  0  0  0  0  0  0  0  0  0
   11.6550   50.4663    9.6028 H   0  0  0  0  0  0  0  0  0  0  0  0
   10.9569   51.4160    8.2213 H   0  0  0  0  0  0  0  0  0  0  0  0
    7.6935   51.9717   11.1775 H   0  0  0  0  0  0  0  0  0  0  0  0
    7.6301   53.2148    9.8824 H   0  0  0  0  0  0  0  0  0  0  0  0
    6.4541   51.8570    9.8824 H   0  0  0  0  0  0  0  0  0  0  0  0
    7.8780   43.1052   12.4899 H   0  0  0  0  0  0  0  0  0  0  0  0
   10.1342   47.3892   14.6997 H   0  0  0  0  0  0  0  0  0  0  0  0
    8.9956   48.2456   13.5728 H   0  0  0  0  0  0  0  0  0  0  0  0
    8.4779   47.8206   16.2536 H   0  0  0  0  0  0  0  0  0  0  0  0
    7.2042   47.9979   14.9388 H   0  0  0  0  0  0  0  0  0  0  0  0
    7.1145   45.9081   16.6447 H   0  0  0  0  0  0  0  0  0  0  0  0
   11.2823   47.2774   12.3688 H   0  0  0  0  0  0  0  0  0  0  0  0
   11.4212   46.1815   10.9523 H   0  0  0  0  0  0  0  0  0  0  0  0
   10.2001   47.4990   10.9523 H   0  0  0  0  0  0  0  0  0  0  0  0
  1  2  2  0
  1  3  1  0
  2  4  1  0
  2  5  1  0
  4  6  2  0
  6  7  1  0
  6  8  1  0
  7  3  2  0
  5  9  1  0
  9 11  1  0
  9 13  2  0
 11 10  2  0
 11 15  1  0
 10 12  1  0
 12 14  2  0
 14 13  1  0
 14 16  1  0
 15 23  1  0
 16 17  1  0
 16 21  1  0
 17 18  1  0
 18 19  1  0
 19 20  1  0
 19 22  1  0
 20 21  1  0
 23 24  1  0
 23 25  1  0
 23 26  1  0
  8 27  1  0
  8 28  2  0
 27 30  1  0
 27 36  1  0
 28 29  1  0
 29 30  2  0
 29 34  1  0
 30 31  1  0
 31 32  1  0
 32 33  1  0
 33 34  1  0
 34 35  2  0
  3 37  1  0
  5 38  1  0
  7 39  1  0
 10 40  1  0
 12 41  1  0
 13 42  1  0
 17 43  1  0
 17 44  1  0
 18 45  1  0
 18 46  1  0
 20 47  1  0
 20 48  1  0
 21 49  1  0
 21 50  1  0
 22 51  1  0
 22 52  1  0
 22 53  1  0
 28 54  1  0
 31 55  1  0
 31 56  1  0
 32 57  1  0
 32 58  1  0
 33 59  1  0
 36 60  1  0
 36 61  1  0
 36 62  1  0
A    1
N1
A    2
C2
A    3
C6
A    4
N3
A    5
N7
A    6
C4
A    7
C5
A    8
C26
A    9
C8
A   10
C10
A   11
C9
A   12
C11
A   13
C13
A   14
C12
A   15
O14
A   16
N15
A   17
C16
A   18
C17
A   19
N18
A   20
C19
A   21
C20
A   22
C21
A   23
C22
A   24
F23
A   25
F24
A   26
F25
A   27
N27
A   28
C28
A   29
C29
A   30
C30
A   31
C31
A   32
C32
A   33
N33
A   34
C34
A   35
O35
A   36
C36
M  END
