4A4X_JUP_A_1280
     RDKit          3D

 65 68  0  0  0  0  0  0  0  0999 V2000
    1.2240  -11.2850   16.2510 C   0  0  0  0  0  0  0  0  0  0  0  0
    1.8890  -10.7920   14.9790 C   0  0  0  0  0  0  0  0  0  0  0  0
    2.9760   -9.9420   15.2640 O   0  0  0  0  0  0  0  0  0  0  0  0
    3.5980   -9.1700   14.2160 C   0  0  0  0  0  0  0  0  0  0  0  0
    2.8980   -8.8900   13.0130 C   0  0  0  0  0  0  0  0  0  0  0  0
    3.5500   -8.1440   11.9820 C   0  0  0  0  0  0  0  0  0  0  0  0
    2.8640   -7.8730   10.7770 C   0  0  0  0  0  0  0  0  0  0  0  0
    2.2650   -8.9380   10.0870 C   0  0  0  0  0  0  0  0  0  0  0  0
    1.5690   -8.6450    8.8940 C   0  0  0  0  0  0  0  0  0  0  0  0
    0.9680   -9.6480    8.1500 C   0  0  0  0  0  0  0  0  0  0  0  0
    0.4320   -9.6100    6.8680 C   0  0  0  0  0  0  0  0  0  0  0  0
   -0.1010  -10.7660    6.3910 C   0  0  0  0  0  0  0  0  0  0  0  0
   -0.7060  -10.9090    4.9660 C   0  0  0  0  0  0  0  0  0  0  0  0
   -2.1260  -10.4630    4.8300 N   0  0  0  0  0  0  0  0  0  0  0  0
   -2.1770   -9.4200    3.8330 C   0  0  0  0  0  0  0  0  0  0  0  0
   -2.9190  -11.6100    4.3570 C   0  0  0  0  0  0  0  0  0  0  0  0
   -0.0600  -11.8900    7.2330 C   0  0  0  0  0  0  0  0  0  0  0  0
    0.7490  -11.2700    8.6110 S   0  0  0  0  0  0  0  0  0  0  0  0
    1.5100   -7.2860    8.4460 C   0  0  0  0  0  0  0  0  0  0  0  0
    2.0900   -6.2920    9.1310 N   0  0  0  0  0  0  0  0  0  0  0  0
    2.7650   -6.5400   10.2860 C   0  0  0  0  0  0  0  0  0  0  0  0
    3.3890   -5.4350   10.9960 N   0  0  0  0  0  0  0  0  0  0  0  0
    4.8640   -7.6810   12.1690 C   0  0  0  0  0  0  0  0  0  0  0  0
    5.5420   -7.9430   13.3750 C   0  0  0  0  0  0  0  0  0  0  0  0
    4.9140   -8.6910   14.3890 C   0  0  0  0  0  0  0  0  0  0  0  0
    5.6360   -8.9640   15.6410 C   0  0  0  0  0  0  0  0  0  0  0  0
    5.0290   -9.8180   16.6440 N   0  0  0  0  0  0  0  0  0  0  0  0
    6.7150   -8.4760   15.8100 O   0  0  0  0  0  0  0  0  0  0  0  0
    2.1380  -11.9040   13.9750 C   0  0  0  0  0  0  0  0  0  0  0  0
    3.3500  -12.6220   14.0180 C   0  0  0  0  0  0  0  0  0  0  0  0
    3.6150  -13.6560   13.0940 C   0  0  0  0  0  0  0  0  0  0  0  0
    2.6380  -13.9780   12.1330 C   0  0  0  0  0  0  0  0  0  0  0  0
    1.3850  -13.2650   12.1100 C   0  0  0  0  0  0  0  0  0  0  0  0
    1.1370  -12.2410   13.0240 C   0  0  0  0  0  0  0  0  0  0  0  0
   -0.1850  -11.4830   12.9270 C   0  0  0  0  0  0  0  0  0  0  0  0
   -0.8750  -11.4330   14.0880 F   0  0  0  0  0  0  0  0  0  0  0  0
    0.0310  -10.1920   12.5510 F   0  0  0  0  0  0  0  0  0  0  0  0
   -0.9080  -12.1140   12.0240 F   0  0  0  0  0  0  0  0  0  0  0  0
    1.7616  -10.8864   17.1240 H   0  0  0  0  0  0  0  0  0  0  0  0
    0.1793  -10.9414   16.2755 H   0  0  0  0  0  0  0  0  0  0  0  0
    1.2491  -12.3844   16.2755 H   0  0  0  0  0  0  0  0  0  0  0  0
    1.1811  -10.1460   14.4390 H   0  0  0  0  0  0  0  0  0  0  0  0
    1.8653   -9.2431   12.8756 H   0  0  0  0  0  0  0  0  0  0  0  0
    2.3355   -9.9690   10.4638 H   0  0  0  0  0  0  0  0  0  0  0  0
    0.4388   -8.6881    6.2679 H   0  0  0  0  0  0  0  0  0  0  0  0
   -0.0938  -10.3111    4.2748 H   0  0  0  0  0  0  0  0  0  0  0  0
   -0.7009  -11.9853    4.7387 H   0  0  0  0  0  0  0  0  0  0  0  0
   -2.2249   -8.4398    4.3299 H   0  0  0  0  0  0  0  0  0  0  0  0
   -1.2754   -9.4689    3.2047 H   0  0  0  0  0  0  0  0  0  0  0  0
   -3.0695   -9.5566    3.2047 H   0  0  0  0  0  0  0  0  0  0  0  0
   -3.3059  -12.1696    5.2213 H   0  0  0  0  0  0  0  0  0  0  0  0
   -3.7605  -11.2478    3.7482 H   0  0  0  0  0  0  0  0  0  0  0  0
   -2.2830  -12.2694    3.7482 H   0  0  0  0  0  0  0  0  0  0  0  0
   -0.4466  -12.9042    7.0543 H   0  0  0  0  0  0  0  0  0  0  0  0
    0.9739   -7.0523    7.5143 H   0  0  0  0  0  0  0  0  0  0  0  0
    3.3958   -5.4229   12.0259 H   0  0  0  0  0  0  0  0  0  0  0  0
    3.8242   -4.6644   10.4690 H   0  0  0  0  0  0  0  0  0  0  0  0
    5.3640   -7.1124   11.3710 H   0  0  0  0  0  0  0  0  0  0  0  0
    6.5633   -7.5629   13.5250 H   0  0  0  0  0  0  0  0  0  0  0  0
    5.1708   -9.6185   17.6445 H   0  0  0  0  0  0  0  0  0  0  0  0
    4.4561  -10.6240   16.3558 H   0  0  0  0  0  0  0  0  0  0  0  0
    4.1005  -12.3731   14.7827 H   0  0  0  0  0  0  0  0  0  0  0  0
    4.5698  -14.2014   13.1245 H   0  0  0  0  0  0  0  0  0  0  0  0
    2.8307  -14.7743   11.3990 H   0  0  0  0  0  0  0  0  0  0  0  0
    0.6192  -13.5305   11.3663 H   0  0  0  0  0  0  0  0  0  0  0  0
  1  2  1  0
  2  3  1  0
  2 29  1  0
  3  4  1  0
  4  5  2  0
  4 25  1  0
  5  6  1  0
  6  7  1  0
  6 23  2  0
  7  8  2  0
  7 21  1  0
  8  9  1  0
  9 10  1  0
  9 19  2  0
 10 11  2  0
 10 18  1  0
 11 12  1  0
 12 13  1  0
 12 17  2  0
 13 14  1  0
 14 15  1  0
 14 16  1  0
 17 18  1  0
 19 20  1  0
 20 21  2  0
 21 22  1  0
 23 24  1  0
 24 25  2  0
 25 26  1  0
 26 27  1  0
 26 28  2  0
 29 30  2  0
 29 34  1  0
 30 31  1  0
 31 32  2  0
 32 33  1  0
 33 34  2  0
 34 35  1  0
 35 36  1  0
 35 37  1  0
 35 38  1  0
  1 39  1  0
  1 40  1  0
  1 41  1  0
  2 42  1  0
  5 43  1  0
  8 44  1  0
 11 45  1  0
 13 46  1  0
 13 47  1  0
 15 48  1  0
 15 49  1  0
 15 50  1  0
 16 51  1  0
 16 52  1  0
 16 53  1  0
 17 54  1  0
 19 55  1  0
 22 56  1  0
 22 57  1  0
 23 58  1  0
 24 59  1  0
 27 60  1  0
 27 61  1  0
 30 62  1  0
 31 63  1  0
 32 64  1  0
 33 65  1  0
A    1
C01
A    2
C02
A    3
O03
A    4
C04
A    5
C05
A    6
C06
A    7
C07
A    8
C08
A    9
C09
A   10
C10
A   11
C11
A   12
C12
A   13
C13
A   14
N14
A   15
C15
A   16
C16
A   17
C17
A   18
S18
A   19
C19
A   20
N20
A   21
C21
A   22
N22
A   23
C23
A   24
C24
A   25
C25
A   26
C26
A   27
N27
A   28
O28
A   29
C29
A   30
C30
A   31
C31
A   32
C32
A   33
C33
A   34
C34
A   35
C35
A   36
F36
A   37
F37
A   38
F38
M  END
