4A50_DQ6_A_1367
     RDKit          3D

 52 54  0  0  0  0  0  0  0  0999 V2000
   17.0020    6.4490  -21.4200 C   0  0  0  0  0  0  0  0  0  0  0  0
   16.0530    7.3010  -22.2550 C   0  0  0  0  0  0  0  0  0  0  0  0
   14.8670    6.7420  -22.7280 C   0  0  0  0  0  0  0  0  0  0  0  0
   16.3840    8.6290  -22.5260 C   0  0  0  0  0  0  0  0  0  0  0  0
   15.5140    9.4030  -23.2900 C   0  0  0  0  0  0  0  0  0  0  0  0
   14.3190    8.8480  -23.7550 C   0  0  0  0  0  0  0  0  0  0  0  0
   13.9990    7.5070  -23.5030 C   0  0  0  0  0  0  0  0  0  0  0  0
   12.6600    6.9340  -24.0310 C   0  0  0  0  0  0  0  0  0  0  0  0
   12.6170    5.4500  -24.4310 C   0  0  0  0  0  0  0  0  0  0  0  0
   11.4160    4.7470  -24.3130 C   0  0  0  0  0  0  0  0  0  0  0  0
   11.3210    3.4100  -24.6990 C   0  0  0  0  0  0  0  0  0  0  0  0
   12.4380    2.7720  -25.2320 C   0  0  0  0  0  0  0  0  0  0  0  0
   13.6340    3.4760  -25.3700 C   0  0  0  0  0  0  0  0  0  0  0  0
   13.7200    4.8160  -24.9900 C   0  0  0  0  0  0  0  0  0  0  0  0
   11.6140    7.2090  -22.9450 C   0  0  0  0  0  0  0  0  0  0  0  0
   12.1320    6.7850  -21.5750 C   0  0  0  0  0  0  0  0  0  0  0  0
   11.0500    6.9250  -20.5150 C   0  0  0  0  0  0  0  0  0  0  0  0
   11.5590    6.2960  -19.1840 C   0  0  0  0  0  0  0  0  0  0  0  0
   11.6000    5.0320  -19.0960 O   0  0  0  0  0  0  0  0  0  0  0  0
   11.9420    7.0970  -18.2920 O   0  0  0  0  0  0  0  0  0  0  0  0
   10.7630    8.3670  -20.4110 N   0  0  0  0  0  0  0  0  0  0  0  0
   12.2230    7.6390  -25.3130 C   0  0  0  0  0  0  0  0  0  0  0  0
   13.0940    7.7000  -26.3980 C   0  0  0  0  0  0  0  0  0  0  0  0
   12.7160    8.3560  -27.5660 C   0  0  0  0  0  0  0  0  0  0  0  0
   11.4470    8.9160  -27.6500 C   0  0  0  0  0  0  0  0  0  0  0  0
   10.5640    8.8300  -26.5740 C   0  0  0  0  0  0  0  0  0  0  0  0
   10.9450    8.1840  -25.4010 C   0  0  0  0  0  0  0  0  0  0  0  0
   16.8075    6.6236  -20.3515 H   0  0  0  0  0  0  0  0  0  0  0  0
   16.8416    5.3860  -21.6530 H   0  0  0  0  0  0  0  0  0  0  0  0
   18.0416    6.7226  -21.6530 H   0  0  0  0  0  0  0  0  0  0  0  0
   14.6169    5.6977  -22.4894 H   0  0  0  0  0  0  0  0  0  0  0  0
   17.3203    9.0593  -22.1411 H   0  0  0  0  0  0  0  0  0  0  0  0
   15.7667   10.4472  -23.5264 H   0  0  0  0  0  0  0  0  0  0  0  0
   13.6184    9.4734  -24.3278 H   0  0  0  0  0  0  0  0  0  0  0  0
   10.5292    5.2568  -23.9084 H   0  0  0  0  0  0  0  0  0  0  0  0
   10.3726    2.8648  -24.5834 H   0  0  0  0  0  0  0  0  0  0  0  0
   12.3774    1.7185  -25.5425 H   0  0  0  0  0  0  0  0  0  0  0  0
   14.5190    2.9696  -25.7828 H   0  0  0  0  0  0  0  0  0  0  0  0
   14.6597    5.3697  -25.1328 H   0  0  0  0  0  0  0  0  0  0  0  0
   11.3866    8.2851  -22.9274 H   0  0  0  0  0  0  0  0  0  0  0  0
   10.7072    6.6299  -23.1739 H   0  0  0  0  0  0  0  0  0  0  0  0
   12.4554    5.7347  -21.6221 H   0  0  0  0  0  0  0  0  0  0  0  0
   12.9754    7.4365  -21.3026 H   0  0  0  0  0  0  0  0  0  0  0  0
   10.1205    6.3932  -20.7665 H   0  0  0  0  0  0  0  0  0  0  0  0
   11.6141    4.5979  -18.2063 H   0  0  0  0  0  0  0  0  0  0  0  0
   10.7095    8.6357  -19.4181 H   0  0  0  0  0  0  0  0  0  0  0  0
   11.5143    8.9007  -20.8711 H   0  0  0  0  0  0  0  0  0  0  0  0
   14.0852    7.2276  -26.3316 H   0  0  0  0  0  0  0  0  0  0  0  0
   13.4139    8.4303  -28.4130 H   0  0  0  0  0  0  0  0  0  0  0  0
   11.1369    9.4306  -28.5714 H   0  0  0  0  0  0  0  0  0  0  0  0
    9.5611    9.2750  -26.6525 H   0  0  0  0  0  0  0  0  0  0  0  0
   10.2458    8.1053  -24.5554 H   0  0  0  0  0  0  0  0  0  0  0  0
  1  2  1  0
  2  3  2  0
  2  4  1  0
  3  7  1  0
  4  5  2  0
  5  6  1  0
  6  7  2  0
  7  8  1  0
  8  9  1  0
  8 15  1  0
  8 22  1  0
  9 10  2  0
  9 14  1  0
 10 11  1  0
 11 12  2  0
 12 13  1  0
 13 14  2  0
 15 16  1  0
 16 17  1  0
 17 18  1  0
 17 21  1  0
 18 19  1  0
 18 20  2  0
 22 23  2  0
 22 27  1  0
 23 24  1  0
 24 25  2  0
 25 26  1  0
 26 27  2  0
  1 28  1  0
  1 29  1  0
  1 30  1  0
  3 31  1  0
  4 32  1  0
  5 33  1  0
  6 34  1  0
 10 35  1  0
 11 36  1  0
 12 37  1  0
 13 38  1  0
 14 39  1  0
 15 40  1  0
 15 41  1  0
 16 42  1  0
 16 43  1  0
 17 44  1  0
 19 45  1  0
 21 46  1  0
 21 47  1  0
 23 48  1  0
 24 49  1  0
 25 50  1  0
 26 51  1  0
 27 52  1  0
A    1
CAA
A    2
CAV
A    3
CAR
A    4
CAL
A    5
CAK
A    6
CAQ
A    7
CAY
A    8
CBA
A    9
CAX
A   10
CAO
A   11
CAI
A   12
CAF
A   13
CAJ
A   14
CAP
A   15
CAT
A   16
CB
A   17
CA
A   18
C
A   19
OXT
A   20
O
A   21
N
A   22
CAW
A   23
CAM
A   24
CAG
A   25
CAE
A   26
CAH
A   27
CAN
M  END
