4A6W_5C1_A_1265
     RDKit          3D

 23 24  0  0  0  0  0  0  0  0999 V2000
   -1.9840   -0.4470    8.1340 C   0  0  0  0  0  0  0  0  0  0  0  0
    1.2690    0.3000    9.6770 O   0  0  0  0  0  0  0  0  0  0  0  0
   -3.8560   -1.2130    7.3880 C   0  0  0  0  0  0  0  0  0  0  0  0
   -4.1080   -0.7990    8.6510 C   0  0  0  0  0  0  0  0  0  0  0  0
   -0.5470   -0.1410    8.2650 C   0  0  0  0  0  0  0  0  0  0  0  0
   -5.3710   -0.8280    9.4480 C   0  0  0  0  0  0  0  0  0  0  0  0
   -5.6910    0.1970   10.3560 C   0  0  0  0  0  0  0  0  0  0  0  0
   -6.7860    0.1230   11.2020 C   0  0  0  0  0  0  0  0  0  0  0  0
   -7.4700   -1.0620   11.2050 C   0  0  0  0  0  0  0  0  0  0  0  0
   -2.6460   -0.9900    7.1670 N   0  0  0  0  0  0  0  0  0  0  0  0
   -7.1900   -2.1130   10.3470 C   0  0  0  0  0  0  0  0  0  0  0  0
   -6.1000   -2.0130    9.5260 C   0  0  0  0  0  0  0  0  0  0  0  0
   -0.0210    0.1010    9.5600 N   0  0  0  0  0  0  0  0  0  0  0  0
   -2.8260   -0.2970    9.1060 O   0  0  0  0  0  0  0  0  0  0  0  0
    0.2030   -0.2140    7.2920 O   0  0  0  0  0  0  0  0  0  0  0  0
   -4.7400    1.6060   10.4630 Cl  0  0  0  0  0  0  0  0  0  0  0  0
    1.5115    0.3374   10.6361 H   0  0  0  0  0  0  0  0  0  0  0  0
   -4.5779   -1.6604    6.6890 H   0  0  0  0  0  0  0  0  0  0  0  0
   -7.0884    0.9697   11.8358 H   0  0  0  0  0  0  0  0  0  0  0  0
   -8.2882   -1.1872   11.9294 H   0  0  0  0  0  0  0  0  0  0  0  0
   -7.8295   -3.0077   10.3262 H   0  0  0  0  0  0  0  0  0  0  0  0
   -5.7953   -2.8789    8.9199 H   0  0  0  0  0  0  0  0  0  0  0  0
   -0.6362    0.1198   10.3859 H   0  0  0  0  0  0  0  0  0  0  0  0
  1  5  1  0
  1 10  2  0
  1 14  1  0
  2 13  1  0
  3  4  2  0
  3 10  1  0
  4  6  1  0
  4 14  1  0
  5 13  1  0
  5 15  2  0
  6  7  2  0
  6 12  1  0
  7  8  1  0
  7 16  1  0
  8  9  2  0
  9 11  1  0
 11 12  2  0
  2 17  1  0
  3 18  1  0
  8 19  1  0
  9 20  1  0
 11 21  1  0
 12 22  1  0
 13 23  1  0
A    1
CAA
A    2
OAB
A    3
CAC
A    4
CAD
A    5
CAE
A    6
CAF
A    7
CAG
A    8
CAH
A    9
CAI
A   10
NAI
A   11
CAJ
A   12
CAK
A   13
NAL
A   14
OAN
A   15
OAO
A   16
CL
M  END
