4A7I_A7I_B_1246
     RDKit          3D

 48 49  0  0  0  0  0  0  0  0999 V2000
   48.8000    5.0580   57.9920 C   0  0  0  0  0  0  0  0  0  0  0  0
   47.9210    3.9930   58.6530 C   0  0  0  0  0  0  0  0  0  0  0  0
   48.6840    2.7400   58.7880 N   0  0  0  0  0  0  0  0  0  0  0  0
   47.9740    1.7030   59.5570 C   0  0  0  0  0  0  0  0  0  0  0  0
   46.5940    1.3730   58.9790 C   0  0  0  0  0  0  0  0  0  0  0  0
   47.8650    2.1050   61.0300 C   0  0  0  0  0  0  0  0  0  0  0  0
   49.0770    2.2100   57.4720 C   0  0  0  0  0  0  0  0  0  0  0  0
   50.0050    3.2140   56.7840 C   0  0  0  0  0  0  0  0  0  0  0  0
   49.3150    4.5720   56.6340 C   0  0  0  0  0  0  0  0  0  0  0  0
   50.2770    5.5330   56.0740 N   0  0  0  0  0  0  0  0  0  0  0  0
   49.5530    6.8010   55.3470 S   0  0  0  0  0  0  0  0  0  0  0  0
   48.1420    6.5140   54.9290 O   0  0  0  0  0  0  0  0  0  0  0  0
   49.6660    8.0690   56.1400 O   0  0  0  0  0  0  0  0  0  0  0  0
   50.5080    7.0700   53.8090 C   0  0  0  0  0  0  0  0  0  0  0  0
   50.0170    8.2340   52.9450 C   0  0  0  0  0  0  0  0  0  0  0  0
   48.7140    7.9160   52.3410 N   0  0  0  0  0  0  0  0  0  0  0  0
   47.5880    8.5030   52.7340 C   0  0  0  0  0  0  0  0  0  0  0  0
   47.5220    9.3430   53.6300 O   0  0  0  0  0  0  0  0  0  0  0  0
   46.3230    8.0600   51.9950 C   0  0  0  0  0  0  0  0  0  0  0  0
   46.2680    7.4030   50.8370 C   0  0  0  0  0  0  0  0  0  0  0  0
   45.0330    7.1270   50.4040 C   0  0  0  0  0  0  0  0  0  0  0  0
   44.0490    7.5540   51.1960 C   0  0  0  0  0  0  0  0  0  0  0  0
   42.3550    7.2980   50.9520 Cl  0  0  0  0  0  0  0  0  0  0  0  0
   44.7300    8.3470   52.5500 S   0  0  0  0  0  0  0  0  0  0  0  0
   48.2088    5.9741   57.8466 H   0  0  0  0  0  0  0  0  0  0  0  0
   49.6623    5.2583   58.6449 H   0  0  0  0  0  0  0  0  0  0  0  0
   47.6093    4.3414   59.6487 H   0  0  0  0  0  0  0  0  0  0  0  0
   47.0312    3.8149   58.0313 H   0  0  0  0  0  0  0  0  0  0  0  0
   48.5736    0.7840   59.4798 H   0  0  0  0  0  0  0  0  0  0  0  0
   45.8832    1.2030   59.8011 H   0  0  0  0  0  0  0  0  0  0  0  0
   46.2451    2.2130   58.3604 H   0  0  0  0  0  0  0  0  0  0  0  0
   46.6629    0.4660   58.3604 H   0  0  0  0  0  0  0  0  0  0  0  0
   48.1001    1.2381   61.6650 H   0  0  0  0  0  0  0  0  0  0  0  0
   48.5752    2.9179   61.2417 H   0  0  0  0  0  0  0  0  0  0  0  0
   46.8415    2.4478   61.2417 H   0  0  0  0  0  0  0  0  0  0  0  0
   49.6024    1.2525   57.6026 H   0  0  0  0  0  0  0  0  0  0  0  0
   48.1809    2.0504   56.8543 H   0  0  0  0  0  0  0  0  0  0  0  0
   50.9162    3.3365   57.3880 H   0  0  0  0  0  0  0  0  0  0  0  0
   50.2591    2.8335   55.7837 H   0  0  0  0  0  0  0  0  0  0  0  0
   48.4531    4.4783   55.9569 H   0  0  0  0  0  0  0  0  0  0  0  0
   50.8713    5.8866   56.8374 H   0  0  0  0  0  0  0  0  0  0  0  0
   51.5543    7.2666   54.0857 H   0  0  0  0  0  0  0  0  0  0  0  0
   50.3833    6.1602   53.2034 H   0  0  0  0  0  0  0  0  0  0  0  0
   49.9154    9.1321   53.5720 H   0  0  0  0  0  0  0  0  0  0  0  0
   50.7467    8.4119   52.1414 H   0  0  0  0  0  0  0  0  0  0  0  0
   48.6727    7.2146   51.5879 H   0  0  0  0  0  0  0  0  0  0  0  0
   47.1698    7.1099   50.2795 H   0  0  0  0  0  0  0  0  0  0  0  0
   44.8432    6.5878   49.4642 H   0  0  0  0  0  0  0  0  0  0  0  0
  1  2  1  0
  1  9  1  0
  2  3  1  0
  3  4  1  0
  3  7  1  0
  4  5  1  0
  4  6  1  0
  7  8  1  0
  8  9  1  0
  9 10  1  0
 10 11  1  0
 11 12  2  0
 11 13  2  0
 11 14  1  0
 14 15  1  0
 15 16  1  0
 16 17  1  0
 17 18  2  0
 17 19  1  0
 19 20  2  0
 19 24  1  0
 20 21  1  0
 21 22  2  0
 22 23  1  0
 22 24  1  0
  1 25  1  0
  1 26  1  0
  2 27  1  0
  2 28  1  0
  4 29  1  0
  5 30  1  0
  5 31  1  0
  5 32  1  0
  6 33  1  0
  6 34  1  0
  6 35  1  0
  7 36  1  0
  7 37  1  0
  8 38  1  0
  8 39  1  0
  9 40  1  0
 10 41  1  0
 14 42  1  0
 14 43  1  0
 15 44  1  0
 15 45  1  0
 16 46  1  0
 20 47  1  0
 21 48  1  0
A    1
C15
A    2
C16
A    3
N17
A    4
C20
A    5
C22
A    6
C21
A    7
C18
A    8
C19
A    9
C14
A   10
N13
A   11
S12
A   12
O23
A   13
O24
A   14
C10
A   15
C9
A   16
N8
A   17
C7
A   18
O25
A   19
C3
A   20
C2
A   21
C1
A   22
C5
A   23
CL6
A   24
S4
M  END
