4A8H_PUW_A_1341
     RDKit          3D

 28 27  0  0  0  0  0  0  0  0999 V2000
    9.0580   54.3000   38.8030 O   0  0  0  0  0  0  0  0  0  0  0  0
    7.9680   53.2570   38.9570 P   0  0  0  0  0  0  0  0  0  0  0  0
    7.5340   53.0440   40.3750 O   0  0  0  0  0  0  0  0  0  0  0  0
    6.8360   53.4510   37.9630 O   0  0  0  0  0  0  0  0  0  0  0  0
    8.7640   51.6840   38.4960 C   0  0  0  0  0  0  0  0  0  0  0  0
    7.9820   50.4900   38.9840 C   0  0  0  0  0  0  0  0  0  0  0  0
    6.9170   50.1890   38.4600 O   0  0  0  0  0  0  0  0  0  0  0  0
    8.5160   49.7910   39.9800 N   0  0  0  0  0  0  0  0  0  0  0  0
    7.9370   48.6080   40.6090 C   0  0  0  0  0  0  0  0  0  0  0  0
    8.0630   48.7740   42.1250 C   0  0  0  0  0  0  0  0  0  0  0  0
    7.7030   47.4830   42.8650 C   0  0  0  0  0  0  0  0  0  0  0  0
    7.8130   47.6220   44.3830 C   0  0  0  0  0  0  0  0  0  0  0  0
    7.7170   46.3030   44.9990 N   0  0  0  0  0  0  0  0  0  0  0  0
    9.3637   54.5925   39.6980 H   0  0  0  0  0  0  0  0  0  0  0  0
    5.9880   53.5963   38.4528 H   0  0  0  0  0  0  0  0  0  0  0  0
    8.8420   51.6334   37.3999 H   0  0  0  0  0  0  0  0  0  0  0  0
    9.7573   51.6551   38.9677 H   0  0  0  0  0  0  0  0  0  0  0  0
    9.4242   50.1146   40.3424 H   0  0  0  0  0  0  0  0  0  0  0  0
    6.8770   48.5168   40.3296 H   0  0  0  0  0  0  0  0  0  0  0  0
    8.4629   47.7006   40.2772 H   0  0  0  0  0  0  0  0  0  0  0  0
    9.0999   49.0482   42.3692 H   0  0  0  0  0  0  0  0  0  0  0  0
    7.3632   49.5603   42.4444 H   0  0  0  0  0  0  0  0  0  0  0  0
    6.6685   47.2087   42.6109 H   0  0  0  0  0  0  0  0  0  0  0  0
    8.4186   46.7093   42.5499 H   0  0  0  0  0  0  0  0  0  0  0  0
    8.7805   48.0777   44.6406 H   0  0  0  0  0  0  0  0  0  0  0  0
    6.9975   48.2605   44.7534 H   0  0  0  0  0  0  0  0  0  0  0  0
    7.7242   46.4015   46.0243 H   0  0  0  0  0  0  0  0  0  0  0  0
    6.8408   45.8492   44.7038 H   0  0  0  0  0  0  0  0  0  0  0  0
  1  2  1  0
  2  3  2  0
  2  4  1  0
  2  5  1  0
  5  6  1  0
  6  7  2  0
  6  8  1  0
  8  9  1  0
  9 10  1  0
 10 11  1  0
 11 12  1  0
 12 13  1  0
  1 14  1  0
  4 15  1  0
  5 16  1  0
  5 17  1  0
  8 18  1  0
  9 19  1  0
  9 20  1  0
 10 21  1  0
 10 22  1  0
 11 23  1  0
 11 24  1  0
 12 25  1  0
 12 26  1  0
 13 27  1  0
 13 28  1  0
A    1
O3P
A    2
P
A    3
O1P
A    4
O2P
A    5
C1P
A    6
C1
A    7
O1
A    8
NE
A    9
CD
A   10
CG
A   11
CB
A   12
CA
A   13
N
M  END
