4A92_F9K_A_1721
     RDKit          3D

112118  0  0  0  0  0  0  0  0999 V2000
   42.7170   68.8840  112.8730 F   0  0  0  0  0  0  0  0  0  0  0  0
   42.9390   69.7100  111.8500 C   0  0  0  0  0  0  0  0  0  0  0  0
   41.9660   69.9580  110.9000 C   0  0  0  0  0  0  0  0  0  0  0  0
   42.2410   70.7720  109.8240 C   0  0  0  0  0  0  0  0  0  0  0  0
   43.4590   71.4070  109.6480 C   0  0  0  0  0  0  0  0  0  0  0  0
   44.4260   71.1850  110.5950 C   0  0  0  0  0  0  0  0  0  0  0  0
   44.1780   70.3350  111.6640 C   0  0  0  0  0  0  0  0  0  0  0  0
   41.0180   70.9490  108.9570 C   0  0  0  0  0  0  0  0  0  0  0  0
   40.1020   70.0600  109.6490 N   0  0  0  0  0  0  0  0  0  0  0  0
   40.5830   69.3790  110.8270 C   0  0  0  0  0  0  0  0  0  0  0  0
   38.8690   69.9150  109.1780 C   0  0  0  0  0  0  0  0  0  0  0  0
   38.4010   70.5160  108.2490 O   0  0  0  0  0  0  0  0  0  0  0  0
   38.2360   69.0580  109.9090 O   0  0  0  0  0  0  0  0  0  0  0  0
   36.9250   68.7440  109.6030 C   0  0  0  0  0  0  0  0  0  0  0  0
   36.6840   67.3200  110.0560 C   0  0  0  0  0  0  0  0  0  0  0  0
   36.4920   67.5550  111.4530 N   0  0  0  0  0  0  0  0  0  0  0  0
   36.2670   68.9280  111.8510 C   0  0  0  0  0  0  0  0  0  0  0  0
   35.9930   69.5340  110.4970 C   0  0  0  0  0  0  0  0  0  0  0  0
   35.0130   68.9820  112.6460 C   0  0  0  0  0  0  0  0  0  0  0  0
   35.0520   69.6450  113.7940 N   0  0  0  0  0  0  0  0  0  0  0  0
   33.9360   69.6660  114.6480 C   0  0  0  0  0  0  0  0  0  0  0  0
   33.9190   68.4340  115.5610 C   0  0  0  0  0  0  0  0  0  0  0  0
   34.3860   69.7460  116.1030 C   0  0  0  0  0  0  0  0  0  0  0  0
   32.6080   67.8290  115.8410 C   0  0  0  0  0  0  0  0  0  0  0  0
   32.3690   66.5680  115.5310 C   0  0  0  0  0  0  0  0  0  0  0  0
   32.8920   70.6900  114.4430 C   0  0  0  0  0  0  0  0  0  0  0  0
   32.7790   71.2140  113.2250 N   0  0  0  0  0  0  0  0  0  0  0  0
   31.6520   72.2350  112.8230 S   0  0  0  0  0  0  0  0  0  0  0  0
   31.8370   72.4310  111.1130 C   0  0  0  0  0  0  0  0  0  0  0  0
   31.9540   71.3960  110.1490 C   0  0  0  0  0  0  0  0  0  0  0  0
   32.1450   71.7410  108.8350 C   0  0  0  0  0  0  0  0  0  0  0  0
   32.0800   73.0530  108.4510 C   0  0  0  0  0  0  0  0  0  0  0  0
   31.9010   74.0460  109.3720 C   0  0  0  0  0  0  0  0  0  0  0  0
   31.7650   73.7580  110.7160 C   0  0  0  0  0  0  0  0  0  0  0  0
   31.8890   75.2720  108.9530 F   0  0  0  0  0  0  0  0  0  0  0  0
   32.0240   70.0920  110.4550 N   0  0  0  0  0  0  0  0  0  0  0  0
   31.2300   69.0770  109.8200 C   0  0  0  0  0  0  0  0  0  0  0  0
   31.9330   67.7230  109.7980 C   0  0  0  0  0  0  0  0  0  0  0  0
   31.2110   66.7310  110.7290 C   0  0  0  0  0  0  0  0  0  0  0  0
   31.7550   65.2730  110.7450 C   0  0  0  0  0  0  0  0  0  0  0  0
   32.7670   64.9870  111.8930 C   0  0  0  0  0  0  0  0  0  0  0  0
   34.2260   64.9200  111.3800 C   0  0  0  0  0  0  0  0  0  0  0  0
   35.3510   64.3980  112.3050 C   0  0  0  0  0  0  0  0  0  0  0  0
   36.6430   65.1190  111.9170 C   0  0  0  0  0  0  0  0  0  0  0  0
   36.5400   66.5380  112.3260 C   0  0  0  0  0  0  0  0  0  0  0  0
   36.3730   66.7200  113.4740 O   0  0  0  0  0  0  0  0  0  0  0  0
   37.6900   64.3780  112.4960 N   0  0  0  0  0  0  0  0  0  0  0  0
   38.9740   64.6200  112.2670 C   0  0  0  0  0  0  0  0  0  0  0  0
   39.3780   65.4720  111.5240 O   0  0  0  0  0  0  0  0  0  0  0  0
   39.9290   63.7040  112.9490 C   0  0  0  0  0  0  0  0  0  0  0  0
   40.7040   64.3650  114.1020 C   0  0  0  0  0  0  0  0  0  0  0  0
   41.9890   63.6080  114.4280 C   0  0  0  0  0  0  0  0  0  0  0  0
   42.8140   63.4560  113.1440 C   0  0  0  0  0  0  0  0  0  0  0  0
   42.0950   62.8180  112.0730 N   0  0  0  0  0  0  0  0  0  0  0  0
   40.7600   62.9180  111.9810 C   0  0  0  0  0  0  0  0  0  0  0  0
   40.1380   62.3610  111.1090 O   0  0  0  0  0  0  0  0  0  0  0  0
   42.7710   62.0300  111.1020 C   0  0  0  0  0  0  0  0  0  0  0  0
   30.4650   71.5620  113.0980 O   0  0  0  0  0  0  0  0  0  0  0  0
   31.8270   73.4580  113.4330 O   0  0  0  0  0  0  0  0  0  0  0  0
   32.1830   70.9700  115.3510 O   0  0  0  0  0  0  0  0  0  0  0  0
   34.0410   68.3980  112.2750 O   0  0  0  0  0  0  0  0  0  0  0  0
   43.6434   72.0625  108.7841 H   0  0  0  0  0  0  0  0  0  0  0  0
   45.4029   71.6830  110.5069 H   0  0  0  0  0  0  0  0  0  0  0  0
   44.9825   70.1459  112.3899 H   0  0  0  0  0  0  0  0  0  0  0  0
   40.6605   71.9893  108.9595 H   0  0  0  0  0  0  0  0  0  0  0  0
   41.1657   70.7298  107.8892 H   0  0  0  0  0  0  0  0  0  0  0  0
   40.6016   68.2876  110.6912 H   0  0  0  0  0  0  0  0  0  0  0  0
   39.9699   69.5154  111.7300 H   0  0  0  0  0  0  0  0  0  0  0  0
   36.7577   68.9289  108.5316 H   0  0  0  0  0  0  0  0  0  0  0  0
   35.7907   66.8837  109.5852 H   0  0  0  0  0  0  0  0  0  0  0  0
   37.4797   66.6038  109.8033 H   0  0  0  0  0  0  0  0  0  0  0  0
   37.0690   69.3987  112.4386 H   0  0  0  0  0  0  0  0  0  0  0  0
   36.2385   70.6061  110.4821 H   0  0  0  0  0  0  0  0  0  0  0  0
   34.9371   69.4811  110.1933 H   0  0  0  0  0  0  0  0  0  0  0  0
   35.9089   70.1496  114.0624 H   0  0  0  0  0  0  0  0  0  0  0  0
   34.3678   67.4303  115.5944 H   0  0  0  0  0  0  0  0  0  0  0  0
   35.4503   69.8928  116.3392 H   0  0  0  0  0  0  0  0  0  0  0  0
   34.1046   70.3692  116.9646 H   0  0  0  0  0  0  0  0  0  0  0  0
   31.8191   68.4328  116.3132 H   0  0  0  0  0  0  0  0  0  0  0  0
   31.3847   66.1260  115.7451 H   0  0  0  0  0  0  0  0  0  0  0  0
   33.1542   65.9594  115.0587 H   0  0  0  0  0  0  0  0  0  0  0  0
   33.4650   70.9367  112.5085 H   0  0  0  0  0  0  0  0  0  0  0  0
   32.3511   70.9606  108.0877 H   0  0  0  0  0  0  0  0  0  0  0  0
   32.1732   73.3116  107.3859 H   0  0  0  0  0  0  0  0  0  0  0  0
   31.6039   74.5596  111.4518 H   0  0  0  0  0  0  0  0  0  0  0  0
   32.6860   69.8012  111.1885 H   0  0  0  0  0  0  0  0  0  0  0  0
   30.2819   68.9747  110.3682 H   0  0  0  0  0  0  0  0  0  0  0  0
   31.0595   69.3852  108.7779 H   0  0  0  0  0  0  0  0  0  0  0  0
   31.9269   67.3276  108.7716 H   0  0  0  0  0  0  0  0  0  0  0  0
   32.9685   67.8516  110.1460 H   0  0  0  0  0  0  0  0  0  0  0  0
   31.2789   67.1244  111.7540 H   0  0  0  0  0  0  0  0  0  0  0  0
   30.1864   66.6554  110.3360 H   0  0  0  0  0  0  0  0  0  0  0  0
   30.9024   64.5870  110.8566 H   0  0  0  0  0  0  0  0  0  0  0  0
   32.2968   65.1252  109.7991 H   0  0  0  0  0  0  0  0  0  0  0  0
   32.6906   65.7897  112.6413 H   0  0  0  0  0  0  0  0  0  0  0  0
   32.5163   64.0090  112.3297 H   0  0  0  0  0  0  0  0  0  0  0  0
   34.2201   64.2718  110.4913 H   0  0  0  0  0  0  0  0  0  0  0  0
   34.4904   65.9778  111.2347 H   0  0  0  0  0  0  0  0  0  0  0  0
   35.1028   64.6127  113.3549 H   0  0  0  0  0  0  0  0  0  0  0  0
   35.4682   63.3100  112.1934 H   0  0  0  0  0  0  0  0  0  0  0  0
   36.8386   65.1642  110.8355 H   0  0  0  0  0  0  0  0  0  0  0  0
   37.4460   63.6056  113.1323 H   0  0  0  0  0  0  0  0  0  0  0  0
   39.3219   62.9460  113.4656 H   0  0  0  0  0  0  0  0  0  0  0  0
   40.9608   65.3951  113.8141 H   0  0  0  0  0  0  0  0  0  0  0  0
   40.0634   64.3527  114.9962 H   0  0  0  0  0  0  0  0  0  0  0  0
   42.5689   64.1692  115.1755 H   0  0  0  0  0  0  0  0  0  0  0  0
   41.7446   62.6154  114.8342 H   0  0  0  0  0  0  0  0  0  0  0  0
   43.1234   64.4568  112.8082 H   0  0  0  0  0  0  0  0  0  0  0  0
   43.6734   62.8132  113.3853 H   0  0  0  0  0  0  0  0  0  0  0  0
   43.4066   61.2891  111.6090 H   0  0  0  0  0  0  0  0  0  0  0  0
   42.0331   61.5108  110.4728 H   0  0  0  0  0  0  0  0  0  0  0  0
   43.3964   62.6804  110.4728 H   0  0  0  0  0  0  0  0  0  0  0  0
  1  2  1  0
  2  3  2  0
  2  7  1  0
  3  4  1  0
  3 10  1  0
  4  5  2  0
  4  8  1  0
  5  6  1  0
  6  7  2  0
  8  9  1  0
  9 10  1  0
  9 11  1  0
 11 12  2  0
 11 13  1  0
 13 14  1  0
 14 15  1  0
 14 18  1  0
 15 16  1  0
 16 17  1  0
 16 45  1  0
 17 18  1  0
 17 19  1  0
 19 20  1  0
 19 61  2  0
 20 21  1  0
 21 22  1  0
 21 23  1  0
 21 26  1  0
 22 23  1  0
 22 24  1  0
 24 25  2  3
 26 27  1  0
 26 60  2  0
 27 28  1  0
 28 29  1  0
 28 58  2  0
 28 59  2  0
 29 30  2  0
 29 34  1  0
 30 31  1  0
 30 36  1  0
 31 32  2  0
 32 33  1  0
 33 34  2  0
 33 35  1  0
 36 37  1  0
 37 38  1  0
 38 39  1  0
 39 40  1  0
 40 41  1  0
 41 42  1  0
 42 43  1  0
 43 44  1  0
 44 45  1  0
 44 47  1  0
 45 46  2  0
 47 48  1  0
 48 49  2  0
 48 50  1  0
 50 51  1  0
 50 55  1  0
 51 52  1  0
 52 53  1  0
 53 54  1  0
 54 55  1  0
 54 57  1  0
 55 56  2  0
  5 62  1  0
  6 63  1  0
  7 64  1  0
  8 65  1  0
  8 66  1  0
 10 67  1  0
 10 68  1  0
 14 69  1  0
 15 70  1  0
 15 71  1  0
 17 72  1  0
 18 73  1  0
 18 74  1  0
 20 75  1  0
 22 76  1  0
 23 77  1  0
 23 78  1  0
 24 79  1  0
 25 80  1  0
 25 81  1  0
 27 82  1  0
 31 83  1  0
 32 84  1  0
 34 85  1  0
 36 86  1  0
 37 87  1  0
 37 88  1  0
 38 89  1  0
 38 90  1  0
 39 91  1  0
 39 92  1  0
 40 93  1  0
 40 94  1  0
 41 95  1  0
 41 96  1  0
 42 97  1  0
 42 98  1  0
 43 99  1  0
 43100  1  0
 44101  1  0
 47102  1  0
 50103  1  0
 51104  1  0
 51105  1  0
 52106  1  0
 52107  1  0
 53108  1  0
 53109  1  0
 57110  1  0
 57111  1  0
 57112  1  0
A    1
F1
A    2
C2
A    3
C3
A    4
C4
A    5
C5
A    6
C6
A    7
C7
A    8
C8
A    9
N9
A   10
C10
A   11
C11
A   12
O12
A   13
O13
A   14
C14
A   15
C15
A   16
N16
A   17
C17
A   18
C18
A   19
C19
A   20
N20
A   21
C21
A   22
C22
A   23
C23
A   24
C24
A   25
C25
A   26
C26
A   27
N27
A   28
S28
A   29
C29
A   30
C30
A   31
C31
A   32
C32
A   33
C33
A   34
C34
A   35
F35
A   36
N36
A   37
C37
A   38
C38
A   39
C39
A   40
C40
A   41
C41
A   42
C42
A   43
C43
A   44
C44
A   45
C45
A   46
O46
A   47
N47
A   48
C48
A   49
O49
A   50
C50
A   51
C51
A   52
C52
A   53
C53
A   54
N54
A   55
C55
A   56
O56
A   57
C57
A   58
O58
A   59
O59
A   60
O60
A   61
O61
M  END
