3MB3_MB3_A_1
     RDKit          3D

 16 16  0  0  0  0  0  0  0  0999 V2000
   19.9000   44.5410   -1.8090 C   0  0  0  0  0  0  0  0  0  0  0  0
   18.7830   46.4020    0.3970 O   0  0  0  0  0  0  0  0  0  0  0  0
   16.6460   43.6080   -0.0740 C   0  0  0  0  0  0  0  0  0  0  0  0
   17.1590   44.6970    0.8700 C   0  0  0  0  0  0  0  0  0  0  0  0
   17.9190   43.1760   -0.7830 C   0  0  0  0  0  0  0  0  0  0  0  0
   18.3350   45.2830    0.1180 C   0  0  0  0  0  0  0  0  0  0  0  0
   18.7520   44.4000   -0.8190 N   0  0  0  0  0  0  0  0  0  0  0  0
   20.8458   44.6572   -1.2595 H   0  0  0  0  0  0  0  0  0  0  0  0
   19.9513   43.6424   -2.4414 H   0  0  0  0  0  0  0  0  0  0  0  0
   19.7323   45.4253   -2.4414 H   0  0  0  0  0  0  0  0  0  0  0  0
   15.9097   44.0105   -0.7853 H   0  0  0  0  0  0  0  0  0  0  0  0
   16.1247   42.7866    0.4394 H   0  0  0  0  0  0  0  0  0  0  0  0
   16.3864   45.4592    1.0493 H   0  0  0  0  0  0  0  0  0  0  0  0
   17.4317   44.3122    1.8638 H   0  0  0  0  0  0  0  0  0  0  0  0
   18.4253   42.3766   -0.2220 H   0  0  0  0  0  0  0  0  0  0  0  0
   17.7239   42.7711   -1.7870 H   0  0  0  0  0  0  0  0  0  0  0  0
  1  7  1  0
  6  2  2  0
  5  3  1  0
  3  4  1  0
  6  4  1  0
  7  5  1  0
  7  6  1  0
  1  8  1  0
  1  9  1  0
  1 10  1  0
  3 11  1  0
  3 12  1  0
  4 13  1  0
  4 14  1  0
  5 15  1  0
  5 16  1  0
A    1
CAA
A    2
OAB
A    3
CAC
A    4
CAD
A    5
CAE
A    6
CAF
A    7
NAG
M  END
