4A9S_RU9_A_1515
     RDKit          3D

 41 44  0  0  0  0  0  0  0  0999 V2000
   34.2940  -33.4430   12.5970 C   0  0  0  0  0  0  0  0  0  0  0  0
   34.8150  -32.4800   13.5500 N   0  0  0  0  0  0  0  0  0  0  0  0
   40.6020  -30.7750    2.8740 O   0  0  0  0  0  0  0  0  0  0  0  0
   34.9550  -33.5930   11.2290 C   0  0  0  0  0  0  0  0  0  0  0  0
   35.6430  -32.6000   10.7030 C   0  0  0  0  0  0  0  0  0  0  0  0
   37.0970  -31.9200    8.5460 N   0  0  0  0  0  0  0  0  0  0  0  0
   36.3190  -32.7730    9.3420 C   0  0  0  0  0  0  0  0  0  0  0  0
   36.9610  -33.7980    7.4190 N   0  0  0  0  0  0  0  0  0  0  0  0
   37.4750  -32.6220    7.3600 C   0  0  0  0  0  0  0  0  0  0  0  0
   36.2080  -33.9140    8.7060 C   0  0  0  0  0  0  0  0  0  0  0  0
   35.4100  -35.0650    9.3190 C   0  0  0  0  0  0  0  0  0  0  0  0
   34.8300  -34.9160   10.4870 C   0  0  0  0  0  0  0  0  0  0  0  0
   38.3140  -32.1010    6.1960 C   0  0  0  0  0  0  0  0  0  0  0  0
   38.1690  -32.7810    4.8390 C   0  0  0  0  0  0  0  0  0  0  0  0
   38.8810  -32.3670    3.8170 C   0  0  0  0  0  0  0  0  0  0  0  0
   39.8600  -31.2070    3.9820 C   0  0  0  0  0  0  0  0  0  0  0  0
   39.9890  -30.6190    5.1560 C   0  0  0  0  0  0  0  0  0  0  0  0
   39.1600  -31.1010    6.3480 C   0  0  0  0  0  0  0  0  0  0  0  0
   41.2190  -31.8710    2.2550 C   0  0  0  0  0  0  0  0  0  0  0  0
   42.5890  -32.3500    2.7330 C   0  0  0  0  0  0  0  0  0  0  0  0
   43.1690  -33.3810    2.1560 C   0  0  0  0  0  0  0  0  0  0  0  0
   42.4710  -34.1010    1.0040 C   0  0  0  0  0  0  0  0  0  0  0  0
   41.2910  -33.6890    0.5910 C   0  0  0  0  0  0  0  0  0  0  0  0
   40.6190  -32.4920    1.2600 C   0  0  0  0  0  0  0  0  0  0  0  0
   33.4430  -34.2030   12.9250 O   0  0  0  0  0  0  0  0  0  0  0  0
   40.6500  -34.3550   -0.4590 O   0  0  0  0  0  0  0  0  0  0  0  0
   34.7212  -32.6534   14.5610 H   0  0  0  0  0  0  0  0  0  0  0  0
   35.2785  -31.6233   13.2153 H   0  0  0  0  0  0  0  0  0  0  0  0
   35.7313  -31.6458   11.2431 H   0  0  0  0  0  0  0  0  0  0  0  0
   37.3532  -30.9496    8.7775 H   0  0  0  0  0  0  0  0  0  0  0  0
   35.3217  -36.0199    8.7801 H   0  0  0  0  0  0  0  0  0  0  0  0
   34.2558  -35.7442   10.9279 H   0  0  0  0  0  0  0  0  0  0  0  0
   37.4672  -33.6191    4.7164 H   0  0  0  0  0  0  0  0  0  0  0  0
   38.7720  -32.8574    2.8384 H   0  0  0  0  0  0  0  0  0  0  0  0
   40.6926  -29.7822    5.2777 H   0  0  0  0  0  0  0  0  0  0  0  0
   39.2693  -30.6149    7.3287 H   0  0  0  0  0  0  0  0  0  0  0  0
   43.0923  -31.8313    3.5623 H   0  0  0  0  0  0  0  0  0  0  0  0
   44.1550  -33.7236    2.5030 H   0  0  0  0  0  0  0  0  0  0  0  0
   42.9538  -34.9628    0.5200 H   0  0  0  0  0  0  0  0  0  0  0  0
   39.6340  -32.1483    0.9112 H   0  0  0  0  0  0  0  0  0  0  0  0
   39.9769  -35.0543   -0.2640 H   0  0  0  0  0  0  0  0  0  0  0  0
  1  2  1  0
  1  4  1  0
  1 25  2  0
  3 16  1  0
  3 19  1  0
  4  5  2  0
  4 12  1  0
  5  7  1  0
  6  7  1  0
  6  9  1  0
  7 10  2  0
  8  9  2  0
  8 10  1  0
  9 13  1  0
 10 11  1  0
 11 12  2  0
 13 14  2  0
 13 18  1  0
 14 15  1  0
 15 16  2  0
 16 17  1  0
 17 18  2  0
 19 20  2  0
 19 24  1  0
 20 21  1  0
 21 22  2  0
 22 23  1  0
 23 24  2  0
 23 26  1  0
  2 27  1  0
  2 28  1  0
  5 29  1  0
  6 30  1  0
 11 31  1  0
 12 32  1  0
 14 33  1  0
 15 34  1  0
 17 35  1  0
 18 36  1  0
 20 37  1  0
 21 38  1  0
 22 39  1  0
 24 40  1  0
 26 41  1  0
A    1
C1
A    2
N1
A    3
O1
A    4
C2
A    5
C3
A    6
N3
A    7
C4
A    8
N4
A    9
C5
A   10
C6
A   11
C7
A   12
C8
A   13
C9
A   14
C10
A   15
C11
A   16
C12
A   17
C13
A   18
C14
A   19
C15
A   20
C16
A   21
C17
A   22
C18
A   23
C19
A   24
C20
A   25
OAB
A   26
OAC
M  END
