4AA4_QC0_A_1356
     RDKit          3D

 58 62  0  0  0  0  0  0  0  0999 V2000
   -1.6050    4.7270   28.7740 C   0  0  0  0  0  0  0  0  0  0  0  0
   -1.5040    3.9930   27.4690 N   0  0  0  0  0  0  0  0  0  0  0  0
   -1.8150    2.5480   27.6680 C   0  0  0  0  0  0  0  0  0  0  0  0
   -1.7780    1.7820   26.3350 C   0  0  0  0  0  0  0  0  0  0  0  0
   -2.6960    2.4250   25.3660 N   0  0  0  0  0  0  0  0  0  0  0  0
   -2.3770    3.8580   25.1680 C   0  0  0  0  0  0  0  0  0  0  0  0
   -2.4840    4.5830   26.5210 C   0  0  0  0  0  0  0  0  0  0  0  0
   -2.8100    1.6540   24.1920 C   0  0  0  0  0  0  0  0  0  0  0  0
   -2.7520    0.2420   24.3080 C   0  0  0  0  0  0  0  0  0  0  0  0
   -2.8940   -0.5770   23.2110 C   0  0  0  0  0  0  0  0  0  0  0  0
   -3.0980    0.0220   21.9450 C   0  0  0  0  0  0  0  0  0  0  0  0
   -3.2000   -0.7290   20.8050 N   0  0  0  0  0  0  0  0  0  0  0  0
   -3.4150   -0.2360   19.6040 C   0  0  0  0  0  0  0  0  0  0  0  0
   -3.5370    1.1240   19.4100 N   0  0  0  0  0  0  0  0  0  0  0  0
   -3.8550    1.6790   18.1540 C   0  0  0  0  0  0  0  0  0  0  0  0
   -2.9580    2.2330   17.2470 C   0  0  0  0  0  0  0  0  0  0  0  0
   -3.4820    2.7730   16.0520 C   0  0  0  0  0  0  0  0  0  0  0  0
   -2.6520    3.3420   15.0770 N   0  0  0  0  0  0  0  0  0  0  0  0
   -1.3630    2.9840   14.9120 C   0  0  0  0  0  0  0  0  0  0  0  0
   -0.7530    2.1590   15.5780 O   0  0  0  0  0  0  0  0  0  0  0  0
   -0.7200    3.6590   13.7990 C   0  0  0  0  0  0  0  0  0  0  0  0
    0.3680    3.1150   12.9600 C   0  0  0  0  0  0  0  0  0  0  0  0
    0.5310    4.1100   12.0580 C   0  0  0  0  0  0  0  0  0  0  0  0
   -0.3270    5.1510   12.3070 O   0  0  0  0  0  0  0  0  0  0  0  0
   -1.0880    4.8940   13.3380 C   0  0  0  0  0  0  0  0  0  0  0  0
   -4.8520    2.7340   15.7450 C   0  0  0  0  0  0  0  0  0  0  0  0
   -5.7200    2.1350   16.6440 C   0  0  0  0  0  0  0  0  0  0  0  0
   -5.2220    1.6300   17.8510 C   0  0  0  0  0  0  0  0  0  0  0  0
   -6.2750    1.0140   18.7780 C   0  0  0  0  0  0  0  0  0  0  0  0
   -3.4080    2.0020   20.4630 C   0  0  0  0  0  0  0  0  0  0  0  0
   -3.1820    1.4450   21.8280 C   0  0  0  0  0  0  0  0  0  0  0  0
   -3.0370    2.2510   22.9430 C   0  0  0  0  0  0  0  0  0  0  0  0
   -3.4780    3.2070   20.2630 O   0  0  0  0  0  0  0  0  0  0  0  0
   -1.5067    4.0129   29.6049 H   0  0  0  0  0  0  0  0  0  0  0  0
   -0.8014    5.4755   28.8368 H   0  0  0  0  0  0  0  0  0  0  0  0
   -2.5809    5.2306   28.8368 H   0  0  0  0  0  0  0  0  0  0  0  0
   -1.0726    2.1123   28.3528 H   0  0  0  0  0  0  0  0  0  0  0  0
   -2.8277    2.4647   28.0894 H   0  0  0  0  0  0  0  0  0  0  0  0
   -0.7540    1.7955   25.9334 H   0  0  0  0  0  0  0  0  0  0  0  0
   -2.0944    0.7419   26.5027 H   0  0  0  0  0  0  0  0  0  0  0  0
   -1.3544    3.9580   24.7752 H   0  0  0  0  0  0  0  0  0  0  0  0
   -3.0827    4.3016   24.4502 H   0  0  0  0  0  0  0  0  0  0  0  0
   -3.5013    4.4650   26.9224 H   0  0  0  0  0  0  0  0  0  0  0  0
   -2.2693    5.6533   26.3853 H   0  0  0  0  0  0  0  0  0  0  0  0
   -2.5897   -0.2094   25.2979 H   0  0  0  0  0  0  0  0  0  0  0  0
   -2.8500   -1.6711   23.3157 H   0  0  0  0  0  0  0  0  0  0  0  0
   -3.4984   -0.9170   18.7442 H   0  0  0  0  0  0  0  0  0  0  0  0
   -1.8777    2.2500   17.4533 H   0  0  0  0  0  0  0  0  0  0  0  0
   -3.0444    4.0663   14.4587 H   0  0  0  0  0  0  0  0  0  0  0  0
    0.9023    2.1573   13.0459 H   0  0  0  0  0  0  0  0  0  0  0  0
    1.2572    4.0872   11.2321 H   0  0  0  0  0  0  0  0  0  0  0  0
   -1.8718    5.5439   13.7543 H   0  0  0  0  0  0  0  0  0  0  0  0
   -5.2289    3.1708   14.8084 H   0  0  0  0  0  0  0  0  0  0  0  0
   -6.7922    2.0569   16.4110 H   0  0  0  0  0  0  0  0  0  0  0  0
   -5.9854    1.1834   19.8256 H   0  0  0  0  0  0  0  0  0  0  0  0
   -7.2513    1.4834   18.5870 H   0  0  0  0  0  0  0  0  0  0  0  0
   -6.3443   -0.0671   18.5870 H   0  0  0  0  0  0  0  0  0  0  0  0
   -3.0989    3.3454   22.8514 H   0  0  0  0  0  0  0  0  0  0  0  0
  1  2  1  0
  2  3  1  0
  2  7  1  0
  3  4  1  0
  4  5  1  0
  5  6  1  0
  5  8  1  0
  6  7  1  0
  8  9  2  0
  8 32  1  0
  9 10  1  0
 10 11  2  0
 11 12  1  0
 11 31  1  0
 12 13  2  0
 13 14  1  0
 14 15  1  0
 14 30  1  0
 15 16  2  0
 15 28  1  0
 16 17  1  0
 17 18  1  0
 17 26  2  0
 18 19  1  0
 19 20  2  0
 19 21  1  0
 21 22  1  0
 21 25  2  0
 22 23  2  0
 23 24  1  0
 24 25  1  0
 26 27  1  0
 27 28  2  0
 28 29  1  0
 30 33  2  0
 30 31  1  0
 32 31  2  0
  1 34  1  0
  1 35  1  0
  1 36  1  0
  3 37  1  0
  3 38  1  0
  4 39  1  0
  4 40  1  0
  6 41  1  0
  6 42  1  0
  7 43  1  0
  7 44  1  0
  9 45  1  0
 10 46  1  0
 13 47  1  0
 16 48  1  0
 18 49  1  0
 22 50  1  0
 23 51  1  0
 25 52  1  0
 26 53  1  0
 27 54  1  0
 29 55  1  0
 29 56  1  0
 29 57  1  0
 32 58  1  0
A    1
C1
A    2
N2
A    3
C3
A    4
C4
A    5
N5
A    6
C6
A    7
C7
A    8
C8
A    9
C9
A   10
C10
A   11
C11
A   12
N12
A   13
C13
A   14
N14
A   15
C15
A   16
C16
A   17
C17
A   18
N18
A   19
C19
A   20
O20
A   21
C21
A   22
C22
A   23
C23
A   24
O24
A   25
C25
A   26
C26
A   27
C27
A   28
C28
A   29
C29
A   30
C30
A   31
C32
A   32
C31
A   33
O31
M  END
