4AA5_NQB_A_1353
     RDKit          3D

 58 62  0  0  0  0  0  0  0  0999 V2000
   -1.8880    0.9780   26.3390 C   0  0  0  0  0  0  0  0  0  0  0  0
   -1.0510    1.8380   27.3070 C   0  0  0  0  0  0  0  0  0  0  0  0
   -1.0950    3.8890   28.7120 C   0  0  0  0  0  0  0  0  0  0  0  0
   -2.9130    1.5970   22.7000 C   0  0  0  0  0  0  0  0  0  0  0  0
   -2.7100    0.9730   23.9540 C   0  0  0  0  0  0  0  0  0  0  0  0
   -2.7410   -0.4370   23.9670 C   0  0  0  0  0  0  0  0  0  0  0  0
   -2.9340   -1.2150   22.8170 C   0  0  0  0  0  0  0  0  0  0  0  0
   -2.4940    1.3950   17.0060 C   0  0  0  0  0  0  0  0  0  0  0  0
   -2.7190    1.9480   15.7260 C   0  0  0  0  0  0  0  0  0  0  0  0
   -4.0530    2.0670   15.2410 C   0  0  0  0  0  0  0  0  0  0  0  0
   -1.4930    2.2910   14.9380 C   0  0  0  0  0  0  0  0  0  0  0  0
   -0.4810    3.5000   12.9720 C   0  0  0  0  0  0  0  0  0  0  0  0
   -0.6000    3.2540   11.4870 C   0  0  0  0  0  0  0  0  0  0  0  0
    0.3790    2.4760   12.3290 C   0  0  0  0  0  0  0  0  0  0  0  0
   -3.3920    0.5290   19.1270 N   0  0  0  0  0  0  0  0  0  0  0  0
   -3.2740    1.4280   20.1820 C   0  0  0  0  0  0  0  0  0  0  0  0
   -1.7190    3.1280   27.6270 N   0  0  0  0  0  0  0  0  0  0  0  0
   -1.8140    3.9390   26.4010 C   0  0  0  0  0  0  0  0  0  0  0  0
   -2.4380    3.2220   25.1550 C   0  0  0  0  0  0  0  0  0  0  0  0
   -5.1120    1.6920   16.0560 C   0  0  0  0  0  0  0  0  0  0  0  0
   -4.9010    1.1660   17.3500 C   0  0  0  0  0  0  0  0  0  0  0  0
   -6.0520    0.7470   18.2100 C   0  0  0  0  0  0  0  0  0  0  0  0
   -0.4790    1.7730   15.3020 O   0  0  0  0  0  0  0  0  0  0  0  0
   -3.5770    1.0110   17.8070 C   0  0  0  0  0  0  0  0  0  0  0  0
   -3.0980    0.8210   21.5290 C   0  0  0  0  0  0  0  0  0  0  0  0
   -3.1110   -0.5930   21.5900 C   0  0  0  0  0  0  0  0  0  0  0  0
   -3.2850   -1.4150   20.4920 N   0  0  0  0  0  0  0  0  0  0  0  0
   -3.4000   -0.8370   19.3480 C   0  0  0  0  0  0  0  0  0  0  0  0
   -2.4970    1.7220   25.1670 N   0  0  0  0  0  0  0  0  0  0  0  0
   -3.2420    2.6220   20.0660 O   0  0  0  0  0  0  0  0  0  0  0  0
   -1.5610    3.1110   13.8350 N   0  0  0  0  0  0  0  0  0  0  0  0
   -1.2365    0.1879   25.9375 H   0  0  0  0  0  0  0  0  0  0  0  0
   -2.7349    0.5966   26.9283 H   0  0  0  0  0  0  0  0  0  0  0  0
   -0.8988    1.2759   28.2402 H   0  0  0  0  0  0  0  0  0  0  0  0
   -0.0922    2.0644   26.8176 H   0  0  0  0  0  0  0  0  0  0  0  0
   -1.4259    3.4855   29.6803 H   0  0  0  0  0  0  0  0  0  0  0  0
   -0.0008    3.8070   28.6352 H   0  0  0  0  0  0  0  0  0  0  0  0
   -1.3898    4.9460   28.6352 H   0  0  0  0  0  0  0  0  0  0  0  0
   -2.9273    2.6949   22.6338 H   0  0  0  0  0  0  0  0  0  0  0  0
   -2.6068   -0.9528   24.9292 H   0  0  0  0  0  0  0  0  0  0  0  0
   -2.9450   -2.3127   22.8873 H   0  0  0  0  0  0  0  0  0  0  0  0
   -1.4658    1.2656   17.3747 H   0  0  0  0  0  0  0  0  0  0  0  0
   -4.2424    2.4531   14.2285 H   0  0  0  0  0  0  0  0  0  0  0  0
   -0.2852    4.3759   13.6079 H   0  0  0  0  0  0  0  0  0  0  0  0
   -1.4933    2.7591   11.0783 H   0  0  0  0  0  0  0  0  0  0  0  0
   -0.5351    3.8752   10.5815 H   0  0  0  0  0  0  0  0  0  0  0  0
    1.4588    2.6560   12.2214 H   0  0  0  0  0  0  0  0  0  0  0  0
    0.5720    1.4071   12.5030 H   0  0  0  0  0  0  0  0  0  0  0  0
   -2.4312    4.8210   26.6269 H   0  0  0  0  0  0  0  0  0  0  0  0
   -0.7777    4.1779   26.1200 H   0  0  0  0  0  0  0  0  0  0  0  0
   -3.4690    3.5900   25.0470 H   0  0  0  0  0  0  0  0  0  0  0  0
   -1.7576    3.4657   24.3258 H   0  0  0  0  0  0  0  0  0  0  0  0
   -6.1412    1.8072   15.6851 H   0  0  0  0  0  0  0  0  0  0  0  0
   -5.7740    0.8482   19.2695 H   0  0  0  0  0  0  0  0  0  0  0  0
   -6.9212    1.3864   17.9963 H   0  0  0  0  0  0  0  0  0  0  0  0
   -6.3067   -0.3015   17.9963 H   0  0  0  0  0  0  0  0  0  0  0  0
   -3.5149   -1.4865   18.4676 H   0  0  0  0  0  0  0  0  0  0  0  0
   -2.4908    3.4881   13.6022 H   0  0  0  0  0  0  0  0  0  0  0  0
  1  2  1  0
  1 29  1  0
  2 17  1  0
  3 17  1  0
  4  5  2  0
  4 25  1  0
  5  6  1  0
  5 29  1  0
  6  7  2  0
  7 26  1  0
  8  9  2  0
  8 24  1  0
  9 10  1  0
  9 11  1  0
 10 20  2  0
 11 23  2  0
 11 31  1  0
 12 13  1  0
 12 14  1  0
 12 31  1  0
 13 14  1  0
 15 16  1  0
 15 24  1  0
 15 28  1  0
 16 25  1  0
 16 30  2  0
 17 18  1  0
 18 19  1  0
 19 29  1  0
 20 21  1  0
 21 22  1  0
 21 24  2  0
 25 26  2  0
 26 27  1  0
 27 28  2  0
  1 32  1  0
  1 33  1  0
  2 34  1  0
  2 35  1  0
  3 36  1  0
  3 37  1  0
  3 38  1  0
  4 39  1  0
  6 40  1  0
  7 41  1  0
  8 42  1  0
 10 43  1  0
 12 44  1  0
 13 45  1  0
 13 46  1  0
 14 47  1  0
 14 48  1  0
 18 49  1  0
 18 50  1  0
 19 51  1  0
 19 52  1  0
 20 53  1  0
 22 54  1  0
 22 55  1  0
 22 56  1  0
 28 57  1  0
 31 58  1  0
A    1
C1
A    2
C2
A    3
C8
A    4
C9
A    5
C10
A    6
C11
A    7
C12
A    8
C14
A    9
C15
A   10
C16
A   11
C19
A   12
C20
A   13
C21
A   14
C22
A   15
N29
A   16
C30
A   17
N3
A   18
C4
A   19
C5
A   20
C17
A   21
C18
A   22
C23
A   23
O24
A   24
C13
A   25
C25
A   26
C26
A   27
N27
A   28
C28
A   29
N5
A   30
O29
A   31
N32
M  END
