4AAC_AAV_A_1360
     RDKit          3D

 57 61  0  0  0  0  0  0  0  0999 V2000
   -1.3550    4.3410   28.7110 C   0  0  0  0  0  0  0  0  0  0  0  0
   -1.3390    3.6250   27.4340 N   0  0  0  0  0  0  0  0  0  0  0  0
   -1.5470    2.1630   27.7190 C   0  0  0  0  0  0  0  0  0  0  0  0
   -1.6820    1.3900   26.3920 C   0  0  0  0  0  0  0  0  0  0  0  0
   -2.6900    2.0010   25.4850 N   0  0  0  0  0  0  0  0  0  0  0  0
   -2.3690    3.4190   25.1930 C   0  0  0  0  0  0  0  0  0  0  0  0
   -2.3940    4.1700   26.5420 C   0  0  0  0  0  0  0  0  0  0  0  0
   -2.8050    1.2250   24.3120 C   0  0  0  0  0  0  0  0  0  0  0  0
   -2.8240   -0.1850   24.4250 C   0  0  0  0  0  0  0  0  0  0  0  0
   -2.9610   -1.0100   23.3360 C   0  0  0  0  0  0  0  0  0  0  0  0
   -3.0640   -0.4160   22.0710 C   0  0  0  0  0  0  0  0  0  0  0  0
   -3.2070   -1.1900   20.9550 N   0  0  0  0  0  0  0  0  0  0  0  0
   -3.3930   -0.6730   19.7690 C   0  0  0  0  0  0  0  0  0  0  0  0
   -3.3990    0.6830   19.5600 N   0  0  0  0  0  0  0  0  0  0  0  0
   -3.6030    1.1900   18.2760 C   0  0  0  0  0  0  0  0  0  0  0  0
   -2.5290    1.5860   17.4710 C   0  0  0  0  0  0  0  0  0  0  0  0
   -2.7860    2.1000   16.1950 C   0  0  0  0  0  0  0  0  0  0  0  0
   -2.1810    3.2720   14.1690 N   0  0  0  0  0  0  0  0  0  0  0  0
   -1.7600    2.5280   15.1910 C   0  0  0  0  0  0  0  0  0  0  0  0
   -0.5740    2.2130   15.1870 O   0  0  0  0  0  0  0  0  0  0  0  0
   -1.3220    4.8510   12.3900 C   0  0  0  0  0  0  0  0  0  0  0  0
   -0.2530    4.7390   11.5590 C   0  0  0  0  0  0  0  0  0  0  0  0
    0.3530    3.5680   11.8350 O   0  0  0  0  0  0  0  0  0  0  0  0
   -1.2710    3.6680   13.1700 C   0  0  0  0  0  0  0  0  0  0  0  0
   -4.1280    2.2000   15.8030 C   0  0  0  0  0  0  0  0  0  0  0  0
   -5.1860    1.8530   16.6170 C   0  0  0  0  0  0  0  0  0  0  0  0
   -4.9340    1.3230   17.8570 C   0  0  0  0  0  0  0  0  0  0  0  0
   -6.1270    0.9280   18.7100 C   0  0  0  0  0  0  0  0  0  0  0  0
   -0.2220    2.9800   12.7370 N   0  0  0  0  0  0  0  0  0  0  0  0
   -3.2030    1.5650   20.5840 C   0  0  0  0  0  0  0  0  0  0  0  0
   -2.9280    1.8280   23.0550 C   0  0  0  0  0  0  0  0  0  0  0  0
   -3.2060    2.7730   20.3910 O   0  0  0  0  0  0  0  0  0  0  0  0
   -3.0430    1.0060   21.9400 C   0  0  0  0  0  0  0  0  0  0  0  0
   -1.3388    3.6160   29.5381 H   0  0  0  0  0  0  0  0  0  0  0  0
   -0.4712    4.9925   28.7772 H   0  0  0  0  0  0  0  0  0  0  0  0
   -2.2670    4.9524   28.7772 H   0  0  0  0  0  0  0  0  0  0  0  0
   -0.6863    1.7742   28.2829 H   0  0  0  0  0  0  0  0  0  0  0  0
   -2.4649    2.0339   28.3113 H   0  0  0  0  0  0  0  0  0  0  0  0
   -0.7061    1.3847   25.8845 H   0  0  0  0  0  0  0  0  0  0  0  0
   -2.0162    0.3691   26.6288 H   0  0  0  0  0  0  0  0  0  0  0  0
   -1.3713    3.4949   24.7360 H   0  0  0  0  0  0  0  0  0  0  0  0
   -3.0948    3.8505   24.4880 H   0  0  0  0  0  0  0  0  0  0  0  0
   -3.3780    4.0391   27.0159 H   0  0  0  0  0  0  0  0  0  0  0  0
   -2.2091    5.2403   26.3683 H   0  0  0  0  0  0  0  0  0  0  0  0
   -2.7253   -0.6375   25.4228 H   0  0  0  0  0  0  0  0  0  0  0  0
   -2.9890   -2.1034   23.4530 H   0  0  0  0  0  0  0  0  0  0  0  0
   -3.5494   -1.3454   18.9126 H   0  0  0  0  0  0  0  0  0  0  0  0
   -1.4956    1.4944   17.8367 H   0  0  0  0  0  0  0  0  0  0  0  0
   -3.1691    3.5566   14.1098 H   0  0  0  0  0  0  0  0  0  0  0  0
   -2.0558    5.6686   12.4449 H   0  0  0  0  0  0  0  0  0  0  0  0
    0.0603    5.4707   10.7997 H   0  0  0  0  0  0  0  0  0  0  0  0
   -4.3491    2.5750   14.7928 H   0  0  0  0  0  0  0  0  0  0  0  0
   -6.2213    1.9997   16.2754 H   0  0  0  0  0  0  0  0  0  0  0  0
   -5.8621    1.0157   19.7740 H   0  0  0  0  0  0  0  0  0  0  0  0
   -6.9738    1.5937   18.4869 H   0  0  0  0  0  0  0  0  0  0  0  0
   -6.4092   -0.1115   18.4869 H   0  0  0  0  0  0  0  0  0  0  0  0
   -2.9335    2.9232   22.9522 H   0  0  0  0  0  0  0  0  0  0  0  0
  1  2  1  0
  2  3  1  0
  2  7  1  0
  3  4  1  0
  4  5  1  0
  5  6  1  0
  5  8  1  0
  6  7  1  0
  8  9  2  0
  8 31  1  0
  9 10  1  0
 10 11  2  0
 11 12  1  0
 11 33  1  0
 12 13  2  0
 13 14  1  0
 14 15  1  0
 14 30  1  0
 15 16  2  0
 15 27  1  0
 16 17  1  0
 17 19  1  0
 17 25  2  0
 18 19  1  0
 18 24  1  0
 19 20  2  0
 21 22  2  0
 21 24  1  0
 22 23  1  0
 23 29  1  0
 24 29  2  0
 25 26  1  0
 26 27  2  0
 27 28  1  0
 30 32  2  0
 30 33  1  0
 31 33  2  0
  1 34  1  0
  1 35  1  0
  1 36  1  0
  3 37  1  0
  3 38  1  0
  4 39  1  0
  4 40  1  0
  6 41  1  0
  6 42  1  0
  7 43  1  0
  7 44  1  0
  9 45  1  0
 10 46  1  0
 13 47  1  0
 16 48  1  0
 18 49  1  0
 21 50  1  0
 22 51  1  0
 25 52  1  0
 26 53  1  0
 28 54  1  0
 28 55  1  0
 28 56  1  0
 31 57  1  0
A    1
C1
A    2
N2
A    3
C3
A    4
C4
A    5
N5
A    6
C6
A    7
C7
A    8
C8
A    9
C9
A   10
C10
A   11
C11
A   12
N12
A   13
C13
A   14
N14
A   15
C15
A   16
C16
A   17
C17
A   18
N18
A   19
C19
A   20
O20
A   21
C22
A   22
C23
A   23
O24
A   24
C25
A   25
C26
A   26
C27
A   27
C28
A   28
C29
A   29
N29
A   30
C30
A   31
C31
A   32
O31
A   33
C32
M  END
