3AM4_FT1_A_802
     RDKit          3D

 26 27  0  0  0  0  0  0  0  0999 V2000
   49.9270   92.0280   34.6080 C   0  0  0  0  0  0  0  0  0  0  0  0
   48.9640   92.4190   33.6810 C   0  0  0  0  0  0  0  0  0  0  0  0
   48.7210   93.7740   33.4600 C   0  0  0  0  0  0  0  0  0  0  0  0
   49.4560   94.7420   34.1550 C   0  0  0  0  0  0  0  0  0  0  0  0
   50.4410   94.3580   35.0710 C   0  0  0  0  0  0  0  0  0  0  0  0
   50.6770   93.0050   35.3050 C   0  0  0  0  0  0  0  0  0  0  0  0
   50.1810   90.6880   34.8180 O   0  0  0  0  0  0  0  0  0  0  0  0
   51.2320   90.0940   34.1370 C   0  0  0  0  0  0  0  0  0  0  0  0
   51.6520   88.8220   34.4830 C   0  0  0  0  0  0  0  0  0  0  0  0
   52.7160   88.2250   33.8030 C   0  0  0  0  0  0  0  0  0  0  0  0
   53.3690   88.9130   32.7790 C   0  0  0  0  0  0  0  0  0  0  0  0
   52.9640   90.1990   32.4230 C   0  0  0  0  0  0  0  0  0  0  0  0
   51.9030   90.7870   33.1010 C   0  0  0  0  0  0  0  0  0  0  0  0
   49.1690   96.1760   33.8980 C   0  0  0  0  0  0  0  0  0  0  0  0
   49.6010   97.0470   34.6400 O   0  0  0  0  0  0  0  0  0  0  0  0
   54.7400   88.1370   31.9150 Cl  0  0  0  0  0  0  0  0  0  0  0  0
   50.8420   87.9190   35.8050 Cl  0  0  0  0  0  0  0  0  0  0  0  0
   48.2330   91.4870   32.9940 O   0  0  0  0  0  0  0  0  0  0  0  0
   47.9505   94.0831   32.7383 H   0  0  0  0  0  0  0  0  0  0  0  0
   51.0268   95.1211   35.6044 H   0  0  0  0  0  0  0  0  0  0  0  0
   51.4447   92.6968   36.0300 H   0  0  0  0  0  0  0  0  0  0  0  0
   53.0403   87.2097   34.0752 H   0  0  0  0  0  0  0  0  0  0  0  0
   53.4779   90.7412   31.6156 H   0  0  0  0  0  0  0  0  0  0  0  0
   51.5807   91.8031   32.8294 H   0  0  0  0  0  0  0  0  0  0  0  0
   48.5589   96.4591   33.0275 H   0  0  0  0  0  0  0  0  0  0  0  0
   47.7033   90.8116   33.4873 H   0  0  0  0  0  0  0  0  0  0  0  0
  1  2  2  0
  1  6  1  0
  1  7  1  0
  2  3  1  0
  2 18  1  0
  3  4  2  0
  4  5  1  0
  4 14  1  0
  5  6  2  0
  7  8  1  0
  8  9  2  0
  8 13  1  0
  9 10  1  0
  9 17  1  0
 10 11  2  0
 11 12  1  0
 11 16  1  0
 12 13  2  0
 14 15  2  0
  3 19  1  0
  5 20  1  0
  6 21  1  0
 10 22  1  0
 12 23  1  0
 13 24  1  0
 14 25  1  0
 18 26  1  0
A    1
C1
A    2
C2
A    3
C3
A    4
C4
A    5
C5
A    6
C6
A    7
O7
A    8
C8
A    9
C9
A   10
C10
A   11
C11
A   12
C12
A   13
C13
A   14
C14
A   15
O15
A   16
CL1
A   17
CL9
A   18
O18
M  END
