3LT1_FT2_A_502
     RDKit          3D

 27 28  0  0  0  0  0  0  0  0999 V2000
   50.2140   92.1480   34.7010 C   0  0  0  0  0  0  0  0  0  0  0  0
   49.3780   92.4650   33.6470 C   0  0  0  0  0  0  0  0  0  0  0  0
   49.0790   93.7770   33.3580 C   0  0  0  0  0  0  0  0  0  0  0  0
   49.6470   94.7830   34.1140 C   0  0  0  0  0  0  0  0  0  0  0  0
   50.5040   94.4850   35.1730 C   0  0  0  0  0  0  0  0  0  0  0  0
   50.7940   93.1640   35.4750 C   0  0  0  0  0  0  0  0  0  0  0  0
   50.4760   90.8190   34.9310 O   0  0  0  0  0  0  0  0  0  0  0  0
   51.5310   90.2400   34.2660 C   0  0  0  0  0  0  0  0  0  0  0  0
   51.9240   88.9460   34.5880 C   0  0  0  0  0  0  0  0  0  0  0  0
   53.0000   88.3610   33.9500 C   0  0  0  0  0  0  0  0  0  0  0  0
   53.6710   89.0980   32.9930 C   0  0  0  0  0  0  0  0  0  0  0  0
   53.3010   90.3930   32.6450 C   0  0  0  0  0  0  0  0  0  0  0  0
   52.2260   90.9700   33.2900 C   0  0  0  0  0  0  0  0  0  0  0  0
   49.3010   96.1910   33.7430 C   0  0  0  0  0  0  0  0  0  0  0  0
   49.3140   97.1430   35.2340 Cl  0  0  0  0  0  0  0  0  0  0  0  0
   55.0380   88.3060   32.1870 Cl  0  0  0  0  0  0  0  0  0  0  0  0
   51.1000   87.9770   35.8470 Cl  0  0  0  0  0  0  0  0  0  0  0  0
   48.8470   91.4810   32.8970 O   0  0  0  0  0  0  0  0  0  0  0  0
   48.3941   94.0217   32.5327 H   0  0  0  0  0  0  0  0  0  0  0  0
   50.9488   95.2967   35.7673 H   0  0  0  0  0  0  0  0  0  0  0  0
   51.4681   92.9161   36.3082 H   0  0  0  0  0  0  0  0  0  0  0  0
   53.3144   87.3362   34.1969 H   0  0  0  0  0  0  0  0  0  0  0  0
   53.8540   90.9459   31.8714 H   0  0  0  0  0  0  0  0  0  0  0  0
   51.9161   91.9955   33.0405 H   0  0  0  0  0  0  0  0  0  0  0  0
   50.0443   96.5879   33.0359 H   0  0  0  0  0  0  0  0  0  0  0  0
   48.3140   96.2361   33.2595 H   0  0  0  0  0  0  0  0  0  0  0  0
   48.4250   90.6989   33.3333 H   0  0  0  0  0  0  0  0  0  0  0  0
  1  2  2  0
  1  6  1  0
  1  7  1  0
  2  3  1  0
  2 18  1  0
  3  4  2  0
  4  5  1  0
  4 14  1  0
  5  6  2  0
  7  8  1  0
  8  9  2  0
  8 13  1  0
  9 10  1  0
  9 17  1  0
 10 11  2  0
 11 12  1  0
 11 16  1  0
 12 13  2  0
 14 15  1  0
  3 19  1  0
  5 20  1  0
  6 21  1  0
 10 22  1  0
 12 23  1  0
 13 24  1  0
 14 25  1  0
 14 26  1  0
 18 27  1  0
A    1
C1
A    2
C2
A    3
C3
A    4
C4
A    5
C5
A    6
C6
A    7
O7
A    8
C8
A    9
C9
A   10
C10
A   11
C11
A   12
C12
A   13
C13
A   14
C14
A   15
CL15
A   16
CL16
A   17
CL17
A   18
O18
M  END
