3V3O_T1C_A_404
     RDKit          3D

 83 86  0  0  0  0  0  0  0  0999 V2000
   13.9300   39.1940    1.7750 C   0  0  0  0  0  0  0  0  0  0  0  0
   13.7720   38.0610    0.8040 C   0  0  0  0  0  0  0  0  0  0  0  0
   12.3380   37.6110    0.8380 C   0  0  0  0  0  0  0  0  0  0  0  0
   14.6970   36.9150    1.2480 C   0  0  0  0  0  0  0  0  0  0  0  0
   14.1320   38.5130   -0.5480 N   0  0  0  0  0  0  0  0  0  0  0  0
   13.5830   37.6670   -1.6130 C   0  0  0  0  0  0  0  0  0  0  0  0
   14.6820   37.3660   -2.6450 C   0  0  0  0  0  0  0  0  0  0  0  0
   14.9930   38.2200   -3.4730 O   0  0  0  0  0  0  0  0  0  0  0  0
   15.3480   36.0390   -2.6390 N   0  0  0  0  0  0  0  0  0  0  0  0
   16.4100   35.6360   -3.6080 C   0  0  0  0  0  0  0  0  0  0  0  0
   17.5290   36.4890   -3.8680 C   0  0  0  0  0  0  0  0  0  0  0  0
   18.5750   36.1280   -4.7860 C   0  0  0  0  0  0  0  0  0  0  0  0
   19.6880   37.1050   -4.9740 N   0  0  0  0  0  0  0  0  0  0  0  0
   19.4690   38.2770   -4.1480 C   0  0  0  0  0  0  0  0  0  0  0  0
   20.9690   36.5590   -4.6180 C   0  0  0  0  0  0  0  0  0  0  0  0
   18.4690   34.7640   -5.5210 C   0  0  0  0  0  0  0  0  0  0  0  0
   19.5770   34.3080   -6.5570 C   0  0  0  0  0  0  0  0  0  0  0  0
   19.1310   33.2380   -7.6100 C   0  0  0  0  0  0  0  0  0  0  0  0
   20.3440   32.4590   -8.1020 C   0  0  0  0  0  0  0  0  0  0  0  0
   19.9290   31.3670   -9.1410 C   0  0  0  0  0  0  0  0  0  0  0  0
   21.1710   30.4610   -9.5230 C   0  0  0  0  0  0  0  0  0  0  0  0
   21.4830   30.6650  -10.9760 N   0  0  0  0  0  0  0  0  0  0  0  0
   20.9840   31.9120  -11.5840 C   0  0  0  0  0  0  0  0  0  0  0  0
   22.8970   30.4970  -11.2860 C   0  0  0  0  0  0  0  0  0  0  0  0
   21.1290   28.9440   -9.1470 C   0  0  0  0  0  0  0  0  0  0  0  0
   22.2920   28.1600   -9.1860 O   0  0  0  0  0  0  0  0  0  0  0  0
   19.9360   28.3140   -8.7790 C   0  0  0  0  0  0  0  0  0  0  0  0
   19.8520   26.8390   -8.4510 C   0  0  0  0  0  0  0  0  0  0  0  0
   20.5460   26.0200   -9.0480 O   0  0  0  0  0  0  0  0  0  0  0  0
   18.9060   26.3600   -7.4840 N   0  0  0  0  0  0  0  0  0  0  0  0
   18.6680   29.0730   -8.7430 C   0  0  0  0  0  0  0  0  0  0  0  0
   17.4780   28.3420   -8.6130 O   0  0  0  0  0  0  0  0  0  0  0  0
   18.6160   30.5750   -8.8460 C   0  0  0  0  0  0  0  0  0  0  0  0
   17.8600   30.8880   -9.9390 O   0  0  0  0  0  0  0  0  0  0  0  0
   17.8980   31.0950   -7.6260 C   0  0  0  0  0  0  0  0  0  0  0  0
   16.9140   30.3000   -7.0510 O   0  0  0  0  0  0  0  0  0  0  0  0
   18.1380   32.2790   -7.0930 C   0  0  0  0  0  0  0  0  0  0  0  0
   17.2950   32.6330   -5.9480 C   0  0  0  0  0  0  0  0  0  0  0  0
   16.3230   31.7150   -5.5490 O   0  0  0  0  0  0  0  0  0  0  0  0
   17.4130   33.9380   -5.2690 C   0  0  0  0  0  0  0  0  0  0  0  0
   16.3120   34.3510   -4.2850 C   0  0  0  0  0  0  0  0  0  0  0  0
   15.2160   33.5030   -4.0270 O   0  0  0  0  0  0  0  0  0  0  0  0
   13.8759   38.8062    2.8029 H   0  0  0  0  0  0  0  0  0  0  0  0
   14.9045   39.6792    1.6169 H   0  0  0  0  0  0  0  0  0  0  0  0
   13.1254   39.9273    1.6169 H   0  0  0  0  0  0  0  0  0  0  0  0
   12.0106   37.5083    1.8831 H   0  0  0  0  0  0  0  0  0  0  0  0
   11.7081   38.3547    0.3279 H   0  0  0  0  0  0  0  0  0  0  0  0
   12.2460   36.6408    0.3279 H   0  0  0  0  0  0  0  0  0  0  0  0
   14.7295   36.8748    2.3468 H   0  0  0  0  0  0  0  0  0  0  0  0
   14.3126   35.9612    0.8574 H   0  0  0  0  0  0  0  0  0  0  0  0
   15.7104   37.0895    0.8574 H   0  0  0  0  0  0  0  0  0  0  0  0
   13.7767   39.4711   -0.6769 H   0  0  0  0  0  0  0  0  0  0  0  0
   13.2176   36.7239   -1.1806 H   0  0  0  0  0  0  0  0  0  0  0  0
   12.7506   38.1909   -2.1055 H   0  0  0  0  0  0  0  0  0  0  0  0
   15.0603   35.3559   -1.9239 H   0  0  0  0  0  0  0  0  0  0  0  0
   17.5912   37.4557   -3.3468 H   0  0  0  0  0  0  0  0  0  0  0  0
   19.6936   37.3453   -5.9756 H   0  0  0  0  0  0  0  0  0  0  0  0
   19.5221   37.9927   -3.0867 H   0  0  0  0  0  0  0  0  0  0  0  0
   20.2423   39.0285   -4.3654 H   0  0  0  0  0  0  0  0  0  0  0  0
   18.4765   38.6986   -4.3654 H   0  0  0  0  0  0  0  0  0  0  0  0
   21.0595   36.5204   -3.5224 H   0  0  0  0  0  0  0  0  0  0  0  0
   21.0618   35.5431   -5.0296 H   0  0  0  0  0  0  0  0  0  0  0  0
   21.7661   37.1956   -5.0296 H   0  0  0  0  0  0  0  0  0  0  0  0
   19.9133   35.2004   -7.1052 H   0  0  0  0  0  0  0  0  0  0  0  0
   20.3636   33.8259   -5.9581 H   0  0  0  0  0  0  0  0  0  0  0  0
   18.6546   33.7977   -8.4284 H   0  0  0  0  0  0  0  0  0  0  0  0
   21.0503   33.1562   -8.5765 H   0  0  0  0  0  0  0  0  0  0  0  0
   20.8120   31.9609   -7.2401 H   0  0  0  0  0  0  0  0  0  0  0  0
   19.6233   31.9249  -10.0384 H   0  0  0  0  0  0  0  0  0  0  0  0
   21.9815   30.8137   -8.8683 H   0  0  0  0  0  0  0  0  0  0  0  0
   20.9420   29.9061  -11.4145 H   0  0  0  0  0  0  0  0  0  0  0  0
   20.7010   32.6192  -10.7904 H   0  0  0  0  0  0  0  0  0  0  0  0
   21.7732   32.3573  -12.2076 H   0  0  0  0  0  0  0  0  0  0  0  0
   20.1055   31.6899  -12.2076 H   0  0  0  0  0  0  0  0  0  0  0  0
   23.4718   30.4287  -10.3506 H   0  0  0  0  0  0  0  0  0  0  0  0
   23.0373   29.5759  -11.8707 H   0  0  0  0  0  0  0  0  0  0  0  0
   23.2492   31.3596  -11.8707 H   0  0  0  0  0  0  0  0  0  0  0  0
   22.7220   27.8701   -8.3427 H   0  0  0  0  0  0  0  0  0  0  0  0
   19.1028   26.4596   -6.4779 H   0  0  0  0  0  0  0  0  0  0  0  0
   18.0303   25.9166   -7.7961 H   0  0  0  0  0  0  0  0  0  0  0  0
   16.9869   31.2495   -9.6438 H   0  0  0  0  0  0  0  0  0  0  0  0
   16.8394   30.2398   -6.0657 H   0  0  0  0  0  0  0  0  0  0  0  0
   14.9552   33.3012   -3.0935 H   0  0  0  0  0  0  0  0  0  0  0  0
  1  2  1  0
  2  3  1  0
  2  4  1  0
  2  5  1  0
  5  6  1  0
  6  7  1  0
  7  8  2  0
  7  9  1  0
  9 10  1  0
 10 11  2  0
 10 41  1  0
 11 12  1  0
 12 13  1  0
 12 16  2  0
 17 16  1  0
 13 14  1  0
 13 15  1  0
 16 40  1  0
 17 18  1  0
 18 19  1  0
 18 37  1  0
 19 20  1  0
 20 21  1  0
 20 33  1  0
 21 22  1  0
 21 25  1  0
 22 23  1  0
 22 24  1  0
 25 26  1  0
 25 27  2  0
 27 28  1  0
 27 31  1  0
 28 29  2  0
 28 30  1  0
 31 32  2  0
 31 33  1  0
 33 34  1  0
 33 35  1  0
 35 36  1  0
 35 37  2  0
 37 38  1  0
 38 39  2  0
 38 40  1  0
 40 41  2  0
 41 42  1  0
  1 43  1  0
  1 44  1  0
  1 45  1  0
  3 46  1  0
  3 47  1  0
  3 48  1  0
  4 49  1  0
  4 50  1  0
  4 51  1  0
  5 52  1  0
  6 53  1  0
  6 54  1  0
  9 55  1  0
 11 56  1  0
 13 57  1  0
 14 58  1  0
 14 59  1  0
 14 60  1  0
 15 61  1  0
 15 62  1  0
 15 63  1  0
 17 64  1  0
 17 65  1  0
 18 66  1  0
 19 67  1  0
 19 68  1  0
 20 69  1  0
 21 70  1  0
 22 71  1  0
 23 72  1  0
 23 73  1  0
 23 74  1  0
 24 75  1  0
 24 76  1  0
 24 77  1  0
 26 78  1  0
 30 79  1  0
 30 80  1  0
 34 81  1  0
 36 82  1  0
 42 83  1  0
M  CHG  2  13   1  22   1
A    1
C94
A    2
C93
A    3
C95
A    4
C96
A    5
N92
A    6
C92
A    7
C91
A    8
O91
A    9
N9
A   10
C9
A   11
C8
A   12
C7
A   13
N7
A   14
C71
A   15
C72
A   16
C61
A   17
C6
A   18
C51
A   19
C5
A   20
C41
A   21
C4
A   22
N4
A   23
C43
A   24
C42
A   25
C3
A   26
O3
A   27
C2
A   28
C21
A   29
O21
A   30
N21
A   31
C1
A   32
O1
A   33
C1C
A   34
O1C
A   35
C12
A   36
O12
A   37
C1B
A   38
C11
A   39
O11
A   40
C1A
A   41
C10
A   42
O10
M  END
