4AC3_R83_A_1460
     RDKit          3D

 60 62  0  0  0  0  0  0  0  0999 V2000
   43.9180   41.1500   80.2640 C   0  0  0  0  0  0  0  0  0  0  0  0
   44.0470   39.7090   79.9980 O   0  0  0  0  0  0  0  0  0  0  0  0
   44.4520   38.9560   81.1050 C   0  0  0  0  0  0  0  0  0  0  0  0
   44.3370   39.4320   82.4230 C   0  0  0  0  0  0  0  0  0  0  0  0
   44.7370   38.6260   83.4500 C   0  0  0  0  0  0  0  0  0  0  0  0
   44.7420   39.0660   84.7580 O   0  0  0  0  0  0  0  0  0  0  0  0
   44.0770   40.3840   84.9730 C   0  0  0  0  0  0  0  0  0  0  0  0
   45.2730   37.3500   83.1650 C   0  0  0  0  0  0  0  0  0  0  0  0
   45.3130   36.8540   81.8660 C   0  0  0  0  0  0  0  0  0  0  0  0
   44.8750   37.6420   80.8440 C   0  0  0  0  0  0  0  0  0  0  0  0
   44.9120   37.2800   79.4850 N   0  0  0  0  0  0  0  0  0  0  0  0
   45.8380   36.4750   78.8610 C   0  0  0  0  0  0  0  0  0  0  0  0
   46.6530   35.8460   79.5690 O   0  0  0  0  0  0  0  0  0  0  0  0
   45.6810   36.2960   77.3440 C   0  0  0  0  0  0  0  0  0  0  0  0
   45.7660   36.3010   84.4620 S   0  0  0  0  0  0  0  0  0  0  0  0
   46.6890   36.9190   85.2940 O   0  0  0  0  0  0  0  0  0  0  0  0
   46.0100   35.0430   83.8310 O   0  0  0  0  0  0  0  0  0  0  0  0
   44.4240   36.0370   85.4810 N   0  0  0  0  0  0  0  0  0  0  0  0
   43.1130   35.5830   84.9690 C   0  0  0  0  0  0  0  0  0  0  0  0
   42.0940   36.6920   85.1560 C   0  0  0  0  0  0  0  0  0  0  0  0
   41.1720   36.8930   84.1150 C   0  0  0  0  0  0  0  0  0  0  0  0
   40.2340   37.9200   84.2570 C   0  0  0  0  0  0  0  0  0  0  0  0
   40.1890   38.7120   85.4080 C   0  0  0  0  0  0  0  0  0  0  0  0
   41.0730   38.4870   86.4810 C   0  0  0  0  0  0  0  0  0  0  0  0
   42.0250   37.4700   86.3550 C   0  0  0  0  0  0  0  0  0  0  0  0
   42.9120   37.2140   87.4090 N   0  0  0  0  0  0  0  0  0  0  0  0
   43.0920   38.2780   88.4100 C   0  0  0  0  0  0  0  0  0  0  0  0
   44.2410   37.8860   89.3970 C   0  0  0  0  0  0  0  0  0  0  0  0
   44.1110   36.4470   89.9350 C   0  0  0  0  0  0  0  0  0  0  0  0
   43.5810   35.4320   88.8850 C   0  0  0  0  0  0  0  0  0  0  0  0
   42.3910   36.0540   88.1340 C   0  0  0  0  0  0  0  0  0  0  0  0
   43.9026   41.3224   81.3503 H   0  0  0  0  0  0  0  0  0  0  0  0
   44.7721   41.6827   79.8203 H   0  0  0  0  0  0  0  0  0  0  0  0
   42.9829   41.5225   79.8203 H   0  0  0  0  0  0  0  0  0  0  0  0
   43.9323   40.4351   82.6230 H   0  0  0  0  0  0  0  0  0  0  0  0
   43.9809   40.5745   86.0521 H   0  0  0  0  0  0  0  0  0  0  0  0
   44.6818   41.1792   84.5127 H   0  0  0  0  0  0  0  0  0  0  0  0
   43.0780   40.3701   84.5127 H   0  0  0  0  0  0  0  0  0  0  0  0
   45.6925   35.8409   81.6667 H   0  0  0  0  0  0  0  0  0  0  0  0
   44.1619   37.6600   78.8901 H   0  0  0  0  0  0  0  0  0  0  0  0
   44.9679   35.4830   77.1426 H   0  0  0  0  0  0  0  0  0  0  0  0
   45.3061   37.2306   76.9014 H   0  0  0  0  0  0  0  0  0  0  0  0
   46.6565   36.0462   76.9014 H   0  0  0  0  0  0  0  0  0  0  0  0
   44.7222   35.3309   86.1690 H   0  0  0  0  0  0  0  0  0  0  0  0
   43.1998   35.3393   83.8998 H   0  0  0  0  0  0  0  0  0  0  0  0
   42.7905   34.6875   85.5204 H   0  0  0  0  0  0  0  0  0  0  0  0
   41.1877   36.2610   83.2148 H   0  0  0  0  0  0  0  0  0  0  0  0
   39.5159   38.1089   83.4454 H   0  0  0  0  0  0  0  0  0  0  0  0
   39.4508   39.5246   85.4768 H   0  0  0  0  0  0  0  0  0  0  0  0
   41.0162   39.0959   87.3954 H   0  0  0  0  0  0  0  0  0  0  0  0
   43.3520   39.2181   87.9014 H   0  0  0  0  0  0  0  0  0  0  0  0
   42.1567   38.4090   88.9740 H   0  0  0  0  0  0  0  0  0  0  0  0
   45.2020   37.9771   88.8696 H   0  0  0  0  0  0  0  0  0  0  0  0
   44.1788   38.5657   90.2596 H   0  0  0  0  0  0  0  0  0  0  0  0
   45.1029   36.1116   90.2721 H   0  0  0  0  0  0  0  0  0  0  0  0
   43.3764   36.4754   90.7533 H   0  0  0  0  0  0  0  0  0  0  0  0
   44.3815   35.1908   88.1701 H   0  0  0  0  0  0  0  0  0  0  0  0
   43.2567   34.5115   89.3925 H   0  0  0  0  0  0  0  0  0  0  0  0
   41.6155   36.3696   88.8474 H   0  0  0  0  0  0  0  0  0  0  0  0
   41.9348   35.3283   87.4446 H   0  0  0  0  0  0  0  0  0  0  0  0
  1  2  1  0
  2  3  1  0
  3  4  2  0
  3 10  1  0
  4  5  1  0
  5  6  1  0
  5  8  2  0
  6  7  1  0
  8  9  1  0
  8 15  1  0
  9 10  2  0
 10 11  1  0
 11 12  1  0
 12 13  2  0
 12 14  1  0
 15 16  2  0
 15 17  2  0
 15 18  1  0
 18 19  1  0
 19 20  1  0
 20 21  2  0
 20 25  1  0
 21 22  1  0
 22 23  2  0
 23 24  1  0
 24 25  2  0
 25 26  1  0
 26 27  1  0
 26 31  1  0
 27 28  1  0
 28 29  1  0
 29 30  1  0
 30 31  1  0
  1 32  1  0
  1 33  1  0
  1 34  1  0
  4 35  1  0
  7 36  1  0
  7 37  1  0
  7 38  1  0
  9 39  1  0
 11 40  1  0
 14 41  1  0
 14 42  1  0
 14 43  1  0
 18 44  1  0
 19 45  1  0
 19 46  1  0
 21 47  1  0
 22 48  1  0
 23 49  1  0
 24 50  1  0
 27 51  1  0
 27 52  1  0
 28 53  1  0
 28 54  1  0
 29 55  1  0
 29 56  1  0
 30 57  1  0
 30 58  1  0
 31 59  1  0
 31 60  1  0
A    1
C1
A    2
O2
A    3
C3
A    4
C4
A    5
C5
A    6
O6
A    7
C7
A    8
C8
A    9
C9
A   10
C10
A   11
N11
A   12
C12
A   13
O13
A   14
C14
A   15
S15
A   16
O16
A   17
O17
A   18
N18
A   19
C19
A   20
C20
A   21
C21
A   22
C22
A   23
C23
A   24
C24
A   25
C25
A   26
N26
A   27
C27
A   28
C28
A   29
C29
A   30
C30
A   31
C31
M  END
