4ACC_7YG_A_1387
     RDKit          3D

 54 56  0  0  0  0  0  0  0  0999 V2000
   11.2090   21.8830   13.3280 C   0  0  0  0  0  0  0  0  0  0  0  0
   12.5290   21.9890   14.0130 N   0  0  0  0  0  0  0  0  0  0  0  0
   12.6720   21.1030   15.2010 C   0  0  0  0  0  0  0  0  0  0  0  0
   13.7700   22.1940   13.1830 C   0  0  0  0  0  0  0  0  0  0  0  0
   13.8000   21.3760   11.8970 C   0  0  0  0  0  0  0  0  0  0  0  0
   13.9710   19.9690   12.2990 N   0  0  0  0  0  0  0  0  0  0  0  0
   13.6810   18.7440   11.1430 S   0  0  0  0  0  0  0  0  0  0  0  0
   13.6900   17.5000   11.8930 O   0  0  0  0  0  0  0  0  0  0  0  0
   12.6320   19.0720   10.2030 O   0  0  0  0  0  0  0  0  0  0  0  0
   15.2170   18.8030   10.1890 C   0  0  0  0  0  0  0  0  0  0  0  0
   15.2120   19.1540    8.8470 C   0  0  0  0  0  0  0  0  0  0  0  0
   16.4060   19.1920    8.1530 C   0  0  0  0  0  0  0  0  0  0  0  0
   17.6130   18.8760    8.7670 C   0  0  0  0  0  0  0  0  0  0  0  0
   17.5880   18.5300   10.1070 C   0  0  0  0  0  0  0  0  0  0  0  0
   16.4080   18.5000   10.8260 C   0  0  0  0  0  0  0  0  0  0  0  0
   18.8730   18.8560    8.0330 C   0  0  0  0  0  0  0  0  0  0  0  0
   19.0530   19.5450    6.8510 C   0  0  0  0  0  0  0  0  0  0  0  0
   20.1710   19.4780    6.1170 N   0  0  0  0  0  0  0  0  0  0  0  0
   21.1550   18.7070    6.6130 C   0  0  0  0  0  0  0  0  0  0  0  0
   20.9980   18.0460    7.8200 C   0  0  0  0  0  0  0  0  0  0  0  0
   19.8600   18.0900    8.5320 N   0  0  0  0  0  0  0  0  0  0  0  0
   22.0660   17.1780    8.3690 C   0  0  0  0  0  0  0  0  0  0  0  0
   23.1560   17.0920    7.8240 O   0  0  0  0  0  0  0  0  0  0  0  0
   21.6590   16.4800    9.4900 N   0  0  0  0  0  0  0  0  0  0  0  0
   22.4590   15.6880   10.3250 C   0  0  0  0  0  0  0  0  0  0  0  0
   21.8450   15.0640   11.3910 C   0  0  0  0  0  0  0  0  0  0  0  0
   22.6020   14.2980   12.2610 C   0  0  0  0  0  0  0  0  0  0  0  0
   23.9590   14.1880   12.0090 C   0  0  0  0  0  0  0  0  0  0  0  0
   24.5750   14.7750   10.9710 N   0  0  0  0  0  0  0  0  0  0  0  0
   23.8240   15.5200   10.1540 C   0  0  0  0  0  0  0  0  0  0  0  0
   22.3320   18.5790    5.8790 N   0  0  0  0  0  0  0  0  0  0  0  0
   10.4094   21.8188   14.0807 H   0  0  0  0  0  0  0  0  0  0  0  0
   11.0500   22.7713   12.6990 H   0  0  0  0  0  0  0  0  0  0  0  0
   11.1937   20.9807   12.6990 H   0  0  0  0  0  0  0  0  0  0  0  0
   12.5754   21.7017   16.1187 H   0  0  0  0  0  0  0  0  0  0  0  0
   11.8865   20.3332   15.1810 H   0  0  0  0  0  0  0  0  0  0  0  0
   13.6598   20.6194   15.1810 H   0  0  0  0  0  0  0  0  0  0  0  0
   13.8355   23.2592   12.9166 H   0  0  0  0  0  0  0  0  0  0  0  0
   14.6200   21.8562   13.7940 H   0  0  0  0  0  0  0  0  0  0  0  0
   12.8568   21.5014   11.3450 H   0  0  0  0  0  0  0  0  0  0  0  0
   14.6171   21.7029   11.2371 H   0  0  0  0  0  0  0  0  0  0  0  0
   14.9445   19.8609   12.6175 H   0  0  0  0  0  0  0  0  0  0  0  0
   14.2669   19.3996    8.3405 H   0  0  0  0  0  0  0  0  0  0  0  0
   16.4018   19.4786    7.0910 H   0  0  0  0  0  0  0  0  0  0  0  0
   18.5306   18.2725   10.6122 H   0  0  0  0  0  0  0  0  0  0  0  0
   16.4153   18.2378   11.8943 H   0  0  0  0  0  0  0  0  0  0  0  0
   18.2331   20.1844    6.4920 H   0  0  0  0  0  0  0  0  0  0  0  0
   20.6618   16.5491    9.7383 H   0  0  0  0  0  0  0  0  0  0  0  0
   20.7619   15.1742   11.5487 H   0  0  0  0  0  0  0  0  0  0  0  0
   22.1410   13.7939   13.1232 H   0  0  0  0  0  0  0  0  0  0  0  0
   24.5672   13.5849   12.6992 H   0  0  0  0  0  0  0  0  0  0  0  0
   24.3121   16.0232    9.3064 H   0  0  0  0  0  0  0  0  0  0  0  0
   23.2344   18.4809    6.3658 H   0  0  0  0  0  0  0  0  0  0  0  0
   22.2999   18.5825    4.8495 H   0  0  0  0  0  0  0  0  0  0  0  0
  1  2  1  0
  2  3  1  0
  2  4  1  0
  4  5  1  0
  5  6  1  0
  6  7  1  0
  7  8  2  0
  7  9  2  0
  7 10  1  0
 10 11  2  0
 10 15  1  0
 11 12  1  0
 12 13  2  0
 13 14  1  0
 13 16  1  0
 14 15  2  0
 16 17  2  0
 16 21  1  0
 17 18  1  0
 18 19  2  0
 19 20  1  0
 19 31  1  0
 20 21  2  0
 20 22  1  0
 22 23  2  0
 22 24  1  0
 24 25  1  0
 25 26  2  0
 25 30  1  0
 26 27  1  0
 27 28  2  0
 28 29  1  0
 29 30  2  0
  1 32  1  0
  1 33  1  0
  1 34  1  0
  3 35  1  0
  3 36  1  0
  3 37  1  0
  4 38  1  0
  4 39  1  0
  5 40  1  0
  5 41  1  0
  6 42  1  0
 11 43  1  0
 12 44  1  0
 14 45  1  0
 15 46  1  0
 17 47  1  0
 24 48  1  0
 26 49  1  0
 27 50  1  0
 28 51  1  0
 30 52  1  0
 31 53  1  0
 31 54  1  0
A    1
C1
A    2
N2
A    3
C3
A    4
C4
A    5
C5
A    6
N6
A    7
S7
A    8
O8
A    9
O9
A   10
C10
A   11
C11
A   12
C12
A   13
C13
A   14
C14
A   15
C15
A   16
C16
A   17
C17
A   18
N18
A   19
C19
A   20
C20
A   21
N21
A   22
C22
A   23
O23
A   24
N24
A   25
C25
A   26
C26
A   27
C27
A   28
C28
A   29
N29
A   30
C30
A   31
N31
M  END
