4ACF_46B_A_1479
     RDKit          3D

 46 48  0  0  0  0  0  0  0  0999 V2000
  -25.6740   88.6820    0.2860 O   0  0  0  0  0  0  0  0  0  0  0  0
  -26.2870   87.7260    0.7980 C   0  0  0  0  0  0  0  0  0  0  0  0
  -27.5160   87.5580    0.6600 O   0  0  0  0  0  0  0  0  0  0  0  0
  -25.4890   86.7500    1.6240 C   0  0  0  0  0  0  0  0  0  0  0  0
  -25.5200   87.1620    3.0040 O   0  0  0  0  0  0  0  0  0  0  0  0
  -26.1450   86.3890    3.9480 C   0  0  0  0  0  0  0  0  0  0  0  0
  -27.3070   85.6820    3.6450 C   0  0  0  0  0  0  0  0  0  0  0  0
  -27.9240   84.8970    4.6090 C   0  0  0  0  0  0  0  0  0  0  0  0
  -25.6080   86.3060    5.2290 C   0  0  0  0  0  0  0  0  0  0  0  0
  -26.2390   85.5200    6.1940 C   0  0  0  0  0  0  0  0  0  0  0  0
  -27.3880   84.7890    5.8840 C   0  0  0  0  0  0  0  0  0  0  0  0
  -28.0480   83.9730    6.9560 C   0  0  0  0  0  0  0  0  0  0  0  0
  -27.4350   83.5110    8.0510 N   0  0  0  0  0  0  0  0  0  0  0  0
  -28.3500   82.8640    8.7930 C   0  0  0  0  0  0  0  0  0  0  0  0
  -28.2450   82.2240    9.9640 C   0  0  0  0  0  0  0  0  0  0  0  0
  -29.3640   81.6210   10.5340 C   0  0  0  0  0  0  0  0  0  0  0  0
  -29.3390   83.6050    7.0210 C   0  0  0  0  0  0  0  0  0  0  0  0
  -29.5220   82.9280    8.1530 N   0  0  0  0  0  0  0  0  0  0  0  0
  -30.6360   82.3740    8.6560 C   0  0  0  0  0  0  0  0  0  0  0  0
  -30.5860   81.6940    9.8730 C   0  0  0  0  0  0  0  0  0  0  0  0
  -32.1620   80.9150   10.5830 Br  0  0  0  0  0  0  0  0  0  0  0  0
  -30.3180   83.8740    6.1270 N   0  0  0  0  0  0  0  0  0  0  0  0
  -31.0590   82.8350    5.4190 C   0  0  0  0  0  0  0  0  0  0  0  0
  -30.7070   82.7360    3.9260 C   0  0  0  0  0  0  0  0  0  0  0  0
  -31.5920   81.7260    3.1860 C   0  0  0  0  0  0  0  0  0  0  0  0
  -31.2170   81.5780    1.7220 C   0  0  0  0  0  0  0  0  0  0  0  0
  -25.2402   89.3585    0.8642 H   0  0  0  0  0  0  0  0  0  0  0  0
  -25.9260   85.7449    1.5301 H   0  0  0  0  0  0  0  0  0  0  0  0
  -24.4485   86.7282    1.2678 H   0  0  0  0  0  0  0  0  0  0  0  0
  -27.7381   85.7465    2.6351 H   0  0  0  0  0  0  0  0  0  0  0  0
  -28.8479   84.3547    4.3594 H   0  0  0  0  0  0  0  0  0  0  0  0
  -24.6900   86.8576    5.4799 H   0  0  0  0  0  0  0  0  0  0  0  0
  -25.8259   85.4755    7.2125 H   0  0  0  0  0  0  0  0  0  0  0  0
  -27.2733   82.1741   10.4772 H   0  0  0  0  0  0  0  0  0  0  0  0
  -29.2823   81.0932   11.4956 H   0  0  0  0  0  0  0  0  0  0  0  0
  -31.5871   82.4560    8.1095 H   0  0  0  0  0  0  0  0  0  0  0  0
  -30.5515   84.8590    5.9370 H   0  0  0  0  0  0  0  0  0  0  0  0
  -30.8391   81.8670    5.8929 H   0  0  0  0  0  0  0  0  0  0  0  0
  -32.1249   83.0996    5.4820 H   0  0  0  0  0  0  0  0  0  0  0  0
  -30.8384   83.7261    3.4650 H   0  0  0  0  0  0  0  0  0  0  0  0
  -29.6652   82.3919    3.8477 H   0  0  0  0  0  0  0  0  0  0  0  0
  -31.4919   80.7460    3.6754 H   0  0  0  0  0  0  0  0  0  0  0  0
  -32.6262   82.0986    3.2273 H   0  0  0  0  0  0  0  0  0  0  0  0
  -30.1964   81.1752    1.6438 H   0  0  0  0  0  0  0  0  0  0  0  0
  -31.9212   80.8904    1.2308 H   0  0  0  0  0  0  0  0  0  0  0  0
  -31.2618   82.5612    1.2308 H   0  0  0  0  0  0  0  0  0  0  0  0
  1  2  1  0
  2  3  2  0
  2  4  1  0
  4  5  1  0
  5  6  1  0
  6  7  2  0
  6  9  1  0
  7  8  1  0
  8 11  2  0
  9 10  2  0
 10 11  1  0
 11 12  1  0
 12 13  1  0
 12 17  2  0
 13 14  2  0
 14 15  1  0
 14 18  1  0
 15 16  2  0
 16 20  1  0
 17 18  1  0
 17 22  1  0
 18 19  1  0
 19 20  2  0
 20 21  1  0
 22 23  1  0
 23 24  1  0
 24 25  1  0
 25 26  1  0
  1 27  1  0
  4 28  1  0
  4 29  1  0
  7 30  1  0
  8 31  1  0
  9 32  1  0
 10 33  1  0
 15 34  1  0
 16 35  1  0
 19 36  1  0
 22 37  1  0
 23 38  1  0
 23 39  1  0
 24 40  1  0
 24 41  1  0
 25 42  1  0
 25 43  1  0
 26 44  1  0
 26 45  1  0
 26 46  1  0
A    1
O19
A    2
C18
A    3
O20
A    4
C17
A    5
O16
A    6
C13
A    7
C14
A    8
C15
A    9
C12
A   10
C11
A   11
C10
A   12
C2
A   13
N1
A   14
C9
A   15
C8
A   16
C7
A   17
C3
A   18
N4
A   19
C5
A   20
C6
A   21
BR1
A   22
N21
A   23
C22
A   24
C23
A   25
C24
A   26
C25
M  END
