4ACG_6LQ_A_1385
     RDKit          3D

 71 75  0  0  0  0  0  0  0  0999 V2000
   18.0170   26.3730    9.6230 C   0  0  0  0  0  0  0  0  0  0  0  0
   18.0370   24.9360    9.9380 N   0  0  0  0  0  0  0  0  0  0  0  0
   18.2580   24.1300    8.7230 C   0  0  0  0  0  0  0  0  0  0  0  0
   17.9700   22.6500    9.0380 C   0  0  0  0  0  0  0  0  0  0  0  0
   18.5340   22.2130   10.3470 N   0  0  0  0  0  0  0  0  0  0  0  0
   18.8580   23.1510   11.4500 C   0  0  0  0  0  0  0  0  0  0  0  0
   19.0350   24.6060   10.9760 C   0  0  0  0  0  0  0  0  0  0  0  0
   18.8000   20.5950   10.5720 S   0  0  0  0  0  0  0  0  0  0  0  0
   18.8070   20.3240   11.9610 O   0  0  0  0  0  0  0  0  0  0  0  0
   18.0070   19.8580    9.6480 O   0  0  0  0  0  0  0  0  0  0  0  0
   20.4370   20.3170    9.9770 C   0  0  0  0  0  0  0  0  0  0  0  0
   20.6420   20.0930    8.6170 C   0  0  0  0  0  0  0  0  0  0  0  0
   21.9250   19.8850    8.1600 C   0  0  0  0  0  0  0  0  0  0  0  0
   23.0130   19.9570    9.0500 C   0  0  0  0  0  0  0  0  0  0  0  0
   22.7940   20.1860   10.4140 C   0  0  0  0  0  0  0  0  0  0  0  0
   21.5080   20.3660   10.8700 C   0  0  0  0  0  0  0  0  0  0  0  0
   24.3810   19.6790    8.5350 C   0  0  0  0  0  0  0  0  0  0  0  0
   25.2990   18.9070    9.2750 C   0  0  0  0  0  0  0  0  0  0  0  0
   26.5570   18.6360    8.7010 C   0  0  0  0  0  0  0  0  0  0  0  0
   26.8170   19.1460    7.3940 C   0  0  0  0  0  0  0  0  0  0  0  0
   25.9340   19.8850    6.7580 N   0  0  0  0  0  0  0  0  0  0  0  0
   24.7470   20.1490    7.2660 C   0  0  0  0  0  0  0  0  0  0  0  0
   27.9750   18.9120    6.7080 N   0  0  0  0  0  0  0  0  0  0  0  0
   27.4870   17.7400    9.4220 C   0  0  0  0  0  0  0  0  0  0  0  0
   28.5950   17.4930    8.9630 O   0  0  0  0  0  0  0  0  0  0  0  0
   27.0240   17.1380   10.5450 N   0  0  0  0  0  0  0  0  0  0  0  0
   27.6770   16.2560   11.4130 C   0  0  0  0  0  0  0  0  0  0  0  0
   29.0370   16.3810   11.7130 C   0  0  0  0  0  0  0  0  0  0  0  0
   29.6380   15.5260   12.5330 N   0  0  0  0  0  0  0  0  0  0  0  0
   28.9570   14.5820   13.1800 C   0  0  0  0  0  0  0  0  0  0  0  0
   27.6010   14.3920   12.9370 C   0  0  0  0  0  0  0  0  0  0  0  0
   26.9450   15.2390   12.0450 C   0  0  0  0  0  0  0  0  0  0  0  0
   25.4640   15.0320   11.8270 C   0  0  0  0  0  0  0  0  0  0  0  0
   24.6890   16.2880   11.8030 N   0  0  0  0  0  0  0  0  0  0  0  0
   24.8990   17.2200   12.9580 C   0  0  0  0  0  0  0  0  0  0  0  0
   23.4910   17.7960   13.2030 C   0  0  0  0  0  0  0  0  0  0  0  0
   22.6040   16.5380   12.9120 C   0  0  0  0  0  0  0  0  0  0  0  0
   23.2540   16.0050   11.6270 C   0  0  0  0  0  0  0  0  0  0  0  0
   18.0089   26.9531   10.5575 H   0  0  0  0  0  0  0  0  0  0  0  0
   18.9116   26.6326    9.0380 H   0  0  0  0  0  0  0  0  0  0  0  0
   17.1155   26.6076    9.0380 H   0  0  0  0  0  0  0  0  0  0  0  0
   17.5835   24.4744    7.9252 H   0  0  0  0  0  0  0  0  0  0  0  0
   19.3006   24.2410    8.3903 H   0  0  0  0  0  0  0  0  0  0  0  0
   16.8803   22.5016    9.0587 H   0  0  0  0  0  0  0  0  0  0  0  0
   18.4516   22.0469    8.2542 H   0  0  0  0  0  0  0  0  0  0  0  0
   18.0417   23.1200   12.1866 H   0  0  0  0  0  0  0  0  0  0  0  0
   19.8167   22.8288   11.8825 H   0  0  0  0  0  0  0  0  0  0  0  0
   20.0455   24.7309   10.5596 H   0  0  0  0  0  0  0  0  0  0  0  0
   18.8929   25.2798   11.8338 H   0  0  0  0  0  0  0  0  0  0  0  0
   19.7921   20.0824    7.9187 H   0  0  0  0  0  0  0  0  0  0  0  0
   22.0995   19.6621    7.0970 H   0  0  0  0  0  0  0  0  0  0  0  0
   23.6416   20.2217   11.1142 H   0  0  0  0  0  0  0  0  0  0  0  0
   21.3244   20.5486   11.9391 H   0  0  0  0  0  0  0  0  0  0  0  0
   25.0403   18.5262   10.2740 H   0  0  0  0  0  0  0  0  0  0  0  0
   24.0312   20.7484    6.6843 H   0  0  0  0  0  0  0  0  0  0  0  0
   28.8506   18.7351    7.2208 H   0  0  0  0  0  0  0  0  0  0  0  0
   27.9725   18.9125    5.6780 H   0  0  0  0  0  0  0  0  0  0  0  0
   26.0505   17.3624   10.7955 H   0  0  0  0  0  0  0  0  0  0  0  0
   29.6179   17.1997   11.2632 H   0  0  0  0  0  0  0  0  0  0  0  0
   29.4726   13.9458   13.9144 H   0  0  0  0  0  0  0  0  0  0  0  0
   27.0528   13.5833   13.4424 H   0  0  0  0  0  0  0  0  0  0  0  0
   25.3226   14.5177   10.8650 H   0  0  0  0  0  0  0  0  0  0  0  0
   25.0926   14.4400   12.6764 H   0  0  0  0  0  0  0  0  0  0  0  0
   25.2628   16.6768   13.8426 H   0  0  0  0  0  0  0  0  0  0  0  0
   25.6539   17.9944   12.7569 H   0  0  0  0  0  0  0  0  0  0  0  0
   23.3711   18.1448   14.2393 H   0  0  0  0  0  0  0  0  0  0  0  0
   23.2466   18.6768   12.5910 H   0  0  0  0  0  0  0  0  0  0  0  0
   22.6652   15.8040   13.7290 H   0  0  0  0  0  0  0  0  0  0  0  0
   21.5298   16.7552   12.8178 H   0  0  0  0  0  0  0  0  0  0  0  0
   22.8587   16.5283   10.7439 H   0  0  0  0  0  0  0  0  0  0  0  0
   23.0524   14.9358   11.4653 H   0  0  0  0  0  0  0  0  0  0  0  0
  1  2  1  0
  2  3  1  0
  2  7  1  0
  3  4  1  0
  4  5  1  0
  5  6  1  0
  5  8  1  0
  6  7  1  0
  8  9  2  0
  8 10  2  0
  8 11  1  0
 11 12  2  0
 11 16  1  0
 12 13  1  0
 13 14  2  0
 14 15  1  0
 14 17  1  0
 15 16  2  0
 17 18  2  0
 17 22  1  0
 18 19  1  0
 19 20  2  0
 19 24  1  0
 20 21  1  0
 20 23  1  0
 21 22  2  0
 24 25  2  0
 24 26  1  0
 26 27  1  0
 27 28  2  0
 27 32  1  0
 28 29  1  0
 29 30  2  0
 30 31  1  0
 31 32  2  0
 32 33  1  0
 33 34  1  0
 34 35  1  0
 34 38  1  0
 35 36  1  0
 36 37  1  0
 37 38  1  0
  1 39  1  0
  1 40  1  0
  1 41  1  0
  3 42  1  0
  3 43  1  0
  4 44  1  0
  4 45  1  0
  6 46  1  0
  6 47  1  0
  7 48  1  0
  7 49  1  0
 12 50  1  0
 13 51  1  0
 15 52  1  0
 16 53  1  0
 18 54  1  0
 22 55  1  0
 23 56  1  0
 23 57  1  0
 26 58  1  0
 28 59  1  0
 30 60  1  0
 31 61  1  0
 33 62  1  0
 33 63  1  0
 35 64  1  0
 35 65  1  0
 36 66  1  0
 36 67  1  0
 37 68  1  0
 37 69  1  0
 38 70  1  0
 38 71  1  0
A    1
C1
A    2
N2
A    3
C3
A    4
C4
A    5
N5
A    6
C6
A    7
C7
A    8
S8
A    9
O9
A   10
O10
A   11
C11
A   12
C12
A   13
C13
A   14
C14
A   15
C15
A   16
C16
A   17
C17
A   18
C18
A   19
C19
A   20
C20
A   21
N21
A   22
C22
A   23
N23
A   24
C24
A   25
O25
A   26
N26
A   27
C27
A   28
C28
A   29
N29
A   30
C30
A   31
C31
A   32
C32
A   33
C33
A   34
N34
A   35
C35
A   36
C36
A   37
C37
A   38
C38
M  END
