4ACH_KDI_A_1386
     RDKit          3D

 59 61  0  0  0  0  0  0  0  0999 V2000
   47.6880   42.3470   54.6820 C   0  0  0  0  0  0  0  0  0  0  0  0
   46.2310   42.4230   54.8910 N   0  0  0  0  0  0  0  0  0  0  0  0
   45.4830   42.2220   53.6340 C   0  0  0  0  0  0  0  0  0  0  0  0
   45.7800   41.4950   55.9400 C   0  0  0  0  0  0  0  0  0  0  0  0
   44.3050   41.7580   56.3010 C   0  0  0  0  0  0  0  0  0  0  0  0
   43.4420   42.1440   55.1380 N   0  0  0  0  0  0  0  0  0  0  0  0
   41.7740   41.9980   55.2570 S   0  0  0  0  0  0  0  0  0  0  0  0
   41.4090   42.0340   56.6360 O   0  0  0  0  0  0  0  0  0  0  0  0
   41.1980   42.8630   54.2750 O   0  0  0  0  0  0  0  0  0  0  0  0
   41.4500   40.3600   54.6890 C   0  0  0  0  0  0  0  0  0  0  0  0
   41.2580   40.1670   53.3170 C   0  0  0  0  0  0  0  0  0  0  0  0
   41.0050   38.8950   52.8560 C   0  0  0  0  0  0  0  0  0  0  0  0
   41.0010   37.8020   53.7550 C   0  0  0  0  0  0  0  0  0  0  0  0
   41.2420   37.9970   55.1350 C   0  0  0  0  0  0  0  0  0  0  0  0
   41.4670   39.2840   55.5960 C   0  0  0  0  0  0  0  0  0  0  0  0
   40.6800   36.4450   53.2260 C   0  0  0  0  0  0  0  0  0  0  0  0
   41.1710   36.0420   51.9670 C   0  0  0  0  0  0  0  0  0  0  0  0
   40.8570   34.8470   51.4860 N   0  0  0  0  0  0  0  0  0  0  0  0
   40.0270   34.0330   52.1520 C   0  0  0  0  0  0  0  0  0  0  0  0
   39.5000   34.4140   53.4150 C   0  0  0  0  0  0  0  0  0  0  0  0
   39.8300   35.6380   53.8830 N   0  0  0  0  0  0  0  0  0  0  0  0
   38.5670   33.5360   54.1970 C   0  0  0  0  0  0  0  0  0  0  0  0
   38.0850   32.5140   53.7200 O   0  0  0  0  0  0  0  0  0  0  0  0
   38.2670   33.9190   55.4630 N   0  0  0  0  0  0  0  0  0  0  0  0
   37.3620   33.2400   56.3990 C   0  0  0  0  0  0  0  0  0  0  0  0
   37.8360   37.3890   56.1110 C   0  0  0  0  0  0  0  0  0  0  0  0
   36.1690   34.1670   56.6710 C   0  0  0  0  0  0  0  0  0  0  0  0
   39.7330   32.7950   51.5980 N   0  0  0  0  0  0  0  0  0  0  0  0
   44.0210   42.6580   53.8570 C   0  0  0  0  0  0  0  0  0  0  0  0
   36.5920   35.5830   57.1040 C   0  0  0  0  0  0  0  0  0  0  0  0
   36.7260   36.4940   56.0000 O   0  0  0  0  0  0  0  0  0  0  0  0
   48.1973   42.3204   55.6566 H   0  0  0  0  0  0  0  0  0  0  0  0
   47.9303   41.4350   54.1167 H   0  0  0  0  0  0  0  0  0  0  0  0
   48.0238   43.2288   54.1167 H   0  0  0  0  0  0  0  0  0  0  0  0
   45.9327   42.8285   52.8340 H   0  0  0  0  0  0  0  0  0  0  0  0
   45.5188   41.1625   53.3405 H   0  0  0  0  0  0  0  0  0  0  0  0
   45.8846   40.4617   55.5776 H   0  0  0  0  0  0  0  0  0  0  0  0
   46.3970   41.6483   56.8376 H   0  0  0  0  0  0  0  0  0  0  0  0
   43.8914   40.8415   56.7471 H   0  0  0  0  0  0  0  0  0  0  0  0
   44.2990   42.6126   56.9935 H   0  0  0  0  0  0  0  0  0  0  0  0
   41.3083   41.0160   52.6194 H   0  0  0  0  0  0  0  0  0  0  0  0
   40.8056   38.7277   51.7872 H   0  0  0  0  0  0  0  0  0  0  0  0
   41.2506   37.1434   55.8288 H   0  0  0  0  0  0  0  0  0  0  0  0
   41.6577   39.4637   56.6643 H   0  0  0  0  0  0  0  0  0  0  0  0
   41.8139   36.7184   51.3846 H   0  0  0  0  0  0  0  0  0  0  0  0
   38.7224   34.7775   55.8042 H   0  0  0  0  0  0  0  0  0  0  0  0
   37.0077   32.2973   55.9566 H   0  0  0  0  0  0  0  0  0  0  0  0
   37.8878   33.0122   57.3380 H   0  0  0  0  0  0  0  0  0  0  0  0
   38.0579   37.5679   57.1734 H   0  0  0  0  0  0  0  0  0  0  0  0
   38.7157   36.9445   55.6225 H   0  0  0  0  0  0  0  0  0  0  0  0
   37.5882   38.3429   55.6225 H   0  0  0  0  0  0  0  0  0  0  0  0
   35.5701   34.2461   55.7517 H   0  0  0  0  0  0  0  0  0  0  0  0
   35.5943   33.7280   57.4998 H   0  0  0  0  0  0  0  0  0  0  0  0
   39.5416   31.9891   52.2103 H   0  0  0  0  0  0  0  0  0  0  0  0
   39.7062   32.6820   50.5746 H   0  0  0  0  0  0  0  0  0  0  0  0
   43.9822   43.7572   53.8719 H   0  0  0  0  0  0  0  0  0  0  0  0
   43.4244   42.2350   53.0353 H   0  0  0  0  0  0  0  0  0  0  0  0
   35.8331   35.9792   57.7947 H   0  0  0  0  0  0  0  0  0  0  0  0
   37.5794   35.4987   57.5813 H   0  0  0  0  0  0  0  0  0  0  0  0
  1  2  1  0
  2  3  1  0
  2  4  1  0
  3 29  1  0
  4  5  1  0
  5  6  1  0
  6  7  1  0
  6 29  1  0
  7  8  2  0
  7  9  2  0
  7 10  1  0
 10 11  2  0
 10 15  1  0
 11 12  1  0
 12 13  2  0
 13 14  1  0
 13 16  1  0
 14 15  2  0
 16 17  2  0
 16 21  1  0
 17 18  1  0
 18 19  2  0
 19 20  1  0
 19 28  1  0
 20 21  2  0
 20 22  1  0
 22 23  2  0
 22 24  1  0
 24 25  1  0
 25 27  1  0
 26 31  1  0
 27 30  1  0
 30 31  1  0
  1 32  1  0
  1 33  1  0
  1 34  1  0
  3 35  1  0
  3 36  1  0
  4 37  1  0
  4 38  1  0
  5 39  1  0
  5 40  1  0
 11 41  1  0
 12 42  1  0
 14 43  1  0
 15 44  1  0
 17 45  1  0
 24 46  1  0
 25 47  1  0
 25 48  1  0
 26 49  1  0
 26 50  1  0
 26 51  1  0
 27 52  1  0
 27 53  1  0
 28 54  1  0
 28 55  1  0
 29 56  1  0
 29 57  1  0
 30 58  1  0
 30 59  1  0
A    1
C1
A    2
N2
A    3
C3
A    4
C4
A    5
C5
A    6
N6
A    7
S7
A    8
O8
A    9
O9
A   10
C10
A   11
C11
A   12
C12
A   13
C13
A   14
C14
A   15
C15
A   16
C16
A   17
C17
A   18
N18
A   19
C19
A   20
C20
A   21
N21
A   22
C22
A   23
O23
A   24
N24
A   25
C25
A   26
C27
A   27
C30
A   28
N31
A   29
C6
A   30
C28
A   31
O29
M  END
