4AFE_GGY_A_1280
     RDKit          3D

 59 61  0  0  0  0  0  0  0  0999 V2000
    0.7340  -10.6350   16.2100 C   0  0  0  0  0  0  0  0  0  0  0  0
    1.6380  -10.3860   15.0640 C   0  0  0  0  0  0  0  0  0  0  0  0
    2.2870  -11.6990   14.6490 C   0  0  0  0  0  0  0  0  0  0  0  0
    1.6540  -12.5230   13.7680 C   0  0  0  0  0  0  0  0  0  0  0  0
    0.3350  -12.1410   13.2160 C   0  0  0  0  0  0  0  0  0  0  0  0
   -0.1130  -13.1120   12.3990 F   0  0  0  0  0  0  0  0  0  0  0  0
    0.4550  -10.9920   12.5220 F   0  0  0  0  0  0  0  0  0  0  0  0
   -0.5310  -11.9680   14.2160 F   0  0  0  0  0  0  0  0  0  0  0  0
    2.5890   -9.4410   15.4250 O   0  0  0  0  0  0  0  0  0  0  0  0
    3.3560   -8.7970   14.4370 C   0  0  0  0  0  0  0  0  0  0  0  0
    2.7760   -8.5050   13.2090 C   0  0  0  0  0  0  0  0  0  0  0  0
    3.5100   -7.8720   12.2230 C   0  0  0  0  0  0  0  0  0  0  0  0
    2.8500   -7.5530   10.8590 C   0  0  0  0  0  0  0  0  0  0  0  0
    2.2010   -8.5770   10.1440 C   0  0  0  0  0  0  0  0  0  0  0  0
    1.6030   -8.2640    8.8960 C   0  0  0  0  0  0  0  0  0  0  0  0
    0.9050   -9.3170    8.1060 C   0  0  0  0  0  0  0  0  0  0  0  0
    0.3080   -9.1760    6.8140 C   0  0  0  0  0  0  0  0  0  0  0  0
   -0.3080  -10.3960    6.2870 C   0  0  0  0  0  0  0  0  0  0  0  0
   -1.0060  -10.4710    4.9190 C   0  0  0  0  0  0  0  0  0  0  0  0
   -1.5860   -9.2340    4.3820 N   0  0  0  0  0  0  0  0  0  0  0  0
   -1.6680   -9.3120    2.9340 C   0  0  0  0  0  0  0  0  0  0  0  0
   -2.9570   -9.0320    4.9470 C   0  0  0  0  0  0  0  0  0  0  0  0
   -0.1960  -11.5140    7.1740 C   0  0  0  0  0  0  0  0  0  0  0  0
    0.6520  -10.9540    8.5590 S   0  0  0  0  0  0  0  0  0  0  0  0
    1.6800   -6.9660    8.4280 C   0  0  0  0  0  0  0  0  0  0  0  0
    2.3110   -6.0040    9.1380 N   0  0  0  0  0  0  0  0  0  0  0  0
    2.8930   -6.2710   10.3360 C   0  0  0  0  0  0  0  0  0  0  0  0
    3.5410   -5.2150   11.0330 N   0  0  0  0  0  0  0  0  0  0  0  0
    4.8740   -7.5160   12.4670 C   0  0  0  0  0  0  0  0  0  0  0  0
    5.4570   -7.8050   13.6910 C   0  0  0  0  0  0  0  0  0  0  0  0
    4.7280   -8.4390   14.6870 C   0  0  0  0  0  0  0  0  0  0  0  0
    5.3750   -8.7460   16.0080 C   0  0  0  0  0  0  0  0  0  0  0  0
    4.9180   -9.8690   16.8310 N   0  0  0  0  0  0  0  0  0  0  0  0
    6.2880   -8.0650   16.4150 O   0  0  0  0  0  0  0  0  0  0  0  0
    1.2840  -10.4835   17.1505 H   0  0  0  0  0  0  0  0  0  0  0  0
   -0.1153   -9.9373   16.1654 H   0  0  0  0  0  0  0  0  0  0  0  0
    0.3617  -11.6691   16.1654 H   0  0  0  0  0  0  0  0  0  0  0  0
    1.0737   -9.9916   14.2061 H   0  0  0  0  0  0  0  0  0  0  0  0
    3.2670  -11.9824   15.0605 H   0  0  0  0  0  0  0  0  0  0  0  0
    2.1228  -13.4715   13.4671 H   0  0  0  0  0  0  0  0  0  0  0  0
    1.7275   -8.7788   13.0201 H   0  0  0  0  0  0  0  0  0  0  0  0
    2.1582   -9.6004   10.5451 H   0  0  0  0  0  0  0  0  0  0  0  0
    0.3112   -8.2259    6.2596 H   0  0  0  0  0  0  0  0  0  0  0  0
   -0.2640  -10.8296    4.1904 H   0  0  0  0  0  0  0  0  0  0  0  0
   -1.8676  -11.1352    5.0817 H   0  0  0  0  0  0  0  0  0  0  0  0
   -2.4378  -10.0443    2.6493 H   0  0  0  0  0  0  0  0  0  0  0  0
   -1.9331   -8.3246    2.5280 H   0  0  0  0  0  0  0  0  0  0  0  0
   -0.6951   -9.6261    2.5280 H   0  0  0  0  0  0  0  0  0  0  0  0
   -2.9055   -9.0396    6.0458 H   0  0  0  0  0  0  0  0  0  0  0  0
   -3.3557   -8.0654    4.6053 H   0  0  0  0  0  0  0  0  0  0  0  0
   -3.6175   -9.8425    4.6053 H   0  0  0  0  0  0  0  0  0  0  0  0
   -0.5777  -12.5313    7.0025 H   0  0  0  0  0  0  0  0  0  0  0  0
    1.2202   -6.7113    7.4617 H   0  0  0  0  0  0  0  0  0  0  0  0
    3.5470   -5.2052   12.0629 H   0  0  0  0  0  0  0  0  0  0  0  0
    4.0045   -4.4597   10.5081 H   0  0  0  0  0  0  0  0  0  0  0  0
    5.4599   -7.0131   11.6836 H   0  0  0  0  0  0  0  0  0  0  0  0
    6.5061   -7.5295   13.8742 H   0  0  0  0  0  0  0  0  0  0  0  0
    4.9462   -9.7996   17.8583 H   0  0  0  0  0  0  0  0  0  0  0  0
    4.5686  -10.7277   16.3822 H   0  0  0  0  0  0  0  0  0  0  0  0
  1  2  1  0
  2  3  1  0
  2  9  1  0
  3  4  2  0
  4  5  1  0
  5  6  1  0
  5  7  1  0
  5  8  1  0
  9 10  1  0
 10 11  2  0
 10 31  1  0
 11 12  1  0
 12 13  1  0
 12 29  2  0
 13 14  2  0
 13 27  1  0
 14 15  1  0
 15 16  1  0
 15 25  2  0
 16 17  2  0
 16 24  1  0
 17 18  1  0
 18 19  1  0
 18 23  2  0
 19 20  1  0
 20 21  1  0
 20 22  1  0
 23 24  1  0
 25 26  1  0
 26 27  2  0
 27 28  1  0
 29 30  1  0
 30 31  2  0
 31 32  1  0
 32 33  1  0
 32 34  2  0
  1 35  1  0
  1 36  1  0
  1 37  1  0
  2 38  1  0
  3 39  1  0
  4 40  1  0
 11 41  1  0
 14 42  1  0
 17 43  1  0
 19 44  1  0
 19 45  1  0
 21 46  1  0
 21 47  1  0
 21 48  1  0
 22 49  1  0
 22 50  1  0
 22 51  1  0
 23 52  1  0
 25 53  1  0
 28 54  1  0
 28 55  1  0
 29 56  1  0
 30 57  1  0
 33 58  1  0
 33 59  1  0
A    1
C01
A    2
C02
A    3
C03
A    4
C04
A    5
C05
A    6
F06
A    7
F07
A    8
F08
A    9
O09
A   10
C10
A   11
C11
A   12
C12
A   13
C13
A   14
C14
A   15
C15
A   16
C16
A   17
C17
A   18
C18
A   19
C19
A   20
N20
A   21
C21
A   22
C22
A   23
C23
A   24
S24
A   25
C25
A   26
N26
A   27
C27
A   28
N28
A   29
C29
A   30
C30
A   31
C31
A   32
C32
A   33
N33
A   34
O34
M  END
