4AGL_P84_A_400
     RDKit          3D

 24 24  0  0  0  0  0  0  0  0999 V2000
   91.1500   95.7340  -44.9530 C   0  0  0  0  0  0  0  0  0  0  0  0
   91.5110   95.5430  -43.6140 C   0  0  0  0  0  0  0  0  0  0  0  0
   91.8830   94.2830  -43.1520 C   0  0  0  0  0  0  0  0  0  0  0  0
   90.7150   97.0950  -45.4760 C   0  0  0  0  0  0  0  0  0  0  0  0
   91.3970   98.2310  -44.8270 N   0  0  0  0  0  0  0  0  0  0  0  0
   91.8960   93.1760  -44.0130 C   0  0  0  0  0  0  0  0  0  0  0  0
   91.1670   94.6180  -45.8160 C   0  0  0  0  0  0  0  0  0  0  0  0
   92.7910   98.4320  -45.2710 C   0  0  0  0  0  0  0  0  0  0  0  0
   91.5360   93.3480  -45.3510 C   0  0  0  0  0  0  0  0  0  0  0  0
   92.3850   94.0740  -41.1170 I   0  0  0  0  0  0  0  0  0  0  0  0
   91.5240   96.6270  -42.7800 O   0  0  0  0  0  0  0  0  0  0  0  0
   91.5360   91.7340  -46.6820 I   0  0  0  0  0  0  0  0  0  0  0  0
   90.6140   99.4730  -44.9250 C   0  0  0  0  0  0  0  0  0  0  0  0
   90.9259   97.1350  -46.5549 H   0  0  0  0  0  0  0  0  0  0  0  0
   89.6429   97.1956  -45.2511 H   0  0  0  0  0  0  0  0  0  0  0  0
   92.1866   92.1834  -43.6384 H   0  0  0  0  0  0  0  0  0  0  0  0
   90.8859   94.7466  -46.8717 H   0  0  0  0  0  0  0  0  0  0  0  0
   93.4457   98.5264  -44.3921 H   0  0  0  0  0  0  0  0  0  0  0  0
   93.1110   97.5707  -45.8758 H   0  0  0  0  0  0  0  0  0  0  0  0
   92.8546   99.3486  -45.8758 H   0  0  0  0  0  0  0  0  0  0  0  0
   91.5224   96.4966  -41.7986 H   0  0  0  0  0  0  0  0  0  0  0  0
   90.3821   99.8409  -43.9146 H   0  0  0  0  0  0  0  0  0  0  0  0
   91.1971  100.2323  -45.4668 H   0  0  0  0  0  0  0  0  0  0  0  0
   89.6775   99.2743  -45.4668 H   0  0  0  0  0  0  0  0  0  0  0  0
  1  2  2  0
  1  4  1  0
  1  7  1  0
  2  3  1  0
  2 11  1  0
  3  6  2  0
  3 10  1  0
  4  5  1  0
  5  8  1  0
  5 13  1  0
  6  9  1  0
  7  9  2  0
  9 12  1  0
  4 14  1  0
  4 15  1  0
  6 16  1  0
  7 17  1  0
  8 18  1  0
  8 19  1  0
  8 20  1  0
 11 21  1  0
 13 22  1  0
 13 23  1  0
 13 24  1  0
A    1
C1
A    2
C2
A    3
C3
A    4
C4
A    5
N5
A    6
C6
A    7
C8
A    8
C9
A    9
C10
A   10
I15
A   11
O16
A   12
I17
A   13
C14
M  END
