4AGW_NG7_A_1534
     RDKit          3D

 74 79  0  0  0  0  0  0  0  0999 V2000
    1.7850    0.5430   -0.4770 C   0  0  0  0  0  0  0  0  0  0  0  0
    1.4900    0.6440   -1.7950 F   0  0  0  0  0  0  0  0  0  0  0  0
   -5.2820    1.9060   -0.9510 N   0  0  0  0  0  0  0  0  0  0  0  0
    4.0070    4.5760    0.7680 O   0  0  0  0  0  0  0  0  0  0  0  0
   10.6290   10.4750   -0.4600 S   0  0  0  0  0  0  0  0  0  0  0  0
   10.4060    6.7630    0.6920 C   0  0  0  0  0  0  0  0  0  0  0  0
    1.4730   -0.7190   -0.1290 F   0  0  0  0  0  0  0  0  0  0  0  0
    8.6450    8.9420    0.8560 N   0  0  0  0  0  0  0  0  0  0  0  0
   12.1590   12.0010   -2.3740 O   0  0  0  0  0  0  0  0  0  0  0  0
   10.8430    7.9870    0.1560 C   0  0  0  0  0  0  0  0  0  0  0  0
    3.1320    0.5400   -0.4990 F   0  0  0  0  0  0  0  0  0  0  0  0
   12.1130    8.2720   -0.4860 N   0  0  0  0  0  0  0  0  0  0  0  0
    9.8750    9.0270    0.2950 C   0  0  0  0  0  0  0  0  0  0  0  0
   13.2730   10.2430   -1.5050 N   0  0  0  0  0  0  0  0  0  0  0  0
    8.2310    7.7260    1.3920 C   0  0  0  0  0  0  0  0  0  0  0  0
    2.1640    4.9080    2.0810 N   0  0  0  0  0  0  0  0  0  0  0  0
    9.1310    6.6430    1.2890 C   0  0  0  0  0  0  0  0  0  0  0  0
   -2.6320    0.9140   -0.4090 N   0  0  0  0  0  0  0  0  0  0  0  0
   12.2080    9.5350   -0.8780 C   0  0  0  0  0  0  0  0  0  0  0  0
   13.2260   11.4110   -2.3560 C   0  0  0  0  0  0  0  0  0  0  0  0
   14.4830   12.1560   -2.8450 C   0  0  0  0  0  0  0  0  0  0  0  0
   14.9170   12.2140   -4.3140 C   0  0  0  0  0  0  0  0  0  0  0  0
   14.2550   13.4140   -3.7220 C   0  0  0  0  0  0  0  0  0  0  0  0
    6.8050    7.5590    2.0280 C   0  0  0  0  0  0  0  0  0  0  0  0
    6.3850    8.3990    3.0640 C   0  0  0  0  0  0  0  0  0  0  0  0
    5.1050    8.2470    3.6170 C   0  0  0  0  0  0  0  0  0  0  0  0
    4.1740    7.2880    3.1960 C   0  0  0  0  0  0  0  0  0  0  0  0
    4.5080    6.4160    2.1690 C   0  0  0  0  0  0  0  0  0  0  0  0
    5.8190    6.6000    1.6250 C   0  0  0  0  0  0  0  0  0  0  0  0
    3.5110    5.2770    1.6410 C   0  0  0  0  0  0  0  0  0  0  0  0
    1.3300    3.8040    1.5790 C   0  0  0  0  0  0  0  0  0  0  0  0
   -0.0500    3.6910    1.7430 C   0  0  0  0  0  0  0  0  0  0  0  0
   -0.8130    2.6260    1.2390 C   0  0  0  0  0  0  0  0  0  0  0  0
   -0.3120    1.5490    0.5190 C   0  0  0  0  0  0  0  0  0  0  0  0
    1.0880    1.6380    0.3530 C   0  0  0  0  0  0  0  0  0  0  0  0
    1.8660    2.7070    0.8490 C   0  0  0  0  0  0  0  0  0  0  0  0
   -1.2390    0.4450   -0.0420 C   0  0  0  0  0  0  0  0  0  0  0  0
   -3.8170    0.2130    0.1730 C   0  0  0  0  0  0  0  0  0  0  0  0
   -5.2060    0.9120    0.1390 C   0  0  0  0  0  0  0  0  0  0  0  0
   -4.2480    2.9470   -0.7930 C   0  0  0  0  0  0  0  0  0  0  0  0
   -2.8270    2.3400   -0.7800 C   0  0  0  0  0  0  0  0  0  0  0  0
   -6.6520    2.4920   -1.1740 C   0  0  0  0  0  0  0  0  0  0  0  0
   -7.7170    1.7720   -0.3510 C   0  0  0  0  0  0  0  0  0  0  0  0
   11.0670    5.8850    0.6459 H   0  0  0  0  0  0  0  0  0  0  0  0
   14.2153    9.8677   -1.3258 H   0  0  0  0  0  0  0  0  0  0  0  0
    1.7532    5.4872    2.8271 H   0  0  0  0  0  0  0  0  0  0  0  0
    8.8269    5.6650    1.6903 H   0  0  0  0  0  0  0  0  0  0  0  0
   15.0050   11.8751   -1.9184 H   0  0  0  0  0  0  0  0  0  0  0  0
   15.9873   12.2500   -4.5655 H   0  0  0  0  0  0  0  0  0  0  0  0
   14.7237   11.5876   -5.1973 H   0  0  0  0  0  0  0  0  0  0  0  0
   13.2364   13.6884   -4.0336 H   0  0  0  0  0  0  0  0  0  0  0  0
   14.5166   14.4787   -3.6330 H   0  0  0  0  0  0  0  0  0  0  0  0
    7.0592    9.1799    3.4457 H   0  0  0  0  0  0  0  0  0  0  0  0
    4.8133    8.9240    4.4335 H   0  0  0  0  0  0  0  0  0  0  0  0
    3.1860    7.2267    3.6757 H   0  0  0  0  0  0  0  0  0  0  0  0
    6.1028    5.9274    0.8022 H   0  0  0  0  0  0  0  0  0  0  0  0
   -0.5716    4.4831    2.3002 H   0  0  0  0  0  0  0  0  0  0  0  0
   -1.8961    2.6460    1.4298 H   0  0  0  0  0  0  0  0  0  0  0  0
    2.9495    2.6905    0.6599 H   0  0  0  0  0  0  0  0  0  0  0  0
   -1.3324   -0.3435    0.7193 H   0  0  0  0  0  0  0  0  0  0  0  0
   -0.7739    0.0932   -0.9747 H   0  0  0  0  0  0  0  0  0  0  0  0
   -3.9236   -0.7396   -0.3667 H   0  0  0  0  0  0  0  0  0  0  0  0
   -3.5824    0.1506    1.2459 H   0  0  0  0  0  0  0  0  0  0  0  0
   -5.3744    1.4206    1.0997 H   0  0  0  0  0  0  0  0  0  0  0  0
   -5.9753    0.1456   -0.0368 H   0  0  0  0  0  0  0  0  0  0  0  0
   -4.3253    3.6568   -1.6297 H   0  0  0  0  0  0  0  0  0  0  0  0
   -4.4144    3.4540    0.1689 H   0  0  0  0  0  0  0  0  0  0  0  0
   -2.2332    2.9366   -0.0718 H   0  0  0  0  0  0  0  0  0  0  0  0
   -2.5297    2.3691   -1.8387 H   0  0  0  0  0  0  0  0  0  0  0  0
   -6.6365    3.5535   -0.8858 H   0  0  0  0  0  0  0  0  0  0  0  0
   -6.9050    2.3750   -2.2381 H   0  0  0  0  0  0  0  0  0  0  0  0
   -7.5096    1.9122    0.7201 H   0  0  0  0  0  0  0  0  0  0  0  0
   -8.7075    2.1865   -0.5900 H   0  0  0  0  0  0  0  0  0  0  0  0
   -7.7014    0.6984   -0.5900 H   0  0  0  0  0  0  0  0  0  0  0  0
 11  1  1  0
  7  1  1  0
  1  2  1  0
  1 35  1  0
 42  3  1  0
  3 40  1  0
  3 39  1  0
  4 30  2  0
 19  5  1  0
  5 13  1  0
 10  6  2  0
  6 17  1  0
 13  8  2  0
  8 15  1  0
  9 20  2  0
 12 10  1  0
 10 13  1  0
 19 12  2  0
 20 14  1  0
 14 19  1  0
 17 15  2  0
 15 24  1  0
 31 16  1  0
 30 16  1  0
 41 18  1  0
 18 37  1  0
 18 38  1  0
 21 20  1  0
 22 21  1  0
 23 21  1  0
 22 23  1  0
 29 24  1  0
 24 25  2  0
 25 26  1  0
 27 26  2  0
 28 27  1  0
 29 28  2  0
 30 28  1  0
 36 31  1  0
 31 32  2  0
 33 32  1  0
 34 33  2  0
 37 34  1  0
 35 34  1  0
 35 36  2  0
 39 38  1  0
 40 41  1  0
 42 43  1  0
  6 44  1  0
 14 45  1  0
 16 46  1  0
 17 47  1  0
 21 48  1  0
 22 49  1  0
 22 50  1  0
 23 51  1  0
 23 52  1  0
 25 53  1  0
 26 54  1  0
 27 55  1  0
 29 56  1  0
 32 57  1  0
 33 58  1  0
 36 59  1  0
 37 60  1  0
 37 61  1  0
 38 62  1  0
 38 63  1  0
 39 64  1  0
 39 65  1  0
 40 66  1  0
 40 67  1  0
 41 68  1  0
 41 69  1  0
 42 70  1  0
 42 71  1  0
 43 72  1  0
 43 73  1  0
 43 74  1  0
A    1
C
A    2
F1
A    3
N
A    4
O
A    5
S
A    6
C01
A    7
F3
A    8
N01
A    9
O01
A   10
C02
A   11
F2
A   12
N02
A   13
C03
A   14
N03
A   15
C04
A   16
N04
A   17
C05
A   18
N05
A   19
C06
A   20
C07
A   21
C08
A   22
C09
A   23
C10
A   24
C11
A   25
C12
A   26
C13
A   27
C14
A   28
C15
A   29
C16
A   30
C17
A   31
C18
A   32
C19
A   33
C20
A   34
C21
A   35
C22
A   36
C23
A   37
C24
A   38
C25
A   39
C26
A   40
C27
A   41
C28
A   42
C29
A   43
C30
M  END
