4AJ1_AJ1_A_1333
     RDKit          3D

 26 27  0  0  0  0  0  0  0  0999 V2000
   16.2620   -7.0320    2.8090 C   0  0  0  0  0  0  0  0  0  0  0  0
   17.3180   -7.1970    1.7360 C   0  0  0  0  0  0  0  0  0  0  0  0
   17.4300   -8.2210    1.0580 O   0  0  0  0  0  0  0  0  0  0  0  0
   18.1550   -6.1210    1.5830 N   0  0  0  0  0  0  0  0  0  0  0  0
   19.4650   -6.1310    1.0090 C   0  0  0  0  0  0  0  0  0  0  0  0
   20.5500   -5.5310    1.6600 C   0  0  0  0  0  0  0  0  0  0  0  0
   21.8110   -5.5480    1.0890 C   0  0  0  0  0  0  0  0  0  0  0  0
   22.0300   -6.1640   -0.1350 C   0  0  0  0  0  0  0  0  0  0  0  0
   20.9340   -6.7580   -0.7670 C   0  0  0  0  0  0  0  0  0  0  0  0
   19.6630   -6.7430   -0.2070 C   0  0  0  0  0  0  0  0  0  0  0  0
   21.4220   -7.4670   -2.2850 S   0  0  0  0  0  0  0  0  0  0  0  0
   23.0680   -6.9040   -1.9670 C   0  0  0  0  0  0  0  0  0  0  0  0
   23.2370   -6.2650   -0.8380 N   0  0  0  0  0  0  0  0  0  0  0  0
   24.0810   -7.1390   -2.8410 N   0  0  0  0  0  0  0  0  0  0  0  0
   23.9560   -7.9510   -4.0550 C   0  0  0  0  0  0  0  0  0  0  0  0
   16.7323   -7.1055    3.8007 H   0  0  0  0  0  0  0  0  0  0  0  0
   15.7820   -6.0480    2.7028 H   0  0  0  0  0  0  0  0  0  0  0  0
   15.5047   -7.8227    2.7028 H   0  0  0  0  0  0  0  0  0  0  0  0
   17.8037   -5.2118    1.9159 H   0  0  0  0  0  0  0  0  0  0  0  0
   20.3990   -5.0419    2.6336 H   0  0  0  0  0  0  0  0  0  0  0  0
   22.6504   -5.0669    1.6124 H   0  0  0  0  0  0  0  0  0  0  0  0
   18.8207   -7.2171   -0.7321 H   0  0  0  0  0  0  0  0  0  0  0  0
   24.9987   -6.7183   -2.6369 H   0  0  0  0  0  0  0  0  0  0  0  0
   23.7941   -9.0030   -3.7774 H   0  0  0  0  0  0  0  0  0  0  0  0
   23.1024   -7.5930   -4.6493 H   0  0  0  0  0  0  0  0  0  0  0  0
   24.8778   -7.8663   -4.6493 H   0  0  0  0  0  0  0  0  0  0  0  0
  1  2  1  0
  2  3  2  0
  2  4  1  0
  4  5  1  0
  5  6  2  0
  5 10  1  0
  6  7  1  0
  7  8  2  0
  8  9  1  0
  8 13  1  0
  9 10  2  0
  9 11  1  0
 11 12  1  0
 12 13  2  0
 12 14  1  0
 14 15  1  0
  1 16  1  0
  1 17  1  0
  1 18  1  0
  4 19  1  0
  6 20  1  0
  7 21  1  0
 10 22  1  0
 14 23  1  0
 15 24  1  0
 15 25  1  0
 15 26  1  0
A    1
C1
A    2
C2
A    3
O3
A    4
N4
A    5
C5
A    6
C6
A    7
C7
A    8
C8
A    9
C9
A   10
C10
A   11
S11
A   12
C12
A   13
N13
A   14
N14
A   15
C15
M  END
