4AJG_F07_A_1771
     RDKit          3D

 19 21  0  0  0  0  0  0  0  0999 V2000
   21.5170  -15.0040  -32.6600 C   0  0  0  0  0  0  0  0  0  0  0  0
   21.1890  -14.1630  -31.6180 C   0  0  0  0  0  0  0  0  0  0  0  0
   20.5960  -12.9680  -31.6930 N   0  0  0  0  0  0  0  0  0  0  0  0
   20.3150  -12.5960  -32.9430 C   0  0  0  0  0  0  0  0  0  0  0  0
   20.6200  -13.3810  -34.0350 C   0  0  0  0  0  0  0  0  0  0  0  0
   21.2300  -14.6100  -33.9460 C   0  0  0  0  0  0  0  0  0  0  0  0
   21.5150  -15.3670  -35.0050 N   0  0  0  0  0  0  0  0  0  0  0  0
   21.1960  -14.9080  -36.2180 C   0  0  0  0  0  0  0  0  0  0  0  0
   20.5820  -13.6810  -36.3930 C   0  0  0  0  0  0  0  0  0  0  0  0
   20.2940  -12.9160  -35.2790 C   0  0  0  0  0  0  0  0  0  0  0  0
   19.5370  -11.4280  -35.6960 S   0  0  0  0  0  0  0  0  0  0  0  0
   19.5860  -11.7940  -37.3640 C   0  0  0  0  0  0  0  0  0  0  0  0
   20.1690  -13.0220  -37.5780 C   0  0  0  0  0  0  0  0  0  0  0  0
   21.9998  -15.9732  -32.4662 H   0  0  0  0  0  0  0  0  0  0  0  0
   21.4450  -14.5166  -30.6083 H   0  0  0  0  0  0  0  0  0  0  0  0
   19.8216  -11.6269  -33.1088 H   0  0  0  0  0  0  0  0  0  0  0  0
   21.4276  -15.5218  -37.1009 H   0  0  0  0  0  0  0  0  0  0  0  0
   19.2034  -11.1371  -38.1591 H   0  0  0  0  0  0  0  0  0  0  0  0
   20.3028  -13.4542  -38.5806 H   0  0  0  0  0  0  0  0  0  0  0  0
  1  2  2  0
  1  6  1  0
  2  3  1  0
  3  4  2  0
  4  5  1  0
  5  6  2  0
  5 10  1  0
  6  7  1  0
  7  8  2  0
  8  9  1  0
  9 10  2  0
  9 13  1  0
 10 11  1  0
 11 12  1  0
 12 13  2  0
  1 14  1  0
  2 15  1  0
  4 16  1  0
  8 17  1  0
 12 18  1  0
 13 19  1  0
A    1
C1
A    2
C2
A    3
N3
A    4
C4
A    5
C5
A    6
C6
A    7
N7
A    8
C8
A    9
C9
A   10
C10
A   11
S11
A   12
C12
A   13
C13
M  END
