4AJH_88S_A_1334
     RDKit          3D

 33 34  0  0  0  0  0  0  0  0999 V2000
   22.0150   -5.3420    1.0000 C   0  0  0  0  0  0  0  0  0  0  0  0
   20.7400   -5.2920    1.5450 C   0  0  0  0  0  0  0  0  0  0  0  0
   19.8860   -6.7070   -0.2250 C   0  0  0  0  0  0  0  0  0  0  0  0
   22.2350   -6.0600   -0.1810 C   0  0  0  0  0  0  0  0  0  0  0  0
   19.6780   -5.9860    0.9500 C   0  0  0  0  0  0  0  0  0  0  0  0
   21.1570   -6.7270   -0.7760 C   0  0  0  0  0  0  0  0  0  0  0  0
   23.2840   -6.8830   -1.9620 C   0  0  0  0  0  0  0  0  0  0  0  0
   17.4990   -6.9720    1.6350 C   0  0  0  0  0  0  0  0  0  0  0  0
   15.0650   -9.4880    3.7250 C   0  0  0  0  0  0  0  0  0  0  0  0
   24.4070   -7.1670   -2.8920 C   0  0  0  0  0  0  0  0  0  0  0  0
   16.3090   -6.6510    2.5230 C   0  0  0  0  0  0  0  0  0  0  0  0
   15.0950   -7.5090    2.2440 C   0  0  0  0  0  0  0  0  0  0  0  0
   23.4390   -6.1640   -0.8720 N   0  0  0  0  0  0  0  0  0  0  0  0
   15.4570  -10.7660    3.8830 N   0  0  0  0  0  0  0  0  0  0  0  0
   18.3900   -5.9610    1.5380 N   0  0  0  0  0  0  0  0  0  0  0  0
   15.3510   -8.9230    2.5470 N   0  0  0  0  0  0  0  0  0  0  0  0
   17.6390   -8.0700    1.0660 O   0  0  0  0  0  0  0  0  0  0  0  0
   14.4800   -8.8560    4.6270 O   0  0  0  0  0  0  0  0  0  0  0  0
   21.6760   -7.5090   -2.2300 S   0  0  0  0  0  0  0  0  0  0  0  0
   22.8482   -4.8202    1.4934 H   0  0  0  0  0  0  0  0  0  0  0  0
   20.5607   -4.7005    2.4550 H   0  0  0  0  0  0  0  0  0  0  0  0
   19.0578   -7.2490   -0.7049 H   0  0  0  0  0  0  0  0  0  0  0  0
   25.3136   -7.3963   -2.3128 H   0  0  0  0  0  0  0  0  0  0  0  0
   24.1493   -8.0282   -3.5259 H   0  0  0  0  0  0  0  0  0  0  0  0
   24.5897   -6.2868   -3.5259 H   0  0  0  0  0  0  0  0  0  0  0  0
   16.6071   -6.8009    3.5712 H   0  0  0  0  0  0  0  0  0  0  0  0
   16.0225   -5.6098    2.3137 H   0  0  0  0  0  0  0  0  0  0  0  0
   14.2584   -7.1566    2.8653 H   0  0  0  0  0  0  0  0  0  0  0  0
   14.8527   -7.4248    1.1743 H   0  0  0  0  0  0  0  0  0  0  0  0
   15.5763  -11.1549    4.8293 H   0  0  0  0  0  0  0  0  0  0  0  0
   15.6377  -11.3551    3.0576 H   0  0  0  0  0  0  0  0  0  0  0  0
   18.0959   -5.0603    1.9419 H   0  0  0  0  0  0  0  0  0  0  0  0
   15.7730   -9.5105    1.8137 H   0  0  0  0  0  0  0  0  0  0  0  0
  1  2  2  0
  1  4  1  0
  2  5  1  0
  3  5  2  0
  3  6  1  0
  4  6  2  0
  4 13  1  0
  5 15  1  0
  6 19  1  0
  7 10  1  0
  7 13  2  0
  7 19  1  0
  8 11  1  0
  8 15  1  0
  8 17  2  0
  9 14  1  0
  9 16  1  0
  9 18  2  0
 11 12  1  0
 12 16  1  0
  1 20  1  0
  2 21  1  0
  3 22  1  0
 10 23  1  0
 10 24  1  0
 10 25  1  0
 11 26  1  0
 11 27  1  0
 12 28  1  0
 12 29  1  0
 14 30  1  0
 14 31  1  0
 15 32  1  0
 16 33  1  0
A    1
C5
A    2
C6
A    3
C8
A    4
C4
A    5
C7
A    6
C9
A    7
C2
A    8
C12
A    9
C17
A   10
C1
A   11
C14
A   12
C15
A   13
N3
A   14
N19
A   15
N11
A   16
N16
A   17
O13
A   18
O18
A   19
S10
M  END
