4AJO_88N_A_1332
     RDKit          3D

 62 64  0  0  0  0  0  0  0  0999 V2000
   15.3580  -14.2740    8.4560 C   0  0  0  0  0  0  0  0  0  0  0  0
   13.2060  -13.9100    7.5280 C   0  0  0  0  0  0  0  0  0  0  0  0
   14.7790  -14.8430    9.5740 C   0  0  0  0  0  0  0  0  0  0  0  0
   12.6260  -14.4780    8.6470 C   0  0  0  0  0  0  0  0  0  0  0  0
   21.7010   -5.7230    1.1620 C   0  0  0  0  0  0  0  0  0  0  0  0
   20.4310   -5.7000    1.7080 C   0  0  0  0  0  0  0  0  0  0  0  0
   19.6040   -7.0820   -0.0800 C   0  0  0  0  0  0  0  0  0  0  0  0
   14.5800  -13.8050    7.4140 C   0  0  0  0  0  0  0  0  0  0  0  0
   13.4050  -14.9540    9.6860 C   0  0  0  0  0  0  0  0  0  0  0  0
   21.9390   -6.4250   -0.0200 C   0  0  0  0  0  0  0  0  0  0  0  0
   19.3810   -6.3650    1.0900 C   0  0  0  0  0  0  0  0  0  0  0  0
   20.8770   -7.0970   -0.6250 C   0  0  0  0  0  0  0  0  0  0  0  0
   23.0280   -7.2700   -1.7670 C   0  0  0  0  0  0  0  0  0  0  0  0
   17.2660   -7.4210    1.8220 C   0  0  0  0  0  0  0  0  0  0  0  0
   14.9260   -9.8850    4.2060 C   0  0  0  0  0  0  0  0  0  0  0  0
   12.4210  -17.7980    9.6530 C   0  0  0  0  0  0  0  0  0  0  0  0
   11.1010  -17.2890   11.7480 C   0  0  0  0  0  0  0  0  0  0  0  0
   24.1820   -7.5520   -2.6740 C   0  0  0  0  0  0  0  0  0  0  0  0
   15.2250  -13.1910    6.1940 C   0  0  0  0  0  0  0  0  0  0  0  0
   12.7810  -15.6040   10.8930 C   0  0  0  0  0  0  0  0  0  0  0  0
   16.0660   -7.1840    2.7080 C   0  0  0  0  0  0  0  0  0  0  0  0
   15.1300  -11.3500    4.4860 C   0  0  0  0  0  0  0  0  0  0  0  0
   14.7670  -11.7820    5.8920 C   0  0  0  0  0  0  0  0  0  0  0  0
   14.9640   -8.1790    2.4470 C   0  0  0  0  0  0  0  0  0  0  0  0
   11.7870  -16.7230   10.5220 C   0  0  0  0  0  0  0  0  0  0  0  0
   23.1580   -6.5350   -0.6870 N   0  0  0  0  0  0  0  0  0  0  0  0
   18.0790   -6.3490    1.6570 N   0  0  0  0  0  0  0  0  0  0  0  0
   15.2960   -9.4880    2.9920 N   0  0  0  0  0  0  0  0  0  0  0  0
   17.4630   -8.5130    1.2930 O   0  0  0  0  0  0  0  0  0  0  0  0
   14.4220   -9.1320    5.0380 O   0  0  0  0  0  0  0  0  0  0  0  0
   11.9530  -18.0930    8.5640 O   0  0  0  0  0  0  0  0  0  0  0  0
   10.1770  -16.6750   12.2530 O   0  0  0  0  0  0  0  0  0  0  0  0
   13.4880  -18.3420   10.1480 O   0  0  0  0  0  0  0  0  0  0  0  0
   11.5570  -18.4210   12.2040 O   0  0  0  0  0  0  0  0  0  0  0  0
   21.4350   -7.8790   -2.0760 S   0  0  0  0  0  0  0  0  0  0  0  0
   16.4533  -14.1931    8.3942 H   0  0  0  0  0  0  0  0  0  0  0  0
   12.5648  -13.5360    6.7162 H   0  0  0  0  0  0  0  0  0  0  0  0
   15.4205  -15.2133   10.3872 H   0  0  0  0  0  0  0  0  0  0  0  0
   11.5304  -14.5524    8.7119 H   0  0  0  0  0  0  0  0  0  0  0  0
   22.5235   -5.1880    1.6593 H   0  0  0  0  0  0  0  0  0  0  0  0
   20.2507   -5.1486    2.6426 H   0  0  0  0  0  0  0  0  0  0  0  0
   18.7821   -7.6289   -0.5653 H   0  0  0  0  0  0  0  0  0  0  0  0
   25.0765   -7.7706   -2.0722 H   0  0  0  0  0  0  0  0  0  0  0  0
   23.9462   -8.4190   -3.3087 H   0  0  0  0  0  0  0  0  0  0  0  0
   24.3726   -6.6740   -3.3087 H   0  0  0  0  0  0  0  0  0  0  0  0
   16.3135  -13.1733    6.3516 H   0  0  0  0  0  0  0  0  0  0  0  0
   14.9281  -13.8103    5.3347 H   0  0  0  0  0  0  0  0  0  0  0  0
   13.5808  -16.0356   11.5127 H   0  0  0  0  0  0  0  0  0  0  0  0
   12.2195  -14.8281   11.4339 H   0  0  0  0  0  0  0  0  0  0  0  0
   16.3788   -7.2686    3.7592 H   0  0  0  0  0  0  0  0  0  0  0  0
   15.6751   -6.1796    2.4879 H   0  0  0  0  0  0  0  0  0  0  0  0
   14.5104  -11.9232    3.7806 H   0  0  0  0  0  0  0  0  0  0  0  0
   16.2070  -11.5415    4.3703 H   0  0  0  0  0  0  0  0  0  0  0  0
   13.6741  -11.7328    6.0064 H   0  0  0  0  0  0  0  0  0  0  0  0
   15.2746  -11.1046    6.5945 H   0  0  0  0  0  0  0  0  0  0  0  0
   14.0370   -7.8192    2.9173 H   0  0  0  0  0  0  0  0  0  0  0  0
   14.8343   -8.2775    1.3591 H   0  0  0  0  0  0  0  0  0  0  0  0
   11.0010  -16.2646    9.9038 H   0  0  0  0  0  0  0  0  0  0  0  0
   17.7186   -5.4371    1.9725 H   0  0  0  0  0  0  0  0  0  0  0  0
   15.8435  -10.1373    2.4093 H   0  0  0  0  0  0  0  0  0  0  0  0
   13.6038  -18.4010   11.1294 H   0  0  0  0  0  0  0  0  0  0  0  0
   11.6181  -18.5727   13.1804 H   0  0  0  0  0  0  0  0  0  0  0  0
  1  3  2  0
  1  8  1  0
  2  4  1  0
  2  8  2  0
  3  9  1  0
  4  9  2  0
  5  6  2  0
  5 10  1  0
  6 11  1  0
  7 11  2  0
  7 12  1  0
  8 19  1  0
  9 20  1  0
 10 12  2  0
 10 26  1  0
 11 27  1  0
 12 35  1  0
 13 18  1  0
 13 26  2  0
 13 35  1  0
 14 21  1  0
 14 27  1  0
 14 29  2  0
 15 22  1  0
 15 28  1  0
 15 30  2  0
 16 25  1  0
 16 31  2  0
 16 33  1  0
 17 25  1  0
 17 32  2  0
 17 34  1  0
 19 23  1  0
 20 25  1  0
 21 24  1  0
 22 23  1  0
 24 28  1  0
  1 36  1  0
  2 37  1  0
  3 38  1  0
  4 39  1  0
  5 40  1  0
  6 41  1  0
  7 42  1  0
 18 43  1  0
 18 44  1  0
 18 45  1  0
 19 46  1  0
 19 47  1  0
 20 48  1  0
 20 49  1  0
 21 50  1  0
 21 51  1  0
 22 52  1  0
 22 53  1  0
 23 54  1  0
 23 55  1  0
 24 56  1  0
 24 57  1  0
 25 58  1  0
 27 59  1  0
 28 60  1  0
 33 61  1  0
 34 62  1  0
A    1
C23
A    2
C27
A    3
C24
A    4
C26
A    5
C5
A    6
C6
A    7
C8
A    8
C22
A    9
C25
A   10
C4
A   11
C7
A   12
C9
A   13
C2
A   14
C12
A   15
C17
A   16
C30
A   17
C33
A   18
C1
A   19
C21
A   20
C28
A   21
C14
A   22
C19
A   23
C20
A   24
C15
A   25
C29
A   26
N3
A   27
N11
A   28
N16
A   29
O13
A   30
O18
A   31
O31
A   32
O34
A   33
O32
A   34
O35
A   35
S10
M  END
