4AJW_VWN_A_2027
     RDKit          3D

 43 46  0  0  0  0  0  0  0  0999 V2000
   10.0720   -4.2050    8.7630 C   0  0  0  0  0  0  0  0  0  0  0  0
    9.5460   -3.3900    7.7280 N   0  0  0  0  0  0  0  0  0  0  0  0
    8.6860   -2.2470    8.0620 C   0  0  0  0  0  0  0  0  0  0  0  0
    7.8220   -1.8920    6.8790 C   0  0  0  0  0  0  0  0  0  0  0  0
    8.6020   -1.6330    5.7170 O   0  0  0  0  0  0  0  0  0  0  0  0
    9.3590   -2.7900    5.3750 C   0  0  0  0  0  0  0  0  0  0  0  0
   10.3000   -3.1830    6.4840 C   0  0  0  0  0  0  0  0  0  0  0  0
   11.1580   -4.9550    8.4310 N   0  0  0  0  0  0  0  0  0  0  0  0
   11.6940   -5.7390    9.3690 C   0  0  0  0  0  0  0  0  0  0  0  0
   11.1950   -5.8280   10.6730 N   0  0  0  0  0  0  0  0  0  0  0  0
   10.0940   -5.0920   11.0700 C   0  0  0  0  0  0  0  0  0  0  0  0
    9.5290   -4.2560   10.0560 C   0  0  0  0  0  0  0  0  0  0  0  0
    9.6800   -5.1950   12.2330 O   0  0  0  0  0  0  0  0  0  0  0  0
   12.5470   -7.6900    8.0860 C   0  0  0  0  0  0  0  0  0  0  0  0
   12.9060   -6.5740    9.0080 C   0  0  0  0  0  0  0  0  0  0  0  0
   13.2910   -8.0030    6.9430 N   0  0  0  0  0  0  0  0  0  0  0  0
   11.5160   -8.4820    8.2700 N   0  0  0  0  0  0  0  0  0  0  0  0
   11.5640   -9.3780    7.2030 C   0  0  0  0  0  0  0  0  0  0  0  0
   12.6490   -9.1000    6.3760 C   0  0  0  0  0  0  0  0  0  0  0  0
   12.9270   -9.8550    5.2450 C   0  0  0  0  0  0  0  0  0  0  0  0
   12.0810  -10.9190    4.9510 C   0  0  0  0  0  0  0  0  0  0  0  0
   10.9910  -11.2100    5.7670 C   0  0  0  0  0  0  0  0  0  0  0  0
   10.7210  -10.4450    6.8970 C   0  0  0  0  0  0  0  0  0  0  0  0
   14.4910   -7.3780    6.3890 C   0  0  0  0  0  0  0  0  0  0  0  0
    8.0447   -2.5104    8.9160 H   0  0  0  0  0  0  0  0  0  0  0  0
    9.3160   -1.3837    8.3223 H   0  0  0  0  0  0  0  0  0  0  0  0
    7.1401   -2.7298    6.6713 H   0  0  0  0  0  0  0  0  0  0  0  0
    7.2605   -0.9789    7.1259 H   0  0  0  0  0  0  0  0  0  0  0  0
    8.6686   -3.6239    5.1800 H   0  0  0  0  0  0  0  0  0  0  0  0
    9.9570   -2.5589    4.4812 H   0  0  0  0  0  0  0  0  0  0  0  0
   11.0405   -2.3837    6.6348 H   0  0  0  0  0  0  0  0  0  0  0  0
   10.8126   -4.1171    6.2108 H   0  0  0  0  0  0  0  0  0  0  0  0
   11.6561   -6.4531   11.3494 H   0  0  0  0  0  0  0  0  0  0  0  0
    8.6498   -3.6397   10.2950 H   0  0  0  0  0  0  0  0  0  0  0  0
   13.6501   -5.9299    8.5166 H   0  0  0  0  0  0  0  0  0  0  0  0
   13.3133   -7.0084    9.9329 H   0  0  0  0  0  0  0  0  0  0  0  0
   13.7881   -9.6196    4.6023 H   0  0  0  0  0  0  0  0  0  0  0  0
   12.2754  -11.5383    4.0629 H   0  0  0  0  0  0  0  0  0  0  0  0
   10.3347  -12.0560    5.5148 H   0  0  0  0  0  0  0  0  0  0  0  0
    9.8577  -10.6780    7.5376 H   0  0  0  0  0  0  0  0  0  0  0  0
   15.1405   -7.0397    7.2098 H   0  0  0  0  0  0  0  0  0  0  0  0
   15.0326   -8.1086    5.7702 H   0  0  0  0  0  0  0  0  0  0  0  0
   14.2028   -6.5154    5.7702 H   0  0  0  0  0  0  0  0  0  0  0  0
  1  2  1  0
  1  8  1  0
  1 12  2  0
  2  3  1  0
  2  7  1  0
  3  4  1  0
  4  5  1  0
  5  6  1  0
  6  7  1  0
  8  9  2  0
  9 10  1  0
  9 15  1  0
 10 11  1  0
 11 12  1  0
 11 13  2  0
 14 15  1  0
 14 16  1  0
 14 17  2  0
 16 19  1  0
 16 24  1  0
 17 18  1  0
 18 19  2  0
 18 23  1  0
 19 20  1  0
 20 21  2  0
 21 22  1  0
 22 23  2  0
  3 25  1  0
  3 26  1  0
  4 27  1  0
  4 28  1  0
  6 29  1  0
  6 30  1  0
  7 31  1  0
  7 32  1  0
 10 33  1  0
 12 34  1  0
 15 35  1  0
 15 36  1  0
 20 37  1  0
 21 38  1  0
 22 39  1  0
 23 40  1  0
 24 41  1  0
 24 42  1  0
 24 43  1  0
A    1
C1
A    2
N2
A    3
C3
A    4
C4
A    5
O5
A    6
C6
A    7
C7
A    8
N8
A    9
C9
A   10
N10
A   11
C11
A   12
C12
A   13
O13
A   14
C14
A   15
C15
A   16
N16
A   17
N17
A   18
C18
A   19
C19
A   20
C20
A   21
C21
A   22
C22
A   23
C23
A   24
C24
M  END
