4AKY_4LL_A_1235
     RDKit          3D

 32 33  0  0  0  0  0  0  0  0999 V2000
   19.8320  -29.5460   29.3580 C   0  0  0  0  0  0  0  0  0  0  0  0
   18.9340  -30.7680   29.1070 C   0  0  0  0  0  0  0  0  0  0  0  0
   19.2270  -31.3290   27.7040 C   0  0  0  0  0  0  0  0  0  0  0  0
   18.7400  -32.7870   27.6270 C   0  0  0  0  0  0  0  0  0  0  0  0
   19.8590  -33.6760   27.3240 N   0  0  0  0  0  0  0  0  0  0  0  0
   20.3390  -34.6130   28.3310 C   0  0  0  0  0  0  0  0  0  0  0  0
   20.6230  -34.1360   29.7240 N   0  0  0  0  0  0  0  0  0  0  0  0
   21.0990  -35.1100   30.7800 C   0  0  0  0  0  0  0  0  0  0  0  0
   21.2930  -36.5900   30.4190 C   0  0  0  0  0  0  0  0  0  0  0  0
   21.7840  -37.5830   31.4980 C   0  0  0  0  0  0  0  0  0  0  0  0
   22.0710  -37.0940   32.9280 C   0  0  0  0  0  0  0  0  0  0  0  0
   21.8750  -35.6110   33.2860 C   0  0  0  0  0  0  0  0  0  0  0  0
   21.3880  -34.6180   32.2100 C   0  0  0  0  0  0  0  0  0  0  0  0
   21.2080  -33.2640   32.5270 O   0  0  0  0  0  0  0  0  0  0  0  0
   21.0070  -37.0700   29.0140 C   0  0  0  0  0  0  0  0  0  0  0  0
   20.5320  -36.1050   27.9650 C   0  0  0  0  0  0  0  0  0  0  0  0
   19.9459  -29.3910   30.4410 H   0  0  0  0  0  0  0  0  0  0  0  0
   20.8201  -29.7181   28.9063 H   0  0  0  0  0  0  0  0  0  0  0  0
   19.3726  -28.6544   28.9063 H   0  0  0  0  0  0  0  0  0  0  0  0
   19.1421  -31.5395   29.8630 H   0  0  0  0  0  0  0  0  0  0  0  0
   17.8770  -30.4710   29.1739 H   0  0  0  0  0  0  0  0  0  0  0  0
   18.7008  -30.7255   26.9497 H   0  0  0  0  0  0  0  0  0  0  0  0
   20.3093  -31.2914   27.5109 H   0  0  0  0  0  0  0  0  0  0  0  0
   18.2985  -33.0743   28.5927 H   0  0  0  0  0  0  0  0  0  0  0  0
   17.9867  -32.8728   26.8300 H   0  0  0  0  0  0  0  0  0  0  0  0
   20.3087  -33.6403   26.3981 H   0  0  0  0  0  0  0  0  0  0  0  0
   21.9286  -38.6430   31.2420 H   0  0  0  0  0  0  0  0  0  0  0  0
   22.4161  -37.8042   33.6938 H   0  0  0  0  0  0  0  0  0  0  0  0
   22.0817  -35.2589   34.3074 H   0  0  0  0  0  0  0  0  0  0  0  0
   21.1700  -32.9782   33.4741 H   0  0  0  0  0  0  0  0  0  0  0  0
   21.1474  -38.1307   28.7587 H   0  0  0  0  0  0  0  0  0  0  0  0
   20.3227  -36.4561   26.9438 H   0  0  0  0  0  0  0  0  0  0  0  0
  2  1  1  0
  3  2  1  0
  4  3  1  0
  5  4  1  0
  5  6  1  0
 16  6  2  0
  6  7  1  0
  7  8  2  0
  9  8  1  0
  8 13  1  0
 15  9  2  0
  9 10  1  0
 10 11  2  0
 11 12  1  0
 13 12  2  0
 13 14  1  0
 16 15  1  0
  1 17  1  0
  1 18  1  0
  1 19  1  0
  2 20  1  0
  2 21  1  0
  3 22  1  0
  3 23  1  0
  4 24  1  0
  4 25  1  0
  5 26  1  0
 10 27  1  0
 11 28  1  0
 12 29  1  0
 14 30  1  0
 15 31  1  0
 16 32  1  0
A    1
C01
A    2
C02
A    3
C03
A    4
C04
A    5
N05
A    6
C06
A    7
N07
A    8
C08
A    9
C09
A   10
C10
A   11
C11
A   12
C12
A   13
C13
A   14
O14
A   15
C15
A   16
C16
M  END
