4AL4_W7E_A_1333
     RDKit          3D

 62 64  0  0  0  0  0  0  0  0999 V2000
   13.2890  -13.9930    8.0910 C   0  0  0  0  0  0  0  0  0  0  0  0
   15.3080  -14.6270    9.2130 C   0  0  0  0  0  0  0  0  0  0  0  0
   12.5500  -14.5410    9.1230 C   0  0  0  0  0  0  0  0  0  0  0  0
   14.5550  -15.2040   10.2190 C   0  0  0  0  0  0  0  0  0  0  0  0
   21.5940   -5.8440    1.2450 C   0  0  0  0  0  0  0  0  0  0  0  0
   20.3280   -5.8080    1.8020 C   0  0  0  0  0  0  0  0  0  0  0  0
   19.4780   -7.2060    0.0350 C   0  0  0  0  0  0  0  0  0  0  0  0
   13.1740  -15.1450   10.2030 C   0  0  0  0  0  0  0  0  0  0  0  0
   21.8220   -6.5650    0.0720 C   0  0  0  0  0  0  0  0  0  0  0  0
   14.6700  -14.0120    8.1550 C   0  0  0  0  0  0  0  0  0  0  0  0
   19.2730   -6.4960    1.2130 C   0  0  0  0  0  0  0  0  0  0  0  0
   20.7490   -7.2360   -0.5160 C   0  0  0  0  0  0  0  0  0  0  0  0
   22.8890   -7.4550   -1.6700 C   0  0  0  0  0  0  0  0  0  0  0  0
   17.1260   -7.4910    1.9730 C   0  0  0  0  0  0  0  0  0  0  0  0
   12.0150  -17.8170    9.7670 C   0  0  0  0  0  0  0  0  0  0  0  0
   10.6980  -17.6120   11.8710 C   0  0  0  0  0  0  0  0  0  0  0  0
   14.8770   -9.9600    4.0980 C   0  0  0  0  0  0  0  0  0  0  0  0
   24.0140   -7.8010   -2.5850 C   0  0  0  0  0  0  0  0  0  0  0  0
   14.7510  -12.8410    6.0490 C   0  0  0  0  0  0  0  0  0  0  0  0
   12.3710  -15.8170   11.2870 C   0  0  0  0  0  0  0  0  0  0  0  0
   15.9420   -7.1680    2.8490 C   0  0  0  0  0  0  0  0  0  0  0  0
   15.6850  -11.8200    5.4780 C   0  0  0  0  0  0  0  0  0  0  0  0
   14.7550   -8.0540    2.5580 C   0  0  0  0  0  0  0  0  0  0  0  0
   11.3670  -16.8560   10.7470 C   0  0  0  0  0  0  0  0  0  0  0  0
   23.0330   -6.6950   -0.6090 N   0  0  0  0  0  0  0  0  0  0  0  0
   17.9810   -6.4600    1.7880 N   0  0  0  0  0  0  0  0  0  0  0  0
   15.1920  -11.2600    4.2260 N   0  0  0  0  0  0  0  0  0  0  0  0
   15.0320   -9.4510    2.8650 N   0  0  0  0  0  0  0  0  0  0  0  0
   17.2760   -8.6020    1.4720 O   0  0  0  0  0  0  0  0  0  0  0  0
   11.4980  -18.0690    8.6900 O   0  0  0  0  0  0  0  0  0  0  0  0
   11.1170  -18.6760   12.2980 O   0  0  0  0  0  0  0  0  0  0  0  0
   14.4290   -9.2970    5.0330 O   0  0  0  0  0  0  0  0  0  0  0  0
   13.1370  -18.3330   10.1620 O   0  0  0  0  0  0  0  0  0  0  0  0
    9.6620  -16.9890   12.3430 O   0  0  0  0  0  0  0  0  0  0  0  0
   15.4260  -13.4670    7.1460 O   0  0  0  0  0  0  0  0  0  0  0  0
   21.2820   -8.0300   -1.9680 S   0  0  0  0  0  0  0  0  0  0  0  0
   12.7813  -13.5446    7.2243 H   0  0  0  0  0  0  0  0  0  0  0  0
   16.4067  -14.6579    9.2556 H   0  0  0  0  0  0  0  0  0  0  0  0
   11.4515  -14.4970    9.0863 H   0  0  0  0  0  0  0  0  0  0  0  0
   15.0640  -15.7192   11.0469 H   0  0  0  0  0  0  0  0  0  0  0  0
   22.4219   -5.3036    1.7273 H   0  0  0  0  0  0  0  0  0  0  0  0
   20.1542   -5.2288    2.7208 H   0  0  0  0  0  0  0  0  0  0  0  0
   18.6451   -7.7350   -0.4513 H   0  0  0  0  0  0  0  0  0  0  0  0
   24.8991   -8.0732   -1.9913 H   0  0  0  0  0  0  0  0  0  0  0  0
   23.7225   -8.6510   -3.2194 H   0  0  0  0  0  0  0  0  0  0  0  0
   24.2505   -6.9341   -3.2194 H   0  0  0  0  0  0  0  0  0  0  0  0
   13.8302  -12.3536    6.4019 H   0  0  0  0  0  0  0  0  0  0  0  0
   14.4722  -13.5840    5.2873 H   0  0  0  0  0  0  0  0  0  0  0  0
   13.0656  -16.3257   11.9717 H   0  0  0  0  0  0  0  0  0  0  0  0
   11.7884  -15.0338   11.7941 H   0  0  0  0  0  0  0  0  0  0  0  0
   16.2336   -7.3017    3.9012 H   0  0  0  0  0  0  0  0  0  0  0  0
   15.6448   -6.1291    2.6432 H   0  0  0  0  0  0  0  0  0  0  0  0
   15.8068  -11.0050    6.2066 H   0  0  0  0  0  0  0  0  0  0  0  0
   16.6432  -12.3186    5.2700 H   0  0  0  0  0  0  0  0  0  0  0  0
   13.9027   -7.7182    3.1670 H   0  0  0  0  0  0  0  0  0  0  0  0
   14.5287   -7.9792    1.4841 H   0  0  0  0  0  0  0  0  0  0  0  0
   10.5937  -16.2959   10.2009 H   0  0  0  0  0  0  0  0  0  0  0  0
   17.6517   -5.5366    2.1040 H   0  0  0  0  0  0  0  0  0  0  0  0
   15.0813  -11.8815    3.4121 H   0  0  0  0  0  0  0  0  0  0  0  0
   15.3583  -10.0703    2.1094 H   0  0  0  0  0  0  0  0  0  0  0  0
   13.3280  -18.4209   11.1294 H   0  0  0  0  0  0  0  0  0  0  0  0
    9.5341  -16.9121   13.3217 H   0  0  0  0  0  0  0  0  0  0  0  0
  4  2  1  0
  4  8  2  0
  3  1  2  0
  3  8  1  0
  5  6  2  0
  5  9  1  0
  6 11  1  0
  2 10  2  0
  1 10  1  0
  7 11  2  0
  7 12  1  0
  8 20  1  0
  9 12  2  0
  9 25  1  0
 11 26  1  0
 10 35  1  0
 12 36  1  0
 13 18  1  0
 13 25  2  0
 13 36  1  0
 14 21  1  0
 14 26  1  0
 14 29  2  0
 15 24  1  0
 15 30  2  0
 15 33  1  0
 16 24  1  0
 16 31  2  0
 16 34  1  0
 17 28  1  0
 17 27  1  0
 17 32  2  0
 20 24  1  0
 21 23  1  0
 23 28  1  0
 22 19  1  0
 22 27  1  0
 19 35  1  0
  1 37  1  0
  2 38  1  0
  3 39  1  0
  4 40  1  0
  5 41  1  0
  6 42  1  0
  7 43  1  0
 18 44  1  0
 18 45  1  0
 18 46  1  0
 19 47  1  0
 19 48  1  0
 20 49  1  0
 20 50  1  0
 21 51  1  0
 21 52  1  0
 22 53  1  0
 22 54  1  0
 23 55  1  0
 23 56  1  0
 24 57  1  0
 26 58  1  0
 27 59  1  0
 28 60  1  0
 33 61  1  0
 34 62  1  0
A    1
C28
A    2
C24
A    3
C27
A    4
C25
A    5
C5
A    6
C6
A    7
C8
A    8
C26
A    9
C4
A   10
C23
A   11
C7
A   12
C9
A   13
C2
A   14
C12
A   15
C31
A   16
C34
A   17
C17
A   18
C1
A   19
C21
A   20
C29
A   21
C14
A   22
C20
A   23
C15
A   24
C30
A   25
N3
A   26
N11
A   27
N19
A   28
N16
A   29
O13
A   30
O32
A   31
O35
A   32
O18
A   33
O33
A   34
O36
A   35
O22
A   36
S10
M  END
