4A9P_A9P_A_1190
     RDKit          3D

 24 25  0  0  0  0  0  0  0  0999 V2000
   18.6590    9.0620   -6.9010 C   0  0  0  0  0  0  0  0  0  0  0  0
   19.6400    8.9640   -8.0240 C   0  0  0  0  0  0  0  0  0  0  0  0
   20.7870    8.3800   -7.8090 N   0  0  0  0  0  0  0  0  0  0  0  0
   21.4900    8.4420   -9.0480 O   0  0  0  0  0  0  0  0  0  0  0  0
   19.5360    9.4170   -9.3530 C   0  0  0  0  0  0  0  0  0  0  0  0
   20.7010    9.0690   -9.9410 C   0  0  0  0  0  0  0  0  0  0  0  0
   21.2690    9.2400  -11.3090 C   0  0  0  0  0  0  0  0  0  0  0  0
   18.4030   10.1260  -10.0010 C   0  0  0  0  0  0  0  0  0  0  0  0
   18.6180   11.2890  -10.7350 C   0  0  0  0  0  0  0  0  0  0  0  0
   17.5600   11.9070  -11.3910 C   0  0  0  0  0  0  0  0  0  0  0  0
   16.2780   11.3800  -11.3090 C   0  0  0  0  0  0  0  0  0  0  0  0
   16.0520   10.2240  -10.5760 C   0  0  0  0  0  0  0  0  0  0  0  0
   17.1130    9.6000   -9.9270 C   0  0  0  0  0  0  0  0  0  0  0  0
   19.1938    9.0086   -5.9412 H   0  0  0  0  0  0  0  0  0  0  0  0
   18.1198   10.0185   -6.9676 H   0  0  0  0  0  0  0  0  0  0  0  0
   17.9413    8.2311   -6.9676 H   0  0  0  0  0  0  0  0  0  0  0  0
   22.3198    9.5563  -11.2328 H   0  0  0  0  0  0  0  0  0  0  0  0
   21.2120    8.2849  -11.8517 H   0  0  0  0  0  0  0  0  0  0  0  0
   20.6942   10.0049  -11.8517 H   0  0  0  0  0  0  0  0  0  0  0  0
   19.6281   11.7202  -10.7960 H   0  0  0  0  0  0  0  0  0  0  0  0
   17.7394   12.8193  -11.9788 H   0  0  0  0  0  0  0  0  0  0  0  0
   15.4434   11.8780  -11.8241 H   0  0  0  0  0  0  0  0  0  0  0  0
   15.0383    9.8024  -10.5081 H   0  0  0  0  0  0  0  0  0  0  0  0
   16.9325    8.6816   -9.3491 H   0  0  0  0  0  0  0  0  0  0  0  0
  1  2  1  0
  2  3  2  0
  2  5  1  0
  3  4  1  0
  4  6  1  0
  5  6  2  0
  5  8  1  0
  6  7  1  0
  8  9  2  0
  8 13  1  0
  9 10  1  0
 10 11  2  0
 11 12  1  0
 12 13  2  0
  1 14  1  0
  1 15  1  0
  1 16  1  0
  7 17  1  0
  7 18  1  0
  7 19  1  0
  9 20  1  0
 10 21  1  0
 11 22  1  0
 12 23  1  0
 13 24  1  0
A    1
C5
A    2
C4
A    3
N
A    4
O
A    5
C6
A    6
C3
A    7
C2
A    8
C7
A    9
C12
A   10
C11
A   11
C10
A   12
C9
A   13
C8
M  END
