5I7S_E9P_A_302
     RDKit          3D

 30 31  0  0  0  0  0  0  0  0999 V2000
   26.9640  -12.0520  -15.1040 C   0  0  0  0  0  0  0  0  0  0  0  0
   27.8110  -11.3500  -14.2540 C   0  0  0  0  0  0  0  0  0  0  0  0
   28.1760  -11.8790  -13.0230 C   0  0  0  0  0  0  0  0  0  0  0  0
   27.6840  -13.1190  -12.6260 C   0  0  0  0  0  0  0  0  0  0  0  0
   26.8460  -13.8270  -13.4780 C   0  0  0  0  0  0  0  0  0  0  0  0
   26.4730  -13.2870  -14.7070 C   0  0  0  0  0  0  0  0  0  0  0  0
   26.6010  -11.5160  -16.3270 O   0  0  0  0  0  0  0  0  0  0  0  0
   27.5780  -11.5970  -17.3050 C   0  0  0  0  0  0  0  0  0  0  0  0
   27.4900  -10.7600  -18.4190 C   0  0  0  0  0  0  0  0  0  0  0  0
   28.4580  -10.8280  -19.4160 C   0  0  0  0  0  0  0  0  0  0  0  0
   29.5050  -11.7300  -19.2970 C   0  0  0  0  0  0  0  0  0  0  0  0
   29.5900  -12.5630  -18.1920 C   0  0  0  0  0  0  0  0  0  0  0  0
   28.6260  -12.4950  -17.1970 C   0  0  0  0  0  0  0  0  0  0  0  0
   28.0810  -13.6930  -11.3040 C   0  0  0  0  0  0  0  0  0  0  0  0
   29.2270  -14.6530  -11.2930 C   0  0  0  0  0  0  0  0  0  0  0  0
   28.2890  -10.1220  -14.6280 O   0  0  0  0  0  0  0  0  0  0  0  0
   28.8535  -11.3184  -12.3621 H   0  0  0  0  0  0  0  0  0  0  0  0
   26.4750  -14.8190  -13.1809 H   0  0  0  0  0  0  0  0  0  0  0  0
   25.7872  -13.8416  -15.3643 H   0  0  0  0  0  0  0  0  0  0  0  0
   26.6565  -10.0478  -18.5083 H   0  0  0  0  0  0  0  0  0  0  0  0
   28.3933  -10.1694  -20.2947 H   0  0  0  0  0  0  0  0  0  0  0  0
   30.2720  -11.7847  -20.0836 H   0  0  0  0  0  0  0  0  0  0  0  0
   30.4217  -13.2776  -18.1044 H   0  0  0  0  0  0  0  0  0  0  0  0
   28.6944  -13.1559  -16.3204 H   0  0  0  0  0  0  0  0  0  0  0  0
   28.3462  -12.8533  -10.6447 H   0  0  0  0  0  0  0  0  0  0  0  0
   27.2123  -14.2844  -10.9790 H   0  0  0  0  0  0  0  0  0  0  0  0
   29.5022  -14.8835  -10.2532 H   0  0  0  0  0  0  0  0  0  0  0  0
   28.9342  -15.5794  -11.8088 H   0  0  0  0  0  0  0  0  0  0  0  0
   30.0877  -14.2024  -11.8088 H   0  0  0  0  0  0  0  0  0  0  0  0
   28.5466   -9.4601  -13.9384 H   0  0  0  0  0  0  0  0  0  0  0  0
  1  2  2  0
  1  6  1  0
  1  7  1  0
  2  3  1  0
  2 16  1  0
  3  4  2  0
  4  5  1  0
  4 14  1  0
  5  6  2  0
  7  8  1  0
  8  9  2  0
  8 13  1  0
  9 10  1  0
 10 11  2  0
 11 12  1  0
 12 13  2  0
 14 15  1  0
  3 17  1  0
  5 18  1  0
  6 19  1  0
  9 20  1  0
 10 21  1  0
 11 22  1  0
 12 23  1  0
 13 24  1  0
 14 25  1  0
 14 26  1  0
 15 27  1  0
 15 28  1  0
 15 29  1  0
 16 30  1  0
A    1
C1
A    2
C2
A    3
C3
A    4
C4
A    5
C5
A    6
C6
A    7
O7
A    8
C8
A    9
C9
A   10
C10
A   11
C11
A   12
C12
A   13
C13
A   14
C14
A   15
CAA
A   16
O16
M  END
