4ALX_IZN_A_400
     RDKit          3D

 41 44  0  0  0  0  0  0  0  0999 V2000
  -44.6660   18.4980  -34.4510 N   0  0  0  0  0  0  0  0  0  0  0  0
  -44.2850   19.7170  -33.6860 C   0  0  0  0  0  0  0  0  0  0  0  0
  -44.0060   20.9100  -34.6170 C   0  0  0  0  0  0  0  0  0  0  0  0
  -43.9600   15.7120  -36.3230 C   0  0  0  0  0  0  0  0  0  0  0  0
  -43.5770   18.0120  -35.3330 C   0  0  0  0  0  0  0  0  0  0  0  0
  -42.4610   17.3620  -34.4840 C   0  0  0  0  0  0  0  0  0  0  0  0
  -41.6960   16.1930  -35.1510 C   0  0  0  0  0  0  0  0  0  0  0  0
  -42.6310   15.1500  -35.8260 C   0  0  0  0  0  0  0  0  0  0  0  0
  -44.3580   16.9860  -36.1080 C   0  0  0  0  0  0  0  0  0  0  0  0
  -45.6520   17.6580  -36.5130 C   0  0  0  0  0  0  0  0  0  0  0  0
  -45.9350   18.5030  -35.2550 C   0  0  0  0  0  0  0  0  0  0  0  0
  -43.1230   19.1730  -36.2420 C   0  0  0  0  0  0  0  0  0  0  0  0
  -43.3260   20.4670  -35.9000 C   0  0  0  0  0  0  0  0  0  0  0  0
  -42.8800   21.5840  -36.8190 C   0  0  0  0  0  0  0  0  0  0  0  0
  -42.1380   19.9820  -38.4950 C   0  0  0  0  0  0  0  0  0  0  0  0
  -42.4290   18.8030  -37.5560 C   0  0  0  0  0  0  0  0  0  0  0  0
  -41.4110   19.8480  -39.4830 O   0  0  0  0  0  0  0  0  0  0  0  0
  -42.7280   21.1580  -38.1750 O   0  0  0  0  0  0  0  0  0  0  0  0
  -40.9270   15.5540  -34.1320 O   0  0  0  0  0  0  0  0  0  0  0  0
  -40.0980   14.4980  -34.5750 C   0  0  0  0  0  0  0  0  0  0  0  0
  -45.1070   19.9814  -33.0045 H   0  0  0  0  0  0  0  0  0  0  0  0
  -43.3640   19.4964  -33.1264 H   0  0  0  0  0  0  0  0  0  0  0  0
  -44.9592   21.3983  -34.8678 H   0  0  0  0  0  0  0  0  0  0  0  0
  -43.3350   21.6069  -34.0935 H   0  0  0  0  0  0  0  0  0  0  0  0
  -44.6296   15.0451  -36.8860 H   0  0  0  0  0  0  0  0  0  0  0  0
  -41.7292   18.1443  -34.2341 H   0  0  0  0  0  0  0  0  0  0  0  0
  -42.9681   16.9253  -33.6110 H   0  0  0  0  0  0  0  0  0  0  0  0
  -41.0666   16.6037  -35.9542 H   0  0  0  0  0  0  0  0  0  0  0  0
  -42.8464   14.3582  -35.0934 H   0  0  0  0  0  0  0  0  0  0  0  0
  -42.0969   14.7835  -36.7150 H   0  0  0  0  0  0  0  0  0  0  0  0
  -45.5205   18.2885  -37.4047 H   0  0  0  0  0  0  0  0  0  0  0  0
  -46.4603   16.9660  -36.7919 H   0  0  0  0  0  0  0  0  0  0  0  0
  -46.7561   18.0580  -34.6738 H   0  0  0  0  0  0  0  0  0  0  0  0
  -46.2369   19.5270  -35.5201 H   0  0  0  0  0  0  0  0  0  0  0  0
  -43.6302   22.3878  -36.7851 H   0  0  0  0  0  0  0  0  0  0  0  0
  -41.8963   21.9290  -36.4679 H   0  0  0  0  0  0  0  0  0  0  0  0
  -41.4722   18.3186  -37.3111 H   0  0  0  0  0  0  0  0  0  0  0  0
  -43.1274   18.1471  -38.0964 H   0  0  0  0  0  0  0  0  0  0  0  0
  -39.6823   13.9685  -33.7050 H   0  0  0  0  0  0  0  0  0  0  0  0
  -40.6898   13.7973  -35.1823 H   0  0  0  0  0  0  0  0  0  0  0  0
  -39.2769   14.9065  -35.1823 H   0  0  0  0  0  0  0  0  0  0  0  0
  1  2  1  0
  1  5  1  0
  1 11  1  0
  2  3  1  0
  3 13  1  0
  4  8  1  0
  4  9  2  0
  5  6  1  0
  5  9  1  0
  5 12  1  0
  6  7  1  0
  7  8  1  0
  7 19  1  0
  9 10  1  0
 10 11  1  0
 12 13  2  0
 12 16  1  0
 13 14  1  0
 14 18  1  0
 15 16  1  0
 15 17  2  0
 15 18  1  0
 20 19  1  0
  2 21  1  0
  2 22  1  0
  3 23  1  0
  3 24  1  0
  4 25  1  0
  6 26  1  0
  6 27  1  0
  7 28  1  0
  8 29  1  0
  8 30  1  0
 10 31  1  0
 10 32  1  0
 11 33  1  0
 11 34  1  0
 14 35  1  0
 14 36  1  0
 16 37  1  0
 16 38  1  0
 20 39  1  0
 20 40  1  0
 20 41  1  0
A    1
N1
A    2
C1
A    3
C2
A    4
C3
A    5
C4
A    6
C5
A    7
C6
A    8
C7
A    9
C8
A   10
C9
A   11
C10
A   12
C11
A   13
C12
A   14
C13
A   15
C14
A   16
C15
A   17
O1
A   18
O2
A   19
O3
A   20
C16
M  END
