4AMI_G90_A_1359
     RDKit          3D

 52 54  0  0  0  0  0  0  0  0999 V2000
  -22.0870  -11.0590   29.5870 N   0  0  0  0  0  0  0  0  0  0  0  0
  -21.5080  -10.5130   28.7410 C   0  0  0  0  0  0  0  0  0  0  0  0
  -20.8160   -9.9560   27.8120 C   0  0  0  0  0  0  0  0  0  0  0  0
  -21.4160   -9.6350   26.4830 C   0  0  0  0  0  0  0  0  0  0  0  0
  -20.6230   -9.0520   25.5040 C   0  0  0  0  0  0  0  0  0  0  0  0
  -19.2900   -8.7670   25.7780 C   0  0  0  0  0  0  0  0  0  0  0  0
  -18.7250   -9.0680   27.0210 C   0  0  0  0  0  0  0  0  0  0  0  0
  -19.4730   -9.6590   28.0380 C   0  0  0  0  0  0  0  0  0  0  0  0
  -22.7210   -9.9240   26.2070 O   0  0  0  0  0  0  0  0  0  0  0  0
  -23.7310   -8.9260   26.2720 C   0  0  0  0  0  0  0  0  0  0  0  0
  -25.0820   -9.6020   26.0970 C   0  0  0  0  0  0  0  0  0  0  0  0
  -25.5610   -9.3810   24.7730 O   0  0  0  0  0  0  0  0  0  0  0  0
  -24.9200  -11.0980   26.3160 C   0  0  0  0  0  0  0  0  0  0  0  0
  -26.0620  -11.5900   27.0680 N   0  0  0  0  0  0  0  0  0  0  0  0
  -26.2700  -12.9810   27.4070 C   0  0  0  0  0  0  0  0  0  0  0  0
  -26.1090  -13.0470   28.9230 C   0  0  0  0  0  0  0  0  0  0  0  0
  -25.2690  -13.9150   26.7330 C   0  0  0  0  0  0  0  0  0  0  0  0
  -27.6810  -13.3170   26.9190 C   0  0  0  0  0  0  0  0  0  0  0  0
  -28.3250  -14.4880   27.6330 C   0  0  0  0  0  0  0  0  0  0  0  0
  -29.1800  -14.4580   28.8460 C   0  0  0  0  0  0  0  0  0  0  0  0
  -29.6240  -13.4240   29.6690 C   0  0  0  0  0  0  0  0  0  0  0  0
  -30.4300  -13.7580   30.7570 C   0  0  0  0  0  0  0  0  0  0  0  0
  -30.7840  -15.0910   31.0120 C   0  0  0  0  0  0  0  0  0  0  0  0
  -30.3510  -16.1500   30.2020 C   0  0  0  0  0  0  0  0  0  0  0  0
  -29.5420  -15.8690   29.1060 C   0  0  0  0  0  0  0  0  0  0  0  0
  -28.9590  -16.6130   28.1360 N   0  0  0  0  0  0  0  0  0  0  0  0
  -28.2480  -15.8290   27.2770 C   0  0  0  0  0  0  0  0  0  0  0  0
  -21.0470   -8.8167   24.5166 H   0  0  0  0  0  0  0  0  0  0  0  0
  -18.6683   -8.2959   25.0024 H   0  0  0  0  0  0  0  0  0  0  0  0
  -17.6655   -8.8330   27.2006 H   0  0  0  0  0  0  0  0  0  0  0  0
  -19.0085   -9.8885   29.0083 H   0  0  0  0  0  0  0  0  0  0  0  0
  -23.6918   -8.4201   27.2480 H   0  0  0  0  0  0  0  0  0  0  0  0
  -23.5761   -8.1779   25.4806 H   0  0  0  0  0  0  0  0  0  0  0  0
  -25.7959   -9.1856   26.8229 H   0  0  0  0  0  0  0  0  0  0  0  0
  -26.4592   -8.9666   24.8119 H   0  0  0  0  0  0  0  0  0  0  0  0
  -24.8696  -11.6102   25.3438 H   0  0  0  0  0  0  0  0  0  0  0  0
  -23.9931  -11.2947   26.8747 H   0  0  0  0  0  0  0  0  0  0  0  0
  -26.0445  -11.0839   27.9649 H   0  0  0  0  0  0  0  0  0  0  0  0
  -27.0236  -12.6721   29.4055 H   0  0  0  0  0  0  0  0  0  0  0  0
  -25.9343  -14.0893   29.2281 H   0  0  0  0  0  0  0  0  0  0  0  0
  -25.2530  -12.4272   29.2281 H   0  0  0  0  0  0  0  0  0  0  0  0
  -24.6936  -14.4519   27.5015 H   0  0  0  0  0  0  0  0  0  0  0  0
  -25.8087  -14.6399   26.1058 H   0  0  0  0  0  0  0  0  0  0  0  0
  -24.5832  -13.3265   26.1058 H   0  0  0  0  0  0  0  0  0  0  0  0
  -28.3167  -12.4315   27.0667 H   0  0  0  0  0  0  0  0  0  0  0  0
  -27.5885  -13.6050   25.8614 H   0  0  0  0  0  0  0  0  0  0  0  0
  -29.3476  -12.3787   29.4668 H   0  0  0  0  0  0  0  0  0  0  0  0
  -30.7937  -12.9638   31.4255 H   0  0  0  0  0  0  0  0  0  0  0  0
  -31.4242  -15.3133   31.8784 H   0  0  0  0  0  0  0  0  0  0  0  0
  -30.6459  -17.1851   30.4292 H   0  0  0  0  0  0  0  0  0  0  0  0
  -29.0420  -17.6367   28.0577 H   0  0  0  0  0  0  0  0  0  0  0  0
  -27.6849  -16.2095   26.4120 H   0  0  0  0  0  0  0  0  0  0  0  0
  1  2  3  0
  2  3  1  0
  3  4  2  0
  3  8  1  0
  4  5  1  0
  4  9  1  0
  5  6  2  0
  6  7  1  0
  7  8  2  0
  9 10  1  0
 10 11  1  0
 11 12  1  0
 11 13  1  0
 13 14  1  0
 14 15  1  0
 15 16  1  0
 15 17  1  0
 15 18  1  0
 18 19  1  0
 19 20  1  0
 19 27  2  0
 20 21  2  0
 20 25  1  0
 21 22  1  0
 22 23  2  0
 23 24  1  0
 24 25  2  0
 25 26  1  0
 26 27  1  0
  5 28  1  0
  6 29  1  0
  7 30  1  0
  8 31  1  0
 10 32  1  0
 10 33  1  0
 11 34  1  0
 12 35  1  0
 13 36  1  0
 13 37  1  0
 14 38  1  0
 16 39  1  0
 16 40  1  0
 16 41  1  0
 17 42  1  0
 17 43  1  0
 17 44  1  0
 18 45  1  0
 18 46  1  0
 21 47  1  0
 22 48  1  0
 23 49  1  0
 24 50  1  0
 26 51  1  0
 27 52  1  0
A    1
N1
A    2
C12
A    3
C7
A    4
C6
A    5
C11
A    6
C10
A    7
C9
A    8
C8
A    9
O2
A   10
C5
A   11
C4
A   12
O1
A   13
C3
A   14
N
A   15
CA
A   16
C1
A   17
C2
A   18
CB
A   19
CG
A   20
CD2
A   21
CE3
A   22
CZ3
A   23
CH2
A   24
CZ2
A   25
CE2
A   26
NE1
A   27
CD1
M  END
