2UWG_GYU_A_1173
     RDKit          3D

 43 43  0  0  0  0  0  0  0  0999 V2000
   -6.1950   42.9270    5.0400 C   0  0  0  0  0  0  0  0  0  0  0  0
   -6.5820   44.0750    5.2940 O   0  0  0  0  0  0  0  0  0  0  0  0
   -7.1070   41.8810    5.0000 O   0  0  0  0  0  0  0  0  0  0  0  0
   -3.8620   43.5790    4.7860 C   0  0  0  0  0  0  0  0  0  0  0  0
   -3.1390   43.6110    6.1200 C   0  0  0  0  0  0  0  0  0  0  0  0
   -2.4480   42.2920    6.4590 C   0  0  0  0  0  0  0  0  0  0  0  0
   -8.4410   40.5260    6.3630 C   0  0  0  0  0  0  0  0  0  0  0  0
   -7.1940   40.0180    6.8620 N   0  0  0  0  0  0  0  0  0  0  0  0
   -7.0330   39.7040    8.1810 C   0  0  0  0  0  0  0  0  0  0  0  0
   -7.9550   39.8240    8.9810 O   0  0  0  0  0  0  0  0  0  0  0  0
   -5.6590   39.1780    8.5980 C   0  0  0  0  0  0  0  0  0  0  0  0
   -8.8120   39.6710    5.1370 C   0  0  0  0  0  0  0  0  0  0  0  0
   -9.0550   38.3150    5.6100 O   0  0  0  0  0  0  0  0  0  0  0  0
  -10.0280   40.2200    4.4710 C   0  0  0  0  0  0  0  0  0  0  0  0
  -10.2510   39.4350    3.2780 O   0  0  0  0  0  0  0  0  0  0  0  0
   -8.2800   41.9850    5.8530 C   0  0  0  0  0  0  0  0  0  0  0  0
   -9.4360   42.4420    5.2550 O   0  0  0  0  0  0  0  0  0  0  0  0
   -4.9600   42.5630    4.8110 N   0  0  0  0  0  0  0  0  0  0  0  0
   -9.8320   41.7010    4.0660 C   0  0  0  0  0  0  0  0  0  0  0  0
  -11.1540   42.2790    3.6480 C   0  0  0  0  0  0  0  0  0  0  0  0
  -10.9810   43.6530    3.1950 O   0  0  0  0  0  0  0  0  0  0  0  0
   -4.2911   44.5712    4.5826 H   0  0  0  0  0  0  0  0  0  0  0  0
   -3.1439   43.3084    3.9979 H   0  0  0  0  0  0  0  0  0  0  0  0
   -2.3793   44.4059    6.0874 H   0  0  0  0  0  0  0  0  0  0  0  0
   -3.8945   43.7948    6.8981 H   0  0  0  0  0  0  0  0  0  0  0  0
   -2.3889   42.1792    7.5516 H   0  0  0  0  0  0  0  0  0  0  0  0
   -3.0243   41.4566    6.0348 H   0  0  0  0  0  0  0  0  0  0  0  0
   -1.4331   42.2901    6.0348 H   0  0  0  0  0  0  0  0  0  0  0  0
   -9.1946   40.4951    7.1637 H   0  0  0  0  0  0  0  0  0  0  0  0
   -6.4055   39.8879    6.2122 H   0  0  0  0  0  0  0  0  0  0  0  0
   -5.5937   39.1530    9.6958 H   0  0  0  0  0  0  0  0  0  0  0  0
   -5.5186   38.1625    8.1991 H   0  0  0  0  0  0  0  0  0  0  0  0
   -4.8764   39.8401    8.1991 H   0  0  0  0  0  0  0  0  0  0  0  0
   -7.9982   39.6794    4.3970 H   0  0  0  0  0  0  0  0  0  0  0  0
   -9.0566   38.3061    6.6000 H   0  0  0  0  0  0  0  0  0  0  0  0
  -10.8807   40.1707    5.1642 H   0  0  0  0  0  0  0  0  0  0  0  0
  -10.5124   38.5147    3.5326 H   0  0  0  0  0  0  0  0  0  0  0  0
   -8.1284   42.7482    6.6306 H   0  0  0  0  0  0  0  0  0  0  0  0
   -4.7417   41.5699    4.6467 H   0  0  0  0  0  0  0  0  0  0  0  0
   -9.0892   41.7648    3.2571 H   0  0  0  0  0  0  0  0  0  0  0  0
  -11.5715   41.6759    2.8283 H   0  0  0  0  0  0  0  0  0  0  0  0
  -11.8391   42.2680    4.5085 H   0  0  0  0  0  0  0  0  0  0  0  0
  -10.9056   44.2521    3.9795 H   0  0  0  0  0  0  0  0  0  0  0  0
  1  2  2  0
  1  3  1  0
  4  5  1  0
  5  6  1  0
  7  8  1  0
  8  9  1  0
  9 10  2  0
  9 11  1  0
  7 12  1  0
 12 13  1  0
 12 14  1  0
 14 15  1  0
  3 16  1  0
  7 16  1  0
 16 17  1  0
  1 18  1  0
  4 18  1  0
 14 19  1  0
 17 19  1  0
 19 20  1  0
 20 21  1  0
  4 22  1  0
  4 23  1  0
  5 24  1  0
  5 25  1  0
  6 26  1  0
  6 27  1  0
  6 28  1  0
  7 29  1  0
  8 30  1  0
 11 31  1  0
 11 32  1  0
 11 33  1  0
 12 34  1  0
 13 35  1  0
 14 36  1  0
 15 37  1  0
 16 38  1  0
 18 39  1  0
 19 40  1  0
 20 41  1  0
 20 42  1  0
 21 43  1  0
A    1
C1
A    2
O1A
A    3
O1B
A    4
C12
A    5
C13
A    6
C14
A    7
C5
A    8
N5
A    9
C10
A   10
O10
A   11
C11
A   12
C6
A   13
O6
A   14
C7
A   15
O7
A   16
C15
A   17
O8
A   18
NAC
A   19
C8
A   20
C9
A   21
O9
M  END
