4AN3_5Y0_A_1384
     RDKit          3D

 40 41  0  0  0  0  0  0  0  0999 V2000
    6.2150   36.5940    4.7370 C   0  0  0  0  0  0  0  0  0  0  0  0
    6.4510   37.0640    3.4270 C   0  0  0  0  0  0  0  0  0  0  0  0
    6.5590   38.4070    3.2160 C   0  0  0  0  0  0  0  0  0  0  0  0
    6.4600   39.3620    4.2380 C   0  0  0  0  0  0  0  0  0  0  0  0
    6.1990   38.8580    5.5300 C   0  0  0  0  0  0  0  0  0  0  0  0
    6.0880   37.5050    5.7620 C   0  0  0  0  0  0  0  0  0  0  0  0
    6.0590   35.2600    5.0130 N   0  0  0  0  0  0  0  0  0  0  0  0
    5.8600   34.2170    4.1450 C   0  0  0  0  0  0  0  0  0  0  0  0
    4.8150   33.2800    4.2300 C   0  0  0  0  0  0  0  0  0  0  0  0
    4.7280   32.2340    3.2850 C   0  0  0  0  0  0  0  0  0  0  0  0
    5.7040   32.1040    2.2720 C   0  0  0  0  0  0  0  0  0  0  0  0
    6.7610   33.0200    2.2270 C   0  0  0  0  0  0  0  0  0  0  0  0
    6.8030   34.0550    3.1290 C   0  0  0  0  0  0  0  0  0  0  0  0
    3.7900   33.3490    5.2940 C   0  0  0  0  0  0  0  0  0  0  0  0
    2.6720   32.6270    5.2340 N   0  0  0  0  0  0  0  0  0  0  0  0
    4.1460   33.8080    6.3810 O   0  0  0  0  0  0  0  0  0  0  0  0
    1.9310   32.4310    6.4200 O   0  0  0  0  0  0  0  0  0  0  0  0
    0.7310   31.6420    6.5050 C   0  0  0  0  0  0  0  0  0  0  0  0
    1.8890   31.0650    8.6560 C   0  0  0  0  0  0  0  0  0  0  0  0
    0.0600   29.6710    7.8380 O   0  0  0  0  0  0  0  0  0  0  0  0
    1.8540   32.4070    9.1130 O   0  0  0  0  0  0  0  0  0  0  0  0
    0.5740   31.0130    7.9020 C   0  0  0  0  0  0  0  0  0  0  0  0
    6.6610   41.4760    3.9960 I   0  0  0  0  0  0  0  0  0  0  0  0
    5.8470   37.0860    7.0340 F   0  0  0  0  0  0  0  0  0  0  0  0
    7.8250   34.9090    3.0170 F   0  0  0  0  0  0  0  0  0  0  0  0
    7.7560   32.9830    1.3060 F   0  0  0  0  0  0  0  0  0  0  0  0
    6.5463   36.3577    2.5891 H   0  0  0  0  0  0  0  0  0  0  0  0
    6.7331   38.7601    2.1889 H   0  0  0  0  0  0  0  0  0  0  0  0
    6.0818   39.5600    6.3688 H   0  0  0  0  0  0  0  0  0  0  0  0
    6.0965   35.0060    6.0105 H   0  0  0  0  0  0  0  0  0  0  0  0
    3.8958   31.5167    3.3381 H   0  0  0  0  0  0  0  0  0  0  0  0
    5.6342   31.2951    1.5299 H   0  0  0  0  0  0  0  0  0  0  0  0
    2.3551   32.2207    4.3422 H   0  0  0  0  0  0  0  0  0  0  0  0
   -0.1370   32.2866    6.3024 H   0  0  0  0  0  0  0  0  0  0  0  0
    0.7946   30.8316    5.7640 H   0  0  0  0  0  0  0  0  0  0  0  0
    1.9101   30.3492    9.4910 H   0  0  0  0  0  0  0  0  0  0  0  0
    2.7760   30.7993    8.0621 H   0  0  0  0  0  0  0  0  0  0  0  0
   -0.0728   29.3244    8.7558 H   0  0  0  0  0  0  0  0  0  0  0  0
    1.8537   32.4186   10.1029 H   0  0  0  0  0  0  0  0  0  0  0  0
   -0.1685   31.6082    8.4537 H   0  0  0  0  0  0  0  0  0  0  0  0
 23  4  1  0
  5  6  2  0
  5  4  1  0
  6  1  1  0
  6 24  1  0
  1  2  2  0
  1  7  1  0
  2  3  1  0
  3  4  2  0
 19 22  1  0
 19 21  1  0
  7  8  1  0
  8  9  2  0
  8 13  1  0
  9 10  1  0
  9 14  1  0
 10 11  2  0
 11 12  1  0
 12 13  2  0
 12 26  1  0
 13 25  1  0
 14 16  2  0
 14 15  1  0
 15 17  1  0
 17 18  1  0
 18 22  1  0
 22 20  1  0
  2 27  1  0
  3 28  1  0
  5 29  1  0
  7 30  1  0
 10 31  1  0
 11 32  1  0
 15 33  1  0
 18 34  1  0
 18 35  1  0
 19 36  1  0
 19 37  1  0
 20 38  1  0
 21 39  1  0
 22 40  1  0
A    1
C13
A    2
C14
A    3
C15
A    4
C16
A    5
C17
A    6
C18
A    7
N9
A    8
C5
A    9
C6
A   10
C1
A   11
C2
A   12
C3
A   13
C4
A   14
C10
A   15
N12
A   16
O11
A   17
O21
A   18
C22
A   19
C24
A   20
O26
A   21
O23
A   22
C25
A   23
I20
A   24
F19
A   25
F7
A   26
F8
M  END
