4AN9_2P7_A_1384
     RDKit          3D

 36 38  0  0  0  0  0  0  0  0999 V2000
  -28.5530  -23.6340   -4.7120 C   0  0  0  0  0  0  0  0  0  0  0  0
  -28.8730  -24.1170   -3.4410 C   0  0  0  0  0  0  0  0  0  0  0  0
  -30.0030  -24.9200   -3.2360 C   0  0  0  0  0  0  0  0  0  0  0  0
  -30.8630  -25.2500   -4.2830 C   0  0  0  0  0  0  0  0  0  0  0  0
  -30.5400  -24.7650   -5.5340 C   0  0  0  0  0  0  0  0  0  0  0  0
  -29.4220  -23.9850   -5.7520 C   0  0  0  0  0  0  0  0  0  0  0  0
  -27.4480  -22.8360   -4.9540 N   0  0  0  0  0  0  0  0  0  0  0  0
  -26.5130  -22.3670   -4.0490 C   0  0  0  0  0  0  0  0  0  0  0  0
  -26.0710  -21.0150   -3.9730 C   0  0  0  0  0  0  0  0  0  0  0  0
  -25.1240  -20.6250   -3.0460 C   0  0  0  0  0  0  0  0  0  0  0  0
  -24.5690  -21.5800   -2.1970 C   0  0  0  0  0  0  0  0  0  0  0  0
  -24.9640  -22.9190   -2.2700 C   0  0  0  0  0  0  0  0  0  0  0  0
  -25.9400  -23.2880   -3.2080 C   0  0  0  0  0  0  0  0  0  0  0  0
  -26.6580  -19.9610   -4.8690 C   0  0  0  0  0  0  0  0  0  0  0  0
  -26.8150  -18.6340   -4.4610 N   0  0  0  0  0  0  0  0  0  0  0  0
  -26.9960  -20.4310   -5.9670 O   0  0  0  0  0  0  0  0  0  0  0  0
  -27.0930  -16.7210   -3.8000 C   0  0  0  0  0  0  0  0  0  0  0  0
  -26.4820  -17.9860   -3.1910 C   0  0  0  0  0  0  0  0  0  0  0  0
  -28.2460  -16.3310   -3.0240 O   0  0  0  0  0  0  0  0  0  0  0  0
  -32.5840  -26.4950   -4.0050 I   0  0  0  0  0  0  0  0  0  0  0  0
  -27.3770  -17.4280   -5.1240 C   0  0  0  0  0  0  0  0  0  0  0  0
  -29.2080  -23.5650   -7.0140 F   0  0  0  0  0  0  0  0  0  0  0  0
  -26.3620  -24.5510   -3.3450 F   0  0  0  0  0  0  0  0  0  0  0  0
  -24.3930  -23.8240   -1.4250 F   0  0  0  0  0  0  0  0  0  0  0  0
  -28.2276  -23.8629   -2.5872 H   0  0  0  0  0  0  0  0  0  0  0  0
  -30.2166  -25.2989   -2.2256 H   0  0  0  0  0  0  0  0  0  0  0  0
  -31.1941  -25.0076   -6.3844 H   0  0  0  0  0  0  0  0  0  0  0  0
  -27.3034  -22.5553   -5.9344 H   0  0  0  0  0  0  0  0  0  0  0  0
  -24.8117  -19.5724   -2.9789 H   0  0  0  0  0  0  0  0  0  0  0  0
  -23.8107  -21.2767   -1.4602 H   0  0  0  0  0  0  0  0  0  0  0  0
  -26.5458  -15.7689   -3.8641 H   0  0  0  0  0  0  0  0  0  0  0  0
  -27.0138  -18.3827   -2.3136 H   0  0  0  0  0  0  0  0  0  0  0  0
  -25.4684  -18.0069   -2.7641 H   0  0  0  0  0  0  0  0  0  0  0  0
  -28.0343  -16.4026   -2.0596 H   0  0  0  0  0  0  0  0  0  0  0  0
  -26.8009  -17.0570   -5.9845 H   0  0  0  0  0  0  0  0  0  0  0  0
  -28.3656  -17.4179   -5.6062 H   0  0  0  0  0  0  0  0  0  0  0  0
 22  6  1  0
  6  5  2  0
  6  1  1  0
  5  4  1  0
  1  2  2  0
  1  7  1  0
  2  3  1  0
  3  4  2  0
  4 20  1  0
  7  8  1  0
  8  9  1  0
  8 13  2  0
  9 10  2  0
  9 14  1  0
 10 11  1  0
 11 12  2  0
 12 24  1  0
 12 13  1  0
 13 23  1  0
 14 16  2  0
 14 15  1  0
 15 18  1  0
 15 21  1  0
 18 17  1  0
 17 19  1  0
 17 21  1  0
  2 25  1  0
  3 26  1  0
  5 27  1  0
  7 28  1  0
 10 29  1  0
 11 30  1  0
 17 31  1  0
 18 32  1  0
 18 33  1  0
 19 34  1  0
 21 35  1  0
 21 36  1  0
A    1
C5
A    2
C6
A    3
C7
A    4
C2
A    5
C3
A    6
C4
A    7
N8
A    8
C9
A    9
C14
A   10
C13
A   11
C12
A   12
C11
A   13
C10
A   14
C15
A   15
N17
A   16
O16
A   17
C19
A   18
C20
A   19
O21
A   20
I1
A   21
C18
A   22
F24
A   23
F23
A   24
F22
M  END
