4ANB_YQY_A_1382
     RDKit          3D

 41 43  0  0  0  0  0  0  0  0999 V2000
   25.9240  -24.9120    3.0570 F   0  0  0  0  0  0  0  0  0  0  0  0
   25.5670  -23.6580    3.1750 C   0  0  0  0  0  0  0  0  0  0  0  0
   24.6010  -23.2550    2.3170 C   0  0  0  0  0  0  0  0  0  0  0  0
   24.1440  -24.2270    1.5340 F   0  0  0  0  0  0  0  0  0  0  0  0
   24.1430  -21.9590    2.2960 C   0  0  0  0  0  0  0  0  0  0  0  0
   24.7190  -21.0650    3.1800 C   0  0  0  0  0  0  0  0  0  0  0  0
   25.7590  -21.4670    4.0170 C   0  0  0  0  0  0  0  0  0  0  0  0
   26.3770  -20.4660    4.9290 C   0  0  0  0  0  0  0  0  0  0  0  0
   26.8510  -20.8090    6.0120 O   0  0  0  0  0  0  0  0  0  0  0  0
   26.4560  -19.1860    4.5930 N   0  0  0  0  0  0  0  0  0  0  0  0
   26.1120  -18.4460    3.3860 C   0  0  0  0  0  0  0  0  0  0  0  0
   26.7530  -17.2700    4.1280 C   0  0  0  0  0  0  0  0  0  0  0  0
   28.0590  -16.8460    3.7450 O   0  0  0  0  0  0  0  0  0  0  0  0
   25.7760  -16.1110    4.1930 C   0  0  0  0  0  0  0  0  0  0  0  0
   26.3380  -15.1750    5.1040 N   0  0  0  0  0  0  0  0  0  0  0  0
   27.0040  -18.0820    5.3670 C   0  0  0  0  0  0  0  0  0  0  0  0
   26.2210  -22.7860    3.9940 C   0  0  0  0  0  0  0  0  0  0  0  0
   27.2400  -23.2140    4.7880 N   0  0  0  0  0  0  0  0  0  0  0  0
   28.3340  -23.9950    4.3740 C   0  0  0  0  0  0  0  0  0  0  0  0
   29.2540  -24.3680    5.3510 C   0  0  0  0  0  0  0  0  0  0  0  0
   29.0240  -23.9200    6.5640 F   0  0  0  0  0  0  0  0  0  0  0  0
   30.3990  -25.1570    5.1460 C   0  0  0  0  0  0  0  0  0  0  0  0
   28.5960  -24.4890    3.0870 C   0  0  0  0  0  0  0  0  0  0  0  0
   29.7490  -25.3080    2.8980 C   0  0  0  0  0  0  0  0  0  0  0  0
   30.6630  -25.6250    3.9020 C   0  0  0  0  0  0  0  0  0  0  0  0
   32.3900  -26.9130    3.6630 I   0  0  0  0  0  0  0  0  0  0  0  0
   23.3488  -21.6451    1.6026 H   0  0  0  0  0  0  0  0  0  0  0  0
   24.3537  -20.0283    3.2231 H   0  0  0  0  0  0  0  0  0  0  0  0
   26.6303  -18.7669    2.4704 H   0  0  0  0  0  0  0  0  0  0  0  0
   25.1007  -18.4177    2.9543 H   0  0  0  0  0  0  0  0  0  0  0  0
   28.5998  -16.6704    4.5554 H   0  0  0  0  0  0  0  0  0  0  0  0
   25.6586  -15.6540    3.1994 H   0  0  0  0  0  0  0  0  0  0  0  0
   24.7792  -16.4423    4.5196 H   0  0  0  0  0  0  0  0  0  0  0  0
   26.1534  -15.4824    6.0696 H   0  0  0  0  0  0  0  0  0  0  0  0
   27.3548  -15.1152    4.9512 H   0  0  0  0  0  0  0  0  0  0  0  0
   26.4142  -17.7883    6.2479 H   0  0  0  0  0  0  0  0  0  0  0  0
   27.9813  -18.1262    5.8699 H   0  0  0  0  0  0  0  0  0  0  0  0
   27.2072  -22.9417    5.7808 H   0  0  0  0  0  0  0  0  0  0  0  0
   31.0717  -25.3914    5.9841 H   0  0  0  0  0  0  0  0  0  0  0  0
   27.9293  -24.2509    2.2451 H   0  0  0  0  0  0  0  0  0  0  0  0
   29.9288  -25.7167    1.8927 H   0  0  0  0  0  0  0  0  0  0  0  0
  1  2  1  0
  2  3  2  0
  2 17  1  0
  3  4  1  0
  3  5  1  0
  5  6  2  0
  6  7  1  0
  7  8  1  0
  7 17  2  0
  8  9  2  0
  8 10  1  0
 10 11  1  0
 10 16  1  0
 11 12  1  0
 12 13  1  0
 12 14  1  0
 12 16  1  0
 14 15  1  0
 17 18  1  0
 18 19  1  0
 19 20  2  0
 19 23  1  0
 20 21  1  0
 20 22  1  0
 22 25  2  0
 23 24  2  0
 24 25  1  0
 25 26  1  0
  5 27  1  0
  6 28  1  0
 11 29  1  0
 11 30  1  0
 13 31  1  0
 14 32  1  0
 14 33  1  0
 15 34  1  0
 15 35  1  0
 16 36  1  0
 16 37  1  0
 18 38  1  0
 22 39  1  0
 23 40  1  0
 24 41  1  0
A    1
F26
A    2
C9
A    3
C10
A    4
F22
A    5
C11
A    6
C12
A    7
C13
A    8
C16
A    9
O18
A   10
N17
A   11
C21
A   12
C20
A   13
O23
A   14
C24
A   15
N25
A   16
C19
A   17
C8
A   18
N7
A   19
C5
A   20
C6
A   21
F15
A   22
C1
A   23
C4
A   24
C3
A   25
C2
A   26
I14
M  END
