4ANM_WUL_A_1334
     RDKit          3D

 36 39  0  0  0  0  0  0  0  0999 V2000
   23.8270    2.1590   18.1400 C   0  0  0  0  0  0  0  0  0  0  0  0
   25.4080    3.6900   17.3710 N   0  0  0  0  0  0  0  0  0  0  0  0
   23.7550    1.0880   17.1040 O   0  0  0  0  0  0  0  0  0  0  0  0
   25.2050    2.0350   18.7930 C   0  0  0  0  0  0  0  0  0  0  0  0
   24.3600    6.9000   18.0990 N   0  0  0  0  0  0  0  0  0  0  0  0
   25.1430    7.8340   14.2830 O   0  0  0  0  0  0  0  0  0  0  0  0
   26.1770    2.5200   17.6740 C   0  0  0  0  0  0  0  0  0  0  0  0
   25.4760    6.4350   16.0690 N   0  0  0  0  0  0  0  0  0  0  0  0
   25.8770    5.0060   17.9320 C   0  0  0  0  0  0  0  0  0  0  0  0
   25.2120    6.1570   17.3720 C   0  0  0  0  0  0  0  0  0  0  0  0
   23.8170    8.0200   17.5800 C   0  0  0  0  0  0  0  0  0  0  0  0
   22.9430    8.9530   18.0930 C   0  0  0  0  0  0  0  0  0  0  0  0
   20.3350   10.4990   20.9780 Br  0  0  0  0  0  0  0  0  0  0  0  0
   22.2490    9.1280   19.3100 C   0  0  0  0  0  0  0  0  0  0  0  0
   21.3610   10.2100   19.3180 C   0  0  0  0  0  0  0  0  0  0  0  0
   21.1560   11.1410   18.3700 C   0  0  0  0  0  0  0  0  0  0  0  0
   21.8680   10.9090   17.1740 C   0  0  0  0  0  0  0  0  0  0  0  0
   23.4500    9.4480   15.9870 O   0  0  0  0  0  0  0  0  0  0  0  0
   22.6920    9.8500   17.0780 C   0  0  0  0  0  0  0  0  0  0  0  0
   24.1020    8.3590   16.2650 C   0  0  0  0  0  0  0  0  0  0  0  0
   24.9570    7.5630   15.5010 C   0  0  0  0  0  0  0  0  0  0  0  0
   23.9520    3.4820   17.4500 C   0  0  0  0  0  0  0  0  0  0  0  0
   22.9611    2.0807   18.8139 H   0  0  0  0  0  0  0  0  0  0  0  0
   23.6956    0.2044   17.5464 H   0  0  0  0  0  0  0  0  0  0  0  0
   25.2781    2.6763   19.6837 H   0  0  0  0  0  0  0  0  0  0  0  0
   25.4255    1.0157   19.1428 H   0  0  0  0  0  0  0  0  0  0  0  0
   27.1860    2.7499   18.0469 H   0  0  0  0  0  0  0  0  0  0  0  0
   26.4127    1.8261   16.8536 H   0  0  0  0  0  0  0  0  0  0  0  0
   26.0644    5.7985   15.5125 H   0  0  0  0  0  0  0  0  0  0  0  0
   25.7016    5.0005   19.0179 H   0  0  0  0  0  0  0  0  0  0  0  0
   26.9421    5.0988   17.6733 H   0  0  0  0  0  0  0  0  0  0  0  0
   22.3940    8.4693   20.1790 H   0  0  0  0  0  0  0  0  0  0  0  0
   20.4924   12.0064   18.5139 H   0  0  0  0  0  0  0  0  0  0  0  0
   21.7494   11.5934   16.3210 H   0  0  0  0  0  0  0  0  0  0  0  0
   23.5046    3.4459   16.4458 H   0  0  0  0  0  0  0  0  0  0  0  0
   23.4306    4.2932   17.9793 H   0  0  0  0  0  0  0  0  0  0  0  0
  3  1  1  0
  1 22  1  0
  1  4  1  0
 22  2  1  0
  4  7  1  0
  7  2  1  0
  2  9  1  0
  9 10  1  0
 10  5  2  0
 10  8  1  0
  5 11  1  0
 11 12  1  0
 11 20  2  0
 12 14  2  0
 12 19  1  0
 14 15  1  0
 15 13  1  0
 15 16  2  0
 16 17  1  0
 17 19  2  0
 19 18  1  0
 18 20  1  0
 20 21  1  0
 21  6  2  0
 21  8  1  0
  1 23  1  0
  3 24  1  0
  4 25  1  0
  4 26  1  0
  7 27  1  0
  7 28  1  0
  8 29  1  0
  9 30  1  0
  9 31  1  0
 14 32  1  0
 16 33  1  0
 17 34  1  0
 22 35  1  0
 22 36  1  0
A    1
C14
A    2
N3
A    3
O3
A    4
C13
A    5
N1
A    6
O1
A    7
C12
A    8
N2
A    9
C5
A   10
C3
A   11
C2
A   12
C7
A   13
BR1
A   14
C11
A   15
C10
A   16
C9
A   17
C8
A   18
O2
A   19
C6
A   20
C1
A   21
C4
A   22
C15
M  END
