4ANX_534_A_2088
     RDKit          3D

 66 70  0  0  0  0  0  0  0  0999 V2000
   48.4340   15.5520   32.9290 C   0  0  0  0  0  0  0  0  0  0  0  0
   48.3990   17.0730   32.9090 C   0  0  0  0  0  0  0  0  0  0  0  0
   49.0240   17.5860   31.6060 C   0  0  0  0  0  0  0  0  0  0  0  0
   46.9310   17.5450   33.0540 C   0  0  0  0  0  0  0  0  0  0  0  0
   46.4980   18.2080   34.2010 C   0  0  0  0  0  0  0  0  0  0  0  0
   45.1750   18.6380   34.3320 C   0  0  0  0  0  0  0  0  0  0  0  0
   45.9890   17.3160   32.0450 C   0  0  0  0  0  0  0  0  0  0  0  0
   44.6560   17.7360   32.1800 C   0  0  0  0  0  0  0  0  0  0  0  0
   44.2470   18.3990   33.3280 C   0  0  0  0  0  0  0  0  0  0  0  0
   42.9560   18.8530   33.4950 C   0  0  0  0  0  0  0  0  0  0  0  0
   42.7740   20.1700   33.3890 N   0  0  0  0  0  0  0  0  0  0  0  0
   41.5910   20.7320   33.5400 C   0  0  0  0  0  0  0  0  0  0  0  0
   40.4860   19.9460   33.7970 C   0  0  0  0  0  0  0  0  0  0  0  0
   40.6580   18.6370   33.9090 N   0  0  0  0  0  0  0  0  0  0  0  0
   41.8660   18.0390   33.7800 C   0  0  0  0  0  0  0  0  0  0  0  0
   41.9550   16.6200   33.8840 N   0  0  0  0  0  0  0  0  0  0  0  0
   43.0790   15.9580   34.6130 C   0  0  0  0  0  0  0  0  0  0  0  0
   42.7980   14.4990   34.9940 C   0  0  0  0  0  0  0  0  0  0  0  0
   40.8780   15.8350   33.1970 C   0  0  0  0  0  0  0  0  0  0  0  0
   40.6800   14.4770   33.8220 C   0  0  0  0  0  0  0  0  0  0  0  0
   42.0080   13.8620   33.9230 N   0  0  0  0  0  0  0  0  0  0  0  0
   41.9230   12.2070   34.0420 S   0  0  0  0  0  0  0  0  0  0  0  0
   42.8230   11.6730   35.1170 O   0  0  0  0  0  0  0  0  0  0  0  0
   40.5000   11.7570   34.2630 O   0  0  0  0  0  0  0  0  0  0  0  0
   42.5290   11.7630   32.4680 C   0  0  0  0  0  0  0  0  0  0  0  0
   43.9060   11.9050   32.1880 C   0  0  0  0  0  0  0  0  0  0  0  0
   41.6340   11.3280   31.4850 C   0  0  0  0  0  0  0  0  0  0  0  0
   42.1400   10.9980   30.2290 C   0  0  0  0  0  0  0  0  0  0  0  0
   43.5170   11.1200   29.9410 C   0  0  0  0  0  0  0  0  0  0  0  0
   44.4080   11.5800   30.9220 C   0  0  0  0  0  0  0  0  0  0  0  0
   45.7700   11.6980   30.6360 C   0  0  0  0  0  0  0  0  0  0  0  0
   46.4470   12.9010   30.8050 C   0  0  0  0  0  0  0  0  0  0  0  0
   47.7380   13.0000   30.5190 N   0  0  0  0  0  0  0  0  0  0  0  0
   48.4150   11.9280   30.0670 C   0  0  0  0  0  0  0  0  0  0  0  0
   49.7110   12.0330   29.7850 N   0  0  0  0  0  0  0  0  0  0  0  0
   47.7880   10.7500   29.8860 N   0  0  0  0  0  0  0  0  0  0  0  0
   46.5010   10.6150   30.1600 C   0  0  0  0  0  0  0  0  0  0  0  0
   48.4421   15.1991   33.9708 H   0  0  0  0  0  0  0  0  0  0  0  0
   47.5447   15.1580   32.4153 H   0  0  0  0  0  0  0  0  0  0  0  0
   49.3405   15.1993   32.4153 H   0  0  0  0  0  0  0  0  0  0  0  0
   48.9830   17.4798   33.7477 H   0  0  0  0  0  0  0  0  0  0  0  0
   49.8546   18.2677   31.8413 H   0  0  0  0  0  0  0  0  0  0  0  0
   49.4027   16.7349   31.0210 H   0  0  0  0  0  0  0  0  0  0  0  0
   48.2630   18.1234   31.0210 H   0  0  0  0  0  0  0  0  0  0  0  0
   47.2105   18.3961   35.0177 H   0  0  0  0  0  0  0  0  0  0  0  0
   44.8651   19.1725   35.2421 H   0  0  0  0  0  0  0  0  0  0  0  0
   46.2993   16.7960   31.1267 H   0  0  0  0  0  0  0  0  0  0  0  0
   43.9343   17.5389   31.3736 H   0  0  0  0  0  0  0  0  0  0  0  0
   41.4850   21.8241   33.4614 H   0  0  0  0  0  0  0  0  0  0  0  0
   39.4877   20.3949   33.9061 H   0  0  0  0  0  0  0  0  0  0  0  0
   43.9711   15.9825   33.9700 H   0  0  0  0  0  0  0  0  0  0  0  0
   43.2208   16.5121   35.5526 H   0  0  0  0  0  0  0  0  0  0  0  0
   43.7495   13.9614   35.1188 H   0  0  0  0  0  0  0  0  0  0  0  0
   42.2353   14.4653   35.9386 H   0  0  0  0  0  0  0  0  0  0  0  0
   39.9341   16.3962   33.2613 H   0  0  0  0  0  0  0  0  0  0  0  0
   41.1827   15.6854   32.1507 H   0  0  0  0  0  0  0  0  0  0  0  0
   40.2334   14.5813   34.8219 H   0  0  0  0  0  0  0  0  0  0  0  0
   40.0021   13.8576   33.2164 H   0  0  0  0  0  0  0  0  0  0  0  0
   44.5878   12.2730   32.9688 H   0  0  0  0  0  0  0  0  0  0  0  0
   40.5577   11.2484   31.6979 H   0  0  0  0  0  0  0  0  0  0  0  0
   41.4547   10.6362   29.4484 H   0  0  0  0  0  0  0  0  0  0  0  0
   43.8929   10.8530   28.9423 H   0  0  0  0  0  0  0  0  0  0  0  0
   45.9048   13.7813   31.1806 H   0  0  0  0  0  0  0  0  0  0  0  0
   50.4011   12.0889   30.5476 H   0  0  0  0  0  0  0  0  0  0  0  0
   50.0242   12.0584   28.8041 H   0  0  0  0  0  0  0  0  0  0  0  0
   46.0075    9.6433   30.0109 H   0  0  0  0  0  0  0  0  0  0  0  0
  1  2  1  0
  2  3  1  0
  2  4  1  0
  4  5  2  0
  4  7  1  0
  5  6  1  0
  6  9  2  0
  7  8  2  0
  8  9  1  0
  9 10  1  0
 10 11  2  0
 10 15  1  0
 11 12  1  0
 12 13  2  0
 13 14  1  0
 14 15  2  0
 15 16  1  0
 16 17  1  0
 16 19  1  0
 17 18  1  0
 18 21  1  0
 19 20  1  0
 20 21  1  0
 21 22  1  0
 22 23  2  0
 22 24  2  0
 22 25  1  0
 25 26  2  0
 25 27  1  0
 26 30  1  0
 27 28  2  0
 28 29  1  0
 29 30  2  0
 30 31  1  0
 31 32  2  0
 31 37  1  0
 32 33  1  0
 33 34  2  0
 34 35  1  0
 34 36  1  0
 36 37  2  0
  1 38  1  0
  1 39  1  0
  1 40  1  0
  2 41  1  0
  3 42  1  0
  3 43  1  0
  3 44  1  0
  5 45  1  0
  6 46  1  0
  7 47  1  0
  8 48  1  0
 12 49  1  0
 13 50  1  0
 17 51  1  0
 17 52  1  0
 18 53  1  0
 18 54  1  0
 19 55  1  0
 19 56  1  0
 20 57  1  0
 20 58  1  0
 26 59  1  0
 27 60  1  0
 28 61  1  0
 29 62  1  0
 32 63  1  0
 35 64  1  0
 35 65  1  0
 37 66  1  0
A    1
C26
A    2
C25
A    3
C27
A    4
C12
A    5
C13
A    6
C14
A    7
C11
A    8
C10
A    9
C5
A   10
C3
A   11
N1
A   12
C2
A   13
C1
A   14
N2
A   15
C4
A   16
N3
A   17
C9
A   18
C8
A   19
C6
A   20
C7
A   21
N4
A   22
S1
A   23
O1
A   24
O2
A   25
C15
A   26
C20
A   27
C16
A   28
C17
A   29
C18
A   30
C19
A   31
C21
A   32
C22
A   33
N5
A   34
C23
A   35
N7
A   36
N6
A   37
C24
M  END
