4AOI_4K0_A_2345
     RDKit          3D

 39 43  0  0  0  0  0  0  0  0999 V2000
   19.4290   80.5960   -1.7810 N   0  0  0  0  0  0  0  0  0  0  0  0
   19.2430   80.8020   -0.6550 C   0  0  0  0  0  0  0  0  0  0  0  0
   19.0320   81.0490    0.7060 C   0  0  0  0  0  0  0  0  0  0  0  0
   19.5030   82.2600    1.2980 C   0  0  0  0  0  0  0  0  0  0  0  0
   18.3460   80.0940    1.5260 C   0  0  0  0  0  0  0  0  0  0  0  0
   18.1380   80.3480    2.9210 C   0  0  0  0  0  0  0  0  0  0  0  0
   18.6110   81.5680    3.5270 C   0  0  0  0  0  0  0  0  0  0  0  0
   19.2960   82.5180    2.6890 C   0  0  0  0  0  0  0  0  0  0  0  0
   18.4240   81.8770    4.9850 C   0  0  0  0  0  0  0  0  0  0  0  0
   18.8480   83.0920    5.4400 N   0  0  0  0  0  0  0  0  0  0  0  0
   18.6770   83.3270    6.7090 N   0  0  0  0  0  0  0  0  0  0  0  0
   18.1060   82.4450    7.6060 C   0  0  0  0  0  0  0  0  0  0  0  0
   17.6560   81.2180    7.2460 N   0  0  0  0  0  0  0  0  0  0  0  0
   17.8240   80.9390    5.9090 C   0  0  0  0  0  0  0  0  0  0  0  0
   18.9860   84.4260    7.4700 C   0  0  0  0  0  0  0  0  0  0  0  0
   18.6230   84.1870    8.6910 N   0  0  0  0  0  0  0  0  0  0  0  0
   18.0940   82.9970    8.7720 N   0  0  0  0  0  0  0  0  0  0  0  0
   19.6400   85.7180    6.9930 C   0  0  0  0  0  0  0  0  0  0  0  0
   21.1620   85.6280    7.0510 C   0  0  0  0  0  0  0  0  0  0  0  0
   21.9560   85.7590    8.1850 C   0  0  0  0  0  0  0  0  0  0  0  0
   22.0640   85.3980    5.9640 C   0  0  0  0  0  0  0  0  0  0  0  0
   21.8560   85.1870    4.5650 C   0  0  0  0  0  0  0  0  0  0  0  0
   23.0260   84.9840    3.7510 C   0  0  0  0  0  0  0  0  0  0  0  0
   23.3590   85.3970    6.4730 C   0  0  0  0  0  0  0  0  0  0  0  0
   23.2880   85.6170    7.8230 N   0  0  0  0  0  0  0  0  0  0  0  0
   24.4910   85.2100    5.7330 N   0  0  0  0  0  0  0  0  0  0  0  0
   24.3150   85.0050    4.3800 C   0  0  0  0  0  0  0  0  0  0  0  0
   20.0297   83.0009    0.6785 H   0  0  0  0  0  0  0  0  0  0  0  0
   17.9762   79.1585    1.0808 H   0  0  0  0  0  0  0  0  0  0  0  0
   17.6115   79.6038    3.5365 H   0  0  0  0  0  0  0  0  0  0  0  0
   19.6659   83.4572    3.1261 H   0  0  0  0  0  0  0  0  0  0  0  0
   17.4886   79.9634    5.5273 H   0  0  0  0  0  0  0  0  0  0  0  0
   19.3326   85.9123    5.9548 H   0  0  0  0  0  0  0  0  0  0  0  0
   19.3167   86.5341    7.6560 H   0  0  0  0  0  0  0  0  0  0  0  0
   21.5876   85.9452    9.2046 H   0  0  0  0  0  0  0  0  0  0  0  0
   20.8458   85.1801    4.1297 H   0  0  0  0  0  0  0  0  0  0  0  0
   22.9333   84.8161    2.6679 H   0  0  0  0  0  0  0  0  0  0  0  0
   24.0920   85.6686    8.4647 H   0  0  0  0  0  0  0  0  0  0  0  0
   25.2059   84.8502    3.7536 H   0  0  0  0  0  0  0  0  0  0  0  0
  1  2  3  0
  2  3  1  0
  3  4  2  0
  3  5  1  0
  4  8  1  0
  5  6  2  0
  6  7  1  0
  7  8  2  0
  7  9  1  0
  9 10  2  0
  9 14  1  0
 10 11  1  0
 11 12  1  0
 11 15  1  0
 12 13  1  0
 12 17  2  0
 13 14  2  0
 15 16  2  0
 15 18  1  0
 16 17  1  0
 18 19  1  0
 19 20  2  0
 19 21  1  0
 20 25  1  0
 21 22  2  0
 21 24  1  0
 22 23  1  0
 23 27  2  0
 24 25  1  0
 24 26  2  0
 26 27  1  0
  4 28  1  0
  5 29  1  0
  6 30  1  0
  8 31  1  0
 14 32  1  0
 18 33  1  0
 18 34  1  0
 20 35  1  0
 22 36  1  0
 23 37  1  0
 25 38  1  0
 27 39  1  0
A    1
N23
A    2
C22
A    3
C19
A    4
C20
A    5
C18
A    6
C17
A    7
C16
A    8
C21
A    9
C12
A   10
N15
A   11
N7
A   12
C8
A   13
N14
A   14
C13
A   15
C11
A   16
N10
A   17
N9
A   18
C24
A   19
C25
A   20
C26
A   21
C1
A   22
C6
A   23
C5
A   24
C2
A   25
N27
A   26
N3
A   27
C4
M  END
