4AOJ_V4Z_A_900
     RDKit          3D

 46 48  0  0  0  0  0  0  0  0999 V2000
   90.0090   56.3740   24.0620 C   0  0  0  0  0  0  0  0  0  0  0  0
   91.2140   57.2000   24.4800 C   0  0  0  0  0  0  0  0  0  0  0  0
   91.1100   58.6700   24.1300 C   0  0  0  0  0  0  0  0  0  0  0  0
   91.3570   57.0540   25.8900 O   0  0  0  0  0  0  0  0  0  0  0  0
   92.6230   57.1160   26.3790 C   0  0  0  0  0  0  0  0  0  0  0  0
   93.9050   57.0780   25.8720 C   0  0  0  0  0  0  0  0  0  0  0  0
   94.7500   57.2210   27.0150 C   0  0  0  0  0  0  0  0  0  0  0  0
   96.1180   57.2550   27.0060 N   0  0  0  0  0  0  0  0  0  0  0  0
   97.0060   57.1570   25.9500 C   0  0  0  0  0  0  0  0  0  0  0  0
   96.5650   57.0540   24.6870 N   0  0  0  0  0  0  0  0  0  0  0  0
   97.5120   56.9440   23.7410 C   0  0  0  0  0  0  0  0  0  0  0  0
   97.2070   56.8210   22.3960 N   0  0  0  0  0  0  0  0  0  0  0  0
   95.7920   56.9060   22.1080 C   0  0  0  0  0  0  0  0  0  0  0  0
   95.6730   57.4070   20.6740 C   0  0  0  0  0  0  0  0  0  0  0  0
   95.0990   55.5870   22.1600 C   0  0  0  0  0  0  0  0  0  0  0  0
   93.7450   55.5950   22.3540 C   0  0  0  0  0  0  0  0  0  0  0  0
   93.0720   54.4100   22.3990 C   0  0  0  0  0  0  0  0  0  0  0  0
   93.7590   53.2410   22.2540 C   0  0  0  0  0  0  0  0  0  0  0  0
   93.0800   52.0490   22.2780 F   0  0  0  0  0  0  0  0  0  0  0  0
   95.1110   53.3100   22.0640 C   0  0  0  0  0  0  0  0  0  0  0  0
   95.7920   54.4620   22.0180 N   0  0  0  0  0  0  0  0  0  0  0  0
   98.8310   56.9470   23.9590 N   0  0  0  0  0  0  0  0  0  0  0  0
   99.2350   57.0520   25.2190 C   0  0  0  0  0  0  0  0  0  0  0  0
   98.3550   57.1550   26.2610 C   0  0  0  0  0  0  0  0  0  0  0  0
   99.0460   57.2590   27.8660 Cl  0  0  0  0  0  0  0  0  0  0  0  0
   94.0440   57.3370   28.1500 N   0  0  0  0  0  0  0  0  0  0  0  0
   92.7840   57.2540   27.7290 N   0  0  0  0  0  0  0  0  0  0  0  0
   89.4829   56.0134   24.9582 H   0  0  0  0  0  0  0  0  0  0  0  0
   89.3281   56.9961   23.4626 H   0  0  0  0  0  0  0  0  0  0  0  0
   90.3437   55.5145   23.4626 H   0  0  0  0  0  0  0  0  0  0  0  0
   92.0877   56.8276   23.9251 H   0  0  0  0  0  0  0  0  0  0  0  0
   91.0679   59.2649   25.0543 H   0  0  0  0  0  0  0  0  0  0  0  0
   91.9892   58.9697   23.5408 H   0  0  0  0  0  0  0  0  0  0  0  0
   90.1974   58.8429   23.5408 H   0  0  0  0  0  0  0  0  0  0  0  0
   94.2092   56.9631   24.8212 H   0  0  0  0  0  0  0  0  0  0  0  0
   96.5553   57.3720   27.9312 H   0  0  0  0  0  0  0  0  0  0  0  0
   97.9218   56.6818   21.6676 H   0  0  0  0  0  0  0  0  0  0  0  0
   95.3285   57.5604   22.8609 H   0  0  0  0  0  0  0  0  0  0  0  0
   95.4188   58.4772   20.6794 H   0  0  0  0  0  0  0  0  0  0  0  0
   96.6310   57.2603   20.1537 H   0  0  0  0  0  0  0  0  0  0  0  0
   94.8833   56.8452   20.1537 H   0  0  0  0  0  0  0  0  0  0  0  0
   93.2054   56.5462   22.4723 H   0  0  0  0  0  0  0  0  0  0  0  0
   91.9827   54.3971   22.5512 H   0  0  0  0  0  0  0  0  0  0  0  0
   95.6688   52.3697   21.9425 H   0  0  0  0  0  0  0  0  0  0  0  0
  100.3141   57.0563   25.4324 H   0  0  0  0  0  0  0  0  0  0  0  0
   94.3918   57.4601   29.1116 H   0  0  0  0  0  0  0  0  0  0  0  0
  1  2  1  0
  2  3  1  0
  2  4  1  0
  4  5  1  0
  5  6  1  0
  5 27  2  0
  6  7  2  0
  7  8  1  0
  7 26  1  0
  8  9  1  0
  9 10  2  0
  9 24  1  0
 10 11  1  0
 11 12  1  0
 11 22  2  0
 12 13  1  0
 13 14  1  0
 13 15  1  0
 15 16  2  0
 15 21  1  0
 16 17  1  0
 17 18  2  0
 18 19  1  0
 18 20  1  0
 20 21  2  0
 22 23  1  0
 23 24  2  0
 24 25  1  0
 26 27  1  0
  1 28  1  0
  1 29  1  0
  1 30  1  0
  2 31  1  0
  3 32  1  0
  3 33  1  0
  3 34  1  0
  6 35  1  0
  8 36  1  0
 12 37  1  0
 13 38  1  0
 14 39  1  0
 14 40  1  0
 14 41  1  0
 16 42  1  0
 17 43  1  0
 20 44  1  0
 23 45  1  0
 26 46  1  0
A    1
C1
A    2
C2
A    3
C3
A    4
O1
A    5
C4
A    6
C5
A    7
C6
A    8
N1
A    9
C7
A   10
N2
A   11
C8
A   12
N3
A   13
C9
A   14
C10
A   15
C11
A   16
C12
A   17
C13
A   18
C14
A   19
F1
A   20
C15
A   21
N4
A   22
N5
A   23
C16
A   24
C17
A   25
CL1
A   26
N6
A   27
N7
M  END
