4AOT_GW8_A_1319
     RDKit          3D

 81 85  0  0  0  0  0  0  0  0999 V2000
   -5.5650  -14.2660   -7.2960 N   0  0  0  0  0  0  0  0  0  0  0  0
   -5.7290  -14.0360   -8.6020 C   0  0  0  0  0  0  0  0  0  0  0  0
   -4.6720  -13.9710   -9.3790 N   0  0  0  0  0  0  0  0  0  0  0  0
   -3.4310  -14.0410   -8.8890 C   0  0  0  0  0  0  0  0  0  0  0  0
   -3.2320  -14.2560   -7.5500 C   0  0  0  0  0  0  0  0  0  0  0  0
   -4.3240  -14.3670   -6.7420 C   0  0  0  0  0  0  0  0  0  0  0  0
    9.8810   -8.9180  -14.3160 C   0  0  0  0  0  0  0  0  0  0  0  0
   -2.7320  -13.6470  -11.1710 C   0  0  0  0  0  0  0  0  0  0  0  0
  -11.5050  -11.3430  -13.3370 C   0  0  0  0  0  0  0  0  0  0  0  0
    3.8250  -14.8720  -10.0910 O   0  0  0  0  0  0  0  0  0  0  0  0
    7.0600  -14.3680  -13.5810 O   0  0  0  0  0  0  0  0  0  0  0  0
   -9.0550  -10.3150  -13.8870 O   0  0  0  0  0  0  0  0  0  0  0  0
  -10.2360  -11.4940  -15.7130 O   0  0  0  0  0  0  0  0  0  0  0  0
    8.6590  -14.7170   -9.3300 C   0  0  0  0  0  0  0  0  0  0  0  0
    7.4790  -14.4940   -8.5970 C   0  0  0  0  0  0  0  0  0  0  0  0
    8.7000  -14.4640  -10.6910 C   0  0  0  0  0  0  0  0  0  0  0  0
   -7.4000  -12.9310  -12.4860 C   0  0  0  0  0  0  0  0  0  0  0  0
   -9.4160  -13.8920  -11.6630 C   0  0  0  0  0  0  0  0  0  0  0  0
   -6.7660  -13.1190  -11.2820 C   0  0  0  0  0  0  0  0  0  0  0  0
   -8.7750  -14.0680  -10.4520 C   0  0  0  0  0  0  0  0  0  0  0  0
    0.7770  -12.8390   -8.4490 C   0  0  0  0  0  0  0  0  0  0  0  0
    1.0170  -15.0790   -9.2440 C   0  0  0  0  0  0  0  0  0  0  0  0
   -0.5500  -12.8400   -8.7870 C   0  0  0  0  0  0  0  0  0  0  0  0
   -0.3210  -15.0610   -9.6120 C   0  0  0  0  0  0  0  0  0  0  0  0
    6.4130  -13.7780  -10.6440 C   0  0  0  0  0  0  0  0  0  0  0  0
    8.8180  -11.0450  -14.9060 C   0  0  0  0  0  0  0  0  0  0  0  0
    9.7060  -10.5340  -12.6310 C   0  0  0  0  0  0  0  0  0  0  0  0
    8.8840  -12.5190  -14.6430 C   0  0  0  0  0  0  0  0  0  0  0  0
    9.3890  -11.9720  -12.2050 C   0  0  0  0  0  0  0  0  0  0  0  0
   -9.3210  -13.1680  -13.9590 C   0  0  0  0  0  0  0  0  0  0  0  0
    2.8760  -13.7870   -8.2850 N   0  0  0  0  0  0  0  0  0  0  0  0
    5.1640  -13.8380   -8.5410 N   0  0  0  0  0  0  0  0  0  0  0  0
   -6.9970  -13.8930   -8.9900 N   0  0  0  0  0  0  0  0  0  0  0  0
    3.9480  -14.1910   -9.0560 C   0  0  0  0  0  0  0  0  0  0  0  0
    7.7270  -13.7100  -12.7580 C   0  0  0  0  0  0  0  0  0  0  0  0
   -8.7230  -13.3130  -12.6960 C   0  0  0  0  0  0  0  0  0  0  0  0
    1.5920  -13.9410   -8.6640 C   0  0  0  0  0  0  0  0  0  0  0  0
   -7.4480  -13.7150  -10.2330 C   0  0  0  0  0  0  0  0  0  0  0  0
    6.3220  -14.0710   -9.2530 C   0  0  0  0  0  0  0  0  0  0  0  0
    7.5840  -13.9670  -11.3730 C   0  0  0  0  0  0  0  0  0  0  0  0
   -1.1080  -13.9660   -9.3600 C   0  0  0  0  0  0  0  0  0  0  0  0
    9.8840  -10.4070  -14.0800 N   0  0  0  0  0  0  0  0  0  0  0  0
   -2.4060  -13.9530   -9.7420 N   0  0  0  0  0  0  0  0  0  0  0  0
    8.6260  -12.7760  -13.1640 N   0  0  0  0  0  0  0  0  0  0  0  0
   -9.9850  -11.5130  -14.2110 S   0  0  0  0  0  0  0  0  0  0  0  0
   -2.2155  -14.3370   -7.1375 H   0  0  0  0  0  0  0  0  0  0  0  0
   -4.2057  -14.5352   -5.6614 H   0  0  0  0  0  0  0  0  0  0  0  0
    9.8799   -8.3935  -13.3491 H   0  0  0  0  0  0  0  0  0  0  0  0
   10.7786   -8.6352  -14.8856 H   0  0  0  0  0  0  0  0  0  0  0  0
    8.9823   -8.6388  -14.8856 H   0  0  0  0  0  0  0  0  0  0  0  0
   -3.5335  -12.8947  -11.2112 H   0  0  0  0  0  0  0  0  0  0  0  0
   -1.8363  -13.2559  -11.6758 H   0  0  0  0  0  0  0  0  0  0  0  0
   -3.0657  -14.5656  -11.6758 H   0  0  0  0  0  0  0  0  0  0  0  0
  -11.3100  -11.3648  -12.2546 H   0  0  0  0  0  0  0  0  0  0  0  0
  -11.9772  -10.3864  -13.6053 H   0  0  0  0  0  0  0  0  0  0  0  0
  -12.1769  -12.1716  -13.6053 H   0  0  0  0  0  0  0  0  0  0  0  0
    9.5561  -15.0953   -8.8181 H   0  0  0  0  0  0  0  0  0  0  0  0
    7.4683  -14.6528   -7.5086 H   0  0  0  0  0  0  0  0  0  0  0  0
    9.6290  -14.6578  -11.2472 H   0  0  0  0  0  0  0  0  0  0  0  0
   -6.8443  -12.4631  -13.3120 H   0  0  0  0  0  0  0  0  0  0  0  0
  -10.4607  -14.2096  -11.7964 H   0  0  0  0  0  0  0  0  0  0  0  0
   -5.7220  -12.7981  -11.1511 H   0  0  0  0  0  0  0  0  0  0  0  0
   -9.3426  -14.5094   -9.6195 H   0  0  0  0  0  0  0  0  0  0  0  0
    1.2102  -11.9366   -7.9929 H   0  0  0  0  0  0  0  0  0  0  0  0
    1.6230  -15.9825   -9.4070 H   0  0  0  0  0  0  0  0  0  0  0  0
   -1.1682  -11.9489   -8.6032 H   0  0  0  0  0  0  0  0  0  0  0  0
   -0.7569  -15.9378  -10.1132 H   0  0  0  0  0  0  0  0  0  0  0  0
    5.5245  -13.3876  -11.1618 H   0  0  0  0  0  0  0  0  0  0  0  0
    8.9950  -10.8432  -15.9728 H   0  0  0  0  0  0  0  0  0  0  0  0
    7.8272  -10.6437  -14.6467 H   0  0  0  0  0  0  0  0  0  0  0  0
    8.8770   -9.8821  -12.3184 H   0  0  0  0  0  0  0  0  0  0  0  0
   10.6514  -10.2424  -12.1501 H   0  0  0  0  0  0  0  0  0  0  0  0
    8.1209  -13.0346  -15.2446 H   0  0  0  0  0  0  0  0  0  0  0  0
    9.8796  -12.8988  -14.9159 H   0  0  0  0  0  0  0  0  0  0  0  0
   10.3439  -12.4859  -12.0204 H   0  0  0  0  0  0  0  0  0  0  0  0
    8.7454  -11.8818  -11.3175 H   0  0  0  0  0  0  0  0  0  0  0  0
   -8.5661  -13.3686  -14.7335 H   0  0  0  0  0  0  0  0  0  0  0  0
  -10.1569  -13.8804  -14.0208 H   0  0  0  0  0  0  0  0  0  0  0  0
    3.0675  -13.3457   -7.3742 H   0  0  0  0  0  0  0  0  0  0  0  0
    5.2159  -13.3941   -7.6130 H   0  0  0  0  0  0  0  0  0  0  0  0
   -7.7085  -13.9234   -8.2459 H   0  0  0  0  0  0  0  0  0  0  0  0
  6  1  2  0
  1  2  1  0
  2 33  1  0
  2  3  2  0
  4  3  1  0
  5  4  2  0
  4 43  1  0
  6  5  1  0
 42  7  1  0
 43  8  1  0
  9 45  1  0
 34 10  2  0
 35 11  2  0
 45 12  2  0
 45 13  2  0
 15 14  2  0
 14 16  1  0
 15 39  1  0
 16 40  2  0
 19 17  2  0
 17 36  1  0
 20 18  1  0
 36 18  2  0
 19 38  1  0
 38 20  2  0
 23 21  2  0
 21 37  1  0
 24 22  1  0
 37 22  2  0
 23 41  1  0
 41 24  2  0
 39 25  2  0
 25 40  1  0
 28 26  1  0
 26 42  1  0
 29 27  1  0
 27 42  1  0
 44 28  1  0
 44 29  1  0
 36 30  1  0
 30 45  1  0
 37 31  1  0
 31 34  1  0
 34 32  1  0
 32 39  1  0
 33 38  1  0
 40 35  1  0
 35 44  1  0
 43 41  1  0
  5 46  1  0
  6 47  1  0
  7 48  1  0
  7 49  1  0
  7 50  1  0
  8 51  1  0
  8 52  1  0
  8 53  1  0
  9 54  1  0
  9 55  1  0
  9 56  1  0
 14 57  1  0
 15 58  1  0
 16 59  1  0
 17 60  1  0
 18 61  1  0
 19 62  1  0
 20 63  1  0
 21 64  1  0
 22 65  1  0
 23 66  1  0
 24 67  1  0
 25 68  1  0
 26 69  1  0
 26 70  1  0
 27 71  1  0
 27 72  1  0
 28 73  1  0
 28 74  1  0
 29 75  1  0
 29 76  1  0
 30 77  1  0
 30 78  1  0
 31 79  1  0
 32 80  1  0
 33 81  1  0
A    1
N1
A    2
C2
A    3
N3
A    4
C4
A    5
C5
A    6
C6
A    7
CAA
A    8
CAB
A    9
CAC
A   10
OAD
A   11
OAE
A   12
OAF
A   13
OAG
A   14
CAH
A   15
CAJ
A   16
CAK
A   17
CAM
A   18
CAN
A   19
CAO
A   20
CAP
A   21
CAQ
A   22
CAR
A   23
CAS
A   24
CAT
A   25
CAU
A   26
CAV
A   27
CAW
A   28
CAX
A   29
CAY
A   30
CAZ
A   31
NBC
A   32
NBD
A   33
NBE
A   34
CBF
A   35
CBG
A   36
CBH
A   37
CBI
A   38
CBJ
A   39
CBK
A   40
CBL
A   41
CBM
A   42
NBP
A   43
NBQ
A   44
NBR
A   45
SBS
M  END
