4APU_A2K_B_1933
     RDKit          3D

 75 81  0  0  0  0  0  0  0  0999 V2000
    9.5080    8.2060   37.6920 O   0  0  0  0  0  0  0  0  0  0  0  0
    8.9740    7.5450   38.5860 C   0  0  0  0  0  0  0  0  0  0  0  0
    9.8020    6.7810   39.5170 C   0  0  0  0  0  0  0  0  0  0  0  0
    9.2730    6.0510   40.5010 C   0  0  0  0  0  0  0  0  0  0  0  0
   10.2780    5.3180   41.3370 C   0  0  0  0  0  0  0  0  0  0  0  0
    7.9420    5.9180   40.7120 C   0  0  0  0  0  0  0  0  0  0  0  0
    7.0110    6.3230   39.5770 C   0  0  0  0  0  0  0  0  0  0  0  0
    7.4760    7.5220   38.7650 C   0  0  0  0  0  0  0  0  0  0  0  0
    7.4540    5.3760   41.8610 C   0  0  0  0  0  0  0  0  0  0  0  0
    5.9700    5.1340   42.1470 C   0  0  0  0  0  0  0  0  0  0  0  0
    5.6440    5.6390   43.5730 C   0  0  0  0  0  0  0  0  0  0  0  0
    6.5650    5.0780   44.6680 C   0  0  0  0  0  0  0  0  0  0  0  0
    6.5080    3.5560   44.8510 C   0  0  0  0  0  0  0  0  0  0  0  0
    7.9610    5.5090   44.2990 C   0  0  0  0  0  0  0  0  0  0  0  0
    8.7890    5.1720   45.5310 C   0  0  0  0  0  0  0  0  0  0  0  0
    8.4260    4.9580   42.9600 C   0  0  0  0  0  0  0  0  0  0  0  0
    9.8510    5.4760   42.7590 C   0  0  0  0  0  0  0  0  0  0  0  0
    6.4430    5.7170   46.0400 C   0  0  0  0  0  0  0  0  0  0  0  0
    5.3430    5.0900   46.8470 C   0  0  0  0  0  0  0  0  0  0  0  0
    5.5520    4.2430   47.6870 O   0  0  0  0  0  0  0  0  0  0  0  0
    3.9470    5.5080   46.5610 C   0  0  0  0  0  0  0  0  0  0  0  0
    2.9220    4.3900   46.7160 C   0  0  0  0  0  0  0  0  0  0  0  0
    2.9880    5.5190   47.7400 C   0  0  0  0  0  0  0  0  0  0  0  0
    7.8290    5.5350   46.6600 C   0  0  0  0  0  0  0  0  0  0  0  0
    8.2710    6.8190   47.3300 C   0  0  0  0  0  0  0  0  0  0  0  0
    8.8790    6.7580   48.4950 C   0  0  0  0  0  0  0  0  0  0  0  0
    5.6090    3.6810   42.0120 C   0  0  0  0  0  0  0  0  0  0  0  0
    4.4880    3.1300   42.6530 C   0  0  0  0  0  0  0  0  0  0  0  0
    4.1860    1.7680   42.5280 C   0  0  0  0  0  0  0  0  0  0  0  0
    4.9650    0.9100   41.7390 C   0  0  0  0  0  0  0  0  0  0  0  0
    6.0680    1.4570   41.0840 C   0  0  0  0  0  0  0  0  0  0  0  0
    6.3850    2.8120   41.2250 C   0  0  0  0  0  0  0  0  0  0  0  0
    4.6720   -0.5400   41.6450 C   0  0  0  0  0  0  0  0  0  0  0  0
    5.7090   -1.4380   41.4280 C   0  0  0  0  0  0  0  0  0  0  0  0
    5.5140   -2.7500   41.3420 N   0  0  0  0  0  0  0  0  0  0  0  0
    4.3120   -3.2890   41.4870 C   0  0  0  0  0  0  0  0  0  0  0  0
    3.2230   -2.4620   41.7100 C   0  0  0  0  0  0  0  0  0  0  0  0
    3.4020   -1.0750   41.8050 C   0  0  0  0  0  0  0  0  0  0  0  0
   10.8957    6.8086   39.4030 H   0  0  0  0  0  0  0  0  0  0  0  0
   10.2948    4.2530   41.0624 H   0  0  0  0  0  0  0  0  0  0  0  0
   11.2902    5.7195   41.1811 H   0  0  0  0  0  0  0  0  0  0  0  0
    6.9110    5.4661   38.8946 H   0  0  0  0  0  0  0  0  0  0  0  0
    6.0613    6.6180   40.0471 H   0  0  0  0  0  0  0  0  0  0  0  0
    7.1674    8.4418   39.2835 H   0  0  0  0  0  0  0  0  0  0  0  0
    7.0185    7.4511   37.7672 H   0  0  0  0  0  0  0  0  0  0  0  0
    5.3742    5.6877   41.4064 H   0  0  0  0  0  0  0  0  0  0  0  0
    5.7305    6.7356   43.5784 H   0  0  0  0  0  0  0  0  0  0  0  0
    4.6275    5.2895   43.8065 H   0  0  0  0  0  0  0  0  0  0  0  0
    6.4990    3.3158   45.9244 H   0  0  0  0  0  0  0  0  0  0  0  0
    5.5945    3.1640   44.3799 H   0  0  0  0  0  0  0  0  0  0  0  0
    7.3896    3.0968   44.3799 H   0  0  0  0  0  0  0  0  0  0  0  0
    8.0557    6.5837   44.0843 H   0  0  0  0  0  0  0  0  0  0  0  0
    9.0525    4.1043   45.5569 H   0  0  0  0  0  0  0  0  0  0  0  0
    9.7529    5.6999   45.5784 H   0  0  0  0  0  0  0  0  0  0  0  0
    8.4387    3.8585   42.9277 H   0  0  0  0  0  0  0  0  0  0  0  0
   10.5356    4.9081   43.4061 H   0  0  0  0  0  0  0  0  0  0  0  0
    9.8770    6.5448   43.0178 H   0  0  0  0  0  0  0  0  0  0  0  0
    6.1611    6.7794   45.9963 H   0  0  0  0  0  0  0  0  0  0  0  0
    4.2109    6.2401   45.7835 H   0  0  0  0  0  0  0  0  0  0  0  0
    2.0701    4.3241   46.0232 H   0  0  0  0  0  0  0  0  0  0  0  0
    2.9678    3.2919   46.7628 H   0  0  0  0  0  0  0  0  0  0  0  0
    3.3622    5.3195   48.7550 H   0  0  0  0  0  0  0  0  0  0  0  0
    2.2659    6.2416   48.1479 H   0  0  0  0  0  0  0  0  0  0  0  0
    7.8130    4.7432   47.4234 H   0  0  0  0  0  0  0  0  0  0  0  0
    8.0860    7.7906   46.8486 H   0  0  0  0  0  0  0  0  0  0  0  0
    9.2059    7.6823   48.9939 H   0  0  0  0  0  0  0  0  0  0  0  0
    9.0605    5.7827   48.9703 H   0  0  0  0  0  0  0  0  0  0  0  0
    3.8384    3.7764   43.2614 H   0  0  0  0  0  0  0  0  0  0  0  0
    3.3151    1.3610   43.0627 H   0  0  0  0  0  0  0  0  0  0  0  0
    6.6962    0.8152   40.4489 H   0  0  0  0  0  0  0  0  0  0  0  0
    7.2684    3.2099   40.7042 H   0  0  0  0  0  0  0  0  0  0  0  0
    6.7322   -1.0480   41.3232 H   0  0  0  0  0  0  0  0  0  0  0  0
    4.1805   -4.3797   41.4310 H   0  0  0  0  0  0  0  0  0  0  0  0
    2.2168   -2.8944   41.8126 H   0  0  0  0  0  0  0  0  0  0  0  0
    2.5435   -0.4169   42.0046 H   0  0  0  0  0  0  0  0  0  0  0  0
  1  2  2  0
  2  3  1  0
  2  8  1  0
  3  4  2  0
  4  5  1  0
  4  6  1  0
  5 17  1  0
  6  7  1  0
  6  9  2  0
  7  8  1  0
  9 10  1  0
  9 16  1  0
 10 11  1  0
 10 27  1  0
 11 12  1  0
 12 13  1  0
 12 14  1  0
 12 18  1  0
 14 15  1  0
 14 16  1  0
 15 24  1  0
 16 17  1  0
 18 19  1  0
 18 24  1  0
 19 20  2  0
 19 21  1  0
 21 22  1  0
 21 23  1  0
 22 23  1  0
 24 25  1  0
 25 26  2  3
 27 28  2  0
 27 32  1  0
 28 29  1  0
 29 30  2  0
 30 31  1  0
 30 33  1  0
 31 32  2  0
 33 34  2  0
 33 38  1  0
 34 35  1  0
 35 36  2  0
 36 37  1  0
 37 38  2  0
  3 39  1  0
  5 40  1  0
  5 41  1  0
  7 42  1  0
  7 43  1  0
  8 44  1  0
  8 45  1  0
 10 46  1  0
 11 47  1  0
 11 48  1  0
 13 49  1  0
 13 50  1  0
 13 51  1  0
 14 52  1  0
 15 53  1  0
 15 54  1  0
 16 55  1  0
 17 56  1  0
 17 57  1  0
 18 58  1  0
 21 59  1  0
 22 60  1  0
 22 61  1  0
 23 62  1  0
 23 63  1  0
 24 64  1  0
 25 65  1  0
 26 66  1  0
 26 67  1  0
 28 68  1  0
 29 69  1  0
 31 70  1  0
 32 71  1  0
 34 72  1  0
 36 73  1  0
 37 74  1  0
 38 75  1  0
A    1
O33
A    2
C1
A    3
C4
A    4
C20
A    5
C6
A    6
C19
A    7
C5
A    8
C3
A    9
C8
A   10
C11
A   11
C10
A   12
C12
A   13
C16
A   14
C13
A   15
C14
A   16
C9
A   17
C7
A   18
C15
A   19
C22
A   20
O24
A   21
C23
A   22
C31
A   23
C30
A   24
C2
A   25
C39
A   26
C40
A   27
C21
A   28
C29
A   29
C28
A   30
C27
A   31
C26
A   32
C25
A   33
C32
A   34
C38
A   35
N37
A   36
C36
A   37
C35
A   38
C34
M  END
