4AQ3_398_A_1163
     RDKit          3D

 94 99  0  0  0  0  0  0  0  0999 V2000
  -22.6270    1.5700   -9.9880 O   0  0  0  0  0  0  0  0  0  0  0  0
  -22.5310    2.6470   -9.4610 C   0  0  0  0  0  0  0  0  0  0  0  0
  -22.2930    2.7670   -8.1400 N   0  0  0  0  0  0  0  0  0  0  0  0
  -22.0550    4.0520   -7.4770 C   0  0  0  0  0  0  0  0  0  0  0  0
  -20.7410    3.8810   -6.7250 C   0  0  0  0  0  0  0  0  0  0  0  0
  -20.1460    4.9670   -6.0960 C   0  0  0  0  0  0  0  0  0  0  0  0
  -18.9350    4.7600   -5.4260 C   0  0  0  0  0  0  0  0  0  0  0  0
  -18.3090    3.4960   -5.3150 C   0  0  0  0  0  0  0  0  0  0  0  0
  -18.8830    2.3710   -5.9240 C   0  0  0  0  0  0  0  0  0  0  0  0
  -20.0830    2.5280   -6.6210 C   0  0  0  0  0  0  0  0  0  0  0  0
  -20.7580    1.3160   -7.2300 C   0  0  0  0  0  0  0  0  0  0  0  0
  -22.2690    1.5770   -7.2460 C   0  0  0  0  0  0  0  0  0  0  0  0
  -22.7280    3.8120  -10.3790 C   0  0  0  0  0  0  0  0  0  0  0  0
  -21.6290    4.1860  -11.2780 C   0  0  0  0  0  0  0  0  0  0  0  0
  -20.5480    3.4220  -11.3250 N   0  0  0  0  0  0  0  0  0  0  0  0
  -19.8030    3.1280  -10.1790 N   0  0  0  0  0  0  0  0  0  0  0  0
  -18.8260    2.3050  -10.5670 C   0  0  0  0  0  0  0  0  0  0  0  0
  -17.7960    1.6280   -9.7380 C   0  0  0  0  0  0  0  0  0  0  0  0
  -18.0750    0.5030   -9.3420 O   0  0  0  0  0  0  0  0  0  0  0  0
  -16.6370    2.1490   -9.3910 N   0  0  0  0  0  0  0  0  0  0  0  0
  -16.4590    3.4660   -8.8080 C   0  0  0  0  0  0  0  0  0  0  0  0
  -16.6810    4.5510   -9.8430 C   0  0  0  0  0  0  0  0  0  0  0  0
  -17.6320    5.5980   -9.2470 C   0  0  0  0  0  0  0  0  0  0  0  0
  -16.9910    6.5890   -8.2890 C   0  0  0  0  0  0  0  0  0  0  0  0
  -15.4370    1.3180   -9.5430 C   0  0  0  0  0  0  0  0  0  0  0  0
  -15.0020    1.0630   -8.1350 C   0  0  0  0  0  0  0  0  0  0  0  0
  -13.5160    0.8270   -8.1650 C   0  0  0  0  0  0  0  0  0  0  0  0
  -13.2780   -0.0370   -9.3680 C   0  0  0  0  0  0  0  0  0  0  0  0
  -19.1210    2.0220  -11.9810 C   0  0  0  0  0  0  0  0  0  0  0  0
  -18.2010    0.9220  -13.1250 Cl  0  0  0  0  0  0  0  0  0  0  0  0
  -20.2810    2.7580  -12.4610 C   0  0  0  0  0  0  0  0  0  0  0  0
  -20.9220    2.7980  -13.8530 C   0  0  0  0  0  0  0  0  0  0  0  0
  -21.8570    5.2660  -12.1310 C   0  0  0  0  0  0  0  0  0  0  0  0
  -23.0430    5.9570  -12.1310 C   0  0  0  0  0  0  0  0  0  0  0  0
  -24.0550    5.6180  -11.2380 C   0  0  0  0  0  0  0  0  0  0  0  0
  -23.9090    4.5440  -10.3640 C   0  0  0  0  0  0  0  0  0  0  0  0
  -25.3140    6.4220  -11.2330 C   0  0  0  0  0  0  0  0  0  0  0  0
  -25.4460    7.2750  -12.0690 O   0  0  0  0  0  0  0  0  0  0  0  0
  -26.2460    6.1250  -10.3460 N   0  0  0  0  0  0  0  0  0  0  0  0
  -27.6500    6.8810  -10.2360 S   0  0  0  0  0  0  0  0  0  0  0  0
  -28.4000    6.8080  -11.4500 O   0  0  0  0  0  0  0  0  0  0  0  0
  -28.3230    6.1570   -9.1890 O   0  0  0  0  0  0  0  0  0  0  0  0
  -27.4990    8.4550   -9.8030 C   0  0  0  0  0  0  0  0  0  0  0  0
  -27.4750    9.4460  -10.7860 C   0  0  0  0  0  0  0  0  0  0  0  0
  -27.3570   10.7790  -10.4430 C   0  0  0  0  0  0  0  0  0  0  0  0
  -27.3240   11.7290  -11.4660 C   0  0  0  0  0  0  0  0  0  0  0  0
  -27.2060   13.0700  -11.1750 C   0  0  0  0  0  0  0  0  0  0  0  0
  -27.2390   14.4560  -12.7720 I   0  0  0  0  0  0  0  0  0  0  0  0
  -27.1360   13.4660   -9.8140 C   0  0  0  0  0  0  0  0  0  0  0  0
  -27.1730   12.5230   -8.7660 C   0  0  0  0  0  0  0  0  0  0  0  0
  -27.2850   11.1680   -9.0890 C   0  0  0  0  0  0  0  0  0  0  0  0
  -27.2950   10.1990   -8.1070 C   0  0  0  0  0  0  0  0  0  0  0  0
  -27.4210    8.8500   -8.4530 C   0  0  0  0  0  0  0  0  0  0  0  0
  -21.9712    4.8589   -8.2199 H   0  0  0  0  0  0  0  0  0  0  0  0
  -22.8804    4.3238   -6.8025 H   0  0  0  0  0  0  0  0  0  0  0  0
  -20.6137    5.9622   -6.1237 H   0  0  0  0  0  0  0  0  0  0  0  0
  -18.4432    5.6268   -4.9605 H   0  0  0  0  0  0  0  0  0  0  0  0
  -17.3705    3.3957   -4.7500 H   0  0  0  0  0  0  0  0  0  0  0  0
  -18.3985    1.3859   -5.8543 H   0  0  0  0  0  0  0  0  0  0  0  0
  -20.3943    1.1620   -8.2567 H   0  0  0  0  0  0  0  0  0  0  0  0
  -20.5308    0.4147   -6.6418 H   0  0  0  0  0  0  0  0  0  0  0  0
  -22.6580    1.8071   -6.2432 H   0  0  0  0  0  0  0  0  0  0  0  0
  -22.8910    0.7299   -7.5709 H   0  0  0  0  0  0  0  0  0  0  0  0
  -17.1806    3.5974   -7.9882 H   0  0  0  0  0  0  0  0  0  0  0  0
  -15.4290    3.5465   -8.4303 H   0  0  0  0  0  0  0  0  0  0  0  0
  -15.7210    5.0232  -10.0987 H   0  0  0  0  0  0  0  0  0  0  0  0
  -17.1163    4.1200  -10.7566 H   0  0  0  0  0  0  0  0  0  0  0  0
  -18.0747    6.1668  -10.0780 H   0  0  0  0  0  0  0  0  0  0  0  0
  -18.3691    5.0363   -8.6545 H   0  0  0  0  0  0  0  0  0  0  0  0
  -17.1914    6.2792   -7.2527 H   0  0  0  0  0  0  0  0  0  0  0  0
  -15.9048    6.6146   -8.4605 H   0  0  0  0  0  0  0  0  0  0  0  0
  -17.4130    7.5902   -8.4605 H   0  0  0  0  0  0  0  0  0  0  0  0
  -15.6753    0.3750  -10.0568 H   0  0  0  0  0  0  0  0  0  0  0  0
  -14.6571    1.8021  -10.1492 H   0  0  0  0  0  0  0  0  0  0  0  0
  -15.2326    1.9350   -7.5054 H   0  0  0  0  0  0  0  0  0  0  0  0
  -15.5275    0.1926   -7.7152 H   0  0  0  0  0  0  0  0  0  0  0  0
  -12.9761    1.7804   -8.2622 H   0  0  0  0  0  0  0  0  0  0  0  0
  -13.1570    0.3515   -7.2404 H   0  0  0  0  0  0  0  0  0  0  0  0
  -12.9990   -1.0500   -9.0425 H   0  0  0  0  0  0  0  0  0  0  0  0
  -14.1962   -0.0858   -9.9718 H   0  0  0  0  0  0  0  0  0  0  0  0
  -12.4644    0.3912   -9.9718 H   0  0  0  0  0  0  0  0  0  0  0  0
  -22.0152    2.8662  -13.7515 H   0  0  0  0  0  0  0  0  0  0  0  0
  -20.5494    3.6746  -14.4032 H   0  0  0  0  0  0  0  0  0  0  0  0
  -20.6613    1.8818  -14.4032 H   0  0  0  0  0  0  0  0  0  0  0  0
  -21.0613    5.5735  -12.8255 H   0  0  0  0  0  0  0  0  0  0  0  0
  -23.1944    6.7835  -12.8410 H   0  0  0  0  0  0  0  0  0  0  0  0
  -24.7195    4.2780   -9.6695 H   0  0  0  0  0  0  0  0  0  0  0  0
  -26.0566    5.3589   -9.6841 H   0  0  0  0  0  0  0  0  0  0  0  0
  -27.5509    9.1621  -11.8460 H   0  0  0  0  0  0  0  0  0  0  0  0
  -27.3929   11.4031  -12.5144 H   0  0  0  0  0  0  0  0  0  0  0  0
  -27.0507   14.5353   -9.5704 H   0  0  0  0  0  0  0  0  0  0  0  0
  -27.1149   12.8472   -7.7165 H   0  0  0  0  0  0  0  0  0  0  0  0
  -27.2037   10.4882   -7.0496 H   0  0  0  0  0  0  0  0  0  0  0  0
  -27.4597    8.0876   -7.6610 H   0  0  0  0  0  0  0  0  0  0  0  0
  1  2  2  0
  2  3  1  0
  2 13  1  0
  3  4  1  0
  3 12  1  0
  4  5  1  0
  5  6  2  0
  5 10  1  0
  6  7  1  0
  7  8  2  0
  8  9  1  0
  9 10  2  0
 10 11  1  0
 11 12  1  0
 13 14  1  0
 13 36  2  0
 14 15  1  0
 14 33  2  0
 15 16  1  0
 15 31  1  0
 16 17  2  0
 17 18  1  0
 17 29  1  0
 18 19  2  0
 18 20  1  0
 20 21  1  0
 20 25  1  0
 21 22  1  0
 22 23  1  0
 23 24  1  0
 25 26  1  0
 26 27  1  0
 27 28  1  0
 29 30  1  0
 29 31  2  0
 31 32  1  0
 33 34  1  0
 34 35  2  0
 35 36  1  0
 35 37  1  0
 37 38  2  0
 37 39  1  0
 39 40  1  0
 40 41  2  0
 40 42  2  0
 40 43  1  0
 43 44  2  0
 43 53  1  0
 44 45  1  0
 45 46  2  0
 45 51  1  0
 46 47  1  0
 47 48  1  0
 47 49  2  0
 49 50  1  0
 50 51  2  0
 51 52  1  0
 52 53  2  0
  4 54  1  0
  4 55  1  0
  6 56  1  0
  7 57  1  0
  8 58  1  0
  9 59  1  0
 11 60  1  0
 11 61  1  0
 12 62  1  0
 12 63  1  0
 21 64  1  0
 21 65  1  0
 22 66  1  0
 22 67  1  0
 23 68  1  0
 23 69  1  0
 24 70  1  0
 24 71  1  0
 24 72  1  0
 25 73  1  0
 25 74  1  0
 26 75  1  0
 26 76  1  0
 27 77  1  0
 27 78  1  0
 28 79  1  0
 28 80  1  0
 28 81  1  0
 32 82  1  0
 32 83  1  0
 32 84  1  0
 33 85  1  0
 34 86  1  0
 36 87  1  0
 39 88  1  0
 44 89  1  0
 46 90  1  0
 49 91  1  0
 50 92  1  0
 52 93  1  0
 53 94  1  0
A    1
O53
A    2
C42
A    3
N43
A    4
C48
A    5
C47
A    6
C49
A    7
C50
A    8
C51
A    9
C52
A   10
C46
A   11
C45
A   12
C44
A   13
C1
A   14
C6
A   15
N7
A   16
N11
A   17
C10
A   18
C12
A   19
O22
A   20
N13
A   21
C18
A   22
C19
A   23
C20
A   24
C21
A   25
C14
A   26
C15
A   27
C16
A   28
C17
A   29
C9
A   30
CL23
A   31
C8
A   32
C24
A   33
C5
A   34
C4
A   35
C3
A   36
C2
A   37
C25
A   38
O26
A   39
N27
A   40
S28
A   41
O29
A   42
O30
A   43
C31
A   44
C36
A   45
C35
A   46
C37
A   47
C38
A   48
I41
A   49
C39
A   50
C40
A   51
C34
A   52
C33
A   53
C32
M  END
