4AQH_TB7_A_1380
     RDKit          3D

 42 44  0  0  0  0  0  0  0  0999 V2000
  -22.2440    3.8840   -0.6640 C   0  0  0  0  0  0  0  0  0  0  0  0
  -23.2800    4.6880    0.0890 C   0  0  0  0  0  0  0  0  0  0  0  0
  -23.2910    6.0440   -0.5640 C   0  0  0  0  0  0  0  0  0  0  0  0
  -22.9250    4.8290    1.5800 C   0  0  0  0  0  0  0  0  0  0  0  0
  -24.6270    4.2200   -0.1180 O   0  0  0  0  0  0  0  0  0  0  0  0
  -24.8710    2.8680   -0.0510 C   0  0  0  0  0  0  0  0  0  0  0  0
  -24.0780    2.0570    0.3970 O   0  0  0  0  0  0  0  0  0  0  0  0
  -26.1380    2.5400   -0.5080 N   0  0  0  0  0  0  0  0  0  0  0  0
  -26.9650    1.4830    0.1120 C   0  0  0  0  0  0  0  0  0  0  0  0
  -28.2020    2.2660   -0.3410 C   0  0  0  0  0  0  0  0  0  0  0  0
  -27.2950    3.4680   -0.6070 C   0  0  0  0  0  0  0  0  0  0  0  0
  -29.1470    2.5150    0.6910 N   0  0  0  0  0  0  0  0  0  0  0  0
  -30.2460    1.6760    0.7910 C   0  0  0  0  0  0  0  0  0  0  0  0
  -31.0860    2.0530    1.8020 N   0  0  0  0  0  0  0  0  0  0  0  0
  -32.2570    1.4190    2.1630 C   0  0  0  0  0  0  0  0  0  0  0  0
  -32.9960    1.7630    3.0890 O   0  0  0  0  0  0  0  0  0  0  0  0
  -32.5650    0.2460    1.3290 C   0  0  0  0  0  0  0  0  0  0  0  0
  -33.7030   -0.4920    1.5670 C   0  0  0  0  0  0  0  0  0  0  0  0
  -33.9590   -1.5860    0.7540 C   0  0  0  0  0  0  0  0  0  0  0  0
  -33.0480   -1.8640   -0.2510 C   0  0  0  0  0  0  0  0  0  0  0  0
  -31.9310   -1.1450   -0.4890 N   0  0  0  0  0  0  0  0  0  0  0  0
  -31.7050   -0.0950    0.3120 C   0  0  0  0  0  0  0  0  0  0  0  0
  -30.5350    0.6490    0.0500 N   0  0  0  0  0  0  0  0  0  0  0  0
  -21.5848    3.3724    0.0528 H   0  0  0  0  0  0  0  0  0  0  0  0
  -22.7474    3.1378   -1.2963 H   0  0  0  0  0  0  0  0  0  0  0  0
  -21.6461    4.5569   -1.2963 H   0  0  0  0  0  0  0  0  0  0  0  0
  -23.2973    6.8243    0.2113 H   0  0  0  0  0  0  0  0  0  0  0  0
  -22.3937    6.1567   -1.1903 H   0  0  0  0  0  0  0  0  0  0  0  0
  -24.1900    6.1421   -1.1903 H   0  0  0  0  0  0  0  0  0  0  0  0
  -23.7741    4.4917    2.1926 H   0  0  0  0  0  0  0  0  0  0  0  0
  -22.0420    4.2133    1.8065 H   0  0  0  0  0  0  0  0  0  0  0  0
  -22.7051    5.8827    1.8065 H   0  0  0  0  0  0  0  0  0  0  0  0
  -26.8584    0.4897   -0.3484 H   0  0  0  0  0  0  0  0  0  0  0  0
  -26.8253    1.1841    1.1613 H   0  0  0  0  0  0  0  0  0  0  0  0
  -28.8710    1.8564   -1.1121 H   0  0  0  0  0  0  0  0  0  0  0  0
  -27.3260    4.2461    0.1699 H   0  0  0  0  0  0  0  0  0  0  0  0
  -27.4402    4.1180   -1.4825 H   0  0  0  0  0  0  0  0  0  0  0  0
  -29.0186    3.2983    1.3474 H   0  0  0  0  0  0  0  0  0  0  0  0
  -30.8199    2.8874    2.3441 H   0  0  0  0  0  0  0  0  0  0  0  0
  -34.3913   -0.2208    2.3810 H   0  0  0  0  0  0  0  0  0  0  0  0
  -34.8528   -2.2099    0.9021 H   0  0  0  0  0  0  0  0  0  0  0  0
  -33.2483   -2.7297   -0.8994 H   0  0  0  0  0  0  0  0  0  0  0  0
  1  2  1  0
  2  3  1  0
  2  4  1  0
  2  5  1  0
  5  6  1  0
  6  7  2  0
  6  8  1  0
  8  9  1  0
  8 11  1  0
  9 10  1  0
 10 11  1  0
 10 12  1  0
 12 13  1  0
 13 14  1  0
 13 23  2  0
 14 15  1  0
 15 16  2  0
 15 17  1  0
 17 18  2  0
 17 22  1  0
 18 19  1  0
 19 20  2  0
 20 21  1  0
 21 22  2  0
 22 23  1  0
  1 24  1  0
  1 25  1  0
  1 26  1  0
  3 27  1  0
  3 28  1  0
  3 29  1  0
  4 30  1  0
  4 31  1  0
  4 32  1  0
  9 33  1  0
  9 34  1  0
 10 35  1  0
 11 36  1  0
 11 37  1  0
 12 38  1  0
 14 39  1  0
 18 40  1  0
 19 41  1  0
 20 42  1  0
A    1
C1
A    2
C2
A    3
C3
A    4
C4
A    5
O5
A    6
C6
A    7
O7
A    8
N8
A    9
C9
A   10
C10
A   11
C11
A   12
N12
A   13
C13
A   14
N14
A   15
C15
A   16
O16
A   17
C17
A   18
C18
A   19
C19
A   20
C20
A   21
N21
A   22
C22
A   23
N23
M  END
