4ARK_M3K_A_1385
     RDKit          3D

 43 44  0  0  0  0  0  0  0  0999 V2000
   34.2470   27.2390   42.4370 C   0  0  0  0  0  0  0  0  0  0  0  0
   35.2130   26.4380   41.8890 C   0  0  0  0  0  0  0  0  0  0  0  0
   36.5180   26.5040   42.3200 C   0  0  0  0  0  0  0  0  0  0  0  0
   36.9050   27.3750   43.3090 C   0  0  0  0  0  0  0  0  0  0  0  0
   35.9320   28.1770   43.8510 C   0  0  0  0  0  0  0  0  0  0  0  0
   34.6270   28.1040   43.4200 C   0  0  0  0  0  0  0  0  0  0  0  0
   32.8850   27.2240   42.0410 N   0  0  0  0  0  0  0  0  0  0  0  0
   32.2050   26.4880   41.0410 C   0  0  0  0  0  0  0  0  0  0  0  0
   31.2730   27.1030   40.2430 C   0  0  0  0  0  0  0  0  0  0  0  0
   30.6100   26.4140   39.2760 C   0  0  0  0  0  0  0  0  0  0  0  0
   30.8500   25.0860   39.0840 C   0  0  0  0  0  0  0  0  0  0  0  0
   31.7640   24.4570   39.8710 C   0  0  0  0  0  0  0  0  0  0  0  0
   32.4350   25.1510   40.8420 C   0  0  0  0  0  0  0  0  0  0  0  0
   30.9430   28.5120   40.3680 C   0  0  0  0  0  0  0  0  0  0  0  0
   30.2560   29.1460   39.3820 N   0  0  0  0  0  0  0  0  0  0  0  0
   31.2810   29.1190   41.3220 O   0  0  0  0  0  0  0  0  0  0  0  0
   28.3960   27.5670   36.5940 C   0  0  0  0  0  0  0  0  0  0  0  0
   29.3830   28.1670   35.6070 C   0  0  0  0  0  0  0  0  0  0  0  0
   28.6780   29.1740   34.7170 C   0  0  0  0  0  0  0  0  0  0  0  0
   29.9010   27.1470   34.7840 O   0  0  0  0  0  0  0  0  0  0  0  0
   28.0870   30.1510   35.5470 O   0  0  0  0  0  0  0  0  0  0  0  0
   38.8510   27.4480   43.9280 I   0  0  0  0  0  0  0  0  0  0  0  0
   29.1050   26.4970   37.4050 C   0  0  0  0  0  0  0  0  0  0  0  0
   33.7260   28.8830   43.9510 F   0  0  0  0  0  0  0  0  0  0  0  0
   32.0010   23.1840   39.6830 F   0  0  0  0  0  0  0  0  0  0  0  0
   29.7130   27.0790   38.5310 O   0  0  0  0  0  0  0  0  0  0  0  0
   34.9414   25.7306   41.0916 H   0  0  0  0  0  0  0  0  0  0  0  0
   37.2690   25.8437   41.8618 H   0  0  0  0  0  0  0  0  0  0  0  0
   36.2000   28.8908   44.6439 H   0  0  0  0  0  0  0  0  0  0  0  0
   32.2822   27.8639   42.5777 H   0  0  0  0  0  0  0  0  0  0  0  0
   30.3114   24.5300   38.3025 H   0  0  0  0  0  0  0  0  0  0  0  0
   33.1697   24.6281   41.4719 H   0  0  0  0  0  0  0  0  0  0  0  0
   29.5199   29.8253   39.6220 H   0  0  0  0  0  0  0  0  0  0  0  0
   30.4713   28.9473   38.3945 H   0  0  0  0  0  0  0  0  0  0  0  0
   28.0212   28.3529   37.2662 H   0  0  0  0  0  0  0  0  0  0  0  0
   27.5473   27.1244   36.0519 H   0  0  0  0  0  0  0  0  0  0  0  0
   30.1899   28.6589   36.1699 H   0  0  0  0  0  0  0  0  0  0  0  0
   29.4049   29.6484   34.0413 H   0  0  0  0  0  0  0  0  0  0  0  0
   27.9100   28.6743   34.1083 H   0  0  0  0  0  0  0  0  0  0  0  0
   30.2691   26.4222   35.3490 H   0  0  0  0  0  0  0  0  0  0  0  0
   28.2329   29.9098   36.4960 H   0  0  0  0  0  0  0  0  0  0  0  0
   28.3743   25.7430   37.7331 H   0  0  0  0  0  0  0  0  0  0  0  0
   29.8754   26.0192   36.7819 H   0  0  0  0  0  0  0  0  0  0  0  0
  1  2  2  0
  1  6  1  0
  1  7  1  0
  2  3  1  0
  3  4  2  0
  4  5  1  0
  4 22  1  0
  5  6  2  0
  6 24  1  0
  7  8  1  0
  8  9  2  0
  8 13  1  0
  9 10  1  0
  9 14  1  0
 10 11  2  0
 10 26  1  0
 11 12  1  0
 12 13  2  0
 12 25  1  0
 14 15  1  0
 14 16  2  0
 17 18  1  0
 17 23  1  0
 18 19  1  0
 18 20  1  0
 19 21  1  0
 23 26  1  0
  2 27  1  0
  3 28  1  0
  5 29  1  0
  7 30  1  0
 11 31  1  0
 13 32  1  0
 15 33  1  0
 15 34  1  0
 17 35  1  0
 17 36  1  0
 18 37  1  0
 19 38  1  0
 19 39  1  0
 20 40  1  0
 21 41  1  0
 23 42  1  0
 23 43  1  0
A    1
C01
A    2
C02
A    3
C03
A    4
C04
A    5
C05
A    6
C06
A    7
N07
A    8
C08
A    9
C09
A   10
C10
A   11
C11
A   12
C12
A   13
C13
A   14
C14
A   15
N15
A   16
O16
A   17
C18
A   18
C19
A   19
C20
A   20
O21
A   21
O22
A   22
I23
A   23
C15
A   24
F24
A   25
F26
A   26
O1
M  END
