4ASA_59C_A_1215
     RDKit          3D

 88 89  0  0  0  0  0  0  0  0999 V2000
  -29.2950   34.5440   -7.4290 C   0  0  0  0  0  0  0  0  0  0  0  0
  -18.6480   34.1320   -1.7640 C   0  0  0  0  0  0  0  0  0  0  0  0
  -21.9640   39.4440   -7.4840 C   0  0  0  0  0  0  0  0  0  0  0  0
  -25.3120   35.8560   -0.2430 C   0  0  0  0  0  0  0  0  0  0  0  0
  -21.6840   32.7090   -6.1840 C   0  0  0  0  0  0  0  0  0  0  0  0
  -25.1220   30.9190   -4.3120 C   0  0  0  0  0  0  0  0  0  0  0  0
  -24.5660   37.2550   -4.8010 C   0  0  0  0  0  0  0  0  0  0  0  0
  -20.6980   34.4800   -8.6690 C   0  0  0  0  0  0  0  0  0  0  0  0
  -17.2010   33.8530   -5.7200 N   0  0  0  0  0  0  0  0  0  0  0  0
  -17.1950   31.7920   -4.7550 O   0  0  0  0  0  0  0  0  0  0  0  0
  -25.6380   33.1510   -0.1760 O   0  0  0  0  0  0  0  0  0  0  0  0
  -25.1350   31.7090   -6.9020 O   0  0  0  0  0  0  0  0  0  0  0  0
  -26.6240   35.2880   -3.3300 O   0  0  0  0  0  0  0  0  0  0  0  0
  -22.4150   36.4720   -9.3670 O   0  0  0  0  0  0  0  0  0  0  0  0
  -28.2990   33.7330   -8.3060 C   0  0  0  0  0  0  0  0  0  0  0  0
  -22.8920   34.6050   -1.9770 C   0  0  0  0  0  0  0  0  0  0  0  0
  -24.0490   35.3240   -2.0820 C   0  0  0  0  0  0  0  0  0  0  0  0
  -22.0910   34.7320   -3.0990 C   0  0  0  0  0  0  0  0  0  0  0  0
  -20.9170   35.0630   -6.2030 C   0  0  0  0  0  0  0  0  0  0  0  0
  -26.9620   34.4170   -8.7260 C   0  0  0  0  0  0  0  0  0  0  0  0
  -26.6270   36.1550   -5.9120 C   0  0  0  0  0  0  0  0  0  0  0  0
  -24.3650   36.5550   -7.2110 C   0  0  0  0  0  0  0  0  0  0  0  0
  -25.8160   34.0260   -7.8510 N   0  0  0  0  0  0  0  0  0  0  0  0
  -25.9240   32.8230   -2.3790 N   0  0  0  0  0  0  0  0  0  0  0  0
  -20.0130   34.6090   -2.0800 O   0  0  0  0  0  0  0  0  0  0  0  0
  -23.1230   38.5750   -7.4200 O   0  0  0  0  0  0  0  0  0  0  0  0
  -18.8640   33.3020   -4.2710 O   0  0  0  0  0  0  0  0  0  0  0  0
  -17.7680   32.9050   -4.9720 C   0  0  0  0  0  0  0  0  0  0  0  0
  -25.1640   35.0010   -1.3510 C   0  0  0  0  0  0  0  0  0  0  0  0
  -20.8860   33.7750   -5.6750 C   0  0  0  0  0  0  0  0  0  0  0  0
  -25.5380   33.6580   -1.2820 C   0  0  0  0  0  0  0  0  0  0  0  0
  -25.5130   32.2060   -4.6940 C   0  0  0  0  0  0  0  0  0  0  0  0
  -26.2590   34.8030   -5.5470 C   0  0  0  0  0  0  0  0  0  0  0  0
  -25.8720   33.8100   -6.4880 C   0  0  0  0  0  0  0  0  0  0  0  0
  -25.9200   33.1600   -3.7550 C   0  0  0  0  0  0  0  0  0  0  0  0
  -25.4940   32.5370   -6.0610 C   0  0  0  0  0  0  0  0  0  0  0  0
  -26.2890   34.4460   -4.1760 C   0  0  0  0  0  0  0  0  0  0  0  0
  -25.3660   37.0810   -6.1070 C   0  0  0  0  0  0  0  0  0  0  0  0
  -20.8520   35.5190   -7.5600 C   0  0  0  0  0  0  0  0  0  0  0  0
  -20.9370   34.0000   -3.0530 C   0  0  0  0  0  0  0  0  0  0  0  0
  -22.9610   37.2090   -7.0820 C   0  0  0  0  0  0  0  0  0  0  0  0
  -21.8740   36.6900   -8.0620 C   0  0  0  0  0  0  0  0  0  0  0  0
  -20.3230   33.4460   -4.4110 C   0  0  0  0  0  0  0  0  0  0  0  0
  -30.2470   34.0907   -7.1156 H   0  0  0  0  0  0  0  0  0  0  0  0
  -29.0475   35.5709   -7.1222 H   0  0  0  0  0  0  0  0  0  0  0  0
  -18.5189   34.0869   -0.6725 H   0  0  0  0  0  0  0  0  0  0  0  0
  -18.5016   33.1294   -2.1923 H   0  0  0  0  0  0  0  0  0  0  0  0
  -17.9090   34.8252   -2.1923 H   0  0  0  0  0  0  0  0  0  0  0  0
  -21.6343   39.6912   -6.4641 H   0  0  0  0  0  0  0  0  0  0  0  0
  -21.1504   38.9314   -8.0182 H   0  0  0  0  0  0  0  0  0  0  0  0
  -22.2280   40.3686   -8.0182 H   0  0  0  0  0  0  0  0  0  0  0  0
  -25.2113   35.2742    0.6851 H   0  0  0  0  0  0  0  0  0  0  0  0
  -24.5352   36.6342   -0.2740 H   0  0  0  0  0  0  0  0  0  0  0  0
  -26.3052   36.3278   -0.2740 H   0  0  0  0  0  0  0  0  0  0  0  0
  -22.1112   32.1384   -5.3462 H   0  0  0  0  0  0  0  0  0  0  0  0
  -22.4973   33.1213   -6.7993 H   0  0  0  0  0  0  0  0  0  0  0  0
  -21.0593   32.0448   -6.7993 H   0  0  0  0  0  0  0  0  0  0  0  0
  -25.1018   30.8526   -3.2142 H   0  0  0  0  0  0  0  0  0  0  0  0
  -25.8376   30.1849   -4.7106 H   0  0  0  0  0  0  0  0  0  0  0  0
  -24.1189   30.7070   -4.7106 H   0  0  0  0  0  0  0  0  0  0  0  0
  -25.2343   37.1096   -3.9395 H   0  0  0  0  0  0  0  0  0  0  0  0
  -23.7555   36.5121   -4.7658 H   0  0  0  0  0  0  0  0  0  0  0  0
  -24.1373   38.2674   -4.7658 H   0  0  0  0  0  0  0  0  0  0  0  0
  -20.5506   33.4858   -8.2221 H   0  0  0  0  0  0  0  0  0  0  0  0
  -21.6047   34.4713   -9.2918 H   0  0  0  0  0  0  0  0  0  0  0  0
  -19.8278   34.7347   -9.2918 H   0  0  0  0  0  0  0  0  0  0  0  0
  -16.7254   34.6482   -5.2702 H   0  0  0  0  0  0  0  0  0  0  0  0
  -17.2388   33.7897   -6.7474 H   0  0  0  0  0  0  0  0  0  0  0  0
  -23.3303   36.1032   -9.2874 H   0  0  0  0  0  0  0  0  0  0  0  0
  -28.5313   32.7051   -8.6214 H   0  0  0  0  0  0  0  0  0  0  0  0
  -22.6271   33.9948   -1.1009 H   0  0  0  0  0  0  0  0  0  0  0  0
  -24.0874   36.1822   -2.7690 H   0  0  0  0  0  0  0  0  0  0  0  0
  -22.3602   35.3680   -3.9552 H   0  0  0  0  0  0  0  0  0  0  0  0
  -21.0062   35.8636   -5.4540 H   0  0  0  0  0  0  0  0  0  0  0  0
  -26.7289   34.1283   -9.7615 H   0  0  0  0  0  0  0  0  0  0  0  0
  -27.0994   35.5040   -8.6285 H   0  0  0  0  0  0  0  0  0  0  0  0
  -27.2579   36.5779   -5.1163 H   0  0  0  0  0  0  0  0  0  0  0  0
  -27.1670   36.1122   -6.8694 H   0  0  0  0  0  0  0  0  0  0  0  0
  -24.7762   36.7893   -8.2040 H   0  0  0  0  0  0  0  0  0  0  0  0
  -24.2484   35.4697   -7.0750 H   0  0  0  0  0  0  0  0  0  0  0  0
  -24.8998   33.9065   -8.3061 H   0  0  0  0  0  0  0  0  0  0  0  0
  -26.2396   31.8718   -2.1415 H   0  0  0  0  0  0  0  0  0  0  0  0
  -25.7866   38.0441   -6.4319 H   0  0  0  0  0  0  0  0  0  0  0  0
  -19.8746   36.0014   -7.4118 H   0  0  0  0  0  0  0  0  0  0  0  0
  -21.2175   33.0054   -2.6761 H   0  0  0  0  0  0  0  0  0  0  0  0
  -22.6203   36.9845   -6.0605 H   0  0  0  0  0  0  0  0  0  0  0  0
  -21.1640   37.5293   -8.1020 H   0  0  0  0  0  0  0  0  0  0  0  0
  -20.7571   32.4432   -4.5368 H   0  0  0  0  0  0  0  0  0  0  0  0
 14 42  1  0
 20 15  1  0
 20 23  1  0
  8 39  1  0
 15  1  2  3
 42 39  1  0
 42 41  1  0
 23 34  1  0
 39 19  1  0
  3 26  1  0
 26 41  1  0
 22 41  1  0
 22 38  1  0
 12 36  2  0
 34 36  1  0
 34 33  2  0
 19 30  2  0
  5 30  1  0
 38 21  1  0
 38  7  1  0
 36 32  1  0
 21 33  1  0
  9 28  1  0
 30 43  1  0
 33 37  1  0
 28 10  2  0
 28 27  1  0
 32  6  1  0
 32 35  2  0
 43 27  1  0
 43 40  1  0
 37 35  1  0
 37 13  2  0
 35 24  1  0
 18 40  1  0
 18 16  2  0
 40 25  1  0
 24 31  1  0
 17 16  1  0
 17 29  2  0
 25  2  1  0
 29 31  1  0
 29  4  1  0
 31 11  2  0
  1 44  1  0
  1 45  1  0
  2 46  1  0
  2 47  1  0
  2 48  1  0
  3 49  1  0
  3 50  1  0
  3 51  1  0
  4 52  1  0
  4 53  1  0
  4 54  1  0
  5 55  1  0
  5 56  1  0
  5 57  1  0
  6 58  1  0
  6 59  1  0
  6 60  1  0
  7 61  1  0
  7 62  1  0
  7 63  1  0
  8 64  1  0
  8 65  1  0
  8 66  1  0
  9 67  1  0
  9 68  1  0
 14 69  1  0
 15 70  1  0
 16 71  1  0
 17 72  1  0
 18 73  1  0
 19 74  1  0
 20 75  1  0
 20 76  1  0
 21 77  1  0
 21 78  1  0
 22 79  1  0
 22 80  1  0
 23 81  1  0
 24 82  1  0
 38 83  1  0
 39 84  1  0
 40 85  1  0
 41 86  1  0
 42 87  1  0
 43 88  1  0
A    1
CAA
A    2
CAB
A    3
CAC
A    4
CAD
A    5
CAE
A    6
CAF
A    7
CAG
A    8
CAH
A    9
NAI
A   10
OAJ
A   11
OAK
A   12
OAL
A   13
OAM
A   14
OAN
A   15
CAO
A   16
CAP
A   17
CAQ
A   18
CAR
A   19
CAS
A   20
CAT
A   21
CAU
A   22
CAV
A   23
NAW
A   24
NAX
A   25
OAY
A   26
OAZ
A   27
OBA
A   28
CBB
A   29
CBC
A   30
CBD
A   31
CBE
A   32
CBF
A   33
CBG
A   34
CBH
A   35
CBI
A   36
CBJ
A   37
CBK
A   38
CBL
A   39
CBM
A   40
CBN
A   41
CBO
A   42
CBP
A   43
CBQ
M  END
