4ASE_AV9_A_3169
     RDKit          3D

 51 54  0  0  0  0  0  0  0  0999 V2000
  -17.6300    2.7790  -15.3340 C   0  0  0  0  0  0  0  0  0  0  0  0
  -18.7140    3.6850  -15.0630 C   0  0  0  0  0  0  0  0  0  0  0  0
  -19.9790    3.2350  -14.6380 C   0  0  0  0  0  0  0  0  0  0  0  0
  -20.1900    1.8090  -14.4750 C   0  0  0  0  0  0  0  0  0  0  0  0
  -19.1140    0.9040  -14.7440 C   0  0  0  0  0  0  0  0  0  0  0  0
  -17.8320    1.3680  -15.1690 C   0  0  0  0  0  0  0  0  0  0  0  0
  -20.9640    4.1450  -14.3900 N   0  0  0  0  0  0  0  0  0  0  0  0
  -22.1890    3.7070  -13.9770 C   0  0  0  0  0  0  0  0  0  0  0  0
  -22.5090    2.3630  -13.7890 C   0  0  0  0  0  0  0  0  0  0  0  0
  -21.4930    1.3840  -14.0430 C   0  0  0  0  0  0  0  0  0  0  0  0
  -21.6430   -0.0170  -13.9100 O   0  0  0  0  0  0  0  0  0  0  0  0
  -22.7290   -0.5670  -13.2810 C   0  0  0  0  0  0  0  0  0  0  0  0
  -24.0170   -0.6440  -13.9300 C   0  0  0  0  0  0  0  0  0  0  0  0
  -24.9190   -1.7030  -11.8990 C   0  0  0  0  0  0  0  0  0  0  0  0
  -23.6200   -1.6130  -11.2920 C   0  0  0  0  0  0  0  0  0  0  0  0
  -22.5350   -1.0490  -11.9750 C   0  0  0  0  0  0  0  0  0  0  0  0
  -29.2290   -2.9650   -6.3980 O   0  0  0  0  0  0  0  0  0  0  0  0
  -25.1120   -1.2140  -13.2280 C   0  0  0  0  0  0  0  0  0  0  0  0
  -26.0060   -2.2720  -11.1880 N   0  0  0  0  0  0  0  0  0  0  0  0
  -16.7350    0.5530  -15.4410 O   0  0  0  0  0  0  0  0  0  0  0  0
  -16.3620    3.1560  -15.7510 O   0  0  0  0  0  0  0  0  0  0  0  0
  -26.2770   -1.9530   -9.8480 C   0  0  0  0  0  0  0  0  0  0  0  0
  -25.6070   -1.1620   -9.1850 O   0  0  0  0  0  0  0  0  0  0  0  0
  -27.3930   -2.6630   -9.3840 N   0  0  0  0  0  0  0  0  0  0  0  0
  -27.9190   -2.5710   -8.0880 C   0  0  0  0  0  0  0  0  0  0  0  0
  -28.4190   -1.5800   -4.5830 C   0  0  0  0  0  0  0  0  0  0  0  0
  -28.3170   -2.0510   -5.9750 C   0  0  0  0  0  0  0  0  0  0  0  0
  -27.4700   -1.7670   -6.9950 C   0  0  0  0  0  0  0  0  0  0  0  0
  -28.9850   -3.2950   -7.7250 N   0  0  0  0  0  0  0  0  0  0  0  0
  -26.6600   -1.2990  -14.0030 Cl  0  0  0  0  0  0  0  0  0  0  0  0
  -16.8610   -0.8680  -15.2910 C   0  0  0  0  0  0  0  0  0  0  0  0
  -16.0740    4.5530  -15.9390 C   0  0  0  0  0  0  0  0  0  0  0  0
  -18.5494    4.7649  -15.1920 H   0  0  0  0  0  0  0  0  0  0  0  0
  -19.2789   -0.1765  -14.6202 H   0  0  0  0  0  0  0  0  0  0  0  0
  -22.9688    4.4577  -13.7812 H   0  0  0  0  0  0  0  0  0  0  0  0
  -23.5130    2.0623  -13.4551 H   0  0  0  0  0  0  0  0  0  0  0  0
  -24.1481   -0.2661  -14.9547 H   0  0  0  0  0  0  0  0  0  0  0  0
  -23.4746   -1.9946  -10.2706 H   0  0  0  0  0  0  0  0  0  0  0  0
  -21.5465   -0.9843  -11.4968 H   0  0  0  0  0  0  0  0  0  0  0  0
  -26.6188   -2.9435  -11.6722 H   0  0  0  0  0  0  0  0  0  0  0  0
  -28.2370   -2.4206   -3.8972 H   0  0  0  0  0  0  0  0  0  0  0  0
  -27.6703   -0.7938   -4.4062 H   0  0  0  0  0  0  0  0  0  0  0  0
  -29.4259   -1.1739   -4.4062 H   0  0  0  0  0  0  0  0  0  0  0  0
  -26.6204   -1.0684   -6.9837 H   0  0  0  0  0  0  0  0  0  0  0  0
  -29.5142   -3.9587   -8.3084 H   0  0  0  0  0  0  0  0  0  0  0  0
  -16.8836   -1.1232  -14.2213 H   0  0  0  0  0  0  0  0  0  0  0  0
  -17.7926   -1.2059  -15.7684 H   0  0  0  0  0  0  0  0  0  0  0  0
  -16.0034   -1.3646  -15.7684 H   0  0  0  0  0  0  0  0  0  0  0  0
  -15.9732    5.0418  -14.9587 H   0  0  0  0  0  0  0  0  0  0  0  0
  -15.1346    4.6613  -16.5010 H   0  0  0  0  0  0  0  0  0  0  0  0
  -16.8939    5.0240  -16.5010 H   0  0  0  0  0  0  0  0  0  0  0  0
  1  2  2  0
  1  6  1  0
  1 21  1  0
  2  3  1  0
  3  4  2  0
  3  7  1  0
  4  5  1  0
  4 10  1  0
  5  6  2  0
  6 20  1  0
  7  8  2  0
  8  9  1  0
  9 10  2  0
 10 11  1  0
 11 12  1  0
 12 13  2  0
 12 16  1  0
 13 18  1  0
 14 15  1  0
 14 19  1  0
 14 18  2  0
 15 16  2  0
 17 27  1  0
 17 29  1  0
 19 22  1  0
 20 31  1  0
 21 32  1  0
 18 30  1  0
 22 23  2  0
 22 24  1  0
 24 25  2  0
 25 28  1  0
 25 29  1  0
 26 27  1  0
 28 27  2  0
  2 33  1  0
  5 34  1  0
  8 35  1  0
  9 36  1  0
 13 37  1  0
 15 38  1  0
 16 39  1  0
 19 40  1  0
 26 41  1  0
 26 42  1  0
 26 43  1  0
 28 44  1  0
 29 45  1  0
 31 46  1  0
 31 47  1  0
 31 48  1  0
 32 49  1  0
 32 50  1  0
 32 51  1  0
A    1
C1
A    2
C2
A    3
C3
A    4
C4
A    5
C5
A    6
C6
A    7
N7
A    8
C8
A    9
C9
A   10
C10
A   11
O11
A   12
C12
A   13
C13
A   14
C15
A   15
C16
A   16
C17
A   17
O25
A   18
C11
A   19
N28
A   20
O33
A   21
O34
A   22
C35
A   23
O36
A   24
N37
A   25
C38
A   26
C40
A   27
C30
A   28
C43
A   29
N21
A   30
CL4
A   31
C49
A   32
C53
M  END
