4ASX_6OJ_A_1487
     RDKit          3D

 27 29  0  0  0  0  0  0  0  0999 V2000
  -40.2480   44.4360    9.5390 C   0  0  0  0  0  0  0  0  0  0  0  0
  -39.0510   45.1040    9.1020 N   0  0  0  0  0  0  0  0  0  0  0  0
  -38.1800   45.7300    9.9110 C   0  0  0  0  0  0  0  0  0  0  0  0
  -38.1870   45.9600   11.3870 C   0  0  0  0  0  0  0  0  0  0  0  0
  -37.0160   46.5770   11.7610 N   0  0  0  0  0  0  0  0  0  0  0  0
  -35.7840   47.0350   11.1950 C   0  0  0  0  0  0  0  0  0  0  0  0
  -35.8850   47.0370    9.6530 C   0  0  0  0  0  0  0  0  0  0  0  0
  -37.0950   46.2480    9.0710 C   0  0  0  0  0  0  0  0  0  0  0  0
  -37.3680   45.8510    7.7540 C   0  0  0  0  0  0  0  0  0  0  0  0
  -36.6740   46.1120    6.5680 C   0  0  0  0  0  0  0  0  0  0  0  0
  -37.2130   45.6450    5.3730 C   0  0  0  0  0  0  0  0  0  0  0  0
  -38.4350   44.9360    5.4060 C   0  0  0  0  0  0  0  0  0  0  0  0
  -39.1270   44.6870    6.5850 C   0  0  0  0  0  0  0  0  0  0  0  0
  -38.5820   45.1640    7.7790 C   0  0  0  0  0  0  0  0  0  0  0  0
  -40.6480   43.8370    6.5670 Cl  0  0  0  0  0  0  0  0  0  0  0  0
  -39.0450   44.3580    3.9200 Cl  0  0  0  0  0  0  0  0  0  0  0  0
  -39.1110   45.7040   12.1350 O   0  0  0  0  0  0  0  0  0  0  0  0
  -40.2780   44.4193   10.6385 H   0  0  0  0  0  0  0  0  0  0  0  0
  -41.1283   44.9733    9.1563 H   0  0  0  0  0  0  0  0  0  0  0  0
  -40.2529   43.4047    9.1563 H   0  0  0  0  0  0  0  0  0  0  0  0
  -37.0304   46.7718   12.7723 H   0  0  0  0  0  0  0  0  0  0  0  0
  -35.5768   48.0558   11.5487 H   0  0  0  0  0  0  0  0  0  0  0  0
  -34.9701   46.3630   11.5047 H   0  0  0  0  0  0  0  0  0  0  0  0
  -35.9659   48.0816    9.3178 H   0  0  0  0  0  0  0  0  0  0  0  0
  -34.9814   46.5287    9.2854 H   0  0  0  0  0  0  0  0  0  0  0  0
  -35.7271   46.6717    6.5795 H   0  0  0  0  0  0  0  0  0  0  0  0
  -36.6964   45.8248    4.4186 H   0  0  0  0  0  0  0  0  0  0  0  0
  1  2  1  0
  2  3  1  0
  2 14  1  0
  3  4  1  0
  3  8  2  0
  4  5  1  0
  4 17  2  0
  5  6  1  0
  6  7  1  0
  7  8  1  0
  8  9  1  0
  9 10  1  0
  9 14  2  0
 10 11  2  0
 11 12  1  0
 12 13  2  0
 12 16  1  0
 13 14  1  0
 13 15  1  0
  1 18  1  0
  1 19  1  0
  1 20  1  0
  5 21  1  0
  6 22  1  0
  6 23  1  0
  7 24  1  0
  7 25  1  0
 10 26  1  0
 11 27  1  0
A    1
C01
A    2
N02
A    3
C03
A    4
C04
A    5
N05
A    6
C06
A    7
C07
A    8
C08
A    9
C09
A   10
C10
A   11
C11
A   12
C12
A   13
C13
A   14
C14
A   15
CL1
A   16
CL2
A   17
O17
M  END
