4AUX_XTC_A_222
     RDKit          3D

 54 57  0  0  0  0  0  0  0  0999 V2000
   22.7470   44.5170   34.8470 O   0  0  0  0  0  0  0  0  0  0  0  0
   23.1250   43.4290   34.4030 N   0  0  0  0  0  0  0  0  0  0  0  0
   24.0240   43.4190   33.5580 O   0  0  0  0  0  0  0  0  0  0  0  0
   22.5200   42.2450   34.8700 C   0  0  0  0  0  0  0  0  0  0  0  0
   21.6670   42.3400   35.9680 C   0  0  0  0  0  0  0  0  0  0  0  0
   21.0410   41.2110   36.4890 C   0  0  0  0  0  0  0  0  0  0  0  0
   22.7350   40.9990   34.2520 C   0  0  0  0  0  0  0  0  0  0  0  0
   23.5470   40.8980   33.1540 O   0  0  0  0  0  0  0  0  0  0  0  0
   22.0920   39.8590   34.7720 C   0  0  0  0  0  0  0  0  0  0  0  0
   21.2640   39.9830   35.8810 C   0  0  0  0  0  0  0  0  0  0  0  0
   20.6000   38.7740   36.4270 C   0  0  0  0  0  0  0  0  0  0  0  0
   22.2790   38.5030   34.1510 C   0  0  0  0  0  0  0  0  0  0  0  0
   22.7580   38.4780   32.9030 O   0  0  0  0  0  0  0  0  0  0  0  0
   21.9680   37.3840   34.8510 C   0  0  0  0  0  0  0  0  0  0  0  0
   21.5860   37.6160   36.2930 C   0  0  0  0  0  0  0  0  0  0  0  0
   20.9200   36.4400   36.9590 C   0  0  0  0  0  0  0  0  0  0  0  0
   22.0310   36.1300   34.3320 C   0  0  0  0  0  0  0  0  0  0  0  0
   22.6160   35.8760   33.1410 O   0  0  0  0  0  0  0  0  0  0  0  0
   21.5310   34.9160   35.0980 C   0  0  0  0  0  0  0  0  0  0  0  0
   22.4210   33.8730   34.6900 O   0  0  0  0  0  0  0  0  0  0  0  0
   20.1080   34.5220   34.7950 C   0  0  0  0  0  0  0  0  0  0  0  0
   19.5000   35.1830   33.8020 O   0  0  0  0  0  0  0  0  0  0  0  0
   21.6480   35.1640   36.6120 C   0  0  0  0  0  0  0  0  0  0  0  0
   21.0410   34.0830   37.5070 C   0  0  0  0  0  0  0  0  0  0  0  0
   22.0170   33.2430   38.2620 N   0  0  0  0  0  0  0  0  0  0  0  0
   22.6460   33.9620   39.4000 C   0  0  0  0  0  0  0  0  0  0  0  0
   23.0810   32.6090   37.4480 C   0  0  0  0  0  0  0  0  0  0  0  0
   20.1230   33.2060   36.7120 C   0  0  0  0  0  0  0  0  0  0  0  0
   19.9660   32.0030   37.2390 O   0  0  0  0  0  0  0  0  0  0  0  0
   19.5130   33.5540   35.5510 C   0  0  0  0  0  0  0  0  0  0  0  0
   18.2480   32.8310   35.1680 C   0  0  0  0  0  0  0  0  0  0  0  0
   17.8080   31.9030   35.8220 O   0  0  0  0  0  0  0  0  0  0  0  0
   17.5210   33.1470   34.0980 N   0  0  0  0  0  0  0  0  0  0  0  0
   21.4857   43.3217   36.4299 H   0  0  0  0  0  0  0  0  0  0  0  0
   20.3819   41.2904   37.3661 H   0  0  0  0  0  0  0  0  0  0  0  0
   24.5227   40.7766   33.2694 H   0  0  0  0  0  0  0  0  0  0  0  0
   20.3443   38.9303   37.4854 H   0  0  0  0  0  0  0  0  0  0  0  0
   19.6700   38.5594   35.8801 H   0  0  0  0  0  0  0  0  0  0  0  0
   22.5493   37.8188   36.7839 H   0  0  0  0  0  0  0  0  0  0  0  0
   20.9364   36.5827   38.0496 H   0  0  0  0  0  0  0  0  0  0  0  0
   19.8808   36.3681   36.6055 H   0  0  0  0  0  0  0  0  0  0  0  0
   23.5236   35.4819   33.1094 H   0  0  0  0  0  0  0  0  0  0  0  0
   22.7991   33.4299   35.4905 H   0  0  0  0  0  0  0  0  0  0  0  0
   22.7309   35.1899   36.8033 H   0  0  0  0  0  0  0  0  0  0  0  0
   20.4880   34.6401   38.2776 H   0  0  0  0  0  0  0  0  0  0  0  0
   22.2782   33.5416   40.3476 H   0  0  0  0  0  0  0  0  0  0  0  0
   23.7387   33.8470   39.3474 H   0  0  0  0  0  0  0  0  0  0  0  0
   22.3867   35.0297   39.3474 H   0  0  0  0  0  0  0  0  0  0  0  0
   23.8335   32.1606   38.1133 H   0  0  0  0  0  0  0  0  0  0  0  0
   22.6398   31.8264   36.8133 H   0  0  0  0  0  0  0  0  0  0  0  0
   23.5593   33.3695   36.8133 H   0  0  0  0  0  0  0  0  0  0  0  0
   19.9515   31.8915   38.2226 H   0  0  0  0  0  0  0  0  0  0  0  0
   16.5825   33.5549   34.2152 H   0  0  0  0  0  0  0  0  0  0  0  0
   17.8972   32.9835   33.1532 H   0  0  0  0  0  0  0  0  0  0  0  0
  1  2  1  0
  2  3  2  0
  2  4  1  0
  4  5  2  0
  4  7  1  0
  5  6  1  0
  6 10  2  0
  7  8  1  0
  7  9  2  0
  9 10  1  0
  9 12  1  0
 10 11  1  0
 11 15  1  0
 12 13  2  0
 12 14  1  0
 14 15  1  0
 14 17  2  0
 15 16  1  0
 16 23  1  0
 17 18  1  0
 17 19  1  0
 19 20  1  0
 19 21  1  0
 19 23  1  0
 21 22  2  0
 21 30  1  0
 23 24  1  0
 24 25  1  0
 24 28  1  0
 25 26  1  0
 25 27  1  0
 28 29  1  0
 28 30  2  0
 30 31  1  0
 31 32  2  0
 31 33  1  0
  5 34  1  0
  6 35  1  0
  8 36  1  0
 11 37  1  0
 11 38  1  0
 15 39  1  0
 16 40  1  0
 16 41  1  0
 18 42  1  0
 20 43  1  0
 23 44  1  0
 24 45  1  0
 26 46  1  0
 26 47  1  0
 26 48  1  0
 27 49  1  0
 27 50  1  0
 27 51  1  0
 29 52  1  0
 33 53  1  0
 33 54  1  0
M  CHG  2   1  -1   2   1
A    1
O92
A    2
N9
A    3
O91
A    4
C9
A    5
C8
A    6
C7
A    7
C10
A    8
O10
A    9
C1A
A   10
C61
A   11
C6
A   12
C11
A   13
O11
A   14
C1B
A   15
C51
A   16
C5
A   17
C12
A   18
O12
A   19
C1C
A   20
O1C
A   21
C1
A   22
O1
A   23
C41
A   24
C4
A   25
N4
A   26
C43
A   27
C42
A   28
C3
A   29
O3
A   30
C2
A   31
C21
A   32
O21
A   33
N21
M  END
