4AV4_FVQ_A_201
     RDKit          3D

 38 39  0  0  0  0  0  0  0  0999 V2000
  -14.6670    3.9780   -9.5890 O   0  0  0  0  0  0  0  0  0  0  0  0
  -15.3850    3.7320  -10.8030 C   0  0  0  0  0  0  0  0  0  0  0  0
  -15.2040    2.4900  -11.5060 C   0  0  0  0  0  0  0  0  0  0  0  0
  -13.7290    2.2320  -11.5090 O   0  0  0  0  0  0  0  0  0  0  0  0
  -15.9880    1.3950  -10.8580 C   0  0  0  0  0  0  0  0  0  0  0  0
  -17.4140    1.7570  -10.8450 O   0  0  0  0  0  0  0  0  0  0  0  0
  -15.6700    0.0890  -11.4380 C   0  0  0  0  0  0  0  0  0  0  0  0
  -16.2120   -0.9440  -10.6730 O   0  0  0  0  0  0  0  0  0  0  0  0
  -14.1870   -0.1410  -11.5470 C   0  0  0  0  0  0  0  0  0  0  0  0
  -13.6570   -0.3710  -10.2860 O   0  0  0  0  0  0  0  0  0  0  0  0
  -13.4460    1.0100  -12.1480 C   0  0  0  0  0  0  0  0  0  0  0  0
  -13.8170    1.0900  -13.4730 O   0  0  0  0  0  0  0  0  0  0  0  0
  -13.0690    2.0180  -14.2870 C   0  0  0  0  0  0  0  0  0  0  0  0
  -13.6360    2.1130  -15.6370 C   0  0  0  0  0  0  0  0  0  0  0  0
  -14.1170    2.2930  -16.7220 C   0  0  0  0  0  0  0  0  0  0  0  0
  -14.6980    2.5790  -18.0730 C   0  0  0  0  0  0  0  0  0  0  0  0
  -13.8360    3.1590  -19.0530 C   0  0  0  0  0  0  0  0  0  0  0  0
  -14.3750    3.4500  -20.3120 C   0  0  0  0  0  0  0  0  0  0  0  0
  -15.7250    3.1380  -20.5460 C   0  0  0  0  0  0  0  0  0  0  0  0
  -16.5170    2.5880  -19.5800 N   0  0  0  0  0  0  0  0  0  0  0  0
  -16.0190    2.3040  -18.3440 C   0  0  0  0  0  0  0  0  0  0  0  0
  -15.2502    3.7782   -8.8144 H   0  0  0  0  0  0  0  0  0  0  0  0
  -16.4552    3.8063  -10.5598 H   0  0  0  0  0  0  0  0  0  0  0  0
  -14.9716    4.4784  -11.4973 H   0  0  0  0  0  0  0  0  0  0  0  0
  -15.5796    2.5367  -12.5388 H   0  0  0  0  0  0  0  0  0  0  0  0
  -15.6958    1.2837   -9.8034 H   0  0  0  0  0  0  0  0  0  0  0  0
  -17.7258    1.8362   -9.9087 H   0  0  0  0  0  0  0  0  0  0  0  0
  -16.1092    0.0904  -12.4465 H   0  0  0  0  0  0  0  0  0  0  0  0
  -16.1024   -0.7351   -9.7115 H   0  0  0  0  0  0  0  0  0  0  0  0
  -14.0634   -1.0089  -12.2115 H   0  0  0  0  0  0  0  0  0  0  0  0
  -14.3093   -0.0879   -9.5972 H   0  0  0  0  0  0  0  0  0  0  0  0
  -12.3664    0.8354  -12.0302 H   0  0  0  0  0  0  0  0  0  0  0  0
  -13.0955    3.0115  -13.8156 H   0  0  0  0  0  0  0  0  0  0  0  0
  -12.0335    1.6557  -14.3678 H   0  0  0  0  0  0  0  0  0  0  0  0
  -12.7808    3.3706  -18.8256 H   0  0  0  0  0  0  0  0  0  0  0  0
  -13.7579    3.9108  -21.0974 H   0  0  0  0  0  0  0  0  0  0  0  0
  -16.1562    3.3431  -21.5370 H   0  0  0  0  0  0  0  0  0  0  0  0
  -16.6649    1.8603  -17.5721 H   0  0  0  0  0  0  0  0  0  0  0  0
  1  2  1  0
  2  3  1  0
  3  4  1  0
  3  5  1  0
  4 11  1  0
  5  6  1  0
  5  7  1  0
  7  8  1  0
  7  9  1  0
  9 10  1  0
  9 11  1  0
 11 12  1  0
 12 13  1  0
 13 14  1  0
 14 15  3  0
 15 16  1  0
 16 17  2  0
 16 21  1  0
 17 18  1  0
 18 19  2  0
 19 20  1  0
 21 20  2  0
  1 22  1  0
  2 23  1  0
  2 24  1  0
  3 25  1  0
  5 26  1  0
  6 27  1  0
  7 28  1  0
  8 29  1  0
  9 30  1  0
 10 31  1  0
 11 32  1  0
 13 33  1  0
 13 34  1  0
 17 35  1  0
 18 36  1  0
 19 37  1  0
 21 38  1  0
A    1
O6
A    2
C6
A    3
C5
A    4
O5
A    5
C4
A    6
O4
A    7
C3
A    8
O3
A    9
C2
A   10
O2
A   11
C1
A   12
O1
A   13
C7
A   14
C8
A   15
C9
A   16
C10
A   17
C15
A   18
C14
A   19
C13
A   20
N12
A   21
C11
M  END
