4AVG_SL6_A_801
     RDKit          3D

 59 61  0  0  0  0  0  0  0  0999 V2000
   12.5420  -22.1150  -18.1640 Cl  0  0  0  0  0  0  0  0  0  0  0  0
   13.3810  -22.6860  -16.6730 C   0  0  0  0  0  0  0  0  0  0  0  0
   13.8600  -24.0020  -16.5790 C   0  0  0  0  0  0  0  0  0  0  0  0
   14.4910  -24.4170  -15.4160 C   0  0  0  0  0  0  0  0  0  0  0  0
   13.5330  -21.7910  -15.6160 C   0  0  0  0  0  0  0  0  0  0  0  0
   14.1580  -22.2180  -14.4560 C   0  0  0  0  0  0  0  0  0  0  0  0
   14.6570  -23.5050  -14.3790 C   0  0  0  0  0  0  0  0  0  0  0  0
   15.2680  -23.9530  -13.1060 C   0  0  0  0  0  0  0  0  0  0  0  0
   16.6960  -23.5760  -12.7520 C   0  0  0  0  0  0  0  0  0  0  0  0
   17.6920  -24.3610  -13.6410 C   0  0  0  0  0  0  0  0  0  0  0  0
   18.8400  -24.9990  -12.8520 C   0  0  0  0  0  0  0  0  0  0  0  0
   16.9050  -22.0720  -12.8110 C   0  0  0  0  0  0  0  0  0  0  0  0
   16.6440  -21.4250  -11.8100 O   0  0  0  0  0  0  0  0  0  0  0  0
   17.4760  -21.5140  -14.0700 C   0  0  0  0  0  0  0  0  0  0  0  0
   17.8470  -20.2530  -14.3690 C   0  0  0  0  0  0  0  0  0  0  0  0
   17.6910  -19.2850  -13.5020 O   0  0  0  0  0  0  0  0  0  0  0  0
   18.4300  -19.9560  -15.7190 C   0  0  0  0  0  0  0  0  0  0  0  0
   18.7500  -18.7820  -16.0150 O   0  0  0  0  0  0  0  0  0  0  0  0
   18.5680  -20.9010  -16.5630 O   0  0  0  0  0  0  0  0  0  0  0  0
   16.8050  -24.0950  -11.3030 C   0  0  0  0  0  0  0  0  0  0  0  0
   18.1860  -23.9930  -10.6980 C   0  0  0  0  0  0  0  0  0  0  0  0
   19.2830  -24.2610  -11.6430 N   0  0  0  0  0  0  0  0  0  0  0  0
   20.3140  -24.9830  -10.8380 C   0  0  0  0  0  0  0  0  0  0  0  0
   21.5850  -25.3220  -11.6180 C   0  0  0  0  0  0  0  0  0  0  0  0
   22.8180  -24.9030  -10.8030 C   0  0  0  0  0  0  0  0  0  0  0  0
   24.1150  -25.4830  -11.3980 C   0  0  0  0  0  0  0  0  0  0  0  0
   24.0560  -26.9870  -11.5970 C   0  0  0  0  0  0  0  0  0  0  0  0
   22.9030  -27.3450  -12.5350 C   0  0  0  0  0  0  0  0  0  0  0  0
   21.5790  -26.8360  -11.9570 C   0  0  0  0  0  0  0  0  0  0  0  0
   13.7358  -24.6986  -17.4212 H   0  0  0  0  0  0  0  0  0  0  0  0
   14.8543  -25.4504  -15.3152 H   0  0  0  0  0  0  0  0  0  0  0  0
   13.1616  -20.7591  -15.7016 H   0  0  0  0  0  0  0  0  0  0  0  0
   14.2570  -21.5355  -13.5990 H   0  0  0  0  0  0  0  0  0  0  0  0
   14.6314  -23.5625  -12.2984 H   0  0  0  0  0  0  0  0  0  0  0  0
   15.3293  -25.0436  -13.2360 H   0  0  0  0  0  0  0  0  0  0  0  0
   17.1412  -25.1584  -14.1613 H   0  0  0  0  0  0  0  0  0  0  0  0
   18.1402  -23.6403  -14.3407 H   0  0  0  0  0  0  0  0  0  0  0  0
   18.5154  -26.0012  -12.5353 H   0  0  0  0  0  0  0  0  0  0  0  0
   19.7041  -25.0020  -13.5327 H   0  0  0  0  0  0  0  0  0  0  0  0
   17.6163  -22.2444  -14.8805 H   0  0  0  0  0  0  0  0  0  0  0  0
   17.7224  -19.4796  -12.5318 H   0  0  0  0  0  0  0  0  0  0  0  0
   18.9298  -18.1224  -15.2989 H   0  0  0  0  0  0  0  0  0  0  0  0
   16.1129  -23.5123  -10.6773 H   0  0  0  0  0  0  0  0  0  0  0  0
   16.5593  -25.1666  -11.3375 H   0  0  0  0  0  0  0  0  0  0  0  0
   18.3140  -22.9750  -10.3014 H   0  0  0  0  0  0  0  0  0  0  0  0
   18.2461  -24.7664   -9.9181 H   0  0  0  0  0  0  0  0  0  0  0  0
   20.5914  -24.3495   -9.9826 H   0  0  0  0  0  0  0  0  0  0  0  0
   19.8654  -25.9385  -10.5286 H   0  0  0  0  0  0  0  0  0  0  0  0
   21.6223  -24.7664  -12.5667 H   0  0  0  0  0  0  0  0  0  0  0  0
   22.8869  -23.8052  -10.7988 H   0  0  0  0  0  0  0  0  0  0  0  0
   22.7037  -25.2934   -9.7810 H   0  0  0  0  0  0  0  0  0  0  0  0
   24.2966  -25.0073  -12.3731 H   0  0  0  0  0  0  0  0  0  0  0  0
   24.9255  -25.2773  -10.6833 H   0  0  0  0  0  0  0  0  0  0  0  0
   25.0034  -27.3340  -12.0352 H   0  0  0  0  0  0  0  0  0  0  0  0
   23.8948  -27.4741  -10.6240 H   0  0  0  0  0  0  0  0  0  0  0  0
   23.0745  -26.8797  -13.5169 H   0  0  0  0  0  0  0  0  0  0  0  0
   22.8525  -28.4385  -12.6436 H   0  0  0  0  0  0  0  0  0  0  0  0
   21.3644  -27.3970  -11.0354 H   0  0  0  0  0  0  0  0  0  0  0  0
   20.8120  -26.9882  -12.7306 H   0  0  0  0  0  0  0  0  0  0  0  0
  1  2  1  0
  2  3  2  0
  2  5  1  0
  3  4  1  0
  4  7  2  0
  5  6  2  0
  6  7  1  0
  7  8  1  0
  8  9  1  0
  9 10  1  0
  9 12  1  0
  9 20  1  0
 10 11  1  0
 11 22  1  0
 12 13  2  0
 12 14  1  0
 14 15  2  0
 15 16  1  0
 15 17  1  0
 17 18  1  0
 17 19  2  0
 20 21  1  0
 21 22  1  0
 22 23  1  0
 23 24  1  0
 24 25  1  0
 24 29  1  0
 25 26  1  0
 26 27  1  0
 27 28  1  0
 28 29  1  0
  3 30  1  0
  4 31  1  0
  5 32  1  0
  6 33  1  0
  8 34  1  0
  8 35  1  0
 10 36  1  0
 10 37  1  0
 11 38  1  0
 11 39  1  0
 14 40  1  0
 16 41  1  0
 18 42  1  0
 20 43  1  0
 20 44  1  0
 21 45  1  0
 21 46  1  0
 23 47  1  0
 23 48  1  0
 24 49  1  0
 25 50  1  0
 25 51  1  0
 26 52  1  0
 26 53  1  0
 27 54  1  0
 27 55  1  0
 28 56  1  0
 28 57  1  0
 29 58  1  0
 29 59  1  0
A    1
CL2
A    2
C19
A    3
C18
A    4
C17
A    5
C20
A    6
C21
A    7
C16
A    8
C15
A    9
C11
A   10
C10
A   11
C9
A   12
C14
A   13
O27
A   14
C22
A   15
C23
A   16
O28
A   17
C24
A   18
O26
A   19
O25
A   20
C12
A   21
C13
A   22
N8
A   23
C7
A   24
C2
A   25
C3
A   26
C4
A   27
C5
A   28
C6
A   29
C1
M  END
