4AVI_XNS_A_201
     RDKit          3D

 54 54  0  0  0  0  0  0  0  0999 V2000
   20.7770  -68.2680   20.7670 C   0  0  0  0  0  0  0  0  0  0  0  0
   20.9030  -68.1540   18.3350 O   0  0  0  0  0  0  0  0  0  0  0  0
   21.1560  -68.7920   19.3580 C   0  0  0  0  0  0  0  0  0  0  0  0
   21.8150  -69.9930   19.3540 O   0  0  0  0  0  0  0  0  0  0  0  0
   22.1470  -70.3980   18.0200 C   0  0  0  0  0  0  0  0  0  0  0  0
   20.7560  -66.7280   20.8820 C   0  0  0  0  0  0  0  0  0  0  0  0
   20.4520  -66.3860   22.3530 C   0  0  0  0  0  0  0  0  0  0  0  0
   19.0810  -66.8750   22.8370 C   0  0  0  0  0  0  0  0  0  0  0  0
   17.9060  -66.1570   22.1360 C   0  0  0  0  0  0  0  0  0  0  0  0
   16.6020  -66.7540   22.6960 C   0  0  0  0  0  0  0  0  0  0  0  0
   15.3200  -66.0500   22.2220 C   0  0  0  0  0  0  0  0  0  0  0  0
   15.2810  -64.5750   22.7270 C   0  0  0  0  0  0  0  0  0  0  0  0
   14.0620  -63.9800   22.2660 O   0  0  0  0  0  0  0  0  0  0  0  0
   13.6980  -62.5980   22.5930 C   0  0  0  0  0  0  0  0  0  0  0  0
   12.3790  -62.3170   21.9050 C   0  0  0  0  0  0  0  0  0  0  0  0
   11.9260  -60.9990   22.1630 O   0  0  0  0  0  0  0  0  0  0  0  0
   12.5790  -62.3810   20.3950 C   0  0  0  0  0  0  0  0  0  0  0  0
   11.3510  -62.0510   19.7200 O   0  0  0  0  0  0  0  0  0  0  0  0
   13.6060  -61.3150   20.0550 C   0  0  0  0  0  0  0  0  0  0  0  0
   13.8670  -61.4120   18.6490 O   0  0  0  0  0  0  0  0  0  0  0  0
   14.8920  -61.5750   20.7660 C   0  0  0  0  0  0  0  0  0  0  0  0
   14.6700  -61.5640   22.1900 O   0  0  0  0  0  0  0  0  0  0  0  0
   15.9290  -60.5270   20.3690 C   0  0  0  0  0  0  0  0  0  0  0  0
   15.4860  -59.2320   20.7580 O   0  0  0  0  0  0  0  0  0  0  0  0
   19.7755  -68.6470   21.0187 H   0  0  0  0  0  0  0  0  0  0  0  0
   21.5532  -68.6274   21.4586 H   0  0  0  0  0  0  0  0  0  0  0  0
   22.8440  -71.2482   18.0577 H   0  0  0  0  0  0  0  0  0  0  0  0
   21.2313  -70.6977   17.4892 H   0  0  0  0  0  0  0  0  0  0  0  0
   22.6205  -69.5589   17.4892 H   0  0  0  0  0  0  0  0  0  0  0  0
   21.7338  -66.3150   20.5932 H   0  0  0  0  0  0  0  0  0  0  0  0
   19.9949  -66.2966   20.2151 H   0  0  0  0  0  0  0  0  0  0  0  0
   21.2263  -66.8485   22.9827 H   0  0  0  0  0  0  0  0  0  0  0  0
   20.4435  -65.2887   22.4293 H   0  0  0  0  0  0  0  0  0  0  0  0
   19.0025  -67.9539   22.6376 H   0  0  0  0  0  0  0  0  0  0  0  0
   19.0109  -66.6518   23.9118 H   0  0  0  0  0  0  0  0  0  0  0  0
   17.9459  -65.0779   22.3455 H   0  0  0  0  0  0  0  0  0  0  0  0
   17.9603  -66.2960   21.0462 H   0  0  0  0  0  0  0  0  0  0  0  0
   16.5478  -67.8088   22.3885 H   0  0  0  0  0  0  0  0  0  0  0  0
   16.6434  -66.6241   23.7875 H   0  0  0  0  0  0  0  0  0  0  0  0
   15.2905  -66.0559   21.1224 H   0  0  0  0  0  0  0  0  0  0  0  0
   14.4508  -66.5863   22.6305 H   0  0  0  0  0  0  0  0  0  0  0  0
   15.3129  -64.5561   23.8264 H   0  0  0  0  0  0  0  0  0  0  0  0
   16.1473  -64.0169   22.3423 H   0  0  0  0  0  0  0  0  0  0  0  0
   13.6565  -62.5332   23.6903 H   0  0  0  0  0  0  0  0  0  0  0  0
   11.6579  -63.0587   22.2789 H   0  0  0  0  0  0  0  0  0  0  0  0
   11.8758  -60.8528   23.1409 H   0  0  0  0  0  0  0  0  0  0  0  0
   12.8976  -63.3878   20.0870 H   0  0  0  0  0  0  0  0  0  0  0  0
   10.6469  -61.8618   20.3897 H   0  0  0  0  0  0  0  0  0  0  0  0
   13.2212  -60.3272   20.3487 H   0  0  0  0  0  0  0  0  0  0  0  0
   14.7853  -61.7533   18.5066 H   0  0  0  0  0  0  0  0  0  0  0  0
   15.2759  -62.5651   20.4791 H   0  0  0  0  0  0  0  0  0  0  0  0
   16.8830  -60.7510   20.8688 H   0  0  0  0  0  0  0  0  0  0  0  0
   16.0652  -60.5492   19.2777 H   0  0  0  0  0  0  0  0  0  0  0  0
   15.4659  -59.1731   21.7460 H   0  0  0  0  0  0  0  0  0  0  0  0
  1  3  1  0
  1  6  1  0
  2  3  2  0
  3  4  1  0
  4  5  1  0
  6  7  1  0
  7  8  1  0
  8  9  1  0
  9 10  1  0
 10 11  1  0
 11 12  1  0
 12 13  1  0
 13 14  1  0
 14 15  1  0
 14 22  1  0
 15 16  1  0
 15 17  1  0
 17 18  1  0
 17 19  1  0
 19 20  1  0
 19 21  1  0
 21 22  1  0
 21 23  1  0
 23 24  1  0
  1 25  1  0
  1 26  1  0
  5 27  1  0
  5 28  1  0
  5 29  1  0
  6 30  1  0
  6 31  1  0
  7 32  1  0
  7 33  1  0
  8 34  1  0
  8 35  1  0
  9 36  1  0
  9 37  1  0
 10 38  1  0
 10 39  1  0
 11 40  1  0
 11 41  1  0
 12 42  1  0
 12 43  1  0
 14 44  1  0
 15 45  1  0
 16 46  1  0
 17 47  1  0
 18 48  1  0
 19 49  1  0
 20 50  1  0
 21 51  1  0
 23 52  1  0
 23 53  1  0
 24 54  1  0
A    1
C14
A    2
O7
A    3
C15
A    4
O8
A    5
C16
A    6
C13
A    7
C12
A    8
C11
A    9
C10
A   10
C9
A   11
C8
A   12
C7
A   13
O1
A   14
C1
A   15
C2
A   16
O2
A   17
C3
A   18
O3
A   19
C4
A   20
O4
A   21
C5
A   22
O5
A   23
C6
A   24
O6
M  END
