4AVJ_J73_A_201
     RDKit          3D

 50 52  0  0  0  0  0  0  0  0999 V2000
  -72.5050  -13.5670  -20.0440 O   0  0  0  0  0  0  0  0  0  0  0  0
  -71.5710  -14.4940  -19.9570 C   0  0  0  0  0  0  0  0  0  0  0  0
  -70.4220  -14.5020  -20.9250 C   0  0  0  0  0  0  0  0  0  0  0  0
  -69.9440  -13.4350  -21.6360 N   0  0  0  0  0  0  0  0  0  0  0  0
  -68.8620  -13.8810  -22.4120 N   0  0  0  0  0  0  0  0  0  0  0  0
  -69.6350  -15.6320  -21.2530 C   0  0  0  0  0  0  0  0  0  0  0  0
  -68.6950  -15.2300  -22.1600 N   0  0  0  0  0  0  0  0  0  0  0  0
  -67.6890  -16.0760  -22.7630 C   0  0  0  0  0  0  0  0  0  0  0  0
  -67.6980  -17.5580  -22.4730 C   0  0  0  0  0  0  0  0  0  0  0  0
  -66.3710  -18.1870  -22.4430 C   0  0  0  0  0  0  0  0  0  0  0  0
  -65.2910  -17.5630  -23.0820 C   0  0  0  0  0  0  0  0  0  0  0  0
  -64.0030  -18.0960  -23.1030 C   0  0  0  0  0  0  0  0  0  0  0  0
  -63.8110  -19.3190  -22.4350 C   0  0  0  0  0  0  0  0  0  0  0  0
  -64.9380  -19.9700  -21.7900 C   0  0  0  0  0  0  0  0  0  0  0  0
  -66.1820  -19.4330  -21.7810 C   0  0  0  0  0  0  0  0  0  0  0  0
  -62.6360  -19.9880  -22.3500 O   0  0  0  0  0  0  0  0  0  0  0  0
  -61.3190  -19.4260  -22.5670 C   0  0  0  0  0  0  0  0  0  0  0  0
  -60.5200  -20.4710  -21.8420 C   0  0  0  0  0  0  0  0  0  0  0  0
  -59.1730  -20.4540  -22.3360 O   0  0  0  0  0  0  0  0  0  0  0  0
  -60.6420  -20.2560  -20.3590 C   0  0  0  0  0  0  0  0  0  0  0  0
  -59.9390  -21.2960  -19.7070 O   0  0  0  0  0  0  0  0  0  0  0  0
  -60.2420  -18.9650  -19.9730 C   0  0  0  0  0  0  0  0  0  0  0  0
  -60.3270  -18.8360  -18.5870 O   0  0  0  0  0  0  0  0  0  0  0  0
  -61.1320  -17.9450  -20.6250 C   0  0  0  0  0  0  0  0  0  0  0  0
  -61.1120  -18.1420  -22.1010 O   0  0  0  0  0  0  0  0  0  0  0  0
  -60.6620  -16.5640  -20.3580 C   0  0  0  0  0  0  0  0  0  0  0  0
  -59.3680  -16.2860  -20.7740 O   0  0  0  0  0  0  0  0  0  0  0  0
  -72.7824  -13.2917  -19.1344 H   0  0  0  0  0  0  0  0  0  0  0  0
  -71.1361  -14.4117  -18.9500 H   0  0  0  0  0  0  0  0  0  0  0  0
  -72.1125  -15.4194  -20.2029 H   0  0  0  0  0  0  0  0  0  0  0  0
  -69.7577  -16.6486  -20.8511 H   0  0  0  0  0  0  0  0  0  0  0  0
  -67.7852  -15.9618  -23.8528 H   0  0  0  0  0  0  0  0  0  0  0  0
  -66.7498  -15.7277  -22.3086 H   0  0  0  0  0  0  0  0  0  0  0  0
  -68.1722  -17.7121  -21.4925 H   0  0  0  0  0  0  0  0  0  0  0  0
  -68.2473  -18.0323  -23.2996 H   0  0  0  0  0  0  0  0  0  0  0  0
  -65.4685  -16.6049  -23.5924 H   0  0  0  0  0  0  0  0  0  0  0  0
  -63.1761  -17.5845  -23.6175 H   0  0  0  0  0  0  0  0  0  0  0  0
  -64.7753  -20.9360  -21.2897 H   0  0  0  0  0  0  0  0  0  0  0  0
  -67.0177  -19.9427  -21.2791 H   0  0  0  0  0  0  0  0  0  0  0  0
  -61.0707  -19.2575  -23.6253 H   0  0  0  0  0  0  0  0  0  0  0  0
  -60.9075  -21.4829  -22.0316 H   0  0  0  0  0  0  0  0  0  0  0  0
  -58.5419  -20.4460  -21.5733 H   0  0  0  0  0  0  0  0  0  0  0  0
  -61.6972  -20.3052  -20.0522 H   0  0  0  0  0  0  0  0  0  0  0  0
  -60.0159  -21.1822  -18.7266 H   0  0  0  0  0  0  0  0  0  0  0  0
  -59.2013  -18.8017  -20.2896 H   0  0  0  0  0  0  0  0  0  0  0  0
  -59.8367  -19.5801  -18.1556 H   0  0  0  0  0  0  0  0  0  0  0  0
  -62.1429  -18.0766  -20.2118 H   0  0  0  0  0  0  0  0  0  0  0  0
  -61.3411  -15.8686  -20.8731 H   0  0  0  0  0  0  0  0  0  0  0  0
  -60.6602  -16.4501  -19.2639 H   0  0  0  0  0  0  0  0  0  0  0  0
  -58.7866  -16.1611  -19.9825 H   0  0  0  0  0  0  0  0  0  0  0  0
  1  2  1  0
  2  3  1  0
  3  4  1  0
  3  6  2  0
  4  5  2  0
  5  7  1  0
  6  7  1  0
  7  8  1  0
  8  9  1  0
  9 10  1  0
 10 11  2  0
 10 15  1  0
 11 12  1  0
 12 13  2  0
 13 14  1  0
 13 16  1  0
 14 15  2  0
 16 17  1  0
 17 18  1  0
 17 25  1  0
 18 19  1  0
 18 20  1  0
 20 21  1  0
 20 22  1  0
 22 23  1  0
 22 24  1  0
 24 25  1  0
 24 26  1  0
 26 27  1  0
  1 28  1  0
  2 29  1  0
  2 30  1  0
  6 31  1  0
  8 32  1  0
  8 33  1  0
  9 34  1  0
  9 35  1  0
 11 36  1  0
 12 37  1  0
 14 38  1  0
 15 39  1  0
 17 40  1  0
 18 41  1  0
 19 42  1  0
 20 43  1  0
 21 44  1  0
 22 45  1  0
 23 46  1  0
 24 47  1  0
 26 48  1  0
 26 49  1  0
 27 50  1  0
A    1
O42
A    2
C41
A    3
C39
A    4
N38
A    5
N37
A    6
C40
A    7
N36
A    8
C35
A    9
C34
A   10
C16
A   11
C17
A   12
C18
A   13
C13
A   14
C14
A   15
C15
A   16
O1
A   17
C1
A   18
C2
A   19
O2
A   20
C3
A   21
O3
A   22
C4
A   23
O4
A   24
C5
A   25
O5
A   26
C6
A   27
O6
M  END
