1NX8_N7P_B_290
     RDKit          3D

  8  7  0  0  0  0  0  0  0  0999 V2000
   20.4090   76.2970   63.2890 C   0  0  0  0  0  0  0  0  0  0  0  0
   19.6830   76.7220   62.0290 C   0  0  0  0  0  0  0  0  0  0  0  0
   19.8404   76.6299   64.1698 H   0  0  0  0  0  0  0  0  0  0  0  0
   20.5031   75.2012   63.3060 H   0  0  0  0  0  0  0  0  0  0  0  0
   21.4106   76.7514   63.3060 H   0  0  0  0  0  0  0  0  0  0  0  0
   18.7629   77.2606   62.2999 H   0  0  0  0  0  0  0  0  0  0  0  0
   20.3332   77.3821   61.4361 H   0  0  0  0  0  0  0  0  0  0  0  0
   19.4257   75.8319   61.4361 H   0  0  0  0  0  0  0  0  0  0  0  0
  2  1  1  0
  1  3  1  0
  1  4  1  0
  1  5  1  0
  2  6  1  0
  2  7  1  0
  2  8  1  0
A    1
C1
A    2
C2
M  END
