1HYI_ITP_A_68
     RDKit          3D

 34 34  0  0  0  0  0  0  0  0999 V2000
    2.7560    2.8290    1.1930 C   0  0  0  0  0  0  0  0  0  0  0  0
    3.2680    3.9960    2.0000 O   0  0  0  0  0  0  0  0  0  0  0  0
    2.6220    1.4650    1.8240 C   0  0  0  0  0  0  0  0  0  0  0  0
    3.8930    0.8080    2.0790 O   0  0  0  0  0  0  0  0  0  0  0  0
    1.7560    0.6880    0.8770 C   0  0  0  0  0  0  0  0  0  0  0  0
    1.4290   -0.5390    1.4710 O   0  0  0  0  0  0  0  0  0  0  0  0
    2.4390    0.5090   -0.5680 C   0  0  0  0  0  0  0  0  0  0  0  0
    1.4360   -0.0020   -1.4280 O   0  0  0  0  0  0  0  0  0  0  0  0
    2.8660    1.8220   -1.1710 C   0  0  0  0  0  0  0  0  0  0  0  0
    3.8570    1.5080   -2.2130 O   0  0  0  0  0  0  0  0  0  0  0  0
    3.5470    2.7630   -0.1440 C   0  0  0  0  0  0  0  0  0  0  0  0
    3.5020    4.0340   -0.6860 O   0  0  0  0  0  0  0  0  0  0  0  0
    2.8340    5.5900    1.8350 P   0  0  0  0  0  0  0  0  0  0  0  0
    3.9750    6.3470    1.3130 O   0  0  0  0  0  0  0  0  0  0  0  0
    2.4370    6.1080    3.1730 O   0  0  0  0  0  0  0  0  0  0  0  0
    1.6710    5.3160    0.9260 O   0  0  0  0  0  0  0  0  0  0  0  0
    0.1340   -1.3070    1.1480 P   0  0  0  0  0  0  0  0  0  0  0  0
    0.2320   -2.3090    2.1250 O   0  0  0  0  0  0  0  0  0  0  0  0
   -0.8270   -0.2310    1.2750 O   0  0  0  0  0  0  0  0  0  0  0  0
    0.2950   -1.7340   -0.2070 O   0  0  0  0  0  0  0  0  0  0  0  0
    1.6910    3.0713    1.0621 H   0  0  0  0  0  0  0  0  0  0  0  0
    2.1786    1.5408    2.8278 H   0  0  0  0  0  0  0  0  0  0  0  0
    4.0361    0.7340    3.0558 H   0  0  0  0  0  0  0  0  0  0  0  0
    0.8306    1.2521    0.6886 H   0  0  0  0  0  0  0  0  0  0  0  0
    3.3217   -0.1375   -0.4549 H   0  0  0  0  0  0  0  0  0  0  0  0
    0.6975   -0.3783   -0.8866 H   0  0  0  0  0  0  0  0  0  0  0  0
    1.9724    2.3371   -1.5533 H   0  0  0  0  0  0  0  0  0  0  0  0
    4.7091    1.2380   -1.7874 H   0  0  0  0  0  0  0  0  0  0  0  0
    4.5638    2.3950    0.0577 H   0  0  0  0  0  0  0  0  0  0  0  0
    3.4783    4.7031    0.0433 H   0  0  0  0  0  0  0  0  0  0  0  0
    4.5090    6.7013    2.0676 H   0  0  0  0  0  0  0  0  0  0  0  0
    2.8593    5.5570    3.8788 H   0  0  0  0  0  0  0  0  0  0  0  0
    0.1918   -1.8978    3.0246 H   0  0  0  0  0  0  0  0  0  0  0  0
    0.6442   -2.6602   -0.2218 H   0  0  0  0  0  0  0  0  0  0  0  0
  1  2  1  0
  1  3  1  0
  1 11  1  0
  2 13  1  0
  3  4  1  0
  3  5  1  0
  5  6  1  0
  5  7  1  0
  6 17  1  0
  7  8  1  0
  7  9  1  0
  9 10  1  0
  9 11  1  0
 11 12  1  0
 13 14  1  0
 13 15  1  0
 13 16  2  0
 17 18  1  0
 17 19  2  0
 17 20  1  0
  1 21  1  0
  3 22  1  0
  4 23  1  0
  5 24  1  0
  7 25  1  0
  8 26  1  0
  9 27  1  0
 10 28  1  0
 11 29  1  0
 12 30  1  0
 14 31  1  0
 15 32  1  0
 18 33  1  0
 20 34  1  0
A    1
C1
A    2
O1
A    3
C2
A    4
O2
A    5
C3
A    6
O3
A    7
C4
A    8
O4
A    9
C5
A   10
O5
A   11
C6
A   12
O6
A   13
P1
A   14
OP1
A   15
OP2
A   16
OP3
A   17
P3
A   18
O10
A   19
O11
A   20
O12
M  END
