4AW0_MJF_A_600
     RDKit          3D

 39 40  0  0  0  0  0  0  0  0999 V2000
  -12.4940   38.5350   -8.7340 O   0  0  0  0  0  0  0  0  0  0  0  0
  -12.1400   38.7090   -9.8930 C   0  0  0  0  0  0  0  0  0  0  0  0
  -13.1660   38.8490  -10.9780 C   0  0  0  0  0  0  0  0  0  0  0  0
  -12.8340   39.4400  -12.1920 C   0  0  0  0  0  0  0  0  0  0  0  0
  -13.7980   39.5420  -13.1910 C   0  0  0  0  0  0  0  0  0  0  0  0
  -15.0750   39.0350  -12.9790 C   0  0  0  0  0  0  0  0  0  0  0  0
  -16.3300   39.1210  -14.2560 Cl  0  0  0  0  0  0  0  0  0  0  0  0
  -15.4040   38.4320  -11.7760 C   0  0  0  0  0  0  0  0  0  0  0  0
  -14.4430   38.3460  -10.7810 C   0  0  0  0  0  0  0  0  0  0  0  0
  -10.6680   38.7100  -10.2520 C   0  0  0  0  0  0  0  0  0  0  0  0
   -9.8470   37.8160   -9.3080 C   0  0  0  0  0  0  0  0  0  0  0  0
   -8.3490   37.9860   -9.6090 C   0  0  0  0  0  0  0  0  0  0  0  0
   -7.8280   39.3170   -9.1510 C   0  0  0  0  0  0  0  0  0  0  0  0
   -6.6900   39.6610   -9.5350 O   0  0  0  0  0  0  0  0  0  0  0  0
   -8.5210   40.0270   -8.4000 O   0  0  0  0  0  0  0  0  0  0  0  0
   -7.4930   36.9220   -8.9900 C   0  0  0  0  0  0  0  0  0  0  0  0
   -7.7820   36.5230   -7.8320 O   0  0  0  0  0  0  0  0  0  0  0  0
   -6.5030   36.5040   -9.6410 O   0  0  0  0  0  0  0  0  0  0  0  0
  -10.2530   36.3880   -9.4320 C   0  0  0  0  0  0  0  0  0  0  0  0
  -11.0930   35.7930   -8.4910 C   0  0  0  0  0  0  0  0  0  0  0  0
  -11.4690   34.4530   -8.6300 C   0  0  0  0  0  0  0  0  0  0  0  0
  -10.9850   33.6670   -9.6780 C   0  0  0  0  0  0  0  0  0  0  0  0
  -10.1290   34.2600  -10.6040 C   0  0  0  0  0  0  0  0  0  0  0  0
   -9.7660   35.5990  -10.4720 C   0  0  0  0  0  0  0  0  0  0  0  0
  -11.8173   39.8240  -12.3617 H   0  0  0  0  0  0  0  0  0  0  0  0
  -13.5494   40.0237  -14.1481 H   0  0  0  0  0  0  0  0  0  0  0  0
  -16.4137   38.0272  -11.6128 H   0  0  0  0  0  0  0  0  0  0  0  0
  -14.6970   37.8720   -9.8214 H   0  0  0  0  0  0  0  0  0  0  0  0
  -10.5528   38.3403  -11.2816 H   0  0  0  0  0  0  0  0  0  0  0  0
  -10.2945   39.7402  -10.1565 H   0  0  0  0  0  0  0  0  0  0  0  0
  -10.0421   38.1257   -8.2707 H   0  0  0  0  0  0  0  0  0  0  0  0
   -8.2815   37.9062  -10.7040 H   0  0  0  0  0  0  0  0  0  0  0  0
   -5.9869   39.8735   -8.8713 H   0  0  0  0  0  0  0  0  0  0  0  0
   -7.4329   37.0050   -7.0409 H   0  0  0  0  0  0  0  0  0  0  0  0
  -11.4611   36.3797   -7.6364 H   0  0  0  0  0  0  0  0  0  0  0  0
  -12.1603   34.0090   -7.8986 H   0  0  0  0  0  0  0  0  0  0  0  0
  -11.2716   32.6090   -9.7700 H   0  0  0  0  0  0  0  0  0  0  0  0
   -9.7375   33.6677  -11.4442 H   0  0  0  0  0  0  0  0  0  0  0  0
   -9.0785   36.0437  -11.2065 H   0  0  0  0  0  0  0  0  0  0  0  0
  1  2  2  0
  2  3  1  0
  2 10  1  0
  3  4  2  0
  3  9  1  0
  4  5  1  0
  5  6  2  0
  6  7  1  0
  6  8  1  0
  8  9  2  0
 10 11  1  0
 11 12  1  0
 11 19  1  0
 12 13  1  0
 12 16  1  0
 13 14  1  0
 13 15  2  0
 16 17  1  0
 16 18  2  0
 19 20  2  0
 19 24  1  0
 20 21  1  0
 21 22  2  0
 22 23  1  0
 23 24  2  0
  4 25  1  0
  5 26  1  0
  8 27  1  0
  9 28  1  0
 10 29  1  0
 10 30  1  0
 11 31  1  0
 12 32  1  0
 14 33  1  0
 17 34  1  0
 20 35  1  0
 21 36  1  0
 22 37  1  0
 23 38  1  0
 24 39  1  0
A    1
O18
A    2
C8
A    3
C2
A    4
C3
A    5
C4
A    6
C5
A    7
CL7
A    8
C6
A    9
C1
A   10
C9
A   11
C10
A   12
C11
A   13
C15
A   14
O17
A   15
O16
A   16
C12
A   17
O14
A   18
O13
A   19
C19
A   20
C24
A   21
C23
A   22
C22
A   23
C21
A   24
C20
M  END
