4AW1_21O_A_1361
     RDKit          3D

 42 43  0  0  0  0  0  0  0  0999 V2000
   -6.4800   39.5070   -9.7290 O   0  0  0  0  0  0  0  0  0  0  0  0
   -7.3830   39.0280   -9.0040 C   0  0  0  0  0  0  0  0  0  0  0  0
   -7.8530   39.6180   -8.0020 O   0  0  0  0  0  0  0  0  0  0  0  0
   -7.9200   37.6670   -9.3390 C   0  0  0  0  0  0  0  0  0  0  0  0
   -7.0090   36.6230   -8.7440 C   0  0  0  0  0  0  0  0  0  0  0  0
   -7.1710   36.2250   -7.5630 O   0  0  0  0  0  0  0  0  0  0  0  0
   -6.0790   36.2020   -9.4720 O   0  0  0  0  0  0  0  0  0  0  0  0
   -9.3800   37.5790   -8.8830 C   0  0  0  0  0  0  0  0  0  0  0  0
   -9.8530   36.1710   -8.9400 C   0  0  0  0  0  0  0  0  0  0  0  0
  -10.6640   35.6700   -7.9250 C   0  0  0  0  0  0  0  0  0  0  0  0
  -11.1000   34.3460   -7.9890 C   0  0  0  0  0  0  0  0  0  0  0  0
  -10.7270   33.5350   -9.0600 C   0  0  0  0  0  0  0  0  0  0  0  0
   -9.9190   34.0360  -10.0800 C   0  0  0  0  0  0  0  0  0  0  0  0
   -9.4940   35.3570  -10.0150 C   0  0  0  0  0  0  0  0  0  0  0  0
  -10.2270   38.4820   -9.7900 C   0  0  0  0  0  0  0  0  0  0  0  0
  -11.6680   38.5740   -9.3320 C   0  0  0  0  0  0  0  0  0  0  0  0
  -11.9410   38.4370   -8.1500 O   0  0  0  0  0  0  0  0  0  0  0  0
  -12.7570   38.8300  -10.3380 C   0  0  0  0  0  0  0  0  0  0  0  0
  -14.0790   38.5360  -10.0180 C   0  0  0  0  0  0  0  0  0  0  0  0
  -15.1010   38.7530  -10.9440 C   0  0  0  0  0  0  0  0  0  0  0  0
  -14.8040   39.2810  -12.1940 C   0  0  0  0  0  0  0  0  0  0  0  0
  -15.9140   39.5130  -13.1920 C   0  0  0  0  0  0  0  0  0  0  0  0
  -16.6830   38.4410  -13.2490 F   0  0  0  0  0  0  0  0  0  0  0  0
  -16.6610   40.5500  -12.8360 F   0  0  0  0  0  0  0  0  0  0  0  0
  -15.3950   39.7420  -14.3840 F   0  0  0  0  0  0  0  0  0  0  0  0
  -13.4810   39.5780  -12.5190 C   0  0  0  0  0  0  0  0  0  0  0  0
  -12.4600   39.3590  -11.5900 C   0  0  0  0  0  0  0  0  0  0  0  0
   -7.6117   39.3151   -7.0909 H   0  0  0  0  0  0  0  0  0  0  0  0
   -7.9306   37.4811  -10.4231 H   0  0  0  0  0  0  0  0  0  0  0  0
   -6.9311   36.8145   -6.8047 H   0  0  0  0  0  0  0  0  0  0  0  0
   -9.4732   37.9180   -7.8407 H   0  0  0  0  0  0  0  0  0  0  0  0
  -10.9580   36.3115   -7.0812 H   0  0  0  0  0  0  0  0  0  0  0  0
  -11.7403   33.9407   -7.1916 H   0  0  0  0  0  0  0  0  0  0  0  0
  -11.0729   32.4916   -9.1006 H   0  0  0  0  0  0  0  0  0  0  0  0
   -9.6226   33.3950  -10.9233 H   0  0  0  0  0  0  0  0  0  0  0  0
   -8.8669   35.7663  -10.8207 H   0  0  0  0  0  0  0  0  0  0  0  0
   -9.7911   39.4919   -9.7890 H   0  0  0  0  0  0  0  0  0  0  0  0
  -10.2235   38.0418  -10.7981 H   0  0  0  0  0  0  0  0  0  0  0  0
  -14.3212   38.1285   -9.0254 H   0  0  0  0  0  0  0  0  0  0  0  0
  -16.1409   38.5060  -10.6839 H   0  0  0  0  0  0  0  0  0  0  0  0
  -13.2397   39.9866  -13.5114 H   0  0  0  0  0  0  0  0  0  0  0  0
  -11.4197   39.6053  -11.8492 H   0  0  0  0  0  0  0  0  0  0  0  0
  1  2  2  0
  2  3  1  0
  2  4  1  0
  4  5  1  0
  4  8  1  0
  5  6  1  0
  5  7  2  0
  8  9  1  0
  8 15  1  0
  9 10  2  0
  9 14  1  0
 10 11  1  0
 11 12  2  0
 12 13  1  0
 13 14  2  0
 15 16  1  0
 16 17  2  0
 16 18  1  0
 18 19  2  0
 18 27  1  0
 19 20  1  0
 20 21  2  0
 21 22  1  0
 21 26  1  0
 22 23  1  0
 22 24  1  0
 22 25  1  0
 26 27  2  0
  3 28  1  0
  4 29  1  0
  6 30  1  0
  8 31  1  0
 10 32  1  0
 11 33  1  0
 12 34  1  0
 13 35  1  0
 14 36  1  0
 15 37  1  0
 15 38  1  0
 19 39  1  0
 20 40  1  0
 26 41  1  0
 27 42  1  0
A    1
O43
A    2
C41
A    3
O42
A    4
CAW
A    5
CAR
A    6
OAE
A    7
OAB
A    8
CAX
A    9
CAV
A   10
CAJ
A   11
CAH
A   12
CAG
A   13
CAI
A   14
CAK
A   15
CAP
A   16
CAS
A   17
OAC
A   18
CAU
A   19
CAO
A   20
CAM
A   21
CAT
A   22
C36
A   23
F39
A   24
F38
A   25
F37
A   26
CAL
A   27
CAN
M  END
