2KDH_KDH_A_1
     RDKit          3D

 51 54  0  0  0  0  0  0  0  0999 V2000
    9.7290    8.0200  -10.4520 O   0  0  0  0  0  0  0  0  0  0  0  0
    8.9990    8.9490   -9.7740 C   0  0  0  0  0  0  0  0  0  0  0  0
    7.9120    9.6100  -10.4460 C   0  0  0  0  0  0  0  0  0  0  0  0
    7.6290    9.2950  -11.7470 O   0  0  0  0  0  0  0  0  0  0  0  0
    7.1120   10.6050   -9.7640 C   0  0  0  0  0  0  0  0  0  0  0  0
    6.0910   11.2100  -10.4360 O   0  0  0  0  0  0  0  0  0  0  0  0
    7.4070   10.9400   -8.3900 C   0  0  0  0  0  0  0  0  0  0  0  0
    8.4910   10.2690   -7.7060 C   0  0  0  0  0  0  0  0  0  0  0  0
    8.7190   10.6120   -6.3660 C   0  0  0  0  0  0  0  0  0  0  0  0
    9.9450    9.8100   -4.3260 C   0  0  0  0  0  0  0  0  0  0  0  0
   10.3130    8.7170   -3.4590 C   0  0  0  0  0  0  0  0  0  0  0  0
   11.0250    8.9880   -2.2410 C   0  0  0  0  0  0  0  0  0  0  0  0
   11.3170   10.3370   -1.8390 C   0  0  0  0  0  0  0  0  0  0  0  0
   10.9140   11.4400   -2.6870 C   0  0  0  0  0  0  0  0  0  0  0  0
   10.1670   11.1920   -3.8980 C   0  0  0  0  0  0  0  0  0  0  0  0
    9.4390   11.9810   -6.1990 C   0  0  0  0  0  0  0  0  0  0  0  0
   10.6850   12.5270   -8.1650 C   0  0  0  0  0  0  0  0  0  0  0  0
   11.7280   12.1100   -8.9890 C   0  0  0  0  0  0  0  0  0  0  0  0
   12.2010   12.9950  -10.0380 C   0  0  0  0  0  0  0  0  0  0  0  0
   12.3270   10.8120   -8.7970 C   0  0  0  0  0  0  0  0  0  0  0  0
    9.6290   12.2730   -4.6760 C   0  0  0  0  0  0  0  0  0  0  0  0
    9.3890    9.5430   -5.5730 O   0  0  0  0  0  0  0  0  0  0  0  0
   11.4310    7.9510   -1.4500 O   0  0  0  0  0  0  0  0  0  0  0  0
   11.2420   12.7150   -2.3360 O   0  0  0  0  0  0  0  0  0  0  0  0
    9.2990    9.2780   -8.4010 C   0  0  0  0  0  0  0  0  0  0  0  0
   10.7100   12.0110   -6.8960 O   0  0  0  0  0  0  0  0  0  0  0  0
    9.8220   13.3070   -8.5880 O   0  0  0  0  0  0  0  0  0  0  0  0
   13.3890   10.3790   -9.6690 C   0  0  0  0  0  0  0  0  0  0  0  0
   13.9740    9.1490   -9.5270 O   0  0  0  0  0  0  0  0  0  0  0  0
   13.8560   11.2520  -10.7190 C   0  0  0  0  0  0  0  0  0  0  0  0
   14.8570   10.8430  -11.5490 O   0  0  0  0  0  0  0  0  0  0  0  0
   13.2700   12.5660  -10.9030 C   0  0  0  0  0  0  0  0  0  0  0  0
   13.7520   13.3690  -11.8980 O   0  0  0  0  0  0  0  0  0  0  0  0
   10.2579    7.3469   -9.9547 H   0  0  0  0  0  0  0  0  0  0  0  0
    6.9818    8.5746  -11.9523 H   0  0  0  0  0  0  0  0  0  0  0  0
    5.3570   11.6449   -9.9338 H   0  0  0  0  0  0  0  0  0  0  0  0
    6.8104   11.7015   -7.8664 H   0  0  0  0  0  0  0  0  0  0  0  0
    7.7106   10.7224   -5.9405 H   0  0  0  0  0  0  0  0  0  0  0  0
   10.0502    7.6835   -3.7287 H   0  0  0  0  0  0  0  0  0  0  0  0
   11.8435   10.5305   -0.8928 H   0  0  0  0  0  0  0  0  0  0  0  0
    8.8141   12.7657   -6.6504 H   0  0  0  0  0  0  0  0  0  0  0  0
   11.7457   13.9874  -10.1716 H   0  0  0  0  0  0  0  0  0  0  0  0
   11.9744   10.1553   -7.9880 H   0  0  0  0  0  0  0  0  0  0  0  0
    8.6464   12.5351   -4.2567 H   0  0  0  0  0  0  0  0  0  0  0  0
   10.3697   13.0840   -4.6158 H   0  0  0  0  0  0  0  0  0  0  0  0
   11.3971    8.0375   -0.4644 H   0  0  0  0  0  0  0  0  0  0  0  0
   11.3061   12.9643   -1.3801 H   0  0  0  0  0  0  0  0  0  0  0  0
   10.1334    8.7826   -7.8830 H   0  0  0  0  0  0  0  0  0  0  0  0
   14.1473    8.7847   -8.6229 H   0  0  0  0  0  0  0  0  0  0  0  0
   15.7037   10.4970  -11.1703 H   0  0  0  0  0  0  0  0  0  0  0  0
   14.2479   14.1952  -11.6708 H   0  0  0  0  0  0  0  0  0  0  0  0
  1  2  1  0
  2  3  2  0
  2 25  1  0
  3  4  1  0
  3  5  1  0
  5  6  1  0
  5  7  2  0
  7  8  1  0
  8  9  1  0
  8 25  2  0
  9 16  1  0
  9 22  1  0
 10 11  2  0
 10 15  1  0
 10 22  1  0
 11 12  1  0
 12 13  2  0
 12 23  1  0
 13 14  1  0
 14 15  2  0
 14 24  1  0
 15 21  1  0
 16 21  1  0
 16 26  1  0
 17 18  1  0
 17 26  1  0
 17 27  2  0
 18 19  2  0
 18 20  1  0
 19 32  1  0
 20 28  2  0
 28 29  1  0
 28 30  1  0
 30 31  1  0
 30 32  2  0
 32 33  1  0
  1 34  1  0
  4 35  1  0
  6 36  1  0
  7 37  1  0
  9 38  1  0
 11 39  1  0
 13 40  1  0
 16 41  1  0
 19 42  1  0
 20 43  1  0
 21 44  1  0
 21 45  1  0
 23 46  1  0
 24 47  1  0
 25 48  1  0
 29 49  1  0
 31 50  1  0
 33 51  1  0
A    1
O1
A    2
C3
A    3
C6
A    4
O7
A    5
C9
A    6
O10
A    7
C12
A    8
C14
A    9
C15
A   10
C20
A   11
C21
A   12
C24
A   13
C26
A   14
C29
A   15
C31
A   16
C33
A   17
C36
A   18
C38
A   19
C39
A   20
C41
A   21
C01
A   22
O01
A   23
O02
A   24
O03
A   25
C4
A   26
O35
A   27
O37
A   28
C43
A   29
O44
A   30
C46
A   31
O47
A   32
C49
A   33
O50
M  END
