4AX9_N5N_H_1246
     RDKit          3D

 73 76  0  0  0  0  0  0  0  0999 V2000
   17.7370  -12.9750   21.1270 N   0  0  0  0  0  0  0  0  0  0  0  0
   18.6830  -13.7220   20.3520 C   0  0  0  0  0  0  0  0  0  0  0  0
   16.8790  -13.6150   22.0190 C   0  0  0  0  0  0  0  0  0  0  0  0
   17.6590  -11.5820   20.8440 C   0  0  0  0  0  0  0  0  0  0  0  0
   20.0700  -13.1470   20.0650 C   0  0  0  0  0  0  0  0  0  0  0  0
   19.9200  -14.3280   20.9770 C   0  0  0  0  0  0  0  0  0  0  0  0
   16.9460  -15.1600   22.1650 C   0  0  0  0  0  0  0  0  0  0  0  0
   16.0580  -12.9750   22.6910 O   0  0  0  0  0  0  0  0  0  0  0  0
   16.6660  -11.6270   19.6790 C   0  0  0  0  0  0  0  0  0  0  0  0
   16.4850  -15.6460   23.4110 N   0  0  0  0  0  0  0  0  0  0  0  0
   15.9770  -15.6560   21.0550 C   0  0  0  0  0  0  0  0  0  0  0  0
   16.5900  -10.5570   18.8560 O   0  0  0  0  0  0  0  0  0  0  0  0
   15.9200  -12.5530   19.3650 O   0  0  0  0  0  0  0  0  0  0  0  0
   17.4120  -16.7460   24.1380 S   0  0  0  0  0  0  0  0  0  0  0  0
   14.4840  -15.3310   21.3120 C   0  0  0  0  0  0  0  0  0  0  0  0
   18.7430  -15.8260   24.5750 C   0  0  0  0  0  0  0  0  0  0  0  0
   16.6880  -17.0720   25.2910 O   0  0  0  0  0  0  0  0  0  0  0  0
   17.6620  -17.6840   23.1350 O   0  0  0  0  0  0  0  0  0  0  0  0
   13.8870  -14.2270   20.7230 N   0  0  0  0  0  0  0  0  0  0  0  0
   13.7860  -16.0850   22.0300 O   0  0  0  0  0  0  0  0  0  0  0  0
   20.0400  -16.0170   24.1530 C   0  0  0  0  0  0  0  0  0  0  0  0
   18.4750  -14.7500   25.4650 C   0  0  0  0  0  0  0  0  0  0  0  0
   12.4990  -13.8980   20.8990 C   0  0  0  0  0  0  0  0  0  0  0  0
   21.0570  -15.1400   24.6180 C   0  0  0  0  0  0  0  0  0  0  0  0
   19.4330  -13.8990   25.9250 C   0  0  0  0  0  0  0  0  0  0  0  0
   12.1900  -12.4500   21.3330 C   0  0  0  0  0  0  0  0  0  0  0  0
   20.7480  -14.0800   25.5100 C   0  0  0  0  0  0  0  0  0  0  0  0
   22.3990  -15.2940   24.2120 C   0  0  0  0  0  0  0  0  0  0  0  0
   12.5760  -12.3160   22.8090 C   0  0  0  0  0  0  0  0  0  0  0  0
   12.9710  -11.4340   20.5020 C   0  0  0  0  0  0  0  0  0  0  0  0
   21.7610  -13.2020   25.9700 C   0  0  0  0  0  0  0  0  0  0  0  0
   23.3630  -14.4350   24.6580 C   0  0  0  0  0  0  0  0  0  0  0  0
   12.4380  -10.9660   23.3380 N   0  0  0  0  0  0  0  0  0  0  0  0
   12.6880  -10.0320   21.0300 C   0  0  0  0  0  0  0  0  0  0  0  0
   23.0470  -13.3790   25.5470 C   0  0  0  0  0  0  0  0  0  0  0  0
   13.0380   -9.9160   22.5120 C   0  0  0  0  0  0  0  0  0  0  0  0
   11.2250  -10.7710   24.1160 C   0  0  0  0  0  0  0  0  0  0  0  0
   10.4600  -11.9530   24.3330 N   0  0  0  0  0  0  0  0  0  0  0  0
   10.8860   -9.6050   24.5720 N   0  0  0  0  0  0  0  0  0  0  0  0
   17.8480  -14.1115   19.7512 H   0  0  0  0  0  0  0  0  0  0  0  0
   17.2671  -11.0094   21.6976 H   0  0  0  0  0  0  0  0  0  0  0  0
   18.6186  -11.0896   20.6278 H   0  0  0  0  0  0  0  0  0  0  0  0
   20.5232  -13.2737   19.0707 H   0  0  0  0  0  0  0  0  0  0  0  0
   20.5329  -12.1527   20.1490 H   0  0  0  0  0  0  0  0  0  0  0  0
   20.1005  -14.2127   22.0559 H   0  0  0  0  0  0  0  0  0  0  0  0
   20.3528  -15.3388   21.0086 H   0  0  0  0  0  0  0  0  0  0  0  0
   17.9866  -15.5082   22.0886 H   0  0  0  0  0  0  0  0  0  0  0  0
   16.3956  -14.8413   24.0477 H   0  0  0  0  0  0  0  0  0  0  0  0
   16.2725  -15.1853   20.1057 H   0  0  0  0  0  0  0  0  0  0  0  0
   16.0592  -16.7528   21.0357 H   0  0  0  0  0  0  0  0  0  0  0  0
   16.5252   -9.6447   19.2349 H   0  0  0  0  0  0  0  0  0  0  0  0
   14.4655  -13.6136   20.1314 H   0  0  0  0  0  0  0  0  0  0  0  0
   20.2858  -16.8386   23.4642 H   0  0  0  0  0  0  0  0  0  0  0  0
   17.4384  -14.5970   25.7997 H   0  0  0  0  0  0  0  0  0  0  0  0
   11.9879  -14.0773   19.9416 H   0  0  0  0  0  0  0  0  0  0  0  0
   12.1493  -14.5333   21.7261 H   0  0  0  0  0  0  0  0  0  0  0  0
   19.1713  -13.0819   26.6134 H   0  0  0  0  0  0  0  0  0  0  0  0
   11.1205  -12.2438   21.1794 H   0  0  0  0  0  0  0  0  0  0  0  0
   22.6717  -16.1130   23.5302 H   0  0  0  0  0  0  0  0  0  0  0  0
   11.9311  -12.9854   23.3972 H   0  0  0  0  0  0  0  0  0  0  0  0
   13.6413  -12.5795   22.8842 H   0  0  0  0  0  0  0  0  0  0  0  0
   14.0477  -11.6457   20.5786 H   0  0  0  0  0  0  0  0  0  0  0  0
   12.6617  -11.5019   19.4486 H   0  0  0  0  0  0  0  0  0  0  0  0
   21.5130  -12.3842   26.6626 H   0  0  0  0  0  0  0  0  0  0  0  0
   24.4019  -14.5657   24.3210 H   0  0  0  0  0  0  0  0  0  0  0  0
   13.2895   -9.3070   20.4620 H   0  0  0  0  0  0  0  0  0  0  0  0
   11.6142   -9.8259   20.9097 H   0  0  0  0  0  0  0  0  0  0  0  0
   23.8387  -12.7004   25.8972 H   0  0  0  0  0  0  0  0  0  0  0  0
   12.6846   -8.9407   22.8779 H   0  0  0  0  0  0  0  0  0  0  0  0
   14.1296  -10.0226   22.5959 H   0  0  0  0  0  0  0  0  0  0  0  0
   10.2573  -12.2662   25.2930 H   0  0  0  0  0  0  0  0  0  0  0  0
   10.1096  -12.4944   23.5299 H   0  0  0  0  0  0  0  0  0  0  0  0
   10.0206   -9.4981   25.1202 H   0  0  0  0  0  0  0  0  0  0  0  0
  1  2  1  0
  1  3  1  0
  1  4  1  0
  2  5  1  0
  2  6  1  0
  3  7  1  0
  3  8  2  0
  4  9  1  0
  5  6  1  0
  7 10  1  0
  7 11  1  0
  9 12  1  0
  9 13  2  0
 10 14  1  0
 11 15  1  0
 14 16  1  0
 14 17  2  0
 14 18  2  0
 15 19  1  0
 15 20  2  0
 16 21  2  0
 16 22  1  0
 19 23  1  0
 21 24  1  0
 22 25  2  0
 23 26  1  0
 24 27  2  0
 24 28  1  0
 25 27  1  0
 26 29  1  0
 26 30  1  0
 27 31  1  0
 28 32  2  0
 29 33  1  0
 30 34  1  0
 31 35  2  0
 32 35  1  0
 33 36  1  0
 33 37  1  0
 34 36  1  0
 37 38  1  0
 37 39  2  3
  2 40  1  0
  4 41  1  0
  4 42  1  0
  5 43  1  0
  5 44  1  0
  6 45  1  0
  6 46  1  0
  7 47  1  0
 10 48  1  0
 11 49  1  0
 11 50  1  0
 12 51  1  0
 19 52  1  0
 21 53  1  0
 22 54  1  0
 23 55  1  0
 23 56  1  0
 25 57  1  0
 26 58  1  0
 28 59  1  0
 29 60  1  0
 29 61  1  0
 30 62  1  0
 30 63  1  0
 31 64  1  0
 32 65  1  0
 34 66  1  0
 34 67  1  0
 35 68  1  0
 36 69  1  0
 36 70  1  0
 38 71  1  0
 38 72  1  0
 39 73  1  0
A    1
N1
A    2
C2
A    3
C3
A    4
C4
A    5
C5
A    6
C6
A    7
C7
A    8
O8
A    9
C9
A   10
N10
A   11
C11
A   12
O12
A   13
O13
A   14
S14
A   15
C15
A   16
C16
A   17
O17
A   18
O18
A   19
N19
A   20
O20
A   21
C21
A   22
C22
A   23
C23
A   24
C24
A   25
C25
A   26
C26
A   27
C27
A   28
C28
A   29
C29
A   30
C30
A   31
C31
A   32
C32
A   33
N33
A   34
C34
A   35
C35
A   36
C36
A   37
C37
A   38
N38
A   39
N39
M  END
