4AXA_RKD_A_1351
     RDKit          3D

 39 41  0  0  0  0  0  0  0  0999 V2000
   10.3670    7.2050    3.8540 N   0  0  0  0  0  0  0  0  0  0  0  0
   11.0950    8.1630    2.9800 C   0  0  0  0  0  0  0  0  0  0  0  0
   11.4510   10.5790    2.2470 C   0  0  0  0  0  0  0  0  0  0  0  0
   11.8940   11.8410    2.6190 C   0  0  0  0  0  0  0  0  0  0  0  0
   12.4950   12.6720    1.7070 C   0  0  0  0  0  0  0  0  0  0  0  0
   12.6610   12.2550    0.4180 C   0  0  0  0  0  0  0  0  0  0  0  0
   11.2700    9.9320    4.5830 O   0  0  0  0  0  0  0  0  0  0  0  0
   13.4240   13.3150   -0.7320 Cl  0  0  0  0  0  0  0  0  0  0  0  0
   12.2360   11.0150    0.0160 C   0  0  0  0  0  0  0  0  0  0  0  0
   11.6300   10.1750    0.9290 C   0  0  0  0  0  0  0  0  0  0  0  0
    9.2450    9.7410    3.2550 C   0  0  0  0  0  0  0  0  0  0  0  0
    8.5300    9.4390    2.1050 C   0  0  0  0  0  0  0  0  0  0  0  0
    7.1470    9.5100    2.0910 C   0  0  0  0  0  0  0  0  0  0  0  0
    6.4360    9.8880    3.2290 C   0  0  0  0  0  0  0  0  0  0  0  0
    7.1570   10.1890    4.3810 C   0  0  0  0  0  0  0  0  0  0  0  0
    8.5360   10.1170    4.3920 C   0  0  0  0  0  0  0  0  0  0  0  0
    4.9570    9.9600    3.2070 C   0  0  0  0  0  0  0  0  0  0  0  0
    4.1100   10.0260    4.3000 C   0  0  0  0  0  0  0  0  0  0  0  0
    2.8350   10.0770    3.9340 N   0  0  0  0  0  0  0  0  0  0  0  0
    2.8710   10.0410    2.5840 N   0  0  0  0  0  0  0  0  0  0  0  0
    4.1250    9.9700    2.1200 C   0  0  0  0  0  0  0  0  0  0  0  0
   10.7820    9.6600    3.2710 C   0  0  0  0  0  0  0  0  0  0  0  0
   10.5442    7.4382    4.8415 H   0  0  0  0  0  0  0  0  0  0  0  0
    9.3567    7.2655    3.6629 H   0  0  0  0  0  0  0  0  0  0  0  0
   10.6959    6.2478    3.6629 H   0  0  0  0  0  0  0  0  0  0  0  0
   12.1746    8.0035    3.1181 H   0  0  0  0  0  0  0  0  0  0  0  0
   10.7623    7.9658    1.9503 H   0  0  0  0  0  0  0  0  0  0  0  0
   11.7617   12.1790    3.6574 H   0  0  0  0  0  0  0  0  0  0  0  0
   12.8415   13.6700    2.0136 H   0  0  0  0  0  0  0  0  0  0  0  0
   10.6328    9.5768    5.2523 H   0  0  0  0  0  0  0  0  0  0  0  0
   12.3767   10.6918   -1.0260 H   0  0  0  0  0  0  0  0  0  0  0  0
   11.2866    9.1795    0.6113 H   0  0  0  0  0  0  0  0  0  0  0  0
    9.0680    9.1396    1.1935 H   0  0  0  0  0  0  0  0  0  0  0  0
    6.6013    9.2644    1.1680 H   0  0  0  0  0  0  0  0  0  0  0  0
    6.6215   10.4880    5.2942 H   0  0  0  0  0  0  0  0  0  0  0  0
    9.0831   10.3609    5.3146 H   0  0  0  0  0  0  0  0  0  0  0  0
    4.4521   10.0351    5.3454 H   0  0  0  0  0  0  0  0  0  0  0  0
    2.0343   10.0653    1.9838 H   0  0  0  0  0  0  0  0  0  0  0  0
    4.4294    9.9277    1.0638 H   0  0  0  0  0  0  0  0  0  0  0  0
  1  2  1  0
  2 22  1  0
  3  4  2  0
  3 10  1  0
  3 22  1  0
  4  5  1  0
  5  6  2  0
  6  8  1  0
  6  9  1  0
  7 22  1  0
  9 10  2  0
 11 12  2  0
 11 16  1  0
 11 22  1  0
 12 13  1  0
 13 14  2  0
 14 15  1  0
 14 17  1  0
 15 16  2  0
 17 18  1  0
 17 21  2  0
 18 19  2  0
 19 20  1  0
 20 21  1  0
  1 23  1  0
  1 24  1  0
  1 25  1  0
  2 26  1  0
  2 27  1  0
  4 28  1  0
  5 29  1  0
  7 30  1  0
  9 31  1  0
 10 32  1  0
 12 33  1  0
 13 34  1  0
 15 35  1  0
 16 36  1  0
 18 37  1  0
 20 38  1  0
 21 39  1  0
M  CHG  1   1   1
A    1
N1
A    2
C2
A    3
C4
A    4
C5
A    5
C6
A    6
C7
A    7
O7
A    8
CL8
A    9
C9
A   10
C10
A   11
C11
A   12
C12
A   13
C13
A   14
C14
A   15
C15
A   16
C16
A   17
C17
A   18
C18
A   19
N19
A   20
N20
A   21
C21
A   22
C60
M  END
