4B0B_54F_A_1172
     RDKit          3D

 24 25  0  0  0  0  0  0  0  0999 V2000
   22.5810   18.3240   14.5760 N   0  0  0  0  0  0  0  0  0  0  0  0
   22.2150   17.0220   14.5250 C   0  0  0  0  0  0  0  0  0  0  0  0
   21.9120   16.3600   15.7050 C   0  0  0  0  0  0  0  0  0  0  0  0
   21.9480   17.0370   16.9210 C   0  0  0  0  0  0  0  0  0  0  0  0
   22.2420   18.3870   16.9560 C   0  0  0  0  0  0  0  0  0  0  0  0
   22.5060   19.0500   15.7500 C   0  0  0  0  0  0  0  0  0  0  0  0
   24.7900   17.0730    9.3640 N   0  0  0  0  0  0  0  0  0  0  0  0
   23.6470   17.0950   10.0520 C   0  0  0  0  0  0  0  0  0  0  0  0
   23.6080   16.7310   11.4010 C   0  0  0  0  0  0  0  0  0  0  0  0
   22.4290   16.7940   12.1290 C   0  0  0  0  0  0  0  0  0  0  0  0
   21.2600   17.0820   11.4380 C   0  0  0  0  0  0  0  0  0  0  0  0
   21.2890   17.4690   10.0980 C   0  0  0  0  0  0  0  0  0  0  0  0
   22.4960   17.5250    9.4100 C   0  0  0  0  0  0  0  0  0  0  0  0
   22.3300   16.2540   13.4010 O   0  0  0  0  0  0  0  0  0  0  0  0
   21.6417   15.2940   15.6802 H   0  0  0  0  0  0  0  0  0  0  0  0
   21.7419   16.4960   17.8563 H   0  0  0  0  0  0  0  0  0  0  0  0
   22.2683   18.9305   17.9120 H   0  0  0  0  0  0  0  0  0  0  0  0
   22.6525   20.1401   15.7376 H   0  0  0  0  0  0  0  0  0  0  0  0
   25.6910   17.0557    9.8627 H   0  0  0  0  0  0  0  0  0  0  0  0
   24.7713   17.0734    8.3342 H   0  0  0  0  0  0  0  0  0  0  0  0
   24.5294   16.3882   11.8944 H   0  0  0  0  0  0  0  0  0  0  0  0
   20.2931   17.0036   11.9565 H   0  0  0  0  0  0  0  0  0  0  0  0
   20.3528   17.7310    9.5834 H   0  0  0  0  0  0  0  0  0  0  0  0
   22.5367   17.9027    8.3777 H   0  0  0  0  0  0  0  0  0  0  0  0
  1  2  2  0
  1  6  1  0
  2  3  1  0
  2 14  1  0
  3  4  2  0
  4  5  1  0
  5  6  2  0
  7  8  1  0
  8  9  2  0
  8 13  1  0
  9 10  1  0
 10 11  2  0
 10 14  1  0
 11 12  1  0
 12 13  2  0
  3 15  1  0
  4 16  1  0
  5 17  1  0
  6 18  1  0
  7 19  1  0
  7 20  1  0
  9 21  1  0
 11 22  1  0
 12 23  1  0
 13 24  1  0
A    1
N1
A    2
C2
A    3
C3
A    4
C4
A    5
C5
A    6
C6
A    7
N8
A    8
C9
A    9
C10
A   10
C11
A   11
C12
A   12
C13
A   13
C14
A   14
OAK
M  END
