4B0I_KBP_A_1170
     RDKit          3D

 46 45  0  0  0  0  0  0  0  0999 V2000
  -23.0280   20.9270  -19.9600 C   0  0  0  0  0  0  0  0  0  0  0  0
  -22.1920   21.9600  -20.6750 C   0  0  0  0  0  0  0  0  0  0  0  0
  -23.0390   23.2330  -20.7450 C   0  0  0  0  0  0  0  0  0  0  0  0
  -22.1580   24.4210  -20.3850 C   0  0  0  0  0  0  0  0  0  0  0  0
  -21.9420   24.4210  -18.8730 C   0  0  0  0  0  0  0  0  0  0  0  0
  -23.2500   24.7320  -18.1400 C   0  0  0  0  0  0  0  0  0  0  0  0
  -22.9440   25.5640  -16.8950 C   0  0  0  0  0  0  0  0  0  0  0  0
  -21.6240   25.1280  -16.2240 C   0  0  0  0  0  0  0  0  0  0  0  0
  -20.4800   26.1320  -16.4430 C   0  0  0  0  0  0  0  0  0  0  0  0
  -19.9750   26.6930  -15.1010 C   0  0  0  0  0  0  0  0  0  0  0  0
  -23.7460   21.2720  -19.0210 O   0  0  0  0  0  0  0  0  0  0  0  0
  -23.6110   23.3740  -22.0480 O   0  0  0  0  0  0  0  0  0  0  0  0
  -23.2460   19.4010  -20.7490 S   0  0  0  0  0  0  0  0  0  0  0  0
  -24.7070   18.7370  -19.8720 C   0  0  0  0  0  0  0  0  0  0  0  0
  -26.0290   19.0010  -20.5860 C   0  0  0  0  0  0  0  0  0  0  0  0
  -27.1090   18.5960  -19.6860 N   0  0  0  0  0  0  0  0  0  0  0  0
  -27.3670   17.3090  -19.4200 C   0  0  0  0  0  0  0  0  0  0  0  0
  -28.4860   17.0590  -18.3480 C   0  0  0  0  0  0  0  0  0  0  0  0
  -26.7060   16.3860  -19.9180 O   0  0  0  0  0  0  0  0  0  0  0  0
  -21.2643   22.1513  -20.1157 H   0  0  0  0  0  0  0  0  0  0  0  0
  -21.9086   21.6154  -21.6804 H   0  0  0  0  0  0  0  0  0  0  0  0
  -23.8724   23.1791  -20.0291 H   0  0  0  0  0  0  0  0  0  0  0  0
  -21.1892   24.3340  -20.8986 H   0  0  0  0  0  0  0  0  0  0  0  0
  -22.6416   25.3583  -20.6975 H   0  0  0  0  0  0  0  0  0  0  0  0
  -21.5791   23.4309  -18.5600 H   0  0  0  0  0  0  0  0  0  0  0  0
  -21.2024   25.1953  -18.6212 H   0  0  0  0  0  0  0  0  0  0  0  0
  -23.9187   25.2979  -18.8052 H   0  0  0  0  0  0  0  0  0  0  0  0
  -23.7401   23.7925  -17.8448 H   0  0  0  0  0  0  0  0  0  0  0  0
  -22.8635   26.6221  -17.1848 H   0  0  0  0  0  0  0  0  0  0  0  0
  -23.7604   25.4126  -16.1736 H   0  0  0  0  0  0  0  0  0  0  0  0
  -21.7976   25.0244  -15.1427 H   0  0  0  0  0  0  0  0  0  0  0  0
  -21.3195   24.1760  -16.6833 H   0  0  0  0  0  0  0  0  0  0  0  0
  -19.6497   25.6251  -16.9565 H   0  0  0  0  0  0  0  0  0  0  0  0
  -20.8574   26.9664  -17.0524 H   0  0  0  0  0  0  0  0  0  0  0  0
  -20.4595   26.1548  -14.2730 H   0  0  0  0  0  0  0  0  0  0  0  0
  -18.8848   26.5616  -15.0356 H   0  0  0  0  0  0  0  0  0  0  0  0
  -20.2199   27.7634  -15.0356 H   0  0  0  0  0  0  0  0  0  0  0  0
  -24.5688   23.6101  -21.9642 H   0  0  0  0  0  0  0  0  0  0  0  0
  -24.5822   17.6493  -19.7652 H   0  0  0  0  0  0  0  0  0  0  0  0
  -24.7592   19.2532  -18.9021 H   0  0  0  0  0  0  0  0  0  0  0  0
  -26.1199   20.0714  -20.8224 H   0  0  0  0  0  0  0  0  0  0  0  0
  -26.0786   18.4338  -21.5272 H   0  0  0  0  0  0  0  0  0  0  0  0
  -27.6888   19.3231  -19.2433 H   0  0  0  0  0  0  0  0  0  0  0  0
  -28.0562   17.1550  -17.3400 H   0  0  0  0  0  0  0  0  0  0  0  0
  -29.2888   17.7999  -18.4764 H   0  0  0  0  0  0  0  0  0  0  0  0
  -28.8972   16.0468  -18.4764 H   0  0  0  0  0  0  0  0  0  0  0  0
  1  2  1  0
  1 11  2  0
  1 13  1  0
  2  3  1  0
  3  4  1  0
  3 12  1  0
  4  5  1  0
  5  6  1  0
  6  7  1  0
  7  8  1  0
  8  9  1  0
  9 10  1  0
 13 14  1  0
 14 15  1  0
 15 16  1  0
 16 17  1  0
 17 18  1  0
 17 19  2  0
  2 20  1  0
  2 21  1  0
  3 22  1  0
  4 23  1  0
  4 24  1  0
  5 25  1  0
  5 26  1  0
  6 27  1  0
  6 28  1  0
  7 29  1  0
  7 30  1  0
  8 31  1  0
  8 32  1  0
  9 33  1  0
  9 34  1  0
 10 35  1  0
 10 36  1  0
 10 37  1  0
 12 38  1  0
 14 39  1  0
 14 40  1  0
 15 41  1  0
 15 42  1  0
 16 43  1  0
 18 44  1  0
 18 45  1  0
 18 46  1  0
A    1
CAA
A    2
CAB
A    3
CAC
A    4
CAD
A    5
CAE
A    6
CAF
A    7
CAG
A    8
CAH
A    9
CAI
A   10
CAJ
A   11
OAM
A   12
OAN
A   13
SAO
A   14
CAP
A   15
CAQ
A   16
NAR
A   17
CAS
A   18
CAT
A   19
OAY
M  END
