4B1F_KRH_A_1256
     RDKit          3D

 59 63  0  0  0  0  0  0  0  0999 V2000
   14.4950  -18.5390  -19.0240 N   0  0  0  0  0  0  0  0  0  0  0  0
   15.2690  -19.2700  -18.2830 C   0  0  0  0  0  0  0  0  0  0  0  0
   15.3530  -19.1570  -16.9300 N   0  0  0  0  0  0  0  0  0  0  0  0
   14.6650  -18.1430  -16.2940 C   0  0  0  0  0  0  0  0  0  0  0  0
   13.7870  -17.3470  -17.0430 C   0  0  0  0  0  0  0  0  0  0  0  0
   13.6690  -17.6360  -18.4800 C   0  0  0  0  0  0  0  0  0  0  0  0
   16.2600  -19.9980  -16.1730 C   0  0  0  0  0  0  0  0  0  0  0  0
   17.5810  -19.3030  -15.8380 C   0  0  0  0  0  0  0  0  0  0  0  0
   18.2620  -20.2620  -14.8850 C   0  0  0  0  0  0  0  0  0  0  0  0
   18.4290  -19.2550  -17.0810 C   0  0  0  0  0  0  0  0  0  0  0  0
   15.9410  -20.0840  -18.8810 O   0  0  0  0  0  0  0  0  0  0  0  0
   14.4670  -18.7750  -20.4870 C   0  0  0  0  0  0  0  0  0  0  0  0
   13.0400  -16.8950  -19.2430 O   0  0  0  0  0  0  0  0  0  0  0  0
   13.3230  -16.3710  -16.1990 C   0  0  0  0  0  0  0  0  0  0  0  0
   13.9180  -16.5970  -14.9500 N   0  0  0  0  0  0  0  0  0  0  0  0
   14.7420  -17.6890  -15.0670 N   0  0  0  0  0  0  0  0  0  0  0  0
   12.3890  -15.2700  -16.4580 C   0  0  0  0  0  0  0  0  0  0  0  0
   10.6800  -13.8980  -16.2710 N   0  0  0  0  0  0  0  0  0  0  0  0
   11.5050  -13.3310  -17.1230 C   0  0  0  0  0  0  0  0  0  0  0  0
   13.8090  -15.7750  -13.7580 C   0  0  0  0  0  0  0  0  0  0  0  0
   14.4880  -14.4620  -14.2330 C   0  0  0  0  0  0  0  0  0  0  0  0
   13.6910  -13.3530  -14.3170 C   0  0  0  0  0  0  0  0  0  0  0  0
   14.1370  -12.0780  -14.7810 C   0  0  0  0  0  0  0  0  0  0  0  0
   15.4880  -11.9430  -15.1410 C   0  0  0  0  0  0  0  0  0  0  0  0
   16.3600  -13.0470  -15.0590 C   0  0  0  0  0  0  0  0  0  0  0  0
   15.8590  -14.3100  -14.6020 C   0  0  0  0  0  0  0  0  0  0  0  0
   12.5950  -14.1430  -17.2580 N   0  0  0  0  0  0  0  0  0  0  0  0
   16.8030  -15.3590  -14.5010 C   0  0  0  0  0  0  0  0  0  0  0  0
   18.1320  -15.1930  -14.7920 C   0  0  0  0  0  0  0  0  0  0  0  0
   18.5730  -13.9630  -15.2740 C   0  0  0  0  0  0  0  0  0  0  0  0
   17.7190  -12.8960  -15.3970 C   0  0  0  0  0  0  0  0  0  0  0  0
   11.1860  -15.0820  -15.8390 C   0  0  0  0  0  0  0  0  0  0  0  0
   13.7520  -13.8920  -18.0780 C   0  0  0  0  0  0  0  0  0  0  0  0
   15.7677  -20.2869  -15.2327 H   0  0  0  0  0  0  0  0  0  0  0  0
   16.4972  -20.8717  -16.7978 H   0  0  0  0  0  0  0  0  0  0  0  0
   17.4372  -18.2881  -15.4390 H   0  0  0  0  0  0  0  0  0  0  0  0
   18.0489  -19.9620  -13.8484 H   0  0  0  0  0  0  0  0  0  0  0  0
   17.8837  -21.2805  -15.0571 H   0  0  0  0  0  0  0  0  0  0  0  0
   19.3482  -20.2404  -15.0571 H   0  0  0  0  0  0  0  0  0  0  0  0
   19.4904  -19.1949  -16.7986 H   0  0  0  0  0  0  0  0  0  0  0  0
   18.2588  -20.1642  -17.6763 H   0  0  0  0  0  0  0  0  0  0  0  0
   18.1573  -18.3708  -17.6763 H   0  0  0  0  0  0  0  0  0  0  0  0
   14.3395  -19.8499  -20.6826 H   0  0  0  0  0  0  0  0  0  0  0  0
   13.6285  -18.2193  -20.9321 H   0  0  0  0  0  0  0  0  0  0  0  0
   15.4123  -18.4309  -20.9321 H   0  0  0  0  0  0  0  0  0  0  0  0
   11.3456  -12.3715  -17.6368 H   0  0  0  0  0  0  0  0  0  0  0  0
   12.7583  -15.6072  -13.4789 H   0  0  0  0  0  0  0  0  0  0  0  0
   14.2642  -16.2192  -12.8605 H   0  0  0  0  0  0  0  0  0  0  0  0
   12.6399  -13.4496  -14.0075 H   0  0  0  0  0  0  0  0  0  0  0  0
   13.4434  -11.2274  -14.8542 H   0  0  0  0  0  0  0  0  0  0  0  0
   15.8672  -10.9707  -15.4887 H   0  0  0  0  0  0  0  0  0  0  0  0
   16.4554  -16.3504  -14.1749 H   0  0  0  0  0  0  0  0  0  0  0  0
   18.8415  -16.0209  -14.6467 H   0  0  0  0  0  0  0  0  0  0  0  0
   19.6280  -13.8444  -15.5621 H   0  0  0  0  0  0  0  0  0  0  0  0
   18.0941  -11.9270  -15.7580 H   0  0  0  0  0  0  0  0  0  0  0  0
   10.7122  -15.7665  -15.1199 H   0  0  0  0  0  0  0  0  0  0  0  0
   14.6236  -13.7029  -17.4342 H   0  0  0  0  0  0  0  0  0  0  0  0
   13.9485  -14.7684  -18.7131 H   0  0  0  0  0  0  0  0  0  0  0  0
   13.5676  -13.0130  -18.7131 H   0  0  0  0  0  0  0  0  0  0  0  0
 12  1  1  0
  1  6  1  0
  1  2  1  0
 11  2  2  0
  2  3  1  0
  3  4  1  0
  3  7  1  0
  5  4  1  0
  4 16  2  0
  6  5  1  0
  5 14  2  0
 13  6  2  0
  7  8  1  0
  8 10  1  0
  8  9  1  0
 17 14  1  0
 14 15  1  0
 16 15  1  0
 15 20  1  0
 27 17  1  0
 17 32  2  0
 19 18  2  0
 18 32  1  0
 27 19  1  0
 21 20  1  0
 22 21  2  0
 21 26  1  0
 23 22  1  0
 23 24  2  0
 24 25  1  0
 25 31  1  0
 25 26  2  0
 26 28  1  0
 33 27  1  0
 28 29  2  0
 30 29  1  0
 31 30  2  0
  7 34  1  0
  7 35  1  0
  8 36  1  0
  9 37  1  0
  9 38  1  0
  9 39  1  0
 10 40  1  0
 10 41  1  0
 10 42  1  0
 12 43  1  0
 12 44  1  0
 12 45  1  0
 19 46  1  0
 20 47  1  0
 20 48  1  0
 22 49  1  0
 23 50  1  0
 24 51  1  0
 28 52  1  0
 29 53  1  0
 30 54  1  0
 31 55  1  0
 32 56  1  0
 33 57  1  0
 33 58  1  0
 33 59  1  0
A    1
N1
A    2
C2
A    3
N3
A    4
C4
A    5
C5
A    6
C6
A    7
C7
A    8
C8
A    9
C9
A   10
C10
A   11
O11
A   12
C12
A   13
O13
A   14
C14
A   15
N15
A   16
N16
A   17
C17
A   18
N20
A   19
C21
A   20
C23
A   21
C24
A   22
C25
A   23
C26
A   24
C27
A   25
C28
A   26
C29
A   27
N29
A   28
C30
A   29
C31
A   30
C32
A   31
C33
A   32
C34
A   33
C35
M  END
