4B1I_A8P_A_1967
     RDKit          3D

 86 89  0  0  0  0  0  0  0  0999 V2000
   32.3510   -4.1170   -2.3930 C   0  0  0  0  0  0  0  0  0  0  0  0
   33.2760   -3.1110   -1.7410 C   0  0  0  0  0  0  0  0  0  0  0  0
   33.0190   -1.6270   -2.0490 C   0  0  0  0  0  0  0  0  0  0  0  0
   31.5690   -1.1500   -2.0460 C   0  0  0  0  0  0  0  0  0  0  0  0
   31.1710   -0.0940   -0.9830 C   0  0  0  0  0  0  0  0  0  0  0  0
   29.8630    0.5770   -1.3600 C   0  0  0  0  0  0  0  0  0  0  0  0
   28.8550    0.9050   -0.2920 C   0  0  0  0  0  0  0  0  0  0  0  0
   27.6480    0.0340   -0.3630 C   0  0  0  0  0  0  0  0  0  0  0  0
   27.7110   -1.1550    0.0470 N   0  0  0  0  0  0  0  0  0  0  0  0
   26.6820   -1.9630   -0.2720 C   0  0  0  0  0  0  0  0  0  0  0  0
   25.5140   -1.6500   -0.7840 N   0  0  0  0  0  0  0  0  0  0  0  0
   24.8570   -2.8560   -0.9220 C   0  0  0  0  0  0  0  0  0  0  0  0
   23.5590   -3.1750   -1.3900 C   0  0  0  0  0  0  0  0  0  0  0  0
   23.2050   -4.4720   -1.3740 N   0  0  0  0  0  0  0  0  0  0  0  0
   24.0910   -5.3530   -0.9330 C   0  0  0  0  0  0  0  0  0  0  0  0
   25.3230   -5.1790   -0.4700 N   0  0  0  0  0  0  0  0  0  0  0  0
   25.6500   -3.8960   -0.4920 C   0  0  0  0  0  0  0  0  0  0  0  0
   26.8380   -3.3230   -0.0820 N   0  0  0  0  0  0  0  0  0  0  0  0
   27.9860   -4.0500    0.4890 C   0  0  0  0  0  0  0  0  0  0  0  0
   29.3770   -3.8180   -0.1120 C   0  0  0  0  0  0  0  0  0  0  0  0
   30.0820   -3.1010    1.0550 C   0  0  0  0  0  0  0  0  0  0  0  0
   29.4060   -3.6710    2.2850 C   0  0  0  0  0  0  0  0  0  0  0  0
   28.0430   -3.7930    1.8740 O   0  0  0  0  0  0  0  0  0  0  0  0
   29.4470   -2.8380    3.5300 C   0  0  0  0  0  0  0  0  0  0  0  0
   28.9010   -1.5470    3.2560 O   0  0  0  0  0  0  0  0  0  0  0  0
   29.1430   -0.3460    4.2410 P   0  0  0  0  0  0  0  0  0  0  0  0
   30.5450    0.1380    4.2070 O   0  0  0  0  0  0  0  0  0  0  0  0
   28.0830    0.7280    4.0050 O   0  0  0  0  0  0  0  0  0  0  0  0
   28.7380   -1.0420    5.6130 O   0  0  0  0  0  0  0  0  0  0  0  0
   29.4170   -1.1280    7.0520 P   0  0  0  0  0  0  0  0  0  0  0  0
   28.5350   -1.8530    8.0030 O   0  0  0  0  0  0  0  0  0  0  0  0
   30.8240   -1.7140    6.8920 O   0  0  0  0  0  0  0  0  0  0  0  0
   29.5150    0.4020    7.4350 O   0  0  0  0  0  0  0  0  0  0  0  0
   28.6540    0.9670    8.4500 C   0  0  0  0  0  0  0  0  0  0  0  0
   28.8210    2.4600    8.4350 C   0  0  0  0  0  0  0  0  0  0  0  0
   27.8440    3.1990    9.3510 C   0  0  0  0  0  0  0  0  0  0  0  0
   26.7000    3.5630    8.4080 C   0  0  0  0  0  0  0  0  0  0  0  0
   27.5010    4.0530    7.2050 C   0  0  0  0  0  0  0  0  0  0  0  0
   28.5570    3.0210    7.0970 N   0  0  0  0  0  0  0  0  0  0  0  0
   25.8520    4.5980    8.8990 O   0  0  0  0  0  0  0  0  0  0  0  0
   28.4140    4.4070    9.9140 O   0  0  0  0  0  0  0  0  0  0  0  0
   31.4700   -3.3770    1.1430 O   0  0  0  0  0  0  0  0  0  0  0  0
   30.0410   -5.0380   -0.4500 O   0  0  0  0  0  0  0  0  0  0  0  0
   22.6700   -2.2660   -1.8480 N   0  0  0  0  0  0  0  0  0  0  0  0
   31.8248   -4.6893   -1.6149 H   0  0  0  0  0  0  0  0  0  0  0  0
   31.6170   -3.5883   -3.0189 H   0  0  0  0  0  0  0  0  0  0  0  0
   32.9393   -4.8042   -3.0189 H   0  0  0  0  0  0  0  0  0  0  0  0
   33.1956   -3.2430   -0.6519 H   0  0  0  0  0  0  0  0  0  0  0  0
   34.2706   -3.3225   -2.1606 H   0  0  0  0  0  0  0  0  0  0  0  0
   33.5626   -1.0351   -1.2979 H   0  0  0  0  0  0  0  0  0  0  0  0
   33.3573   -1.4924   -3.0870 H   0  0  0  0  0  0  0  0  0  0  0  0
   31.3613   -0.7173   -3.0358 H   0  0  0  0  0  0  0  0  0  0  0  0
   30.9782   -2.0427   -1.7929 H   0  0  0  0  0  0  0  0  0  0  0  0
   31.0553   -0.5889   -0.0075 H   0  0  0  0  0  0  0  0  0  0  0  0
   31.9597    0.6710   -0.9306 H   0  0  0  0  0  0  0  0  0  0  0  0
   30.1223    1.5246   -1.8548 H   0  0  0  0  0  0  0  0  0  0  0  0
   29.3519   -0.1845   -1.9674 H   0  0  0  0  0  0  0  0  0  0  0  0
   29.3280    0.7736    0.6924 H   0  0  0  0  0  0  0  0  0  0  0  0
   28.5284    1.9439   -0.4470 H   0  0  0  0  0  0  0  0  0  0  0  0
   26.8607    0.5318    0.2222 H   0  0  0  0  0  0  0  0  0  0  0  0
   27.4757   -0.0768   -1.4438 H   0  0  0  0  0  0  0  0  0  0  0  0
   28.5114   -1.4934    0.6000 H   0  0  0  0  0  0  0  0  0  0  0  0
   23.7503   -6.3987   -0.9539 H   0  0  0  0  0  0  0  0  0  0  0  0
   27.7719   -5.0979    0.2318 H   0  0  0  0  0  0  0  0  0  0  0  0
   29.3617   -3.2587   -1.0591 H   0  0  0  0  0  0  0  0  0  0  0  0
   30.0031   -2.0107    0.9325 H   0  0  0  0  0  0  0  0  0  0  0  0
   29.9291   -4.5933    2.5778 H   0  0  0  0  0  0  0  0  0  0  0  0
   28.8554   -3.3268    4.3181 H   0  0  0  0  0  0  0  0  0  0  0  0
   30.4888   -2.7321    3.8667 H   0  0  0  0  0  0  0  0  0  0  0  0
   30.8771    0.2526    5.1326 H   0  0  0  0  0  0  0  0  0  0  0  0
   28.8006   -1.6347    8.9314 H   0  0  0  0  0  0  0  0  0  0  0  0
   27.6067    0.7080    8.2352 H   0  0  0  0  0  0  0  0  0  0  0  0
   28.9216    0.5663    9.4389 H   0  0  0  0  0  0  0  0  0  0  0  0
   29.8591    2.6055    8.7686 H   0  0  0  0  0  0  0  0  0  0  0  0
   27.5493    2.5850   10.2148 H   0  0  0  0  0  0  0  0  0  0  0  0
   26.0020    2.7319    8.2293 H   0  0  0  0  0  0  0  0  0  0  0  0
   26.8798    4.0856    6.2978 H   0  0  0  0  0  0  0  0  0  0  0  0
   27.8903    5.0756    7.3182 H   0  0  0  0  0  0  0  0  0  0  0  0
   29.4183    3.4462    6.7251 H   0  0  0  0  0  0  0  0  0  0  0  0
   28.2471    2.2721    6.4614 H   0  0  0  0  0  0  0  0  0  0  0  0
   25.8594    4.5889    9.8889 H   0  0  0  0  0  0  0  0  0  0  0  0
   28.3891    4.3541   10.9023 H   0  0  0  0  0  0  0  0  0  0  0  0
   31.7362   -3.4299    2.0951 H   0  0  0  0  0  0  0  0  0  0  0  0
   30.2998   -5.5135    0.3789 H   0  0  0  0  0  0  0  0  0  0  0  0
   22.1199   -1.7035   -1.1833 H   0  0  0  0  0  0  0  0  0  0  0  0
   22.5426   -2.1357   -2.8618 H   0  0  0  0  0  0  0  0  0  0  0  0
  1  2  1  0
  3  2  1  0
  3  4  1  0
  4  5  1  0
  6  5  1  0
  6  7  1  0
  8  7  1  0
  8  9  1  0
 10  9  1  0
 11 10  2  0
 10 18  1  0
 12 11  1  0
 13 12  2  0
 12 17  1  0
 44 13  1  0
 13 14  1  0
 14 15  2  0
 15 16  1  0
 17 16  2  0
 17 18  1  0
 18 19  1  0
 20 19  1  0
 19 23  1  0
 43 20  1  0
 20 21  1  0
 21 42  1  0
 21 22  1  0
 23 22  1  0
 22 24  1  0
 25 24  1  0
 25 26  1  0
 28 26  2  0
 27 26  1  0
 26 29  1  0
 29 30  1  0
 32 30  2  0
 30 33  1  0
 30 31  1  0
 33 34  1  0
 35 34  1  0
 39 35  1  0
 35 36  1  0
 37 36  1  0
 36 41  1  0
 38 37  1  0
 37 40  1  0
 39 38  1  0
  1 45  1  0
  1 46  1  0
  1 47  1  0
  2 48  1  0
  2 49  1  0
  3 50  1  0
  3 51  1  0
  4 52  1  0
  4 53  1  0
  5 54  1  0
  5 55  1  0
  6 56  1  0
  6 57  1  0
  7 58  1  0
  7 59  1  0
  8 60  1  0
  8 61  1  0
  9 62  1  0
 15 63  1  0
 19 64  1  0
 20 65  1  0
 21 66  1  0
 22 67  1  0
 24 68  1  0
 24 69  1  0
 27 70  1  0
 31 71  1  0
 34 72  1  0
 34 73  1  0
 35 74  1  0
 36 75  1  0
 37 76  1  0
 38 77  1  0
 38 78  1  0
 39 79  1  0
 39 80  1  0
 40 81  1  0
 41 82  1  0
 42 83  1  0
 43 84  1  0
 44 85  1  0
 44 86  1  0
M  CHG  1  39   1
A    1
C1
A    2
C2
A    3
C3
A    4
C4
A    5
C5
A    6
C6
A    7
C7
A    8
C8
A    9
N9
A   10
C10
A   11
N11
A   12
C12
A   13
C13
A   14
N14
A   15
C15
A   16
N16
A   17
C17
A   18
N18
A   19
C19
A   20
C20
A   21
C21
A   22
C22
A   23
O23
A   24
C24
A   25
O25
A   26
P26
A   27
O27
A   28
O28
A   29
O29
A   30
P30
A   31
O31
A   32
O32
A   33
O33
A   34
C34
A   35
C35
A   36
C36
A   37
C37
A   38
C38
A   39
N39
A   40
O40
A   41
O41
A   42
O42
A   43
O43
A   44
N44
M  END
