2ZVQ_1NP_X_501
     RDKit          3D

 19 20  0  0  0  0  0  0  0  0999 V2000
   47.9610   -5.5570   12.6030 O   0  0  0  0  0  0  0  0  0  0  0  0
   48.4360   -6.5880   12.0820 C   0  0  0  0  0  0  0  0  0  0  0  0
   48.0410   -7.8560   12.5230 C   0  0  0  0  0  0  0  0  0  0  0  0
   47.1320   -7.9880   13.5760 C   0  0  0  0  0  0  0  0  0  0  0  0
   46.7470   -9.2580   14.0090 C   0  0  0  0  0  0  0  0  0  0  0  0
   49.3380   -6.4740   11.0300 C   0  0  0  0  0  0  0  0  0  0  0  0
   49.8430   -7.6180   10.4160 C   0  0  0  0  0  0  0  0  0  0  0  0
   49.4610   -8.8810   10.8600 C   0  0  0  0  0  0  0  0  0  0  0  0
   48.5530   -8.9990   11.9060 C   0  0  0  0  0  0  0  0  0  0  0  0
   48.1800  -10.2670   12.3410 C   0  0  0  0  0  0  0  0  0  0  0  0
   47.2670  -10.3990   13.3890 C   0  0  0  0  0  0  0  0  0  0  0  0
   47.9224   -5.4732   13.5887 H   0  0  0  0  0  0  0  0  0  0  0  0
   46.7202   -7.0919   14.0633 H   0  0  0  0  0  0  0  0  0  0  0  0
   46.0332   -9.3617   14.8395 H   0  0  0  0  0  0  0  0  0  0  0  0
   49.6533   -5.4792   10.6821 H   0  0  0  0  0  0  0  0  0  0  0  0
   50.5471   -7.5229    9.5762 H   0  0  0  0  0  0  0  0  0  0  0  0
   49.8761   -9.7821   10.3849 H   0  0  0  0  0  0  0  0  0  0  0  0
   48.6028  -11.1619   11.8611 H   0  0  0  0  0  0  0  0  0  0  0  0
   46.9570  -11.3989   13.7267 H   0  0  0  0  0  0  0  0  0  0  0  0
  1  2  1  0
  2  3  2  0
  2  6  1  0
  3  4  1  0
  3  9  1  0
  4  5  2  0
  5 11  1  0
  6  7  2  0
  7  8  1  0
  8  9  2  0
  9 10  1  0
 10 11  2  0
  1 12  1  0
  4 13  1  0
  5 14  1  0
  6 15  1  0
  7 16  1  0
  8 17  1  0
 10 18  1  0
 11 19  1  0
A    1
O1
A    2
C1
A    3
C8A
A    4
C8
A    5
C7
A    6
C2
A    7
C3
A    8
C4
A    9
C4A
A   10
C5
A   11
C6
M  END
