4B35_4ME_A_1351
     RDKit          3D

 22 23  0  0  0  0  0  0  0  0999 V2000
   23.3260    3.6580   -4.1880 C   0  0  0  0  0  0  0  0  0  0  0  0
   22.1380    4.0960   -3.5240 O   0  0  0  0  0  0  0  0  0  0  0  0
   22.0010    5.4390   -3.5390 C   0  0  0  0  0  0  0  0  0  0  0  0
   22.8400    6.1660   -4.0710 O   0  0  0  0  0  0  0  0  0  0  0  0
   20.7660    6.0140   -2.8600 C   0  0  0  0  0  0  0  0  0  0  0  0
   19.8580    5.1270   -2.3030 C   0  0  0  0  0  0  0  0  0  0  0  0
   18.7220    5.6150   -1.6760 C   0  0  0  0  0  0  0  0  0  0  0  0
   18.4720    6.9650   -1.5990 C   0  0  0  0  0  0  0  0  0  0  0  0
   19.3860    7.8530   -2.1550 C   0  0  0  0  0  0  0  0  0  0  0  0
   20.5270    7.3780   -2.7920 C   0  0  0  0  0  0  0  0  0  0  0  0
   21.2040    8.4380   -3.2280 C   0  0  0  0  0  0  0  0  0  0  0  0
   20.5170    9.5280   -2.8890 C   0  0  0  0  0  0  0  0  0  0  0  0
   19.4050    9.1720   -2.2360 N   0  0  0  0  0  0  0  0  0  0  0  0
   24.0826    3.3791   -3.4398 H   0  0  0  0  0  0  0  0  0  0  0  0
   23.0940    2.7863   -4.8175 H   0  0  0  0  0  0  0  0  0  0  0  0
   23.7154    4.4717   -4.8175 H   0  0  0  0  0  0  0  0  0  0  0  0
   20.0377    4.0432   -2.3581 H   0  0  0  0  0  0  0  0  0  0  0  0
   18.0062    4.9081   -1.2311 H   0  0  0  0  0  0  0  0  0  0  0  0
   17.5623    7.3369   -1.1048 H   0  0  0  0  0  0  0  0  0  0  0  0
   22.1602    8.4176   -3.7713 H   0  0  0  0  0  0  0  0  0  0  0  0
   20.8180   10.5623   -3.1119 H   0  0  0  0  0  0  0  0  0  0  0  0
   18.6901    9.8125   -1.8624 H   0  0  0  0  0  0  0  0  0  0  0  0
  1  2  1  0
  2  3  1  0
  3  4  2  0
  3  5  1  0
  5  6  2  0
  5 10  1  0
  6  7  1  0
  7  8  2  0
  8  9  1  0
  9 10  2  0
  9 13  1  0
 10 11  1  0
 11 12  2  0
 12 13  1  0
  1 14  1  0
  1 15  1  0
  1 16  1  0
  6 17  1  0
  7 18  1  0
  8 19  1  0
 11 20  1  0
 12 21  1  0
 13 22  1  0
A    1
CAJ
A    2
OAM
A    3
CAI
A    4
OAL
A    5
CAG
A    6
CAB
A    7
CAA
A    8
CAC
A    9
CAH
A   10
CAF
A   11
CAD
A   12
CAE
A   13
NAK
M  END
