4B6C_B5U_A_1256
     RDKit          3D

 69 72  0  0  0  0  0  0  0  0999 V2000
   27.6240   37.1060   78.4500 C   0  0  0  0  0  0  0  0  0  0  0  0
   26.5110   36.1060   78.1910 C   0  0  0  0  0  0  0  0  0  0  0  0
   25.3820   36.1080   79.0190 C   0  0  0  0  0  0  0  0  0  0  0  0
   24.3360   35.2280   78.8120 C   0  0  0  0  0  0  0  0  0  0  0  0
   24.3750   34.2820   77.7800 C   0  0  0  0  0  0  0  0  0  0  0  0
   25.4790   34.2910   76.9250 C   0  0  0  0  0  0  0  0  0  0  0  0
   26.5390   35.1920   77.0940 C   0  0  0  0  0  0  0  0  0  0  0  0
   27.6970   35.1160   76.1360 C   0  0  0  0  0  0  0  0  0  0  0  0
   23.2250   33.3690   77.5340 C   0  0  0  0  0  0  0  0  0  0  0  0
   23.3350   32.1500   76.8340 C   0  0  0  0  0  0  0  0  0  0  0  0
   22.2790   31.3340   76.6280 N   0  0  0  0  0  0  0  0  0  0  0  0
   21.0840   31.7600   77.1030 C   0  0  0  0  0  0  0  0  0  0  0  0
   20.9370   33.0150   77.7810 C   0  0  0  0  0  0  0  0  0  0  0  0
   22.0220   33.7900   77.9930 N   0  0  0  0  0  0  0  0  0  0  0  0
   19.6180   33.4950   78.3890 C   0  0  0  0  0  0  0  0  0  0  0  0
   18.5940   32.8090   78.2930 O   0  0  0  0  0  0  0  0  0  0  0  0
   19.6550   34.6520   79.0390 N   0  0  0  0  0  0  0  0  0  0  0  0
   19.9460   30.9980   76.9060 N   0  0  0  0  0  0  0  0  0  0  0  0
   19.7590   29.6520   76.4950 C   0  0  0  0  0  0  0  0  0  0  0  0
   20.6160   29.0230   75.5810 C   0  0  0  0  0  0  0  0  0  0  0  0
   20.3840   27.7110   75.1860 C   0  0  0  0  0  0  0  0  0  0  0  0
   19.2730   27.0220   75.6740 C   0  0  0  0  0  0  0  0  0  0  0  0
   18.3950   27.6530   76.5630 C   0  0  0  0  0  0  0  0  0  0  0  0
   18.6310   28.9690   76.9560 C   0  0  0  0  0  0  0  0  0  0  0  0
   18.9920   25.7230   75.2820 O   0  0  0  0  0  0  0  0  0  0  0  0
   19.6360   25.1590   74.1220 C   0  0  0  0  0  0  0  0  0  0  0  0
   19.0370   23.8220   73.7660 C   0  0  0  0  0  0  0  0  0  0  0  0
   19.2590   22.6550   74.7280 C   0  0  0  0  0  0  0  0  0  0  0  0
   20.6740   22.3480   75.0580 N   0  0  0  0  0  0  0  0  0  0  0  0
   20.7630   21.6820   76.3720 C   0  0  0  0  0  0  0  0  0  0  0  0
   22.2040   21.3390   76.7200 C   0  0  0  0  0  0  0  0  0  0  0  0
   22.8020   20.4920   75.6920 N   0  0  0  0  0  0  0  0  0  0  0  0
   22.7330   21.1700   74.3980 C   0  0  0  0  0  0  0  0  0  0  0  0
   21.2940   21.4880   74.0350 C   0  0  0  0  0  0  0  0  0  0  0  0
   24.1860   20.1630   76.0320 C   0  0  0  0  0  0  0  0  0  0  0  0
   27.7612   37.2292   79.5344 H   0  0  0  0  0  0  0  0  0  0  0  0
   28.5588   36.7385   78.0016 H   0  0  0  0  0  0  0  0  0  0  0  0
   27.3583   38.0747   78.0016 H   0  0  0  0  0  0  0  0  0  0  0  0
   25.3261   36.8247   79.8516 H   0  0  0  0  0  0  0  0  0  0  0  0
   23.4561   35.2717   79.4706 H   0  0  0  0  0  0  0  0  0  0  0  0
   25.5178   33.5702   76.0950 H   0  0  0  0  0  0  0  0  0  0  0  0
   28.6380   35.0542   76.7024 H   0  0  0  0  0  0  0  0  0  0  0  0
   27.5909   34.2229   75.5027 H   0  0  0  0  0  0  0  0  0  0  0  0
   27.7086   36.0153   75.5027 H   0  0  0  0  0  0  0  0  0  0  0  0
   24.3183   31.8524   76.4408 H   0  0  0  0  0  0  0  0  0  0  0  0
   19.6554   34.6643   80.0689 H   0  0  0  0  0  0  0  0  0  0  0  0
   19.6833   35.5373   78.5134 H   0  0  0  0  0  0  0  0  0  0  0  0
   19.0680   31.5031   77.0930 H   0  0  0  0  0  0  0  0  0  0  0  0
   21.4780   29.5718   75.1737 H   0  0  0  0  0  0  0  0  0  0  0  0
   21.0759   27.2158   74.4889 H   0  0  0  0  0  0  0  0  0  0  0  0
   17.5200   27.1109   76.9508 H   0  0  0  0  0  0  0  0  0  0  0  0
   17.9252   29.4727   77.6329 H   0  0  0  0  0  0  0  0  0  0  0  0
   19.5117   25.8463   73.2722 H   0  0  0  0  0  0  0  0  0  0  0  0
   20.7026   25.0150   74.3495 H   0  0  0  0  0  0  0  0  0  0  0  0
   17.9505   23.9655   73.6717 H   0  0  0  0  0  0  0  0  0  0  0  0
   19.5619   23.5228   72.8468 H   0  0  0  0  0  0  0  0  0  0  0  0
   18.7366   22.8883   75.6675 H   0  0  0  0  0  0  0  0  0  0  0  0
   18.8736   21.7643   74.2102 H   0  0  0  0  0  0  0  0  0  0  0  0
   20.3582   22.3542   77.1429 H   0  0  0  0  0  0  0  0  0  0  0  0
   20.1840   20.7478   76.3283 H   0  0  0  0  0  0  0  0  0  0  0  0
   22.7854   22.2691   76.8031 H   0  0  0  0  0  0  0  0  0  0  0  0
   22.2139   20.7924   77.6746 H   0  0  0  0  0  0  0  0  0  0  0  0
   23.3077   22.1065   74.4499 H   0  0  0  0  0  0  0  0  0  0  0  0
   23.1535   20.5063   73.6281 H   0  0  0  0  0  0  0  0  0  0  0  0
   20.7252   20.5495   73.9599 H   0  0  0  0  0  0  0  0  0  0  0  0
   21.2827   22.0207   73.0727 H   0  0  0  0  0  0  0  0  0  0  0  0
   24.2984   20.1363   77.1259 H   0  0  0  0  0  0  0  0  0  0  0  0
   24.4425   19.1788   75.6129 H   0  0  0  0  0  0  0  0  0  0  0  0
   24.8579   20.9264   75.6129 H   0  0  0  0  0  0  0  0  0  0  0  0
  1  2  1  0
  2  3  2  0
  2  7  1  0
  3  4  1  0
  4  5  2  0
  5  6  1  0
  5  9  1  0
  6  7  2  0
  7  8  1  0
  9 10  2  0
  9 14  1  0
 10 11  1  0
 11 12  2  0
 12 13  1  0
 12 18  1  0
 13 14  2  0
 13 15  1  0
 15 16  2  0
 15 17  1  0
 18 19  1  0
 19 20  2  0
 19 24  1  0
 20 21  1  0
 21 22  2  0
 22 23  1  0
 22 25  1  0
 23 24  2  0
 25 26  1  0
 26 27  1  0
 27 28  1  0
 28 29  1  0
 29 30  1  0
 29 34  1  0
 30 31  1  0
 31 32  1  0
 32 33  1  0
 32 35  1  0
 33 34  1  0
  1 36  1  0
  1 37  1  0
  1 38  1  0
  3 39  1  0
  4 40  1  0
  6 41  1  0
  8 42  1  0
  8 43  1  0
  8 44  1  0
 10 45  1  0
 17 46  1  0
 17 47  1  0
 18 48  1  0
 20 49  1  0
 21 50  1  0
 23 51  1  0
 24 52  1  0
 26 53  1  0
 26 54  1  0
 27 55  1  0
 27 56  1  0
 28 57  1  0
 28 58  1  0
 30 59  1  0
 30 60  1  0
 31 61  1  0
 31 62  1  0
 33 63  1  0
 33 64  1  0
 34 65  1  0
 34 66  1  0
 35 67  1  0
 35 68  1  0
 35 69  1  0
A    1
C1
A    2
C2
A    3
C3
A    4
C4
A    5
C5
A    6
C6
A    7
C7
A    8
C8
A    9
C9
A   10
C10
A   11
N11
A   12
C12
A   13
C13
A   14
N14
A   15
C15
A   16
O16
A   17
N17
A   18
N18
A   19
C19
A   20
C20
A   21
C21
A   22
C22
A   23
C23
A   24
C24
A   25
O25
A   26
C26
A   27
C27
A   28
C28
A   29
N29
A   30
C30
A   31
C31
A   32
N32
A   33
C33
A   34
C34
A   35
C35
M  END
