4B6F_20L_A_1722
     RDKit          3D

 29 30  0  0  0  0  0  0  0  0999 V2000
   -0.1500   14.8320  -43.5070 N   0  0  0  0  0  0  0  0  0  0  0  0
   -0.0610   14.5840  -42.0440 C   0  0  0  0  0  0  0  0  0  0  0  0
    7.4920   13.5410  -37.9400 C   0  0  0  0  0  0  0  0  0  0  0  0
    7.9870   14.3760  -38.9220 C   0  0  0  0  0  0  0  0  0  0  0  0
    7.1440   15.2470  -39.5760 C   0  0  0  0  0  0  0  0  0  0  0  0
    5.7990   15.3030  -39.2350 C   0  0  0  0  0  0  0  0  0  0  0  0
    5.2980   14.4360  -38.2760 C   0  0  0  0  0  0  0  0  0  0  0  0
    6.1500   13.5750  -37.6140 C   0  0  0  0  0  0  0  0  0  0  0  0
    1.2700   14.9940  -41.4660 C   0  0  0  0  0  0  0  0  0  0  0  0
    1.5460   16.3330  -41.2040 C   0  0  0  0  0  0  0  0  0  0  0  0
    2.7720   16.7120  -40.6960 C   0  0  0  0  0  0  0  0  0  0  0  0
    3.7240   15.7560  -40.3840 C   0  0  0  0  0  0  0  0  0  0  0  0
    3.4750   14.4230  -40.6790 C   0  0  0  0  0  0  0  0  0  0  0  0
    2.2530   14.0430  -41.1960 C   0  0  0  0  0  0  0  0  0  0  0  0
    4.9590   16.1520  -39.9170 O   0  0  0  0  0  0  0  0  0  0  0  0
   -0.4934   15.7888  -43.6728 H   0  0  0  0  0  0  0  0  0  0  0  0
    0.7824   14.7236  -43.9310 H   0  0  0  0  0  0  0  0  0  0  0  0
   -0.8007   14.1554  -43.9310 H   0  0  0  0  0  0  0  0  0  0  0  0
   -0.8547   15.1558  -41.5409 H   0  0  0  0  0  0  0  0  0  0  0  0
   -0.1753   13.5020  -41.8821 H   0  0  0  0  0  0  0  0  0  0  0  0
    8.1671   12.8479  -37.4166 H   0  0  0  0  0  0  0  0  0  0  0  0
    9.0554   14.3456  -39.1822 H   0  0  0  0  0  0  0  0  0  0  0  0
    7.5368   15.8994  -40.3698 H   0  0  0  0  0  0  0  0  0  0  0  0
    4.2230   14.4343  -38.0430 H   0  0  0  0  0  0  0  0  0  0  0  0
    5.7597   12.9148  -36.8255 H   0  0  0  0  0  0  0  0  0  0  0  0
    0.7796   17.0964  -41.4038 H   0  0  0  0  0  0  0  0  0  0  0  0
    2.9938   17.7778  -40.5383 H   0  0  0  0  0  0  0  0  0  0  0  0
    4.2538   13.6670  -40.5003 H   0  0  0  0  0  0  0  0  0  0  0  0
    2.0529   12.9802  -41.3968 H   0  0  0  0  0  0  0  0  0  0  0  0
  1  2  1  0
  2  9  1  0
  8  7  1  0
  8  3  2  0
  7  6  2  0
  6  5  1  0
  6 15  1  0
  5  4  2  0
  4  3  1  0
  9 10  2  0
  9 14  1  0
 10 11  1  0
 11 12  2  0
 12 13  1  0
 12 15  1  0
 13 14  2  0
  1 16  1  0
  1 17  1  0
  1 18  1  0
  2 19  1  0
  2 20  1  0
  3 21  1  0
  4 22  1  0
  5 23  1  0
  7 24  1  0
  8 25  1  0
 10 26  1  0
 11 27  1  0
 13 28  1  0
 14 29  1  0
M  CHG  1   1   1
A    1
N13
A    2
C15
A    3
C22
A    4
C21
A    5
C20
A    6
C19
A    7
C18
A    8
C17
A    9
C23
A   10
C24
A   11
C25
A   12
C26
A   13
C27
A   14
C28
A   15
O10
M  END
