4B6L_9ZP_A_1333
     RDKit          3D

 67 72  0  0  0  0  0  0  0  0999 V2000
   60.0800   -7.0320   -8.9500 N   0  0  0  0  0  0  0  0  0  0  0  0
   61.3520   -7.7760   -9.0200 C   0  0  0  0  0  0  0  0  0  0  0  0
   61.7020   -8.6700   -7.8300 C   0  0  0  0  0  0  0  0  0  0  0  0
   61.3140   -9.2980   -9.1710 C   0  0  0  0  0  0  0  0  0  0  0  0
   59.8190   -6.0660   -9.8490 C   0  0  0  0  0  0  0  0  0  0  0  0
   60.4900   -6.0150  -10.8780 O   0  0  0  0  0  0  0  0  0  0  0  0
   58.5140   -5.3770   -9.8450 C   0  0  0  0  0  0  0  0  0  0  0  0
   58.0050   -4.9040  -11.0670 C   0  0  0  0  0  0  0  0  0  0  0  0
   56.8220   -4.2160  -11.1110 C   0  0  0  0  0  0  0  0  0  0  0  0
   56.3070   -3.7700  -12.3060 O   0  0  0  0  0  0  0  0  0  0  0  0
   57.0540   -3.9960  -13.5080 C   0  0  0  0  0  0  0  0  0  0  0  0
   56.0890   -4.0240   -9.9370 C   0  0  0  0  0  0  0  0  0  0  0  0
   56.6170   -4.4290   -8.6960 C   0  0  0  0  0  0  0  0  0  0  0  0
   57.8100   -5.1340   -8.6490 C   0  0  0  0  0  0  0  0  0  0  0  0
   54.9240   -3.2830  -10.0510 N   0  0  0  0  0  0  0  0  0  0  0  0
   53.8340   -3.3210   -9.2080 C   0  0  0  0  0  0  0  0  0  0  0  0
   53.8570   -4.0270   -8.0750 N   0  0  0  0  0  0  0  0  0  0  0  0
   52.7850   -4.0620   -7.2730 C   0  0  0  0  0  0  0  0  0  0  0  0
   51.6500   -3.2570   -7.6440 C   0  0  0  0  0  0  0  0  0  0  0  0
   51.6860   -2.5450   -8.8050 C   0  0  0  0  0  0  0  0  0  0  0  0
   52.7730   -2.6210   -9.5910 N   0  0  0  0  0  0  0  0  0  0  0  0
   50.5450   -3.2020   -6.7700 N   0  0  0  0  0  0  0  0  0  0  0  0
   49.4720   -2.4090   -6.7110 C   0  0  0  0  0  0  0  0  0  0  0  0
   48.8080   -2.7410   -5.6370 N   0  0  0  0  0  0  0  0  0  0  0  0
   49.4150   -3.6960   -5.0200 N   0  0  0  0  0  0  0  0  0  0  0  0
   50.5000   -4.0010   -5.6370 C   0  0  0  0  0  0  0  0  0  0  0  0
   51.5610   -5.0670   -5.3390 C   0  0  0  0  0  0  0  0  0  0  0  0
   51.0030   -6.4720   -5.6820 C   0  0  0  0  0  0  0  0  0  0  0  0
   50.6420   -6.5830   -7.1870 C   0  0  0  0  0  0  0  0  0  0  0  0
   52.8130   -4.7740   -6.0830 N   0  0  0  0  0  0  0  0  0  0  0  0
   54.0890   -5.4670   -5.6990 C   0  0  0  0  0  0  0  0  0  0  0  0
   54.1430   -5.8800   -4.2000 C   0  0  0  0  0  0  0  0  0  0  0  0
   55.2430   -6.9710   -4.1740 C   0  0  0  0  0  0  0  0  0  0  0  0
   55.1250   -7.7000   -5.5450 C   0  0  0  0  0  0  0  0  0  0  0  0
   54.3050   -6.7850   -6.4750 C   0  0  0  0  0  0  0  0  0  0  0  0
   59.3933   -7.2517   -8.2144 H   0  0  0  0  0  0  0  0  0  0  0  0
   61.8495   -6.9633   -9.5696 H   0  0  0  0  0  0  0  0  0  0  0  0
   62.7412   -8.7306   -7.4745 H   0  0  0  0  0  0  0  0  0  0  0  0
   61.3424   -8.7628   -6.7946 H   0  0  0  0  0  0  0  0  0  0  0  0
   60.3497   -9.8164   -9.2772 H   0  0  0  0  0  0  0  0  0  0  0  0
   61.7793  -10.0241   -9.8539 H   0  0  0  0  0  0  0  0  0  0  0  0
   58.5626   -5.0884  -11.9971 H   0  0  0  0  0  0  0  0  0  0  0  0
   58.0777   -4.3057  -13.2508 H   0  0  0  0  0  0  0  0  0  0  0  0
   56.5688   -4.7875  -14.0979 H   0  0  0  0  0  0  0  0  0  0  0  0
   57.0889   -3.0682  -14.0979 H   0  0  0  0  0  0  0  0  0  0  0  0
   56.0837   -4.1864   -7.7650 H   0  0  0  0  0  0  0  0  0  0  0  0
   58.2025   -5.4995   -7.6886 H   0  0  0  0  0  0  0  0  0  0  0  0
   54.8662   -2.6354  -10.8499 H   0  0  0  0  0  0  0  0  0  0  0  0
   50.8333   -1.9140   -9.0961 H   0  0  0  0  0  0  0  0  0  0  0  0
   49.1991   -1.6240   -7.4316 H   0  0  0  0  0  0  0  0  0  0  0  0
   49.0792   -4.1487   -4.1579 H   0  0  0  0  0  0  0  0  0  0  0  0
   51.0396   -3.2279   -5.0703 H   0  0  0  0  0  0  0  0  0  0  0  0
   51.8057   -5.0508   -4.2667 H   0  0  0  0  0  0  0  0  0  0  0  0
   51.7635   -7.2287   -5.4391 H   0  0  0  0  0  0  0  0  0  0  0  0
   50.0888   -6.6360   -5.0926 H   0  0  0  0  0  0  0  0  0  0  0  0
   49.5952   -6.9049   -7.2902 H   0  0  0  0  0  0  0  0  0  0  0  0
   50.7735   -5.6029   -7.6689 H   0  0  0  0  0  0  0  0  0  0  0  0
   51.3014   -7.3199   -7.6689 H   0  0  0  0  0  0  0  0  0  0  0  0
   54.8590   -4.7172   -5.9334 H   0  0  0  0  0  0  0  0  0  0  0  0
   54.4196   -5.0255   -3.5649 H   0  0  0  0  0  0  0  0  0  0  0  0
   53.1753   -6.2332   -3.8142 H   0  0  0  0  0  0  0  0  0  0  0  0
   56.2375   -6.5139   -4.0641 H   0  0  0  0  0  0  0  0  0  0  0  0
   55.1173   -7.6624   -3.3278 H   0  0  0  0  0  0  0  0  0  0  0  0
   56.1255   -7.8702   -5.9693 H   0  0  0  0  0  0  0  0  0  0  0  0
   54.6362   -8.6784   -5.4276 H   0  0  0  0  0  0  0  0  0  0  0  0
   53.3373   -7.2510   -6.7125 H   0  0  0  0  0  0  0  0  0  0  0  0
   54.8266   -6.6093   -7.4274 H   0  0  0  0  0  0  0  0  0  0  0  0
  1  2  1  0
  1  5  1  0
  2  3  1  0
  2  4  1  0
  3  4  1  0
  5  6  2  0
  5  7  1  0
  7  8  2  0
  7 14  1  0
  8  9  1  0
  9 10  1  0
  9 12  2  0
 10 11  1  0
 12 13  1  0
 12 15  1  0
 13 14  2  0
 15 16  1  0
 16 17  2  0
 16 21  1  0
 17 18  1  0
 18 19  2  0
 18 30  1  0
 19 20  1  0
 19 22  1  0
 20 21  2  0
 22 23  1  0
 22 26  1  0
 23 24  2  0
 24 25  1  0
 25 26  1  0
 26 27  1  0
 27 28  1  0
 27 30  1  0
 28 29  1  0
 30 31  1  0
 31 32  1  0
 31 35  1  0
 32 33  1  0
 33 34  1  0
 34 35  1  0
  1 36  1  0
  2 37  1  0
  3 38  1  0
  3 39  1  0
  4 40  1  0
  4 41  1  0
  8 42  1  0
 11 43  1  0
 11 44  1  0
 11 45  1  0
 13 46  1  0
 14 47  1  0
 15 48  1  0
 20 49  1  0
 23 50  1  0
 25 51  1  0
 26 52  1  0
 27 53  1  0
 28 54  1  0
 28 55  1  0
 29 56  1  0
 29 57  1  0
 29 58  1  0
 31 59  1  0
 32 60  1  0
 32 61  1  0
 33 62  1  0
 33 63  1  0
 34 64  1  0
 34 65  1  0
 35 66  1  0
 35 67  1  0
A    1
N2
A    2
C3
A    3
C4
A    4
C5
A    5
C6
A    6
O7
A    7
C8
A    8
C9
A    9
C10
A   10
O11
A   11
C12
A   12
C13
A   13
C14
A   14
C15
A   15
N16
A   16
C18
A   17
N19
A   18
C20
A   19
C21
A   20
C22
A   21
N23
A   22
N24
A   23
C25
A   24
N26
A   25
N27
A   26
C28
A   27
C29
A   28
C31
A   29
C32
A   30
N33
A   31
C34
A   32
C35
A   33
C36
A   34
C37
A   35
C38
M  END
