4B77_54M_A_1504
     RDKit          3D

 46 49  0  0  0  0  0  0  0  0999 V2000
    5.5780    6.8520  -25.8940 C   0  0  0  0  0  0  0  0  0  0  0  0
    6.6450    6.2270  -25.1580 O   0  0  0  0  0  0  0  0  0  0  0  0
    6.3390    5.3480  -24.1550 C   0  0  0  0  0  0  0  0  0  0  0  0
    7.3460    5.0280  -23.2550 C   0  0  0  0  0  0  0  0  0  0  0  0
    7.0800    4.1670  -22.1920 C   0  0  0  0  0  0  0  0  0  0  0  0
    5.0520    4.7760  -24.0290 C   0  0  0  0  0  0  0  0  0  0  0  0
    4.8000    3.8810  -22.9860 C   0  0  0  0  0  0  0  0  0  0  0  0
    5.8020    3.5980  -22.0490 C   0  0  0  0  0  0  0  0  0  0  0  0
    5.5010    2.6590  -20.8840 C   0  0  0  0  0  0  0  0  0  0  0  0
    6.4280    3.0100  -19.6600 C   0  0  0  0  0  0  0  0  0  0  0  0
    4.0570    3.2780  -19.1430 C   0  0  0  0  0  0  0  0  0  0  0  0
    4.1270    2.9240  -20.3920 N   0  0  0  0  0  0  0  0  0  0  0  0
    2.8860    3.5640  -18.4600 N   0  0  0  0  0  0  0  0  0  0  0  0
    5.7440    1.2110  -21.2310 C   0  0  0  0  0  0  0  0  0  0  0  0
    5.2280    0.2150  -20.4040 C   0  0  0  0  0  0  0  0  0  0  0  0
    6.5310    0.8410  -22.3260 C   0  0  0  0  0  0  0  0  0  0  0  0
    6.7480   -0.5180  -22.6040 C   0  0  0  0  0  0  0  0  0  0  0  0
    6.2320   -1.5130  -21.7850 C   0  0  0  0  0  0  0  0  0  0  0  0
    5.4360   -1.1330  -20.6940 C   0  0  0  0  0  0  0  0  0  0  0  0
    4.8700   -2.1490  -19.7350 C   0  0  0  0  0  0  0  0  0  0  0  0
    5.4460    3.3210  -18.5090 C   0  0  0  0  0  0  0  0  0  0  0  0
    3.5460   -2.0900  -19.2550 C   0  0  0  0  0  0  0  0  0  0  0  0
    3.1620   -3.0270  -18.3680 N   0  0  0  0  0  0  0  0  0  0  0  0
    3.9720   -3.9790  -17.9470 C   0  0  0  0  0  0  0  0  0  0  0  0
    5.2330   -4.0730  -18.3740 N   0  0  0  0  0  0  0  0  0  0  0  0
    5.7020   -3.1800  -19.2480 C   0  0  0  0  0  0  0  0  0  0  0  0
    4.8484    7.2793  -25.1903 H   0  0  0  0  0  0  0  0  0  0  0  0
    5.9889    7.6522  -26.5271 H   0  0  0  0  0  0  0  0  0  0  0  0
    5.0810    6.1022  -26.5271 H   0  0  0  0  0  0  0  0  0  0  0  0
    8.3526    5.4534  -23.3806 H   0  0  0  0  0  0  0  0  0  0  0  0
    7.8705    3.9322  -21.4640 H   0  0  0  0  0  0  0  0  0  0  0  0
    4.2573    5.0330  -24.7448 H   0  0  0  0  0  0  0  0  0  0  0  0
    3.8150    3.3988  -22.9008 H   0  0  0  0  0  0  0  0  0  0  0  0
    7.0717    2.1561  -19.4021 H   0  0  0  0  0  0  0  0  0  0  0  0
    7.1027    3.8521  -19.8737 H   0  0  0  0  0  0  0  0  0  0  0  0
    2.8779    3.5660  -17.4300 H   0  0  0  0  0  0  0  0  0  0  0  0
    2.0235    3.7746  -18.9822 H   0  0  0  0  0  0  0  0  0  0  0  0
    4.6495    0.4957  -19.5115 H   0  0  0  0  0  0  0  0  0  0  0  0
    6.9793    1.6133  -22.9684 H   0  0  0  0  0  0  0  0  0  0  0  0
    7.3385   -0.7998  -23.4882 H   0  0  0  0  0  0  0  0  0  0  0  0
    6.4422   -2.5738  -21.9866 H   0  0  0  0  0  0  0  0  0  0  0  0
    5.5309    2.5646  -17.7149 H   0  0  0  0  0  0  0  0  0  0  0  0
    5.6547    4.2955  -18.0433 H   0  0  0  0  0  0  0  0  0  0  0  0
    2.8517   -1.3066  -19.5930 H   0  0  0  0  0  0  0  0  0  0  0  0
    3.5972   -4.7172  -17.2227 H   0  0  0  0  0  0  0  0  0  0  0  0
    6.7448   -3.2480  -19.5914 H   0  0  0  0  0  0  0  0  0  0  0  0
  1  2  1  0
  2  3  1  0
  3  4  2  0
  3  6  1  0
  4  5  1  0
  5  8  2  0
  6  7  2  0
  7  8  1  0
  8  9  1  0
  9 10  1  0
  9 12  1  0
  9 14  1  0
 10 21  1  0
 11 12  2  0
 11 13  1  0
 11 21  1  0
 14 15  2  0
 14 16  1  0
 15 19  1  0
 16 17  2  0
 17 18  1  0
 18 19  2  0
 19 20  1  0
 20 22  2  0
 20 26  1  0
 22 23  1  0
 23 24  2  0
 24 25  1  0
 25 26  2  0
  1 27  1  0
  1 28  1  0
  1 29  1  0
  4 30  1  0
  5 31  1  0
  6 32  1  0
  7 33  1  0
 10 34  1  0
 10 35  1  0
 13 36  1  0
 13 37  1  0
 15 38  1  0
 16 39  1  0
 17 40  1  0
 18 41  1  0
 21 42  1  0
 21 43  1  0
 22 44  1  0
 24 45  1  0
 26 46  1  0
A    1
C15
A    2
O14
A    3
C2
A    4
C3
A    5
C4
A    6
C1
A    7
C6
A    8
C5
A    9
C7
A   10
C19
A   11
C17
A   12
N16
A   13
N20
A   14
C8
A   15
C13
A   16
C9
A   17
C10
A   18
C11
A   19
C12
A   20
C21
A   21
C14
A   22
C26
A   23
N21
A   24
C24
A   25
N23
A   26
C22
M  END
