4B7D_QLE_A_1408
     RDKit          3D

 65 65  0  0  0  0  0  0  0  0999 V2000
   -5.0610   -1.9300    2.3700 O   0  0  0  0  0  0  0  0  0  0  0  0
   -4.5760   -1.6290    3.4200 C   0  0  0  0  0  0  0  0  0  0  0  0
   -5.6100   -1.2970    4.4270 C   0  0  0  0  0  0  0  0  0  0  0  0
   -5.4170    0.1420    4.8230 C   0  0  0  0  0  0  0  0  0  0  0  0
   -5.5200   -2.2510    5.6280 C   0  0  0  0  0  0  0  0  0  0  0  0
   -5.6230   -3.7490    5.2910 C   0  0  0  0  0  0  0  0  0  0  0  0
   -7.0700   -4.1670    5.0320 C   0  0  0  0  0  0  0  0  0  0  0  0
   -5.0680   -4.5580    6.4550 C   0  0  0  0  0  0  0  0  0  0  0  0
   -5.8600   -4.3160    7.6320 O   0  0  0  0  0  0  0  0  0  0  0  0
   -6.4510   -5.4990    8.2360 C   0  0  0  0  0  0  0  0  0  0  0  0
   -6.2320   -6.5780    7.6930 O   0  0  0  0  0  0  0  0  0  0  0  0
   -7.2800   -5.3360    9.5000 C   0  0  0  0  0  0  0  0  0  0  0  0
   -7.3640   -6.6170   10.3070 C   0  0  0  0  0  0  0  0  0  0  0  0
   -7.4950   -6.2280   11.7240 N   0  0  0  0  0  0  0  0  0  0  0  0
   -8.6100   -5.3320   11.8910 C   0  0  0  0  0  0  0  0  0  0  0  0
   -7.8020   -7.4910   12.3480 C   0  0  0  0  0  0  0  0  0  0  0  0
   -3.6170   -4.2170    6.7740 C   0  0  0  0  0  0  0  0  0  0  0  0
   -3.1440   -4.8260    8.0710 C   0  0  0  0  0  0  0  0  0  0  0  0
   -2.6340   -4.6160    5.6890 C   0  0  0  0  0  0  0  0  0  0  0  0
   -2.7970   -5.6410    5.0360 O   0  0  0  0  0  0  0  0  0  0  0  0
   -1.4470   -3.7770    5.4750 O   0  0  0  0  0  0  0  0  0  0  0  0
   -0.7370   -3.8410    4.2020 C   0  0  0  0  0  0  0  0  0  0  0  0
    0.7040   -4.3140    4.4270 C   0  0  0  0  0  0  0  0  0  0  0  0
    0.7720   -5.7350    4.9750 C   0  0  0  0  0  0  0  0  0  0  0  0
   -0.7650   -2.4670    3.4940 C   0  0  0  0  0  0  0  0  0  0  0  0
   -0.4740   -1.3140    4.4340 C   0  0  0  0  0  0  0  0  0  0  0  0
   -2.1980   -2.3420    3.0080 C   0  0  0  0  0  0  0  0  0  0  0  0
   -3.1250   -1.7260    3.7640 C   0  0  0  0  0  0  0  0  0  0  0  0
   -6.6202   -1.4238    4.0105 H   0  0  0  0  0  0  0  0  0  0  0  0
   -5.4063    0.2221    5.9200 H   0  0  0  0  0  0  0  0  0  0  0  0
   -4.4617    0.5085    4.4192 H   0  0  0  0  0  0  0  0  0  0  0  0
   -6.2420    0.7472    4.4192 H   0  0  0  0  0  0  0  0  0  0  0  0
   -4.5535   -2.0807    6.1248 H   0  0  0  0  0  0  0  0  0  0  0  0
   -6.3895   -2.0227    6.2619 H   0  0  0  0  0  0  0  0  0  0  0  0
   -5.0435   -3.9385    4.3754 H   0  0  0  0  0  0  0  0  0  0  0  0
   -7.5860   -4.3161    5.9920 H   0  0  0  0  0  0  0  0  0  0  0  0
   -7.5820   -3.3800    4.4588 H   0  0  0  0  0  0  0  0  0  0  0  0
   -7.0835   -5.1058    4.4588 H   0  0  0  0  0  0  0  0  0  0  0  0
   -5.1104   -5.6153    6.1544 H   0  0  0  0  0  0  0  0  0  0  0  0
   -6.8218   -4.5548   10.1244 H   0  0  0  0  0  0  0  0  0  0  0  0
   -8.3018   -5.0633    9.1974 H   0  0  0  0  0  0  0  0  0  0  0  0
   -8.2403   -7.2036    9.9940 H   0  0  0  0  0  0  0  0  0  0  0  0
   -6.4689   -7.2373   10.1520 H   0  0  0  0  0  0  0  0  0  0  0  0
   -8.8001   -5.1792   12.9636 H   0  0  0  0  0  0  0  0  0  0  0  0
   -8.3782   -4.3661   11.4185 H   0  0  0  0  0  0  0  0  0  0  0  0
   -9.5034   -5.7663   11.4185 H   0  0  0  0  0  0  0  0  0  0  0  0
   -7.7741   -7.3760   13.4416 H   0  0  0  0  0  0  0  0  0  0  0  0
   -8.8058   -7.8181   12.0392 H   0  0  0  0  0  0  0  0  0  0  0  0
   -7.0603   -8.2424   12.0392 H   0  0  0  0  0  0  0  0  0  0  0  0
   -3.6285   -3.1200    6.8538 H   0  0  0  0  0  0  0  0  0  0  0  0
   -3.5759   -4.2700    8.9162 H   0  0  0  0  0  0  0  0  0  0  0  0
   -3.4650   -5.8769    8.1212 H   0  0  0  0  0  0  0  0  0  0  0  0
   -2.0463   -4.7751    8.1212 H   0  0  0  0  0  0  0  0  0  0  0  0
   -1.2432   -4.5672    3.5490 H   0  0  0  0  0  0  0  0  0  0  0  0
    1.2407   -4.2797    3.4674 H   0  0  0  0  0  0  0  0  0  0  0  0
    1.1632   -3.6461    5.1707 H   0  0  0  0  0  0  0  0  0  0  0  0
    0.7705   -5.7044    6.0746 H   0  0  0  0  0  0  0  0  0  0  0  0
   -0.0999   -6.3059    4.6229 H   0  0  0  0  0  0  0  0  0  0  0  0
    1.6944   -6.2200    4.6229 H   0  0  0  0  0  0  0  0  0  0  0  0
   -0.0007   -2.4193    2.7044 H   0  0  0  0  0  0  0  0  0  0  0  0
   -0.5610   -1.6587    5.4750 H   0  0  0  0  0  0  0  0  0  0  0  0
    0.5459   -0.9431    4.2546 H   0  0  0  0  0  0  0  0  0  0  0  0
   -1.1958   -0.5035    4.2546 H   0  0  0  0  0  0  0  0  0  0  0  0
   -2.4806   -2.7584    2.0299 H   0  0  0  0  0  0  0  0  0  0  0  0
   -2.7907   -1.2603    4.7028 H   0  0  0  0  0  0  0  0  0  0  0  0
  1  2  2  0
  2  3  1  0
  2 28  1  0
  3  4  1  0
  3  5  1  0
  5  6  1  0
  6  7  1  0
  6  8  1  0
  8  9  1  0
  8 17  1  0
  9 10  1  0
 10 11  2  0
 10 12  1  0
 12 13  1  0
 13 14  1  0
 14 15  1  0
 14 16  1  0
 17 18  1  0
 17 19  1  0
 19 20  2  0
 19 21  1  0
 21 22  1  0
 22 23  1  0
 22 25  1  0
 23 24  1  0
 25 26  1  0
 25 27  1  0
 27 28  2  0
  3 29  1  0
  4 30  1  0
  4 31  1  0
  4 32  1  0
  5 33  1  0
  5 34  1  0
  6 35  1  0
  7 36  1  0
  7 37  1  0
  7 38  1  0
  8 39  1  0
 12 40  1  0
 12 41  1  0
 13 42  1  0
 13 43  1  0
 15 44  1  0
 15 45  1  0
 15 46  1  0
 16 47  1  0
 16 48  1  0
 16 49  1  0
 17 50  1  0
 18 51  1  0
 18 52  1  0
 18 53  1  0
 22 54  1  0
 23 55  1  0
 23 56  1  0
 24 57  1  0
 24 58  1  0
 24 59  1  0
 25 60  1  0
 26 61  1  0
 26 62  1  0
 26 63  1  0
 27 64  1  0
 28 65  1  0
A    1
O5
A    2
C22
A    3
C20
A    4
C21
A    5
C19
A    6
C17
A    7
C18
A    8
C11
A    9
O3
A   10
C12
A   11
O4
A   12
C13
A   13
C14
A   14
N
A   15
C16
A   16
C15
A   17
C9
A   18
C10
A   19
C8
A   20
O2
A   21
O1
A   22
C5
A   23
C6
A   24
C7
A   25
C3
A   26
C4
A   27
C2
A   28
C1
M  END
