4B81_ZN4_A_600
     RDKit          3D

 40 40  0  0  0  0  0  0  0  0999 V2000
   29.2810   19.6310   11.8060 S   0  0  0  0  0  0  0  0  0  0  0  0
   29.3890   20.5930   13.1800 N   0  0  0  0  0  0  0  0  0  0  0  0
   28.0050   19.0310   11.7280 O   0  0  0  0  0  0  0  0  0  0  0  0
   31.7890   21.0920    9.4250 C   0  0  0  0  0  0  0  0  0  0  0  0
   26.6540   19.3040   14.2530 N   0  0  0  0  0  0  0  0  0  0  0  0
   30.4240   18.7970   11.8580 O   0  0  0  0  0  0  0  0  0  0  0  0
   30.6950   21.5300   10.1880 C   0  0  0  0  0  0  0  0  0  0  0  0
   34.4590   24.0440    9.7400 Cl  0  0  0  0  0  0  0  0  0  0  0  0
   29.4420   20.6860   10.3680 C   0  0  0  0  0  0  0  0  0  0  0  0
   24.6020   20.7160   13.6670 C   0  0  0  0  0  0  0  0  0  0  0  0
   30.8250   22.7880   10.7960 C   0  0  0  0  0  0  0  0  0  0  0  0
   31.9730   23.5610   10.6700 C   0  0  0  0  0  0  0  0  0  0  0  0
   33.0290   23.0890    9.9110 C   0  0  0  0  0  0  0  0  0  0  0  0
   32.9460   21.8540    9.2850 C   0  0  0  0  0  0  0  0  0  0  0  0
   28.2230   21.3360   13.7720 C   0  0  0  0  0  0  0  0  0  0  0  0
   27.1900   20.6500   14.7480 C   0  0  0  0  0  0  0  0  0  0  0  0
   25.4330   19.4740   13.3730 C   0  0  0  0  0  0  0  0  0  0  0  0
   26.1660   18.5280   15.4540 C   0  0  0  0  0  0  0  0  0  0  0  0
   26.6400   17.0820   15.4990 C   0  0  0  0  0  0  0  0  0  0  0  0
   29.7375   19.9762   13.9277 H   0  0  0  0  0  0  0  0  0  0  0  0
   31.7303   20.1157    8.9217 H   0  0  0  0  0  0  0  0  0  0  0  0
   29.3666   20.0348    9.4847 H   0  0  0  0  0  0  0  0  0  0  0  0
   28.6479   21.4339   10.5092 H   0  0  0  0  0  0  0  0  0  0  0  0
   24.5133   20.8486   14.7554 H   0  0  0  0  0  0  0  0  0  0  0  0
   25.0927   21.5977   13.2290 H   0  0  0  0  0  0  0  0  0  0  0  0
   23.5998   20.5988   13.2290 H   0  0  0  0  0  0  0  0  0  0  0  0
   29.9876   23.1765   11.3942 H   0  0  0  0  0  0  0  0  0  0  0  0
   32.0414   24.5389   11.1690 H   0  0  0  0  0  0  0  0  0  0  0  0
   33.7871   21.4797    8.6830 H   0  0  0  0  0  0  0  0  0  0  0  0
   28.6506   22.1844   14.3264 H   0  0  0  0  0  0  0  0  0  0  0  0
   27.6025   21.5278   12.8842 H   0  0  0  0  0  0  0  0  0  0  0  0
   27.6860   20.4882   15.7164 H   0  0  0  0  0  0  0  0  0  0  0  0
   26.3257   21.3267   14.8183 H   0  0  0  0  0  0  0  0  0  0  0  0
   25.7696   19.5271   12.3271 H   0  0  0  0  0  0  0  0  0  0  0  0
   24.7822   18.6107   13.5760 H   0  0  0  0  0  0  0  0  0  0  0  0
   26.5237   19.0364   16.3615 H   0  0  0  0  0  0  0  0  0  0  0  0
   25.0685   18.4983   15.3858 H   0  0  0  0  0  0  0  0  0  0  0  0
   26.7446   16.7629   16.5465 H   0  0  0  0  0  0  0  0  0  0  0  0
   25.9055   16.4394   14.9915 H   0  0  0  0  0  0  0  0  0  0  0  0
   27.6124   16.9989   14.9915 H   0  0  0  0  0  0  0  0  0  0  0  0
  3  1  2  0
  1  9  1  0
  1  2  1  0
  1  6  2  0
  9  7  1  0
  7  4  2  0
  7 11  1  0
  4 14  1  0
 14 13  2  0
 13  8  1  0
 13 12  1  0
 12 11  2  0
  2 15  1  0
 15 16  1  0
 16  5  1  0
  5 18  1  0
  5 17  1  0
 18 19  1  0
 17 10  1  0
  2 20  1  0
  4 21  1  0
  9 22  1  0
  9 23  1  0
 10 24  1  0
 10 25  1  0
 10 26  1  0
 11 27  1  0
 12 28  1  0
 14 29  1  0
 15 30  1  0
 15 31  1  0
 16 32  1  0
 16 33  1  0
 17 34  1  0
 17 35  1  0
 18 36  1  0
 18 37  1  0
 19 38  1  0
 19 39  1  0
 19 40  1  0
A    1
S02
A    2
N11
A    3
O01
A    4
C05
A    5
N14
A    6
O19
A    7
C04
A    8
CL8
A    9
C03
A   10
C18
A   11
C10
A   12
C09
A   13
C07
A   14
C06
A   15
C12
A   16
C13
A   17
C17
A   18
C15
A   19
C16
M  END
