4B85_B3W_A_600
     RDKit          3D

 37 37  0  0  0  0  0  0  0  0999 V2000
   28.0710   19.2670   11.9720 O   0  0  0  0  0  0  0  0  0  0  0  0
   29.4320   19.5210   12.2780 S   0  0  0  0  0  0  0  0  0  0  0  0
   30.2650   18.4030   12.5440 O   0  0  0  0  0  0  0  0  0  0  0  0
   29.5000   20.5300   13.5920 N   0  0  0  0  0  0  0  0  0  0  0  0
   28.5430   21.6640   13.6880 C   0  0  0  0  0  0  0  0  0  0  0  0
   27.3580   21.4590   14.6820 C   0  0  0  0  0  0  0  0  0  0  0  0
   26.8150   20.0490   14.5260 N   0  0  0  0  0  0  0  0  0  0  0  0
   25.5570   19.9610   13.6800 C   0  0  0  0  0  0  0  0  0  0  0  0
   24.9550   21.3520   13.4180 C   0  0  0  0  0  0  0  0  0  0  0  0
   30.0840   20.4060   11.0040 C   0  0  0  0  0  0  0  0  0  0  0  0
   29.3520   21.4050   10.3270 C   0  0  0  0  0  0  0  0  0  0  0  0
   29.9110   22.1340    9.2750 C   0  0  0  0  0  0  0  0  0  0  0  0
   31.2220   21.8480    8.8970 C   0  0  0  0  0  0  0  0  0  0  0  0
   31.9700   20.8770    9.5330 C   0  0  0  0  0  0  0  0  0  0  0  0
   31.3900   20.1670   10.5750 C   0  0  0  0  0  0  0  0  0  0  0  0
   26.6800   19.3360   15.8480 C   0  0  0  0  0  0  0  0  0  0  0  0
   27.3560   17.9710   15.7940 C   0  0  0  0  0  0  0  0  0  0  0  0
   31.9650   22.7080    7.6030 Cl  0  0  0  0  0  0  0  0  0  0  0  0
   29.3579   19.9451   14.4278 H   0  0  0  0  0  0  0  0  0  0  0  0
   29.1036   22.5547   14.0078 H   0  0  0  0  0  0  0  0  0  0  0  0
   28.0883   21.7613   12.6911 H   0  0  0  0  0  0  0  0  0  0  0  0
   27.7128   21.6049   15.7129 H   0  0  0  0  0  0  0  0  0  0  0  0
   26.5630   22.1878   14.4654 H   0  0  0  0  0  0  0  0  0  0  0  0
   25.8063   19.4922   12.7166 H   0  0  0  0  0  0  0  0  0  0  0  0
   24.8146   19.3613   14.2270 H   0  0  0  0  0  0  0  0  0  0  0  0
   24.7413   21.8457   14.3775 H   0  0  0  0  0  0  0  0  0  0  0  0
   25.6708   21.9593   12.8446 H   0  0  0  0  0  0  0  0  0  0  0  0
   24.0223   21.2458   12.8446 H   0  0  0  0  0  0  0  0  0  0  0  0
   28.3170   21.6143   10.6352 H   0  0  0  0  0  0  0  0  0  0  0  0
   29.3319   22.9135    8.7582 H   0  0  0  0  0  0  0  0  0  0  0  0
   33.0042   20.6705    9.2202 H   0  0  0  0  0  0  0  0  0  0  0  0
   31.9806   19.3886   11.0803 H   0  0  0  0  0  0  0  0  0  0  0  0
   27.1521   19.9421   16.6353 H   0  0  0  0  0  0  0  0  0  0  0  0
   25.6113   19.1936   16.0661 H   0  0  0  0  0  0  0  0  0  0  0  0
   27.5349   17.6097   16.8174 H   0  0  0  0  0  0  0  0  0  0  0  0
   26.7056   17.2605   15.2628 H   0  0  0  0  0  0  0  0  0  0  0  0
   28.3153   18.0577   15.2628 H   0  0  0  0  0  0  0  0  0  0  0  0
  3  2  2  0
  2  1  2  0
  2  4  1  0
  2 10  1  0
  4  5  1  0
  5  6  1  0
  6  7  1  0
  7  8  1  0
  7 16  1  0
  8  9  1  0
 10 15  2  0
 10 11  1  0
 15 14  1  0
 14 13  2  0
 13 12  1  0
 13 18  1  0
 12 11  2  0
 16 17  1  0
  4 19  1  0
  5 20  1  0
  5 21  1  0
  6 22  1  0
  6 23  1  0
  8 24  1  0
  8 25  1  0
  9 26  1  0
  9 27  1  0
  9 28  1  0
 11 29  1  0
 12 30  1  0
 14 31  1  0
 15 32  1  0
 16 33  1  0
 16 34  1  0
 17 35  1  0
 17 36  1  0
 17 37  1  0
A    1
O2
A    2
S1
A    3
O1
A    4
N4
A    5
C22
A    6
C21
A    7
N17
A    8
C16
A    9
C20
A   10
C5
A   11
C10
A   12
C9
A   13
C8
A   14
C7
A   15
C6
A   16
C11
A   17
C12
A   18
CL8
M  END
