4B8U_IBK_B_501
     RDKit          3D

 38 39  0  0  0  0  0  0  0  0999 V2000
  -26.6170   56.1760   15.1950 C   0  0  0  0  0  0  0  0  0  0  0  0
  -24.8460   54.8810   13.9270 C   0  0  0  0  0  0  0  0  0  0  0  0
  -25.3750   54.2770   10.7300 O   0  0  0  0  0  0  0  0  0  0  0  0
  -35.4620   53.8550    9.7730 C   0  0  0  0  0  0  0  0  0  0  0  0
  -36.2430   52.7760    9.9430 C   0  0  0  0  0  0  0  0  0  0  0  0
  -34.1490   53.6160    9.6310 C   0  0  0  0  0  0  0  0  0  0  0  0
  -31.4670   52.6640    9.7470 C   0  0  0  0  0  0  0  0  0  0  0  0
  -27.0100   55.6150   12.8060 C   0  0  0  0  0  0  0  0  0  0  0  0
  -26.7880   52.3470   10.7920 C   0  0  0  0  0  0  0  0  0  0  0  0
  -28.9900   52.9350    9.7530 C   0  0  0  0  0  0  0  0  0  0  0  0
  -30.4830   50.8560    8.9490 N   0  0  0  0  0  0  0  0  0  0  0  0
  -27.0700   54.2140   12.3160 N   0  0  0  0  0  0  0  0  0  0  0  0
  -27.7210   52.3020    9.6700 O   0  0  0  0  0  0  0  0  0  0  0  0
  -32.0600   50.6650    8.9730 O   0  0  0  0  0  0  0  0  0  0  0  0
  -35.2810   51.4110    9.9240 S   0  0  0  0  0  0  0  0  0  0  0  0
  -26.4030   53.7700   11.2100 C   0  0  0  0  0  0  0  0  0  0  0  0
  -30.2950   52.0840    9.4540 C   0  0  0  0  0  0  0  0  0  0  0  0
  -32.5200   51.8710    9.5410 C   0  0  0  0  0  0  0  0  0  0  0  0
  -33.8050   52.3100    9.6940 C   0  0  0  0  0  0  0  0  0  0  0  0
  -25.9320   55.9470   13.8320 C   0  0  0  0  0  0  0  0  0  0  0  0
  -25.9107   55.9399   16.0046 H   0  0  0  0  0  0  0  0  0  0  0  0
  -26.9296   57.2275   15.2762 H   0  0  0  0  0  0  0  0  0  0  0  0
  -27.4991   55.5239   15.2762 H   0  0  0  0  0  0  0  0  0  0  0  0
  -24.6310   54.6699   14.9849 H   0  0  0  0  0  0  0  0  0  0  0  0
  -25.1909   53.9611   13.4323 H   0  0  0  0  0  0  0  0  0  0  0  0
  -23.9326   55.2430   13.4323 H   0  0  0  0  0  0  0  0  0  0  0  0
  -35.8741   54.8747    9.7514 H   0  0  0  0  0  0  0  0  0  0  0  0
  -37.3352   52.7890   10.0732 H   0  0  0  0  0  0  0  0  0  0  0  0
  -33.4122   54.4179    9.4759 H   0  0  0  0  0  0  0  0  0  0  0  0
  -31.5526   53.6948   10.1214 H   0  0  0  0  0  0  0  0  0  0  0  0
  -26.8479   56.2645   11.9332 H   0  0  0  0  0  0  0  0  0  0  0  0
  -27.9625   55.7729   13.3331 H   0  0  0  0  0  0  0  0  0  0  0  0
  -27.2542   51.8453   11.6528 H   0  0  0  0  0  0  0  0  0  0  0  0
  -25.8653   51.8447   10.4659 H   0  0  0  0  0  0  0  0  0  0  0  0
  -29.0883   53.3272   10.7760 H   0  0  0  0  0  0  0  0  0  0  0  0
  -28.9678   53.6777    8.9419 H   0  0  0  0  0  0  0  0  0  0  0  0
  -27.6467   53.5399   12.8394 H   0  0  0  0  0  0  0  0  0  0  0  0
  -25.4108   56.8598   13.5077 H   0  0  0  0  0  0  0  0  0  0  0  0
  1 20  1  0
  2 20  1  0
  3 16  2  0
  4  5  2  0
  4  6  1  0
  5 15  1  0
  6 19  2  0
  7 17  1  0
  7 18  2  0
  8 12  1  0
  8 20  1  0
  9 13  1  0
  9 16  1  0
 10 13  1  0
 10 17  1  0
 11 14  1  0
 11 17  2  0
 12 16  1  0
 14 18  1  0
 15 19  1  0
 18 19  1  0
  1 21  1  0
  1 22  1  0
  1 23  1  0
  2 24  1  0
  2 25  1  0
  2 26  1  0
  4 27  1  0
  5 28  1  0
  6 29  1  0
  7 30  1  0
  8 31  1  0
  8 32  1  0
  9 33  1  0
  9 34  1  0
 10 35  1  0
 10 36  1  0
 12 37  1  0
 20 38  1  0
A    1
CAA
A    2
CAB
A    3
OAC
A    4
CAD
A    5
CAE
A    6
CAF
A    7
CAG
A    8
CAH
A    9
CAI
A   10
CAJ
A   11
NAK
A   12
NAL
A   13
OAM
A   14
OAN
A   15
SAO
A   16
CAP
A   17
CAQ
A   18
CAR
A   19
CAS
A   20
CAT
M  END
