1PXO_CK7_A_500
     RDKit          3D

 35 37  0  0  0  0  0  0  0  0999 V2000
   14.7020   -5.2550   10.1310 N   0  0  0  0  0  0  0  0  0  0  0  0
   14.7660   -5.9900   11.4310 C   0  0  0  0  0  0  0  0  0  0  0  0
   15.4960   -5.8690   12.5650 N   0  0  0  0  0  0  0  0  0  0  0  0
   15.1960   -6.8040   13.5350 C   0  0  0  0  0  0  0  0  0  0  0  0
   15.8970   -6.8110   14.8620 C   0  0  0  0  0  0  0  0  0  0  0  0
   13.6990   -7.2760   11.4070 S   0  0  0  0  0  0  0  0  0  0  0  0
   14.1890   -7.7700   12.9130 C   0  0  0  0  0  0  0  0  0  0  0  0
   13.2790   -8.8080   13.4660 C   0  0  0  0  0  0  0  0  0  0  0  0
   12.3730   -9.3710   12.6010 N   0  0  0  0  0  0  0  0  0  0  0  0
   13.3580   -9.2110   14.7900 C   0  0  0  0  0  0  0  0  0  0  0  0
   12.4300  -10.1380   15.1760 C   0  0  0  0  0  0  0  0  0  0  0  0
   11.5250  -10.6350   14.2790 N   0  0  0  0  0  0  0  0  0  0  0  0
   11.5050  -10.2940   13.0070 C   0  0  0  0  0  0  0  0  0  0  0  0
   10.5780  -10.8880   12.2810 N   0  0  0  0  0  0  0  0  0  0  0  0
   10.0520  -10.2350   11.0800 C   0  0  0  0  0  0  0  0  0  0  0  0
    8.8050  -10.6350   10.5230 C   0  0  0  0  0  0  0  0  0  0  0  0
   10.7100   -9.1400   10.4320 C   0  0  0  0  0  0  0  0  0  0  0  0
   10.1840   -8.4610    9.2830 C   0  0  0  0  0  0  0  0  0  0  0  0
   10.7800   -7.3830    8.6140 N   0  0  0  0  0  0  0  0  0  0  0  0
   10.4450   -6.2070    8.8780 O   0  0  0  0  0  0  0  0  0  0  0  0
   11.6570   -7.5990    7.7480 O   0  0  0  0  0  0  0  0  0  0  0  0
    8.9600   -8.8910    8.7530 C   0  0  0  0  0  0  0  0  0  0  0  0
    8.2690   -9.9550    9.3830 C   0  0  0  0  0  0  0  0  0  0  0  0
   14.6127   -4.2289   10.1234 H   0  0  0  0  0  0  0  0  0  0  0  0
   14.7472   -5.7746    9.2428 H   0  0  0  0  0  0  0  0  0  0  0  0
   15.1513   -6.8036   15.6706 H   0  0  0  0  0  0  0  0  0  0  0  0
   16.5178   -7.7154   14.9440 H   0  0  0  0  0  0  0  0  0  0  0  0
   16.5357   -5.9192   14.9440 H   0  0  0  0  0  0  0  0  0  0  0  0
   14.1147   -8.8127   15.4820 H   0  0  0  0  0  0  0  0  0  0  0  0
   12.4111  -10.4877   16.2188 H   0  0  0  0  0  0  0  0  0  0  0  0
   10.2228  -11.8139   12.5594 H   0  0  0  0  0  0  0  0  0  0  0  0
    8.2495  -11.4720   10.9713 H   0  0  0  0  0  0  0  0  0  0  0  0
   11.6739   -8.8003   10.8388 H   0  0  0  0  0  0  0  0  0  0  0  0
    8.5407   -8.4079    7.8581 H   0  0  0  0  0  0  0  0  0  0  0  0
    7.2925  -10.2677    8.9848 H   0  0  0  0  0  0  0  0  0  0  0  0
  1  2  1  0
  2  3  2  0
  2  6  1  0
  3  4  1  0
  4  5  1  0
  4  7  2  0
  6  7  1  0
  7  8  1  0
  8  9  2  0
  8 10  1  0
  9 13  1  0
 10 11  2  0
 11 12  1  0
 12 13  2  0
 13 14  1  0
 14 15  1  0
 15 16  2  0
 15 17  1  0
 16 23  1  0
 17 18  2  0
 18 19  1  0
 18 22  1  0
 19 20  1  0
 19 21  2  0
 22 23  2  0
  1 24  1  0
  1 25  1  0
  5 26  1  0
  5 27  1  0
  5 28  1  0
 10 29  1  0
 11 30  1  0
 14 31  1  0
 16 32  1  0
 17 33  1  0
 22 34  1  0
 23 35  1  0
M  CHG  2  19   1  20  -1
A    1
N7A
A    2
C3A
A    3
N2A
A    4
C1A
A    5
C6A
A    6
S4A
A    7
C5A
A    8
C4
A    9
N3
A   10
C5
A   11
C6
A   12
N1
A   13
C2
A   14
N7
A   15
C1B
A   16
C6B
A   17
C2B
A   18
C3B
A   19
N7B
A   20
O8B
A   21
O9B
A   22
C4B
A   23
C5B
M  END
