4BAF_IKX_A_1130
     RDKit          3D

 32 33  0  0  0  0  0  0  0  0999 V2000
   24.4820    2.3710  -10.3230 O   0  0  0  0  0  0  0  0  0  0  0  0
   25.5370    2.7870   -9.7790 C   0  0  0  0  0  0  0  0  0  0  0  0
   26.4480    3.3270  -10.4620 O   0  0  0  0  0  0  0  0  0  0  0  0
   25.6840    2.6110   -8.3150 C   0  0  0  0  0  0  0  0  0  0  0  0
   24.6240    2.1480   -7.6710 N   0  0  0  0  0  0  0  0  0  0  0  0
   26.8620    2.8930   -7.6430 C   0  0  0  0  0  0  0  0  0  0  0  0
   26.8960    2.7030   -6.2600 C   0  0  0  0  0  0  0  0  0  0  0  0
   25.7660    2.1930   -5.5990 C   0  0  0  0  0  0  0  0  0  0  0  0
   24.6230    1.9340   -6.3550 C   0  0  0  0  0  0  0  0  0  0  0  0
   23.3500    1.4040   -5.7810 C   0  0  0  0  0  0  0  0  0  0  0  0
   22.3770    1.2100   -6.5780 O   0  0  0  0  0  0  0  0  0  0  0  0
   23.2720    1.1880   -4.5650 O   0  0  0  0  0  0  0  0  0  0  0  0
   28.1430    2.9900   -5.6210 N   0  0  0  0  0  0  0  0  0  0  0  0
   28.6110    2.5570   -4.3990 C   0  0  0  0  0  0  0  0  0  0  0  0
   29.8290    3.0280   -4.2750 C   0  0  0  0  0  0  0  0  0  0  0  0
   30.7500    2.8610   -3.1220 C   0  0  0  0  0  0  0  0  0  0  0  0
   30.1470    3.7750   -5.4560 N   0  0  0  0  0  0  0  0  0  0  0  0
   31.8380    1.8480   -3.1640 C   0  0  0  0  0  0  0  0  0  0  0  0
   29.1290    3.7190   -6.2440 N   0  0  0  0  0  0  0  0  0  0  0  0
   31.8530    0.9090   -4.1590 O   0  0  0  0  0  0  0  0  0  0  0  0
   27.2056    3.7761  -10.0098 H   0  0  0  0  0  0  0  0  0  0  0  0
   27.7475    3.2571   -8.1846 H   0  0  0  0  0  0  0  0  0  0  0  0
   25.7823    2.0033   -4.5156 H   0  0  0  0  0  0  0  0  0  0  0  0
   23.5269    1.8940   -3.9195 H   0  0  0  0  0  0  0  0  0  0  0  0
   28.0687    1.9372   -3.6698 H   0  0  0  0  0  0  0  0  0  0  0  0
   31.2335    3.8359   -2.9614 H   0  0  0  0  0  0  0  0  0  0  0  0
   30.0880    2.4795   -2.3307 H   0  0  0  0  0  0  0  0  0  0  0  0
   31.0317    4.2687   -5.6418 H   0  0  0  0  0  0  0  0  0  0  0  0
   32.7862    2.4013   -3.2335 H   0  0  0  0  0  0  0  0  0  0  0  0
   31.6692    1.2536   -2.2540 H   0  0  0  0  0  0  0  0  0  0  0  0
   29.3963    3.2608   -7.1269 H   0  0  0  0  0  0  0  0  0  0  0  0
   31.8675    0.0038   -3.7583 H   0  0  0  0  0  0  0  0  0  0  0  0
  3  2  1  0
  2  1  2  0
  2  4  1  0
  4  5  2  0
  4  6  1  0
  5  9  1  0
  6  7  2  0
  7  8  1  0
  7 13  1  0
  8  9  2  0
  9 10  1  0
 10 11  2  0
 10 12  1  0
 13 14  1  0
 13 19  1  0
 14 15  2  0
 15 16  1  0
 15 17  1  0
 16 18  1  0
 17 19  1  0
 18 20  1  0
  3 21  1  0
  6 22  1  0
  8 23  1  0
 12 24  1  0
 14 25  1  0
 16 26  1  0
 16 27  1  0
 17 28  1  0
 18 29  1  0
 18 30  1  0
 19 31  1  0
 20 32  1  0
A    1
O1
A    2
C1
A    3
O2
A    4
C2
A    5
N1
A    6
C3
A    7
C4
A    8
C5
A    9
C6
A   10
C7
A   11
O4
A   12
O3
A   13
N2
A   14
C8
A   15
C9
A   16
C10
A   17
N4
A   18
C11
A   19
N3
A   20
O5
M  END
