4BB3_KKA_A_1333
     RDKit          3D

 36 35  0  0  0  0  0  0  0  0999 V2000
   15.7330   36.4870    5.9130 C   0  0  0  0  0  0  0  0  0  0  0  0
   15.6070   36.6170    7.3880 N   0  0  0  0  0  0  0  0  0  0  0  0
   11.7190   39.7870    6.6790 O   0  0  0  0  0  0  0  0  0  0  0  0
    8.2520   43.5380    6.9620 S   0  0  0  0  0  0  0  0  0  0  0  0
   15.1720   37.7100    5.1860 C   0  0  0  0  0  0  0  0  0  0  0  0
   11.0600   39.9260    4.5370 N   0  0  0  0  0  0  0  0  0  0  0  0
    9.1360   39.8480    2.5740 O   0  0  0  0  0  0  0  0  0  0  0  0
   13.7510   38.0250    5.6370 C   0  0  0  0  0  0  0  0  0  0  0  0
    7.4980   39.7840    4.2050 O   0  0  0  0  0  0  0  0  0  0  0  0
   13.3380   39.3380    4.9920 C   0  0  0  0  0  0  0  0  0  0  0  0
   17.3680   36.2260    4.1830 O   0  0  0  0  0  0  0  0  0  0  0  0
   11.9860   39.7250    5.4790 C   0  0  0  0  0  0  0  0  0  0  0  0
   18.1050   36.6800    6.2590 O   0  0  0  0  0  0  0  0  0  0  0  0
    9.6820   40.2380    4.9410 C   0  0  0  0  0  0  0  0  0  0  0  0
    9.5420   41.7350    5.3210 C   0  0  0  0  0  0  0  0  0  0  0  0
    8.1490   42.0490    5.9430 C   0  0  0  0  0  0  0  0  0  0  0  0
    8.7470   39.9300    3.7850 C   0  0  0  0  0  0  0  0  0  0  0  0
   17.1750   36.4590    5.3480 C   0  0  0  0  0  0  0  0  0  0  0  0
   15.2079   35.5350    5.7460 H   0  0  0  0  0  0  0  0  0  0  0  0
   16.2487   35.9549    7.8471 H   0  0  0  0  0  0  0  0  0  0  0  0
   15.8464   37.5784    7.6696 H   0  0  0  0  0  0  0  0  0  0  0  0
    8.2278   43.1877    8.2862 H   0  0  0  0  0  0  0  0  0  0  0  0
   15.8146   38.5774    5.3975 H   0  0  0  0  0  0  0  0  0  0  0  0
   15.1514   37.4912    4.1082 H   0  0  0  0  0  0  0  0  0  0  0  0
   11.3091   39.8630    3.5396 H   0  0  0  0  0  0  0  0  0  0  0  0
   10.0842   39.6481    2.3711 H   0  0  0  0  0  0  0  0  0  0  0  0
   13.0707   37.2215    5.3184 H   0  0  0  0  0  0  0  0  0  0  0  0
   13.7050   38.1047    6.7331 H   0  0  0  0  0  0  0  0  0  0  0  0
   14.0623   40.1217    5.2589 H   0  0  0  0  0  0  0  0  0  0  0  0
   13.3141   39.2185    3.8988 H   0  0  0  0  0  0  0  0  0  0  0  0
   17.9767   35.4911    3.9194 H   0  0  0  0  0  0  0  0  0  0  0  0
    9.4249   39.6274    5.8191 H   0  0  0  0  0  0  0  0  0  0  0  0
   10.3235   41.9909    6.0516 H   0  0  0  0  0  0  0  0  0  0  0  0
    9.6471   42.3310    4.4024 H   0  0  0  0  0  0  0  0  0  0  0  0
    7.8287   41.2015    6.5668 H   0  0  0  0  0  0  0  0  0  0  0  0
    7.4203   42.2125    5.1354 H   0  0  0  0  0  0  0  0  0  0  0  0
  5  1  1  0
 18  1  1  0
  1  2  1  0
 12  3  2  0
 16  4  1  0
  5  8  1  0
  6 14  1  0
  6 12  1  0
 17  7  1  0
 10  8  1  0
  9 17  2  0
 10 12  1  0
 18 11  1  0
 13 18  2  0
 17 14  1  0
 14 15  1  0
 15 16  1  0
  1 19  1  0
  2 20  1  0
  2 21  1  0
  4 22  1  0
  5 23  1  0
  5 24  1  0
  6 25  1  0
  7 26  1  0
  8 27  1  0
  8 28  1  0
 10 29  1  0
 10 30  1  0
 11 31  1  0
 14 32  1  0
 15 33  1  0
 15 34  1  0
 16 35  1  0
 16 36  1  0
A    1
C
A    2
N
A    3
O
A    4
S
A    5
C1
A    6
N1
A    7
O1
A    8
C2
A    9
O2
A   10
C3
A   11
O3
A   12
C4
A   13
O4
A   14
C5
A   15
C6
A   16
C7
A   17
C8
A   18
C9
M  END
