4BBE_3O4_A_2229
     RDKit          3D

 52 55  0  0  0  0  0  0  0  0999 V2000
    2.6020   -6.9730   -6.0520 O   0  0  0  0  0  0  0  0  0  0  0  0
    1.6770   -7.7360   -5.7750 C   0  0  0  0  0  0  0  0  0  0  0  0
    1.6930   -8.6600   -4.8080 N   0  0  0  0  0  0  0  0  0  0  0  0
    2.7050   -8.9160   -3.9660 C   0  0  0  0  0  0  0  0  0  0  0  0
    3.9640   -8.3180   -4.0850 C   0  0  0  0  0  0  0  0  0  0  0  0
    0.3690   -7.6770   -6.5640 C   0  0  0  0  0  0  0  0  0  0  0  0
    3.4870  -10.1240   -2.0230 C   0  0  0  0  0  0  0  0  0  0  0  0
    4.7450   -9.5300   -2.1420 C   0  0  0  0  0  0  0  0  0  0  0  0
    5.7420   -9.8450   -1.2160 C   0  0  0  0  0  0  0  0  0  0  0  0
    6.9870   -9.2220   -1.2470 C   0  0  0  0  0  0  0  0  0  0  0  0
    7.9290   -9.5790   -0.2880 C   0  0  0  0  0  0  0  0  0  0  0  0
    7.6340  -10.4910    0.6270 N   0  0  0  0  0  0  0  0  0  0  0  0
    6.4270  -11.0880    0.6560 C   0  0  0  0  0  0  0  0  0  0  0  0
    5.4970  -10.7610   -0.2620 N   0  0  0  0  0  0  0  0  0  0  0  0
    6.1890  -12.0030    1.6080 N   0  0  0  0  0  0  0  0  0  0  0  0
    5.0140  -12.5920    1.8910 C   0  0  0  0  0  0  0  0  0  0  0  0
    5.0250  -13.6820    2.7600 C   0  0  0  0  0  0  0  0  0  0  0  0
    3.8440  -14.3390    3.0970 C   0  0  0  0  0  0  0  0  0  0  0  0
    2.6230  -13.9130    2.5700 C   0  0  0  0  0  0  0  0  0  0  0  0
    2.6060  -12.8170    1.7010 C   0  0  0  0  0  0  0  0  0  0  0  0
    3.7910  -12.1610    1.3670 C   0  0  0  0  0  0  0  0  0  0  0  0
    2.4740   -9.8200   -2.9300 C   0  0  0  0  0  0  0  0  0  0  0  0
    1.4280  -14.5830    2.9250 N   0  0  0  0  0  0  0  0  0  0  0  0
    4.9780   -8.6210   -3.1770 C   0  0  0  0  0  0  0  0  0  0  0  0
    1.3720  -15.3760    4.1890 C   0  0  0  0  0  0  0  0  0  0  0  0
    0.5050  -16.6310    4.0280 C   0  0  0  0  0  0  0  0  0  0  0  0
   -0.7680  -16.2520    3.4610 O   0  0  0  0  0  0  0  0  0  0  0  0
   -0.6210  -15.7790    2.1030 C   0  0  0  0  0  0  0  0  0  0  0  0
    0.2190  -14.4920    2.0540 C   0  0  0  0  0  0  0  0  0  0  0  0
    0.8433   -9.2320   -4.6992 H   0  0  0  0  0  0  0  0  0  0  0  0
    4.1553   -7.6043   -4.8999 H   0  0  0  0  0  0  0  0  0  0  0  0
   -0.4795   -7.6387   -5.8650 H   0  0  0  0  0  0  0  0  0  0  0  0
    0.3631   -6.7777   -7.1974 H   0  0  0  0  0  0  0  0  0  0  0  0
    0.2822   -8.5721   -7.1974 H   0  0  0  0  0  0  0  0  0  0  0  0
    3.2944  -10.8368   -1.2076 H   0  0  0  0  0  0  0  0  0  0  0  0
    7.2198   -8.4659   -2.0113 H   0  0  0  0  0  0  0  0  0  0  0  0
    8.9208   -9.1034   -0.2891 H   0  0  0  0  0  0  0  0  0  0  0  0
    6.9943  -12.2850    2.1850 H   0  0  0  0  0  0  0  0  0  0  0  0
    5.9788  -14.0277    3.1851 H   0  0  0  0  0  0  0  0  0  0  0  0
    3.8733  -15.1988    3.7825 H   0  0  0  0  0  0  0  0  0  0  0  0
    1.6517  -12.4700    1.2781 H   0  0  0  0  0  0  0  0  0  0  0  0
    3.7633  -11.2977    0.6859 H   0  0  0  0  0  0  0  0  0  0  0  0
    1.4873  -10.2955   -2.8282 H   0  0  0  0  0  0  0  0  0  0  0  0
    5.9638   -8.1431   -3.2759 H   0  0  0  0  0  0  0  0  0  0  0  0
    2.3924  -15.6797    4.4658 H   0  0  0  0  0  0  0  0  0  0  0  0
    0.9247  -14.7459    4.9719 H   0  0  0  0  0  0  0  0  0  0  0  0
    0.3466  -17.0987    5.0109 H   0  0  0  0  0  0  0  0  0  0  0  0
    1.0091  -17.3489    3.3643 H   0  0  0  0  0  0  0  0  0  0  0  0
   -1.6172  -15.5742    1.6839 H   0  0  0  0  0  0  0  0  0  0  0  0
   -0.1072  -16.5546    1.5161 H   0  0  0  0  0  0  0  0  0  0  0  0
   -0.4013  -13.6493    2.3934 H   0  0  0  0  0  0  0  0  0  0  0  0
    0.5559  -14.3440    1.0174 H   0  0  0  0  0  0  0  0  0  0  0  0
  1  2  2  0
  2  3  1  0
  2  6  1  0
  3  4  1  0
  4  5  2  0
  4 22  1  0
  5 24  1  0
  7  8  1  0
  7 22  2  0
  8  9  1  0
  8 24  2  0
  9 10  2  0
  9 14  1  0
 10 11  1  0
 11 12  2  0
 12 13  1  0
 13 14  2  0
 13 15  1  0
 15 16  1  0
 16 17  2  0
 16 21  1  0
 17 18  1  0
 18 19  2  0
 19 20  1  0
 19 23  1  0
 20 21  2  0
 23 29  1  0
 23 25  1  0
 29 28  1  0
 28 27  1  0
 27 26  1  0
 26 25  1  0
  3 30  1  0
  5 31  1  0
  6 32  1  0
  6 33  1  0
  6 34  1  0
  7 35  1  0
 10 36  1  0
 11 37  1  0
 15 38  1  0
 17 39  1  0
 18 40  1  0
 20 41  1  0
 21 42  1  0
 22 43  1  0
 24 44  1  0
 25 45  1  0
 25 46  1  0
 26 47  1  0
 26 48  1  0
 28 49  1  0
 28 50  1  0
 29 51  1  0
 29 52  1  0
A    1
O23
A    2
C22
A    3
N24
A    4
C25
A    5
C26
A    6
C19
A    7
C17
A    8
C16
A    9
C12
A   10
C11
A   11
C10
A   12
N15
A   13
C14
A   14
N13
A   15
N7
A   16
C1
A   17
C2
A   18
C3
A   19
C4
A   20
C5
A   21
C6
A   22
C90
A   23
N8
A   24
C13
A   25
C9
A   26
C31
A   27
O30
A   28
C29
A   29
C28
M  END
