4BBZ_4OJ_A_1530
     RDKit          3D

 20 20  0  0  0  0  0  0  0  0999 V2000
  -13.5450  -40.3430  -22.4310 C   0  0  0  0  0  0  0  0  0  0  0  0
  -13.8320  -41.5720  -23.0250 C   0  0  0  0  0  0  0  0  0  0  0  0
  -15.1400  -41.9190  -23.3630 C   0  0  0  0  0  0  0  0  0  0  0  0
  -16.1700  -41.0270  -23.0990 C   0  0  0  0  0  0  0  0  0  0  0  0
  -15.8860  -39.7980  -22.5060 C   0  0  0  0  0  0  0  0  0  0  0  0
  -14.5820  -39.4540  -22.1740 C   0  0  0  0  0  0  0  0  0  0  0  0
  -16.8710  -38.8790  -22.2110 O   0  0  0  0  0  0  0  0  0  0  0  0
  -17.4770  -37.7510  -23.1370 P   0  0  0  0  0  0  0  0  0  0  0  0
  -18.9560  -37.8510  -23.0380 O   0  0  0  0  0  0  0  0  0  0  0  0
  -17.0180  -37.8670  -24.5270 O   0  0  0  0  0  0  0  0  0  0  0  0
  -14.3270  -38.1030  -21.5260 C   0  0  0  0  0  0  0  0  0  0  0  0
  -12.5095  -40.0803  -22.1689 H   0  0  0  0  0  0  0  0  0  0  0  0
  -13.0142  -42.2785  -23.2300 H   0  0  0  0  0  0  0  0  0  0  0  0
  -15.3531  -42.8899  -23.8341 H   0  0  0  0  0  0  0  0  0  0  0  0
  -17.2068  -41.2890  -23.3568 H   0  0  0  0  0  0  0  0  0  0  0  0
  -17.0953  -36.6545  -22.7623 H   0  0  0  0  0  0  0  0  0  0  0  0
  -16.0582  -38.1096  -24.5384 H   0  0  0  0  0  0  0  0  0  0  0  0
  -14.3475  -38.2116  -20.4316 H   0  0  0  0  0  0  0  0  0  0  0  0
  -13.3419  -37.7264  -21.8387 H   0  0  0  0  0  0  0  0  0  0  0  0
  -15.1070  -37.3933  -21.8387 H   0  0  0  0  0  0  0  0  0  0  0  0
  1  2  2  0
  1  6  1  0
  2  3  1  0
  3  4  2  0
  4  5  1  0
  5  6  2  0
  5  7  1  0
  6 11  1  0
  7  8  1  0
  8  9  2  0
  8 10  1  0
  1 12  1  0
  2 13  1  0
  3 14  1  0
  4 15  1  0
  8 16  1  0
 10 17  1  0
 11 18  1  0
 11 19  1  0
 11 20  1  0
A    1
C1
A    2
C2
A    3
C3
A    4
C4
A    5
C5
A    6
C6
A    7
O12
A    8
P13
A    9
O1P
A   10
O2P
A   11
C7
M  END
