4BC6_XZN_A_1317
     RDKit          3D

 65 68  0  0  0  0  0  0  0  0999 V2000
   -3.0790  -19.9580   19.5290 C   0  0  0  0  0  0  0  0  0  0  0  0
  -12.3670  -15.9750   16.4460 O   0  0  0  0  0  0  0  0  0  0  0  0
   -0.4280  -20.3570   24.3600 C   0  0  0  0  0  0  0  0  0  0  0  0
  -11.7590  -19.1580   20.7040 N   0  0  0  0  0  0  0  0  0  0  0  0
  -11.6130  -18.6300   15.2990 Cl  0  0  0  0  0  0  0  0  0  0  0  0
  -11.5580  -14.4340   18.7770 Cl  0  0  0  0  0  0  0  0  0  0  0  0
  -10.6870  -19.0220   21.1140 C   0  0  0  0  0  0  0  0  0  0  0  0
   -9.2590  -19.0350   22.9180 C   0  0  0  0  0  0  0  0  0  0  0  0
   -5.6580  -18.9990   23.1880 C   0  0  0  0  0  0  0  0  0  0  0  0
   -5.9550  -18.7480   20.3740 C   0  0  0  0  0  0  0  0  0  0  0  0
   -1.6060  -20.6090   23.4260 C   0  0  0  0  0  0  0  0  0  0  0  0
   -2.8350  -19.8860   23.9420 C   0  0  0  0  0  0  0  0  0  0  0  0
    4.6330  -21.8280   24.1180 C   0  0  0  0  0  0  0  0  0  0  0  0
    0.8860  -22.5030   24.1350 C   0  0  0  0  0  0  0  0  0  0  0  0
    1.6540  -20.3250   22.9720 C   0  0  0  0  0  0  0  0  0  0  0  0
    2.3250  -22.7310   24.6120 C   0  0  0  0  0  0  0  0  0  0  0  0
    2.7660  -21.2810   22.5400 C   0  0  0  0  0  0  0  0  0  0  0  0
   -8.0100  -19.0480   23.4180 N   0  0  0  0  0  0  0  0  0  0  0  0
   -8.4810  -18.6610   19.3030 N   0  0  0  0  0  0  0  0  0  0  0  0
   -3.5780  -18.7360   20.0780 O   0  0  0  0  0  0  0  0  0  0  0  0
   -3.2540  -18.9270   22.9720 O   0  0  0  0  0  0  0  0  0  0  0  0
  -11.4280  -16.6380   17.1910 C   0  0  0  0  0  0  0  0  0  0  0  0
  -10.9460  -17.8690   16.7730 C   0  0  0  0  0  0  0  0  0  0  0  0
   -9.8610  -16.6540   19.0300 C   0  0  0  0  0  0  0  0  0  0  0  0
   -9.4760  -18.9170   21.5380 C   0  0  0  0  0  0  0  0  0  0  0  0
   -9.4040  -17.9270   18.6280 C   0  0  0  0  0  0  0  0  0  0  0  0
   -4.6670  -18.7810   20.9130 C   0  0  0  0  0  0  0  0  0  0  0  0
   -4.5050  -18.9440   22.3940 C   0  0  0  0  0  0  0  0  0  0  0  0
   -8.3740  -18.8060   20.6580 C   0  0  0  0  0  0  0  0  0  0  0  0
   -6.9250  -18.9780   22.6050 C   0  0  0  0  0  0  0  0  0  0  0  0
   -7.0790  -18.8530   21.2060 C   0  0  0  0  0  0  0  0  0  0  0  0
    0.7150  -21.0760   23.8150 N   0  0  0  0  0  0  0  0  0  0  0  0
   -9.9630  -18.5320   17.5040 C   0  0  0  0  0  0  0  0  0  0  0  0
    3.2270  -21.9500   23.7560 N   0  0  0  0  0  0  0  0  0  0  0  0
  -13.7640  -16.2590   16.5310 C   0  0  0  0  0  0  0  0  0  0  0  0
  -10.8960  -16.0330   18.3160 C   0  0  0  0  0  0  0  0  0  0  0  0
   -2.8004  -20.6401   20.3458 H   0  0  0  0  0  0  0  0  0  0  0  0
   -3.8578  -20.4266   18.9094 H   0  0  0  0  0  0  0  0  0  0  0  0
   -2.1948  -19.7475   18.9094 H   0  0  0  0  0  0  0  0  0  0  0  0
   -0.2082  -19.2802   24.4074 H   0  0  0  0  0  0  0  0  0  0  0  0
   -0.6568  -20.7023   25.3790 H   0  0  0  0  0  0  0  0  0  0  0  0
  -10.1188  -19.1178   23.5991 H   0  0  0  0  0  0  0  0  0  0  0  0
   -5.5631  -19.0594   24.2822 H   0  0  0  0  0  0  0  0  0  0  0  0
   -6.0889  -18.6387   19.2877 H   0  0  0  0  0  0  0  0  0  0  0  0
   -1.3600  -20.2385   22.4199 H   0  0  0  0  0  0  0  0  0  0  0  0
   -1.8112  -21.6889   23.3837 H   0  0  0  0  0  0  0  0  0  0  0  0
   -3.6434  -20.6115   24.1158 H   0  0  0  0  0  0  0  0  0  0  0  0
   -2.5959  -19.3769   24.8873 H   0  0  0  0  0  0  0  0  0  0  0  0
    4.7301  -21.8196   25.2137 H   0  0  0  0  0  0  0  0  0  0  0  0
    5.1928  -22.6809   23.7068 H   0  0  0  0  0  0  0  0  0  0  0  0
    5.0376  -20.8914   23.7068 H   0  0  0  0  0  0  0  0  0  0  0  0
    0.6931  -23.1092   23.2376 H   0  0  0  0  0  0  0  0  0  0  0  0
    0.1786  -22.7974   24.9242 H   0  0  0  0  0  0  0  0  0  0  0  0
    2.0818  -19.4880   23.5433 H   0  0  0  0  0  0  0  0  0  0  0  0
    1.1362  -19.9169   22.0915 H   0  0  0  0  0  0  0  0  0  0  0  0
    2.4266  -22.4016   25.6566 H   0  0  0  0  0  0  0  0  0  0  0  0
    2.5781  -23.7998   24.5514 H   0  0  0  0  0  0  0  0  0  0  0  0
    2.3767  -22.0191   21.8233 H   0  0  0  0  0  0  0  0  0  0  0  0
    3.5868  -20.7419   22.0444 H   0  0  0  0  0  0  0  0  0  0  0  0
   -7.7864  -19.1627   18.7315 H   0  0  0  0  0  0  0  0  0  0  0  0
   -9.4084  -16.1520   19.8978 H   0  0  0  0  0  0  0  0  0  0  0  0
   -9.6281  -19.5329   17.1941 H   0  0  0  0  0  0  0  0  0  0  0  0
  -14.0622  -16.3196   17.5881 H   0  0  0  0  0  0  0  0  0  0  0  0
  -14.3319  -15.4579   16.0352 H   0  0  0  0  0  0  0  0  0  0  0  0
  -13.9740  -17.2182   16.0352 H   0  0  0  0  0  0  0  0  0  0  0  0
  1 20  1  0
  2 22  1  0
  2 35  1  0
  3 11  1  0
  3 32  1  0
  4  7  3  0
  5 23  1  0
  6 36  1  0
  7 25  1  0
  8 18  2  0
  8 25  1  0
  9 28  1  0
  9 30  2  0
 10 27  1  0
 10 31  2  0
 11 12  1  0
 12 21  1  0
 13 34  1  0
 15 17  1  0
 15 32  1  0
 14 16  1  0
 14 32  1  0
 17 34  1  0
 16 34  1  0
 18 30  1  0
 19 26  1  0
 19 29  1  0
 20 27  1  0
 21 28  1  0
 22 23  2  0
 22 36  1  0
 23 33  1  0
 24 26  1  0
 24 36  2  0
 25 29  2  0
 26 33  2  0
 27 28  2  0
 29 31  1  0
 30 31  1  0
  1 37  1  0
  1 38  1  0
  1 39  1  0
  3 40  1  0
  3 41  1  0
  8 42  1  0
  9 43  1  0
 10 44  1  0
 11 45  1  0
 11 46  1  0
 12 47  1  0
 12 48  1  0
 13 49  1  0
 13 50  1  0
 13 51  1  0
 14 52  1  0
 14 53  1  0
 15 54  1  0
 15 55  1  0
 16 56  1  0
 16 57  1  0
 17 58  1  0
 17 59  1  0
 19 60  1  0
 24 61  1  0
 33 62  1  0
 35 63  1  0
 35 64  1  0
 35 65  1  0
A    1
CAA
A    2
O02
A    3
CAC
A    4
NAD
A    5
CL1
A    6
CL2
A    7
CAG
A    8
CAH
A    9
CAK
A   10
CAL
A   11
CAM
A   12
CAN
A   13
CAO
A   14
CAQ
A   15
CAP
A   16
CAS
A   17
CAR
A   18
NAT
A   19
NAU
A   20
OAV
A   21
OAW
A   22
CAX
A   23
CAY
A   24
CAZ
A   25
CBA
A   26
CBB
A   27
CBC
A   28
CBD
A   29
CBE
A   30
CBF
A   31
CBG
A   32
NBH
A   33
CAJ
A   34
NBI
A   35
C01
A   36
CAI
M  END
