4BCD_TDV_A_791
     RDKit          3D

 65 69  0  0  0  0  0  0  0  0999 V2000
   42.7490   37.6400   86.5450 C   0  0  0  0  0  0  0  0  0  0  0  0
   44.1820   37.9120   86.0560 C   0  0  0  0  0  0  0  0  0  0  0  0
   45.2600   37.8390   87.1530 C   0  0  0  0  0  0  0  0  0  0  0  0
   45.3870   36.4340   87.7660 C   0  0  0  0  0  0  0  0  0  0  0  0
   45.6020   35.3310   86.9580 C   0  0  0  0  0  0  0  0  0  0  0  0
   45.3150   36.3010   89.1400 C   0  0  0  0  0  0  0  0  0  0  0  0
   45.7180   34.0590   87.5160 C   0  0  0  0  0  0  0  0  0  0  0  0
   45.4190   35.0230   89.7220 C   0  0  0  0  0  0  0  0  0  0  0  0
   45.6260   33.9000   88.9050 C   0  0  0  0  0  0  0  0  0  0  0  0
   41.7980   37.2600   85.4110 C   0  0  0  0  0  0  0  0  0  0  0  0
   42.2140   37.1100   84.2470 O   0  0  0  0  0  0  0  0  0  0  0  0
   33.2450   42.1010   91.8400 F   0  0  0  0  0  0  0  0  0  0  0  0
   33.9950   41.1550   91.2410 C   0  0  0  0  0  0  0  0  0  0  0  0
   35.0640   41.5440   90.4340 C   0  0  0  0  0  0  0  0  0  0  0  0
   35.8480   40.5720   89.8100 C   0  0  0  0  0  0  0  0  0  0  0  0
   33.7090   39.7960   91.4210 C   0  0  0  0  0  0  0  0  0  0  0  0
   34.5010   38.8240   90.7930 C   0  0  0  0  0  0  0  0  0  0  0  0
   35.5800   39.2090   89.9920 C   0  0  0  0  0  0  0  0  0  0  0  0
   36.4380   38.1840   89.3000 C   0  0  0  0  0  0  0  0  0  0  0  0
   36.5160   36.9620   89.8650 N   0  0  0  0  0  0  0  0  0  0  0  0
   37.3460   36.1710   89.0430 N   0  0  0  0  0  0  0  0  0  0  0  0
   37.2130   38.2500   88.1620 C   0  0  0  0  0  0  0  0  0  0  0  0
   37.7220   37.0290   87.9950 N   0  0  0  0  0  0  0  0  0  0  0  0
   38.6460   36.4510   86.9730 C   0  0  0  0  0  0  0  0  0  0  0  0
   39.9230   37.2530   87.0930 C   0  0  0  0  0  0  0  0  0  0  0  0
   38.1770   36.6100   85.5260 C   0  0  0  0  0  0  0  0  0  0  0  0
   39.4810   36.7340   84.7400 C   0  0  0  0  0  0  0  0  0  0  0  0
   39.4000   37.7860   83.6440 C   0  0  0  0  0  0  0  0  0  0  0  0
   39.7200   38.9680   83.8730 O   0  0  0  0  0  0  0  0  0  0  0  0
   40.5000   37.1040   85.7370 N   0  0  0  0  0  0  0  0  0  0  0  0
   38.9760   37.4040   82.4450 N   0  0  0  0  0  0  0  0  0  0  0  0
   38.8990   38.3780   81.3470 C   0  0  0  0  0  0  0  0  0  0  0  0
   38.4340   37.5290   80.1780 C   0  0  0  0  0  0  0  0  0  0  0  0
   37.7060   36.3580   80.8660 C   0  0  0  0  0  0  0  0  0  0  0  0
   38.5400   36.0370   82.1090 C   0  0  0  0  0  0  0  0  0  0  0  0
   42.3667   38.5477   87.0349 H   0  0  0  0  0  0  0  0  0  0  0  0
   42.7925   36.7884   87.2399 H   0  0  0  0  0  0  0  0  0  0  0  0
   44.4277   37.1681   85.2839 H   0  0  0  0  0  0  0  0  0  0  0  0
   44.1912   38.9454   85.6792 H   0  0  0  0  0  0  0  0  0  0  0  0
   46.2286   38.1206   86.7142 H   0  0  0  0  0  0  0  0  0  0  0  0
   44.9631   38.5276   87.9577 H   0  0  0  0  0  0  0  0  0  0  0  0
   45.6818   35.4591   85.8684 H   0  0  0  0  0  0  0  0  0  0  0  0
   45.1772   37.1885   89.7751 H   0  0  0  0  0  0  0  0  0  0  0  0
   45.8810   33.1844   86.8691 H   0  0  0  0  0  0  0  0  0  0  0  0
   45.3384   34.9049   90.8127 H   0  0  0  0  0  0  0  0  0  0  0  0
   45.7156   32.8996   89.3536 H   0  0  0  0  0  0  0  0  0  0  0  0
   35.2882   42.6112   90.2900 H   0  0  0  0  0  0  0  0  0  0  0  0
   36.6862   40.8800   89.1677 H   0  0  0  0  0  0  0  0  0  0  0  0
   32.8633   39.4910   92.0549 H   0  0  0  0  0  0  0  0  0  0  0  0
   34.2728   37.7568   90.9309 H   0  0  0  0  0  0  0  0  0  0  0  0
   37.3778   39.1298   87.5226 H   0  0  0  0  0  0  0  0  0  0  0  0
   38.7316   35.3715   87.1663 H   0  0  0  0  0  0  0  0  0  0  0  0
   39.7138   38.3075   87.3261 H   0  0  0  0  0  0  0  0  0  0  0  0
   40.5884   36.9147   87.9010 H   0  0  0  0  0  0  0  0  0  0  0  0
   37.6034   35.7300   85.1997 H   0  0  0  0  0  0  0  0  0  0  0  0
   37.5080   37.4717   85.3847 H   0  0  0  0  0  0  0  0  0  0  0  0
   39.7163   35.7912   84.2245 H   0  0  0  0  0  0  0  0  0  0  0  0
   38.1734   39.1733   81.5727 H   0  0  0  0  0  0  0  0  0  0  0  0
   39.8499   38.8974   81.1575 H   0  0  0  0  0  0  0  0  0  0  0  0
   37.7489   38.0930   79.5280 H   0  0  0  0  0  0  0  0  0  0  0  0
   39.2572   37.2033   79.5251 H   0  0  0  0  0  0  0  0  0  0  0  0
   36.6859   36.6536   81.1524 H   0  0  0  0  0  0  0  0  0  0  0  0
   37.6105   35.4873   80.2006 H   0  0  0  0  0  0  0  0  0  0  0  0
   39.3892   35.3770   81.8782 H   0  0  0  0  0  0  0  0  0  0  0  0
   38.0131   35.4957   82.9086 H   0  0  0  0  0  0  0  0  0  0  0  0
 12 13  1  0
 13 14  2  0
 13 16  1  0
 14 15  1  0
 15 18  2  0
 16 17  2  0
 17 18  1  0
 18 19  1  0
 19 20  1  0
 19 22  2  0
 20 21  2  0
 21 23  1  0
 22 23  1  0
 23 24  1  0
 24 25  1  0
 24 26  1  0
 25 30  1  0
 26 27  1  0
 27 28  1  0
 27 30  1  0
 28 31  1  0
 28 29  2  0
 31 32  1  0
 31 35  1  0
 32 33  1  0
 33 34  1  0
 34 35  1  0
 30 10  1  0
 10 11  2  0
 10  1  1  0
  1  2  1  0
  2  3  1  0
  3  4  1  0
  4  5  2  0
  4  6  1  0
  5  7  1  0
  7  9  2  0
  9  8  1  0
  8  6  2  0
  1 36  1  0
  1 37  1  0
  2 38  1  0
  2 39  1  0
  3 40  1  0
  3 41  1  0
  5 42  1  0
  6 43  1  0
  7 44  1  0
  8 45  1  0
  9 46  1  0
 14 47  1  0
 15 48  1  0
 16 49  1  0
 17 50  1  0
 22 51  1  0
 24 52  1  0
 25 53  1  0
 25 54  1  0
 26 55  1  0
 26 56  1  0
 27 57  1  0
 32 58  1  0
 32 59  1  0
 33 60  1  0
 33 61  1  0
 34 62  1  0
 34 63  1  0
 35 64  1  0
 35 65  1  0
A    1
C12
A    2
C13
A    3
C14
A    4
C15
A    5
C20
A    6
C16
A    7
C19
A    8
C17
A    9
C18
A   10
C10
A   11
O11
A   12
F35
A   13
C32
A   14
C31
A   15
C30
A   16
C33
A   17
C34
A   18
C29
A   19
C27
A   20
N26
A   21
N25
A   22
C28
A   23
N24
A   24
C22
A   25
C21
A   26
C23
A   27
C8
A   28
C6
A   29
O7
A   30
N9
A   31
N5
A   32
C4
A   33
C3
A   34
C2
A   35
C1
M  END
