4BCF_T6Q_A_1327
     RDKit          3D

 59 62  0  0  0  0  0  0  0  0999 V2000
   49.0660  -19.3240  -10.4380 C   0  0  0  0  0  0  0  0  0  0  0  0
   50.1740  -19.3740  -11.3640 N   0  0  0  0  0  0  0  0  0  0  0  0
   50.7870  -18.2040  -11.8460 C   0  0  0  0  0  0  0  0  0  0  0  0
   50.3660  -17.3680  -12.7950 N   0  0  0  0  0  0  0  0  0  0  0  0
   51.1630  -16.3110  -13.0980 C   0  0  0  0  0  0  0  0  0  0  0  0
   50.7040  -15.3590  -14.1970 C   0  0  0  0  0  0  0  0  0  0  0  0
   52.3450  -16.1790  -12.3410 C   0  0  0  0  0  0  0  0  0  0  0  0
   53.4380  -15.2830  -12.3350 C   0  0  0  0  0  0  0  0  0  0  0  0
   54.7170  -15.8110  -12.2700 N   0  0  0  0  0  0  0  0  0  0  0  0
   55.8300  -14.9830  -12.2790 C   0  0  0  0  0  0  0  0  0  0  0  0
   57.1780  -15.5320  -12.2220 N   0  0  0  0  0  0  0  0  0  0  0  0
   57.4890  -16.9070  -11.8550 C   0  0  0  0  0  0  0  0  0  0  0  0
   58.8440  -17.1350  -11.5460 C   0  0  0  0  0  0  0  0  0  0  0  0
   59.2550  -18.4120  -11.1910 C   0  0  0  0  0  0  0  0  0  0  0  0
   58.2940  -19.4680  -11.1510 C   0  0  0  0  0  0  0  0  0  0  0  0
   56.9490  -19.2590  -11.4450 C   0  0  0  0  0  0  0  0  0  0  0  0
   56.0180  -20.4020  -11.3660 N   0  0  0  0  0  0  0  0  0  0  0  0
   56.8300  -21.5310  -11.7140 C   0  0  0  0  0  0  0  0  0  0  0  0
   57.1170  -22.4160  -10.5550 C   0  0  0  0  0  0  0  0  0  0  0  0
   56.0040  -22.4210   -9.5580 C   0  0  0  0  0  0  0  0  0  0  0  0
   54.6740  -22.6090  -10.0820 N   0  0  0  0  0  0  0  0  0  0  0  0
   53.9190  -23.7130   -9.4310 C   0  0  0  0  0  0  0  0  0  0  0  0
   52.4940  -24.1030   -9.7940 C   0  0  0  0  0  0  0  0  0  0  0  0
   54.4420  -24.3750   -8.5320 O   0  0  0  0  0  0  0  0  0  0  0  0
   53.9960  -21.8580  -11.1380 C   0  0  0  0  0  0  0  0  0  0  0  0
   54.6240  -20.5910  -11.6860 C   0  0  0  0  0  0  0  0  0  0  0  0
   56.5280  -17.9720  -11.8160 C   0  0  0  0  0  0  0  0  0  0  0  0
   55.7070  -13.6290  -12.3370 N   0  0  0  0  0  0  0  0  0  0  0  0
   54.4320  -13.0720  -12.3910 C   0  0  0  0  0  0  0  0  0  0  0  0
   53.2770  -13.8870  -12.3950 C   0  0  0  0  0  0  0  0  0  0  0  0
   51.9350  -13.2770  -12.4050 C   0  0  0  0  0  0  0  0  0  0  0  0
   50.8740  -12.7960  -12.4410 N   0  0  0  0  0  0  0  0  0  0  0  0
   52.2960  -17.5530  -11.3700 S   0  0  0  0  0  0  0  0  0  0  0  0
   49.4488  -19.3413   -9.4069 H   0  0  0  0  0  0  0  0  0  0  0  0
   48.4933  -18.3991  -10.6011 H   0  0  0  0  0  0  0  0  0  0  0  0
   48.4123  -20.1936  -10.6011 H   0  0  0  0  0  0  0  0  0  0  0  0
   50.5237  -20.2901  -11.6791 H   0  0  0  0  0  0  0  0  0  0  0  0
   50.2690  -14.4567  -13.7424 H   0  0  0  0  0  0  0  0  0  0  0  0
   51.5650  -15.0767  -14.8207 H   0  0  0  0  0  0  0  0  0  0  0  0
   49.9469  -15.8568  -14.8207 H   0  0  0  0  0  0  0  0  0  0  0  0
   57.9625  -14.9072  -12.4565 H   0  0  0  0  0  0  0  0  0  0  0  0
   59.5694  -16.3090  -11.5857 H   0  0  0  0  0  0  0  0  0  0  0  0
   60.3085  -18.6087  -10.9433 H   0  0  0  0  0  0  0  0  0  0  0  0
   58.6276  -20.4803  -10.8788 H   0  0  0  0  0  0  0  0  0  0  0  0
   56.3048  -22.1177  -12.4821 H   0  0  0  0  0  0  0  0  0  0  0  0
   57.7925  -21.1449  -12.0809 H   0  0  0  0  0  0  0  0  0  0  0  0
   57.2683  -23.4419  -10.9219 H   0  0  0  0  0  0  0  0  0  0  0  0
   58.0177  -22.0328  -10.0530 H   0  0  0  0  0  0  0  0  0  0  0  0
   56.1995  -23.2332   -8.8424 H   0  0  0  0  0  0  0  0  0  0  0  0
   56.0038  -21.4139   -9.1157 H   0  0  0  0  0  0  0  0  0  0  0  0
   51.9119  -24.2623   -8.8744 H   0  0  0  0  0  0  0  0  0  0  0  0
   52.0328  -23.2980  -10.3851 H   0  0  0  0  0  0  0  0  0  0  0  0
   52.5070  -25.0306  -10.3851 H   0  0  0  0  0  0  0  0  0  0  0  0
   53.8723  -22.5452  -11.9880 H   0  0  0  0  0  0  0  0  0  0  0  0
   53.0814  -21.4961  -10.6456 H   0  0  0  0  0  0  0  0  0  0  0  0
   54.0644  -19.7336  -11.2838 H   0  0  0  0  0  0  0  0  0  0  0  0
   54.5739  -20.6776  -12.7814 H   0  0  0  0  0  0  0  0  0  0  0  0
   55.4754  -17.7826  -12.0734 H   0  0  0  0  0  0  0  0  0  0  0  0
   54.3216  -11.9783  -12.4313 H   0  0  0  0  0  0  0  0  0  0  0  0
  1  2  1  0
  2  3  1  0
  3  4  2  0
  3 33  1  0
  4  5  1  0
  5  6  1  0
  5  7  2  0
  7  8  1  0
  7 33  1  0
  8  9  2  0
  8 30  1  0
  9 10  1  0
 10 11  1  0
 10 28  2  0
 11 12  1  0
 12 13  2  0
 12 27  1  0
 13 14  1  0
 14 15  2  0
 15 16  1  0
 16 17  1  0
 16 27  2  0
 17 18  1  0
 17 26  1  0
 18 19  1  0
 19 20  1  0
 20 21  1  0
 21 22  1  0
 21 25  1  0
 22 23  1  0
 22 24  2  0
 25 26  1  0
 28 29  1  0
 29 30  2  0
 30 31  1  0
 31 32  3  0
  1 34  1  0
  1 35  1  0
  1 36  1  0
  2 37  1  0
  6 38  1  0
  6 39  1  0
  6 40  1  0
 11 41  1  0
 13 42  1  0
 14 43  1  0
 15 44  1  0
 18 45  1  0
 18 46  1  0
 19 47  1  0
 19 48  1  0
 20 49  1  0
 20 50  1  0
 23 51  1  0
 23 52  1  0
 23 53  1  0
 25 54  1  0
 25 55  1  0
 26 56  1  0
 26 57  1  0
 27 58  1  0
 29 59  1  0
A    1
C01
A    2
N02
A    3
C03
A    4
N04
A    5
C05
A    6
C06
A    7
C07
A    8
C08
A    9
N09
A   10
C10
A   11
N11
A   12
C12
A   13
C13
A   14
C14
A   15
C15
A   16
C16
A   17
N17
A   18
C18
A   19
C19
A   20
C20
A   21
N21
A   22
C22
A   23
C23
A   24
O24
A   25
C25
A   26
C26
A   27
C27
A   28
N28
A   29
C29
A   30
C30
A   31
C31
A   32
N32
A   33
S33
M  END
