4BCJ_T9N_A_1327
     RDKit          3D

 38 40  0  0  0  0  0  0  0  0999 V2000
   51.1980  -20.2920  -12.3620 C   0  0  0  0  0  0  0  0  0  0  0  0
   50.6860  -19.0090  -11.9580 N   0  0  0  0  0  0  0  0  0  0  0  0
   51.3500  -17.8500  -12.3830 C   0  0  0  0  0  0  0  0  0  0  0  0
   50.8800  -16.8010  -13.1360 N   0  0  0  0  0  0  0  0  0  0  0  0
   51.8280  -15.8170  -13.3530 C   0  0  0  0  0  0  0  0  0  0  0  0
   51.5010  -14.5890  -14.1700 C   0  0  0  0  0  0  0  0  0  0  0  0
   53.0980  -16.0330  -12.7680 C   0  0  0  0  0  0  0  0  0  0  0  0
   54.3060  -15.1360  -12.7720 C   0  0  0  0  0  0  0  0  0  0  0  0
   55.5460  -15.6460  -12.7490 N   0  0  0  0  0  0  0  0  0  0  0  0
   56.5960  -14.7810  -12.7300 C   0  0  0  0  0  0  0  0  0  0  0  0
   57.9330  -15.3480  -12.7610 N   0  0  0  0  0  0  0  0  0  0  0  0
   58.2140  -16.7020  -12.2620 C   0  0  0  0  0  0  0  0  0  0  0  0
   59.4880  -16.9570  -11.7360 C   0  0  0  0  0  0  0  0  0  0  0  0
   59.7850  -18.2270  -11.2420 C   0  0  0  0  0  0  0  0  0  0  0  0
   61.0530  -18.4410  -10.7010 O   0  0  0  0  0  0  0  0  0  0  0  0
   58.8130  -19.2900  -11.2860 C   0  0  0  0  0  0  0  0  0  0  0  0
   57.5630  -19.0390  -11.8170 C   0  0  0  0  0  0  0  0  0  0  0  0
   57.2560  -17.7320  -12.3120 C   0  0  0  0  0  0  0  0  0  0  0  0
   56.4650  -13.4060  -12.7140 N   0  0  0  0  0  0  0  0  0  0  0  0
   55.2240  -12.8530  -12.7010 C   0  0  0  0  0  0  0  0  0  0  0  0
   54.1050  -13.6990  -12.7130 C   0  0  0  0  0  0  0  0  0  0  0  0
   52.6880  -13.1470  -12.6190 C   0  0  0  0  0  0  0  0  0  0  0  0
   51.6210  -12.7320  -12.6060 N   0  0  0  0  0  0  0  0  0  0  0  0
   52.9500  -17.5170  -12.0330 S   0  0  0  0  0  0  0  0  0  0  0  0
   51.4363  -20.8892  -11.4695 H   0  0  0  0  0  0  0  0  0  0  0  0
   50.4403  -20.8166  -12.9626 H   0  0  0  0  0  0  0  0  0  0  0  0
   52.1087  -20.1508  -12.9626 H   0  0  0  0  0  0  0  0  0  0  0  0
   49.8455  -18.9435  -11.3663 H   0  0  0  0  0  0  0  0  0  0  0  0
   51.2773  -13.7490  -13.4959 H   0  0  0  0  0  0  0  0  0  0  0  0
   52.3617  -14.3308  -14.8045 H   0  0  0  0  0  0  0  0  0  0  0  0
   50.6259  -14.7930  -14.8045 H   0  0  0  0  0  0  0  0  0  0  0  0
   58.7063  -14.7853  -13.1435 H   0  0  0  0  0  0  0  0  0  0  0  0
   60.2476  -16.1617  -11.7130 H   0  0  0  0  0  0  0  0  0  0  0  0
   61.1751  -18.4616   -9.7188 H   0  0  0  0  0  0  0  0  0  0  0  0
   59.0637  -20.2895  -10.9012 H   0  0  0  0  0  0  0  0  0  0  0  0
   56.8086  -19.8384  -11.8591 H   0  0  0  0  0  0  0  0  0  0  0  0
   56.2612  -17.5302  -12.7359 H   0  0  0  0  0  0  0  0  0  0  0  0
   55.0988  -11.7603  -12.6814 H   0  0  0  0  0  0  0  0  0  0  0  0
  1  2  1  0
  2  3  1  0
  3  4  2  0
  3 24  1  0
  4  5  1  0
  5  6  1  0
  5  7  2  0
  7  8  1  0
  7 24  1  0
  8  9  2  0
  8 21  1  0
  9 10  1  0
 10 11  1  0
 10 19  2  0
 11 12  1  0
 12 13  2  0
 12 18  1  0
 13 14  1  0
 14 15  1  0
 14 16  2  0
 16 17  1  0
 17 18  2  0
 19 20  1  0
 20 21  2  0
 21 22  1  0
 22 23  3  0
  1 25  1  0
  1 26  1  0
  1 27  1  0
  2 28  1  0
  6 29  1  0
  6 30  1  0
  6 31  1  0
 11 32  1  0
 13 33  1  0
 15 34  1  0
 16 35  1  0
 17 36  1  0
 18 37  1  0
 20 38  1  0
A    1
C01
A    2
N02
A    3
C03
A    4
N04
A    5
C05
A    6
C06
A    7
C07
A    8
C08
A    9
N09
A   10
C10
A   11
N11
A   12
C12
A   13
C13
A   14
C14
A   15
O15
A   16
C16
A   17
C17
A   18
C18
A   19
N19
A   20
C20
A   21
C21
A   22
C22
A   23
N23
A   24
S24
M  END
