4BCQ_TJF_A_1296
     RDKit          3D

 52 55  0  0  0  0  0  0  0  0999 V2000
    3.4180   22.7320   19.8490 C   0  0  0  0  0  0  0  0  0  0  0  0
    3.9010   21.5230   20.4570 N   0  0  0  0  0  0  0  0  0  0  0  0
    4.9060   21.5490   21.4770 C   0  0  0  0  0  0  0  0  0  0  0  0
    5.5630   20.4110   21.9930 N   0  0  0  0  0  0  0  0  0  0  0  0
    6.5480   20.7880   23.0380 C   0  0  0  0  0  0  0  0  0  0  0  0
    7.4000   19.8010   23.7710 C   0  0  0  0  0  0  0  0  0  0  0  0
    6.5420   22.2110   23.2230 C   0  0  0  0  0  0  0  0  0  0  0  0
    7.3750   23.0200   24.1630 C   0  0  0  0  0  0  0  0  0  0  0  0
    6.7660   23.7580   25.1020 N   0  0  0  0  0  0  0  0  0  0  0  0
    7.4580   24.5200   25.9530 C   0  0  0  0  0  0  0  0  0  0  0  0
    3.3680   26.2340   25.8130 C   0  0  0  0  0  0  0  0  0  0  0  0
    6.8040   25.2890   26.9660 N   0  0  0  0  0  0  0  0  0  0  0  0
    5.4830   25.8390   26.9130 C   0  0  0  0  0  0  0  0  0  0  0  0
    5.0210   26.5380   28.0170 C   0  0  0  0  0  0  0  0  0  0  0  0
    3.7480   27.0850   28.0250 C   0  0  0  0  0  0  0  0  0  0  0  0
    2.9200   26.9370   26.9240 C   0  0  0  0  0  0  0  0  0  0  0  0
    1.2080   22.7470   24.8930 C   0  0  0  0  0  0  0  0  0  0  0  0
    1.5650   22.7070   23.4980 O   0  0  0  0  0  0  0  0  0  0  0  0
    1.4450   24.1050   25.4780 C   0  0  0  0  0  0  0  0  0  0  0  0
    1.5500   25.0280   24.4880 N   0  0  0  0  0  0  0  0  0  0  0  0
    2.4920   26.0830   24.6230 C   0  0  0  0  0  0  0  0  0  0  0  0
    2.5810   26.9000   23.7230 O   0  0  0  0  0  0  0  0  0  0  0  0
    0.8160   25.0140   23.3420 C   0  0  0  0  0  0  0  0  0  0  0  0
    0.7090   23.6270   22.7930 C   0  0  0  0  0  0  0  0  0  0  0  0
    4.6440   25.6960   25.8090 C   0  0  0  0  0  0  0  0  0  0  0  0
    8.7970   24.5510   25.8990 N   0  0  0  0  0  0  0  0  0  0  0  0
    9.4760   23.8430   24.9850 C   0  0  0  0  0  0  0  0  0  0  0  0
    8.7730   23.0520   24.0770 C   0  0  0  0  0  0  0  0  0  0  0  0
    9.5070   22.2610   23.0500 C   0  0  0  0  0  0  0  0  0  0  0  0
   10.0640   21.6520   22.2660 N   0  0  0  0  0  0  0  0  0  0  0  0
    5.4650   22.8750   22.2170 S   0  0  0  0  0  0  0  0  0  0  0  0
    3.1319   23.4480   20.6335 H   0  0  0  0  0  0  0  0  0  0  0  0
    4.2102   23.1700   19.2240 H   0  0  0  0  0  0  0  0  0  0  0  0
    2.5421   22.5036   19.2240 H   0  0  0  0  0  0  0  0  0  0  0  0
    3.5159   20.6175   20.1525 H   0  0  0  0  0  0  0  0  0  0  0  0
    7.2768   19.9438   24.8547 H   0  0  0  0  0  0  0  0  0  0  0  0
    7.0950   18.7798   23.4987 H   0  0  0  0  0  0  0  0  0  0  0  0
    8.4548   19.9536   23.4987 H   0  0  0  0  0  0  0  0  0  0  0  0
    7.3412   25.4664   27.8267 H   0  0  0  0  0  0  0  0  0  0  0  0
    5.6715   26.6597   28.8957 H   0  0  0  0  0  0  0  0  0  0  0  0
    3.3939   27.6380   28.9075 H   0  0  0  0  0  0  0  0  0  0  0  0
    1.9109   27.3749   26.9297 H   0  0  0  0  0  0  0  0  0  0  0  0
    0.1428   22.4931   24.9974 H   0  0  0  0  0  0  0  0  0  0  0  0
    1.8362   22.0228   25.4324 H   0  0  0  0  0  0  0  0  0  0  0  0
    0.6033   24.3701   26.1347 H   0  0  0  0  0  0  0  0  0  0  0  0
    2.3806   24.0895   26.0562 H   0  0  0  0  0  0  0  0  0  0  0  0
   -0.1933   25.3953   23.5562 H   0  0  0  0  0  0  0  0  0  0  0  0
    1.3167   25.6491   22.5964 H   0  0  0  0  0  0  0  0  0  0  0  0
    0.9977   23.6405   21.7316 H   0  0  0  0  0  0  0  0  0  0  0  0
   -0.3309   23.2895   22.9146 H   0  0  0  0  0  0  0  0  0  0  0  0
    5.0000   25.1489   24.9236 H   0  0  0  0  0  0  0  0  0  0  0  0
   10.5747   23.8856   24.9518 H   0  0  0  0  0  0  0  0  0  0  0  0
  1  2  1  0
  2  3  1  0
  3  4  2  0
  3 31  1  0
  4  5  1  0
  5  6  1  0
  5  7  2  0
  7  8  1  0
  7 31  1  0
  8  9  2  0
  8 28  1  0
  9 10  1  0
 10 12  1  0
 10 26  2  0
 11 16  1  0
 11 21  1  0
 11 25  2  0
 12 13  1  0
 13 14  2  0
 13 25  1  0
 14 15  1  0
 15 16  2  0
 17 18  1  0
 17 19  1  0
 18 24  1  0
 19 20  1  0
 20 21  1  0
 20 23  1  0
 21 22  2  0
 23 24  1  0
 26 27  1  0
 27 28  2  0
 28 29  1  0
 29 30  3  0
  1 32  1  0
  1 33  1  0
  1 34  1  0
  2 35  1  0
  6 36  1  0
  6 37  1  0
  6 38  1  0
 12 39  1  0
 14 40  1  0
 15 41  1  0
 16 42  1  0
 17 43  1  0
 17 44  1  0
 19 45  1  0
 19 46  1  0
 23 47  1  0
 23 48  1  0
 24 49  1  0
 24 50  1  0
 25 51  1  0
 27 52  1  0
A    1
C01
A    2
N02
A    3
C03
A    4
N04
A    5
C05
A    6
C06
A    7
C07
A    8
C08
A    9
N09
A   10
C10
A   11
C11
A   12
N11
A   13
C12
A   14
C13
A   15
C14
A   16
C15
A   17
C19
A   18
O19
A   19
C20
A   20
N21
A   21
C22
A   22
O24
A   23
C25
A   24
C26
A   25
C27
A   26
N28
A   27
C29
A   28
C30
A   29
C31
A   30
N32
A   31
S33
M  END
