4BDF_H3R_A_1513
     RDKit          3D

 22 23  0  0  0  0  0  0  0  0999 V2000
  -36.5720   34.9990    7.7400 C   0  0  0  0  0  0  0  0  0  0  0  0
  -35.8500   35.6710    8.8630 C   0  0  0  0  0  0  0  0  0  0  0  0
  -37.4110   33.9140    7.7210 C   0  0  0  0  0  0  0  0  0  0  0  0
  -39.2190   32.8080    4.5700 C   0  0  0  0  0  0  0  0  0  0  0  0
  -38.6940   31.3980    6.4410 C   0  0  0  0  0  0  0  0  0  0  0  0
  -40.0100   31.8010    4.0380 C   0  0  0  0  0  0  0  0  0  0  0  0
  -39.4930   30.3990    5.9070 C   0  0  0  0  0  0  0  0  0  0  0  0
  -40.1540   30.6010    4.7090 C   0  0  0  0  0  0  0  0  0  0  0  0
  -37.7370   33.6990    6.3700 C   0  0  0  0  0  0  0  0  0  0  0  0
  -37.1450   34.6190    5.5960 N   0  0  0  0  0  0  0  0  0  0  0  0
  -38.5520   32.6190    5.7810 C   0  0  0  0  0  0  0  0  0  0  0  0
  -36.4370   35.4000    6.4660 N   0  0  0  0  0  0  0  0  0  0  0  0
  -36.2433   35.3050    9.8229 H   0  0  0  0  0  0  0  0  0  0  0  0
  -34.7758   35.4439    8.7963 H   0  0  0  0  0  0  0  0  0  0  0  0
  -35.9996   36.7587    8.7963 H   0  0  0  0  0  0  0  0  0  0  0  0
  -37.7582   33.3307    8.5865 H   0  0  0  0  0  0  0  0  0  0  0  0
  -39.1166   33.7628    4.0335 H   0  0  0  0  0  0  0  0  0  0  0  0
  -38.1682   31.2269    7.3919 H   0  0  0  0  0  0  0  0  0  0  0  0
  -40.5248   31.9576    3.0786 H   0  0  0  0  0  0  0  0  0  0  0  0
  -39.6017   29.4419    6.4381 H   0  0  0  0  0  0  0  0  0  0  0  0
  -40.7927   29.8088    4.2912 H   0  0  0  0  0  0  0  0  0  0  0  0
  -37.2093   34.7160    4.5726 H   0  0  0  0  0  0  0  0  0  0  0  0
  1  2  1  0
  1  3  1  0
  1 12  2  0
  3  9  2  0
  4  6  2  0
  4 11  1  0
  5  7  1  0
  5 11  2  0
  6  8  1  0
  7  8  2  0
  9 10  1  0
  9 11  1  0
 10 12  1  0
  2 13  1  0
  2 14  1  0
  2 15  1  0
  3 16  1  0
  4 17  1  0
  5 18  1  0
  6 19  1  0
  7 20  1  0
  8 21  1  0
 10 22  1  0
A    1
C1
A    2
C2
A    3
C3
A    4
C7
A    5
C8
A    6
C9
A    7
C10
A    8
C11
A    9
C12
A   10
N13
A   11
C4
A   12
N3
M  END
