4BDH_WVI_A_1514
     RDKit          3D

 21 22  0  0  0  0  0  0  0  0999 V2000
  -36.2360   35.6300    9.1240 C   0  0  0  0  0  0  0  0  0  0  0  0
  -38.5520   32.6990    5.7840 N   0  0  0  0  0  0  0  0  0  0  0  0
  -37.8690   33.6750    6.3860 C   0  0  0  0  0  0  0  0  0  0  0  0
  -37.5210   33.7750    7.7780 C   0  0  0  0  0  0  0  0  0  0  0  0
  -36.8250   34.9700    7.9180 C   0  0  0  0  0  0  0  0  0  0  0  0
  -36.7460   35.5230    6.6970 N   0  0  0  0  0  0  0  0  0  0  0  0
  -37.0140   32.4990    9.9650 C   0  0  0  0  0  0  0  0  0  0  0  0
  -37.7900   32.7530    8.8040 C   0  0  0  0  0  0  0  0  0  0  0  0
  -39.1280   31.6710    8.7210 S   0  0  0  0  0  0  0  0  0  0  0  0
  -38.6740   30.9080   10.1890 C   0  0  0  0  0  0  0  0  0  0  0  0
  -37.3690   34.7690    5.7450 N   0  0  0  0  0  0  0  0  0  0  0  0
  -37.5550   31.4350   10.7310 C   0  0  0  0  0  0  0  0  0  0  0  0
  -36.6484   35.1679   10.0330 H   0  0  0  0  0  0  0  0  0  0  0  0
  -35.1431   35.5057    9.1130 H   0  0  0  0  0  0  0  0  0  0  0  0
  -36.4833   36.7018    9.1130 H   0  0  0  0  0  0  0  0  0  0  0  0
  -39.0462   31.9928    6.3478 H   0  0  0  0  0  0  0  0  0  0  0  0
  -38.5849   32.6520    4.7556 H   0  0  0  0  0  0  0  0  0  0  0  0
  -36.1062   33.0577   10.2368 H   0  0  0  0  0  0  0  0  0  0  0  0
  -39.2353   30.0770   10.6411 H   0  0  0  0  0  0  0  0  0  0  0  0
  -37.4461   34.9842    4.7407 H   0  0  0  0  0  0  0  0  0  0  0  0
  -37.1089   31.0759   11.6702 H   0  0  0  0  0  0  0  0  0  0  0  0
  1  5  1  0
  2  3  1  0
  3  4  2  0
  3 11  1  0
  4  5  1  0
  4  8  1  0
  5  6  2  0
  6 11  1  0
  7  8  2  0
  7 12  1  0
  8  9  1  0
  9 10  1  0
 10 12  2  0
  1 13  1  0
  1 14  1  0
  1 15  1  0
  2 16  1  0
  2 17  1  0
  7 18  1  0
 10 19  1  0
 11 20  1  0
 12 21  1  0
A    1
C1
A    2
N3
A    3
C4
A    4
C5
A    5
C6
A    6
N7
A    7
C9
A    8
C10
A    9
S11
A   10
C12
A   11
N
A   12
C13
M  END
