4BDK_RQQ_A_1514
     RDKit          3D

 37 39  0  0  0  0  0  0  0  0999 V2000
   40.5000  -30.5360    4.7880 O   0  0  0  0  0  0  0  0  0  0  0  0
   39.8100  -31.5110    4.4880 C   0  0  0  0  0  0  0  0  0  0  0  0
   39.1110  -32.3150    5.5450 C   0  0  0  0  0  0  0  0  0  0  0  0
   39.3100  -31.9810    6.8890 C   0  0  0  0  0  0  0  0  0  0  0  0
   38.6540  -32.6470    7.8830 C   0  0  0  0  0  0  0  0  0  0  0  0
   38.2580  -33.3470    5.2130 C   0  0  0  0  0  0  0  0  0  0  0  0
   37.5640  -34.0470    6.2260 C   0  0  0  0  0  0  0  0  0  0  0  0
   36.6840  -35.0380    5.8760 N   0  0  0  0  0  0  0  0  0  0  0  0
   36.0430  -35.6300    6.8700 C   0  0  0  0  0  0  0  0  0  0  0  0
   36.2330  -35.2770    8.2020 C   0  0  0  0  0  0  0  0  0  0  0  0
   37.0720  -34.3260    8.5770 N   0  0  0  0  0  0  0  0  0  0  0  0
   37.7590  -33.6930    7.5760 C   0  0  0  0  0  0  0  0  0  0  0  0
   39.6490  -31.9120    3.2200 N   0  0  0  0  0  0  0  0  0  0  0  0
   40.4120  -31.3580    2.1090 C   0  0  0  0  0  0  0  0  0  0  0  0
   41.3860  -32.3380    1.5020 C   0  0  0  0  0  0  0  0  0  0  0  0
   41.4550  -32.5120    0.1270 C   0  0  0  0  0  0  0  0  0  0  0  0
   42.3090  -33.4440   -0.4380 C   0  0  0  0  0  0  0  0  0  0  0  0
   43.1200  -34.2210    0.3830 C   0  0  0  0  0  0  0  0  0  0  0  0
   43.9800  -35.2270    0.0070 O   0  0  0  0  0  0  0  0  0  0  0  0
   44.1070  -35.5310   -1.3850 C   0  0  0  0  0  0  0  0  0  0  0  0
   43.0840  -34.0370    1.7570 C   0  0  0  0  0  0  0  0  0  0  0  0
   42.2200  -33.1040    2.3040 C   0  0  0  0  0  0  0  0  0  0  0  0
   40.0057  -31.1694    7.1483 H   0  0  0  0  0  0  0  0  0  0  0  0
   38.8246  -32.3657    8.9327 H   0  0  0  0  0  0  0  0  0  0  0  0
   38.1177  -33.6256    4.1582 H   0  0  0  0  0  0  0  0  0  0  0  0
   35.3307  -36.4342    6.6337 H   0  0  0  0  0  0  0  0  0  0  0  0
   35.6617  -35.8110    8.9755 H   0  0  0  0  0  0  0  0  0  0  0  0
   38.9539  -32.6457    3.0212 H   0  0  0  0  0  0  0  0  0  0  0  0
   39.7072  -31.0378    1.3275 H   0  0  0  0  0  0  0  0  0  0  0  0
   41.0016  -30.5190    2.5069 H   0  0  0  0  0  0  0  0  0  0  0  0
   40.8188  -31.8975   -0.5269 H   0  0  0  0  0  0  0  0  0  0  0  0
   42.3460  -33.5694   -1.5302 H   0  0  0  0  0  0  0  0  0  0  0  0
   44.5286  -36.5401   -1.5029 H   0  0  0  0  0  0  0  0  0  0  0  0
   43.1163  -35.4895   -1.8612 H   0  0  0  0  0  0  0  0  0  0  0  0
   44.7738  -34.7971   -1.8612 H   0  0  0  0  0  0  0  0  0  0  0  0
   43.7402  -34.6308    2.4104 H   0  0  0  0  0  0  0  0  0  0  0  0
   42.1941  -32.9672    3.3952 H   0  0  0  0  0  0  0  0  0  0  0  0
  1  2  2  0
  2  3  1  0
  2 13  1  0
  3  4  2  0
  3  6  1  0
  4  5  1  0
  5 12  2  0
  6  7  2  0
  7  8  1  0
  7 12  1  0
  8  9  2  0
  9 10  1  0
 10 11  2  0
 11 12  1  0
 13 14  1  0
 14 15  1  0
 15 16  2  0
 15 22  1  0
 16 17  1  0
 17 18  2  0
 18 19  1  0
 18 21  1  0
 19 20  1  0
 21 22  2  0
  4 23  1  0
  5 24  1  0
  6 25  1  0
  9 26  1  0
 10 27  1  0
 13 28  1  0
 14 29  1  0
 14 30  1  0
 16 31  1  0
 17 32  1  0
 20 33  1  0
 20 34  1  0
 20 35  1  0
 21 36  1  0
 22 37  1  0
A    1
O1
A    2
C6
A    3
C4
A    4
C3
A    5
C2
A    6
C5
A    7
C
A    8
N2
A    9
C16
A   10
C15
A   11
N1
A   12
C1
A   13
N
A   14
C7
A   15
C8
A   16
C14
A   17
C13
A   18
C11
A   19
O
A   20
C12
A   21
C10
A   22
C9
M  END
