4BDS_FPK_A_710
     RDKit          3D

 19 19  0  0  0  0  0  0  0  0999 V2000
  138.9320  117.4200   40.9150 C   0  0  0  0  0  0  0  0  0  0  0  0
  139.7530  115.0300   40.9200 N   0  0  0  0  0  0  0  0  0  0  0  0
  137.6710  117.5700   41.3040 O   0  0  0  0  0  0  0  0  0  0  0  0
  139.8290  116.2960   41.5940 C   0  0  0  0  0  0  0  0  0  0  0  0
  141.2630  116.6730   41.7150 C   0  0  0  0  0  0  0  0  0  0  0  0
  141.9710  115.4440   41.6570 C   0  0  0  0  0  0  0  0  0  0  0  0
  141.0330  114.3700   41.1330 C   0  0  0  0  0  0  0  0  0  0  0  0
  138.5830  114.4600   40.1450 C   0  0  0  0  0  0  0  0  0  0  0  0
  137.4880  115.0820   40.0010 O   0  0  0  0  0  0  0  0  0  0  0  0
  139.4820  118.4110   39.9600 O   0  0  0  0  0  0  0  0  0  0  0  0
  137.4504  117.5962   42.2687 H   0  0  0  0  0  0  0  0  0  0  0  0
  139.3998  116.1986   42.6021 H   0  0  0  0  0  0  0  0  0  0  0  0
  141.5614  117.3308   40.8854 H   0  0  0  0  0  0  0  0  0  0  0  0
  141.4685  117.2253   42.6438 H   0  0  0  0  0  0  0  0  0  0  0  0
  142.8336  115.5445   40.9819 H   0  0  0  0  0  0  0  0  0  0  0  0
  142.3335  115.1709   42.6590 H   0  0  0  0  0  0  0  0  0  0  0  0
  140.9283  113.5602   41.8700 H   0  0  0  0  0  0  0  0  0  0  0  0
  141.4141  113.9173   40.2057 H   0  0  0  0  0  0  0  0  0  0  0  0
  138.6880  113.4649   39.6882 H   0  0  0  0  0  0  0  0  0  0  0  0
 10  1  2  0
  1  3  1  0
  1  4  1  0
  8  2  1  0
  2  7  1  0
  2  4  1  0
  4  5  1  0
  6  5  1  0
  7  6  1  0
  9  8  2  0
  3 11  1  0
  4 12  1  0
  5 13  1  0
  5 14  1  0
  6 15  1  0
  6 16  1  0
  7 17  1  0
  7 18  1  0
  8 19  1  0
A    1
C
A    2
N
A    3
O
A    4
CA
A    5
CB
A    6
CC
A    7
CD
A    8
CE
A    9
OE
A   10
OXT
M  END
