4BDY_CIJ_A_1382
     RDKit          3D

 31 33  0  0  0  0  0  0  0  0999 V2000
  -40.0150   37.8460  -19.3250 Cl  0  0  0  0  0  0  0  0  0  0  0  0
  -36.9460   32.6870  -22.9510 O   0  0  0  0  0  0  0  0  0  0  0  0
  -35.8870   34.1060  -18.8300 O   0  0  0  0  0  0  0  0  0  0  0  0
  -36.2860   28.9400  -17.7310 O   0  0  0  0  0  0  0  0  0  0  0  0
  -35.9350   31.5860  -17.3420 O   0  0  0  0  0  0  0  0  0  0  0  0
  -41.0360   38.1040  -21.9720 F   0  0  0  0  0  0  0  0  0  0  0  0
  -36.7470   29.2940  -20.1020 C   0  0  0  0  0  0  0  0  0  0  0  0
  -39.3040   36.8660  -23.0570 C   0  0  0  0  0  0  0  0  0  0  0  0
  -38.1220   36.1340  -22.9370 C   0  0  0  0  0  0  0  0  0  0  0  0
  -36.8670   30.1820  -21.1760 C   0  0  0  0  0  0  0  0  0  0  0  0
  -38.1140   36.4780  -20.5580 C   0  0  0  0  0  0  0  0  0  0  0  0
  -36.2830   35.1720  -21.5460 C   0  0  0  0  0  0  0  0  0  0  0  0
  -36.4400   29.7670  -18.8060 C   0  0  0  0  0  0  0  0  0  0  0  0
  -39.8850   37.4020  -21.9230 C   0  0  0  0  0  0  0  0  0  0  0  0
  -36.2380   31.1270  -18.5990 C   0  0  0  0  0  0  0  0  0  0  0  0
  -39.2720   37.2060  -20.7000 C   0  0  0  0  0  0  0  0  0  0  0  0
  -37.5460   35.9200  -21.6930 C   0  0  0  0  0  0  0  0  0  0  0  0
  -36.6800   32.6940  -21.7600 C   0  0  0  0  0  0  0  0  0  0  0  0
  -36.1710   33.3900  -19.7890 C   0  0  0  0  0  0  0  0  0  0  0  0
  -36.6650   31.5530  -20.9560 C   0  0  0  0  0  0  0  0  0  0  0  0
  -36.3300   32.0140  -19.6840 C   0  0  0  0  0  0  0  0  0  0  0  0
  -36.4150   33.7910  -21.0420 N   0  0  0  0  0  0  0  0  0  0  0  0
  -36.3538   29.3039  -16.8128 H   0  0  0  0  0  0  0  0  0  0  0  0
  -36.2584   31.0961  -16.5448 H   0  0  0  0  0  0  0  0  0  0  0  0
  -36.8931   28.2164  -20.2677 H   0  0  0  0  0  0  0  0  0  0  0  0
  -39.7682   37.0148  -24.0431 H   0  0  0  0  0  0  0  0  0  0  0  0
  -37.6423   35.7227  -23.8374 H   0  0  0  0  0  0  0  0  0  0  0  0
  -37.1166   29.8102  -22.1807 H   0  0  0  0  0  0  0  0  0  0  0  0
  -37.6505   36.3419  -19.5697 H   0  0  0  0  0  0  0  0  0  0  0  0
  -35.7992   35.1274  -22.5329 H   0  0  0  0  0  0  0  0  0  0  0  0
  -35.6983   35.7144  -20.7884 H   0  0  0  0  0  0  0  0  0  0  0  0
  1 16  1  0
  2 18  2  0
  3 19  2  0
  4 13  1  0
  5 15  1  0
  6 14  1  0
  7 10  2  0
  7 13  1  0
  8  9  2  0
  8 14  1  0
  9 17  1  0
 10 20  1  0
 11 16  1  0
 11 17  2  0
 12 17  1  0
 12 22  1  0
 13 15  2  0
 14 16  2  0
 15 21  1  0
 18 20  1  0
 18 22  1  0
 19 21  1  0
 19 22  1  0
 20 21  2  0
  4 23  1  0
  5 24  1  0
  7 25  1  0
  8 26  1  0
  9 27  1  0
 10 28  1  0
 11 29  1  0
 12 30  1  0
 12 31  1  0
A    1
CL
A    2
OAA
A    3
OAB
A    4
OAC
A    5
OAD
A    6
FAE
A    7
CAG
A    8
CAH
A    9
CAI
A   10
CAJ
A   11
CAK
A   12
CAL
A   13
CAM
A   14
CAN
A   15
CAO
A   16
CAP
A   17
CAQ
A   18
CAR
A   19
CAS
A   20
CAT
A   21
CAU
A   22
NAV
M  END
