4BE0_BF3_A_1382
     RDKit          3D

 31 33  0  0  0  0  0  0  0  0999 V2000
  -37.2980   33.1170  -22.8640 O   0  0  0  0  0  0  0  0  0  0  0  0
  -35.9530   34.3870  -18.7670 O   0  0  0  0  0  0  0  0  0  0  0  0
  -36.5940   29.1130  -17.8290 O   0  0  0  0  0  0  0  0  0  0  0  0
  -36.0540   31.7810  -17.3490 O   0  0  0  0  0  0  0  0  0  0  0  0
  -38.0600   36.7360  -19.4960 F   0  0  0  0  0  0  0  0  0  0  0  0
  -40.4140   38.2260  -19.7510 Cl  0  0  0  0  0  0  0  0  0  0  0  0
  -39.2350   37.0050  -23.3740 C   0  0  0  0  0  0  0  0  0  0  0  0
  -40.0020   37.6320  -22.3820 C   0  0  0  0  0  0  0  0  0  0  0  0
  -37.1200   29.6270  -20.1380 C   0  0  0  0  0  0  0  0  0  0  0  0
  -38.1010   36.2640  -23.0660 C   0  0  0  0  0  0  0  0  0  0  0  0
  -37.2490   30.5540  -21.1620 C   0  0  0  0  0  0  0  0  0  0  0  0
  -36.4570   35.4500  -21.4140 C   0  0  0  0  0  0  0  0  0  0  0  0
  -36.7160   30.0240  -18.8520 C   0  0  0  0  0  0  0  0  0  0  0  0
  -36.4410   31.3710  -18.5970 C   0  0  0  0  0  0  0  0  0  0  0  0
  -39.5800   37.5130  -21.0680 C   0  0  0  0  0  0  0  0  0  0  0  0
  -38.4410   36.8110  -20.7670 C   0  0  0  0  0  0  0  0  0  0  0  0
  -37.7140   36.1580  -21.7400 C   0  0  0  0  0  0  0  0  0  0  0  0
  -36.9800   33.0540  -21.6770 C   0  0  0  0  0  0  0  0  0  0  0  0
  -36.3280   33.6770  -19.6980 C   0  0  0  0  0  0  0  0  0  0  0  0
  -36.9670   31.8920  -20.9000 C   0  0  0  0  0  0  0  0  0  0  0  0
  -36.5480   32.3020  -19.6280 C   0  0  0  0  0  0  0  0  0  0  0  0
  -36.6270   34.0980  -20.9270 N   0  0  0  0  0  0  0  0  0  0  0  0
  -36.6347   29.4172  -16.8878 H   0  0  0  0  0  0  0  0  0  0  0  0
  -36.4504   31.3610  -16.5449 H   0  0  0  0  0  0  0  0  0  0  0  0
  -39.5399   37.1026  -24.4264 H   0  0  0  0  0  0  0  0  0  0  0  0
  -40.9087   38.1995  -22.6386 H   0  0  0  0  0  0  0  0  0  0  0  0
  -37.3369   28.5668  -20.3354 H   0  0  0  0  0  0  0  0  0  0  0  0
  -37.5212   35.7707  -23.8601 H   0  0  0  0  0  0  0  0  0  0  0  0
  -37.5691   30.2368  -22.1654 H   0  0  0  0  0  0  0  0  0  0  0  0
  -35.8414   35.4101  -22.3247 H   0  0  0  0  0  0  0  0  0  0  0  0
  -35.9881   36.0157  -20.5954 H   0  0  0  0  0  0  0  0  0  0  0  0
  1 18  2  0
  2 19  2  0
  3 13  1  0
  4 14  1  0
  5 16  1  0
  6 15  1  0
  7  8  2  0
  7 10  1  0
  8 15  1  0
  9 11  2  0
  9 13  1  0
 10 17  2  0
 11 20  1  0
 12 17  1  0
 12 22  1  0
 13 14  2  0
 14 21  1  0
 15 16  2  0
 16 17  1  0
 18 20  1  0
 18 22  1  0
 19 21  1  0
 19 22  1  0
 20 21  2  0
  3 23  1  0
  4 24  1  0
  7 25  1  0
  8 26  1  0
  9 27  1  0
 10 28  1  0
 11 29  1  0
 12 30  1  0
 12 31  1  0
A    1
OAA
A    2
OAB
A    3
OAC
A    4
OAD
A    5
FAE
A    6
CLA
A    7
CAG
A    8
CAH
A    9
CAI
A   10
CAJ
A   11
CAK
A   12
CAL
A   13
CAM
A   14
CAN
A   15
CAO
A   16
CAP
A   17
CAQ
A   18
CAR
A   19
CAS
A   20
CAT
A   21
CAU
A   22
NAV
M  END
