4BE2_XZ2_D_1018
     RDKit          3D

 43 45  0  0  0  0  0  0  0  0999 V2000
  -40.1120   37.8830  -19.2130 Cl  0  0  0  0  0  0  0  0  0  0  0  0
  -36.0400   28.0440  -22.9740 C   0  0  0  0  0  0  0  0  0  0  0  0
  -35.9610   30.4090  -23.9620 C   0  0  0  0  0  0  0  0  0  0  0  0
  -35.8610   34.3900  -18.9830 O   0  0  0  0  0  0  0  0  0  0  0  0
  -38.8170   30.6070  -23.0650 O   0  0  0  0  0  0  0  0  0  0  0  0
  -38.6250   28.3900  -22.2580 O   0  0  0  0  0  0  0  0  0  0  0  0
  -36.3540   29.3700  -17.4320 O   0  0  0  0  0  0  0  0  0  0  0  0
  -35.8930   32.1090  -17.3040 O   0  0  0  0  0  0  0  0  0  0  0  0
  -41.1480   38.2060  -21.9040 F   0  0  0  0  0  0  0  0  0  0  0  0
  -39.4110   37.0400  -23.0290 C   0  0  0  0  0  0  0  0  0  0  0  0
  -38.2340   36.3060  -22.9680 C   0  0  0  0  0  0  0  0  0  0  0  0
  -37.0270   29.5770  -19.7290 C   0  0  0  0  0  0  0  0  0  0  0  0
  -38.1890   36.5750  -20.5650 C   0  0  0  0  0  0  0  0  0  0  0  0
  -36.3730   35.3180  -21.6860 C   0  0  0  0  0  0  0  0  0  0  0  0
  -37.0810   32.8240  -21.8590 C   0  0  0  0  0  0  0  0  0  0  0  0
  -36.3250   33.6520  -19.8460 C   0  0  0  0  0  0  0  0  0  0  0  0
  -36.5800   30.1480  -18.5320 C   0  0  0  0  0  0  0  0  0  0  0  0
  -39.9850   37.5160  -21.8610 C   0  0  0  0  0  0  0  0  0  0  0  0
  -36.3340   31.5220  -18.4650 C   0  0  0  0  0  0  0  0  0  0  0  0
  -37.6460   36.0730  -21.7380 C   0  0  0  0  0  0  0  0  0  0  0  0
  -39.3610   37.2880  -20.6390 C   0  0  0  0  0  0  0  0  0  0  0  0
  -36.9650   31.7260  -20.7980 C   0  0  0  0  0  0  0  0  0  0  0  0
  -37.2360   30.3630  -20.8740 C   0  0  0  0  0  0  0  0  0  0  0  0
  -36.5220   32.3020  -19.6130 C   0  0  0  0  0  0  0  0  0  0  0  0
  -36.6200   29.3510  -23.2230 N   0  0  0  0  0  0  0  0  0  0  0  0
  -36.5730   33.9850  -21.1200 N   0  0  0  0  0  0  0  0  0  0  0  0
  -37.8460   29.6540  -22.4460 S   0  0  0  0  0  0  0  0  0  0  0  0
  -35.9656   27.8764  -21.8894 H   0  0  0  0  0  0  0  0  0  0  0  0
  -36.6783   27.2682  -23.4220 H   0  0  0  0  0  0  0  0  0  0  0  0
  -35.0365   27.9968  -23.4220 H   0  0  0  0  0  0  0  0  0  0  0  0
  -35.5146   31.1256  -23.2569 H   0  0  0  0  0  0  0  0  0  0  0  0
  -35.1717   29.9774  -24.5950 H   0  0  0  0  0  0  0  0  0  0  0  0
  -36.6964   30.9271  -24.5950 H   0  0  0  0  0  0  0  0  0  0  0  0
  -36.4647   29.7510  -16.5250 H   0  0  0  0  0  0  0  0  0  0  0  0
  -36.1693   31.7412  -16.4274 H   0  0  0  0  0  0  0  0  0  0  0  0
  -39.8858   37.2428  -24.0003 H   0  0  0  0  0  0  0  0  0  0  0  0
  -37.7744   35.9143  -23.8874 H   0  0  0  0  0  0  0  0  0  0  0  0
  -37.2178   28.4946  -19.7738 H   0  0  0  0  0  0  0  0  0  0  0  0
  -37.6929   36.4063  -19.5978 H   0  0  0  0  0  0  0  0  0  0  0  0
  -35.9726   35.2187  -22.7057 H   0  0  0  0  0  0  0  0  0  0  0  0
  -35.6678   35.8670  -21.0448 H   0  0  0  0  0  0  0  0  0  0  0  0
  -38.1243   32.9715  -22.1748 H   0  0  0  0  0  0  0  0  0  0  0  0
  -36.5405   32.6100  -22.7928 H   0  0  0  0  0  0  0  0  0  0  0  0
 21  1  1  0
 25  2  1  0
  3 25  1  0
 16  4  2  0
  5 27  2  0
 27  6  2  0
 17  7  1  0
 19  8  1  0
  9 18  1  0
 10 11  2  0
 10 18  1  0
 11 20  1  0
 23 12  2  0
 12 17  1  0
 20 13  2  0
 21 13  1  0
 20 14  1  0
 14 26  1  0
 15 26  1  0
 15 22  1  0
 26 16  1  0
 16 24  1  0
 17 19  2  0
 18 21  2  0
 24 19  1  0
 23 22  1  0
 22 24  2  0
 27 23  1  0
 25 27  1  0
  2 28  1  0
  2 29  1  0
  2 30  1  0
  3 31  1  0
  3 32  1  0
  3 33  1  0
  7 34  1  0
  8 35  1  0
 10 36  1  0
 11 37  1  0
 12 38  1  0
 13 39  1  0
 14 40  1  0
 14 41  1  0
 15 42  1  0
 15 43  1  0
A    1
CL
A    2
CAA
A    3
CAB
A    4
OAC
A    5
OAD
A    6
OAE
A    7
OAF
A    8
OAG
A    9
FAH
A   10
CAJ
A   11
CAK
A   12
CAL
A   13
CAM
A   14
CAN
A   15
CAO
A   16
CAP
A   17
CAQ
A   18
CAR
A   19
CAS
A   20
CAT
A   21
CAU
A   22
CAV
A   23
CAW
A   24
CAX
A   25
NAY
A   26
NAZ
A   27
SBA
M  END
