1JYL_CDC_A_1991
     RDKit          3D

 57 58  0  0  0  0  0  0  0  0999 V2000
  -12.6830   33.9790    0.6050 N   0  0  0  0  0  0  0  0  0  0  0  0
  -12.7400   34.0180   -0.7920 C   0  0  0  0  0  0  0  0  0  0  0  0
  -13.5320   34.8670   -1.4550 N   0  0  0  0  0  0  0  0  0  0  0  0
  -14.3420   35.7460   -0.7740 C   0  0  0  0  0  0  0  0  0  0  0  0
  -14.3450   35.7800    0.6410 C   0  0  0  0  0  0  0  0  0  0  0  0
  -13.4930   34.8680    1.2840 C   0  0  0  0  0  0  0  0  0  0  0  0
  -12.0540   33.2570   -1.5310 O   0  0  0  0  0  0  0  0  0  0  0  0
  -15.1260   36.5610   -1.5170 N   0  0  0  0  0  0  0  0  0  0  0  0
  -11.8090   32.9920    1.2980 C   0  0  0  0  0  0  0  0  0  0  0  0
  -10.6660   33.5650    2.0730 C   0  0  0  0  0  0  0  0  0  0  0  0
   -9.6460   33.9530    1.1860 O   0  0  0  0  0  0  0  0  0  0  0  0
  -10.3240   32.4280    3.0150 C   0  0  0  0  0  0  0  0  0  0  0  0
  -11.6150   31.5990    3.1160 C   0  0  0  0  0  0  0  0  0  0  0  0
  -12.5300   32.2930    2.2680 O   0  0  0  0  0  0  0  0  0  0  0  0
   -9.3260   31.5140    2.5380 O   0  0  0  0  0  0  0  0  0  0  0  0
  -11.9200   31.6870    4.5840 C   0  0  0  0  0  0  0  0  0  0  0  0
  -13.0230   32.5320    4.8640 O   0  0  0  0  0  0  0  0  0  0  0  0
  -12.7770   33.9080    5.7690 P   0  0  0  0  0  0  0  0  0  0  0  0
  -12.7570   35.1310    4.8400 O   0  0  0  0  0  0  0  0  0  0  0  0
  -11.4020   33.6370    6.4430 O   0  0  0  0  0  0  0  0  0  0  0  0
  -13.9530   34.1310    6.8590 O   0  0  0  0  0  0  0  0  0  0  0  0
  -14.2710   32.9730    7.9690 P   0  0  0  0  0  0  0  0  0  0  0  0
  -15.0000   31.6440    7.2950 O   0  0  0  0  0  0  0  0  0  0  0  0
  -13.0140   32.6460    8.8130 O   0  0  0  0  0  0  0  0  0  0  0  0
  -15.3920   33.6130    8.8230 O   0  0  0  0  0  0  0  0  0  0  0  0
  -15.4320   30.7670    8.2910 C   0  0  0  0  0  0  0  0  0  0  0  0
  -16.1830   29.5550    7.6620 C   0  0  0  0  0  0  0  0  0  0  0  0
  -17.6010   29.3810    8.1750 N   0  0  0  0  0  0  0  0  0  0  0  0
  -18.5160   29.0050    7.0910 C   0  0  0  0  0  0  0  0  0  0  0  0
  -17.5590   28.3420    9.2130 C   0  0  0  0  0  0  0  0  0  0  0  0
  -18.1480   30.6220    8.7740 C   0  0  0  0  0  0  0  0  0  0  0  0
  -14.9785   36.4808    1.2046 H   0  0  0  0  0  0  0  0  0  0  0  0
  -13.4694   34.8612    2.3837 H   0  0  0  0  0  0  0  0  0  0  0  0
  -15.7640   37.2242   -1.0543 H   0  0  0  0  0  0  0  0  0  0  0  0
  -15.0848   36.5182   -2.5453 H   0  0  0  0  0  0  0  0  0  0  0  0
  -11.4309   32.3834    0.4633 H   0  0  0  0  0  0  0  0  0  0  0  0
  -10.8663   34.4862    2.6397 H   0  0  0  0  0  0  0  0  0  0  0  0
   -8.8564   34.2534    1.7022 H   0  0  0  0  0  0  0  0  0  0  0  0
   -9.9374   32.8733    3.9436 H   0  0  0  0  0  0  0  0  0  0  0  0
  -11.6107   30.5434    2.8066 H   0  0  0  0  0  0  0  0  0  0  0  0
   -8.8677   31.0942    3.3086 H   0  0  0  0  0  0  0  0  0  0  0  0
  -12.1464   30.6774    4.9575 H   0  0  0  0  0  0  0  0  0  0  0  0
  -11.0379   32.1165    5.0814 H   0  0  0  0  0  0  0  0  0  0  0  0
  -11.5071   33.6577    7.4272 H   0  0  0  0  0  0  0  0  0  0  0  0
  -14.5607   30.4007    8.8537 H   0  0  0  0  0  0  0  0  0  0  0  0
  -16.1193   31.3020    8.9628 H   0  0  0  0  0  0  0  0  0  0  0  0
  -16.2235   29.6995    6.5723 H   0  0  0  0  0  0  0  0  0  0  0  0
  -15.6258   28.6500    7.9458 H   0  0  0  0  0  0  0  0  0  0  0  0
  -19.4532   28.6199    7.5193 H   0  0  0  0  0  0  0  0  0  0  0  0
  -18.7317   29.8874    6.4706 H   0  0  0  0  0  0  0  0  0  0  0  0
  -18.0490   28.2259    6.4706 H   0  0  0  0  0  0  0  0  0  0  0  0
  -17.5781   28.8148   10.2060 H   0  0  0  0  0  0  0  0  0  0  0  0
  -18.4311   27.6804    9.1050 H   0  0  0  0  0  0  0  0  0  0  0  0
  -16.6363   27.7529    9.1050 H   0  0  0  0  0  0  0  0  0  0  0  0
  -18.1143   30.5455    9.8708 H   0  0  0  0  0  0  0  0  0  0  0  0
  -17.5459   31.4829    8.4478 H   0  0  0  0  0  0  0  0  0  0  0  0
  -19.1896   30.7584    8.4478 H   0  0  0  0  0  0  0  0  0  0  0  0
  1  2  1  0
  1  6  1  0
  1  9  1  0
  2  3  1  0
  2  7  2  0
  3  4  2  0
  4  5  1  0
  4  8  1  0
  5  6  2  0
  9 10  1  0
  9 14  1  0
 10 11  1  0
 10 12  1  0
 12 13  1  0
 12 15  1  0
 13 14  1  0
 13 16  1  0
 16 17  1  0
 17 18  1  0
 18 19  2  0
 18 20  1  0
 18 21  1  0
 21 22  1  0
 22 23  1  0
 22 24  1  0
 22 25  2  0
 23 26  1  0
 26 27  1  0
 27 28  1  0
 28 29  1  0
 28 30  1  0
 28 31  1  0
  5 32  1  0
  6 33  1  0
  8 34  1  0
  8 35  1  0
  9 36  1  0
 10 37  1  0
 11 38  1  0
 12 39  1  0
 13 40  1  0
 15 41  1  0
 16 42  1  0
 16 43  1  0
 20 44  1  0
 26 45  1  0
 26 46  1  0
 27 47  1  0
 27 48  1  0
 29 49  1  0
 29 50  1  0
 29 51  1  0
 30 52  1  0
 30 53  1  0
 30 54  1  0
 31 55  1  0
 31 56  1  0
 31 57  1  0
M  CHG  2  24  -1  28   1
A    1
N1
A    2
C2
A    3
N3
A    4
C4
A    5
C5
A    6
C6
A    7
O2
A    8
N4
A    9
C1'
A   10
C2'
A   11
O2'
A   12
C3'
A   13
C4'
A   14
O4'
A   15
O3'
A   16
C5'
A   17
O5'
A   18
PA
A   19
O1A
A   20
O2A
A   21
O3A
A   22
PB
A   23
O1B
A   24
O2B
A   25
O3B
A   26
C14
A   27
C15
A   28
N11
A   29
C16
A   30
C17
A   31
C18
M  END
