4BFP_SWY_A_2162
     RDKit          3D

 61 66  0  0  0  0  0  0  0  0999 V2000
  -37.4660   -3.5100    5.6330 O   0  0  0  0  0  0  0  0  0  0  0  0
  -37.4310   -2.3170    5.8820 C   0  0  0  0  0  0  0  0  0  0  0  0
  -36.5810   -1.4780    5.1090 C   0  0  0  0  0  0  0  0  0  0  0  0
  -36.5240   -0.1190    5.3690 C   0  0  0  0  0  0  0  0  0  0  0  0
  -35.8010   -2.0140    4.0860 C   0  0  0  0  0  0  0  0  0  0  0  0
  -34.9680   -1.1900    3.3320 C   0  0  0  0  0  0  0  0  0  0  0  0
  -34.9140    0.1720    3.5970 C   0  0  0  0  0  0  0  0  0  0  0  0
  -35.6870    0.7070    4.6090 C   0  0  0  0  0  0  0  0  0  0  0  0
  -35.6300    2.0720    4.8700 C   0  0  0  0  0  0  0  0  0  0  0  0
  -36.3990    2.6130    5.8800 C   0  0  0  0  0  0  0  0  0  0  0  0
  -37.2290    1.7950    6.6330 C   0  0  0  0  0  0  0  0  0  0  0  0
  -37.2890    0.4170    6.3700 C   0  0  0  0  0  0  0  0  0  0  0  0
  -38.1320   -0.4090    7.1330 C   0  0  0  0  0  0  0  0  0  0  0  0
  -38.8090    0.0850    8.0310 O   0  0  0  0  0  0  0  0  0  0  0  0
  -38.1970   -1.7840    6.8840 N   0  0  0  0  0  0  0  0  0  0  0  0
  -39.0960   -2.6200    7.7040 C   0  0  0  0  0  0  0  0  0  0  0  0
  -38.4990   -3.0130    9.0800 C   0  0  0  0  0  0  0  0  0  0  0  0
  -37.1990   -3.7910    8.8850 C   0  0  0  0  0  0  0  0  0  0  0  0
  -37.4010   -5.3350    7.9010 S   0  0  0  0  0  0  0  0  0  0  0  0
  -38.2190   -6.4270    9.0620 C   0  0  0  0  0  0  0  0  0  0  0  0
  -39.1350   -6.0690   10.1080 N   0  0  0  0  0  0  0  0  0  0  0  0
  -39.4830   -7.2690   10.7140 N   0  0  0  0  0  0  0  0  0  0  0  0
  -38.8540   -8.1670   10.1010 C   0  0  0  0  0  0  0  0  0  0  0  0
  -39.0130   -9.5010   10.4920 C   0  0  0  0  0  0  0  0  0  0  0  0
  -38.2650  -10.0190   11.5240 C   0  0  0  0  0  0  0  0  0  0  0  0
  -38.4420  -11.3490   11.9070 C   0  0  0  0  0  0  0  0  0  0  0  0
  -39.3490  -12.1230   11.2690 N   0  0  0  0  0  0  0  0  0  0  0  0
  -40.0960  -11.6070   10.2450 C   0  0  0  0  0  0  0  0  0  0  0  0
  -39.9250  -10.2820    9.8570 C   0  0  0  0  0  0  0  0  0  0  0  0
  -38.0880   -7.7920    9.1160 N   0  0  0  0  0  0  0  0  0  0  0  0
  -37.2820   -8.5420    8.2740 C   0  0  0  0  0  0  0  0  0  0  0  0
  -36.0670   -9.0580    8.7400 C   0  0  0  0  0  0  0  0  0  0  0  0
  -35.2510   -9.8020    7.8870 C   0  0  0  0  0  0  0  0  0  0  0  0
  -35.6410  -10.0280    6.5620 C   0  0  0  0  0  0  0  0  0  0  0  0
  -34.8210  -10.7770    5.7130 O   0  0  0  0  0  0  0  0  0  0  0  0
  -34.2880   -9.9750    4.7020 C   0  0  0  0  0  0  0  0  0  0  0  0
  -36.8440   -9.5120    6.0970 C   0  0  0  0  0  0  0  0  0  0  0  0
  -37.6660   -8.7630    6.9470 C   0  0  0  0  0  0  0  0  0  0  0  0
  -35.8432   -3.0923    3.8729 H   0  0  0  0  0  0  0  0  0  0  0  0
  -34.3531   -1.6184    2.5268 H   0  0  0  0  0  0  0  0  0  0  0  0
  -34.2570    0.8236    3.0022 H   0  0  0  0  0  0  0  0  0  0  0  0
  -34.9724    2.7198    4.2717 H   0  0  0  0  0  0  0  0  0  0  0  0
  -36.3540    3.6922    6.0880 H   0  0  0  0  0  0  0  0  0  0  0  0
  -37.8416    2.2271    7.4380 H   0  0  0  0  0  0  0  0  0  0  0  0
  -40.0280   -2.0618    7.8765 H   0  0  0  0  0  0  0  0  0  0  0  0
  -39.2630   -3.5540    7.1474 H   0  0  0  0  0  0  0  0  0  0  0  0
  -38.2941   -2.1019    9.6613 H   0  0  0  0  0  0  0  0  0  0  0  0
  -39.2202   -3.6458    9.6180 H   0  0  0  0  0  0  0  0  0  0  0  0
  -36.4793   -3.1404    8.3666 H   0  0  0  0  0  0  0  0  0  0  0  0
  -36.8501   -4.0899    9.8845 H   0  0  0  0  0  0  0  0  0  0  0  0
  -37.5305   -9.3873   12.0450 H   0  0  0  0  0  0  0  0  0  0  0  0
  -37.8431  -11.7684   12.7288 H   0  0  0  0  0  0  0  0  0  0  0  0
  -40.8322  -12.2404    9.7283 H   0  0  0  0  0  0  0  0  0  0  0  0
  -40.5282   -9.8669    9.0361 H   0  0  0  0  0  0  0  0  0  0  0  0
  -35.7554   -8.8768    9.7793 H   0  0  0  0  0  0  0  0  0  0  0  0
  -34.2994  -10.2117    8.2566 H   0  0  0  0  0  0  0  0  0  0  0  0
  -33.7324   -9.1390    5.1518 H   0  0  0  0  0  0  0  0  0  0  0  0
  -33.6078  -10.5742    4.0789 H   0  0  0  0  0  0  0  0  0  0  0  0
  -35.1039   -9.5800    4.0789 H   0  0  0  0  0  0  0  0  0  0  0  0
  -37.1519   -9.6928    5.0565 H   0  0  0  0  0  0  0  0  0  0  0  0
  -38.6133   -8.3484    6.5719 H   0  0  0  0  0  0  0  0  0  0  0  0
  1  2  2  0
  2  3  1  0
  2 15  1  0
  3  4  1  0
  3  5  2  0
  4  8  1  0
  4 12  2  0
  5  6  1  0
  6  7  2  0
  7  8  1  0
  8  9  2  0
  9 10  1  0
 10 11  2  0
 11 12  1  0
 12 13  1  0
 13 14  2  0
 13 15  1  0
 15 16  1  0
 16 17  1  0
 17 18  1  0
 19 20  1  0
 19 18  1  0
 20 21  2  0
 20 30  1  0
 21 22  1  0
 22 23  2  0
 23 24  1  0
 23 30  1  0
 24 25  2  0
 24 29  1  0
 25 26  1  0
 26 27  2  0
 27 28  1  0
 28 29  2  0
 30 31  1  0
 31 32  2  0
 31 38  1  0
 32 33  1  0
 33 34  2  0
 34 35  1  0
 34 37  1  0
 35 36  1  0
 37 38  2  0
  5 39  1  0
  6 40  1  0
  7 41  1  0
  9 42  1  0
 10 43  1  0
 11 44  1  0
 16 45  1  0
 16 46  1  0
 17 47  1  0
 17 48  1  0
 18 49  1  0
 18 50  1  0
 25 51  1  0
 26 52  1  0
 28 53  1  0
 29 54  1  0
 32 55  1  0
 33 56  1  0
 36 57  1  0
 36 58  1  0
 36 59  1  0
 37 60  1  0
 38 61  1  0
A    1
OAQ
A    2
CAP
A    3
CAR
A    4
CBC
A    5
CAS
A    6
CAT
A    7
CAU
A    8
CAV
A    9
CAW
A   10
CAX
A   11
CAY
A   12
CAZ
A   13
CBA
A   14
OBB
A   15
NAO
A   16
CAN
A   17
CAM
A   18
CAL
A   19
SAK
A   20
CAJ
A   21
NBD
A   22
NBE
A   23
CBF
A   24
CBG
A   25
CBH
A   26
CBI
A   27
NBJ
A   28
CBK
A   29
CBL
A   30
NAI
A   31
CAF
A   32
CAE
A   33
CAD
A   34
CAC
A   35
OAB
A   36
CAA
A   37
CAH
A   38
CAG
M  END
