4BFT_ZVT_A_501
     RDKit          3D

 49 51  0  0  0  0  0  0  0  0999 V2000
  -19.6060  -12.3090   11.5690 Cl  0  0  0  0  0  0  0  0  0  0  0  0
  -21.3090  -12.2200   10.9680 C   0  0  0  0  0  0  0  0  0  0  0  0
  -22.0730  -13.3880   10.8900 C   0  0  0  0  0  0  0  0  0  0  0  0
  -23.3870  -13.3460   10.4290 C   0  0  0  0  0  0  0  0  0  0  0  0
  -23.9480  -12.1400   10.0390 C   0  0  0  0  0  0  0  0  0  0  0  0
  -23.1990  -10.9790   10.1180 C   0  0  0  0  0  0  0  0  0  0  0  0
  -21.8890  -11.0140   10.5870 C   0  0  0  0  0  0  0  0  0  0  0  0
  -21.1290   -9.7240   10.6260 C   0  0  0  0  0  0  0  0  0  0  0  0
  -20.3630   -9.5290    9.7010 O   0  0  0  0  0  0  0  0  0  0  0  0
  -21.3110   -8.8330   11.6030 N   0  0  0  0  0  0  0  0  0  0  0  0
  -20.5430   -7.6060   11.5140 C   0  0  0  0  0  0  0  0  0  0  0  0
  -21.2680   -6.4370   12.1650 C   0  0  0  0  0  0  0  0  0  0  0  0
  -19.1990   -7.7490   12.1130 C   0  0  0  0  0  0  0  0  0  0  0  0
  -18.0510   -7.2870   11.5810 N   0  0  0  0  0  0  0  0  0  0  0  0
  -17.8560   -6.5590   10.2910 C   0  0  0  0  0  0  0  0  0  0  0  0
  -18.9450   -8.3560   13.3040 N   0  0  0  0  0  0  0  0  0  0  0  0
  -17.5680   -8.2910   13.5300 N   0  0  0  0  0  0  0  0  0  0  0  0
  -17.1160   -7.6340   12.4590 C   0  0  0  0  0  0  0  0  0  0  0  0
  -15.4150   -7.2770   12.2550 S   0  0  0  0  0  0  0  0  0  0  0  0
  -14.9790   -8.2320   10.8290 C   0  0  0  0  0  0  0  0  0  0  0  0
  -15.4980   -9.6630   10.9690 C   0  0  0  0  0  0  0  0  0  0  0  0
  -14.6610  -10.3300   11.9090 O   0  0  0  0  0  0  0  0  0  0  0  0
  -15.1320  -11.2520   12.8260 C   0  0  0  0  0  0  0  0  0  0  0  0
  -16.1900  -12.1220   12.5000 C   0  0  0  0  0  0  0  0  0  0  0  0
  -14.5360  -11.3110   14.0950 C   0  0  0  0  0  0  0  0  0  0  0  0
  -14.9960  -12.2450   15.0230 C   0  0  0  0  0  0  0  0  0  0  0  0
  -16.0650  -13.1060   14.6890 C   0  0  0  0  0  0  0  0  0  0  0  0
  -16.5040  -13.9970   15.5950 F   0  0  0  0  0  0  0  0  0  0  0  0
  -16.6680  -13.0550   13.4270 C   0  0  0  0  0  0  0  0  0  0  0  0
  -21.6328  -14.3487   11.1953 H   0  0  0  0  0  0  0  0  0  0  0  0
  -23.9799  -14.2709   10.3745 H   0  0  0  0  0  0  0  0  0  0  0  0
  -24.9832  -12.1059    9.6686 H   0  0  0  0  0  0  0  0  0  0  0  0
  -23.6423  -10.0213    9.8078 H   0  0  0  0  0  0  0  0  0  0  0  0
  -21.9636   -9.0079   12.3805 H   0  0  0  0  0  0  0  0  0  0  0  0
  -20.4267   -7.3964   10.4404 H   0  0  0  0  0  0  0  0  0  0  0  0
  -21.2089   -6.5324   13.2593 H   0  0  0  0  0  0  0  0  0  0  0  0
  -20.7963   -5.4935   11.8531 H   0  0  0  0  0  0  0  0  0  0  0  0
  -22.3229   -6.4402   11.8531 H   0  0  0  0  0  0  0  0  0  0  0  0
  -17.5765   -5.5154   10.4976 H   0  0  0  0  0  0  0  0  0  0  0  0
  -17.0564   -7.0452    9.7128 H   0  0  0  0  0  0  0  0  0  0  0  0
  -18.7915   -6.5804    9.7128 H   0  0  0  0  0  0  0  0  0  0  0  0
  -15.4228   -7.7711    9.9342 H   0  0  0  0  0  0  0  0  0  0  0  0
  -13.8832   -8.2566   10.7366 H   0  0  0  0  0  0  0  0  0  0  0  0
  -16.5365   -9.6525   11.3315 H   0  0  0  0  0  0  0  0  0  0  0  0
  -15.4796  -10.1794    9.9979 H   0  0  0  0  0  0  0  0  0  0  0  0
  -16.6478  -12.0674   11.5013 H   0  0  0  0  0  0  0  0  0  0  0  0
  -13.7143  -10.6275   14.3552 H   0  0  0  0  0  0  0  0  0  0  0  0
  -14.5262  -12.3113   16.0154 H   0  0  0  0  0  0  0  0  0  0  0  0
  -17.4967  -13.7312   13.1703 H   0  0  0  0  0  0  0  0  0  0  0  0
  1  2  1  0
  2  3  2  0
  2  7  1  0
  3  4  1  0
  4  5  2  0
  5  6  1  0
  6  7  2  0
  7  8  1  0
  8  9  2  0
  8 10  1  0
 10 11  1  0
 11 12  1  0
 11 13  1  0
 13 14  1  0
 13 16  2  0
 14 15  1  0
 14 18  1  0
 16 17  1  0
 17 18  2  0
 18 19  1  0
 19 20  1  0
 20 21  1  0
 21 22  1  0
 22 23  1  0
 23 24  2  0
 23 25  1  0
 24 29  1  0
 25 26  2  0
 26 27  1  0
 27 28  1  0
 27 29  2  0
  3 30  1  0
  4 31  1  0
  5 32  1  0
  6 33  1  0
 10 34  1  0
 11 35  1  0
 12 36  1  0
 12 37  1  0
 12 38  1  0
 15 39  1  0
 15 40  1  0
 15 41  1  0
 20 42  1  0
 20 43  1  0
 21 44  1  0
 21 45  1  0
 24 46  1  0
 25 47  1  0
 26 48  1  0
 29 49  1  0
A    1
CL
A    2
CAX
A    3
CAH
A    4
CAF
A    5
CAG
A    6
CAI
A    7
CAY
A    8
CAU
A    9
OAC
A   10
NAR
A   11
CBB
A   12
CAA
A   13
CBA
A   14
NBC
A   15
CAB
A   16
NAQ
A   17
NAP
A   18
CAZ
A   19
SAT
A   20
CAO
A   21
CAN
A   22
OAS
A   23
CAW
A   24
CAL
A   25
CAM
A   26
CAK
A   27
CAV
A   28
FAD
A   29
CAJ
M  END
