4BFU_ZVU_A_501
     RDKit          3D

 48 50  0  0  0  0  0  0  0  0999 V2000
  -19.4420  -11.4670   11.6510 F   0  0  0  0  0  0  0  0  0  0  0  0
  -19.8900  -12.5460   11.0320 C   0  0  0  0  0  0  0  0  0  0  0  0
  -19.6010  -13.6130   11.7860 F   0  0  0  0  0  0  0  0  0  0  0  0
  -19.2980  -12.6590    9.8510 F   0  0  0  0  0  0  0  0  0  0  0  0
  -21.3700  -12.3810   10.7360 C   0  0  0  0  0  0  0  0  0  0  0  0
  -22.2700  -13.4430   10.9280 C   0  0  0  0  0  0  0  0  0  0  0  0
  -23.6360  -13.3070   10.6410 C   0  0  0  0  0  0  0  0  0  0  0  0
  -24.1160  -12.0920   10.1620 C   0  0  0  0  0  0  0  0  0  0  0  0
  -23.2290  -11.0300    9.9620 C   0  0  0  0  0  0  0  0  0  0  0  0
  -21.8680  -11.1810   10.2390 C   0  0  0  0  0  0  0  0  0  0  0  0
  -20.9790  -10.0060   10.0140 C   0  0  0  0  0  0  0  0  0  0  0  0
  -20.2750   -9.9600    9.0110 O   0  0  0  0  0  0  0  0  0  0  0  0
  -21.0460   -9.0810   10.9700 N   0  0  0  0  0  0  0  0  0  0  0  0
  -20.2780   -7.8660   10.9630 C   0  0  0  0  0  0  0  0  0  0  0  0
  -21.1640   -6.6980   11.4100 C   0  0  0  0  0  0  0  0  0  0  0  0
  -19.1210   -7.9860   11.8740 C   0  0  0  0  0  0  0  0  0  0  0  0
  -17.8430   -7.9280   11.4670 N   0  0  0  0  0  0  0  0  0  0  0  0
  -17.3500   -7.7200   10.0740 C   0  0  0  0  0  0  0  0  0  0  0  0
  -19.1710   -8.1690   13.2270 N   0  0  0  0  0  0  0  0  0  0  0  0
  -17.8450   -8.2180   13.7040 N   0  0  0  0  0  0  0  0  0  0  0  0
  -17.1110   -8.0630   12.5730 C   0  0  0  0  0  0  0  0  0  0  0  0
  -15.3420   -7.9980   12.5390 S   0  0  0  0  0  0  0  0  0  0  0  0
  -14.7630   -9.5830   11.9770 C   0  0  0  0  0  0  0  0  0  0  0  0
  -15.2190  -10.6520   12.9480 C   0  0  0  0  0  0  0  0  0  0  0  0
  -16.2660  -11.5040   12.6010 C   0  0  0  0  0  0  0  0  0  0  0  0
  -14.6060  -10.7730   14.1990 C   0  0  0  0  0  0  0  0  0  0  0  0
  -15.0310  -11.7450   15.0950 C   0  0  0  0  0  0  0  0  0  0  0  0
  -16.0770  -12.5870   14.7280 C   0  0  0  0  0  0  0  0  0  0  0  0
  -16.4910  -13.5210   15.5780 F   0  0  0  0  0  0  0  0  0  0  0  0
  -16.7010  -12.4770   13.4960 C   0  0  0  0  0  0  0  0  0  0  0  0
  -21.8945  -14.4029   11.3122 H   0  0  0  0  0  0  0  0  0  0  0  0
  -24.3219  -14.1534   10.7932 H   0  0  0  0  0  0  0  0  0  0  0  0
  -25.1866  -11.9678    9.9421 H   0  0  0  0  0  0  0  0  0  0  0  0
  -23.6056  -10.0682    9.5837 H   0  0  0  0  0  0  0  0  0  0  0  0
  -21.6855   -9.2460   11.7604 H   0  0  0  0  0  0  0  0  0  0  0  0
  -19.9101   -7.6823    9.9428 H   0  0  0  0  0  0  0  0  0  0  0  0
  -21.1932   -6.6596   12.5089 H   0  0  0  0  0  0  0  0  0  0  0  0
  -20.7518   -5.7553   11.0209 H   0  0  0  0  0  0  0  0  0  0  0  0
  -22.1829   -6.8409   11.0209 H   0  0  0  0  0  0  0  0  0  0  0  0
  -16.3369   -7.2926   10.1036 H   0  0  0  0  0  0  0  0  0  0  0  0
  -17.3257   -8.6846    9.5458 H   0  0  0  0  0  0  0  0  0  0  0  0
  -18.0240   -7.0295    9.5458 H   0  0  0  0  0  0  0  0  0  0  0  0
  -15.1750   -9.7925   10.9788 H   0  0  0  0  0  0  0  0  0  0  0  0
  -13.6644   -9.5773   11.9224 H   0  0  0  0  0  0  0  0  0  0  0  0
  -16.7495  -11.4072   11.6177 H   0  0  0  0  0  0  0  0  0  0  0  0
  -13.7841  -10.0957   14.4743 H   0  0  0  0  0  0  0  0  0  0  0  0
  -14.5491  -11.8479   16.0785 H   0  0  0  0  0  0  0  0  0  0  0  0
  -17.5292  -13.1497   13.2287 H   0  0  0  0  0  0  0  0  0  0  0  0
  1  2  1  0
  2  3  1  0
  2  4  1  0
  2  5  1  0
  5  6  2  0
  5 10  1  0
  6  7  1  0
  7  8  2  0
  8  9  1  0
  9 10  2  0
 10 11  1  0
 11 12  2  0
 11 13  1  0
 13 14  1  0
 14 15  1  0
 14 16  1  0
 16 17  1  0
 16 19  2  0
 17 18  1  0
 17 21  1  0
 19 20  1  0
 20 21  2  0
 21 22  1  0
 22 23  1  0
 23 24  1  0
 24 25  2  0
 24 26  1  0
 25 30  1  0
 26 27  2  0
 27 28  1  0
 28 29  1  0
 28 30  2  0
  6 31  1  0
  7 32  1  0
  8 33  1  0
  9 34  1  0
 13 35  1  0
 14 36  1  0
 15 37  1  0
 15 38  1  0
 15 39  1  0
 18 40  1  0
 18 41  1  0
 18 42  1  0
 23 43  1  0
 23 44  1  0
 25 45  1  0
 26 46  1  0
 27 47  1  0
 30 48  1  0
A    1
FAE
A    2
CBD
A    3
FAF
A    4
FAG
A    5
CAY
A    6
CAK
A    7
CAI
A    8
CAH
A    9
CAJ
A   10
CAX
A   11
CAU
A   12
OAC
A   13
NAS
A   14
CBB
A   15
CAA
A   16
CBA
A   17
NBC
A   18
CAB
A   19
NAR
A   20
NAQ
A   21
CAZ
A   22
SAT
A   23
CAP
A   24
CAW
A   25
CAN
A   26
CAO
A   27
CAM
A   28
CAV
A   29
FAD
A   30
CAL
M  END
