4BFV_ZVV_A_501
     RDKit          3D

 55 57  0  0  0  0  0  0  0  0999 V2000
  -20.1360  -13.7060   12.1570 F   0  0  0  0  0  0  0  0  0  0  0  0
  -20.0880  -12.6110   11.4110 C   0  0  0  0  0  0  0  0  0  0  0  0
  -19.2380  -12.8190   10.4090 F   0  0  0  0  0  0  0  0  0  0  0  0
  -19.6400  -11.6170   12.1650 F   0  0  0  0  0  0  0  0  0  0  0  0
  -21.4670  -12.2770   10.8640 C   0  0  0  0  0  0  0  0  0  0  0  0
  -22.4260  -13.2900   10.7910 C   0  0  0  0  0  0  0  0  0  0  0  0
  -23.6910  -13.0150   10.2930 C   0  0  0  0  0  0  0  0  0  0  0  0
  -24.0180  -11.7270    9.8710 C   0  0  0  0  0  0  0  0  0  0  0  0
  -23.0780  -10.7060    9.9360 C   0  0  0  0  0  0  0  0  0  0  0  0
  -21.8040  -10.9870   10.4300 C   0  0  0  0  0  0  0  0  0  0  0  0
  -20.8380   -9.8500   10.4860 C   0  0  0  0  0  0  0  0  0  0  0  0
  -19.8550   -9.8940    9.7820 O   0  0  0  0  0  0  0  0  0  0  0  0
  -21.0930   -8.8430   11.3210 N   0  0  0  0  0  0  0  0  0  0  0  0
  -20.2250   -7.6970   11.4080 C   0  0  0  0  0  0  0  0  0  0  0  0
  -20.9800   -6.5090   12.0050 C   0  0  0  0  0  0  0  0  0  0  0  0
  -18.9760   -8.0450   12.1230 C   0  0  0  0  0  0  0  0  0  0  0  0
  -17.7550   -7.9890   11.5640 N   0  0  0  0  0  0  0  0  0  0  0  0
  -17.4110   -7.5730   10.1850 C   0  0  0  0  0  0  0  0  0  0  0  0
  -18.8580   -8.4560   13.4060 N   0  0  0  0  0  0  0  0  0  0  0  0
  -17.4880   -8.6790   13.6760 N   0  0  0  0  0  0  0  0  0  0  0  0
  -16.9030   -8.3690   12.5040 C   0  0  0  0  0  0  0  0  0  0  0  0
  -15.1680   -8.4400   12.2230 S   0  0  0  0  0  0  0  0  0  0  0  0
  -14.8450   -9.8650   11.2470 C   0  0  0  0  0  0  0  0  0  0  0  0
  -15.7120  -11.0270   11.6820 C   0  0  0  0  0  0  0  0  0  0  0  0
  -15.2900  -11.3960   12.9860 O   0  0  0  0  0  0  0  0  0  0  0  0
  -15.8680  -12.4340   13.6670 C   0  0  0  0  0  0  0  0  0  0  0  0
  -15.4550  -12.6840   14.9700 C   0  0  0  0  0  0  0  0  0  0  0  0
  -14.4030  -11.8100   15.5940 C   0  0  0  0  0  0  0  0  0  0  0  0
  -16.8490  -13.2270   13.0750 C   0  0  0  0  0  0  0  0  0  0  0  0
  -17.4170  -14.2820   13.7860 C   0  0  0  0  0  0  0  0  0  0  0  0
  -16.9940  -14.5250   15.1000 C   0  0  0  0  0  0  0  0  0  0  0  0
  -16.0140  -13.7310   15.7030 C   0  0  0  0  0  0  0  0  0  0  0  0
  -22.1777  -14.3070   11.1288 H   0  0  0  0  0  0  0  0  0  0  0  0
  -24.4405  -13.8177   10.2306 H   0  0  0  0  0  0  0  0  0  0  0  0
  -25.0263  -11.5179    9.4843 H   0  0  0  0  0  0  0  0  0  0  0  0
  -23.3349   -9.6898    9.6024 H   0  0  0  0  0  0  0  0  0  0  0  0
  -21.9310   -8.8854   11.9184 H   0  0  0  0  0  0  0  0  0  0  0  0
  -19.9118   -7.3828   10.4014 H   0  0  0  0  0  0  0  0  0  0  0  0
  -20.9439   -6.5659   13.1029 H   0  0  0  0  0  0  0  0  0  0  0  0
  -20.5116   -5.5715   11.6708 H   0  0  0  0  0  0  0  0  0  0  0  0
  -22.0277   -6.5350   11.6708 H   0  0  0  0  0  0  0  0  0  0  0  0
  -16.7104   -6.7258   10.2216 H   0  0  0  0  0  0  0  0  0  0  0  0
  -16.9414   -8.4145    9.6545 H   0  0  0  0  0  0  0  0  0  0  0  0
  -18.3257   -7.2698    9.6545 H   0  0  0  0  0  0  0  0  0  0  0  0
  -15.0553   -9.6341   10.1923 H   0  0  0  0  0  0  0  0  0  0  0  0
  -13.7896  -10.1470   11.3762 H   0  0  0  0  0  0  0  0  0  0  0  0
  -16.7692  -10.7236   11.6991 H   0  0  0  0  0  0  0  0  0  0  0  0
  -15.6139  -11.8719   10.9845 H   0  0  0  0  0  0  0  0  0  0  0  0
  -14.4775  -11.8719   16.6897 H   0  0  0  0  0  0  0  0  0  0  0  0
  -13.4069  -12.1501   15.2744 H   0  0  0  0  0  0  0  0  0  0  0  0
  -14.5548  -10.7684   15.2744 H   0  0  0  0  0  0  0  0  0  0  0  0
  -17.1753  -13.0198   12.0452 H   0  0  0  0  0  0  0  0  0  0  0  0
  -18.1872  -14.9158   13.3223 H   0  0  0  0  0  0  0  0  0  0  0  0
  -17.4410  -15.3551   15.6667 H   0  0  0  0  0  0  0  0  0  0  0  0
  -15.6899  -13.9281   16.7355 H   0  0  0  0  0  0  0  0  0  0  0  0
  1  2  1  0
  2  3  1  0
  2  4  1  0
  2  5  1  0
  5  6  2  0
  5 10  1  0
  6  7  1  0
  7  8  2  0
  8  9  1  0
  9 10  2  0
 10 11  1  0
 11 12  2  0
 11 13  1  0
 13 14  1  0
 14 15  1  0
 14 16  1  0
 16 17  1  0
 16 19  2  0
 17 18  1  0
 17 21  1  0
 19 20  1  0
 20 21  2  0
 21 22  1  0
 22 23  1  0
 23 24  1  0
 24 25  1  0
 25 26  1  0
 26 27  2  0
 26 29  1  0
 27 28  1  0
 27 32  1  0
 29 30  2  0
 30 31  1  0
 31 32  2  0
  6 33  1  0
  7 34  1  0
  8 35  1  0
  9 36  1  0
 13 37  1  0
 14 38  1  0
 15 39  1  0
 15 40  1  0
 15 41  1  0
 18 42  1  0
 18 43  1  0
 18 44  1  0
 23 45  1  0
 23 46  1  0
 24 47  1  0
 24 48  1  0
 28 49  1  0
 28 50  1  0
 28 51  1  0
 29 52  1  0
 30 53  1  0
 31 54  1  0
 32 55  1  0
A    1
FAE
A    2
CBF
A    3
FAF
A    4
FAG
A    5
CBA
A    6
CAO
A    7
CAK
A    8
CAJ
A    9
CAN
A   10
CAZ
A   11
CAW
A   12
OAD
A   13
NAT
A   14
CBD
A   15
CAB
A   16
CBC
A   17
NBE
A   18
CAC
A   19
NAS
A   20
NAR
A   21
CBB
A   22
SAV
A   23
CAQ
A   24
CAP
A   25
OAU
A   26
CAY
A   27
CAX
A   28
CAA
A   29
CAM
A   30
CAI
A   31
CAH
A   32
CAL
M  END
