4BFY_ZVY_A_501
     RDKit          3D

 56 59  0  0  0  0  0  0  0  0999 V2000
  -20.7550    0.2470    8.8370 N   0  0  0  0  0  0  0  0  0  0  0  0
  -15.2330  -10.1580   11.0090 O   0  0  0  0  0  0  0  0  0  0  0  0
  -15.4350  -10.7090   13.1430 O   0  0  0  0  0  0  0  0  0  0  0  0
  -20.1050   -0.6530    9.1700 C   0  0  0  0  0  0  0  0  0  0  0  0
  -23.1080  -12.2460    8.8240 C   0  0  0  0  0  0  0  0  0  0  0  0
  -23.7130  -11.5330    9.8650 C   0  0  0  0  0  0  0  0  0  0  0  0
  -21.8680  -11.8230    8.3440 C   0  0  0  0  0  0  0  0  0  0  0  0
  -23.0790  -10.3870   10.3740 C   0  0  0  0  0  0  0  0  0  0  0  0
  -18.0300   -1.6350    9.1680 C   0  0  0  0  0  0  0  0  0  0  0  0
  -19.8290   -2.6900   10.2140 C   0  0  0  0  0  0  0  0  0  0  0  0
  -14.5310   -5.7990   10.5330 C   0  0  0  0  0  0  0  0  0  0  0  0
  -17.1660   -2.6790    9.5100 C   0  0  0  0  0  0  0  0  0  0  0  0
  -18.9590   -3.7260   10.5690 C   0  0  0  0  0  0  0  0  0  0  0  0
  -15.4090   -4.7650   10.1830 C   0  0  0  0  0  0  0  0  0  0  0  0
  -16.3070   -6.9500   11.6750 C   0  0  0  0  0  0  0  0  0  0  0  0
  -19.2970   -7.4670   10.0510 C   0  0  0  0  0  0  0  0  0  0  0  0
  -20.7230   -7.1820   12.0310 C   0  0  0  0  0  0  0  0  0  0  0  0
  -19.7590   -8.8920    9.9200 C   0  0  0  0  0  0  0  0  0  0  0  0
  -21.3780   -8.5220   11.7830 C   0  0  0  0  0  0  0  0  0  0  0  0
  -14.2190   -8.7750   12.6820 C   0  0  0  0  0  0  0  0  0  0  0  0
  -18.6370   -6.0000   11.8100 C   0  0  0  0  0  0  0  0  0  0  0  0
  -21.2880  -10.7310    8.8650 N   0  0  0  0  0  0  0  0  0  0  0  0
  -14.0800   -7.9010   11.5840 O   0  0  0  0  0  0  0  0  0  0  0  0
  -15.0140   -9.9700   12.2320 C   0  0  0  0  0  0  0  0  0  0  0  0
  -19.3520   -1.6230    9.5110 C   0  0  0  0  0  0  0  0  0  0  0  0
  -14.9770   -6.9010   11.2740 C   0  0  0  0  0  0  0  0  0  0  0  0
  -17.6120   -3.7560   10.2310 C   0  0  0  0  0  0  0  0  0  0  0  0
  -17.1940   -5.9190   11.3340 C   0  0  0  0  0  0  0  0  0  0  0  0
  -21.8480   -9.9980    9.8590 C   0  0  0  0  0  0  0  0  0  0  0  0
  -16.7560   -4.8130   10.5800 C   0  0  0  0  0  0  0  0  0  0  0  0
  -19.3320   -7.2480   11.5060 N   0  0  0  0  0  0  0  0  0  0  0  0
  -21.1730   -8.8420   10.3310 N   0  0  0  0  0  0  0  0  0  0  0  0
  -15.9524  -10.7756   10.7242 H   0  0  0  0  0  0  0  0  0  0  0  0
  -23.6029  -13.1274    8.3902 H   0  0  0  0  0  0  0  0  0  0  0  0
  -24.6753  -11.8663   10.2807 H   0  0  0  0  0  0  0  0  0  0  0  0
  -21.3673  -12.3833    7.5406 H   0  0  0  0  0  0  0  0  0  0  0  0
  -23.5539   -9.8014   11.1750 H   0  0  0  0  0  0  0  0  0  0  0  0
  -17.6274   -0.7852    8.5972 H   0  0  0  0  0  0  0  0  0  0  0  0
  -20.8903   -2.7354   10.4997 H   0  0  0  0  0  0  0  0  0  0  0  0
  -13.4773   -5.7449   10.2218 H   0  0  0  0  0  0  0  0  0  0  0  0
  -16.1127   -2.6357    9.1959 H   0  0  0  0  0  0  0  0  0  0  0  0
  -19.3655   -4.5668   11.1502 H   0  0  0  0  0  0  0  0  0  0  0  0
  -15.0421   -3.9112    9.5944 H   0  0  0  0  0  0  0  0  0  0  0  0
  -16.6670   -7.8055   12.2653 H   0  0  0  0  0  0  0  0  0  0  0  0
  -19.9793   -6.7793    9.5298 H   0  0  0  0  0  0  0  0  0  0  0  0
  -18.3074   -7.2863    9.6061 H   0  0  0  0  0  0  0  0  0  0  0  0
  -21.2819   -6.3908   11.5099 H   0  0  0  0  0  0  0  0  0  0  0  0
  -20.7158   -6.9525   13.1068 H   0  0  0  0  0  0  0  0  0  0  0  0
  -19.6650   -9.2405    8.8809 H   0  0  0  0  0  0  0  0  0  0  0  0
  -19.1638   -9.5898   10.5273 H   0  0  0  0  0  0  0  0  0  0  0  0
  -20.9099   -9.2944   12.4109 H   0  0  0  0  0  0  0  0  0  0  0  0
  -22.4487   -8.4906   12.0332 H   0  0  0  0  0  0  0  0  0  0  0  0
  -14.7462   -8.2636   13.5009 H   0  0  0  0  0  0  0  0  0  0  0  0
  -13.2297   -9.0907   13.0447 H   0  0  0  0  0  0  0  0  0  0  0  0
  -19.1956   -5.1779   11.3387 H   0  0  0  0  0  0  0  0  0  0  0  0
  -18.5961   -5.9376   12.9075 H   0  0  0  0  0  0  0  0  0  0  0  0
  4  1  3  0
 24  2  1  0
  3 24  2  0
 25  4  1  0
  6  5  2  0
  5  7  1  0
  8  6  1  0
 22  7  2  0
  8 29  2  0
 12  9  2  0
  9 25  1  0
 13 10  1  0
 25 10  2  0
 26 11  2  0
 11 14  1  0
 12 27  1  0
 27 13  2  0
 30 14  2  0
 15 28  2  0
 15 26  1  0
 31 16  1  0
 16 18  1  0
 17 19  1  0
 17 31  1  0
 32 18  1  0
 19 32  1  0
 20 24  1  0
 20 23  1  0
 21 31  1  0
 21 28  1  0
 29 22  1  0
 23 26  1  0
 30 27  1  0
 28 30  1  0
 32 29  1  0
  2 33  1  0
  5 34  1  0
  6 35  1  0
  7 36  1  0
  8 37  1  0
  9 38  1  0
 10 39  1  0
 11 40  1  0
 12 41  1  0
 13 42  1  0
 14 43  1  0
 15 44  1  0
 16 45  1  0
 16 46  1  0
 17 47  1  0
 17 48  1  0
 18 49  1  0
 18 50  1  0
 19 51  1  0
 19 52  1  0
 20 53  1  0
 20 54  1  0
 21 55  1  0
 21 56  1  0
A    1
NAA
A    2
OAB
A    3
OAC
A    4
CAD
A    5
CAE
A    6
CAF
A    7
CAG
A    8
CAH
A    9
CAI
A   10
CAJ
A   11
CAK
A   12
CAL
A   13
CAM
A   14
CAN
A   15
CAO
A   16
CAP
A   17
CAQ
A   18
CAR
A   19
CAS
A   20
CAT
A   21
CAU
A   22
NAV
A   23
OAW
A   24
CAX
A   25
CAY
A   26
CAZ
A   27
CBA
A   28
CBB
A   29
CBC
A   30
CBD
A   31
NBE
A   32
NBF
M  END
