4BG1_IVL_A_901
     RDKit          3D

 30 30  0  0  0  0  0  0  0  0999 V2000
   21.9340   33.1590   87.3770 C   0  0  0  0  0  0  0  0  0  0  0  0
   22.8010   33.1980   86.1520 C   0  0  0  0  0  0  0  0  0  0  0  0
   23.8190   32.0870   86.2900 C   0  0  0  0  0  0  0  0  0  0  0  0
   23.9090   31.8790   87.7860 C   0  0  0  0  0  0  0  0  0  0  0  0
   22.5100   32.5920   89.6990 C   0  0  0  0  0  0  0  0  0  0  0  0
   21.5730   31.0740   88.0260 C   0  0  0  0  0  0  0  0  0  0  0  0
   21.8110   29.7500   88.6350 C   0  0  0  0  0  0  0  0  0  0  0  0
   21.1390   28.7540   87.6630 C   0  0  0  0  0  0  0  0  0  0  0  0
   21.6300   27.4540   88.1920 C   0  0  0  0  0  0  0  0  0  0  0  0
   22.5310   32.1420   88.2900 N   0  0  0  0  0  0  0  0  0  0  0  0
   20.8920   26.5750   88.5800 O   0  0  0  0  0  0  0  0  0  0  0  0
   22.9340   27.3330   88.2630 O   0  0  0  0  0  0  0  0  0  0  0  0
   21.9210   34.1451   87.8642 H   0  0  0  0  0  0  0  0  0  0  0  0
   20.8961   32.9005   87.1201 H   0  0  0  0  0  0  0  0  0  0  0  0
   23.3110   34.1701   86.0818 H   0  0  0  0  0  0  0  0  0  0  0  0
   22.1978   33.0647   85.2418 H   0  0  0  0  0  0  0  0  0  0  0  0
   24.7917   32.3904   85.8754 H   0  0  0  0  0  0  0  0  0  0  0  0
   23.5356   31.1743   85.7454 H   0  0  0  0  0  0  0  0  0  0  0  0
   24.2157   30.8480   88.0162 H   0  0  0  0  0  0  0  0  0  0  0  0
   24.6551   32.5387   88.2530 H   0  0  0  0  0  0  0  0  0  0  0  0
   22.5508   31.7168   90.3641 H   0  0  0  0  0  0  0  0  0  0  0  0
   23.3789   33.2388   89.8903 H   0  0  0  0  0  0  0  0  0  0  0  0
   21.5846   33.1551   89.8903 H   0  0  0  0  0  0  0  0  0  0  0  0
   21.5397   30.9293   86.9361 H   0  0  0  0  0  0  0  0  0  0  0  0
   20.6420   31.4240   88.4958 H   0  0  0  0  0  0  0  0  0  0  0  0
   22.8890   29.5471   88.7166 H   0  0  0  0  0  0  0  0  0  0  0  0
   21.4059   29.6786   89.6552 H   0  0  0  0  0  0  0  0  0  0  0  0
   20.0422   28.8206   87.7129 H   0  0  0  0  0  0  0  0  0  0  0  0
   21.3777   28.9281   86.6034 H   0  0  0  0  0  0  0  0  0  0  0  0
   23.3799   27.2916   89.1459 H   0  0  0  0  0  0  0  0  0  0  0  0
  4  3  1  0
  4 10  1  0
  3  2  1  0
  2  1  1  0
  1 10  1  0
  5 10  1  0
  6  7  1  0
  6 10  1  0
  7  8  1  0
  8  9  1  0
  9 12  1  0
  9 11  2  0
  1 13  1  0
  1 14  1  0
  2 15  1  0
  2 16  1  0
  3 17  1  0
  3 18  1  0
  4 19  1  0
  4 20  1  0
  5 21  1  0
  5 22  1  0
  5 23  1  0
  6 24  1  0
  6 25  1  0
  7 26  1  0
  7 27  1  0
  8 28  1  0
  8 29  1  0
 12 30  1  0
M  CHG  1  10   1
A    1
CAF
A    2
CAE
A    3
CAD
A    4
CAA
A    5
CAH
A    6
CAJ
A    7
CAK
A    8
CAL
A    9
CAM
A   10
N3
A   11
OAB
A   12
OAC
M  END
