4BGG_844_A_1000
     RDKit          3D

 57 60  0  0  0  0  0  0  0  0999 V2000
   48.7640  -44.9100   53.8720 C   0  0  0  0  0  0  0  0  0  0  0  0
   48.5480  -45.1860   52.5500 O   0  0  0  0  0  0  0  0  0  0  0  0
   47.2160  -45.1100   52.1800 C   0  0  0  0  0  0  0  0  0  0  0  0
   46.8960  -45.5740   50.8790 C   0  0  0  0  0  0  0  0  0  0  0  0
   47.9320  -46.0770   50.0840 O   0  0  0  0  0  0  0  0  0  0  0  0
   48.8960  -45.1250   49.7160 C   0  0  0  0  0  0  0  0  0  0  0  0
   45.5910  -45.4800   50.4130 C   0  0  0  0  0  0  0  0  0  0  0  0
   44.5520  -44.9780   51.2910 C   0  0  0  0  0  0  0  0  0  0  0  0
   44.8850  -44.5110   52.5800 C   0  0  0  0  0  0  0  0  0  0  0  0
   46.2490  -44.5720   53.0290 C   0  0  0  0  0  0  0  0  0  0  0  0
   43.7840  -43.9640   53.5110 C   0  0  0  0  0  0  0  0  0  0  0  0
   42.5690  -44.6870   53.5970 C   0  0  0  0  0  0  0  0  0  0  0  0
   41.5590  -44.2090   54.4030 C   0  0  0  0  0  0  0  0  0  0  0  0
   41.7640  -43.0430   55.1480 C   0  0  0  0  0  0  0  0  0  0  0  0
   42.9630  -42.3930   55.0360 N   0  0  0  0  0  0  0  0  0  0  0  0
   43.9550  -42.8040   54.2660 C   0  0  0  0  0  0  0  0  0  0  0  0
   40.3100  -44.9680   54.5020 C   0  0  0  0  0  0  0  0  0  0  0  0
   39.5830  -44.9610   55.6780 C   0  0  0  0  0  0  0  0  0  0  0  0
   38.3460  -45.7290   55.7470 C   0  0  0  0  0  0  0  0  0  0  0  0
   37.9070  -46.5230   54.6410 C   0  0  0  0  0  0  0  0  0  0  0  0
   38.6530  -46.5440   53.5260 C   0  0  0  0  0  0  0  0  0  0  0  0
   39.8740  -45.7510   53.4380 C   0  0  0  0  0  0  0  0  0  0  0  0
   36.7330  -47.2890   54.7110 N   0  0  0  0  0  0  0  0  0  0  0  0
   36.1410  -48.0890   53.6590 C   0  0  0  0  0  0  0  0  0  0  0  0
   35.4740  -49.4080   54.0910 C   0  0  0  0  0  0  0  0  0  0  0  0
   34.6690  -49.2970   55.2660 N   0  0  0  0  0  0  0  0  0  0  0  0
   34.7490  -48.0140   55.9040 C   0  0  0  0  0  0  0  0  0  0  0  0
   36.2040  -47.5700   55.9990 C   0  0  0  0  0  0  0  0  0  0  0  0
   45.3480  -45.9770   49.1200 O   0  0  0  0  0  0  0  0  0  0  0  0
   44.2050  -45.6620   48.4590 C   0  0  0  0  0  0  0  0  0  0  0  0
   48.2041  -45.6254   54.4922 H   0  0  0  0  0  0  0  0  0  0  0  0
   49.8381  -44.9948   54.0935 H   0  0  0  0  0  0  0  0  0  0  0  0
   48.4235  -43.8877   54.0935 H   0  0  0  0  0  0  0  0  0  0  0  0
   49.3412  -44.6854   50.6207 H   0  0  0  0  0  0  0  0  0  0  0  0
   49.6822  -45.6109   49.1195 H   0  0  0  0  0  0  0  0  0  0  0  0
   48.4200  -44.3328   49.1195 H   0  0  0  0  0  0  0  0  0  0  0  0
   43.5055  -44.9613   50.9525 H   0  0  0  0  0  0  0  0  0  0  0  0
   46.5259  -44.2002   54.0265 H   0  0  0  0  0  0  0  0  0  0  0  0
   42.4335  -45.6183   53.0275 H   0  0  0  0  0  0  0  0  0  0  0  0
   40.9764  -42.6559   55.8113 H   0  0  0  0  0  0  0  0  0  0  0  0
   44.8990  -42.2411   54.2213 H   0  0  0  0  0  0  0  0  0  0  0  0
   39.9325  -44.3851   56.5476 H   0  0  0  0  0  0  0  0  0  0  0  0
   37.7401  -45.6975   56.6646 H   0  0  0  0  0  0  0  0  0  0  0  0
   38.3416  -47.1637   52.6722 H   0  0  0  0  0  0  0  0  0  0  0  0
   40.4633  -45.7726   52.5094 H   0  0  0  0  0  0  0  0  0  0  0  0
   35.3756  -47.4745   53.1625 H   0  0  0  0  0  0  0  0  0  0  0  0
   36.9797  -48.3854   53.0119 H   0  0  0  0  0  0  0  0  0  0  0  0
   34.8355  -49.7584   53.2667 H   0  0  0  0  0  0  0  0  0  0  0  0
   36.2859  -50.1113   54.3280 H   0  0  0  0  0  0  0  0  0  0  0  0
   33.6877  -49.4691   55.0047 H   0  0  0  0  0  0  0  0  0  0  0  0
   34.1811  -47.2783   55.3155 H   0  0  0  0  0  0  0  0  0  0  0  0
   34.3264  -48.0870   56.9170 H   0  0  0  0  0  0  0  0  0  0  0  0
   36.7957  -48.3721   56.4643 H   0  0  0  0  0  0  0  0  0  0  0  0
   36.2533  -46.6544   56.6067 H   0  0  0  0  0  0  0  0  0  0  0  0
   43.4094  -45.4427   49.1863 H   0  0  0  0  0  0  0  0  0  0  0  0
   44.3783  -44.7781   47.8275 H   0  0  0  0  0  0  0  0  0  0  0  0
   43.9011  -46.5099   47.8275 H   0  0  0  0  0  0  0  0  0  0  0  0
  1  2  1  0
  2  3  1  0
  3  4  2  0
  3 10  1  0
  4  5  1  0
  4  7  1  0
  5  6  1  0
  7  8  2  0
  7 29  1  0
  8  9  1  0
  9 10  2  0
  9 11  1  0
 11 12  2  0
 11 16  1  0
 12 13  1  0
 13 14  2  0
 13 17  1  0
 14 15  1  0
 15 16  2  0
 17 18  2  0
 17 22  1  0
 18 19  1  0
 19 20  2  0
 20 21  1  0
 20 23  1  0
 21 22  2  0
 23 24  1  0
 23 28  1  0
 24 25  1  0
 25 26  1  0
 26 27  1  0
 27 28  1  0
 29 30  1  0
  1 31  1  0
  1 32  1  0
  1 33  1  0
  6 34  1  0
  6 35  1  0
  6 36  1  0
  8 37  1  0
 10 38  1  0
 12 39  1  0
 14 40  1  0
 16 41  1  0
 18 42  1  0
 19 43  1  0
 21 44  1  0
 22 45  1  0
 24 46  1  0
 24 47  1  0
 25 48  1  0
 25 49  1  0
 26 50  1  0
 27 51  1  0
 27 52  1  0
 28 53  1  0
 28 54  1  0
 30 55  1  0
 30 56  1  0
 30 57  1  0
A    1
C01
A    2
O02
A    3
C03
A    4
C04
A    5
O05
A    6
C06
A    7
C07
A    8
C08
A    9
C09
A   10
C10
A   11
C11
A   12
C12
A   13
C13
A   14
C14
A   15
N15
A   16
C16
A   17
C17
A   18
C18
A   19
C19
A   20
C20
A   21
C21
A   22
C22
A   23
N23
A   24
C24
A   25
C25
A   26
N26
A   27
C27
A   28
C28
A   29
O29
A   30
C30
M  END
