4BHI_RUJ_A_401
     RDKit          3D

 28 27  0  0  0  0  0  0  0  0999 V2000
   20.8580   26.8470   88.3870 O   0  0  0  0  0  0  0  0  0  0  0  0
   21.7620   27.4390   87.7690 C   0  0  0  0  0  0  0  0  0  0  0  0
   22.9620   27.0540   87.8180 O   0  0  0  0  0  0  0  0  0  0  0  0
   21.4390   28.6160   86.8530 C   0  0  0  0  0  0  0  0  0  0  0  0
   20.9320   29.8880   87.4820 C   0  0  0  0  0  0  0  0  0  0  0  0
   21.9950   30.6770   88.1100 N   0  0  0  0  0  0  0  0  0  0  0  0
   22.4810   30.0590   89.3340 C   0  0  0  0  0  0  0  0  0  0  0  0
   22.4760   31.8990   87.6630 N   0  0  0  0  0  0  0  0  0  0  0  0
   23.8620   31.7800   87.1510 C   0  0  0  0  0  0  0  0  0  0  0  0
   21.6430   32.5010   86.5980 C   0  0  0  0  0  0  0  0  0  0  0  0
   22.5010   32.8770   88.7590 C   0  0  0  0  0  0  0  0  0  0  0  0
   23.4013   26.9131   88.6939 H   0  0  0  0  0  0  0  0  0  0  0  0
   22.3602   28.8667   86.3066 H   0  0  0  0  0  0  0  0  0  0  0  0
   20.5984   28.2612   86.2385 H   0  0  0  0  0  0  0  0  0  0  0  0
   20.4553   30.4996   86.7018 H   0  0  0  0  0  0  0  0  0  0  0  0
   20.2208   29.6048   88.2719 H   0  0  0  0  0  0  0  0  0  0  0  0
   22.0641   30.5891   90.2030 H   0  0  0  0  0  0  0  0  0  0  0  0
   22.1672   29.0051   89.3623 H   0  0  0  0  0  0  0  0  0  0  0  0
   23.5792   30.1155   89.3623 H   0  0  0  0  0  0  0  0  0  0  0  0
   24.5617   31.7199   87.9976 H   0  0  0  0  0  0  0  0  0  0  0  0
   23.9496   30.8710   86.5377 H   0  0  0  0  0  0  0  0  0  0  0  0
   24.1032   32.6607   86.5377 H   0  0  0  0  0  0  0  0  0  0  0  0
   20.8318   33.0873   87.0543 H   0  0  0  0  0  0  0  0  0  0  0  0
   22.2651   33.1595   85.9741 H   0  0  0  0  0  0  0  0  0  0  0  0
   21.2130   31.7036   85.9741 H   0  0  0  0  0  0  0  0  0  0  0  0
   22.4875   32.3476   89.7232 H   0  0  0  0  0  0  0  0  0  0  0  0
   23.4150   33.4849   88.6872 H   0  0  0  0  0  0  0  0  0  0  0  0
   21.6193   33.5308   88.6872 H   0  0  0  0  0  0  0  0  0  0  0  0
  1  2  2  0
  2  3  1  0
  2  4  1  0
  4  5  1  0
  5  6  1  0
  6  7  1  0
  6  8  1  0
  8  9  1  0
  8 10  1  0
  8 11  1  0
  3 12  1  0
  4 13  1  0
  4 14  1  0
  5 15  1  0
  5 16  1  0
  7 17  1  0
  7 18  1  0
  7 19  1  0
  9 20  1  0
  9 21  1  0
  9 22  1  0
 10 23  1  0
 10 24  1  0
 10 25  1  0
 11 26  1  0
 11 27  1  0
 11 28  1  0
M  CHG  1   8   1
A    1
O4
A    2
C5
A    3
O7
A    4
C6
A    5
C3
A    6
N2
A    7
C21
A    8
N1
A    9
C8
A   10
C9
A   11
C10
M  END
