4BGE_PYW_A_1270
     RDKit          3D

 71 73  0  0  0  0  0  0  0  0999 V2000
  -55.0240  -29.1660  -81.5890 C   0  0  0  0  0  0  0  0  0  0  0  0
  -55.6870  -28.0980  -80.9540 C   0  0  0  0  0  0  0  0  0  0  0  0
  -55.6850  -26.8410  -81.5710 C   0  0  0  0  0  0  0  0  0  0  0  0
  -55.0510  -26.5990  -82.7650 N   0  0  0  0  0  0  0  0  0  0  0  0
  -54.4120  -27.6500  -83.3840 C   0  0  0  0  0  0  0  0  0  0  0  0
  -54.3960  -28.9600  -82.8410 C   0  0  0  0  0  0  0  0  0  0  0  0
  -53.8330  -30.1000  -83.6140 C   0  0  0  0  0  0  0  0  0  0  0  0
  -54.7460  -30.6200  -84.7350 C   0  0  0  0  0  0  0  0  0  0  0  0
  -56.1290  -30.6530  -84.2820 N   0  0  0  0  0  0  0  0  0  0  0  0
  -57.0560  -29.7260  -84.7420 C   0  0  0  0  0  0  0  0  0  0  0  0
  -56.7470  -28.7710  -85.4670 O   0  0  0  0  0  0  0  0  0  0  0  0
  -54.2770  -32.0210  -85.2500 C   0  0  0  0  0  0  0  0  0  0  0  0
  -54.2890  -33.0080  -84.2270 O   0  0  0  0  0  0  0  0  0  0  0  0
  -55.0290  -32.5290  -86.4910 C   0  0  0  0  0  0  0  0  0  0  0  0
  -54.1960  -33.5130  -87.3190 C   0  0  0  0  0  0  0  0  0  0  0  0
  -56.3830  -33.1740  -86.2120 C   0  0  0  0  0  0  0  0  0  0  0  0
  -56.7080  -33.8130  -85.2290 O   0  0  0  0  0  0  0  0  0  0  0  0
  -57.2630  -32.9410  -87.2380 O   0  0  0  0  0  0  0  0  0  0  0  0
  -58.6080  -33.4020  -87.2380 C   0  0  0  0  0  0  0  0  0  0  0  0
  -59.0380  -34.3890  -88.1430 C   0  0  0  0  0  0  0  0  0  0  0  0
  -60.4700  -34.7700  -88.3590 C   0  0  0  0  0  0  0  0  0  0  0  0
  -58.0790  -35.2110  -88.9750 C   0  0  0  0  0  0  0  0  0  0  0  0
  -57.5220  -34.3760  -90.0950 C   0  0  0  0  0  0  0  0  0  0  0  0
  -59.4400  -32.6390  -86.2770 C   0  0  0  0  0  0  0  0  0  0  0  0
  -60.4870  -32.9810  -85.7550 O   0  0  0  0  0  0  0  0  0  0  0  0
  -58.8340  -31.4540  -85.9890 O   0  0  0  0  0  0  0  0  0  0  0  0
  -59.5030  -30.3670  -85.3290 C   0  0  0  0  0  0  0  0  0  0  0  0
  -59.7990  -29.3100  -86.3640 C   0  0  0  0  0  0  0  0  0  0  0  0
  -58.5110  -29.9280  -84.2470 C   0  0  0  0  0  0  0  0  0  0  0  0
  -58.8970  -28.6470  -83.6730 N   0  0  0  0  0  0  0  0  0  0  0  0
  -59.2940  -28.4860  -82.3630 C   0  0  0  0  0  0  0  0  0  0  0  0
  -59.6770  -29.4520  -81.6950 O   0  0  0  0  0  0  0  0  0  0  0  0
  -59.2150  -27.0730  -81.8370 C   0  0  0  0  0  0  0  0  0  0  0  0
  -59.4290  -26.9790  -80.4870 N   0  0  0  0  0  0  0  0  0  0  0  0
  -59.3100  -25.7640  -79.8960 C   0  0  0  0  0  0  0  0  0  0  0  0
  -58.9720  -24.5720  -80.5890 C   0  0  0  0  0  0  0  0  0  0  0  0
  -58.7570  -24.6420  -81.9580 C   0  0  0  0  0  0  0  0  0  0  0  0
  -58.8870  -25.8890  -82.5970 C   0  0  0  0  0  0  0  0  0  0  0  0
  -58.7310  -25.9540  -83.9130 O   0  0  0  0  0  0  0  0  0  0  0  0
  -54.9942  -30.1575  -81.1135 H   0  0  0  0  0  0  0  0  0  0  0  0
  -56.1970  -28.2485  -79.9911 H   0  0  0  0  0  0  0  0  0  0  0  0
  -56.2139  -26.0119  -81.0783 H   0  0  0  0  0  0  0  0  0  0  0  0
  -53.8938  -27.4663  -84.3367 H   0  0  0  0  0  0  0  0  0  0  0  0
  -52.8847  -29.7740  -84.0662 H   0  0  0  0  0  0  0  0  0  0  0  0
  -53.7064  -30.9293  -82.9025 H   0  0  0  0  0  0  0  0  0  0  0  0
  -54.6789  -29.9266  -85.5863 H   0  0  0  0  0  0  0  0  0  0  0  0
  -56.4250  -31.3751  -83.6098 H   0  0  0  0  0  0  0  0  0  0  0  0
  -53.2367  -31.8523  -85.5652 H   0  0  0  0  0  0  0  0  0  0  0  0
  -54.2836  -32.5655  -83.3414 H   0  0  0  0  0  0  0  0  0  0  0  0
  -55.2119  -31.6039  -87.0573 H   0  0  0  0  0  0  0  0  0  0  0  0
  -53.6346  -34.1762  -86.6445 H   0  0  0  0  0  0  0  0  0  0  0  0
  -54.8632  -34.1149  -87.9535 H   0  0  0  0  0  0  0  0  0  0  0  0
  -53.4922  -32.9543  -87.9535 H   0  0  0  0  0  0  0  0  0  0  0  0
  -60.9652  -34.9018  -87.3856 H   0  0  0  0  0  0  0  0  0  0  0  0
  -60.9793  -33.9761  -88.9250 H   0  0  0  0  0  0  0  0  0  0  0  0
  -60.5174  -35.7120  -88.9250 H   0  0  0  0  0  0  0  0  0  0  0  0
  -57.2540  -35.5629  -88.3382 H   0  0  0  0  0  0  0  0  0  0  0  0
  -58.6165  -36.0717  -89.3997 H   0  0  0  0  0  0  0  0  0  0  0  0
  -56.9576  -33.5299  -89.6759 H   0  0  0  0  0  0  0  0  0  0  0  0
  -56.8533  -34.9921  -90.7141 H   0  0  0  0  0  0  0  0  0  0  0  0
  -58.3477  -33.9953  -90.7141 H   0  0  0  0  0  0  0  0  0  0  0  0
  -60.4705  -30.6104  -84.8656 H   0  0  0  0  0  0  0  0  0  0  0  0
  -60.0628  -28.3680  -85.8610 H   0  0  0  0  0  0  0  0  0  0  0  0
  -58.9101  -29.1535  -86.9928 H   0  0  0  0  0  0  0  0  0  0  0  0
  -60.6399  -29.6379  -86.9928 H   0  0  0  0  0  0  0  0  0  0  0  0
  -58.5408  -30.7567  -83.5242 H   0  0  0  0  0  0  0  0  0  0  0  0
  -58.8720  -27.8149  -84.2795 H   0  0  0  0  0  0  0  0  0  0  0  0
  -59.4864  -25.6981  -78.8122 H   0  0  0  0  0  0  0  0  0  0  0  0
  -58.8827  -23.6154  -80.0533 H   0  0  0  0  0  0  0  0  0  0  0  0
  -58.4906  -23.7420  -82.5315 H   0  0  0  0  0  0  0  0  0  0  0  0
  -57.8878  -26.3053  -84.2948 H   0  0  0  0  0  0  0  0  0  0  0  0
  1  2  2  0
  1  6  1  0
  2  3  1  0
  3  4  2  0
  4  5  1  0
  5  6  2  0
  6  7  1  0
  7  8  1  0
  8  9  1  0
  8 12  1  0
  9 10  1  0
 10 11  2  0
 10 29  1  0
 12 13  1  0
 12 14  1  0
 14 15  1  0
 14 16  1  0
 16 17  2  0
 16 18  1  0
 18 19  1  0
 19 20  2  0
 19 24  1  0
 20 21  1  0
 20 22  1  0
 22 23  1  0
 24 25  2  0
 24 26  1  0
 26 27  1  0
 27 28  1  0
 27 29  1  0
 29 30  1  0
 30 31  1  0
 31 32  2  0
 31 33  1  0
 33 34  2  0
 33 38  1  0
 34 35  1  0
 35 36  2  0
 36 37  1  0
 37 38  2  0
 38 39  1  0
  1 40  1  0
  2 41  1  0
  3 42  1  0
  5 43  1  0
  7 44  1  0
  7 45  1  0
  8 46  1  0
  9 47  1  0
 12 48  1  0
 13 49  1  0
 14 50  1  0
 15 51  1  0
 15 52  1  0
 15 53  1  0
 21 54  1  0
 21 55  1  0
 21 56  1  0
 22 57  1  0
 22 58  1  0
 23 59  1  0
 23 60  1  0
 23 61  1  0
 27 62  1  0
 28 63  1  0
 28 64  1  0
 28 65  1  0
 29 66  1  0
 30 67  1  0
 35 68  1  0
 36 69  1  0
 37 70  1  0
 39 71  1  0
A    1
CAO
A    2
CAK
A    3
CAM
A    4
NAT
A    5
CAQ
A    6
CBF
A    7
CAS
A    8
CBL
A    9
NAV
A   10
C
A   11
O
A   12
CBK
A   13
OAJ
A   14
CBJ
A   15
CAD
A   16
CBD
A   17
OAH
A   18
OAX
A   19
CBE
A   20
CAZ
A   21
CAB
A   22
CAR
A   23
CAA
A   24
CBA
A   25
OAE
A   26
OG1
A   27
CB
A   28
CG2
A   29
CA
A   30
N
A   31
CBB
A   32
OAF
A   33
CBH
A   34
NAU
A   35
CAN
A   36
CAL
A   37
CAP
A   38
CBG
A   39
OAI
M  END
