4BIS_8HQ_A_601
     RDKit          3D

 21 22  0  0  0  0  0  0  0  0999 V2000
   24.3040  -22.8030   -3.0310 O   0  0  0  0  0  0  0  0  0  0  0  0
   23.3010  -22.0400   -4.7910 O   0  0  0  0  0  0  0  0  0  0  0  0
   28.4320  -19.9740   -7.8870 O   0  0  0  0  0  0  0  0  0  0  0  0
   26.5980  -23.1480   -4.5890 C   0  0  0  0  0  0  0  0  0  0  0  0
   27.8160  -23.0070   -5.2420 C   0  0  0  0  0  0  0  0  0  0  0  0
   26.2040  -19.1240   -7.5580 C   0  0  0  0  0  0  0  0  0  0  0  0
   24.9800  -19.2520   -6.9120 C   0  0  0  0  0  0  0  0  0  0  0  0
   25.5790  -22.2400   -4.8450 C   0  0  0  0  0  0  0  0  0  0  0  0
   28.0050  -21.9560   -6.1480 N   0  0  0  0  0  0  0  0  0  0  0  0
   27.2120  -20.0420   -7.2900 C   0  0  0  0  0  0  0  0  0  0  0  0
   24.7750  -20.2910   -6.0090 C   0  0  0  0  0  0  0  0  0  0  0  0
   24.3530  -22.3650   -4.2000 C   0  0  0  0  0  0  0  0  0  0  0  0
   25.7900  -21.2050   -5.7480 C   0  0  0  0  0  0  0  0  0  0  0  0
   27.0170  -21.0820   -6.3910 C   0  0  0  0  0  0  0  0  0  0  0  0
   22.4969  -21.7916   -4.2697 H   0  0  0  0  0  0  0  0  0  0  0  0
   29.2519  -19.9283   -7.3340 H   0  0  0  0  0  0  0  0  0  0  0  0
   26.4422  -23.9710   -3.8760 H   0  0  0  0  0  0  0  0  0  0  0  0
   28.6309  -23.7199   -5.0477 H   0  0  0  0  0  0  0  0  0  0  0  0
   26.3727  -18.3054   -8.2732 H   0  0  0  0  0  0  0  0  0  0  0  0
   24.1733  -18.5321   -7.1145 H   0  0  0  0  0  0  0  0  0  0  0  0
   23.8053  -20.3897   -5.4992 H   0  0  0  0  0  0  0  0  0  0  0  0
  2 12  1  0
  1 12  2  0
  3 10  1  0
  4  5  2  0
  4  8  1  0
  5  9  1  0
  6  7  1  0
  6 10  2  0
  7 11  2  0
  8 13  2  0
  8 12  1  0
  9 14  2  0
 10 14  1  0
 11 13  1  0
 13 14  1  0
  2 15  1  0
  3 16  1  0
  4 17  1  0
  5 18  1  0
  6 19  1  0
  7 20  1  0
 11 21  1  0
A    1
OAB
A    2
OAA
A    3
OAC
A    4
CAD
A    5
CAE
A    6
CAF
A    7
CAG
A    8
CAH
A    9
NAI
A   10
CAK
A   11
CAL
A   12
CA0
A   13
CAM
A   14
CAN
M  END
