4BKZ_1WS_A_1335
     RDKit          3D

 47 50  0  0  0  0  0  0  0  0999 V2000
   15.7590   10.4640    9.7010 O   0  0  0  0  0  0  0  0  0  0  0  0
   14.9500   10.7490    8.8330 C   0  0  0  0  0  0  0  0  0  0  0  0
   13.9870   11.6310    9.0740 N   0  0  0  0  0  0  0  0  0  0  0  0
   13.7340   12.3520   10.3180 C   0  0  0  0  0  0  0  0  0  0  0  0
   12.4820   11.6910   10.8910 C   0  0  0  0  0  0  0  0  0  0  0  0
   11.4550   12.7210   11.3390 C   0  0  0  0  0  0  0  0  0  0  0  0
   10.7060   12.1880   12.4620 N   0  0  0  0  0  0  0  0  0  0  0  0
   15.0080   10.1410    7.4660 C   0  0  0  0  0  0  0  0  0  0  0  0
   15.8620    8.9880    7.0530 C   0  0  0  0  0  0  0  0  0  0  0  0
   16.8620    8.1130    7.7910 C   0  0  0  0  0  0  0  0  0  0  0  0
   17.0370    6.7500    7.1000 C   0  0  0  0  0  0  0  0  0  0  0  0
   14.3010   10.5260    6.3840 N   0  0  0  0  0  0  0  0  0  0  0  0
   14.6120    9.7270    5.2500 N   0  0  0  0  0  0  0  0  0  0  0  0
   15.5470    8.8680    5.7090 C   0  0  0  0  0  0  0  0  0  0  0  0
   16.1270    7.8310    4.9820 C   0  0  0  0  0  0  0  0  0  0  0  0
   16.0620    7.5420    3.5550 C   0  0  0  0  0  0  0  0  0  0  0  0
   16.7290    6.3880    3.3350 N   0  0  0  0  0  0  0  0  0  0  0  0
   17.1650    5.9540    4.6240 N   0  0  0  0  0  0  0  0  0  0  0  0
   16.7920    6.8110    5.6180 C   0  0  0  0  0  0  0  0  0  0  0  0
   15.4420    8.3880    2.7000 N   0  0  0  0  0  0  0  0  0  0  0  0
   15.3840    8.4080    1.3440 C   0  0  0  0  0  0  0  0  0  0  0  0
   16.3190    7.7780    0.5190 C   0  0  0  0  0  0  0  0  0  0  0  0
   16.1790    7.8720   -0.8770 C   0  0  0  0  0  0  0  0  0  0  0  0
   17.0740    7.2510   -1.6670 F   0  0  0  0  0  0  0  0  0  0  0  0
   15.1210    8.5930   -1.4640 C   0  0  0  0  0  0  0  0  0  0  0  0
   14.1910    9.2270   -0.6430 C   0  0  0  0  0  0  0  0  0  0  0  0
   14.3340    9.1340    0.7520 C   0  0  0  0  0  0  0  0  0  0  0  0
   13.3447   11.8292    8.2936 H   0  0  0  0  0  0  0  0  0  0  0  0
   14.5824   12.2446   11.0098 H   0  0  0  0  0  0  0  0  0  0  0  0
   13.6023   13.4323   10.1577 H   0  0  0  0  0  0  0  0  0  0  0  0
   12.0312   11.0514   10.1179 H   0  0  0  0  0  0  0  0  0  0  0  0
   12.7789   11.0991   11.7694 H   0  0  0  0  0  0  0  0  0  0  0  0
   11.9686   13.6446   11.6440 H   0  0  0  0  0  0  0  0  0  0  0  0
   10.7688   12.9451   10.5090 H   0  0  0  0  0  0  0  0  0  0  0  0
   11.1410   12.4976   13.3428 H   0  0  0  0  0  0  0  0  0  0  0  0
    9.7351   12.5293   12.4201 H   0  0  0  0  0  0  0  0  0  0  0  0
   17.8342    8.6269    7.8189 H   0  0  0  0  0  0  0  0  0  0  0  0
   16.4820    7.9377    8.8083 H   0  0  0  0  0  0  0  0  0  0  0  0
   18.0651    6.3985    7.2718 H   0  0  0  0  0  0  0  0  0  0  0  0
   16.2930    6.0633    7.5301 H   0  0  0  0  0  0  0  0  0  0  0  0
   14.2167    9.7889    4.3009 H   0  0  0  0  0  0  0  0  0  0  0  0
   16.8889    5.9210    2.4310 H   0  0  0  0  0  0  0  0  0  0  0  0
   14.9231    9.1505    3.1586 H   0  0  0  0  0  0  0  0  0  0  0  0
   17.1560    7.2143    0.9569 H   0  0  0  0  0  0  0  0  0  0  0  0
   15.0300    8.6548   -2.5585 H   0  0  0  0  0  0  0  0  0  0  0  0
   13.3556    9.7930   -1.0809 H   0  0  0  0  0  0  0  0  0  0  0  0
   13.6046    9.6430    1.3992 H   0  0  0  0  0  0  0  0  0  0  0  0
  1  2  2  0
  2  3  1  0
  2  8  1  0
  3  4  1  0
  4  5  1  0
  5  6  1  0
  6  7  1  0
  8  9  1  0
  8 12  2  0
  9 10  1  0
  9 14  2  0
 10 11  1  0
 11 19  1  0
 12 13  1  0
 13 14  1  0
 14 15  1  0
 15 16  2  0
 15 19  1  0
 16 17  1  0
 16 20  1  0
 17 18  1  0
 18 19  2  0
 20 21  1  0
 21 22  2  0
 21 27  1  0
 22 23  1  0
 23 24  1  0
 23 25  2  0
 25 26  1  0
 26 27  2  0
  3 28  1  0
  4 29  1  0
  4 30  1  0
  5 31  1  0
  5 32  1  0
  6 33  1  0
  6 34  1  0
  7 35  1  0
  7 36  1  0
 10 37  1  0
 10 38  1  0
 11 39  1  0
 11 40  1  0
 13 41  1  0
 17 42  1  0
 20 43  1  0
 22 44  1  0
 25 45  1  0
 26 46  1  0
 27 47  1  0
A    1
O23
A    2
C21
A    3
N22
A    4
C24
A    5
C25
A    6
C26
A    7
N27
A    8
C8
A    9
C7
A   10
C4
A   11
C3
A   12
N9
A   13
N10
A   14
C6
A   15
C1
A   16
C11
A   17
N12
A   18
N5
A   19
C2
A   20
N13
A   21
C14
A   22
C19
A   23
C18
A   24
F20
A   25
C17
A   26
C16
A   27
C15
M  END
