4BM8_A6J_A_1251
     RDKit          3D

 83 86  0  0  0  0  0  0  0  0999 V2000
  -28.1890    9.2880    5.6990 F   0  0  0  0  0  0  0  0  0  0  0  0
  -27.6150   10.2040    4.8850 C   0  0  0  0  0  0  0  0  0  0  0  0
  -27.4030    9.8220    3.5440 C   0  0  0  0  0  0  0  0  0  0  0  0
  -27.6600    8.5550    3.1120 F   0  0  0  0  0  0  0  0  0  0  0  0
  -27.3160   11.5200    5.3420 C   0  0  0  0  0  0  0  0  0  0  0  0
  -27.5090   12.0260    6.6150 O   0  0  0  0  0  0  0  0  0  0  0  0
  -28.1200   11.2560    7.6390 C   0  0  0  0  0  0  0  0  0  0  0  0
  -26.7440   12.4260    4.4280 C   0  0  0  0  0  0  0  0  0  0  0  0
  -26.4480   13.7000    4.7900 F   0  0  0  0  0  0  0  0  0  0  0  0
  -26.4870   12.0430    3.0950 C   0  0  0  0  0  0  0  0  0  0  0  0
  -25.9260   12.9740    2.2860 F   0  0  0  0  0  0  0  0  0  0  0  0
  -26.8610   10.7690    2.6390 C   0  0  0  0  0  0  0  0  0  0  0  0
  -26.5050   10.2860    1.2490 C   0  0  0  0  0  0  0  0  0  0  0  0
  -26.7980    9.1200    0.9380 O   0  0  0  0  0  0  0  0  0  0  0  0
  -25.2680   10.7180    0.8960 N   0  0  0  0  0  0  0  0  0  0  0  0
  -24.5780   10.1530   -0.2590 C   0  0  0  0  0  0  0  0  0  0  0  0
  -25.0610   10.8740   -1.5460 C   0  0  0  0  0  0  0  0  0  0  0  0
  -24.8400   12.2830   -1.4540 O   0  0  0  0  0  0  0  0  0  0  0  0
  -24.2480   10.2800   -2.7330 C   0  0  0  0  0  0  0  0  0  0  0  0
  -24.6700   10.9030   -4.0830 C   0  0  0  0  0  0  0  0  0  0  0  0
  -23.6460   10.7250   -5.0470 O   0  0  0  0  0  0  0  0  0  0  0  0
  -22.8810   10.5900   -2.4830 O   0  0  0  0  0  0  0  0  0  0  0  0
  -23.0720   10.3260   -0.0540 C   0  0  0  0  0  0  0  0  0  0  0  0
  -22.6220    9.5590    1.0290 O   0  0  0  0  0  0  0  0  0  0  0  0
  -22.3100    9.9370   -1.3280 C   0  0  0  0  0  0  0  0  0  0  0  0
  -20.6090   10.5120   -1.1900 S   0  0  0  0  0  0  0  0  0  0  0  0
  -19.7630    8.9820   -1.6230 C   0  0  0  0  0  0  0  0  0  0  0  0
  -18.2660    9.2850   -1.5020 C   0  0  0  0  0  0  0  0  0  0  0  0
  -17.9110   10.0950   -2.6200 O   0  0  0  0  0  0  0  0  0  0  0  0
  -17.1880   11.5500   -2.2570 S   0  0  0  0  0  0  0  0  0  0  0  0
  -15.7730   11.2170   -2.0590 O   0  0  0  0  0  0  0  0  0  0  0  0
  -17.8990   12.0400   -1.0570 O   0  0  0  0  0  0  0  0  0  0  0  0
  -17.5140   12.3340   -3.4530 O   0  0  0  0  0  0  0  0  0  0  0  0
  -20.1610    7.9210   -0.7720 O   0  0  0  0  0  0  0  0  0  0  0  0
  -19.5340    6.6760   -1.0650 C   0  0  0  0  0  0  0  0  0  0  0  0
  -20.2000    5.5560   -0.2640 C   0  0  0  0  0  0  0  0  0  0  0  0
  -21.5640    5.4140   -0.6060 O   0  0  0  0  0  0  0  0  0  0  0  0
  -18.0380    6.8620   -0.7240 C   0  0  0  0  0  0  0  0  0  0  0  0
  -17.8900    7.0810    0.6670 O   0  0  0  0  0  0  0  0  0  0  0  0
  -17.4250    8.0190   -1.5260 C   0  0  0  0  0  0  0  0  0  0  0  0
  -16.1010    8.3900   -1.0300 N   0  0  0  0  0  0  0  0  0  0  0  0
  -14.9550    8.0810   -1.6320 C   0  0  0  0  0  0  0  0  0  0  0  0
  -14.9380    7.5910   -2.7620 O   0  0  0  0  0  0  0  0  0  0  0  0
  -13.7640    8.6600   -0.9420 C   0  0  0  0  0  0  0  0  0  0  0  0
  -12.8130    9.4020   -1.6740 C   0  0  0  0  0  0  0  0  0  0  0  0
  -13.0390    9.6310   -2.9910 F   0  0  0  0  0  0  0  0  0  0  0  0
  -11.6670    9.9170   -1.0580 C   0  0  0  0  0  0  0  0  0  0  0  0
  -10.7890   10.6130   -1.7980 F   0  0  0  0  0  0  0  0  0  0  0  0
  -13.5450    8.4760    0.4370 C   0  0  0  0  0  0  0  0  0  0  0  0
  -14.4090    7.7600    1.1940 F   0  0  0  0  0  0  0  0  0  0  0  0
  -12.3790    8.9700    1.0490 C   0  0  0  0  0  0  0  0  0  0  0  0
  -12.2350    8.7370    2.3690 F   0  0  0  0  0  0  0  0  0  0  0  0
  -11.4140    9.6940    0.3090 C   0  0  0  0  0  0  0  0  0  0  0  0
  -10.2550   10.2380    0.8240 O   0  0  0  0  0  0  0  0  0  0  0  0
   -9.7090    9.5590    1.9450 C   0  0  0  0  0  0  0  0  0  0  0  0
  -27.8128   11.6432    8.6217 H   0  0  0  0  0  0  0  0  0  0  0  0
  -29.2139   11.3223    7.5444 H   0  0  0  0  0  0  0  0  0  0  0  0
  -27.8068   10.2058    7.5444 H   0  0  0  0  0  0  0  0  0  0  0  0
  -24.8098   11.4549    1.4510 H   0  0  0  0  0  0  0  0  0  0  0  0
  -24.8008    9.0811   -0.3661 H   0  0  0  0  0  0  0  0  0  0  0  0
  -26.1409   10.7212   -1.6891 H   0  0  0  0  0  0  0  0  0  0  0  0
  -24.7983   12.5490   -0.5013 H   0  0  0  0  0  0  0  0  0  0  0  0
  -24.4260    9.1968   -2.8029 H   0  0  0  0  0  0  0  0  0  0  0  0
  -24.8554   11.9784   -3.9445 H   0  0  0  0  0  0  0  0  0  0  0  0
  -25.5854   10.4060   -4.4365 H   0  0  0  0  0  0  0  0  0  0  0  0
  -22.7823   10.5749   -4.5871 H   0  0  0  0  0  0  0  0  0  0  0  0
  -22.8785   11.3859    0.1679 H   0  0  0  0  0  0  0  0  0  0  0  0
  -22.8811   10.0006    1.8764 H   0  0  0  0  0  0  0  0  0  0  0  0
  -22.3662    8.8444   -1.4423 H   0  0  0  0  0  0  0  0  0  0  0  0
  -20.0139    8.6514   -2.6417 H   0  0  0  0  0  0  0  0  0  0  0  0
  -18.0754    9.7893   -0.5432 H   0  0  0  0  0  0  0  0  0  0  0  0
  -17.4339   11.7195   -0.2440 H   0  0  0  0  0  0  0  0  0  0  0  0
  -19.6366    6.3847   -2.1208 H   0  0  0  0  0  0  0  0  0  0  0  0
  -19.6792    4.6097   -0.4719 H   0  0  0  0  0  0  0  0  0  0  0  0
  -20.1372    5.8117    0.8040 H   0  0  0  0  0  0  0  0  0  0  0  0
  -22.1071    5.3575    0.2198 H   0  0  0  0  0  0  0  0  0  0  0  0
  -17.4979    5.9452   -1.0027 H   0  0  0  0  0  0  0  0  0  0  0  0
  -18.3689    6.3723    1.1654 H   0  0  0  0  0  0  0  0  0  0  0  0
  -17.3703    7.6290   -2.5531 H   0  0  0  0  0  0  0  0  0  0  0  0
  -16.0515    8.9282   -0.1532 H   0  0  0  0  0  0  0  0  0  0  0  0
  -10.0811   10.0218    2.8709 H   0  0  0  0  0  0  0  0  0  0  0  0
  -10.0114    8.5018    1.9163 H   0  0  0  0  0  0  0  0  0  0  0  0
   -8.6115    9.6274    1.9163 H   0  0  0  0  0  0  0  0  0  0  0  0
 21 20  1  0
 20 19  1  0
 33 30  2  0
 46 45  1  0
 43 42  2  0
 19 22  1  0
 19 17  1  0
 29 30  1  0
 29 28  1  0
 22 25  1  0
 30 31  2  0
 30 32  1  0
 48 47  1  0
 45 47  2  0
 45 44  1  0
 42 41  1  0
 42 44  1  0
 27 28  1  0
 27 26  1  0
 27 34  1  0
 17 18  1  0
 17 16  1  0
 40 28  1  0
 40 41  1  0
 40 38  1  0
 25 26  1  0
 25 23  1  0
 35 34  1  0
 35 38  1  0
 35 36  1  0
 47 53  1  0
 44 49  2  0
 38 39  1  0
 37 36  1  0
 16 23  1  0
 16 15  1  0
 23 24  1  0
 53 54  1  0
 53 51  2  0
 49 51  1  0
 49 50  1  0
 54 55  1  0
 15 13  1  0
 14 13  2  0
 51 52  1  0
 13 12  1  0
 11 10  1  0
 12 10  2  0
 12  3  1  0
 10  8  1  0
  4  3  1  0
  3  2  2  0
  8  9  1  0
  8  5  2  0
  2  5  1  0
  2  1  1  0
  5  6  1  0
  6  7  1  0
  7 56  1  0
  7 57  1  0
  7 58  1  0
 15 59  1  0
 16 60  1  0
 17 61  1  0
 18 62  1  0
 19 63  1  0
 20 64  1  0
 20 65  1  0
 21 66  1  0
 23 67  1  0
 24 68  1  0
 25 69  1  0
 27 70  1  0
 28 71  1  0
 32 72  1  0
 35 73  1  0
 36 74  1  0
 36 75  1  0
 37 76  1  0
 38 77  1  0
 39 78  1  0
 40 79  1  0
 41 80  1  0
 55 81  1  0
 55 82  1  0
 55 83  1  0
A    1
F1
A    2
C1
A    3
C2
A    4
F2
A    5
C3
A    6
O1
A    7
C4
A    8
C5
A    9
F3
A   10
C6
A   11
F4
A   12
C7
A   13
C8
A   14
O2
A   15
N1
A   16
C9
A   17
C10
A   18
O3
A   19
C11
A   20
C12
A   21
O4
A   22
O5
A   23
C13
A   24
O6
A   25
C14
A   26
S1
A   27
C15
A   28
C16
A   29
O7
A   30
S2
A   31
O8
A   32
O9
A   33
O10
A   34
O11
A   35
C17
A   36
C18
A   37
O12
A   38
C19
A   39
O13
A   40
C20
A   41
N2
A   42
C21
A   43
O14
A   44
C22
A   45
C23
A   46
F5
A   47
C24
A   48
F6
A   49
C25
A   50
F7
A   51
C26
A   52
F8
A   53
C27
A   54
O15
A   55
C28
M  END
