4BN5_SR7_A_1396
     RDKit          3D

 57 62  0  0  0  0  0  0  0  0999 V2000
  232.6080    0.1690   10.6870 C   0  0  0  0  0  0  0  0  0  0  0  0
  232.5890    0.5290   12.0110 C   0  0  0  0  0  0  0  0  0  0  0  0
  232.2610   -0.4280   13.0230 C   0  0  0  0  0  0  0  0  0  0  0  0
  231.9380   -1.7280   12.5830 C   0  0  0  0  0  0  0  0  0  0  0  0
  231.9600   -2.0900   11.2590 C   0  0  0  0  0  0  0  0  0  0  0  0
  232.2950   -1.1350   10.3170 C   0  0  0  0  0  0  0  0  0  0  0  0
  234.5780    5.8040   13.5250 C   0  0  0  0  0  0  0  0  0  0  0  0
  233.9570    5.6160   14.7470 C   0  0  0  0  0  0  0  0  0  0  0  0
  233.4420    4.4840   14.9670 N   0  0  0  0  0  0  0  0  0  0  0  0
  233.5310    3.5400   14.0020 C   0  0  0  0  0  0  0  0  0  0  0  0
  234.1070    3.6840   12.7610 C   0  0  0  0  0  0  0  0  0  0  0  0
  234.6820    4.8710   12.5260 N   0  0  0  0  0  0  0  0  0  0  0  0
  234.9670    7.9850   14.4670 C   0  0  0  0  0  0  0  0  0  0  0  0
  234.3430    7.7190   15.6630 C   0  0  0  0  0  0  0  0  0  0  0  0
  233.8200    6.4850   15.8010 C   0  0  0  0  0  0  0  0  0  0  0  0
  235.0890    7.0570   13.4180 C   0  0  0  0  0  0  0  0  0  0  0  0
  229.2530   -2.7840   18.5530 C   0  0  0  0  0  0  0  0  0  0  0  0
  228.0860   -3.4330   17.9650 C   0  0  0  0  0  0  0  0  0  0  0  0
  228.2750   -4.8790   17.7920 N   0  0  0  0  0  0  0  0  0  0  0  0
  229.5250   -5.3390   18.3550 C   0  0  0  0  0  0  0  0  0  0  0  0
  230.6230   -4.5480   17.7090 C   0  0  0  0  0  0  0  0  0  0  0  0
  230.4040   -3.0930   17.7110 N   0  0  0  0  0  0  0  0  0  0  0  0
  231.8540   -0.6260   16.5200 N   0  0  0  0  0  0  0  0  0  0  0  0
  231.8630    0.6870   16.3520 C   0  0  0  0  0  0  0  0  0  0  0  0
  232.0220    0.9360   15.0490 N   0  0  0  0  0  0  0  0  0  0  0  0
  232.1460   -0.2130   14.3840 C   0  0  0  0  0  0  0  0  0  0  0  0
  232.0170   -1.1670   15.3210 C   0  0  0  0  0  0  0  0  0  0  0  0
  231.6710    1.3410   17.7780 S   0  0  0  0  0  0  0  0  0  0  0  0
  231.5660   -0.0020   18.6330 C   0  0  0  0  0  0  0  0  0  0  0  0
  231.6740   -0.9980   17.7750 C   0  0  0  0  0  0  0  0  0  0  0  0
  232.8630    1.7650   12.3820 N   0  0  0  0  0  0  0  0  0  0  0  0
  233.9900    2.4830   12.0350 C   0  0  0  0  0  0  0  0  0  0  0  0
  234.8880    2.0650   11.3280 O   0  0  0  0  0  0  0  0  0  0  0  0
  231.6430   -2.4650   18.1670 C   0  0  0  0  0  0  0  0  0  0  0  0
  232.8706    0.9111    9.9186 H   0  0  0  0  0  0  0  0  0  0  0  0
  231.6568   -2.4834   13.3316 H   0  0  0  0  0  0  0  0  0  0  0  0
  231.7162   -3.1183   10.9539 H   0  0  0  0  0  0  0  0  0  0  0  0
  232.3144   -1.4121    9.2527 H   0  0  0  0  0  0  0  0  0  0  0  0
  233.0981    2.5556   14.2336 H   0  0  0  0  0  0  0  0  0  0  0  0
  235.3978    8.9867   14.3219 H   0  0  0  0  0  0  0  0  0  0  0  0
  234.2746    8.4715   16.4624 H   0  0  0  0  0  0  0  0  0  0  0  0
  233.3024    6.1849   16.7240 H   0  0  0  0  0  0  0  0  0  0  0  0
  235.6079    7.3516   12.4939 H   0  0  0  0  0  0  0  0  0  0  0  0
  229.0974   -1.6957   18.5901 H   0  0  0  0  0  0  0  0  0  0  0  0
  229.4183   -3.1448   19.5789 H   0  0  0  0  0  0  0  0  0  0  0  0
  227.2206   -3.2665   18.6232 H   0  0  0  0  0  0  0  0  0  0  0  0
  227.9262   -2.9950   16.9687 H   0  0  0  0  0  0  0  0  0  0  0  0
  227.5002   -5.3726   18.2577 H   0  0  0  0  0  0  0  0  0  0  0  0
  229.5315   -5.1735   19.4425 H   0  0  0  0  0  0  0  0  0  0  0  0
  229.6614   -6.4152   18.1730 H   0  0  0  0  0  0  0  0  0  0  0  0
  231.5596   -4.7560   18.2470 H   0  0  0  0  0  0  0  0  0  0  0  0
  230.6569   -4.8596   16.6546 H   0  0  0  0  0  0  0  0  0  0  0  0
  232.0431   -2.2483   15.1207 H   0  0  0  0  0  0  0  0  0  0  0  0
  231.4305   -0.0815   19.7217 H   0  0  0  0  0  0  0  0  0  0  0  0
  232.1740    2.2369   12.9849 H   0  0  0  0  0  0  0  0  0  0  0  0
  231.7089   -2.5482   19.2619 H   0  0  0  0  0  0  0  0  0  0  0  0
  232.4947   -2.9765   17.6948 H   0  0  0  0  0  0  0  0  0  0  0  0
  2  1  2  0
  6  1  1  0
  3  2  1  0
  2 31  1  0
 26  3  1  0
  4  3  2  0
  4  5  1  0
  5  6  2  0
  8  7  1  0
  7 12  2  0
  7 16  1  0
  9  8  2  0
 15  8  1  0
  9 10  1  0
 10 11  2  0
 32 11  1  0
 11 12  1  0
 14 13  1  0
 13 16  2  0
 15 14  2  0
 18 17  1  0
 17 22  1  0
 18 19  1  0
 19 20  1  0
 20 21  1  0
 21 22  1  0
 22 34  1  0
 30 23  1  0
 23 27  1  0
 23 24  1  0
 28 24  1  0
 24 25  2  0
 26 25  1  0
 27 26  2  0
 29 28  1  0
 30 29  2  0
 34 30  1  0
 31 32  1  0
 32 33  2  0
  1 35  1  0
  4 36  1  0
  5 37  1  0
  6 38  1  0
 10 39  1  0
 13 40  1  0
 14 41  1  0
 15 42  1  0
 16 43  1  0
 17 44  1  0
 17 45  1  0
 18 46  1  0
 18 47  1  0
 19 48  1  0
 20 49  1  0
 20 50  1  0
 21 51  1  0
 21 52  1  0
 27 53  1  0
 29 54  1  0
 31 55  1  0
 34 56  1  0
 34 57  1  0
A    1
CAA
A    2
CAB
A    3
CAC
A    4
CAD
A    5
CAE
A    6
CAF
A    7
CAG
A    8
CAH
A    9
NAI
A   10
CAJ
A   11
CAK
A   12
NAL
A   13
CAM
A   14
CAN
A   15
CAO
A   16
CAP
A   17
CAQ
A   18
CAR
A   19
NAS
A   20
CAT
A   21
CAU
A   22
NAV
A   23
NAW
A   24
CAX
A   25
NAY
A   26
CAZ
A   27
CBA
A   28
SBB
A   29
CBC
A   30
CBD
A   31
NBE
A   32
CBF
A   33
OBG
A   34
CBH
M  END
