2B36_5PP_A_290
     RDKit          3D

 39 40  0  0  0  0  0  0  0  0999 V2000
   14.1830    9.6720    9.7680 O   0  0  0  0  0  0  0  0  0  0  0  0
   14.1990   10.9750    9.6000 C   0  0  0  0  0  0  0  0  0  0  0  0
   15.2420   11.6490   10.3420 C   0  0  0  0  0  0  0  0  0  0  0  0
   16.1890   10.8180   10.8950 O   0  0  0  0  0  0  0  0  0  0  0  0
   17.5280   10.9510   10.5850 C   0  0  0  0  0  0  0  0  0  0  0  0
   17.9310   10.8460    9.2440 C   0  0  0  0  0  0  0  0  0  0  0  0
   19.2780   10.6920    8.9370 C   0  0  0  0  0  0  0  0  0  0  0  0
   20.2190   10.6000    9.9640 C   0  0  0  0  0  0  0  0  0  0  0  0
   19.8200   10.6650   11.2930 C   0  0  0  0  0  0  0  0  0  0  0  0
   18.4720   10.8040   11.6020 C   0  0  0  0  0  0  0  0  0  0  0  0
   15.0950   13.0010   10.6580 C   0  0  0  0  0  0  0  0  0  0  0  0
   14.0010   13.7190   10.1610 C   0  0  0  0  0  0  0  0  0  0  0  0
   13.0620   13.0760    9.3530 C   0  0  0  0  0  0  0  0  0  0  0  0
   13.0890   11.7030    9.1670 C   0  0  0  0  0  0  0  0  0  0  0  0
   11.8620   13.8730    8.8690 C   0  0  0  0  0  0  0  0  0  0  0  0
   11.9990   14.1100    7.3450 C   0  0  0  0  0  0  0  0  0  0  0  0
   12.2480   15.5420    6.8870 C   0  0  0  0  0  0  0  0  0  0  0  0
   13.1850   15.5910    5.6600 C   0  0  0  0  0  0  0  0  0  0  0  0
   14.6920   15.8900    5.8940 C   0  0  0  0  0  0  0  0  0  0  0  0
   14.1783    9.2907   10.6816 H   0  0  0  0  0  0  0  0  0  0  0  0
   17.1828   10.8855    8.4386 H   0  0  0  0  0  0  0  0  0  0  0  0
   19.6018   10.6427    7.8869 H   0  0  0  0  0  0  0  0  0  0  0  0
   21.2841   10.4751    9.7191 H   0  0  0  0  0  0  0  0  0  0  0  0
   20.5678   10.6067   12.0976 H   0  0  0  0  0  0  0  0  0  0  0  0
   18.1479   10.7981   12.6531 H   0  0  0  0  0  0  0  0  0  0  0  0
   15.8379   13.5013   11.2966 H   0  0  0  0  0  0  0  0  0  0  0  0
   13.8819   14.7847   10.4060 H   0  0  0  0  0  0  0  0  0  0  0  0
   12.2440   11.1916    8.6828 H   0  0  0  0  0  0  0  0  0  0  0  0
   10.9387   13.3113    9.0738 H   0  0  0  0  0  0  0  0  0  0  0  0
   11.8196   14.8387    9.3940 H   0  0  0  0  0  0  0  0  0  0  0  0
   12.8394   13.4966    6.9880 H   0  0  0  0  0  0  0  0  0  0  0  0
   11.0182   13.8423    6.9250 H   0  0  0  0  0  0  0  0  0  0  0  0
   11.2860   16.0040    6.6204 H   0  0  0  0  0  0  0  0  0  0  0  0
   12.7307   16.0880    7.7109 H   0  0  0  0  0  0  0  0  0  0  0  0
   13.1209   14.6122    5.1622 H   0  0  0  0  0  0  0  0  0  0  0  0
   12.8250   16.4524    5.0783 H   0  0  0  0  0  0  0  0  0  0  0  0
   14.8944   15.9302    6.9745 H   0  0  0  0  0  0  0  0  0  0  0  0
   15.2989   15.0948    5.4366 H   0  0  0  0  0  0  0  0  0  0  0  0
   14.9494   16.8567    5.4366 H   0  0  0  0  0  0  0  0  0  0  0  0
  1  2  1  0
  2  3  2  0
  2 14  1  0
  3  4  1  0
  3 11  1  0
  4  5  1  0
  5  6  2  0
  5 10  1  0
  6  7  1  0
  7  8  2  0
  8  9  1  0
  9 10  2  0
 11 12  2  0
 12 13  1  0
 13 14  2  0
 13 15  1  0
 15 16  1  0
 16 17  1  0
 17 18  1  0
 18 19  1  0
  1 20  1  0
  6 21  1  0
  7 22  1  0
  8 23  1  0
  9 24  1  0
 10 25  1  0
 11 26  1  0
 12 27  1  0
 14 28  1  0
 15 29  1  0
 15 30  1  0
 16 31  1  0
 16 32  1  0
 17 33  1  0
 17 34  1  0
 18 35  1  0
 18 36  1  0
 19 37  1  0
 19 38  1  0
 19 39  1  0
A    1
O17
A    2
C6
A    3
C5
A    4
O7
A    5
C8
A    6
C13
A    7
C12
A    8
C11
A    9
C10
A   10
C9
A   11
C4
A   12
C3
A   13
C2
A   14
C1
A   15
C14
A   16
C15
A   17
C16
A   18
C17
A   19
C18
M  END
