4OIM_JUS_A_302
     RDKit          3D

 43 44  0  0  0  0  0  0  0  0999 V2000
    2.9850  -16.0630   12.2230 C   0  0  0  0  0  0  0  0  0  0  0  0
    2.5540  -16.1660   13.5600 C   0  0  0  0  0  0  0  0  0  0  0  0
    2.6890  -17.4000   14.2990 C   0  0  0  0  0  0  0  0  0  0  0  0
    3.2510  -18.5240   13.6540 C   0  0  0  0  0  0  0  0  0  0  0  0
    3.6640  -18.4220   12.3460 C   0  0  0  0  0  0  0  0  0  0  0  0
    3.5270  -17.1550   11.6050 C   0  0  0  0  0  0  0  0  0  0  0  0
    5.5940  -19.5420   11.6320 C   0  0  0  0  0  0  0  0  0  0  0  0
    6.3590  -18.5810   12.2270 C   0  0  0  0  0  0  0  0  0  0  0  0
    7.7610  -18.6450   12.1220 C   0  0  0  0  0  0  0  0  0  0  0  0
    8.3950  -19.7240   11.4190 C   0  0  0  0  0  0  0  0  0  0  0  0
    7.6060  -20.7300   10.8230 C   0  0  0  0  0  0  0  0  0  0  0  0
    6.2460  -20.6500   10.9110 C   0  0  0  0  0  0  0  0  0  0  0  0
    1.9870  -14.9470   14.2720 C   0  0  0  0  0  0  0  0  0  0  0  0
    3.0280  -14.3050   15.1840 C   0  0  0  0  0  0  0  0  0  0  0  0
    2.6100  -13.1370   16.0580 C   0  0  0  0  0  0  0  0  0  0  0  0
    3.7420  -12.5000   16.8550 C   0  0  0  0  0  0  0  0  0  0  0  0
    5.1070  -12.4570   16.1750 C   0  0  0  0  0  0  0  0  0  0  0  0
    5.9730  -11.2400   16.4710 C   0  0  0  0  0  0  0  0  0  0  0  0
    5.3390  -21.6950   10.2800 C   0  0  0  0  0  0  0  0  0  0  0  0
    3.9670  -17.0870   10.2740 O   0  0  0  0  0  0  0  0  0  0  0  0
    4.6000  -22.5440    9.7640 N   0  0  0  0  0  0  0  0  0  0  0  0
    4.1940  -19.5460   11.6930 O   0  0  0  0  0  0  0  0  0  0  0  0
    2.8862  -15.1112   11.6805 H   0  0  0  0  0  0  0  0  0  0  0  0
    2.3596  -17.4632   15.3466 H   0  0  0  0  0  0  0  0  0  0  0  0
    3.3578  -19.4758   14.1949 H   0  0  0  0  0  0  0  0  0  0  0  0
    5.8827  -17.7615   12.7852 H   0  0  0  0  0  0  0  0  0  0  0  0
    8.3776  -17.8597   12.5836 H   0  0  0  0  0  0  0  0  0  0  0  0
    9.4917  -19.7662   11.3453 H   0  0  0  0  0  0  0  0  0  0  0  0
    8.0810  -21.5691   10.2935 H   0  0  0  0  0  0  0  0  0  0  0  0
    1.6654  -14.2105   13.5209 H   0  0  0  0  0  0  0  0  0  0  0  0
    1.1357  -15.2697   14.8893 H   0  0  0  0  0  0  0  0  0  0  0  0
    3.4016  -15.0933   15.8540 H   0  0  0  0  0  0  0  0  0  0  0  0
    3.7602  -13.8693   14.4883 H   0  0  0  0  0  0  0  0  0  0  0  0
    2.1704  -12.3644   15.4100 H   0  0  0  0  0  0  0  0  0  0  0  0
    1.8997  -13.5396   16.7952 H   0  0  0  0  0  0  0  0  0  0  0  0
    3.4491  -11.4648   17.0843 H   0  0  0  0  0  0  0  0  0  0  0  0
    3.8749  -13.1410   17.7390 H   0  0  0  0  0  0  0  0  0  0  0  0
    5.6662  -13.3503   16.4902 H   0  0  0  0  0  0  0  0  0  0  0  0
    4.8948  -12.4093   15.0967 H   0  0  0  0  0  0  0  0  0  0  0  0
    6.0646  -11.1112   17.5596 H   0  0  0  0  0  0  0  0  0  0  0  0
    6.9718  -11.3855   16.0336 H   0  0  0  0  0  0  0  0  0  0  0  0
    5.5082  -10.3441   16.0336 H   0  0  0  0  0  0  0  0  0  0  0  0
    4.9257  -16.9388   10.0765 H   0  0  0  0  0  0  0  0  0  0  0  0
  1  2  2  0
  1  6  1  0
  2  3  1  0
  2 13  1  0
  3  4  2  0
  4  5  1  0
  5  6  2  0
  5 22  1  0
  6 20  1  0
  7  8  2  0
  7 12  1  0
  7 22  1  0
  8  9  1  0
  9 10  2  0
 10 11  1  0
 11 12  2  0
 12 19  1  0
 13 14  1  0
 14 15  1  0
 15 16  1  0
 16 17  1  0
 17 18  1  0
 19 21  3  0
  1 23  1  0
  3 24  1  0
  4 25  1  0
  8 26  1  0
  9 27  1  0
 10 28  1  0
 11 29  1  0
 13 30  1  0
 13 31  1  0
 14 32  1  0
 14 33  1  0
 15 34  1  0
 15 35  1  0
 16 36  1  0
 16 37  1  0
 17 38  1  0
 17 39  1  0
 18 40  1  0
 18 41  1  0
 18 42  1  0
 20 43  1  0
A    1
C1
A    2
C2
A    3
C3
A    4
C4
A    5
C5
A    6
C6
A    7
C8
A    8
C9
A    9
C10
A   10
C11
A   11
C12
A   12
C13
A   13
C14
A   14
C15
A   15
C16
A   16
C17
A   17
C18
A   18
C19
A   19
CAD
A   20
O17
A   21
NAB
A   22
O7
M  END
