4BNU_9KQ_B_1248
     RDKit          3D

 32 35  0  0  0  0  0  0  0  0999 V2000
   -7.6830   -1.9570   39.9740 N   0  0  0  0  0  0  0  0  0  0  0  0
   -8.8770   -1.3620   40.1590 C   0  0  0  0  0  0  0  0  0  0  0  0
   -9.0450   -0.0370   39.8710 N   0  0  0  0  0  0  0  0  0  0  0  0
   -8.0030    0.6860   39.3690 C   0  0  0  0  0  0  0  0  0  0  0  0
   -6.7650    0.0970   39.1790 C   0  0  0  0  0  0  0  0  0  0  0  0
   -6.5880   -1.2770   39.4760 C   0  0  0  0  0  0  0  0  0  0  0  0
   -8.1870    2.0380   39.1030 C   0  0  0  0  0  0  0  0  0  0  0  0
   -7.1740    2.8230   38.6000 C   0  0  0  0  0  0  0  0  0  0  0  0
   -5.9400    2.2380   38.3910 C   0  0  0  0  0  0  0  0  0  0  0  0
   -5.7560    0.9020   38.6740 C   0  0  0  0  0  0  0  0  0  0  0  0
   -9.7870   -3.3920   41.1510 C   0  0  0  0  0  0  0  0  0  0  0  0
  -10.8860   -4.0790   41.6650 C   0  0  0  0  0  0  0  0  0  0  0  0
  -12.1250   -3.4940   41.6990 C   0  0  0  0  0  0  0  0  0  0  0  0
  -12.2840   -2.1980   41.2380 C   0  0  0  0  0  0  0  0  0  0  0  0
  -11.2020   -1.5090   40.7380 C   0  0  0  0  0  0  0  0  0  0  0  0
   -9.9540   -2.0970   40.6730 C   0  0  0  0  0  0  0  0  0  0  0  0
   -4.1190   -1.7250   38.9760 C   0  0  0  0  0  0  0  0  0  0  0  0
   -5.4120   -1.9700   39.3100 N   0  0  0  0  0  0  0  0  0  0  0  0
   -5.3950   -3.3090   39.5590 C   0  0  0  0  0  0  0  0  0  0  0  0
   -4.1710   -3.8390   39.3850 N   0  0  0  0  0  0  0  0  0  0  0  0
   -3.4260   -2.9020   39.0400 N   0  0  0  0  0  0  0  0  0  0  0  0
   -9.1689    2.4931   39.2998 H   0  0  0  0  0  0  0  0  0  0  0  0
   -7.3423    3.8857   38.3711 H   0  0  0  0  0  0  0  0  0  0  0  0
   -5.1054    2.8379   37.9992 H   0  0  0  0  0  0  0  0  0  0  0  0
   -4.7672    0.4558   38.4915 H   0  0  0  0  0  0  0  0  0  0  0  0
   -8.7967   -3.8702   41.1239 H   0  0  0  0  0  0  0  0  0  0  0  0
  -10.7572   -5.1022   42.0476 H   0  0  0  0  0  0  0  0  0  0  0  0
  -12.9888   -4.0513   42.0906 H   0  0  0  0  0  0  0  0  0  0  0  0
  -13.2739   -1.7194   41.2712 H   0  0  0  0  0  0  0  0  0  0  0  0
  -11.3334   -0.4754   40.3852 H   0  0  0  0  0  0  0  0  0  0  0  0
   -3.7001   -0.7459   38.7007 H   0  0  0  0  0  0  0  0  0  0  0  0
   -6.2780   -3.8886   39.8661 H   0  0  0  0  0  0  0  0  0  0  0  0
  1  2  2  0
  1  6  1  0
  2  3  1  0
  2 16  1  0
  3  4  2  0
  4  5  1  0
  4  7  1  0
  5  6  2  0
  5 10  1  0
  6 18  1  0
  7  8  2  0
  8  9  1  0
  9 10  2  0
 11 12  2  0
 11 16  1  0
 12 13  1  0
 13 14  2  0
 14 15  1  0
 15 16  2  0
 17 18  1  0
 17 21  2  0
 18 19  1  0
 19 20  2  0
 20 21  1  0
  7 22  1  0
  8 23  1  0
  9 24  1  0
 10 25  1  0
 11 26  1  0
 12 27  1  0
 13 28  1  0
 14 29  1  0
 15 30  1  0
 17 31  1  0
 19 32  1  0
A    1
N1
A    2
C2
A    3
N3
A    4
C4
A    5
C5
A    6
C6
A    7
CAA
A    8
CAB
A    9
CAC
A   10
CAD
A   11
CAK
A   12
CAL
A   13
CAM
A   14
CAN
A   15
CAO
A   16
CAP
A   17
CAQ
A   18
NAQ
A   19
CAR
A   20
NAS
A   21
NAT
M  END
