4BNZ_8M5_A_1248
     RDKit          3D

 33 35  0  0  0  0  0  0  0  0999 V2000
  -11.6930   -3.7300  -32.1410 C   0  0  0  0  0  0  0  0  0  0  0  0
  -10.5020   -4.4120  -32.1580 C   0  0  0  0  0  0  0  0  0  0  0  0
   -9.4190   -3.7950  -32.6160 C   0  0  0  0  0  0  0  0  0  0  0  0
   -9.4140   -2.5370  -33.0700 C   0  0  0  0  0  0  0  0  0  0  0  0
  -10.5290   -1.8340  -33.0860 C   0  0  0  0  0  0  0  0  0  0  0  0
  -11.7010   -2.4170  -32.6180 C   0  0  0  0  0  0  0  0  0  0  0  0
   -7.4020   -3.3350  -33.2670 C   0  0  0  0  0  0  0  0  0  0  0  0
   -7.6290   -5.6600  -32.4060 C   0  0  0  0  0  0  0  0  0  0  0  0
   -8.1820   -4.2820  -32.7570 N   0  0  0  0  0  0  0  0  0  0  0  0
   -4.5080   -0.2150  -35.3210 C   0  0  0  0  0  0  0  0  0  0  0  0
   -3.8490    0.8890  -35.8670 C   0  0  0  0  0  0  0  0  0  0  0  0
   -4.4370    2.1750  -35.8300 C   0  0  0  0  0  0  0  0  0  0  0  0
   -5.6780    2.3910  -35.2460 C   0  0  0  0  0  0  0  0  0  0  0  0
   -6.3380    1.2860  -34.7130 C   0  0  0  0  0  0  0  0  0  0  0  0
   -5.7550   -0.0130  -34.7480 C   0  0  0  0  0  0  0  0  0  0  0  0
   -7.7000   -1.1060  -33.9300 C   0  0  0  0  0  0  0  0  0  0  0  0
   -6.3460   -1.1150  -34.2710 N   0  0  0  0  0  0  0  0  0  0  0  0
   -8.4120   -0.0930  -33.8420 O   0  0  0  0  0  0  0  0  0  0  0  0
   -8.1690   -2.2660  -33.4650 C   0  0  0  0  0  0  0  0  0  0  0  0
  -12.6120   -4.2023  -31.7638 H   0  0  0  0  0  0  0  0  0  0  0  0
  -10.4457   -5.4502  -31.7990 H   0  0  0  0  0  0  0  0  0  0  0  0
  -10.5320   -0.8011  -33.4642 H   0  0  0  0  0  0  0  0  0  0  0  0
  -12.6387   -1.8420  -32.6233 H   0  0  0  0  0  0  0  0  0  0  0  0
   -6.3269   -3.4188  -33.4842 H   0  0  0  0  0  0  0  0  0  0  0  0
   -7.5850   -5.7697  -31.3124 H   0  0  0  0  0  0  0  0  0  0  0  0
   -8.2852   -6.4364  -32.8263 H   0  0  0  0  0  0  0  0  0  0  0  0
   -6.6181   -5.7674  -32.8263 H   0  0  0  0  0  0  0  0  0  0  0  0
   -4.0514   -1.2155  -35.3447 H   0  0  0  0  0  0  0  0  0  0  0  0
   -2.8607    0.7567  -36.3314 H   0  0  0  0  0  0  0  0  0  0  0  0
   -3.8980    3.0245  -36.2747 H   0  0  0  0  0  0  0  0  0  0  0  0
   -6.1230    3.3962  -35.2057 H   0  0  0  0  0  0  0  0  0  0  0  0
   -7.3296    1.4195  -34.2558 H   0  0  0  0  0  0  0  0  0  0  0  0
   -5.7966   -1.9784  -34.1543 H   0  0  0  0  0  0  0  0  0  0  0  0
  1  2  2  0
  1  6  1  0
  2  3  1  0
  3  4  2  0
  3  9  1  0
  4  5  1  0
  4 19  1  0
  5  6  2  0
  7  9  1  0
  7 19  2  0
  8  9  1  0
 10 11  2  0
 10 15  1  0
 11 12  1  0
 12 13  2  0
 13 14  1  0
 14 15  2  0
 15 17  1  0
 16 17  1  0
 16 18  2  0
 16 19  1  0
  1 20  1  0
  2 21  1  0
  5 22  1  0
  6 23  1  0
  7 24  1  0
  8 25  1  0
  8 26  1  0
  8 27  1  0
 10 28  1  0
 11 29  1  0
 12 30  1  0
 13 31  1  0
 14 32  1  0
 17 33  1  0
A    1
C1
A    2
C2
A    3
C3
A    4
C4
A    5
C5
A    6
C6
A    7
C15
A    8
C18
A    9
N19
A   10
C24
A   11
C25
A   12
C26
A   13
C27
A   14
C28
A   15
C29
A   16
C33
A   17
N35
A   18
O37
A   19
CAE
M  END
