4BO1_NKH_B_1248
     RDKit          3D

 39 41  0  0  0  0  0  0  0  0999 V2000
   -6.6070   -7.0780  -33.6510 C   0  0  0  0  0  0  0  0  0  0  0  0
   -6.7960   -5.8990  -32.8850 O   0  0  0  0  0  0  0  0  0  0  0  0
   -8.1100   -5.7080  -32.6900 C   0  0  0  0  0  0  0  0  0  0  0  0
   -8.9270   -6.7090  -32.2010 C   0  0  0  0  0  0  0  0  0  0  0  0
  -10.2710   -6.4440  -31.9960 C   0  0  0  0  0  0  0  0  0  0  0  0
  -11.3050   -7.7370  -31.3760 Cl  0  0  0  0  0  0  0  0  0  0  0  0
  -10.7590   -5.1660  -32.3100 C   0  0  0  0  0  0  0  0  0  0  0  0
  -12.0830   -4.9550  -32.0680 O   0  0  0  0  0  0  0  0  0  0  0  0
  -12.5300   -3.9150  -32.9090 C   0  0  0  0  0  0  0  0  0  0  0  0
   -9.9230   -4.1750  -32.8120 C   0  0  0  0  0  0  0  0  0  0  0  0
   -8.5710   -4.4480  -32.9980 C   0  0  0  0  0  0  0  0  0  0  0  0
   -7.6010   -3.6230  -33.4740 N   0  0  0  0  0  0  0  0  0  0  0  0
   -7.8570   -2.3640  -33.9180 C   0  0  0  0  0  0  0  0  0  0  0  0
   -8.9530   -1.7970  -33.8990 O   0  0  0  0  0  0  0  0  0  0  0  0
   -6.7450   -1.6460  -34.3700 C   0  0  0  0  0  0  0  0  0  0  0  0
   -5.5000   -2.2260  -34.5360 C   0  0  0  0  0  0  0  0  0  0  0  0
   -5.3260   -3.5180  -34.2460 N   0  0  0  0  0  0  0  0  0  0  0  0
   -4.0840   -4.1390  -34.4290 C   0  0  0  0  0  0  0  0  0  0  0  0
   -2.9990   -3.4100  -34.8520 C   0  0  0  0  0  0  0  0  0  0  0  0
   -3.1860   -2.0710  -35.1370 C   0  0  0  0  0  0  0  0  0  0  0  0
   -4.4290   -1.4790  -34.9720 C   0  0  0  0  0  0  0  0  0  0  0  0
   -4.5820   -0.1250  -35.2470 C   0  0  0  0  0  0  0  0  0  0  0  0
   -5.8320    0.4540  -35.0820 C   0  0  0  0  0  0  0  0  0  0  0  0
   -6.9060   -0.3100  -34.6370 C   0  0  0  0  0  0  0  0  0  0  0  0
   -6.4695   -7.9357  -32.9761 H   0  0  0  0  0  0  0  0  0  0  0  0
   -7.4893   -7.2484  -34.2854 H   0  0  0  0  0  0  0  0  0  0  0  0
   -5.7156   -6.9641  -34.2854 H   0  0  0  0  0  0  0  0  0  0  0  0
   -8.5153   -7.7042  -31.9772 H   0  0  0  0  0  0  0  0  0  0  0  0
  -12.8904   -3.0764  -32.2952 H   0  0  0  0  0  0  0  0  0  0  0  0
  -11.6990   -3.5740  -33.5439 H   0  0  0  0  0  0  0  0  0  0  0  0
  -13.3493   -4.2834  -33.5439 H   0  0  0  0  0  0  0  0  0  0  0  0
  -10.3271   -3.1825  -33.0603 H   0  0  0  0  0  0  0  0  0  0  0  0
   -6.6304   -3.9667  -33.4993 H   0  0  0  0  0  0  0  0  0  0  0  0
   -3.9767   -5.2161  -34.2330 H   0  0  0  0  0  0  0  0  0  0  0  0
   -2.0099   -3.8789  -34.9607 H   0  0  0  0  0  0  0  0  0  0  0  0
   -2.3399   -1.4683  -35.4986 H   0  0  0  0  0  0  0  0  0  0  0  0
   -3.7272    0.4767  -35.5894 H   0  0  0  0  0  0  0  0  0  0  0  0
   -5.9744    1.5219  -35.3040 H   0  0  0  0  0  0  0  0  0  0  0  0
   -7.8907    0.1602  -34.4983 H   0  0  0  0  0  0  0  0  0  0  0  0
  1  2  1  0
  2  3  1  0
  3  4  2  0
  3 11  1  0
  4  5  1  0
  5  6  1  0
  5  7  2  0
  7  8  1  0
  7 10  1  0
  8  9  1  0
 10 11  2  0
 11 12  1  0
 12 13  1  0
 13 14  2  0
 13 15  1  0
 15 16  1  0
 15 24  2  0
 16 17  2  0
 16 21  1  0
 17 18  1  0
 18 19  2  0
 19 20  1  0
 20 21  2  0
 21 22  1  0
 22 23  2  0
 23 24  1  0
  1 25  1  0
  1 26  1  0
  1 27  1  0
  4 28  1  0
  9 29  1  0
  9 30  1  0
  9 31  1  0
 10 32  1  0
 12 33  1  0
 18 34  1  0
 19 35  1  0
 20 36  1  0
 22 37  1  0
 23 38  1  0
 24 39  1  0
A    1
CAR
A    2
OAQ
A    3
CAP
A    4
CAU
A    5
CAT
A    6
CL
A    7
CAS
A    8
OAV
A    9
CAX
A   10
CAN
A   11
CAO
A   12
NAM
A   13
CAK
A   14
OAL
A   15
CAG
A   16
CAH
A   17
NAI
A   18
CAJ
A   19
CAE
A   20
CAD
A   21
CAC
A   22
CAB
A   23
CAA
A   24
CAF
M  END
