4BO2_36K_A_1248
     RDKit          3D

 41 43  0  0  0  0  0  0  0  0999 V2000
    9.6790  102.0330  183.2980 C   0  0  0  0  0  0  0  0  0  0  0  0
   10.1140  102.8690  182.0550 C   0  0  0  0  0  0  0  0  0  0  0  0
   11.0720  103.9870  182.4300 N   0  0  0  0  0  0  0  0  0  0  0  0
   12.3720  103.8540  182.1710 C   0  0  0  0  0  0  0  0  0  0  0  0
   13.0320  102.8810  181.6140 C   0  0  0  0  0  0  0  0  0  0  0  0
   14.3840  103.0300  181.4430 C   0  0  0  0  0  0  0  0  0  0  0  0
   15.0590  104.1400  181.8750 C   0  0  0  0  0  0  0  0  0  0  0  0
   14.3210  105.1110  182.4450 C   0  0  0  0  0  0  0  0  0  0  0  0
   13.0320  104.9460  182.5680 C   0  0  0  0  0  0  0  0  0  0  0  0
   12.1820  105.7740  183.0780 N   0  0  0  0  0  0  0  0  0  0  0  0
   10.9830  105.1820  183.0160 C   0  0  0  0  0  0  0  0  0  0  0  0
    9.9230  105.8420  183.4990 N   0  0  0  0  0  0  0  0  0  0  0  0
    8.7560  105.2200  183.7510 C   0  0  0  0  0  0  0  0  0  0  0  0
    8.5510  104.0200  183.5220 O   0  0  0  0  0  0  0  0  0  0  0  0
    7.8240  106.0230  184.2880 N   0  0  0  0  0  0  0  0  0  0  0  0
    8.1260  107.3120  184.4550 C   0  0  0  0  0  0  0  0  0  0  0  0
    9.3040  107.8840  184.0420 C   0  0  0  0  0  0  0  0  0  0  0  0
    9.5030  109.2340  184.2590 C   0  0  0  0  0  0  0  0  0  0  0  0
    8.5240  110.0140  184.8880 C   0  0  0  0  0  0  0  0  0  0  0  0
    7.3360  109.4460  185.3150 C   0  0  0  0  0  0  0  0  0  0  0  0
    7.1660  108.0850  185.0770 C   0  0  0  0  0  0  0  0  0  0  0  0
    6.0550  107.4230  185.4450 O   0  0  0  0  0  0  0  0  0  0  0  0
    6.3880  106.0190  185.5130 C   0  0  0  0  0  0  0  0  0  0  0  0
    9.9582  102.5696  184.2167 H   0  0  0  0  0  0  0  0  0  0  0  0
    8.5893  101.8845  183.2769 H   0  0  0  0  0  0  0  0  0  0  0  0
   10.1828  101.0554  183.2769 H   0  0  0  0  0  0  0  0  0  0  0  0
   10.6103  102.2024  181.3343 H   0  0  0  0  0  0  0  0  0  0  0  0
    9.2128  103.3248  181.6189 H   0  0  0  0  0  0  0  0  0  0  0  0
   12.5191  101.9637  181.2891 H   0  0  0  0  0  0  0  0  0  0  0  0
   14.9465  102.2292  180.9408 H   0  0  0  0  0  0  0  0  0  0  0  0
   16.1492  104.2337  181.7621 H   0  0  0  0  0  0  0  0  0  0  0  0
   14.7995  106.0343  182.8035 H   0  0  0  0  0  0  0  0  0  0  0  0
   10.0025  106.8524  183.6826 H   0  0  0  0  0  0  0  0  0  0  0  0
    6.9023  105.6548  184.5632 H   0  0  0  0  0  0  0  0  0  0  0  0
   10.0765  107.2775  183.5466 H   0  0  0  0  0  0  0  0  0  0  0  0
   10.4433  109.7028  183.9333 H   0  0  0  0  0  0  0  0  0  0  0  0
    8.7010  111.0884  185.0441 H   0  0  0  0  0  0  0  0  0  0  0  0
    6.5617  110.0428  185.8193 H   0  0  0  0  0  0  0  0  0  0  0  0
    6.4613  105.7101  186.5662 H   0  0  0  0  0  0  0  0  0  0  0  0
    5.6043  105.4316  185.0123 H   0  0  0  0  0  0  0  0  0  0  0  0
    7.3521  105.8461  185.0123 H   0  0  0  0  0  0  0  0  0  0  0  0
  1  2  1  0
  2  3  1  0
  3  4  1  0
  3 11  1  0
  4  5  2  0
  4  9  1  0
  5  6  1  0
  6  7  2  0
  7  8  1  0
  8  9  2  0
  9 10  1  0
 10 11  2  0
 11 12  1  0
 12 13  1  0
 13 14  2  0
 13 15  1  0
 15 16  1  0
 16 17  2  0
 16 21  1  0
 17 18  1  0
 18 19  2  0
 19 20  1  0
 20 21  2  0
 21 22  1  0
 22 23  1  0
  1 24  1  0
  1 25  1  0
  1 26  1  0
  2 27  1  0
  2 28  1  0
  5 29  1  0
  6 30  1  0
  7 31  1  0
  8 32  1  0
 12 33  1  0
 15 34  1  0
 17 35  1  0
 18 36  1  0
 19 37  1  0
 20 38  1  0
 23 39  1  0
 23 40  1  0
 23 41  1  0
A    1
CAF
A    2
CAE
A    3
NAD
A    4
CAC
A    5
CAB
A    6
CAA
A    7
CAI
A    8
CAJ
A    9
CAK
A   10
NAL
A   11
CAM
A   12
NAN
A   13
CAO
A   14
OAT
A   15
NAP
A   16
CAQ
A   17
CAU
A   18
CAV
A   19
CAW
A   20
CAS
A   21
CAR
A   22
OAG
A   23
CAH
M  END
