4BO3_U98_A_1248
     RDKit          3D

 31 32  0  0  0  0  0  0  0  0999 V2000
  -10.6240   -8.9220  -32.6650 N   0  0  0  0  0  0  0  0  0  0  0  0
   -6.3350   -1.2180  -34.4130 F   0  0  0  0  0  0  0  0  0  0  0  0
  -11.5370   -7.7900  -30.3920 O   0  0  0  0  0  0  0  0  0  0  0  0
  -10.5670   -7.6340  -31.5400 S   0  0  0  0  0  0  0  0  0  0  0  0
   -9.1470   -7.5360  -30.9940 O   0  0  0  0  0  0  0  0  0  0  0  0
   -8.2120   -1.4930  -35.7640 F   0  0  0  0  0  0  0  0  0  0  0  0
   -6.7470   -1.9610  -35.3000 C   0  0  0  0  0  0  0  0  0  0  0  0
   -6.7150   -3.3000  -34.8120 C   0  0  0  0  0  0  0  0  0  0  0  0
   -7.8090   -3.8690  -34.1610 C   0  0  0  0  0  0  0  0  0  0  0  0
   -7.7910   -5.1860  -33.6940 C   0  0  0  0  0  0  0  0  0  0  0  0
   -8.8070   -5.8380  -33.0450 N   0  0  0  0  0  0  0  0  0  0  0  0
  -10.0950   -5.4140  -32.9900 C   0  0  0  0  0  0  0  0  0  0  0  0
  -11.0110   -6.2120  -32.3020 C   0  0  0  0  0  0  0  0  0  0  0  0
  -12.3610   -5.8590  -32.1860 C   0  0  0  0  0  0  0  0  0  0  0  0
   -5.9320   -1.8560  -36.3170 F   0  0  0  0  0  0  0  0  0  0  0  0
   -5.5510   -4.0620  -34.9740 C   0  0  0  0  0  0  0  0  0  0  0  0
   -5.5260   -5.3700  -34.5070 C   0  0  0  0  0  0  0  0  0  0  0  0
   -6.6290   -5.9140  -33.8720 C   0  0  0  0  0  0  0  0  0  0  0  0
  -10.5230   -4.2990  -33.5400 N   0  0  0  0  0  0  0  0  0  0  0  0
  -11.8710   -3.9240  -33.4520 C   0  0  0  0  0  0  0  0  0  0  0  0
  -12.8000   -4.6910  -32.7710 C   0  0  0  0  0  0  0  0  0  0  0  0
  -10.6637   -9.8183  -32.1590 H   0  0  0  0  0  0  0  0  0  0  0  0
  -11.4615   -8.8243  -33.2566 H   0  0  0  0  0  0  0  0  0  0  0  0
   -8.7142   -3.2624  -34.0104 H   0  0  0  0  0  0  0  0  0  0  0  0
   -8.5751   -6.7176  -32.5618 H   0  0  0  0  0  0  0  0  0  0  0  0
  -13.0612   -6.5048  -31.6358 H   0  0  0  0  0  0  0  0  0  0  0  0
   -4.6669   -3.6297  -35.4653 H   0  0  0  0  0  0  0  0  0  0  0  0
   -4.6205   -5.9796  -34.6432 H   0  0  0  0  0  0  0  0  0  0  0  0
   -6.5801   -6.9483  -33.5008 H   0  0  0  0  0  0  0  0  0  0  0  0
  -12.1996   -2.9936  -33.9381 H   0  0  0  0  0  0  0  0  0  0  0  0
  -13.8524   -4.3792  -32.6991 H   0  0  0  0  0  0  0  0  0  0  0  0
  1  4  1  0
  2  7  1  0
  3  4  2  0
  4  5  2  0
  4 13  1  0
  6  7  1  0
  7  8  1  0
  7 15  1  0
  8  9  2  0
  8 16  1  0
  9 10  1  0
 10 11  1  0
 10 18  2  0
 11 12  1  0
 12 13  2  0
 12 19  1  0
 13 14  1  0
 14 21  2  0
 16 17  2  0
 17 18  1  0
 19 20  2  0
 20 21  1  0
  1 22  1  0
  1 23  1  0
  9 24  1  0
 11 25  1  0
 14 26  1  0
 16 27  1  0
 17 28  1  0
 18 29  1  0
 20 30  1  0
 21 31  1  0
A    1
NAA
A    2
FAB
A    3
OAC
A    4
SAD
A    5
OAE
A    6
FAF
A    7
CAG
A    8
CAH
A    9
CAI
A   10
CAJ
A   11
NAK
A   12
CAL
A   13
CAM
A   14
CAN
A   15
FAO
A   16
CAP
A   17
CAQ
A   18
CAR
A   19
NAS
A   20
CAT
A   21
CAU
M  END
