4BO7_J2T_A_1248
     RDKit          3D

 31 34  0  0  0  0  0  0  0  0999 V2000
  -10.5220   -6.8860  -32.1510 N   0  0  0  0  0  0  0  0  0  0  0  0
   -9.2470   -6.8260  -32.5130 C   0  0  0  0  0  0  0  0  0  0  0  0
   -8.2560   -7.6990  -32.4740 C   0  0  0  0  0  0  0  0  0  0  0  0
   -7.0010   -7.3110  -32.9330 C   0  0  0  0  0  0  0  0  0  0  0  0
   -4.1740   -4.1170  -34.9070 C   0  0  0  0  0  0  0  0  0  0  0  0
   -4.0130   -2.8410  -35.4390 C   0  0  0  0  0  0  0  0  0  0  0  0
   -5.0280   -1.9810  -35.4320 C   0  0  0  0  0  0  0  0  0  0  0  0
   -5.0930   -0.6790  -35.9020 C   0  0  0  0  0  0  0  0  0  0  0  0
   -6.2790   -0.0200  -35.1900 C   0  0  0  0  0  0  0  0  0  0  0  0
  -11.0180   -5.7880  -32.4000 N   0  0  0  0  0  0  0  0  0  0  0  0
  -10.0950   -4.9930  -32.9200 N   0  0  0  0  0  0  0  0  0  0  0  0
   -9.0010   -5.6120  -32.9880 N   0  0  0  0  0  0  0  0  0  0  0  0
   -7.8650   -5.1880  -33.4290 N   0  0  0  0  0  0  0  0  0  0  0  0
   -6.8160   -6.0260  -33.4290 C   0  0  0  0  0  0  0  0  0  0  0  0
   -5.5920   -5.6820  -33.8620 N   0  0  0  0  0  0  0  0  0  0  0  0
   -5.4070   -4.4710  -34.3790 C   0  0  0  0  0  0  0  0  0  0  0  0
   -6.4270   -3.5420  -34.4060 C   0  0  0  0  0  0  0  0  0  0  0  0
   -6.2230   -2.3270  -34.9270 C   0  0  0  0  0  0  0  0  0  0  0  0
   -7.1150   -1.2440  -35.0490 C   0  0  0  0  0  0  0  0  0  0  0  0
   -8.4202   -8.7149  -32.0854 H   0  0  0  0  0  0  0  0  0  0  0  0
   -6.1590   -8.0182  -32.9034 H   0  0  0  0  0  0  0  0  0  0  0  0
   -3.3382   -4.8322  -34.9052 H   0  0  0  0  0  0  0  0  0  0  0  0
   -3.0442   -2.5429  -35.8663 H   0  0  0  0  0  0  0  0  0  0  0  0
   -4.1620   -0.1426  -35.6662 H   0  0  0  0  0  0  0  0  0  0  0  0
   -5.2209   -0.6556  -36.9943 H   0  0  0  0  0  0  0  0  0  0  0  0
   -5.9984    0.4113  -34.2178 H   0  0  0  0  0  0  0  0  0  0  0  0
   -6.7443    0.8357  -35.7012 H   0  0  0  0  0  0  0  0  0  0  0  0
   -4.8080   -6.3466  -33.7945 H   0  0  0  0  0  0  0  0  0  0  0  0
   -7.4142   -3.8023  -33.9965 H   0  0  0  0  0  0  0  0  0  0  0  0
   -7.7479   -1.1704  -34.1524 H   0  0  0  0  0  0  0  0  0  0  0  0
   -7.7801   -1.3728  -35.9156 H   0  0  0  0  0  0  0  0  0  0  0  0
  1 10  1  0
  1  2  2  0
  2  3  1  0
  2 12  1  0
  3  4  2  0
  4 14  1  0
 16  5  2  0
  5  6  1  0
  7  6  2  0
 18  7  1  0
  7  8  1  0
  9  8  1  0
 19  9  1  0
 10 11  2  0
 11 12  1  0
 12 13  1  0
 13 14  2  0
 14 15  1  0
 15 16  1  0
 16 17  1  0
 17 18  2  0
 18 19  1  0
  3 20  1  0
  4 21  1  0
  5 22  1  0
  6 23  1  0
  8 24  1  0
  8 25  1  0
  9 26  1  0
  9 27  1  0
 15 28  1  0
 17 29  1  0
 19 30  1  0
 19 31  1  0
A    1
NAA
A    2
CAB
A    3
CAC
A    4
CAD
A    5
CAE
A    6
CAF
A    7
CAG
A    8
CAH
A    9
CAI
A   10
NAJ
A   11
NAK
A   12
NAL
A   13
NAM
A   14
CAN
A   15
NAO
A   16
CAP
A   17
CAQ
A   18
CAR
A   19
CAS
M  END
