4BO8_34X_B_1248
     RDKit          3D

 37 39  0  0  0  0  0  0  0  0999 V2000
   -3.4360    0.9650  -36.1930 F   0  0  0  0  0  0  0  0  0  0  0  0
   -4.5210    1.0560  -35.8330 C   0  0  0  0  0  0  0  0  0  0  0  0
   -5.1460    2.2990  -35.9130 C   0  0  0  0  0  0  0  0  0  0  0  0
   -6.4390    2.4360  -35.4700 C   0  0  0  0  0  0  0  0  0  0  0  0
   -7.0920    1.3240  -34.9620 C   0  0  0  0  0  0  0  0  0  0  0  0
   -6.4510    0.1020  -34.8960 C   0  0  0  0  0  0  0  0  0  0  0  0
   -5.1360   -0.0900  -35.3510 C   0  0  0  0  0  0  0  0  0  0  0  0
   -4.3150   -1.2070  -35.3260 N   0  0  0  0  0  0  0  0  0  0  0  0
   -4.7080   -2.4350  -34.9120 C   0  0  0  0  0  0  0  0  0  0  0  0
   -3.9400   -3.3990  -34.8520 O   0  0  0  0  0  0  0  0  0  0  0  0
   -6.0110   -2.5390  -34.7500 N   0  0  0  0  0  0  0  0  0  0  0  0
   -6.6050   -3.3180  -34.2300 N   0  0  0  0  0  0  0  0  0  0  0  0
   -7.7940   -2.8150  -33.9980 C   0  0  0  0  0  0  0  0  0  0  0  0
   -6.5620   -4.5070  -33.6210 C   0  0  0  0  0  0  0  0  0  0  0  0
   -5.5050   -5.3130  -33.6220 N   0  0  0  0  0  0  0  0  0  0  0  0
   -7.7680   -4.7660  -33.0650 N   0  0  0  0  0  0  0  0  0  0  0  0
   -8.4890   -3.6630  -33.3060 C   0  0  0  0  0  0  0  0  0  0  0  0
   -9.7390   -3.3300  -33.0500 C   0  0  0  0  0  0  0  0  0  0  0  0
  -10.1530   -2.0310  -33.3690 C   0  0  0  0  0  0  0  0  0  0  0  0
  -11.4560   -1.6740  -33.1570 C   0  0  0  0  0  0  0  0  0  0  0  0
  -12.3320   -2.5910  -32.6330 C   0  0  0  0  0  0  0  0  0  0  0  0
  -11.9240   -3.8680  -32.3260 C   0  0  0  0  0  0  0  0  0  0  0  0
  -10.6210   -4.2580  -32.5440 C   0  0  0  0  0  0  0  0  0  0  0  0
   -4.6079    3.1641  -36.3278 H   0  0  0  0  0  0  0  0  0  0  0  0
   -6.9469    3.4105  -35.5176 H   0  0  0  0  0  0  0  0  0  0  0  0
   -8.1296    1.4153  -34.6083 H   0  0  0  0  0  0  0  0  0  0  0  0
   -6.9924   -0.7555  -34.4698 H   0  0  0  0  0  0  0  0  0  0  0  0
   -3.3415   -1.0954  -35.6434 H   0  0  0  0  0  0  0  0  0  0  0  0
   -6.5640   -1.7791  -35.1716 H   0  0  0  0  0  0  0  0  0  0  0  0
   -8.1459   -1.8295  -34.3370 H   0  0  0  0  0  0  0  0  0  0  0  0
   -5.0949   -5.6257  -32.7304 H   0  0  0  0  0  0  0  0  0  0  0  0
   -5.0960   -5.6249  -34.5144 H   0  0  0  0  0  0  0  0  0  0  0  0
   -9.4383   -1.3059  -33.7854 H   0  0  0  0  0  0  0  0  0  0  0  0
  -11.7994   -0.6588  -33.4048 H   0  0  0  0  0  0  0  0  0  0  0  0
  -13.3778   -2.2999  -32.4556 H   0  0  0  0  0  0  0  0  0  0  0  0
  -12.6441   -4.5838  -31.9029 H   0  0  0  0  0  0  0  0  0  0  0  0
  -10.2938   -5.2840  -32.3197 H   0  0  0  0  0  0  0  0  0  0  0  0
  1  2  1  0
  2  3  2  0
  2  7  1  0
  3  4  1  0
  4  5  2  0
  5  6  1  0
  6  7  2  0
  7  8  1  0
  8  9  1  0
  9 10  2  0
  9 11  1  0
 11 12  1  0
 12 13  1  0
 12 14  1  0
 13 17  2  0
 14 15  1  0
 14 16  2  0
 16 17  1  0
 17 18  1  0
 18 19  2  0
 18 23  1  0
 19 20  1  0
 20 21  2  0
 21 22  1  0
 22 23  2  0
  3 24  1  0
  4 25  1  0
  5 26  1  0
  6 27  1  0
  8 28  1  0
 11 29  1  0
 13 30  1  0
 15 31  1  0
 15 32  1  0
 19 33  1  0
 20 34  1  0
 21 35  1  0
 22 36  1  0
 23 37  1  0
A    1
FAP
A    2
CAO
A    3
CAN
A    4
CAM
A    5
CAA
A    6
CAB
A    7
CAC
A    8
NAD
A    9
CAE
A   10
OAQ
A   11
NAF
A   12
NAG
A   13
CAH
A   14
CAR
A   15
NAW
A   16
NAS
A   17
CAI
A   18
CAJ
A   19
CAK
A   20
CAL
A   21
CAV
A   22
CAU
A   23
CAT
M  END
