4BQP_VMY_A_1272
     RDKit          3D

 45 48  0  0  0  0  0  0  0  0999 V2000
   59.4310   -4.5740   85.1950 F   0  0  0  0  0  0  0  0  0  0  0  0
   59.0740   -4.6640   86.4980 C   0  0  0  0  0  0  0  0  0  0  0  0
   57.7960   -4.2890   86.8480 C   0  0  0  0  0  0  0  0  0  0  0  0
   57.4290   -4.3610   88.1810 C   0  0  0  0  0  0  0  0  0  0  0  0
   58.3570   -4.7220   89.1410 C   0  0  0  0  0  0  0  0  0  0  0  0
   59.6160   -5.0870   88.7270 C   0  0  0  0  0  0  0  0  0  0  0  0
   60.5040   -5.4720   89.6610 F   0  0  0  0  0  0  0  0  0  0  0  0
   60.0330   -5.0850   87.4060 C   0  0  0  0  0  0  0  0  0  0  0  0
   61.4200   -5.5360   86.9870 C   0  0  0  0  0  0  0  0  0  0  0  0
   62.4750   -4.5570   87.3170 N   0  0  0  0  0  0  0  0  0  0  0  0
   63.3410   -4.5840   88.3450 C   0  0  0  0  0  0  0  0  0  0  0  0
   64.0240   -3.4010   88.3260 C   0  0  0  0  0  0  0  0  0  0  0  0
   62.5150   -3.3790   86.6490 N   0  0  0  0  0  0  0  0  0  0  0  0
   63.5550   -2.6550   87.1860 C   0  0  0  0  0  0  0  0  0  0  0  0
   63.8120   -1.3640   86.7300 N   0  0  0  0  0  0  0  0  0  0  0  0
   63.0770   -0.6830   85.7820 C   0  0  0  0  0  0  0  0  0  0  0  0
   63.3740    0.5390   85.4620 N   0  0  0  0  0  0  0  0  0  0  0  0
   62.5740    1.0130   84.4190 N   0  0  0  0  0  0  0  0  0  0  0  0
   61.8090   -1.3870   84.8390 S   0  0  0  0  0  0  0  0  0  0  0  0
   61.6680    0.1650   84.0440 C   0  0  0  0  0  0  0  0  0  0  0  0
   60.6510    0.3740   82.9480 C   0  0  0  0  0  0  0  0  0  0  0  0
   60.8610    1.6910   82.1980 C   0  0  0  0  0  0  0  0  0  0  0  0
   60.8010   -0.7270   82.0600 O   0  0  0  0  0  0  0  0  0  0  0  0
   59.2650    0.1790   83.5290 C   0  0  0  0  0  0  0  0  0  0  0  0
   58.4650   -1.3520   83.5850 S   0  0  0  0  0  0  0  0  0  0  0  0
   57.1290   -0.5770   84.3520 C   0  0  0  0  0  0  0  0  0  0  0  0
   58.6290    1.1520   84.1540 N   0  0  0  0  0  0  0  0  0  0  0  0
   57.3970    0.7260   84.6010 C   0  0  0  0  0  0  0  0  0  0  0  0
   56.4670    1.7150   85.2350 C   0  0  0  0  0  0  0  0  0  0  0  0
   57.0833   -3.9403   86.0861 H   0  0  0  0  0  0  0  0  0  0  0  0
   56.3953   -4.1302   88.4778 H   0  0  0  0  0  0  0  0  0  0  0  0
   58.0941   -4.7171   90.2091 H   0  0  0  0  0  0  0  0  0  0  0  0
   61.6491   -6.4825   87.4985 H   0  0  0  0  0  0  0  0  0  0  0  0
   61.4101   -5.6492   85.8929 H   0  0  0  0  0  0  0  0  0  0  0  0
   63.4745   -5.4042   89.0657 H   0  0  0  0  0  0  0  0  0  0  0  0
   64.7895   -3.0781   89.0469 H   0  0  0  0  0  0  0  0  0  0  0  0
   64.6222   -0.8749   87.1365 H   0  0  0  0  0  0  0  0  0  0  0  0
   60.9914    2.5086   82.9222 H   0  0  0  0  0  0  0  0  0  0  0  0
   61.7582    1.6142   81.5663 H   0  0  0  0  0  0  0  0  0  0  0  0
   59.9844    1.8970   81.5663 H   0  0  0  0  0  0  0  0  0  0  0  0
   60.9145   -1.5598   82.5831 H   0  0  0  0  0  0  0  0  0  0  0  0
   56.1824   -1.0766   84.6058 H   0  0  0  0  0  0  0  0  0  0  0  0
   56.5400    1.6373   86.3298 H   0  0  0  0  0  0  0  0  0  0  0  0
   56.7434    2.7321   84.9203 H   0  0  0  0  0  0  0  0  0  0  0  0
   55.4348    1.5016   84.9203 H   0  0  0  0  0  0  0  0  0  0  0  0
  1  2  1  0
  2  3  2  0
  2  8  1  0
  3  4  1  0
  4  5  2  0
  5  6  1  0
  6  7  1  0
  6  8  2  0
  8  9  1  0
  9 10  1  0
 10 11  1  0
 10 13  1  0
 11 12  2  0
 12 14  1  0
 13 14  2  0
 14 15  1  0
 15 16  1  0
 16 17  2  0
 16 19  1  0
 17 18  1  0
 18 20  2  0
 19 20  1  0
 20 21  1  0
 21 22  1  0
 21 23  1  0
 21 24  1  0
 24 25  1  0
 24 27  2  0
 25 26  1  0
 26 28  2  0
 27 28  1  0
 28 29  1  0
  3 30  1  0
  4 31  1  0
  5 32  1  0
  9 33  1  0
  9 34  1  0
 11 35  1  0
 12 36  1  0
 15 37  1  0
 22 38  1  0
 22 39  1  0
 22 40  1  0
 23 41  1  0
 26 42  1  0
 29 43  1  0
 29 44  1  0
 29 45  1  0
A    1
F1
A    2
C13
A    3
C14
A    4
C15
A    5
C16
A    6
C17
A    7
F
A    8
C12
A    9
C11
A   10
N4
A   11
C10
A   12
C9
A   13
N5
A   14
C8
A   15
N3
A   16
C7
A   17
N2
A   18
N1
A   19
S1
A   20
C6
A   21
C4
A   22
C5
A   23
O
A   24
C3
A   25
S
A   26
C2
A   27
N
A   28
C1
A   29
C
M  END
