4BQR_IBH_A_1271
     RDKit          3D

 40 42  0  0  0  0  0  0  0  0999 V2000
  -13.5530    8.0510   23.3090 F   0  0  0  0  0  0  0  0  0  0  0  0
  -14.3030    6.9820   23.6620 C   0  0  0  0  0  0  0  0  0  0  0  0
  -15.5010    7.2090   24.2950 C   0  0  0  0  0  0  0  0  0  0  0  0
  -16.2670    6.1180   24.6630 C   0  0  0  0  0  0  0  0  0  0  0  0
  -15.8270    4.8330   24.3960 C   0  0  0  0  0  0  0  0  0  0  0  0
  -14.6170    4.6730   23.7610 C   0  0  0  0  0  0  0  0  0  0  0  0
  -14.1790    3.4110   23.5030 F   0  0  0  0  0  0  0  0  0  0  0  0
  -13.8100    5.7230   23.3610 C   0  0  0  0  0  0  0  0  0  0  0  0
  -12.4900    5.4710   22.6700 C   0  0  0  0  0  0  0  0  0  0  0  0
  -11.4170    5.7910   23.6910 C   0  0  0  0  0  0  0  0  0  0  0  0
  -11.2330    5.0740   24.6780 O   0  0  0  0  0  0  0  0  0  0  0  0
  -10.6900    6.9210   23.3910 N   0  0  0  0  0  0  0  0  0  0  0  0
   -9.6510    7.4310   24.1460 C   0  0  0  0  0  0  0  0  0  0  0  0
   -8.9590    8.4460   23.7130 N   0  0  0  0  0  0  0  0  0  0  0  0
   -7.9800    8.8270   24.6140 N   0  0  0  0  0  0  0  0  0  0  0  0
   -9.1580    6.8190   25.7020 S   0  0  0  0  0  0  0  0  0  0  0  0
   -7.9570    8.0850   25.6760 C   0  0  0  0  0  0  0  0  0  0  0  0
   -6.9520    8.3190   26.8240 C   0  0  0  0  0  0  0  0  0  0  0  0
   -6.3350    9.7120   26.7170 C   0  0  0  0  0  0  0  0  0  0  0  0
   -7.7050    8.2520   28.0270 O   0  0  0  0  0  0  0  0  0  0  0  0
   -6.0190    7.1060   26.8320 C   0  0  0  0  0  0  0  0  0  0  0  0
   -6.3950    5.6680   27.7180 S   0  0  0  0  0  0  0  0  0  0  0  0
   -4.9330    4.9480   27.1360 C   0  0  0  0  0  0  0  0  0  0  0  0
   -4.8740    7.0280   26.1350 N   0  0  0  0  0  0  0  0  0  0  0  0
   -4.2550    5.8030   26.3270 C   0  0  0  0  0  0  0  0  0  0  0  0
   -2.9550    5.5270   25.6450 C   0  0  0  0  0  0  0  0  0  0  0  0
  -15.8426    8.2335   24.5040 H   0  0  0  0  0  0  0  0  0  0  0  0
  -17.2307    6.2721   25.1704 H   0  0  0  0  0  0  0  0  0  0  0  0
  -16.4308    3.9600   24.6848 H   0  0  0  0  0  0  0  0  0  0  0  0
  -12.4175    4.4193   22.3560 H   0  0  0  0  0  0  0  0  0  0  0  0
  -12.3836    6.0889   21.7662 H   0  0  0  0  0  0  0  0  0  0  0  0
   -9.1211    8.9099   22.8078 H   0  0  0  0  0  0  0  0  0  0  0  0
   -6.1574   10.1129   27.7259 H   0  0  0  0  0  0  0  0  0  0  0  0
   -5.3804    9.6495   26.1740 H   0  0  0  0  0  0  0  0  0  0  0  0
   -7.0228   10.3769   26.1740 H   0  0  0  0  0  0  0  0  0  0  0  0
   -7.0927    8.3065   28.8030 H   0  0  0  0  0  0  0  0  0  0  0  0
   -4.5968    3.9314   27.3881 H   0  0  0  0  0  0  0  0  0  0  0  0
   -2.1727    5.3609   26.4003 H   0  0  0  0  0  0  0  0  0  0  0  0
   -3.0540    4.6299   25.0162 H   0  0  0  0  0  0  0  0  0  0  0  0
   -2.6810    6.3870   25.0162 H   0  0  0  0  0  0  0  0  0  0  0  0
  1  2  1  0
  2  3  2  0
  2  8  1  0
  3  4  1  0
  4  5  2  0
  5  6  1  0
  6  7  1  0
  6  8  2  0
  8  9  1  0
  9 10  1  0
 10 11  2  0
 10 12  1  0
 12 13  2  0
 13 14  1  0
 13 16  1  0
 14 15  1  0
 15 17  2  0
 16 17  1  0
 17 18  1  0
 18 19  1  0
 18 20  1  0
 18 21  1  0
 21 22  1  0
 21 24  2  0
 22 23  1  0
 23 25  2  0
 24 25  1  0
 25 26  1  0
  3 27  1  0
  4 28  1  0
  5 29  1  0
  9 30  1  0
  9 31  1  0
 14 32  1  0
 19 33  1  0
 19 34  1  0
 19 35  1  0
 20 36  1  0
 23 37  1  0
 26 38  1  0
 26 39  1  0
 26 40  1  0
A    1
F1
A    2
C11
A    3
C12
A    4
C13
A    5
C14
A    6
C15
A    7
F
A    8
C10
A    9
C9
A   10
C8
A   11
O
A   12
N3
A   13
C7
A   14
N2
A   15
N1
A   16
S1
A   17
C6
A   18
C4
A   19
C5
A   20
O1
A   21
C3
A   22
S
A   23
C2
A   24
N
A   25
C1
A   26
C
M  END
