4BQW_QNM_A_901
     RDKit          3D

 32 33  0  0  0  0  0  0  0  0999 V2000
  -32.5940   23.0990    3.2560 O   0  0  0  0  0  0  0  0  0  0  0  0
  -32.9530   22.3040    4.1520 C   0  0  0  0  0  0  0  0  0  0  0  0
  -32.2930   21.3370    4.5880 O   0  0  0  0  0  0  0  0  0  0  0  0
  -34.3260   22.5440    4.7840 C   0  0  0  0  0  0  0  0  0  0  0  0
  -34.9380   23.7500    4.2040 N   0  0  0  0  0  0  0  0  0  0  0  0
  -36.1540   24.1470    4.5730 C   0  0  0  0  0  0  0  0  0  0  0  0
  -36.7910   23.6010    5.4710 O   0  0  0  0  0  0  0  0  0  0  0  0
  -35.8000   26.3200    3.3050 C   0  0  0  0  0  0  0  0  0  0  0  0
  -34.5940   26.0810    3.2610 O   0  0  0  0  0  0  0  0  0  0  0  0
  -35.3620   28.4720    2.1320 C   0  0  0  0  0  0  0  0  0  0  0  0
  -37.6690   27.7860    2.7890 C   0  0  0  0  0  0  0  0  0  0  0  0
  -38.1670   28.9700    2.2520 C   0  0  0  0  0  0  0  0  0  0  0  0
  -36.6820   25.4120    3.8880 C   0  0  0  0  0  0  0  0  0  0  0  0
  -39.5350   29.2340    2.2910 C   0  0  0  0  0  0  0  0  0  0  0  0
  -40.4020   28.3170    2.8680 C   0  0  0  0  0  0  0  0  0  0  0  0
  -39.9080   27.1300    3.4070 C   0  0  0  0  0  0  0  0  0  0  0  0
  -38.5420   26.8710    3.3670 C   0  0  0  0  0  0  0  0  0  0  0  0
  -38.0470   25.6870    3.9080 C   0  0  0  0  0  0  0  0  0  0  0  0
  -36.2960   27.5050    2.7510 N   0  0  0  0  0  0  0  0  0  0  0  0
  -38.9190   24.7820    4.4300 O   0  0  0  0  0  0  0  0  0  0  0  0
  -32.1991   23.9736    3.4994 H   0  0  0  0  0  0  0  0  0  0  0  0
  -34.9739   21.6764    4.5901 H   0  0  0  0  0  0  0  0  0  0  0  0
  -34.2072   22.6829    5.8687 H   0  0  0  0  0  0  0  0  0  0  0  0
  -34.4177   24.2953    3.5019 H   0  0  0  0  0  0  0  0  0  0  0  0
  -34.0787   25.9789    4.1001 H   0  0  0  0  0  0  0  0  0  0  0  0
  -34.8293   29.0235    2.9207 H   0  0  0  0  0  0  0  0  0  0  0  0
  -34.6353   27.9316    1.5076 H   0  0  0  0  0  0  0  0  0  0  0  0
  -35.9273   29.1795    1.5076 H   0  0  0  0  0  0  0  0  0  0  0  0
  -37.4799   29.6981    1.7963 H   0  0  0  0  0  0  0  0  0  0  0  0
  -39.9272   30.1690    1.8645 H   0  0  0  0  0  0  0  0  0  0  0  0
  -41.4813   28.5271    2.9002 H   0  0  0  0  0  0  0  0  0  0  0  0
  -40.5954   26.4016    3.8619 H   0  0  0  0  0  0  0  0  0  0  0  0
  3  2  2  0
  2  1  1  0
  2  4  1  0
  4  5  1  0
  5  6  1  0
  6  7  2  0
  6 13  1  0
  8  9  1  0
  8 13  2  0
  8 19  1  0
 10 19  1  0
 11 12  2  0
 11 17  1  0
 11 19  1  0
 12 14  1  0
 14 15  2  0
 15 16  1  0
 16 17  2  0
 13 18  1  0
 17 18  1  0
 18 20  2  0
  1 21  1  0
  4 22  1  0
  4 23  1  0
  5 24  1  0
  9 25  1  0
 10 26  1  0
 10 27  1  0
 10 28  1  0
 12 29  1  0
 14 30  1  0
 15 31  1  0
 16 32  1  0
A    1
OAK
A    2
CAI
A    3
OAJ
A    4
C4
A    5
N3
A    6
C2
A    7
O2
A    8
C6
A    9
O6
A   10
CAL
A   11
CAN
A   12
CAO
A   13
CA0
A   14
CAP
A   15
CAQ
A   16
CAR
A   17
CAS
A   18
CAT
A   19
NAN
A   20
OAU
M  END
