4BR3_U85_A_1458
     RDKit          3D

 59 63  0  0  0  0  0  0  0  0999 V2000
   -5.8160  -10.2470    5.4630 C   0  0  0  0  0  0  0  0  0  0  0  0
   -6.9440   -9.9350    4.5610 N   0  0  0  0  0  0  0  0  0  0  0  0
   -7.3730   -8.5470    4.3510 C   0  0  0  0  0  0  0  0  0  0  0  0
   -7.6410  -10.9430    4.0130 C   0  0  0  0  0  0  0  0  0  0  0  0
   -8.7640  -10.7120    3.2100 C   0  0  0  0  0  0  0  0  0  0  0  0
   -9.4860  -11.7770    2.6540 C   0  0  0  0  0  0  0  0  0  0  0  0
   -7.2400  -12.2470    4.2590 C   0  0  0  0  0  0  0  0  0  0  0  0
   -7.9320  -13.3340    3.7280 C   0  0  0  0  0  0  0  0  0  0  0  0
   -9.0500  -13.0980    2.9000 N   0  0  0  0  0  0  0  0  0  0  0  0
   -9.8030  -14.2600    2.3970 C   0  0  0  0  0  0  0  0  0  0  0  0
  -10.4730  -14.7820    3.5350 C   0  0  0  0  0  0  0  0  0  0  0  0
  -11.5960  -14.1310    4.0450 C   0  0  0  0  0  0  0  0  0  0  0  0
  -12.2280  -14.6200    5.1760 C   0  0  0  0  0  0  0  0  0  0  0  0
  -10.0050  -15.9200    4.1920 C   0  0  0  0  0  0  0  0  0  0  0  0
  -10.6610  -16.4220    5.3270 C   0  0  0  0  0  0  0  0  0  0  0  0
  -11.7930  -15.7790    5.8370 C   0  0  0  0  0  0  0  0  0  0  0  0
  -12.4850  -16.2320    6.9850 C   0  0  0  0  0  0  0  0  0  0  0  0
  -13.4670  -15.4070    7.5600 C   0  0  0  0  0  0  0  0  0  0  0  0
  -14.1850  -15.7950    8.6890 C   0  0  0  0  0  0  0  0  0  0  0  0
  -12.2320  -17.4700    7.5900 C   0  0  0  0  0  0  0  0  0  0  0  0
  -12.9520  -17.8560    8.7260 C   0  0  0  0  0  0  0  0  0  0  0  0
  -13.9320  -17.0270    9.2850 C   0  0  0  0  0  0  0  0  0  0  0  0
  -14.6740  -17.4140   10.4230 C   0  0  0  0  0  0  0  0  0  0  0  0
  -14.0530  -16.9360   11.6950 N   0  0  0  0  0  0  0  0  0  0  0  0
  -13.3070  -17.7780   12.4460 C   0  0  0  0  0  0  0  0  0  0  0  0
  -12.9850  -19.0650   12.2850 N   0  0  0  0  0  0  0  0  0  0  0  0
  -12.2280  -19.4400   13.3100 C   0  0  0  0  0  0  0  0  0  0  0  0
  -12.0750  -18.3880   14.1100 N   0  0  0  0  0  0  0  0  0  0  0  0
  -12.7400  -17.3530   13.5890 C   0  0  0  0  0  0  0  0  0  0  0  0
  -12.9050  -16.0810   14.0140 C   0  0  0  0  0  0  0  0  0  0  0  0
  -12.3060  -15.7510   15.1600 N   0  0  0  0  0  0  0  0  0  0  0  0
  -13.6340  -15.1790   13.3240 N   0  0  0  0  0  0  0  0  0  0  0  0
  -14.2410  -15.5940   12.1240 C   0  0  0  0  0  0  0  0  0  0  0  0
   -6.1463  -10.1556    6.5083 H   0  0  0  0  0  0  0  0  0  0  0  0
   -5.4704  -11.2745    5.2761 H   0  0  0  0  0  0  0  0  0  0  0  0
   -4.9916   -9.5432    5.2761 H   0  0  0  0  0  0  0  0  0  0  0  0
   -7.5240   -8.0585    5.3250 H   0  0  0  0  0  0  0  0  0  0  0  0
   -6.6002   -8.0059    3.7853 H   0  0  0  0  0  0  0  0  0  0  0  0
   -8.3163   -8.5364    3.7853 H   0  0  0  0  0  0  0  0  0  0  0  0
   -9.0849   -9.6786    3.0122 H   0  0  0  0  0  0  0  0  0  0  0  0
  -10.3766  -11.5875    2.0368 H   0  0  0  0  0  0  0  0  0  0  0  0
   -6.3556  -12.4279    4.8876 H   0  0  0  0  0  0  0  0  0  0  0  0
   -7.6110  -14.3621    3.9514 H   0  0  0  0  0  0  0  0  0  0  0  0
  -10.5277  -13.9490    1.6301 H   0  0  0  0  0  0  0  0  0  0  0  0
   -9.1466  -15.0058    1.9248 H   0  0  0  0  0  0  0  0  0  0  0  0
  -11.9802  -13.2279    3.5482 H   0  0  0  0  0  0  0  0  0  0  0  0
  -13.1020  -14.0808    5.5703 H   0  0  0  0  0  0  0  0  0  0  0  0
   -9.1076  -16.4322    3.8147 H   0  0  0  0  0  0  0  0  0  0  0  0
  -10.2811  -17.3293    5.8195 H   0  0  0  0  0  0  0  0  0  0  0  0
  -13.6745  -14.4270    7.1056 H   0  0  0  0  0  0  0  0  0  0  0  0
  -14.9518  -15.1277    9.1094 H   0  0  0  0  0  0  0  0  0  0  0  0
  -11.4662  -18.1396    7.1714 H   0  0  0  0  0  0  0  0  0  0  0  0
  -12.7436  -18.8315    9.1897 H   0  0  0  0  0  0  0  0  0  0  0  0
  -15.6873  -16.9933   10.3443 H   0  0  0  0  0  0  0  0  0  0  0  0
  -14.6962  -18.5134   10.4520 H   0  0  0  0  0  0  0  0  0  0  0  0
  -11.8032  -20.4421   13.4691 H   0  0  0  0  0  0  0  0  0  0  0  0
  -12.7458  -15.9933   16.0593 H   0  0  0  0  0  0  0  0  0  0  0  0
  -11.4039  -15.2540   15.1451 H   0  0  0  0  0  0  0  0  0  0  0  0
  -14.8481  -14.8945   11.5306 H   0  0  0  0  0  0  0  0  0  0  0  0
 10  9  1  0
 10 11  1  0
  6  9  2  0
  6  5  1  0
  9  8  1  0
  5  4  2  0
 11 12  2  0
 11 14  1  0
  8  7  2  0
  4  7  1  0
  4  2  1  0
 12 13  1  0
 14 15  2  0
  3  2  1  0
  2  1  1  0
 13 16  2  0
 15 16  1  0
 16 17  1  0
 17 18  2  0
 17 20  1  0
 18 19  1  0
 20 21  2  0
 19 22  2  0
 21 22  1  0
 22 23  1  0
 23 24  1  0
 24 33  1  0
 24 25  1  0
 33 32  2  0
 26 25  2  0
 26 27  1  0
 25 29  1  0
 27 28  2  0
 32 30  1  0
 29 30  2  0
 29 28  1  0
 30 31  1  0
  1 34  1  0
  1 35  1  0
  1 36  1  0
  3 37  1  0
  3 38  1  0
  3 39  1  0
  5 40  1  0
  6 41  1  0
  7 42  1  0
  8 43  1  0
 10 44  1  0
 10 45  1  0
 12 46  1  0
 13 47  1  0
 14 48  1  0
 15 49  1  0
 18 50  1  0
 19 51  1  0
 20 52  1  0
 21 53  1  0
 23 54  1  0
 23 55  1  0
 27 56  1  0
 31 57  1  0
 31 58  1  0
 33 59  1  0
M  CHG  1   9   1
A    1
C1
A    2
N1
A    3
C2
A    4
C3
A    5
C4
A    6
C5
A    7
C6
A    8
C7
A    9
N2
A   10
C8
A   11
C9
A   12
C10
A   13
C11
A   14
C12
A   15
C13
A   16
C14
A   17
C15
A   18
C16
A   19
C17
A   20
C18
A   21
C19
A   22
C20
A   23
C21
A   24
N3
A   25
C22
A   26
N4
A   27
C23
A   28
N5
A   29
C24
A   30
C25
A   31
N6
A   32
N7
A   33
C26
M  END
