4BR3_A4V_A_1459
     RDKit          3D

 29 31  0  0  0  0  0  0  0  0999 V2000
  -18.8940   -5.7240   15.0050 N   0  0  0  0  0  0  0  0  0  0  0  0
  -17.6860   -5.1670   14.9380 C   0  0  0  0  0  0  0  0  0  0  0  0
  -17.7590   -3.9660   15.4900 N   0  0  0  0  0  0  0  0  0  0  0  0
  -19.0100   -3.7760   15.8980 C   0  0  0  0  0  0  0  0  0  0  0  0
  -19.5800   -2.7300   16.5160 C   0  0  0  0  0  0  0  0  0  0  0  0
  -18.7700   -1.6950   16.7780 N   0  0  0  0  0  0  0  0  0  0  0  0
  -20.8880   -2.7430   16.8610 N   0  0  0  0  0  0  0  0  0  0  0  0
  -21.6540   -3.8770   16.5580 C   0  0  0  0  0  0  0  0  0  0  0  0
  -21.0430   -4.9730   15.9230 N   0  0  0  0  0  0  0  0  0  0  0  0
  -19.7270   -4.8760   15.5970 C   0  0  0  0  0  0  0  0  0  0  0  0
  -23.8230   -7.0530   16.6950 C   0  0  0  0  0  0  0  0  0  0  0  0
  -24.4360   -7.8900   17.6360 C   0  0  0  0  0  0  0  0  0  0  0  0
  -23.6700   -8.7400   18.4320 C   0  0  0  0  0  0  0  0  0  0  0  0
  -22.2860   -8.7370   18.2680 C   0  0  0  0  0  0  0  0  0  0  0  0
  -21.6720   -7.8950   17.3270 C   0  0  0  0  0  0  0  0  0  0  0  0
  -22.4350   -7.0250   16.5430 C   0  0  0  0  0  0  0  0  0  0  0  0
  -21.8470   -6.1950   15.5540 C   0  0  0  0  0  0  0  0  0  0  0  0
  -19.1418   -6.6603   14.6546 H   0  0  0  0  0  0  0  0  0  0  0  0
  -16.7861   -5.6244   14.5009 H   0  0  0  0  0  0  0  0  0  0  0  0
  -18.5662   -1.4346   17.7535 H   0  0  0  0  0  0  0  0  0  0  0  0
  -18.3512   -1.1599   16.0039 H   0  0  0  0  0  0  0  0  0  0  0  0
  -22.7232   -3.9094   16.8145 H   0  0  0  0  0  0  0  0  0  0  0  0
  -24.4475   -6.4046   16.0629 H   0  0  0  0  0  0  0  0  0  0  0  0
  -25.5302   -7.8764   17.7477 H   0  0  0  0  0  0  0  0  0  0  0  0
  -24.1471   -9.3983   19.1729 H   0  0  0  0  0  0  0  0  0  0  0  0
  -21.6657   -9.4040   18.8847 H   0  0  0  0  0  0  0  0  0  0  0  0
  -20.5790   -7.9203   17.2055 H   0  0  0  0  0  0  0  0  0  0  0  0
  -22.6706   -5.8427   14.9156 H   0  0  0  0  0  0  0  0  0  0  0  0
  -21.0838   -6.8553   15.1164 H   0  0  0  0  0  0  0  0  0  0  0  0
  2  1  1  0
  2  3  2  0
  1 10  1  0
  3  4  1  0
 17  9  1  0
 17 16  1  0
 10  4  2  0
 10  9  1  0
  4  5  1  0
  9  8  2  0
  5  6  1  0
  5  7  2  0
 16 11  2  0
 16 15  1  0
  8  7  1  0
 11 12  1  0
 15 14  2  0
 12 13  2  0
 14 13  1  0
  1 18  1  0
  2 19  1  0
  6 20  1  0
  6 21  1  0
  8 22  1  0
 11 23  1  0
 12 24  1  0
 13 25  1  0
 14 26  1  0
 15 27  1  0
 17 28  1  0
 17 29  1  0
M  CHG  1   9   1
A    1
N1
A    2
C1
A    3
N2
A    4
C2
A    5
C3
A    6
N3
A    7
N4
A    8
C4
A    9
N5
A   10
C5
A   11
C6
A   12
C7
A   13
C8
A   14
C9
A   15
C10
A   16
C11
A   17
C12
M  END
