4BRX_KGW_A_1685
     RDKit          3D

 57 60  0  0  0  0  0  0  0  0999 V2000
  -10.4060    3.0680   -1.1270 C   0  0  0  0  0  0  0  0  0  0  0  0
   -9.4360    2.0920   -0.4360 C   0  0  0  0  0  0  0  0  0  0  0  0
   -8.0290    2.3360   -0.8170 O   0  0  0  0  0  0  0  0  0  0  0  0
   -7.7180    2.2780   -2.1980 C   0  0  0  0  0  0  0  0  0  0  0  0
   -8.5580    3.3080   -2.9820 C   0  0  0  0  0  0  0  0  0  0  0  0
   -9.9410    3.5130   -2.4760 N   0  0  0  0  0  0  0  0  0  0  0  0
  -10.8530    4.3310   -3.2650 C   0  0  0  0  0  0  0  0  0  0  0  0
  -12.1740    4.5700   -2.8470 C   0  0  0  0  0  0  0  0  0  0  0  0
  -13.0060    5.3980   -3.6230 C   0  0  0  0  0  0  0  0  0  0  0  0
  -14.2890    5.6360   -3.2880 O   0  0  0  0  0  0  0  0  0  0  0  0
  -14.5970    4.9820   -1.9540 C   0  0  0  0  0  0  0  0  0  0  0  0
  -10.3880    4.9470   -4.4340 C   0  0  0  0  0  0  0  0  0  0  0  0
  -11.2420    5.7570   -5.1890 C   0  0  0  0  0  0  0  0  0  0  0  0
  -12.5480    5.9920   -4.7920 C   0  0  0  0  0  0  0  0  0  0  0  0
  -13.4230    6.7610   -5.4880 N   0  0  0  0  0  0  0  0  0  0  0  0
  -13.1570    7.8440   -6.2600 C   0  0  0  0  0  0  0  0  0  0  0  0
  -11.9210    8.3250   -6.4160 N   0  0  0  0  0  0  0  0  0  0  0  0
  -14.1820    8.4690   -6.8980 N   0  0  0  0  0  0  0  0  0  0  0  0
  -13.9550    9.5430   -7.6620 C   0  0  0  0  0  0  0  0  0  0  0  0
  -11.6920    9.4010   -7.2020 C   0  0  0  0  0  0  0  0  0  0  0  0
  -10.4600    9.8600   -7.4290 N   0  0  0  0  0  0  0  0  0  0  0  0
   -9.3200    9.3200   -6.9750 C   0  0  0  0  0  0  0  0  0  0  0  0
   -9.2420    9.0360   -5.5990 C   0  0  0  0  0  0  0  0  0  0  0  0
   -8.0780    8.5050   -5.0780 C   0  0  0  0  0  0  0  0  0  0  0  0
   -6.9850    8.2550   -5.9300 C   0  0  0  0  0  0  0  0  0  0  0  0
   -7.0470    8.5680   -7.2950 C   0  0  0  0  0  0  0  0  0  0  0  0
   -8.2180    9.1210   -7.8260 C   0  0  0  0  0  0  0  0  0  0  0  0
   -8.2440    9.4030   -9.3440 C   0  0  0  0  0  0  0  0  0  0  0  0
   -9.0550   10.2010   -9.8520 O   0  0  0  0  0  0  0  0  0  0  0  0
   -7.4290    8.6130  -10.0680 N   0  0  0  0  0  0  0  0  0  0  0  0
  -12.7040   10.0120   -7.8160 N   0  0  0  0  0  0  0  0  0  0  0  0
   -7.3660    8.8450  -11.5430 C   0  0  0  0  0  0  0  0  0  0  0  0
  -11.3798    2.5693   -1.2410 H   0  0  0  0  0  0  0  0  0  0  0  0
  -10.4694    3.9651   -0.4936 H   0  0  0  0  0  0  0  0  0  0  0  0
   -9.5329    2.2089    0.6535 H   0  0  0  0  0  0  0  0  0  0  0  0
   -9.6994    1.0729   -0.7556 H   0  0  0  0  0  0  0  0  0  0  0  0
   -6.6497    2.4992   -2.3386 H   0  0  0  0  0  0  0  0  0  0  0  0
   -7.9478    1.2700   -2.5736 H   0  0  0  0  0  0  0  0  0  0  0  0
   -8.0345    4.2746   -2.9429 H   0  0  0  0  0  0  0  0  0  0  0  0
   -8.6619    2.9057   -4.0005 H   0  0  0  0  0  0  0  0  0  0  0  0
  -12.5539    4.1135   -1.9211 H   0  0  0  0  0  0  0  0  0  0  0  0
  -14.2829    5.6489   -1.1375 H   0  0  0  0  0  0  0  0  0  0  0  0
  -15.6782    4.7942   -1.8787 H   0  0  0  0  0  0  0  0  0  0  0  0
  -14.0531    4.0288   -1.8787 H   0  0  0  0  0  0  0  0  0  0  0  0
   -9.3484    4.7932   -4.7589 H   0  0  0  0  0  0  0  0  0  0  0  0
  -10.8693    6.2165   -6.1163 H   0  0  0  0  0  0  0  0  0  0  0  0
  -14.4139    6.4879   -5.4217 H   0  0  0  0  0  0  0  0  0  0  0  0
  -14.7943   10.0444   -8.1661 H   0  0  0  0  0  0  0  0  0  0  0  0
  -10.3770   10.7085   -8.0070 H   0  0  0  0  0  0  0  0  0  0  0  0
  -10.1020    9.2354   -4.9428 H   0  0  0  0  0  0  0  0  0  0  0  0
   -8.0053    8.2788   -4.0040 H   0  0  0  0  0  0  0  0  0  0  0  0
   -6.0686    7.8073   -5.5181 H   0  0  0  0  0  0  0  0  0  0  0  0
   -6.1800    8.3800   -7.9453 H   0  0  0  0  0  0  0  0  0  0  0  0
   -6.8681    7.8740   -9.6206 H   0  0  0  0  0  0  0  0  0  0  0  0
   -7.0823    9.8897  -11.7381 H   0  0  0  0  0  0  0  0  0  0  0  0
   -6.6179    8.1726  -11.9883 H   0  0  0  0  0  0  0  0  0  0  0  0
   -8.3514    8.6434  -11.9883 H   0  0  0  0  0  0  0  0  0  0  0  0
  1  2  1  0
  1  6  1  0
  2  3  1  0
  3  4  1  0
  4  5  1  0
  5  6  1  0
  6  7  1  0
  7  8  2  0
  7 12  1  0
  8  9  1  0
  9 10  1  0
  9 14  2  0
 10 11  1  0
 12 13  2  0
 13 14  1  0
 14 15  1  0
 15 16  1  0
 16 17  2  0
 16 18  1  0
 17 20  1  0
 18 19  2  0
 19 31  1  0
 20 21  1  0
 20 31  2  0
 21 22  1  0
 22 23  2  0
 22 27  1  0
 23 24  1  0
 24 25  2  0
 25 26  1  0
 26 27  2  0
 27 28  1  0
 28 29  2  0
 28 30  1  0
 30 32  1  0
  1 33  1  0
  1 34  1  0
  2 35  1  0
  2 36  1  0
  4 37  1  0
  4 38  1  0
  5 39  1  0
  5 40  1  0
  8 41  1  0
 11 42  1  0
 11 43  1  0
 11 44  1  0
 12 45  1  0
 13 46  1  0
 15 47  1  0
 19 48  1  0
 21 49  1  0
 23 50  1  0
 24 51  1  0
 25 52  1  0
 26 53  1  0
 30 54  1  0
 32 55  1  0
 32 56  1  0
 32 57  1  0
A    1
CBC
A    2
CBE
A    3
OBG
A    4
CBF
A    5
CBD
A    6
NBB
A    7
CBA
A    8
CAY
A    9
CAS
A   10
OAT
A   11
CAU
A   12
CAX
A   13
CAR
A   14
CAL
A   15
NAH
A   16
C2
A   17
N3
A   18
N1
A   19
C6
A   20
C4
A   21
NAE
A   22
CAJ
A   23
CAQ
A   24
CAW
A   25
CAZ
A   26
CAV
A   27
CAP
A   28
CAO
A   29
OAI
A   30
NAN
A   31
NAQ
A   32
CAM
M  END
