4BS4_A64_A_2165
     RDKit          3D

 36 38  0  0  0  0  0  0  0  0999 V2000
  -38.1700  -11.0450    5.7030 C   0  0  0  0  0  0  0  0  0  0  0  0
  -39.4980  -10.9430    7.8020 C   0  0  0  0  0  0  0  0  0  0  0  0
  -38.6960  -10.1090    8.5790 C   0  0  0  0  0  0  0  0  0  0  0  0
  -38.6250  -10.2950    9.9630 C   0  0  0  0  0  0  0  0  0  0  0  0
  -40.2130  -11.9680    8.4280 C   0  0  0  0  0  0  0  0  0  0  0  0
  -40.1600  -12.1560    9.8020 C   0  0  0  0  0  0  0  0  0  0  0  0
  -39.3250  -11.3300   10.5820 C   0  0  0  0  0  0  0  0  0  0  0  0
  -39.3130  -11.5760   12.0380 C   0  0  0  0  0  0  0  0  0  0  0  0
  -40.0750  -12.6350   12.4750 O   0  0  0  0  0  0  0  0  0  0  0  0
  -40.1940  -12.9900   13.7870 C   0  0  0  0  0  0  0  0  0  0  0  0
  -41.0260  -14.0130   14.2050 C   0  0  0  0  0  0  0  0  0  0  0  0
  -41.1250  -14.3250   15.5680 C   0  0  0  0  0  0  0  0  0  0  0  0
  -40.4060  -13.5970   16.5320 C   0  0  0  0  0  0  0  0  0  0  0  0
  -39.5770  -12.5420   16.1390 C   0  0  0  0  0  0  0  0  0  0  0  0
  -39.4800  -12.2050   14.8040 C   0  0  0  0  0  0  0  0  0  0  0  0
  -38.5810  -11.1250   14.2900 C   0  0  0  0  0  0  0  0  0  0  0  0
  -37.8650  -10.5000   15.0840 O   0  0  0  0  0  0  0  0  0  0  0  0
  -38.5420  -10.8360   12.9210 C   0  0  0  0  0  0  0  0  0  0  0  0
  -39.5640  -10.7880    6.3130 C   0  0  0  0  0  0  0  0  0  0  0  0
  -40.0560   -9.4030    5.9410 C   0  0  0  0  0  0  0  0  0  0  0  0
  -37.4356  -11.1804    6.5107 H   0  0  0  0  0  0  0  0  0  0  0  0
  -38.2032  -11.9522    5.0817 H   0  0  0  0  0  0  0  0  0  0  0  0
  -37.8775  -10.1856    5.0817 H   0  0  0  0  0  0  0  0  0  0  0  0
  -38.1180   -9.3033    8.1028 H   0  0  0  0  0  0  0  0  0  0  0  0
  -38.0091   -9.6162   10.5712 H   0  0  0  0  0  0  0  0  0  0  0  0
  -40.8322  -12.6415    7.8173 H   0  0  0  0  0  0  0  0  0  0  0  0
  -40.7640  -12.9424   10.2782 H   0  0  0  0  0  0  0  0  0  0  0  0
  -41.6105  -14.5822   13.4671 H   0  0  0  0  0  0  0  0  0  0  0  0
  -41.7754  -15.1523   15.8882 H   0  0  0  0  0  0  0  0  0  0  0  0
  -40.4957  -13.8577   17.5969 H   0  0  0  0  0  0  0  0  0  0  0  0
  -39.0033  -11.9818   16.8920 H   0  0  0  0  0  0  0  0  0  0  0  0
  -37.9013  -10.0239   12.5468 H   0  0  0  0  0  0  0  0  0  0  0  0
  -40.2757  -11.5233    5.9096 H   0  0  0  0  0  0  0  0  0  0  0  0
  -40.2602   -8.8283    6.8564 H   0  0  0  0  0  0  0  0  0  0  0  0
  -39.2861   -8.8873    5.3483 H   0  0  0  0  0  0  0  0  0  0  0  0
  -40.9787   -9.4886    5.3483 H   0  0  0  0  0  0  0  0  0  0  0  0
  1 19  1  0
  2  3  2  0
  2  5  1  0
  2 19  1  0
  3  4  1  0
  4  7  2  0
  5  6  2  0
  6  7  1  0
  7  8  1  0
  8  9  1  0
  8 18  2  0
  9 10  1  0
 10 11  2  0
 10 15  1  0
 11 12  1  0
 12 13  2  0
 13 14  1  0
 14 15  2  0
 15 16  1  0
 16 17  2  0
 16 18  1  0
 19 20  1  0
  1 21  1  0
  1 22  1  0
  1 23  1  0
  3 24  1  0
  4 25  1  0
  5 26  1  0
  6 27  1  0
 11 28  1  0
 12 29  1  0
 13 30  1  0
 14 31  1  0
 18 32  1  0
 19 33  1  0
 20 34  1  0
 20 35  1  0
 20 36  1  0
A    1
CAS
A    2
CAP
A    3
CAO
A    4
CAN
A    5
CAL
A    6
CAM
A    7
CAK
A    8
CAI
A    9
OAJ
A   10
CAF
A   11
CAA
A   12
CAB
A   13
CAC
A   14
CAD
A   15
CAE
A   16
CAG
A   17
OAQ
A   18
CAH
A   19
C1
A   20
C
M  END
