4BUT_31F_A_3165
     RDKit          3D

 32 34  0  0  0  0  0  0  0  0999 V2000
  -40.1380  -11.3740    5.5000 O   0  0  0  0  0  0  0  0  0  0  0  0
  -37.9760  -10.6040    5.6600 O   0  0  0  0  0  0  0  0  0  0  0  0
  -39.2210  -10.8020    7.8410 C   0  0  0  0  0  0  0  0  0  0  0  0
  -39.7180  -11.9990    8.3430 C   0  0  0  0  0  0  0  0  0  0  0  0
  -39.6950  -12.3150    9.7030 C   0  0  0  0  0  0  0  0  0  0  0  0
  -38.6540   -9.9170    8.7460 C   0  0  0  0  0  0  0  0  0  0  0  0
  -38.6140  -10.2160   10.1270 C   0  0  0  0  0  0  0  0  0  0  0  0
  -39.0810  -11.4570   10.6240 C   0  0  0  0  0  0  0  0  0  0  0  0
  -39.0930  -11.7600   12.0880 C   0  0  0  0  0  0  0  0  0  0  0  0
  -40.0550  -13.0330   13.8380 C   0  0  0  0  0  0  0  0  0  0  0  0
  -40.8980  -14.0370   14.2840 C   0  0  0  0  0  0  0  0  0  0  0  0
  -41.0450  -14.2980   15.6510 C   0  0  0  0  0  0  0  0  0  0  0  0
  -40.3030  -13.5770   16.5940 C   0  0  0  0  0  0  0  0  0  0  0  0
  -39.4360  -12.5560   16.1780 C   0  0  0  0  0  0  0  0  0  0  0  0
  -39.2950  -12.2550   14.8300 C   0  0  0  0  0  0  0  0  0  0  0  0
  -38.3560  -11.2270   14.2690 C   0  0  0  0  0  0  0  0  0  0  0  0
  -39.8340   -8.9620    6.0900 N   0  0  0  0  0  0  0  0  0  0  0  0
  -38.3420  -11.0340   12.9520 N   0  0  0  0  0  0  0  0  0  0  0  0
  -37.6080  -10.5340   15.0070 O   0  0  0  0  0  0  0  0  0  0  0  0
  -39.9410  -12.7270   12.5280 N   0  0  0  0  0  0  0  0  0  0  0  0
  -39.2790  -10.4690    6.2240 S   0  0  0  0  0  0  0  0  0  0  0  0
  -40.1473  -12.7277    7.6397 H   0  0  0  0  0  0  0  0  0  0  0  0
  -40.1634  -13.2463   10.0541 H   0  0  0  0  0  0  0  0  0  0  0  0
  -38.2294   -8.9690    8.3840 H   0  0  0  0  0  0  0  0  0  0  0  0
  -38.2124   -9.4704   10.8290 H   0  0  0  0  0  0  0  0  0  0  0  0
  -41.4599  -14.6377   13.5536 H   0  0  0  0  0  0  0  0  0  0  0  0
  -41.7480  -15.0746   15.9866 H   0  0  0  0  0  0  0  0  0  0  0  0
  -40.4002  -13.8119   17.6642 H   0  0  0  0  0  0  0  0  0  0  0  0
  -38.8628  -11.9888   16.9262 H   0  0  0  0  0  0  0  0  0  0  0  0
  -39.9801   -8.5652    7.0292 H   0  0  0  0  0  0  0  0  0  0  0  0
  -39.1491   -8.3882    5.5776 H   0  0  0  0  0  0  0  0  0  0  0  0
  -37.7310  -10.2975   12.5710 H   0  0  0  0  0  0  0  0  0  0  0  0
  1 21  2  0
  2 21  2  0
  3  6  2  0
  3  4  1  0
  3 21  1  0
  6  7  1  0
  7  8  2  0
  4  5  2  0
  5  8  1  0
  8  9  1  0
  9 18  1  0
  9 20  2  0
 10 11  2  0
 10 15  1  0
 10 20  1  0
 11 12  1  0
 12 13  2  0
 13 14  1  0
 14 15  2  0
 15 16  1  0
 16 18  1  0
 16 19  2  0
 17 21  1  0
  4 22  1  0
  5 23  1  0
  6 24  1  0
  7 25  1  0
 11 26  1  0
 12 27  1  0
 13 28  1  0
 14 29  1  0
 17 30  1  0
 17 31  1  0
 18 32  1  0
A    1
OAB
A    2
OAD
A    3
CAE
A    4
CAF
A    5
CAG
A    6
CAJ
A    7
CAI
A    8
CAH
A    9
CAK
A   10
CAT
A   11
CAS
A   12
CAR
A   13
CAQ
A   14
CAP
A   15
CAO
A   16
CAM
A   17
N10
A   18
N1
A   19
OAN
A   20
N
A   21
S
M  END
