4BUU_F38_A_2162
     RDKit          3D

 35 37  0  0  0  0  0  0  0  0999 V2000
  -39.5740   -9.4340    4.3360 O   0  0  0  0  0  0  0  0  0  0  0  0
  -39.2830   -8.3990    6.4570 O   0  0  0  0  0  0  0  0  0  0  0  0
  -38.3540  -10.2600    8.6100 C   0  0  0  0  0  0  0  0  0  0  0  0
  -38.3850  -10.4660    9.9910 C   0  0  0  0  0  0  0  0  0  0  0  0
  -39.7200  -12.2090    8.3040 C   0  0  0  0  0  0  0  0  0  0  0  0
  -39.7480  -12.4170    9.6780 C   0  0  0  0  0  0  0  0  0  0  0  0
  -39.0600  -11.5570   10.5270 C   0  0  0  0  0  0  0  0  0  0  0  0
  -39.1300  -11.7820   12.0000 C   0  0  0  0  0  0  0  0  0  0  0  0
  -40.0860  -12.9880   13.7780 C   0  0  0  0  0  0  0  0  0  0  0  0
  -40.9310  -13.9720   14.2760 C   0  0  0  0  0  0  0  0  0  0  0  0
  -41.0400  -14.1610   15.6440 C   0  0  0  0  0  0  0  0  0  0  0  0
  -40.2940  -13.3960   16.5420 C   0  0  0  0  0  0  0  0  0  0  0  0
  -39.4310  -12.3920   16.0900 C   0  0  0  0  0  0  0  0  0  0  0  0
  -39.3130  -12.1670   14.7280 C   0  0  0  0  0  0  0  0  0  0  0  0
  -38.4220  -11.1400   14.1550 C   0  0  0  0  0  0  0  0  0  0  0  0
  -41.3430   -9.6680    5.9590 N   0  0  0  0  0  0  0  0  0  0  0  0
  -38.3840  -11.0070   12.8200 N   0  0  0  0  0  0  0  0  0  0  0  0
  -37.7130  -10.4130   14.8780 O   0  0  0  0  0  0  0  0  0  0  0  0
  -39.9640  -12.7530   12.4480 N   0  0  0  0  0  0  0  0  0  0  0  0
  -39.0150  -10.9480    6.2600 C   0  0  0  0  0  0  0  0  0  0  0  0
  -39.7780   -9.5580    5.7540 S   0  0  0  0  0  0  0  0  0  0  0  0
  -39.0290  -11.1310    7.7640 C   0  0  0  0  0  0  0  0  0  0  0  0
  -37.7957   -9.4090    8.1926 H   0  0  0  0  0  0  0  0  0  0  0  0
  -37.8714   -9.7597   10.6598 H   0  0  0  0  0  0  0  0  0  0  0  0
  -40.2503  -12.9048    7.6372 H   0  0  0  0  0  0  0  0  0  0  0  0
  -40.3150  -13.2628   10.0942 H   0  0  0  0  0  0  0  0  0  0  0  0
  -41.5126  -14.6000   13.5851 H   0  0  0  0  0  0  0  0  0  0  0  0
  -41.7273  -14.9283   16.0298 H   0  0  0  0  0  0  0  0  0  0  0  0
  -40.3861  -13.5854   17.6216 H   0  0  0  0  0  0  0  0  0  0  0  0
  -38.8537  -11.7892   16.8065 H   0  0  0  0  0  0  0  0  0  0  0  0
  -41.5571   -9.6830    6.9664 H   0  0  0  0  0  0  0  0  0  0  0  0
  -41.8043   -8.8574    5.5220 H   0  0  0  0  0  0  0  0  0  0  0  0
  -37.7676  -10.2926   12.4071 H   0  0  0  0  0  0  0  0  0  0  0  0
  -39.5200  -11.8099    5.7995 H   0  0  0  0  0  0  0  0  0  0  0  0
  -37.9616  -10.8693    5.9531 H   0  0  0  0  0  0  0  0  0  0  0  0
  2 21  2  0
  1 21  2  0
  3  4  2  0
  3 22  1  0
  4  7  1  0
  5  6  1  0
  5 22  2  0
  6  7  2  0
  7  8  1  0
  8 17  1  0
  8 19  2  0
  9 10  2  0
  9 14  1  0
  9 19  1  0
 10 11  1  0
 11 12  2  0
 12 13  1  0
 13 14  2  0
 14 15  1  0
 15 17  1  0
 15 18  2  0
 16 21  1  0
 21 20  1  0
 20 22  1  0
  3 23  1  0
  4 24  1  0
  5 25  1  0
  6 26  1  0
 10 27  1  0
 11 28  1  0
 12 29  1  0
 13 30  1  0
 16 31  1  0
 16 32  1  0
 17 33  1  0
 20 34  1  0
 20 35  1  0
A    1
OAD
A    2
OAB
A    3
CAF
A    4
CAG
A    5
CAJ
A    6
CAI
A    7
CAH
A    8
CAK
A    9
CAT
A   10
CAS
A   11
CAR
A   12
CAQ
A   13
CAP
A   14
CAO
A   15
CAM
A   16
N10
A   17
N1
A   18
OAN
A   19
N
A   20
C
A   21
S
A   22
C1
M  END
