4BUY_F37_A_2164
     RDKit          3D

 39 42  0  0  0  0  0  0  0  0999 V2000
  -40.7960  -12.2950    3.8280 O   0  0  0  0  0  0  0  0  0  0  0  0
  -40.0110  -11.6980    4.6050 C   0  0  0  0  0  0  0  0  0  0  0  0
  -38.7080  -11.8960    4.4730 N   0  0  0  0  0  0  0  0  0  0  0  0
  -38.2130  -11.1090    5.4330 C   0  0  0  0  0  0  0  0  0  0  0  0
  -36.9680  -11.0580    5.6260 O   0  0  0  0  0  0  0  0  0  0  0  0
  -40.4220  -10.9050    5.6020 N   0  0  0  0  0  0  0  0  0  0  0  0
  -39.2180  -10.3910    6.2420 C   0  0  0  0  0  0  0  0  0  0  0  0
  -39.1780   -8.8860    6.0140 C   0  0  0  0  0  0  0  0  0  0  0  0
  -39.1720  -10.7480    7.7160 C   0  0  0  0  0  0  0  0  0  0  0  0
  -39.8060  -11.9050    8.1990 C   0  0  0  0  0  0  0  0  0  0  0  0
  -39.7970  -12.2590    9.5570 C   0  0  0  0  0  0  0  0  0  0  0  0
  -38.4820   -9.9780    8.6150 C   0  0  0  0  0  0  0  0  0  0  0  0
  -38.4890  -10.2900    9.9780 C   0  0  0  0  0  0  0  0  0  0  0  0
  -39.1040  -11.4380   10.4740 C   0  0  0  0  0  0  0  0  0  0  0  0
  -39.1040  -11.7630   11.9390 C   0  0  0  0  0  0  0  0  0  0  0  0
  -38.3130  -11.0700   12.7960 N   0  0  0  0  0  0  0  0  0  0  0  0
  -38.2900  -11.2720   14.1220 C   0  0  0  0  0  0  0  0  0  0  0  0
  -37.5050  -10.6500   14.8970 O   0  0  0  0  0  0  0  0  0  0  0  0
  -39.9560  -12.7330   12.3640 N   0  0  0  0  0  0  0  0  0  0  0  0
  -40.0440  -13.0480   13.6770 C   0  0  0  0  0  0  0  0  0  0  0  0
  -39.2150  -12.3030   14.6590 C   0  0  0  0  0  0  0  0  0  0  0  0
  -40.8670  -14.0660   14.1320 C   0  0  0  0  0  0  0  0  0  0  0  0
  -40.9340  -14.3660   15.4910 C   0  0  0  0  0  0  0  0  0  0  0  0
  -40.1630  -13.6280   16.4240 C   0  0  0  0  0  0  0  0  0  0  0  0
  -39.2950  -12.6180   16.0020 C   0  0  0  0  0  0  0  0  0  0  0  0
  -38.2071  -12.4990    3.8049 H   0  0  0  0  0  0  0  0  0  0  0  0
  -41.3964  -10.6989    5.8648 H   0  0  0  0  0  0  0  0  0  0  0  0
  -39.1642   -8.3684    6.9845 H   0  0  0  0  0  0  0  0  0  0  0  0
  -38.2726   -8.6251    5.4464 H   0  0  0  0  0  0  0  0  0  0  0  0
  -40.0683   -8.5773    5.4464 H   0  0  0  0  0  0  0  0  0  0  0  0
  -40.3294  -12.5584    7.4855 H   0  0  0  0  0  0  0  0  0  0  0  0
  -40.3217  -13.1621    9.9021 H   0  0  0  0  0  0  0  0  0  0  0  0
  -37.9159   -9.1041    8.2603 H   0  0  0  0  0  0  0  0  0  0  0  0
  -37.9924   -9.6064   10.6824 H   0  0  0  0  0  0  0  0  0  0  0  0
  -37.6934  -10.3458   12.4054 H   0  0  0  0  0  0  0  0  0  0  0  0
  -41.4715  -14.6412   13.4153 H   0  0  0  0  0  0  0  0  0  0  0  0
  -41.5876  -15.1785   15.8412 H   0  0  0  0  0  0  0  0  0  0  0  0
  -40.2495  -13.8541   17.4970 H   0  0  0  0  0  0  0  0  0  0  0  0
  -38.6787  -12.0765   16.7348 H   0  0  0  0  0  0  0  0  0  0  0  0
  1  2  2  0
  2  3  1  0
  2  6  1  0
  3  4  1  0
  4  5  2  0
  4  7  1  0
  6  7  1  0
  7  8  1  0
  7  9  1  0
  9 10  2  0
  9 12  1  0
 10 11  1  0
 11 14  2  0
 12 13  2  0
 13 14  1  0
 14 15  1  0
 15 16  1  0
 15 19  2  0
 16 17  1  0
 17 18  2  0
 17 21  1  0
 19 20  1  0
 20 21  2  0
 20 22  1  0
 21 25  1  0
 22 23  2  0
 23 24  1  0
 24 25  2  0
  3 26  1  0
  6 27  1  0
  8 28  1  0
  8 29  1  0
  8 30  1  0
 10 31  1  0
 11 32  1  0
 12 33  1  0
 13 34  1  0
 16 35  1  0
 22 36  1  0
 23 37  1  0
 24 38  1  0
 25 39  1  0
A    1
O
A    2
C2
A    3
N1
A    4
C3
A    5
O1
A    6
N
A    7
C1
A    8
C
A    9
C4
A   10
C5
A   11
C6
A   12
C9
A   13
C8
A   14
C7
A   15
C10
A   16
N3
A   17
C17
A   18
O2
A   19
N2
A   20
C11
A   21
C12
A   22
C16
A   23
C15
A   24
C14
A   25
C13
M  END
