4BV7_BV7_A_1083
     RDKit          3D

 26 26  0  0  0  0  0  0  0  0999 V2000
  -10.5610    6.2780   -5.0180 C   0  0  0  0  0  0  0  0  0  0  0  0
  -11.4950    6.7720   -6.1160 C   0  0  0  0  0  0  0  0  0  0  0  0
  -12.7170    6.0030   -6.0680 N   0  0  0  0  0  0  0  0  0  0  0  0
  -13.4200    6.0860   -4.7800 C   0  0  0  0  0  0  0  0  0  0  0  0
  -12.4920    5.7210   -3.6060 C   0  0  0  0  0  0  0  0  0  0  0  0
  -11.2550    6.6040   -3.7020 C   0  0  0  0  0  0  0  0  0  0  0  0
  -10.3010    6.4560   -2.5060 C   0  0  0  0  0  0  0  0  0  0  0  0
   -9.4620    5.2030   -2.6120 C   0  0  0  0  0  0  0  0  0  0  0  0
   -8.5370    5.0520   -1.4200 C   0  0  0  0  0  0  0  0  0  0  0  0
   -7.9780    4.0240   -1.2330 O   0  0  0  0  0  0  0  0  0  0  0  0
   -8.3360    6.0470   -0.5830 O   0  0  0  0  0  0  0  0  0  0  0  0
  -10.4034    5.1932   -5.1090 H   0  0  0  0  0  0  0  0  0  0  0  0
   -9.5726    6.7565   -5.0828 H   0  0  0  0  0  0  0  0  0  0  0  0
  -11.7216    7.8367   -5.9574 H   0  0  0  0  0  0  0  0  0  0  0  0
  -11.0149    6.6502   -7.0982 H   0  0  0  0  0  0  0  0  0  0  0  0
  -13.3477    6.3492   -6.8051 H   0  0  0  0  0  0  0  0  0  0  0  0
  -13.7877    7.1131   -4.6390 H   0  0  0  0  0  0  0  0  0  0  0  0
  -14.2549    5.3699   -4.7956 H   0  0  0  0  0  0  0  0  0  0  0  0
  -13.0075    5.9008   -2.6510 H   0  0  0  0  0  0  0  0  0  0  0  0
  -12.2115    4.6584   -3.6525 H   0  0  0  0  0  0  0  0  0  0  0  0
  -11.5677    7.6583   -3.6749 H   0  0  0  0  0  0  0  0  0  0  0  0
   -9.6339    7.3299   -2.4718 H   0  0  0  0  0  0  0  0  0  0  0  0
  -10.9069    6.3867   -1.5905 H   0  0  0  0  0  0  0  0  0  0  0  0
  -10.1286    4.3293   -2.6602 H   0  0  0  0  0  0  0  0  0  0  0  0
   -8.8459    5.2756   -3.5204 H   0  0  0  0  0  0  0  0  0  0  0  0
   -8.3684    5.8867    0.3934 H   0  0  0  0  0  0  0  0  0  0  0  0
  1  2  1  0
  1  6  1  0
  2  3  1  0
  3  4  1  0
  4  5  1  0
  5  6  1  0
  6  7  1  0
  7  8  1  0
  8  9  1  0
  9 10  2  0
  9 11  1  0
  1 12  1  0
  1 13  1  0
  2 14  1  0
  2 15  1  0
  3 16  1  0
  4 17  1  0
  4 18  1  0
  5 19  1  0
  5 20  1  0
  6 21  1  0
  7 22  1  0
  7 23  1  0
  8 24  1  0
  8 25  1  0
 11 26  1  0
A    1
C1
A    2
C2
A    3
N3
A    4
C4
A    5
C5
A    6
C6
A    7
C7
A    8
C8
A    9
C9
A   10
O10
A   11
O11
M  END
