4BW2_UTH_A_1170
     RDKit          3D

 55 58  0  0  0  0  0  0  0  0999 V2000
   11.4140    5.6450   12.6060 C   0  0  0  0  0  0  0  0  0  0  0  0
   12.3490    6.6330   11.9990 C   0  0  0  0  0  0  0  0  0  0  0  0
   12.1260    7.9090   12.1630 N   0  0  0  0  0  0  0  0  0  0  0  0
   13.1700    8.5850   11.4770 O   0  0  0  0  0  0  0  0  0  0  0  0
   13.9700    7.6640   10.9260 C   0  0  0  0  0  0  0  0  0  0  0  0
   15.1320    8.1760   10.1600 C   0  0  0  0  0  0  0  0  0  0  0  0
   13.5040    6.4240   11.2170 C   0  0  0  0  0  0  0  0  0  0  0  0
   14.0590    5.1180   10.8010 C   0  0  0  0  0  0  0  0  0  0  0  0
   14.3530    4.8670    9.4670 C   0  0  0  0  0  0  0  0  0  0  0  0
   14.8540    3.6550    9.1230 C   0  0  0  0  0  0  0  0  0  0  0  0
   15.0610    2.6670   10.1100 C   0  0  0  0  0  0  0  0  0  0  0  0
   15.5980    1.3650    9.8230 C   0  0  0  0  0  0  0  0  0  0  0  0
   15.9190    0.8990    8.5440 N   0  0  0  0  0  0  0  0  0  0  0  0
   16.2890    1.6630    7.3760 C   0  0  0  0  0  0  0  0  0  0  0  0
   17.5690    2.2130    7.3440 C   0  0  0  0  0  0  0  0  0  0  0  0
   17.9910    2.9520    6.2520 C   0  0  0  0  0  0  0  0  0  0  0  0
   17.1540    3.1540    5.1790 C   0  0  0  0  0  0  0  0  0  0  0  0
   15.8780    2.6200    5.1730 C   0  0  0  0  0  0  0  0  0  0  0  0
   15.4040    1.8760    6.2490 C   0  0  0  0  0  0  0  0  0  0  0  0
   13.9680    1.2950    6.1670 C   0  0  0  0  0  0  0  0  0  0  0  0
   13.1340    2.0010    5.0800 C   0  0  0  0  0  0  0  0  0  0  0  0
   13.1660    1.4280    7.4640 C   0  0  0  0  0  0  0  0  0  0  0  0
   14.0170   -0.1790    5.7880 C   0  0  0  0  0  0  0  0  0  0  0  0
   15.7240    0.5090   10.9520 C   0  0  0  0  0  0  0  0  0  0  0  0
   15.3700    0.9720   12.2140 C   0  0  0  0  0  0  0  0  0  0  0  0
   14.8780    2.1510   12.4910 N   0  0  0  0  0  0  0  0  0  0  0  0
   14.7290    3.0130   11.4440 C   0  0  0  0  0  0  0  0  0  0  0  0
   16.2880   -0.8680   10.8760 C   0  0  0  0  0  0  0  0  0  0  0  0
   16.6760   -1.2260    9.6910 O   0  0  0  0  0  0  0  0  0  0  0  0
   16.4470   -1.5570   11.8760 O   0  0  0  0  0  0  0  0  0  0  0  0
   14.2230    4.2340   11.7880 N   0  0  0  0  0  0  0  0  0  0  0  0
   11.4743    5.7088   13.7025 H   0  0  0  0  0  0  0  0  0  0  0  0
   10.3863    5.8657   12.2819 H   0  0  0  0  0  0  0  0  0  0  0  0
   11.6909    4.6310   12.2819 H   0  0  0  0  0  0  0  0  0  0  0  0
   15.9095    8.5186   10.8586 H   0  0  0  0  0  0  0  0  0  0  0  0
   15.5363    7.3727    9.5266 H   0  0  0  0  0  0  0  0  0  0  0  0
   14.8121    9.0165    9.5266 H   0  0  0  0  0  0  0  0  0  0  0  0
   14.1822    5.6389    8.7021 H   0  0  0  0  0  0  0  0  0  0  0  0
   15.0998    3.4410    8.0724 H   0  0  0  0  0  0  0  0  0  0  0  0
   15.8873   -0.1229    8.4189 H   0  0  0  0  0  0  0  0  0  0  0  0
   18.2501    2.0586    8.1939 H   0  0  0  0  0  0  0  0  0  0  0  0
   19.0038    3.3812    6.2422 H   0  0  0  0  0  0  0  0  0  0  0  0
   17.5023    3.7449    4.3190 H   0  0  0  0  0  0  0  0  0  0  0  0
   15.2266    2.7864    4.3024 H   0  0  0  0  0  0  0  0  0  0  0  0
   12.3773    2.6415    5.5567 H   0  0  0  0  0  0  0  0  0  0  0  0
   13.7950    2.6182    4.4538 H   0  0  0  0  0  0  0  0  0  0  0  0
   12.6344    1.2472    4.4538 H   0  0  0  0  0  0  0  0  0  0  0  0
   13.8408    1.3161    8.3255 H   0  0  0  0  0  0  0  0  0  0  0  0
   12.6874    2.4178    7.4993 H   0  0  0  0  0  0  0  0  0  0  0  0
   12.3935    0.6457    7.4993 H   0  0  0  0  0  0  0  0  0  0  0  0
   14.0374   -0.7919    6.7012 H   0  0  0  0  0  0  0  0  0  0  0  0
   13.1269   -0.4348    5.1945 H   0  0  0  0  0  0  0  0  0  0  0  0
   14.9222   -0.3751    5.1945 H   0  0  0  0  0  0  0  0  0  0  0  0
   15.5176    0.2822   13.0580 H   0  0  0  0  0  0  0  0  0  0  0  0
   17.3996   -1.8937    9.5877 H   0  0  0  0  0  0  0  0  0  0  0  0
  1  2  1  0
  2  3  2  0
  2  7  1  0
  3  4  1  0
  4  5  1  0
  5  6  1  0
  5  7  2  0
  7  8  1  0
  8  9  2  0
  8 31  1  0
  9 10  1  0
 10 11  2  0
 11 12  1  0
 11 27  1  0
 12 13  1  0
 12 24  2  0
 13 14  1  0
 14 15  2  0
 14 19  1  0
 15 16  1  0
 16 17  2  0
 17 18  1  0
 18 19  2  0
 19 20  1  0
 20 21  1  0
 20 22  1  0
 20 23  1  0
 24 25  1  0
 24 28  1  0
 25 26  2  0
 26 27  1  0
 27 31  2  0
 28 29  1  0
 28 30  2  0
  1 32  1  0
  1 33  1  0
  1 34  1  0
  6 35  1  0
  6 36  1  0
  6 37  1  0
  9 38  1  0
 10 39  1  0
 13 40  1  0
 15 41  1  0
 16 42  1  0
 17 43  1  0
 18 44  1  0
 21 45  1  0
 21 46  1  0
 21 47  1  0
 22 48  1  0
 22 49  1  0
 22 50  1  0
 23 51  1  0
 23 52  1  0
 23 53  1  0
 25 54  1  0
 29 55  1  0
A    1
C01
A    2
C02
A    3
N01
A    4
O01
A    5
C03
A    6
C04
A    7
C05
A    8
C06
A    9
C07
A   10
C08
A   11
C09
A   12
C10
A   13
N02
A   14
C11
A   15
C12
A   16
C13
A   17
C14
A   18
C15
A   19
C16
A   20
C17
A   21
C18
A   22
C19
A   23
C20
A   24
C21
A   25
C22
A   26
N1
A   27
C23
A   28
C1
A   29
O02
A   30
O1
A   31
N51
M  END
