4BXK_1IU_A_1001
     RDKit          3D

 62 63  0  0  0  0  0  0  0  0999 V2000
   -5.7470  -22.3020  -21.6340 N   0  0  0  0  0  0  0  0  0  0  0  0
   -6.2880  -23.0360  -20.8130 N   0  0  0  0  0  0  0  0  0  0  0  0
   -6.0470  -22.6280  -19.6190 N   0  0  0  0  0  0  0  0  0  0  0  0
   -5.3490  -21.6280  -19.6290 N   0  0  0  0  0  0  0  0  0  0  0  0
   -5.1200  -21.3800  -20.9120 C   0  0  0  0  0  0  0  0  0  0  0  0
   -4.3070  -20.1990  -21.4280 C   0  0  0  0  0  0  0  0  0  0  0  0
   -4.6100  -19.9360  -22.8930 C   0  0  0  0  0  0  0  0  0  0  0  0
   -6.0170  -19.6470  -23.1620 N   0  0  0  0  0  0  0  0  0  0  0  0
   -3.7800  -18.7830  -23.4910 C   0  0  0  0  0  0  0  0  0  0  0  0
   -3.7960  -18.6910  -24.7090 O   0  0  0  0  0  0  0  0  0  0  0  0
   -3.0820  -17.9400  -22.6940 N   0  0  0  0  0  0  0  0  0  0  0  0
   -2.1980  -16.9250  -23.2940 C   0  0  0  0  0  0  0  0  0  0  0  0
   -2.4580  -15.5230  -22.7810 C   0  0  0  0  0  0  0  0  0  0  0  0
   -3.7600  -15.1210  -23.1820 C   0  0  0  0  0  0  0  0  0  0  0  0
   -4.8080  -15.0440  -22.2630 C   0  0  0  0  0  0  0  0  0  0  0  0
   -6.0820  -14.6380  -22.6730 C   0  0  0  0  0  0  0  0  0  0  0  0
   -6.3370  -14.2920  -23.9980 C   0  0  0  0  0  0  0  0  0  0  0  0
   -5.2880  -14.3610  -24.9090 C   0  0  0  0  0  0  0  0  0  0  0  0
   -4.0170  -14.7640  -24.5040 C   0  0  0  0  0  0  0  0  0  0  0  0
   -0.4560  -17.4960  -22.8680 P   0  0  0  0  0  0  0  0  0  0  0  0
   -0.3010  -18.9090  -23.5510 O   0  0  0  0  0  0  0  0  0  0  0  0
   -0.2750  -17.6430  -21.4020 O   0  0  0  0  0  0  0  0  0  0  0  0
    0.5950  -16.3890  -23.7480 C   0  0  0  0  0  0  0  0  0  0  0  0
    1.9390  -16.2860  -22.9940 C   0  0  0  0  0  0  0  0  0  0  0  0
    3.0830  -15.9700  -23.9990 C   0  0  0  0  0  0  0  0  0  0  0  0
    1.9540  -15.1540  -21.9380 C   0  0  0  0  0  0  0  0  0  0  0  0
    1.1420  -14.2210  -21.9620 O   0  0  0  0  0  0  0  0  0  0  0  0
    2.9830  -15.2510  -21.0800 N   0  0  0  0  0  0  0  0  0  0  0  0
    3.2310  -14.2910  -19.9900 C   0  0  0  0  0  0  0  0  0  0  0  0
    4.3230  -14.8320  -19.0500 C   0  0  0  0  0  0  0  0  0  0  0  0
    3.6540  -12.9080  -20.5440 C   0  0  0  0  0  0  0  0  0  0  0  0
    3.3540  -11.8860  -19.9240 O   0  0  0  0  0  0  0  0  0  0  0  0
    4.3120  -12.8870  -21.7100 N   0  0  0  0  0  0  0  0  0  0  0  0
   -5.0106  -21.0920  -18.8171 H   0  0  0  0  0  0  0  0  0  0  0  0
   -4.5590  -19.3035  -20.8410 H   0  0  0  0  0  0  0  0  0  0  0  0
   -3.2375  -20.4349  -21.3255 H   0  0  0  0  0  0  0  0  0  0  0  0
   -4.3337  -20.8853  -23.3752 H   0  0  0  0  0  0  0  0  0  0  0  0
   -6.5227  -19.5431  -22.2707 H   0  0  0  0  0  0  0  0  0  0  0  0
   -6.0908  -18.7733  -23.7025 H   0  0  0  0  0  0  0  0  0  0  0  0
   -3.1687  -18.0080  -21.6699 H   0  0  0  0  0  0  0  0  0  0  0  0
   -2.3699  -16.8503  -24.3779 H   0  0  0  0  0  0  0  0  0  0  0  0
   -2.3901  -15.5129  -21.6831 H   0  0  0  0  0  0  0  0  0  0  0  0
   -1.7101  -14.8301  -23.1939 H   0  0  0  0  0  0  0  0  0  0  0  0
   -4.6305  -15.3044  -21.2091 H   0  0  0  0  0  0  0  0  0  0  0  0
   -6.8972  -14.5911  -21.9360 H   0  0  0  0  0  0  0  0  0  0  0  0
   -7.3407  -13.9728  -24.3154 H   0  0  0  0  0  0  0  0  0  0  0  0
   -5.4639  -14.0943  -25.9616 H   0  0  0  0  0  0  0  0  0  0  0  0
   -3.2017  -14.8009  -25.2415 H   0  0  0  0  0  0  0  0  0  0  0  0
   -0.9503  -17.0946  -20.9295 H   0  0  0  0  0  0  0  0  0  0  0  0
    0.7683  -16.7712  -24.7648 H   0  0  0  0  0  0  0  0  0  0  0  0
    0.1245  -15.3971  -23.8170 H   0  0  0  0  0  0  0  0  0  0  0  0
    2.0783  -17.2536  -22.4896 H   0  0  0  0  0  0  0  0  0  0  0  0
    3.9987  -15.7171  -23.4445 H   0  0  0  0  0  0  0  0  0  0  0  0
    3.2689  -16.8504  -24.6317 H   0  0  0  0  0  0  0  0  0  0  0  0
    2.7906  -15.1190  -24.6317 H   0  0  0  0  0  0  0  0  0  0  0  0
    3.6351  -16.0406  -21.1902 H   0  0  0  0  0  0  0  0  0  0  0  0
    2.2931  -14.1643  -19.4294 H   0  0  0  0  0  0  0  0  0  0  0  0
    4.0156  -14.6797  -18.0049 H   0  0  0  0  0  0  0  0  0  0  0  0
    4.4682  -15.9063  -19.2366 H   0  0  0  0  0  0  0  0  0  0  0  0
    5.2657  -14.2967  -19.2366 H   0  0  0  0  0  0  0  0  0  0  0  0
    5.3414  -12.8541  -21.7199 H   0  0  0  0  0  0  0  0  0  0  0  0
    3.7887  -12.9037  -22.5970 H   0  0  0  0  0  0  0  0  0  0  0  0
  1  2  1  0
  1  5  2  0
  2  3  2  0
  3  4  1  0
  4  5  1  0
  5  6  1  0
  6  7  1  0
  7  8  1  0
  7  9  1  0
  9 10  2  0
  9 11  1  0
 11 12  1  0
 12 13  1  0
 13 14  1  0
 14 15  2  0
 14 19  1  0
 15 16  1  0
 16 17  2  0
 17 18  1  0
 18 19  2  0
 20 12  1  0
 20 21  2  0
 20 22  1  0
 20 23  1  0
 23 24  1  0
 24 25  1  0
 24 26  1  0
 26 27  2  0
 26 28  1  0
 28 29  1  0
 29 30  1  0
 29 31  1  0
 31 32  2  0
 31 33  1  0
  4 34  1  0
  6 35  1  0
  6 36  1  0
  7 37  1  0
  8 38  1  0
  8 39  1  0
 11 40  1  0
 12 41  1  0
 13 42  1  0
 13 43  1  0
 15 44  1  0
 16 45  1  0
 17 46  1  0
 18 47  1  0
 19 48  1  0
 22 49  1  0
 23 50  1  0
 23 51  1  0
 24 52  1  0
 25 53  1  0
 25 54  1  0
 25 55  1  0
 28 56  1  0
 29 57  1  0
 30 58  1  0
 30 59  1  0
 30 60  1  0
 33 61  1  0
 33 62  1  0
A    1
NAS
A    2
NAR
A    3
NAW
A    4
NAT
A    5
CBB
A    6
CAP
A    7
CBE
A    8
NAD
A    9
CAZ
A   10
OAG
A   11
NAV
A   12
CBF
A   13
CAO
A   14
CBA
A   15
CAM
A   16
CAK
A   17
CAJ
A   18
CAL
A   19
CAN
A   20
PBG
A   21
OAI
A   22
OAH
A   23
CAQ
A   24
CBC
A   25
CAA
A   26
CAY
A   27
OAF
A   28
N
A   29
CA
A   30
CB
A   31
C
A   32
O
A   33
NAC
M  END
