4BYJ_FH5_A_1
     RDKit          3D

 46 49  0  0  0  0  0  0  0  0999 V2000
    3.4990  -28.1820   -8.7240 Cl  0  0  0  0  0  0  0  0  0  0  0  0
    2.5280  -29.4920   -8.1160 C   0  0  0  0  0  0  0  0  0  0  0  0
    1.7230  -30.1970   -9.0230 C   0  0  0  0  0  0  0  0  0  0  0  0
    0.9500  -31.2210   -8.6070 N   0  0  0  0  0  0  0  0  0  0  0  0
    0.9270  -31.6120   -7.2800 C   0  0  0  0  0  0  0  0  0  0  0  0
    0.2300  -32.6170   -6.6110 N   0  0  0  0  0  0  0  0  0  0  0  0
    0.5720  -32.5760   -5.2890 C   0  0  0  0  0  0  0  0  0  0  0  0
    0.1060  -33.4360   -4.1820 C   0  0  0  0  0  0  0  0  0  0  0  0
    0.5860  -33.3630   -2.8920 C   0  0  0  0  0  0  0  0  0  0  0  0
   -0.0480  -34.2740   -2.1770 N   0  0  0  0  0  0  0  0  0  0  0  0
    0.1610  -34.5120   -0.8100 C   0  0  0  0  0  0  0  0  0  0  0  0
   -0.9470  -34.9590   -2.9600 N   0  0  0  0  0  0  0  0  0  0  0  0
   -0.8650  -34.4540   -4.2070 C   0  0  0  0  0  0  0  0  0  0  0  0
   -1.6850  -34.9190   -5.3920 C   0  0  0  0  0  0  0  0  0  0  0  0
    1.4670  -31.5690   -5.1250 N   0  0  0  0  0  0  0  0  0  0  0  0
    1.6940  -30.9600   -6.3480 C   0  0  0  0  0  0  0  0  0  0  0  0
    2.5240  -29.8650   -6.7410 C   0  0  0  0  0  0  0  0  0  0  0  0
    3.3200  -29.2400   -5.7170 N   0  0  0  0  0  0  0  0  0  0  0  0
    3.1380  -27.8210   -5.4260 C   0  0  0  0  0  0  0  0  0  0  0  0
    4.5310  -27.4110   -5.0490 C   0  0  0  0  0  0  0  0  0  0  0  0
    4.5620  -26.1990   -4.2930 N   0  0  0  0  0  0  0  0  0  0  0  0
    5.5470  -25.1920   -4.6580 C   0  0  0  0  0  0  0  0  0  0  0  0
    5.6230  -23.8940   -3.9060 C   0  0  0  0  0  0  0  0  0  0  0  0
    6.3210  -25.4030   -5.5860 O   0  0  0  0  0  0  0  0  0  0  0  0
    5.0260  -28.5430   -4.2960 C   0  0  0  0  0  0  0  0  0  0  0  0
    4.5110  -29.7050   -5.0350 C   0  0  0  0  0  0  0  0  0  0  0  0
    1.7222  -29.9115  -10.0853 H   0  0  0  0  0  0  0  0  0  0  0  0
   -0.4315  -33.2791   -7.0411 H   0  0  0  0  0  0  0  0  0  0  0  0
    1.3579  -32.6708   -2.5246 H   0  0  0  0  0  0  0  0  0  0  0  0
   -0.4510  -33.8150   -0.2187 H   0  0  0  0  0  0  0  0  0  0  0  0
   -0.1259  -35.5464   -0.5698 H   0  0  0  0  0  0  0  0  0  0  0  0
    1.2238  -34.3611   -0.5698 H   0  0  0  0  0  0  0  0  0  0  0  0
   -2.5896  -35.4319   -5.0333 H   0  0  0  0  0  0  0  0  0  0  0  0
   -1.9736  -34.0502   -6.0018 H   0  0  0  0  0  0  0  0  0  0  0  0
   -1.0875  -35.6127   -6.0018 H   0  0  0  0  0  0  0  0  0  0  0  0
    2.7832  -27.2718   -6.3106 H   0  0  0  0  0  0  0  0  0  0  0  0
    2.3851  -27.6155   -4.6508 H   0  0  0  0  0  0  0  0  0  0  0  0
    5.1525  -27.1828   -5.9275 H   0  0  0  0  0  0  0  0  0  0  0  0
    3.9071  -26.0428   -3.5135 H   0  0  0  0  0  0  0  0  0  0  0  0
    5.6112  -24.0955   -2.8247 H   0  0  0  0  0  0  0  0  0  0  0  0
    6.5533  -23.3705   -4.1713 H   0  0  0  0  0  0  0  0  0  0  0  0
    4.7601  -23.2655   -4.1713 H   0  0  0  0  0  0  0  0  0  0  0  0
    6.1258  -28.5485   -4.2734 H   0  0  0  0  0  0  0  0  0  0  0  0
    4.7036  -28.5294   -3.2444 H   0  0  0  0  0  0  0  0  0  0  0  0
    4.2615  -30.5210   -4.3409 H   0  0  0  0  0  0  0  0  0  0  0  0
    5.2559  -30.0989   -5.7421 H   0  0  0  0  0  0  0  0  0  0  0  0
  1  2  1  0
  2  3  2  0
  2 17  1  0
  3  4  1  0
  4  5  2  0
  5  6  1  0
  5 16  1  0
  6  7  1  0
  7  8  1  0
  7 15  2  0
  8  9  2  0
  8 13  1  0
  9 10  1  0
 10 11  1  0
 10 12  1  0
 12 13  2  0
 13 14  1  0
 15 16  1  0
 16 17  2  0
 17 18  1  0
 18 19  1  0
 18 26  1  0
 19 20  1  0
 20 21  1  0
 20 25  1  0
 21 22  1  0
 22 23  1  0
 22 24  2  0
 25 26  1  0
  3 27  1  0
  6 28  1  0
  9 29  1  0
 11 30  1  0
 11 31  1  0
 11 32  1  0
 14 33  1  0
 14 34  1  0
 14 35  1  0
 19 36  1  0
 19 37  1  0
 20 38  1  0
 21 39  1  0
 23 40  1  0
 23 41  1  0
 23 42  1  0
 25 43  1  0
 25 44  1  0
 26 45  1  0
 26 46  1  0
A    1
CL
A    2
C02
A    3
C03
A    4
N04
A    5
C05
A    6
N06
A    7
C07
A    8
C08
A    9
C09
A   10
N10
A   11
C11
A   12
N12
A   13
C13
A   14
C14
A   15
N15
A   16
C16
A   17
C17
A   18
N18
A   19
C19
A   20
C20
A   21
N21
A   22
C22
A   23
C23
A   24
O24
A   25
C25
A   26
C26
M  END
