4BZO_676_A_1306
     RDKit          3D

 52 55  0  0  0  0  0  0  0  0999 V2000
   20.8970  -34.3990    4.6090 O   0  0  0  0  0  0  0  0  0  0  0  0
   22.0050  -33.8930    4.7990 C   0  0  0  0  0  0  0  0  0  0  0  0
   22.9420  -34.4680    5.5750 N   0  0  0  0  0  0  0  0  0  0  0  0
   22.7330  -35.7070    6.3460 C   0  0  0  0  0  0  0  0  0  0  0  0
   23.2280  -36.9710    5.7190 C   0  0  0  0  0  0  0  0  0  0  0  0
   24.0800  -36.9720    4.6140 C   0  0  0  0  0  0  0  0  0  0  0  0
   24.5230  -38.1790    4.0710 C   0  0  0  0  0  0  0  0  0  0  0  0
   24.1340  -39.4110    4.6350 C   0  0  0  0  0  0  0  0  0  0  0  0
   23.2810  -39.4200    5.7470 C   0  0  0  0  0  0  0  0  0  0  0  0
   22.8340  -38.2020    6.2830 C   0  0  0  0  0  0  0  0  0  0  0  0
   23.5180  -35.5150    7.6650 C   0  0  0  0  0  0  0  0  0  0  0  0
   22.9000  -34.4860    8.4980 N   0  0  0  0  0  0  0  0  0  0  0  0
   22.3760  -32.5930    4.0990 C   0  0  0  0  0  0  0  0  0  0  0  0
   21.6140  -32.3540    2.7750 C   0  0  0  0  0  0  0  0  0  0  0  0
   22.2320  -33.1060    1.6580 N   0  0  0  0  0  0  0  0  0  0  0  0
   22.5140  -34.5090    1.6910 C   0  0  0  0  0  0  0  0  0  0  0  0
   21.8490  -30.8650    2.4880 C   0  0  0  0  0  0  0  0  0  0  0  0
   21.4830  -30.5400    1.1140 N   0  0  0  0  0  0  0  0  0  0  0  0
   21.6390  -31.3240    0.0380 C   0  0  0  0  0  0  0  0  0  0  0  0
   21.4880  -30.9230   -1.1130 O   0  0  0  0  0  0  0  0  0  0  0  0
   22.0020  -32.7410    0.2840 C   0  0  0  0  0  0  0  0  0  0  0  0
   22.3010  -33.8340   -0.5010 C   0  0  0  0  0  0  0  0  0  0  0  0
   22.5970  -34.9080    0.3490 C   0  0  0  0  0  0  0  0  0  0  0  0
   23.0220  -36.2680   -0.1150 C   0  0  0  0  0  0  0  0  0  0  0  0
   23.1080  -37.3610    0.7460 C   0  0  0  0  0  0  0  0  0  0  0  0
   23.5850  -38.5770    0.2380 C   0  0  0  0  0  0  0  0  0  0  0  0
   23.6430  -39.6580    1.0360 F   0  0  0  0  0  0  0  0  0  0  0  0
   24.0040  -38.6960   -1.0570 N   0  0  0  0  0  0  0  0  0  0  0  0
   23.9590  -37.6370   -1.8940 C   0  0  0  0  0  0  0  0  0  0  0  0
   23.4790  -36.4160   -1.4260 C   0  0  0  0  0  0  0  0  0  0  0  0
   23.8643  -34.0133    5.6341 H   0  0  0  0  0  0  0  0  0  0  0  0
   21.6455  -35.8393    6.4454 H   0  0  0  0  0  0  0  0  0  0  0  0
   24.4033  -36.0191    4.1697 H   0  0  0  0  0  0  0  0  0  0  0  0
   25.1840  -38.1688    3.1918 H   0  0  0  0  0  0  0  0  0  0  0  0
   24.4967  -40.3568    4.2062 H   0  0  0  0  0  0  0  0  0  0  0  0
   22.9646  -40.3731    6.1958 H   0  0  0  0  0  0  0  0  0  0  0  0
   22.1658  -38.2079    7.1568 H   0  0  0  0  0  0  0  0  0  0  0  0
   23.5301  -36.4659    8.2179 H   0  0  0  0  0  0  0  0  0  0  0  0
   24.5425  -35.1983    7.4198 H   0  0  0  0  0  0  0  0  0  0  0  0
   23.0398  -34.7188    9.4915 H   0  0  0  0  0  0  0  0  0  0  0  0
   23.3332  -33.5739    8.2948 H   0  0  0  0  0  0  0  0  0  0  0  0
   22.1564  -31.7579    4.7805 H   0  0  0  0  0  0  0  0  0  0  0  0
   23.4440  -32.6612    3.8446 H   0  0  0  0  0  0  0  0  0  0  0  0
   20.5606  -32.6594    2.8589 H   0  0  0  0  0  0  0  0  0  0  0  0
   22.6393  -35.1416    2.5821 H   0  0  0  0  0  0  0  0  0  0  0  0
   21.2370  -30.2637    3.1764 H   0  0  0  0  0  0  0  0  0  0  0  0
   22.9165  -30.6417    2.6315 H   0  0  0  0  0  0  0  0  0  0  0  0
   21.0618  -29.6137    0.9543 H   0  0  0  0  0  0  0  0  0  0  0  0
   22.3063  -33.8587   -1.6007 H   0  0  0  0  0  0  0  0  0  0  0  0
   22.8082  -37.2711    1.8005 H   0  0  0  0  0  0  0  0  0  0  0  0
   24.2982  -37.7378   -2.9355 H   0  0  0  0  0  0  0  0  0  0  0  0
   23.4596  -35.5498   -2.1038 H   0  0  0  0  0  0  0  0  0  0  0  0
  1  2  2  0
  2  3  1  0
  2 13  1  0
  3  4  1  0
  4  5  1  0
  4 11  1  0
  5  6  2  0
  5 10  1  0
  6  7  1  0
  7  8  2  0
  8  9  1  0
  9 10  2  0
 11 12  1  0
 13 14  1  0
 14 15  1  0
 14 17  1  0
 15 16  1  0
 15 21  1  0
 16 23  2  0
 17 18  1  0
 18 19  1  0
 19 20  2  0
 19 21  1  0
 21 22  2  0
 22 23  1  0
 23 24  1  0
 24 25  2  0
 24 30  1  0
 25 26  1  0
 26 27  1  0
 26 28  2  0
 28 29  1  0
 29 30  2  0
  3 31  1  0
  4 32  1  0
  6 33  1  0
  7 34  1  0
  8 35  1  0
  9 36  1  0
 10 37  1  0
 11 38  1  0
 11 39  1  0
 12 40  1  0
 12 41  1  0
 13 42  1  0
 13 43  1  0
 14 44  1  0
 16 45  1  0
 17 46  1  0
 17 47  1  0
 18 48  1  0
 22 49  1  0
 25 50  1  0
 29 51  1  0
 30 52  1  0
A    1
O21
A    2
C19
A    3
N20
A    4
C22
A    5
C24
A    6
C29
A    7
C28
A    8
C27
A    9
C26
A   10
C25
A   11
C23
A   12
N30
A   13
C11
A   14
C6
A   15
N5
A   16
C1
A   17
C7
A   18
N8
A   19
C9
A   20
O10
A   21
C4
A   22
C2
A   23
C3
A   24
C12
A   25
C14
A   26
C16
A   27
F18
A   28
N17
A   29
C15
A   30
C13
M  END
