4BZS_9X6_A_1613
     RDKit          3D

 15 14  0  0  0  0  0  0  0  0999 V2000
   28.4040   16.4790    2.1940 C   0  0  0  0  0  0  0  0  0  0  0  0
   27.0010   16.0200    2.5290 C   0  0  0  0  0  0  0  0  0  0  0  0
   25.3660   18.2470    3.2420 C   0  0  0  0  0  0  0  0  0  0  0  0
   26.5370   19.1760    3.4470 C   0  0  0  0  0  0  0  0  0  0  0  0
   25.7810   17.1470    1.9290 S   0  0  0  0  0  0  0  0  0  0  0  0
   29.0990   15.7750    1.4360 O   0  0  0  0  0  0  0  0  0  0  0  0
   28.8400   17.5370    2.6890 O   0  0  0  0  0  0  0  0  0  0  0  0
   27.2360   19.0490    4.4720 O   0  0  0  0  0  0  0  0  0  0  0  0
   26.7740   20.0280    2.5670 O   0  0  0  0  0  0  0  0  0  0  0  0
   26.8303   15.0341    2.0719 H   0  0  0  0  0  0  0  0  0  0  0  0
   26.9103   15.9694    3.6241 H   0  0  0  0  0  0  0  0  0  0  0  0
   24.4696   18.8266    2.9765 H   0  0  0  0  0  0  0  0  0  0  0  0
   25.1529   17.6853    4.1634 H   0  0  0  0  0  0  0  0  0  0  0  0
   28.8834   17.6423    3.6724 H   0  0  0  0  0  0  0  0  0  0  0  0
   26.8201   19.1246    5.3672 H   0  0  0  0  0  0  0  0  0  0  0  0
  6  1  2  0
  1  7  1  0
  1  2  1  0
  2  5  1  0
  5  3  1  0
  3  4  1  0
  4  9  2  0
  4  8  1  0
  2 10  1  0
  2 11  1  0
  3 12  1  0
  3 13  1  0
  7 14  1  0
  8 15  1  0
A    1
C3
A    2
C4
A    3
C2
A    4
C1
A    5
S2
A    6
O4
A    7
O3
A    8
O2
A    9
O1
M  END
