4C0C_WVH_A_1460
     RDKit          3D

 73 78  0  0  0  0  0  0  0  0999 V2000
   -3.9760   50.9000   -5.3290 O   0  0  0  0  0  0  0  0  0  0  0  0
   -4.8420   51.7950   -5.6970 C   0  0  0  0  0  0  0  0  0  0  0  0
   -6.1870   51.7450   -5.5800 N   0  0  0  0  0  0  0  0  0  0  0  0
   -6.8650   50.5710   -5.2940 C   0  0  0  0  0  0  0  0  0  0  0  0
   -8.1650   50.4370   -5.8370 C   0  0  0  0  0  0  0  0  0  0  0  0
   -8.9200   49.2740   -5.6460 C   0  0  0  0  0  0  0  0  0  0  0  0
   -8.4420   48.2560   -4.9190 N   0  0  0  0  0  0  0  0  0  0  0  0
   -7.1990   48.3190   -4.3820 C   0  0  0  0  0  0  0  0  0  0  0  0
   -6.3930   49.4710   -4.5500 C   0  0  0  0  0  0  0  0  0  0  0  0
   -4.3710   53.1230   -6.4160 C   0  0  0  0  0  0  0  0  0  0  0  0
   -4.2040   52.9660   -7.9300 C   0  0  0  0  0  0  0  0  0  0  0  0
   -5.5220   52.7190   -8.5060 C   0  0  0  0  0  0  0  0  0  0  0  0
   -6.1400   51.4180   -8.8520 C   0  0  0  0  0  0  0  0  0  0  0  0
   -5.6710   50.1410   -8.8300 C   0  0  0  0  0  0  0  0  0  0  0  0
   -6.5950   49.1790   -9.2290 C   0  0  0  0  0  0  0  0  0  0  0  0
   -7.9090   49.4420   -9.6440 C   0  0  0  0  0  0  0  0  0  0  0  0
   -8.4090   50.7210   -9.6820 C   0  0  0  0  0  0  0  0  0  0  0  0
   -7.5290   51.7320   -9.2940 C   0  0  0  0  0  0  0  0  0  0  0  0
   -7.6570   53.0810   -9.2090 N   0  0  0  0  0  0  0  0  0  0  0  0
   -6.4980   53.6880   -8.7680 C   0  0  0  0  0  0  0  0  0  0  0  0
   -5.2210   54.2960   -6.0640 N   0  0  0  0  0  0  0  0  0  0  0  0
   -5.0530   54.9390   -4.9330 C   0  0  0  0  0  0  0  0  0  0  0  0
   -4.3660   54.4410   -4.0540 O   0  0  0  0  0  0  0  0  0  0  0  0
   -5.5390   56.3340   -4.6440 C   0  0  0  0  0  0  0  0  0  0  0  0
   -5.9460   57.3320   -5.6380 C   0  0  0  0  0  0  0  0  0  0  0  0
   -5.8430   57.1040   -6.9120 F   0  0  0  0  0  0  0  0  0  0  0  0
   -6.3690   58.5650   -5.2120 C   0  0  0  0  0  0  0  0  0  0  0  0
   -6.3980   58.8560   -3.8460 C   0  0  0  0  0  0  0  0  0  0  0  0
   -6.0580   57.9060   -2.8910 C   0  0  0  0  0  0  0  0  0  0  0  0
   -5.6230   56.6980   -3.3210 C   0  0  0  0  0  0  0  0  0  0  0  0
   -6.8800   60.0790   -3.4290 N   0  0  0  0  0  0  0  0  0  0  0  0
   -6.3430   60.8090   -2.3140 C   0  0  0  0  0  0  0  0  0  0  0  0
   -7.6020   61.3580   -1.6610 C   0  0  0  0  0  0  0  0  0  0  0  0
   -8.3430   62.1780   -2.6210 N   0  0  0  0  0  0  0  0  0  0  0  0
   -8.0860   62.0570   -4.0180 C   0  0  0  0  0  0  0  0  0  0  0  0
   -8.0870   60.5770   -4.1250 C   0  0  0  0  0  0  0  0  0  0  0  0
   -9.3820   63.0370   -2.1480 C   0  0  0  0  0  0  0  0  0  0  0  0
   -9.0150   64.1160   -1.2210 C   0  0  0  0  0  0  0  0  0  0  0  0
   -7.7520   64.3860   -0.9310 F   0  0  0  0  0  0  0  0  0  0  0  0
   -9.9510   65.0090   -0.7710 C   0  0  0  0  0  0  0  0  0  0  0  0
  -11.2810   64.8380   -1.0680 C   0  0  0  0  0  0  0  0  0  0  0  0
  -12.0790   65.7680   -0.4690 F   0  0  0  0  0  0  0  0  0  0  0  0
  -11.6970   63.7830   -1.9030 C   0  0  0  0  0  0  0  0  0  0  0  0
  -10.7370   62.8990   -2.4550 C   0  0  0  0  0  0  0  0  0  0  0  0
   -6.7285   52.6118   -5.7082 H   0  0  0  0  0  0  0  0  0  0  0  0
   -8.5915   51.2651   -6.4221 H   0  0  0  0  0  0  0  0  0  0  0  0
   -9.9193   49.1952   -6.0991 H   0  0  0  0  0  0  0  0  0  0  0  0
   -6.8115   47.4642   -3.8083 H   0  0  0  0  0  0  0  0  0  0  0  0
   -5.3914   49.5077   -4.0966 H   0  0  0  0  0  0  0  0  0  0  0  0
   -3.3652   53.3287   -6.0209 H   0  0  0  0  0  0  0  0  0  0  0  0
   -3.7770   53.8860   -8.3558 H   0  0  0  0  0  0  0  0  0  0  0  0
   -3.5259   52.1296   -8.1549 H   0  0  0  0  0  0  0  0  0  0  0  0
   -4.6454   49.8892   -8.5221 H   0  0  0  0  0  0  0  0  0  0  0  0
   -6.2686   48.1286   -9.2179 H   0  0  0  0  0  0  0  0  0  0  0  0
   -8.5544   48.6041   -9.9462 H   0  0  0  0  0  0  0  0  0  0  0  0
   -9.4403   50.9351   -9.9990 H   0  0  0  0  0  0  0  0  0  0  0  0
   -8.5191   53.5924   -9.4461 H   0  0  0  0  0  0  0  0  0  0  0  0
   -6.3616   54.7721   -8.6413 H   0  0  0  0  0  0  0  0  0  0  0  0
   -5.9522   54.6067   -6.7196 H   0  0  0  0  0  0  0  0  0  0  0  0
   -6.6847   59.3229   -5.9441 H   0  0  0  0  0  0  0  0  0  0  0  0
   -6.1398   58.1287   -1.8169 H   0  0  0  0  0  0  0  0  0  0  0  0
   -5.3174   55.9611   -2.5636 H   0  0  0  0  0  0  0  0  0  0  0  0
   -5.7939   60.1461   -1.6292 H   0  0  0  0  0  0  0  0  0  0  0  0
   -5.6167   61.5843   -2.5993 H   0  0  0  0  0  0  0  0  0  0  0  0
   -8.2355   60.5220   -1.3296 H   0  0  0  0  0  0  0  0  0  0  0  0
   -7.3215   61.9769   -0.7960 H   0  0  0  0  0  0  0  0  0  0  0  0
   -8.8806   62.5153   -4.6251 H   0  0  0  0  0  0  0  0  0  0  0  0
   -7.1746   62.5573   -4.3771 H   0  0  0  0  0  0  0  0  0  0  0  0
   -8.0608   60.2771   -5.1830 H   0  0  0  0  0  0  0  0  0  0  0  0
   -8.9966   60.1568   -3.6711 H   0  0  0  0  0  0  0  0  0  0  0  0
   -9.6345   65.8714   -0.1659 H   0  0  0  0  0  0  0  0  0  0  0  0
  -12.7653   63.6455   -2.1263 H   0  0  0  0  0  0  0  0  0  0  0  0
  -11.0626   62.0958   -3.1323 H   0  0  0  0  0  0  0  0  0  0  0  0
  1  2  2  0
  2  3  1  0
  2 10  1  0
  3  4  1  0
  4  5  2  0
  4  9  1  0
  5  6  1  0
  6  7  2  0
  7  8  1  0
  8  9  2  0
 10 11  1  0
 10 21  1  0
 11 12  1  0
 12 13  1  0
 12 20  2  0
 13 14  2  0
 13 18  1  0
 14 15  1  0
 15 16  2  0
 16 17  1  0
 17 18  2  0
 18 19  1  0
 19 20  1  0
 21 22  1  0
 22 23  2  0
 22 24  1  0
 24 25  2  0
 24 30  1  0
 25 26  1  0
 25 27  1  0
 27 28  2  0
 28 29  1  0
 28 31  1  0
 29 30  2  0
 31 32  1  0
 31 36  1  0
 32 33  1  0
 33 34  1  0
 34 35  1  0
 34 37  1  0
 35 36  1  0
 37 38  2  0
 37 44  1  0
 38 39  1  0
 38 40  1  0
 40 41  2  0
 41 42  1  0
 41 43  1  0
 43 44  2  0
  3 45  1  0
  5 46  1  0
  6 47  1  0
  8 48  1  0
  9 49  1  0
 10 50  1  0
 11 51  1  0
 11 52  1  0
 14 53  1  0
 15 54  1  0
 16 55  1  0
 17 56  1  0
 19 57  1  0
 20 58  1  0
 21 59  1  0
 27 60  1  0
 29 61  1  0
 30 62  1  0
 32 63  1  0
 32 64  1  0
 33 65  1  0
 33 66  1  0
 35 67  1  0
 35 68  1  0
 36 69  1  0
 36 70  1  0
 40 71  1  0
 43 72  1  0
 44 73  1  0
A    1
O1
A    2
C5
A    3
N1
A    4
C4
A    5
C3
A    6
C2
A    7
N
A    8
C1
A    9
C
A   10
C6
A   11
C24
A   12
C25
A   13
C28
A   14
C29
A   15
C30
A   16
C31
A   17
C32
A   18
C27
A   19
N5
A   20
C26
A   21
N2
A   22
C7
A   23
O
A   24
C8
A   25
C23
A   26
F2
A   27
C22
A   28
C11
A   29
C10
A   30
C9
A   31
N3
A   32
C21
A   33
C20
A   34
N4
A   35
C13
A   36
C12
A   37
C14
A   38
C19
A   39
F1
A   40
C18
A   41
C17
A   42
F
A   43
C16
A   44
C15
M  END
