4C14_FD5_A_1201
     RDKit          3D

130135  0  0  0  0  0  0  0  0999 V2000
    3.2470   28.4890   16.1900 P   0  0  0  0  0  0  0  0  0  0  0  0
    8.3970   33.3370   10.9240 N   0  0  0  0  0  0  0  0  0  0  0  0
    9.1670   33.3490    9.7140 C   0  0  0  0  0  0  0  0  0  0  0  0
    8.5430   33.3060    8.4870 O   0  0  0  0  0  0  0  0  0  0  0  0
   10.5670   33.4080    9.7810 N   0  0  0  0  0  0  0  0  0  0  0  0
   11.2270   33.4430   11.0320 C   0  0  0  0  0  0  0  0  0  0  0  0
   12.5960   33.4930   11.0960 O   0  0  0  0  0  0  0  0  0  0  0  0
   10.9560   33.4750   13.5940 N   0  0  0  0  0  0  0  0  0  0  0  0
   10.6000   33.5000   15.9810 C   0  0  0  0  0  0  0  0  0  0  0  0
    9.7710   33.4840   17.0910 C   0  0  0  0  0  0  0  0  0  0  0  0
    8.3830   33.4300   16.9540 C   0  0  0  0  0  0  0  0  0  0  0  0
    7.8380   33.3900   15.6550 C   0  0  0  0  0  0  0  0  0  0  0  0
    2.8550   36.1670   19.2940 C   0  0  0  0  0  0  0  0  0  0  0  0
    9.0390   33.3810   12.1390 C   0  0  0  0  0  0  0  0  0  0  0  0
    8.2150   33.3710   13.2410 N   0  0  0  0  0  0  0  0  0  0  0  0
    2.5210   27.2630   16.6530 O   0  0  0  0  0  0  0  0  0  0  0  0
    6.3290   31.7000   13.1330 C   0  0  0  0  0  0  0  0  0  0  0  0
    6.8180   30.9640   12.2390 O   0  0  0  0  0  0  0  0  0  0  0  0
    2.1980   29.5510   16.1140 O   0  0  0  0  0  0  0  0  0  0  0  0
    4.7460   31.6610   13.0270 C   0  0  0  0  0  0  0  0  0  0  0  0
    4.2500   32.6370   14.1110 O   0  0  0  0  0  0  0  0  0  0  0  0
    4.1150   28.9160   17.3470 O   0  0  0  0  0  0  0  0  0  0  0  0
    4.1620   30.3790   13.2890 C   0  0  0  0  0  0  0  0  0  0  0  0
    2.7960   30.5950   13.4920 O   0  0  0  0  0  0  0  0  0  0  0  0
   10.4210   33.4360   12.3000 C   0  0  0  0  0  0  0  0  0  0  0  0
    4.7320   29.6280   14.4700 C   0  0  0  0  0  0  0  0  0  0  0  0
    4.0390   28.4560   14.9230 O   0  0  0  0  0  0  0  0  0  0  0  0
   10.0830   33.4610   14.7030 C   0  0  0  0  0  0  0  0  0  0  0  0
   10.3760   33.5270   18.4540 C   0  0  0  0  0  0  0  0  0  0  0  0
    7.5010   33.4160   18.1520 C   0  0  0  0  0  0  0  0  0  0  0  0
    8.6940   33.4060   14.5580 C   0  0  0  0  0  0  0  0  0  0  0  0
   12.2010   34.3830    8.3890 C   0  0  0  0  0  0  0  0  0  0  0  0
   11.2400   33.4110    8.6440 O   0  0  0  0  0  0  0  0  0  0  0  0
    2.4550   36.0180   17.9680 C   0  0  0  0  0  0  0  0  0  0  0  0
    4.1830   36.3940   19.6480 C   0  0  0  0  0  0  0  0  0  0  0  0
    5.2000   36.4800   18.6510 C   0  0  0  0  0  0  0  0  0  0  0  0
    4.7880   36.3240   17.2940 C   0  0  0  0  0  0  0  0  0  0  0  0
    3.4420   36.0970   16.9840 C   0  0  0  0  0  0  0  0  0  0  0  0
    5.7470   36.3980   16.2490 C   0  0  0  0  0  0  0  0  0  0  0  0
    5.2700   36.2390   14.9300 C   0  0  0  0  0  0  0  0  0  0  0  0
    3.9230   36.0100   14.6480 C   0  0  0  0  0  0  0  0  0  0  0  0
    2.9810   35.9350   15.6690 C   0  0  0  0  0  0  0  0  0  0  0  0
    1.5910   36.0630   20.5380 S   0  0  0  0  0  0  0  0  0  0  0  0
    3.3980   35.8150   12.9640 S   0  0  0  0  0  0  0  0  0  0  0  0
    6.1560   36.2860   13.7550 N   0  0  0  0  0  0  0  0  0  0  0  0
    4.5230   36.5390   21.0640 N   0  0  0  0  0  0  0  0  0  0  0  0
    1.1300   37.4260   20.8590 O   0  0  0  0  0  0  0  0  0  0  0  0
    7.1250   36.6300   16.5610 N   0  0  0  0  0  0  0  0  0  0  0  0
    2.1200   35.4080   21.7440 O   0  0  0  0  0  0  0  0  0  0  0  0
    0.4710   35.2760   19.9980 O   0  0  0  0  0  0  0  0  0  0  0  0
    1.9810   35.4140   12.9610 O   0  0  0  0  0  0  0  0  0  0  0  0
    3.5560   37.0890   12.2610 O   0  0  0  0  0  0  0  0  0  0  0  0
    4.2180   34.7840   12.3180 O   0  0  0  0  0  0  0  0  0  0  0  0
    5.2260   37.6200   21.5030 N   0  0  0  0  0  0  0  0  0  0  0  0
    7.4590   36.7180   13.8400 N   0  0  0  0  0  0  0  0  0  0  0  0
    8.2900   36.7060   12.6340 C   0  0  0  0  0  0  0  0  0  0  0  0
    4.9710   38.1160   22.8630 C   0  0  0  0  0  0  0  0  0  0  0  0
    6.5240   36.7060   18.9780 O   0  0  0  0  0  0  0  0  0  0  0  0
    7.6450   36.6110   11.4060 C   0  0  0  0  0  0  0  0  0  0  0  0
    8.4290   36.5980   10.2490 C   0  0  0  0  0  0  0  0  0  0  0  0
    9.8150   36.6840   10.3930 C   0  0  0  0  0  0  0  0  0  0  0  0
   10.4560   36.7780   11.6150 C   0  0  0  0  0  0  0  0  0  0  0  0
    9.6770   36.7900   12.7780 C   0  0  0  0  0  0  0  0  0  0  0  0
    3.8470   37.7050   23.5330 C   0  0  0  0  0  0  0  0  0  0  0  0
    3.5760   38.2080   24.9240 C   0  0  0  0  0  0  0  0  0  0  0  0
    4.4630   39.0680   25.5150 C   0  0  0  0  0  0  0  0  0  0  0  0
    5.6890   39.5170   24.7820 C   0  0  0  0  0  0  0  0  0  0  0  0
    5.9360   39.0600   23.5080 C   0  0  0  0  0  0  0  0  0  0  0  0
   10.7980   36.6690    8.9040 S   0  0  0  0  0  0  0  0  0  0  0  0
    4.1680   39.6830   27.1580 S   0  0  0  0  0  0  0  0  0  0  0  0
   11.2070   38.0380    8.6010 O   0  0  0  0  0  0  0  0  0  0  0  0
    9.9940   36.1240    7.8120 O   0  0  0  0  0  0  0  0  0  0  0  0
   12.2370   35.6700    9.2010 C   0  0  0  0  0  0  0  0  0  0  0  0
    3.4110   40.9370   27.0550 O   0  0  0  0  0  0  0  0  0  0  0  0
    5.4620   39.9370   27.8040 O   0  0  0  0  0  0  0  0  0  0  0  0
    3.2320   38.5190   28.1060 C   0  0  0  0  0  0  0  0  0  0  0  0
   11.6901   33.5446   16.1216 H   0  0  0  0  0  0  0  0  0  0  0  0
    6.7485   33.3466   15.5099 H   0  0  0  0  0  0  0  0  0  0  0  0
    7.1966   33.3361   13.0909 H   0  0  0  0  0  0  0  0  0  0  0  0
    6.6413   31.3351   14.1226 H   0  0  0  0  0  0  0  0  0  0  0  0
    6.6847   32.7323   12.9997 H   0  0  0  0  0  0  0  0  0  0  0  0
    7.3137   30.2179   12.6604 H   0  0  0  0  0  0  0  0  0  0  0  0
    1.9330   29.8192   17.0294 H   0  0  0  0  0  0  0  0  0  0  0  0
    4.4565   31.9167   11.9970 H   0  0  0  0  0  0  0  0  0  0  0  0
    4.4413   32.2606   15.0064 H   0  0  0  0  0  0  0  0  0  0  0  0
    3.6624   28.6933   18.1989 H   0  0  0  0  0  0  0  0  0  0  0  0
    4.3858   29.7370   12.4242 H   0  0  0  0  0  0  0  0  0  0  0  0
    2.6074   30.6248   14.4634 H   0  0  0  0  0  0  0  0  0  0  0  0
    5.7528   29.3200   14.1996 H   0  0  0  0  0  0  0  0  0  0  0  0
    4.6520   30.3350   15.3089 H   0  0  0  0  0  0  0  0  0  0  0  0
    9.5796   33.4704   19.2106 H   0  0  0  0  0  0  0  0  0  0  0  0
   11.0609   32.6753   18.5782 H   0  0  0  0  0  0  0  0  0  0  0  0
   10.9336   34.4670   18.5782 H   0  0  0  0  0  0  0  0  0  0  0  0
    8.1186   33.4258   19.0622 H   0  0  0  0  0  0  0  0  0  0  0  0
    6.8519   34.3040   18.1398 H   0  0  0  0  0  0  0  0  0  0  0  0
    6.8804   32.5079   18.1398 H   0  0  0  0  0  0  0  0  0  0  0  0
   13.1801   33.8997    8.5220 H   0  0  0  0  0  0  0  0  0  0  0  0
   11.9334   34.7351    7.3818 H   0  0  0  0  0  0  0  0  0  0  0  0
    1.4008   35.8446   17.7061 H   0  0  0  0  0  0  0  0  0  0  0  0
    1.9172   35.7558   15.4538 H   0  0  0  0  0  0  0  0  0  0  0  0
    5.7885   35.9860   12.8408 H   0  0  0  0  0  0  0  0  0  0  0  0
    4.2276   35.8161   21.7357 H   0  0  0  0  0  0  0  0  0  0  0  0
    1.0919   37.5386   21.8418 H   0  0  0  0  0  0  0  0  0  0  0  0
    7.4290   36.6812   17.5438 H   0  0  0  0  0  0  0  0  0  0  0  0
    7.8123   36.7457   15.8027 H   0  0  0  0  0  0  0  0  0  0  0  0
    1.7578   35.8564   22.5489 H   0  0  0  0  0  0  0  0  0  0  0  0
   -0.0604   34.9026   20.7452 H   0  0  0  0  0  0  0  0  0  0  0  0
    1.6616   35.3236   13.8937 H   0  0  0  0  0  0  0  0  0  0  0  0
    3.6468   37.8211   12.9212 H   0  0  0  0  0  0  0  0  0  0  0  0
    4.6582   34.2305   13.0107 H   0  0  0  0  0  0  0  0  0  0  0  0
    5.9201   38.0791   20.8961 H   0  0  0  0  0  0  0  0  0  0  0  0
    7.8443   37.0448   14.7376 H   0  0  0  0  0  0  0  0  0  0  0  0
    6.7982   36.7528   19.9281 H   0  0  0  0  0  0  0  0  0  0  0  0
    6.5484   36.5478   11.3467 H   0  0  0  0  0  0  0  0  0  0  0  0
    7.9672   36.5222    9.2535 H   0  0  0  0  0  0  0  0  0  0  0  0
   11.5527   36.8419   11.6717 H   0  0  0  0  0  0  0  0  0  0  0  0
   10.1416   36.8632   13.7724 H   0  0  0  0  0  0  0  0  0  0  0  0
    3.1443   37.0079   23.0532 H   0  0  0  0  0  0  0  0  0  0  0  0
    2.6721   37.8876   25.4628 H   0  0  0  0  0  0  0  0  0  0  0  0
    6.3927   40.2127   25.2624 H   0  0  0  0  0  0  0  0  0  0  0  0
    6.8367   39.3864   22.9674 H   0  0  0  0  0  0  0  0  0  0  0  0
   11.3548   38.5328    9.4456 H   0  0  0  0  0  0  0  0  0  0  0  0
    9.2352   35.6096    8.1858 H   0  0  0  0  0  0  0  0  0  0  0  0
   12.2814   35.4166   10.2705 H   0  0  0  0  0  0  0  0  0  0  0  0
   13.1243   36.2447    8.8971 H   0  0  0  0  0  0  0  0  0  0  0  0
    3.2070   41.2749   27.9629 H   0  0  0  0  0  0  0  0  0  0  0  0
    5.3499   39.9150   28.7874 H   0  0  0  0  0  0  0  0  0  0  0  0
    3.3863   38.7108   29.1781 H   0  0  0  0  0  0  0  0  0  0  0  0
    2.1639   38.6240   27.8647 H   0  0  0  0  0  0  0  0  0  0  0  0
    3.5638   37.4984   27.8647 H   0  0  0  0  0  0  0  0  0  0  0  0
  1 16  2  0
  1 19  1  0
  1 22  1  0
  1 27  1  0
  2  3  1  0
  2 14  2  0
  3  4  2  0
  3  5  1  0
  5  6  1  0
  5 33  1  0
  6  7  2  0
  6 25  1  0
  8 25  2  0
  8 28  1  0
  9 10  1  0
  9 28  2  0
 10 11  2  0
 10 29  1  0
 11 12  1  0
 11 30  1  0
 12 31  2  0
 13 34  2  0
 13 35  1  0
 13 43  1  0
 14 15  1  0
 14 25  1  0
 15 31  1  0
 17 18  1  0
 17 20  1  0
 20 21  1  0
 20 23  1  0
 23 24  1  0
 23 26  1  0
 26 27  1  0
 28 31  1  0
 32 33  1  0
 32 73  1  0
 34 38  1  0
 35 36  2  0
 35 46  1  0
 36 37  1  0
 36 58  1  0
 37 38  2  0
 37 39  1  0
 38 42  1  0
 39 40  2  0
 39 48  1  0
 40 41  1  0
 40 45  1  0
 41 42  2  0
 41 44  1  0
 43 47  1  0
 43 49  1  0
 43 50  1  0
 44 51  1  0
 44 52  1  0
 44 53  1  0
 45 55  1  0
 46 54  1  0
 54 57  1  0
 55 56  1  0
 56 59  2  0
 56 63  1  0
 57 64  2  0
 57 68  1  0
 59 60  1  0
 60 61  2  0
 61 62  1  0
 61 69  1  0
 62 63  2  0
 64 65  1  0
 65 66  2  0
 66 67  1  0
 66 70  1  0
 67 68  2  0
 69 71  1  0
 69 72  1  0
 69 73  1  0
 70 74  1  0
 70 75  1  0
 70 76  1  0
  9 77  1  0
 12 78  1  0
 15 79  1  0
 17 80  1  0
 17 81  1  0
 18 82  1  0
 19 83  1  0
 20 84  1  0
 21 85  1  0
 22 86  1  0
 23 87  1  0
 24 88  1  0
 26 89  1  0
 26 90  1  0
 29 91  1  0
 29 92  1  0
 29 93  1  0
 30 94  1  0
 30 95  1  0
 30 96  1  0
 32 97  1  0
 32 98  1  0
 34 99  1  0
 42100  1  0
 45101  1  0
 46102  1  0
 47103  1  0
 48104  1  0
 48105  1  0
 49106  1  0
 50107  1  0
 51108  1  0
 52109  1  0
 53110  1  0
 54111  1  0
 55112  1  0
 58113  1  0
 59114  1  0
 60115  1  0
 62116  1  0
 63117  1  0
 64118  1  0
 65119  1  0
 67120  1  0
 68121  1  0
 71122  1  0
 72123  1  0
 73124  1  0
 73125  1  0
 74126  1  0
 75127  1  0
 76128  1  0
 76129  1  0
 76130  1  0
A    1
P
A    2
N1
A    3
C2
A    4
O2
A    5
N3
A    6
C4
A    7
O4
A    8
N5
A    9
C6
A   10
C7
A   11
C8
A   12
C9
A   13
C01
A   14
C10
A   15
N10
A   16
O1P
A   17
C2'
A   18
O2'
A   19
O2P
A   20
C3'
A   21
O3'
A   22
O3P
A   23
C4'
A   24
O4'
A   25
C4A
A   26
C5'
A   27
O5'
A   28
C5A
A   29
C7M
A   30
C8M
A   31
C9A
A   32
CA1
A   33
OA1
A   34
CAA
A   35
CAC
A   36
CAD
A   37
CAE
A   38
CAF
A   39
CAG
A   40
CAH
A   41
CAI
A   42
CAJ
A   43
SAK
A   44
SAL
A   45
NAM
A   46
NAN
A   47
OAO
A   48
NAP
A   49
OAP
A   50
OAQ
A   51
OAR
A   52
OAS
A   53
OAT
A   54
NAU
A   55
NAV
A   56
CAW
A   57
CAX
A   58
OAX
A   59
CAY
A   60
CAZ
A   61
CBA
A   62
CBB
A   63
CBC
A   64
CBD
A   65
CBE
A   66
CBF
A   67
CBG
A   68
CBH
A   69
SBI
A   70
SBJ
A   71
OBK
A   72
OBL
A   73
CBM
A   74
OBN
A   75
OBO
A   76
CBP
M  END
