2Z7G_EH9_A_356
     RDKit          3D

 43 44  0  0  0  0  0  0  0  0999 V2000
   11.1280   12.4930   20.8060 C   0  0  0  0  0  0  0  0  0  0  0  0
   11.2890   13.5410   21.6690 C   0  0  0  0  0  0  0  0  0  0  0  0
   11.3170   14.8440   21.1580 C   0  0  0  0  0  0  0  0  0  0  0  0
   11.0300   14.0770   19.0180 C   0  0  0  0  0  0  0  0  0  0  0  0
   11.5140   14.8780   23.3390 C   0  0  0  0  0  0  0  0  0  0  0  0
   11.1890   15.1420   19.8320 N   0  0  0  0  0  0  0  0  0  0  0  0
   10.9990   12.8050   19.4730 N   0  0  0  0  0  0  0  0  0  0  0  0
   11.4920   15.6660   22.2350 N   0  0  0  0  0  0  0  0  0  0  0  0
   11.4290   13.5780   22.9820 N   0  0  0  0  0  0  0  0  0  0  0  0
   11.6060   17.1340   22.4080 C   0  0  0  0  0  0  0  0  0  0  0  0
   10.3050   17.9310   22.1900 C   0  0  0  0  0  0  0  0  0  0  0  0
   11.0920   11.1990   21.2030 N   0  0  0  0  0  0  0  0  0  0  0  0
    9.6850   17.7460   20.8140 C   0  0  0  0  0  0  0  0  0  0  0  0
    8.3600   18.4180   20.4980 C   0  0  0  0  0  0  0  0  0  0  0  0
    7.8760   17.8430   19.1520 C   0  0  0  0  0  0  0  0  0  0  0  0
    8.0060   16.2970   19.0820 C   0  0  0  0  0  0  0  0  0  0  0  0
    6.7940   15.5750   18.4960 C   0  0  0  0  0  0  0  0  0  0  0  0
   12.9100   17.7480   21.9080 C   0  0  0  0  0  0  0  0  0  0  0  0
   13.9610   17.3190   22.7340 O   0  0  0  0  0  0  0  0  0  0  0  0
   13.1900   17.8300   20.4080 C   0  0  0  0  0  0  0  0  0  0  0  0
   10.9209   14.2522   17.9375 H   0  0  0  0  0  0  0  0  0  0  0  0
   11.5899   15.2441   24.3735 H   0  0  0  0  0  0  0  0  0  0  0  0
   11.7288   17.2648   23.4933 H   0  0  0  0  0  0  0  0  0  0  0  0
   10.5276   18.9994   22.3274 H   0  0  0  0  0  0  0  0  0  0  0  0
    9.5750   17.5510   22.9198 H   0  0  0  0  0  0  0  0  0  0  0  0
   11.0856   10.9683   22.2068 H   0  0  0  0  0  0  0  0  0  0  0  0
   11.0710   10.4454   20.5012 H   0  0  0  0  0  0  0  0  0  0  0  0
    9.5386   16.6652   20.6710 H   0  0  0  0  0  0  0  0  0  0  0  0
   10.3966   18.2442   20.1391 H   0  0  0  0  0  0  0  0  0  0  0  0
    8.4977   19.5063   20.4168 H   0  0  0  0  0  0  0  0  0  0  0  0
    7.6239   18.2307   21.2937 H   0  0  0  0  0  0  0  0  0  0  0  0
    8.4776   18.2841   18.3436 H   0  0  0  0  0  0  0  0  0  0  0  0
    6.8099   18.0929   19.0469 H   0  0  0  0  0  0  0  0  0  0  0  0
    8.1667   15.9211   20.1032 H   0  0  0  0  0  0  0  0  0  0  0  0
    8.8466   16.0887   18.4037 H   0  0  0  0  0  0  0  0  0  0  0  0
    6.1613   15.1981   19.3131 H   0  0  0  0  0  0  0  0  0  0  0  0
    6.2143   16.2751   17.8765 H   0  0  0  0  0  0  0  0  0  0  0  0
    7.1336   14.7319   17.8765 H   0  0  0  0  0  0  0  0  0  0  0  0
   12.7819   18.8351   22.0168 H   0  0  0  0  0  0  0  0  0  0  0  0
   13.6996   17.4257   23.6829 H   0  0  0  0  0  0  0  0  0  0  0  0
   14.2342   18.1358   20.2461 H   0  0  0  0  0  0  0  0  0  0  0  0
   13.0211   16.8447   19.9491 H   0  0  0  0  0  0  0  0  0  0  0  0
   12.5163   18.5686   19.9491 H   0  0  0  0  0  0  0  0  0  0  0  0
 17 16  1  0
  4  7  1  0
  4  6  2  0
 16 15  1  0
 15 14  1  0
  7  1  2  0
  6  3  1  0
 20 18  1  0
 14 13  1  0
  1 12  1  0
  1  2  1  0
 13 11  1  0
  3  2  2  0
  3  8  1  0
  2  9  1  0
 18 10  1  0
 18 19  1  0
 11 10  1  0
  8 10  1  0
  8  5  1  0
  9  5  2  0
  4 21  1  0
  5 22  1  0
 10 23  1  0
 11 24  1  0
 11 25  1  0
 12 26  1  0
 12 27  1  0
 13 28  1  0
 13 29  1  0
 14 30  1  0
 14 31  1  0
 15 32  1  0
 15 33  1  0
 16 34  1  0
 16 35  1  0
 17 36  1  0
 17 37  1  0
 17 38  1  0
 18 39  1  0
 19 40  1  0
 20 41  1  0
 20 42  1  0
 20 43  1  0
A    1
C1
A    2
C2
A    3
C3
A    4
C5
A    5
C14
A    6
N4
A    7
N6
A    8
N13
A    9
N15
A   10
C20
A   11
C21
A   12
N24
A   13
C26
A   14
C28
A   15
C30
A   16
C31
A   17
C34
A   18
C36
A   19
O38
A   20
C40
M  END
