4C1M_NIH_A_606
     RDKit          3D

 37 38  0  0  0  0  0  0  0  0999 V2000
   18.6790  -16.5750   -1.7030 N   0  0  0  0  0  0  0  0  0  0  0  0
   17.6870  -17.4550   -2.0790 C   0  0  0  0  0  0  0  0  0  0  0  0
   17.6810  -17.9560   -3.3000 N   0  0  0  0  0  0  0  0  0  0  0  0
   18.6060  -17.6470   -4.1790 C   0  0  0  0  0  0  0  0  0  0  0  0
   19.6170  -16.7760   -3.8540 C   0  0  0  0  0  0  0  0  0  0  0  0
   19.6550  -16.2100   -2.5550 C   0  0  0  0  0  0  0  0  0  0  0  0
   20.6710  -16.4020   -4.7840 C   0  0  0  0  0  0  0  0  0  0  0  0
   21.1460  -15.1530   -4.5940 N   0  0  0  0  0  0  0  0  0  0  0  0
   21.1100  -17.2110   -5.6070 O   0  0  0  0  0  0  0  0  0  0  0  0
   20.5520  -15.4250   -2.2550 O   0  0  0  0  0  0  0  0  0  0  0  0
   22.1800  -14.5280   -5.2970 O   0  0  0  0  0  0  0  0  0  0  0  0
   16.6960  -17.8030   -1.1600 N   0  0  0  0  0  0  0  0  0  0  0  0
   15.6030  -18.7480   -1.4340 C   0  0  0  0  0  0  0  0  0  0  0  0
   16.0580  -20.1910   -1.6150 C   0  0  0  0  0  0  0  0  0  0  0  0
   17.3730  -20.5600   -1.4160 C   0  0  0  0  0  0  0  0  0  0  0  0
   17.8090  -21.8700   -1.5970 C   0  0  0  0  0  0  0  0  0  0  0  0
   16.8810  -22.8460   -1.9230 C   0  0  0  0  0  0  0  0  0  0  0  0
   15.5610  -22.4930   -2.1190 C   0  0  0  0  0  0  0  0  0  0  0  0
   15.1530  -21.1730   -1.9700 C   0  0  0  0  0  0  0  0  0  0  0  0
   14.5440  -23.5430   -2.5050 C   0  0  0  0  0  0  0  0  0  0  0  0
   15.1540  -24.5510   -3.2220 F   0  0  0  0  0  0  0  0  0  0  0  0
   13.9920  -24.1750   -1.4110 F   0  0  0  0  0  0  0  0  0  0  0  0
   13.5160  -22.9720   -3.2370 F   0  0  0  0  0  0  0  0  0  0  0  0
   19.2700  -22.2370   -1.3890 C   0  0  0  0  0  0  0  0  0  0  0  0
   19.9310  -21.4200   -0.4860 F   0  0  0  0  0  0  0  0  0  0  0  0
   19.3120  -23.5070   -0.8240 F   0  0  0  0  0  0  0  0  0  0  0  0
   19.9970  -22.2170   -2.5760 F   0  0  0  0  0  0  0  0  0  0  0  0
   18.6733  -16.1880   -0.7485 H   0  0  0  0  0  0  0  0  0  0  0  0
   18.5710  -18.0899   -5.1853 H   0  0  0  0  0  0  0  0  0  0  0  0
   20.6976  -14.6000   -3.8497 H   0  0  0  0  0  0  0  0  0  0  0  0
   22.8258  -14.1376   -4.6562 H   0  0  0  0  0  0  0  0  0  0  0  0
   16.7326  -17.3686   -0.2268 H   0  0  0  0  0  0  0  0  0  0  0  0
   14.8961  -18.7119   -0.5920 H   0  0  0  0  0  0  0  0  0  0  0  0
   15.1470  -18.4378   -2.3857 H   0  0  0  0  0  0  0  0  0  0  0  0
   18.0996  -19.7951   -1.1046 H   0  0  0  0  0  0  0  0  0  0  0  0
   17.1942  -23.8955   -2.0250 H   0  0  0  0  0  0  0  0  0  0  0  0
   14.0987  -20.9071   -2.1364 H   0  0  0  0  0  0  0  0  0  0  0  0
  1  2  1  0
  1  6  1  0
  2  3  2  0
  2 12  1  0
  3  4  1  0
  4  5  2  0
  5  6  1  0
  5  7  1  0
  6 10  2  0
  7  8  1  0
  7  9  2  0
  8 11  1  0
 12 13  1  0
 13 14  1  0
 14 15  2  0
 14 19  1  0
 15 16  1  0
 16 17  2  0
 16 24  1  0
 17 18  1  0
 18 19  2  0
 18 20  1  0
 20 21  1  0
 20 22  1  0
 20 23  1  0
 24 25  1  0
 24 26  1  0
 24 27  1  0
  1 28  1  0
  4 29  1  0
  8 30  1  0
 11 31  1  0
 12 32  1  0
 13 33  1  0
 13 34  1  0
 15 35  1  0
 17 36  1  0
 19 37  1  0
A    1
N1
A    2
C2
A    3
N3
A    4
C4
A    5
C5
A    6
C6
A    7
C7
A    8
N8
A    9
O9
A   10
O10
A   11
O11
A   12
N12
A   13
C13
A   14
C14
A   15
C15
A   16
C16
A   17
C17
A   18
C18
A   19
C19
A   20
C20
A   21
F21
A   22
F22
A   23
F23
A   24
C24
A   25
F25
A   26
F26
A   27
F27
M  END
