1FUI_FOC_A_594
     RDKit          3D

 25 24  0  0  0  0  0  0  0  0999 V2000
  120.0280   40.3970  104.8580 C   0  0  0  0  0  0  0  0  0  0  0  0
  120.2240   41.6120  104.3390 O   0  0  0  0  0  0  0  0  0  0  0  0
  121.3940   39.8340  105.2470 C   0  0  0  0  0  0  0  0  0  0  0  0
  122.2920   40.9570  105.3030 O   0  0  0  0  0  0  0  0  0  0  0  0
  121.4090   39.1370  106.6100 C   0  0  0  0  0  0  0  0  0  0  0  0
  121.6050   40.1340  107.6260 O   0  0  0  0  0  0  0  0  0  0  0  0
  122.5240   38.0790  106.7070 C   0  0  0  0  0  0  0  0  0  0  0  0
  122.6450   37.4020  105.4640 O   0  0  0  0  0  0  0  0  0  0  0  0
  122.2950   37.0410  107.7860 C   0  0  0  0  0  0  0  0  0  0  0  0
  121.3670   36.0930  107.2070 O   0  0  0  0  0  0  0  0  0  0  0  0
  123.6420   36.3040  107.9940 C   0  0  0  0  0  0  0  0  0  0  0  0
  119.3848   40.4685  105.7475 H   0  0  0  0  0  0  0  0  0  0  0  0
  119.5338   39.7402  104.1270 H   0  0  0  0  0  0  0  0  0  0  0  0
  120.3302   42.2702  105.0708 H   0  0  0  0  0  0  0  0  0  0  0  0
  121.6797   39.0725  104.5064 H   0  0  0  0  0  0  0  0  0  0  0  0
  122.4752   41.1862  106.2485 H   0  0  0  0  0  0  0  0  0  0  0  0
  120.4498   38.6158  106.7456 H   0  0  0  0  0  0  0  0  0  0  0  0
  121.5227   39.7154  108.5194 H   0  0  0  0  0  0  0  0  0  0  0  0
  123.4397   38.6295  106.9685 H   0  0  0  0  0  0  0  0  0  0  0  0
  122.8168   36.4408  105.6271 H   0  0  0  0  0  0  0  0  0  0  0  0
  121.9288   37.4708  108.7301 H   0  0  0  0  0  0  0  0  0  0  0  0
  120.8943   35.6101  107.9305 H   0  0  0  0  0  0  0  0  0  0  0  0
  123.8386   36.1964  109.0709 H   0  0  0  0  0  0  0  0  0  0  0  0
  123.5907   35.3083  107.5294 H   0  0  0  0  0  0  0  0  0  0  0  0
  124.4529   36.8841  107.5294 H   0  0  0  0  0  0  0  0  0  0  0  0
  1  2  1  0
  1  3  1  0
  3  4  1  0
  3  5  1  0
  5  6  1  0
  5  7  1  0
  7  8  1  0
  7  9  1  0
  9 10  1  0
  9 11  1  0
  1 12  1  0
  1 13  1  0
  2 14  1  0
  3 15  1  0
  4 16  1  0
  5 17  1  0
  6 18  1  0
  7 19  1  0
  8 20  1  0
  9 21  1  0
 10 22  1  0
 11 23  1  0
 11 24  1  0
 11 25  1  0
A    1
C1
A    2
O1
A    3
C2
A    4
O2
A    5
C3
A    6
O3
A    7
C4
A    8
O4
A    9
C5
A   10
O5
A   11
C6
M  END
