4C2V_YJA_A_1357
     RDKit          3D

 67 70  0  0  0  0  0  0  0  0999 V2000
    2.0950  -19.2810    6.6240 C   0  0  0  0  0  0  0  0  0  0  0  0
    1.0200  -18.4600    6.4090 C   0  0  0  0  0  0  0  0  0  0  0  0
    0.1820  -18.7520    5.2160 F   0  0  0  0  0  0  0  0  0  0  0  0
    0.7410  -17.4060    7.2780 C   0  0  0  0  0  0  0  0  0  0  0  0
    1.5450  -17.1750    8.3790 C   0  0  0  0  0  0  0  0  0  0  0  0
    2.6510  -17.9820    8.5770 C   0  0  0  0  0  0  0  0  0  0  0  0
    2.9760  -19.0160    7.6700 C   0  0  0  0  0  0  0  0  0  0  0  0
    4.0820  -19.8050    8.0100 N   0  0  0  0  0  0  0  0  0  0  0  0
    4.5330  -20.8590    7.2960 C   0  0  0  0  0  0  0  0  0  0  0  0
    4.3160  -21.1360    6.1040 O   0  0  0  0  0  0  0  0  0  0  0  0
    5.6520  -21.6350    8.0970 C   0  0  0  0  0  0  0  0  0  0  0  0
    6.1230  -22.8550    7.2470 C   0  0  0  0  0  0  0  0  0  0  0  0
    7.3890  -23.1300    6.7770 C   0  0  0  0  0  0  0  0  0  0  0  0
    5.3080  -23.8220    6.8850 N   0  0  0  0  0  0  0  0  0  0  0  0
    6.0040  -24.6920    6.2280 N   0  0  0  0  0  0  0  0  0  0  0  0
    7.2920  -24.3060    6.1110 C   0  0  0  0  0  0  0  0  0  0  0  0
    8.1900  -25.1380    5.4380 N   0  0  0  0  0  0  0  0  0  0  0  0
    9.5710  -25.0590    5.5450 C   0  0  0  0  0  0  0  0  0  0  0  0
   10.1710  -23.9850    6.1660 N   0  0  0  0  0  0  0  0  0  0  0  0
   11.4770  -24.0100    6.3210 C   0  0  0  0  0  0  0  0  0  0  0  0
   12.3670  -24.9050    5.8850 N   0  0  0  0  0  0  0  0  0  0  0  0
   11.8440  -26.0060    5.2400 C   0  0  0  0  0  0  0  0  0  0  0  0
   12.7480  -27.0320    4.8570 C   0  0  0  0  0  0  0  0  0  0  0  0
   10.4290  -26.1030    5.0630 C   0  0  0  0  0  0  0  0  0  0  0  0
   10.0260  -27.2810    4.3970 C   0  0  0  0  0  0  0  0  0  0  0  0
   10.9250  -28.2890    3.9740 C   0  0  0  0  0  0  0  0  0  0  0  0
   12.3240  -28.1530    4.1650 C   0  0  0  0  0  0  0  0  0  0  0  0
   13.2020  -29.1010    3.6970 O   0  0  0  0  0  0  0  0  0  0  0  0
   14.6120  -28.8410    3.8680 C   0  0  0  0  0  0  0  0  0  0  0  0
   15.3910  -29.9410    3.1840 C   0  0  0  0  0  0  0  0  0  0  0  0
   14.8710  -31.2850    3.6500 C   0  0  0  0  0  0  0  0  0  0  0  0
   15.5330  -32.4540    2.9970 N   0  0  0  0  0  0  0  0  0  0  0  0
   16.9510  -32.5680    3.4030 C   0  0  0  0  0  0  0  0  0  0  0  0
   17.0400  -33.6360    4.5130 C   0  0  0  0  0  0  0  0  0  0  0  0
   15.4510  -32.6490    1.5270 C   0  0  0  0  0  0  0  0  0  0  0  0
   14.3040  -31.8430    0.8580 C   0  0  0  0  0  0  0  0  0  0  0  0
   14.4640  -32.2600   -0.5080 O   0  0  0  0  0  0  0  0  0  0  0  0
    2.2627  -20.1498    5.9705 H   0  0  0  0  0  0  0  0  0  0  0  0
   -0.1241  -16.7541    7.0865 H   0  0  0  0  0  0  0  0  0  0  0  0
    1.3095  -16.3645    9.0844 H   0  0  0  0  0  0  0  0  0  0  0  0
    3.2896  -17.8158    9.4571 H   0  0  0  0  0  0  0  0  0  0  0  0
    4.5912  -19.5625    8.8719 H   0  0  0  0  0  0  0  0  0  0  0  0
    6.5037  -20.9649    8.2858 H   0  0  0  0  0  0  0  0  0  0  0  0
    5.2496  -21.9830    9.0598 H   0  0  0  0  0  0  0  0  0  0  0  0
    8.2936  -22.5194    6.9145 H   0  0  0  0  0  0  0  0  0  0  0  0
    5.6236  -25.5683    5.8429 H   0  0  0  0  0  0  0  0  0  0  0  0
    7.7989  -25.8617    4.8181 H   0  0  0  0  0  0  0  0  0  0  0  0
   11.8978  -23.1705    6.8938 H   0  0  0  0  0  0  0  0  0  0  0  0
   13.8123  -26.9332    5.1169 H   0  0  0  0  0  0  0  0  0  0  0  0
    8.9540  -27.4232    4.1958 H   0  0  0  0  0  0  0  0  0  0  0  0
   10.5317  -29.1942    3.4884 H   0  0  0  0  0  0  0  0  0  0  0  0
   14.8673  -27.8706    3.4173 H   0  0  0  0  0  0  0  0  0  0  0  0
   14.8621  -28.8130    4.9388 H   0  0  0  0  0  0  0  0  0  0  0  0
   15.2670  -29.8565    2.0943 H   0  0  0  0  0  0  0  0  0  0  0  0
   16.4576  -29.8501    3.4370 H   0  0  0  0  0  0  0  0  0  0  0  0
   15.0305  -31.3597    4.7358 H   0  0  0  0  0  0  0  0  0  0  0  0
   13.8072  -31.3272    3.3733 H   0  0  0  0  0  0  0  0  0  0  0  0
   17.5635  -32.8720    2.5414 H   0  0  0  0  0  0  0  0  0  0  0  0
   17.3243  -31.6006    3.7701 H   0  0  0  0  0  0  0  0  0  0  0  0
   16.9992  -33.1463    5.4971 H   0  0  0  0  0  0  0  0  0  0  0  0
   16.1971  -34.3361    4.4166 H   0  0  0  0  0  0  0  0  0  0  0  0
   17.9872  -34.1870    4.4166 H   0  0  0  0  0  0  0  0  0  0  0  0
   16.4052  -32.3330    1.0801 H   0  0  0  0  0  0  0  0  0  0  0  0
   15.2415  -33.7148    1.3532 H   0  0  0  0  0  0  0  0  0  0  0  0
   13.3194  -32.1268    1.2580 H   0  0  0  0  0  0  0  0  0  0  0  0
   14.3502  -30.7555    1.0171 H   0  0  0  0  0  0  0  0  0  0  0  0
   14.8185  -33.1840   -0.5316 H   0  0  0  0  0  0  0  0  0  0  0  0
  1  2  2  0
  1  7  1  0
  2  3  1  0
  2  4  1  0
  4  5  2  0
  5  6  1  0
  6  7  2  0
  7  8  1  0
  8  9  1  0
  9 10  2  0
  9 11  1  0
 11 12  1  0
 12 13  1  0
 12 14  2  0
 13 16  2  0
 14 15  1  0
 15 16  1  0
 16 17  1  0
 17 18  1  0
 18 19  2  0
 18 24  1  0
 19 20  1  0
 20 21  2  0
 21 22  1  0
 22 23  1  0
 22 24  2  0
 23 27  2  0
 24 25  1  0
 25 26  2  0
 26 27  1  0
 27 28  1  0
 28 29  1  0
 29 30  1  0
 30 31  1  0
 31 32  1  0
 32 33  1  0
 32 35  1  0
 33 34  1  0
 35 36  1  0
 36 37  1  0
  1 38  1  0
  4 39  1  0
  5 40  1  0
  6 41  1  0
  8 42  1  0
 11 43  1  0
 11 44  1  0
 13 45  1  0
 15 46  1  0
 17 47  1  0
 20 48  1  0
 23 49  1  0
 25 50  1  0
 26 51  1  0
 29 52  1  0
 29 53  1  0
 30 54  1  0
 30 55  1  0
 31 56  1  0
 31 57  1  0
 33 58  1  0
 33 59  1  0
 34 60  1  0
 34 61  1  0
 34 62  1  0
 35 63  1  0
 35 64  1  0
 36 65  1  0
 36 66  1  0
 37 67  1  0
A    1
CAK
A    2
CBC
A    3
FAD
A    4
CAG
A    5
CAE
A    6
CAH
A    7
CBD
A    8
NAX
A    9
CBB
A   10
OAB
A   11
CAT
A   12
CBE
A   13
CAL
A   14
NAZ
A   15
NAW
A   16
CBG
A   17
NAY
A   18
C6
A   19
N1
A   20
C2
A   21
N3
A   22
C4
A   23
CAM
A   24
C5
A   25
CAJ
A   26
CAI
A   27
CBF
A   28
OBA
A   29
CAQ
A   30
CAP
A   31
CAS
A   32
NBK
A   33
CAO
A   34
CAA
A   35
CAR
A   36
CAN
A   37
OAC
M  END
