4C35_NU3_A_1351
     RDKit          3D

 30 32  0  0  0  0  0  0  0  0999 V2000
   11.9910   83.8410   84.6250 C   0  0  0  0  0  0  0  0  0  0  0  0
   12.6800   84.9970   84.7450 N   0  0  0  0  0  0  0  0  0  0  0  0
   12.5560   82.7450   84.4890 O   0  0  0  0  0  0  0  0  0  0  0  0
   10.4930   83.9140   84.6190 C   0  0  0  0  0  0  0  0  0  0  0  0
    8.0450   86.4160   85.1780 N   0  0  0  0  0  0  0  0  0  0  0  0
    9.1230   92.8140   85.6990 O   0  0  0  0  0  0  0  0  0  0  0  0
    9.7520   82.7400   84.4500 C   0  0  0  0  0  0  0  0  0  0  0  0
   10.2870   86.4720   85.0170 N   0  0  0  0  0  0  0  0  0  0  0  0
    8.3660   82.7530   84.5580 C   0  0  0  0  0  0  0  0  0  0  0  0
    7.6930   83.9390   84.8050 C   0  0  0  0  0  0  0  0  0  0  0  0
    8.4430   85.1070   84.9440 C   0  0  0  0  0  0  0  0  0  0  0  0
    9.1770   87.1870   85.1970 C   0  0  0  0  0  0  0  0  0  0  0  0
    9.1430   88.6580   85.3620 C   0  0  0  0  0  0  0  0  0  0  0  0
   10.3180   89.3670   85.6000 C   0  0  0  0  0  0  0  0  0  0  0  0
   10.3060   90.7490   85.7050 C   0  0  0  0  0  0  0  0  0  0  0  0
    9.1120   91.4470   85.5720 C   0  0  0  0  0  0  0  0  0  0  0  0
    7.9300   90.7540   85.3450 C   0  0  0  0  0  0  0  0  0  0  0  0
    7.9460   89.3700   85.2520 C   0  0  0  0  0  0  0  0  0  0  0  0
    9.8720   85.1500   84.8520 C   0  0  0  0  0  0  0  0  0  0  0  0
   12.9021   85.3696   85.6792 H   0  0  0  0  0  0  0  0  0  0  0  0
   12.9832   85.5057   83.9023 H   0  0  0  0  0  0  0  0  0  0  0  0
    7.0786   86.7461   85.3123 H   0  0  0  0  0  0  0  0  0  0  0  0
    9.1263   93.2276   86.5985 H   0  0  0  0  0  0  0  0  0  0  0  0
   10.2715   81.7959   84.2292 H   0  0  0  0  0  0  0  0  0  0  0  0
    7.8002   81.8163   84.4467 H   0  0  0  0  0  0  0  0  0  0  0  0
    6.5964   83.9589   84.8892 H   0  0  0  0  0  0  0  0  0  0  0  0
   11.2681   88.8229   85.7060 H   0  0  0  0  0  0  0  0  0  0  0  0
   11.2428   91.2938   85.8938 H   0  0  0  0  0  0  0  0  0  0  0  0
    6.9821   91.3020   85.2391 H   0  0  0  0  0  0  0  0  0  0  0  0
    7.0038   88.8260   85.0895 H   0  0  0  0  0  0  0  0  0  0  0  0
  1  2  1  0
  1  3  2  0
  1  4  1  0
  4  7  2  0
  4 19  1  0
  5 11  1  0
  5 12  1  0
  6 16  1  0
  7  9  1  0
  8 12  2  0
  8 19  1  0
  9 10  2  0
 10 11  1  0
 11 19  2  0
 12 13  1  0
 13 14  2  0
 13 18  1  0
 14 15  1  0
 15 16  2  0
 16 17  1  0
 17 18  2  0
  2 20  1  0
  2 21  1  0
  5 22  1  0
  6 23  1  0
  7 24  1  0
  9 25  1  0
 10 26  1  0
 14 27  1  0
 15 28  1  0
 17 29  1  0
 18 30  1  0
A    1
C
A    2
N
A    3
O
A    4
C1
A    5
N1
A    6
O1
A    7
C2
A    8
N2
A    9
C3
A   10
C4
A   11
C5
A   12
C6
A   13
C7
A   14
C8
A   15
C9
A   16
C10
A   17
C11
A   18
C12
A   19
C13
M  END
