4C38_VUP_A_1351
     RDKit          3D

 30 32  0  0  0  0  0  0  0  0999 V2000
   25.3730  -10.0670    0.3840 C   0  0  0  0  0  0  0  0  0  0  0  0
   25.8080   -9.9270    1.6940 C   0  0  0  0  0  0  0  0  0  0  0  0
   27.1880   -9.9400    1.9150 C   0  0  0  0  0  0  0  0  0  0  0  0
   27.9490   -9.8450    3.0870 N   0  0  0  0  0  0  0  0  0  0  0  0
   27.3900   -9.6140    4.4350 C   0  0  0  0  0  0  0  0  0  0  0  0
   27.0230  -10.8920    5.1240 C   0  0  0  0  0  0  0  0  0  0  0  0
   29.2620   -9.9450    2.6850 C   0  0  0  0  0  0  0  0  0  0  0  0
   29.4150  -10.0820    1.3810 N   0  0  0  0  0  0  0  0  0  0  0  0
   28.1150  -10.0860    0.8760 C   0  0  0  0  0  0  0  0  0  0  0  0
   27.5380  -10.1960   -0.3900 C   0  0  0  0  0  0  0  0  0  0  0  0
   26.2260  -10.1940   -0.6570 N   0  0  0  0  0  0  0  0  0  0  0  0
   30.3930  -10.0390    3.6180 C   0  0  0  0  0  0  0  0  0  0  0  0
   31.7730  -10.0340    3.2140 C   0  0  0  0  0  0  0  0  0  0  0  0
   32.2430   -9.8250    1.9810 N   0  0  0  0  0  0  0  0  0  0  0  0
   32.5260  -10.2290    4.2660 N   0  0  0  0  0  0  0  0  0  0  0  0
   31.6400  -10.3700    5.3290 O   0  0  0  0  0  0  0  0  0  0  0  0
   23.9130  -10.0780    0.0470 C   0  0  0  0  0  0  0  0  0  0  0  0
   30.3190  -10.2440    4.9110 N   0  0  0  0  0  0  0  0  0  0  0  0
   25.0961   -9.8106    2.5245 H   0  0  0  0  0  0  0  0  0  0  0  0
   28.1395   -9.0866    5.0433 H   0  0  0  0  0  0  0  0  0  0  0  0
   26.4730   -9.0171    4.3216 H   0  0  0  0  0  0  0  0  0  0  0  0
   27.0648  -10.7463    6.2135 H   0  0  0  0  0  0  0  0  0  0  0  0
   26.0040  -11.1863    4.8323 H   0  0  0  0  0  0  0  0  0  0  0  0
   27.7305  -11.6821    4.8323 H   0  0  0  0  0  0  0  0  0  0  0  0
   28.2227  -10.2931   -1.2454 H   0  0  0  0  0  0  0  0  0  0  0  0
   33.1764   -9.4099    1.8491 H   0  0  0  0  0  0  0  0  0  0  0  0
   31.6720  -10.0789    1.1623 H   0  0  0  0  0  0  0  0  0  0  0  0
   23.3225  -10.0824    0.9751 H   0  0  0  0  0  0  0  0  0  0  0  0
   23.6656   -9.1817   -0.5407 H   0  0  0  0  0  0  0  0  0  0  0  0
   23.6791  -10.9779   -0.5407 H   0  0  0  0  0  0  0  0  0  0  0  0
 14 13  1  0
 13 15  2  0
 13 12  1  0
 15 16  1  0
 16 18  1  0
 18 12  2  0
 12  7  1  0
  7  8  2  0
  7  4  1  0
  8  9  1  0
  9 10  2  0
  9  3  1  0
 10 11  1  0
 11  1  2  0
  4  5  1  0
  4  3  1  0
  5  6  1  0
  3  2  2  0
  2  1  1  0
  1 17  1  0
  2 19  1  0
  5 20  1  0
  5 21  1  0
  6 22  1  0
  6 23  1  0
  6 24  1  0
 10 25  1  0
 14 26  1  0
 14 27  1  0
 17 28  1  0
 17 29  1  0
 17 30  1  0
A    1
C
A    2
C1
A    3
C2
A    4
N2
A    5
C6
A    6
C7
A    7
C5
A    8
N1
A    9
C3
A   10
C4
A   11
N
A   12
C8
A   13
C9
A   14
N5
A   15
N4
A   16
O
A   17
C10
A   18
N3
M  END
