4C3F_7KW_A_1499
     RDKit          3D

 39 42  0  0  0  0  0  0  0  0999 V2000
   20.6390    6.2420   53.9620 C   0  0  0  0  0  0  0  0  0  0  0  0
   19.7710    6.8230   53.0200 C   0  0  0  0  0  0  0  0  0  0  0  0
   20.0010    8.1300   52.5390 C   0  0  0  0  0  0  0  0  0  0  0  0
   21.1400    8.8070   53.0200 C   0  0  0  0  0  0  0  0  0  0  0  0
   21.9960    8.2500   53.9810 C   0  0  0  0  0  0  0  0  0  0  0  0
   21.7610    6.9510   54.4330 C   0  0  0  0  0  0  0  0  0  0  0  0
   21.4350   10.2110   52.6010 C   0  0  0  0  0  0  0  0  0  0  0  0
   22.6470   10.8030   52.0260 C   0  0  0  0  0  0  0  0  0  0  0  0
   22.3700   12.1090   51.9560 C   0  0  0  0  0  0  0  0  0  0  0  0
   21.1580   12.3210   52.4210 N   0  0  0  0  0  0  0  0  0  0  0  0
   20.6360   11.1480   52.8230 N   0  0  0  0  0  0  0  0  0  0  0  0
   23.9260   10.1630   51.4820 C   0  0  0  0  0  0  0  0  0  0  0  0
   23.9540    8.8200   51.1440 C   0  0  0  0  0  0  0  0  0  0  0  0
   25.1430    8.2950   50.5590 C   0  0  0  0  0  0  0  0  0  0  0  0
   26.2020    9.1280   50.3530 N   0  0  0  0  0  0  0  0  0  0  0  0
   26.1540   10.4260   50.6750 C   0  0  0  0  0  0  0  0  0  0  0  0
   27.2590   11.1810   50.4240 N   0  0  0  0  0  0  0  0  0  0  0  0
   27.4260   12.5350   50.5840 C   0  0  0  0  0  0  0  0  0  0  0  0
   26.5080   13.3720   51.2130 C   0  0  0  0  0  0  0  0  0  0  0  0
   26.7750   14.7340   51.3560 C   0  0  0  0  0  0  0  0  0  0  0  0
   27.9670   15.2960   50.8860 C   0  0  0  0  0  0  0  0  0  0  0  0
   25.0130   10.9360   51.2460 N   0  0  0  0  0  0  0  0  0  0  0  0
   28.9090   14.4860   50.2560 C   0  0  0  0  0  0  0  0  0  0  0  0
   28.6380   13.1000   50.1130 C   0  0  0  0  0  0  0  0  0  0  0  0
   20.4399    5.2260   54.3337 H   0  0  0  0  0  0  0  0  0  0  0  0
   18.9041    6.2531   52.6544 H   0  0  0  0  0  0  0  0  0  0  0  0
   19.3181    8.6017   51.8171 H   0  0  0  0  0  0  0  0  0  0  0  0
   22.8434    8.8308   54.3742 H   0  0  0  0  0  0  0  0  0  0  0  0
   22.4483    6.4833   55.1533 H   0  0  0  0  0  0  0  0  0  0  0  0
   23.0486   12.8841   51.5703 H   0  0  0  0  0  0  0  0  0  0  0  0
   20.6859   13.2352   52.4694 H   0  0  0  0  0  0  0  0  0  0  0  0
   23.0809    8.1751   51.3225 H   0  0  0  0  0  0  0  0  0  0  0  0
   25.2050    7.2333   50.2779 H   0  0  0  0  0  0  0  0  0  0  0  0
   28.0782   10.6690   50.0668 H   0  0  0  0  0  0  0  0  0  0  0  0
   25.5658   12.9566   51.5998 H   0  0  0  0  0  0  0  0  0  0  0  0
   26.0328   15.3794   51.8486 H   0  0  0  0  0  0  0  0  0  0  0  0
   28.1592   16.3716   51.0133 H   0  0  0  0  0  0  0  0  0  0  0  0
   29.8482   14.9137   49.8753 H   0  0  0  0  0  0  0  0  0  0  0  0
   29.3825   12.4520   49.6275 H   0  0  0  0  0  0  0  0  0  0  0  0
  1  6  2  0
  1  2  1  0
  6  5  1  0
  5  4  2  0
  4  3  1  0
  4  7  1  0
  3  2  2  0
  7  8  1  0
  7 11  2  0
  8  9  2  0
  8 12  1  0
  9 10  1  0
 10 11  1  0
 12 13  2  0
 12 22  1  0
 13 14  1  0
 14 15  2  0
 15 16  1  0
 16 17  1  0
 16 22  2  0
 17 18  1  0
 18 19  2  0
 18 24  1  0
 19 20  1  0
 20 21  2  0
 21 23  1  0
 23 24  2  0
  1 25  1  0
  2 26  1  0
  3 27  1  0
  5 28  1  0
  6 29  1  0
  9 30  1  0
 10 31  1  0
 13 32  1  0
 14 33  1  0
 17 34  1  0
 19 35  1  0
 20 36  1  0
 21 37  1  0
 23 38  1  0
 24 39  1  0
A    1
C1
A    2
C6
A    3
C5
A    4
C4
A    5
C3
A    6
C2
A    7
C7
A    8
C9
A    9
C8
A   10
N2
A   11
N1
A   12
C10
A   13
C14
A   14
C13
A   15
N3
A   16
C12
A   17
N4
A   18
C15
A   19
C20
A   20
C19
A   21
C18
A   22
N9
A   23
C17
A   24
C16
M  END
