4C4F_7CE_A_1799
     RDKit          3D

 37 40  0  0  0  0  0  0  0  0999 V2000
   -1.6310   -6.8240  -15.5610 C   0  0  0  0  0  0  0  0  0  0  0  0
   -1.1800   -8.1410  -15.9100 O   0  0  0  0  0  0  0  0  0  0  0  0
   -1.4910   -9.2140  -15.0380 C   0  0  0  0  0  0  0  0  0  0  0  0
   -1.7370   -9.0100  -13.6510 C   0  0  0  0  0  0  0  0  0  0  0  0
   -1.8850  -10.1230  -12.7930 C   0  0  0  0  0  0  0  0  0  0  0  0
   -1.7980  -11.4380  -13.3120 C   0  0  0  0  0  0  0  0  0  0  0  0
   -1.5810  -11.6590  -14.6840 C   0  0  0  0  0  0  0  0  0  0  0  0
   -1.4240  -10.5540  -15.5750 C   0  0  0  0  0  0  0  0  0  0  0  0
   -1.1510  -10.6960  -16.9650 N   0  0  0  0  0  0  0  0  0  0  0  0
   -0.2870  -11.5830  -17.6590 C   0  0  0  0  0  0  0  0  0  0  0  0
   -0.2650  -11.4870  -19.0660 N   0  0  0  0  0  0  0  0  0  0  0  0
    0.4230  -12.4200  -19.7830 C   0  0  0  0  0  0  0  0  0  0  0  0
    0.4070  -12.5920  -16.9550 C   0  0  0  0  0  0  0  0  0  0  0  0
    1.0850  -13.5540  -17.7480 C   0  0  0  0  0  0  0  0  0  0  0  0
    1.7720  -14.6960  -17.3650 N   0  0  0  0  0  0  0  0  0  0  0  0
    2.2250  -15.3150  -18.5570 C   0  0  0  0  0  0  0  0  0  0  0  0
    1.8240  -14.5800  -19.6610 C   0  0  0  0  0  0  0  0  0  0  0  0
    1.1040  -13.4760  -19.1830 C   0  0  0  0  0  0  0  0  0  0  0  0
    2.9930  -16.5410  -18.5650 C   0  0  0  0  0  0  0  0  0  0  0  0
    3.6870  -17.2120  -17.5750 C   0  0  0  0  0  0  0  0  0  0  0  0
    4.1750  -18.4090  -18.1550 N   0  0  0  0  0  0  0  0  0  0  0  0
    3.7840  -18.4050  -19.4340 C   0  0  0  0  0  0  0  0  0  0  0  0
    3.0590  -17.2880  -19.7470 O   0  0  0  0  0  0  0  0  0  0  0  0
   -1.6645   -6.7261  -14.4659 H   0  0  0  0  0  0  0  0  0  0  0  0
   -0.9374   -6.0772  -15.9748 H   0  0  0  0  0  0  0  0  0  0  0  0
   -2.6368   -6.6592  -15.9748 H   0  0  0  0  0  0  0  0  0  0  0  0
   -1.8117   -7.9891  -13.2482 H   0  0  0  0  0  0  0  0  0  0  0  0
   -2.0682   -9.9678  -11.7195 H   0  0  0  0  0  0  0  0  0  0  0  0
   -1.9015  -12.2975  -12.6333 H   0  0  0  0  0  0  0  0  0  0  0  0
   -1.5320  -12.6870  -15.0723 H   0  0  0  0  0  0  0  0  0  0  0  0
   -1.6690  -10.0435  -17.5707 H   0  0  0  0  0  0  0  0  0  0  0  0
    0.4410  -12.3353  -20.8796 H   0  0  0  0  0  0  0  0  0  0  0  0
    0.4211  -12.6299  -15.8557 H   0  0  0  0  0  0  0  0  0  0  0  0
    1.9235  -15.0294  -16.4023 H   0  0  0  0  0  0  0  0  0  0  0  0
    2.0316  -14.8180  -20.7147 H   0  0  0  0  0  0  0  0  0  0  0  0
    3.8323  -16.8801  -16.5364 H   0  0  0  0  0  0  0  0  0  0  0  0
    4.0180  -19.2062  -20.1504 H   0  0  0  0  0  0  0  0  0  0  0  0
  1  2  1  0
  2  3  1  0
  3  4  2  0
  3  8  1  0
  4  5  1  0
  5  6  2  0
  6  7  1  0
  7  8  2  0
  8  9  1  0
  9 10  1  0
 10 11  2  0
 10 13  1  0
 11 12  1  0
 12 18  2  0
 13 14  2  0
 14 15  1  0
 14 18  1  0
 15 16  1  0
 16 17  2  0
 16 19  1  0
 17 18  1  0
 19 20  2  0
 19 23  1  0
 20 21  1  0
 21 22  2  0
 22 23  1  0
  1 24  1  0
  1 25  1  0
  1 26  1  0
  4 27  1  0
  5 28  1  0
  6 29  1  0
  7 30  1  0
  9 31  1  0
 12 32  1  0
 13 33  1  0
 15 34  1  0
 17 35  1  0
 20 36  1  0
 22 37  1  0
A    1
C16
A    2
O1
A    3
C11
A    4
C12
A    5
C13
A    6
C14
A    7
C15
A    8
C10
A    9
N3
A   10
C2
A   11
N
A   12
C1
A   13
C3
A   14
C4
A   15
N1
A   16
C5
A   17
C6
A   18
C
A   19
C7
A   20
C9
A   21
N2
A   22
C8
A   23
O
M  END
