4C4J_X21_A_1795
     RDKit          3D

 62 66  0  0  0  0  0  0  0  0999 V2000
    4.6010   21.4280   38.3640 C   0  0  0  0  0  0  0  0  0  0  0  0
    4.4090   20.7820   39.6790 N   0  0  0  0  0  0  0  0  0  0  0  0
    1.6930   17.0480   44.1580 O   0  0  0  0  0  0  0  0  0  0  0  0
   -0.3600   19.0560   50.7650 Cl  0  0  0  0  0  0  0  0  0  0  0  0
    4.7690   19.5260   41.4310 C   0  0  0  0  0  0  0  0  0  0  0  0
    5.2480   19.8070   40.1820 N   0  0  0  0  0  0  0  0  0  0  0  0
    3.0960   17.5520   42.4610 O   0  0  0  0  0  0  0  0  0  0  0  0
    3.4030   21.1080   40.5660 C   0  0  0  0  0  0  0  0  0  0  0  0
    0.1130   21.5330   46.5000 N   0  0  0  0  0  0  0  0  0  0  0  0
    3.6030   20.3300   41.7110 C   0  0  0  0  0  0  0  0  0  0  0  0
   -0.6820   19.6460   47.7980 N   0  0  0  0  0  0  0  0  0  0  0  0
    2.7800   20.4160   42.9020 C   0  0  0  0  0  0  0  0  0  0  0  0
   -2.0050   11.9930   48.9600 N   0  0  0  0  0  0  0  0  0  0  0  0
    2.3630   21.5850   43.4720 C   0  0  0  0  0  0  0  0  0  0  0  0
   -2.8260   13.7340   50.1380 N   0  0  0  0  0  0  0  0  0  0  0  0
    1.5870   21.2770   44.6290 C   0  0  0  0  0  0  0  0  0  0  0  0
    2.2790   19.2980   43.6690 N   0  0  0  0  0  0  0  0  0  0  0  0
    0.8540   22.0540   45.5230 C   0  0  0  0  0  0  0  0  0  0  0  0
    0.0880   20.1390   46.6860 C   0  0  0  0  0  0  0  0  0  0  0  0
   -0.9680   18.3000   48.1740 C   0  0  0  0  0  0  0  0  0  0  0  0
   -0.9110   17.9090   49.5780 C   0  0  0  0  0  0  0  0  0  0  0  0
   -1.2050   16.5960   50.0150 C   0  0  0  0  0  0  0  0  0  0  0  0
   -1.5510   15.6540   48.9960 C   0  0  0  0  0  0  0  0  0  0  0  0
   -1.8370   14.2610   49.2300 C   0  0  0  0  0  0  0  0  0  0  0  0
   -1.3440   13.1480   48.5300 C   0  0  0  0  0  0  0  0  0  0  0  0
   -2.8960   12.4210   49.9400 C   0  0  0  0  0  0  0  0  0  0  0  0
   -3.6040   14.5140   51.1020 C   0  0  0  0  0  0  0  0  0  0  0  0
   -1.5910   16.0370   47.6440 C   0  0  0  0  0  0  0  0  0  0  0  0
   -1.3080   17.3060   47.2310 C   0  0  0  0  0  0  0  0  0  0  0  0
    0.8040   19.2350   45.8410 C   0  0  0  0  0  0  0  0  0  0  0  0
    1.5430   19.8320   44.7790 C   0  0  0  0  0  0  0  0  0  0  0  0
    2.4020   17.9220   43.3700 C   0  0  0  0  0  0  0  0  0  0  0  0
    1.7820   15.5740   44.0050 C   0  0  0  0  0  0  0  0  0  0  0  0
    1.3760   15.1130   42.6200 C   0  0  0  0  0  0  0  0  0  0  0  0
    0.7950   15.0870   45.0420 C   0  0  0  0  0  0  0  0  0  0  0  0
    3.1890   15.1270   44.3380 C   0  0  0  0  0  0  0  0  0  0  0  0
    4.9116   22.4730   38.5107 H   0  0  0  0  0  0  0  0  0  0  0  0
    5.3781   20.8901   37.8012 H   0  0  0  0  0  0  0  0  0  0  0  0
    3.6562   21.4018   37.8012 H   0  0  0  0  0  0  0  0  0  0  0  0
    5.2087   18.7928   42.1232 H   0  0  0  0  0  0  0  0  0  0  0  0
    2.5979   21.8397   40.4035 H   0  0  0  0  0  0  0  0  0  0  0  0
   -1.0845   20.3696   48.4106 H   0  0  0  0  0  0  0  0  0  0  0  0
    2.5880   22.5958   43.1008 H   0  0  0  0  0  0  0  0  0  0  0  0
    0.8885   23.1484   45.4175 H   0  0  0  0  0  0  0  0  0  0  0  0
   -1.1695   16.3156   51.0781 H   0  0  0  0  0  0  0  0  0  0  0  0
   -0.5581   13.1797   47.7610 H   0  0  0  0  0  0  0  0  0  0  0  0
   -3.5775   11.7521   50.4861 H   0  0  0  0  0  0  0  0  0  0  0  0
   -3.3166   14.2258   52.1239 H   0  0  0  0  0  0  0  0  0  0  0  0
   -3.4041   15.5854   50.9532 H   0  0  0  0  0  0  0  0  0  0  0  0
   -4.6759   14.3169   50.9532 H   0  0  0  0  0  0  0  0  0  0  0  0
   -1.8612   15.2837   46.8893 H   0  0  0  0  0  0  0  0  0  0  0  0
   -1.3448   17.5554   46.1603 H   0  0  0  0  0  0  0  0  0  0  0  0
    0.7856   18.1468   46.0007 H   0  0  0  0  0  0  0  0  0  0  0  0
    0.6512   14.2900   42.7053 H   0  0  0  0  0  0  0  0  0  0  0  0
    0.9170   15.9508   42.0746 H   0  0  0  0  0  0  0  0  0  0  0  0
    2.2650   14.7636   42.0746 H   0  0  0  0  0  0  0  0  0  0  0  0
    1.1935   15.2836   46.0483 H   0  0  0  0  0  0  0  0  0  0  0  0
   -0.1606   15.6170   44.9160 H   0  0  0  0  0  0  0  0  0  0  0  0
    0.6342   14.0061   44.9160 H   0  0  0  0  0  0  0  0  0  0  0  0
    3.3124   15.0878   45.4304 H   0  0  0  0  0  0  0  0  0  0  0  0
    3.3667   14.1282   43.9128 H   0  0  0  0  0  0  0  0  0  0  0  0
    3.9106   15.8401   43.9128 H   0  0  0  0  0  0  0  0  0  0  0  0
  1  2  1  0
  2  6  1  0
  2  8  1  0
  3 32  1  0
  3 33  1  0
  4 21  1  0
  5  6  2  0
  5 10  1  0
  7 32  2  0
  8 10  2  0
  9 18  2  0
  9 19  1  0
 10 12  1  0
 11 19  1  0
 11 20  1  0
 12 14  2  0
 12 17  1  0
 13 25  1  0
 13 26  2  0
 14 16  1  0
 15 24  1  0
 15 26  1  0
 15 27  1  0
 16 18  1  0
 16 31  2  0
 17 31  1  0
 17 32  1  0
 19 30  2  0
 20 21  2  0
 20 29  1  0
 21 22  1  0
 22 23  2  0
 23 24  1  0
 23 28  1  0
 24 25  2  0
 28 29  2  0
 30 31  1  0
 33 34  1  0
 33 35  1  0
 33 36  1  0
  1 37  1  0
  1 38  1  0
  1 39  1  0
  5 40  1  0
  8 41  1  0
 11 42  1  0
 14 43  1  0
 18 44  1  0
 22 45  1  0
 25 46  1  0
 26 47  1  0
 27 48  1  0
 27 49  1  0
 27 50  1  0
 28 51  1  0
 29 52  1  0
 30 53  1  0
 34 54  1  0
 34 55  1  0
 34 56  1  0
 35 57  1  0
 35 58  1  0
 35 59  1  0
 36 60  1  0
 36 61  1  0
 36 62  1  0
A    1
C
A    2
N
A    3
O
A    4
CL
A    5
C1
A    6
N1
A    7
O1
A    8
C2
A    9
N2
A   10
C3
A   11
N3
A   12
C4
A   13
N4
A   14
C5
A   15
N5
A   16
C6
A   17
N6
A   18
C7
A   19
C8
A   20
C9
A   21
C10
A   22
C11
A   23
C12
A   24
C13
A   25
C14
A   26
C15
A   27
C16
A   28
C17
A   29
C18
A   30
C19
A   31
C20
A   32
C21
A   33
C22
A   34
C23
A   35
C24
A   36
C25
M  END
