4C4Y_7WI_A_1548
     RDKit          3D

 28 28  0  0  0  0  0  0  0  0999 V2000
  102.1670  104.8670  100.8840 C   0  0  0  0  0  0  0  0  0  0  0  0
  101.6940  106.1570  101.1160 C   0  0  0  0  0  0  0  0  0  0  0  0
  101.3620  103.8240  100.3650 N   0  0  0  0  0  0  0  0  0  0  0  0
  103.4820  104.5440  101.1940 C   0  0  0  0  0  0  0  0  0  0  0  0
  102.5610  107.1000  101.6370 C   0  0  0  0  0  0  0  0  0  0  0  0
  100.4840  103.8780   99.3150 C   0  0  0  0  0  0  0  0  0  0  0  0
  104.3170  105.4990  101.7450 C   0  0  0  0  0  0  0  0  0  0  0  0
  103.8710  106.7940  101.9460 C   0  0  0  0  0  0  0  0  0  0  0  0
  101.9840  108.7200  101.9080 Cl  0  0  0  0  0  0  0  0  0  0  0  0
  100.0870  102.6660   98.8810 N   0  0  0  0  0  0  0  0  0  0  0  0
  100.0970  104.9260   98.8070 O   0  0  0  0  0  0  0  0  0  0  0  0
   99.2100  102.4800   97.7320 C   0  0  0  0  0  0  0  0  0  0  0  0
   99.8720  101.6810   96.6510 C   0  0  0  0  0  0  0  0  0  0  0  0
   98.8820  100.8520   96.0810 O   0  0  0  0  0  0  0  0  0  0  0  0
   99.4230   99.9580   95.1320 C   0  0  0  0  0  0  0  0  0  0  0  0
  100.6504  106.4203  100.8890 H   0  0  0  0  0  0  0  0  0  0  0  0
  101.4472  102.9116  100.8354 H   0  0  0  0  0  0  0  0  0  0  0  0
  103.8592  103.5288  101.0013 H   0  0  0  0  0  0  0  0  0  0  0  0
  105.3451  105.2270  102.0261 H   0  0  0  0  0  0  0  0  0  0  0  0
  104.5476  107.5644  102.3443 H   0  0  0  0  0  0  0  0  0  0  0  0
  100.4190  101.8314   99.3851 H   0  0  0  0  0  0  0  0  0  0  0  0
   98.3016  101.9529   98.0590 H   0  0  0  0  0  0  0  0  0  0  0  0
   98.9659  103.4718   97.3237 H   0  0  0  0  0  0  0  0  0  0  0  0
  100.2874  102.3532   95.8858 H   0  0  0  0  0  0  0  0  0  0  0  0
  100.6981  101.0800   97.0589 H   0  0  0  0  0  0  0  0  0  0  0  0
   99.9245   99.1293   95.6532 H   0  0  0  0  0  0  0  0  0  0  0  0
   98.6146   99.5590   94.5016 H   0  0  0  0  0  0  0  0  0  0  0  0
  100.1514  100.4890   94.5016 H   0  0  0  0  0  0  0  0  0  0  0  0
  1  2  2  0
  1  3  1  0
  1  4  1  0
  2  5  1  0
  3  6  1  0
  4  7  2  0
  5  8  2  0
  5  9  1  0
  6 10  1  0
  6 11  2  0
  7  8  1  0
 10 12  1  0
 12 13  1  0
 13 14  1  0
 14 15  1  0
  2 16  1  0
  3 17  1  0
  4 18  1  0
  7 19  1  0
  8 20  1  0
 10 21  1  0
 12 22  1  0
 12 23  1  0
 13 24  1  0
 13 25  1  0
 15 26  1  0
 15 27  1  0
 15 28  1  0
A    1
C1
A    2
C2
A    3
N3
A    4
C4
A    5
C5
A    6
C6
A    7
C7
A    8
C8
A    9
CL9
A   10
N10
A   11
O11
A   12
C12
A   13
C13
A   14
O14
A   15
C15
M  END
