4C4Z_W9L_A_1548
     RDKit          3D

 30 31  0  0  0  0  0  0  0  0999 V2000
   11.2090  -16.3920   45.5710 C   0  0  0  0  0  0  0  0  0  0  0  0
   10.9870  -17.3800   44.5690 N   0  0  0  0  0  0  0  0  0  0  0  0
   12.2910  -16.2530   46.1450 O   0  0  0  0  0  0  0  0  0  0  0  0
   11.9620  -18.3210   44.0900 C   0  0  0  0  0  0  0  0  0  0  0  0
   10.0890  -15.5830   45.8660 N   0  0  0  0  0  0  0  0  0  0  0  0
   11.6490  -19.7490   44.0810 C   0  0  0  0  0  0  0  0  0  0  0  0
   12.6420  -20.6550   43.5560 C   0  0  0  0  0  0  0  0  0  0  0  0
   13.8830  -20.1510   43.0470 C   0  0  0  0  0  0  0  0  0  0  0  0
   14.1360  -18.7960   43.0480 C   0  0  0  0  0  0  0  0  0  0  0  0
   13.1700  -17.8710   43.5490 C   0  0  0  0  0  0  0  0  0  0  0  0
   10.1420  -14.5060   46.8830 C   0  0  0  0  0  0  0  0  0  0  0  0
    9.4550  -13.2800   46.3720 C   0  0  0  0  0  0  0  0  0  0  0  0
   11.2000  -22.5730   44.0350 C   0  0  0  0  0  0  0  0  0  0  0  0
   10.2050  -21.6820   44.5520 C   0  0  0  0  0  0  0  0  0  0  0  0
   10.4240  -20.3110   44.5920 C   0  0  0  0  0  0  0  0  0  0  0  0
   12.3870  -22.0710   43.5380 C   0  0  0  0  0  0  0  0  0  0  0  0
   10.0463  -17.4237   44.1517 H   0  0  0  0  0  0  0  0  0  0  0  0
    9.2079  -15.7467   45.3584 H   0  0  0  0  0  0  0  0  0  0  0  0
   14.6372  -20.8485   42.6537 H   0  0  0  0  0  0  0  0  0  0  0  0
   15.0942  -18.4223   42.6579 H   0  0  0  0  0  0  0  0  0  0  0  0
   13.3789  -16.7918   43.5087 H   0  0  0  0  0  0  0  0  0  0  0  0
    9.6409  -14.8477   47.8007 H   0  0  0  0  0  0  0  0  0  0  0  0
   11.1938  -14.2655   47.0972 H   0  0  0  0  0  0  0  0  0  0  0  0
    9.1133  -12.6702   47.2214 H   0  0  0  0  0  0  0  0  0  0  0  0
   10.1567  -12.6949   45.7594 H   0  0  0  0  0  0  0  0  0  0  0  0
    8.5897  -13.5730   45.7594 H   0  0  0  0  0  0  0  0  0  0  0  0
   11.0188  -23.6580   44.0337 H   0  0  0  0  0  0  0  0  0  0  0  0
    9.2530  -22.0896   44.9230 H   0  0  0  0  0  0  0  0  0  0  0  0
    9.6559  -19.6484   45.0173 H   0  0  0  0  0  0  0  0  0  0  0  0
   13.1414  -22.7575   43.1262 H   0  0  0  0  0  0  0  0  0  0  0  0
  1  2  1  0
  1  3  2  0
  1  5  1  0
  2  4  1  0
  4  6  2  0
  4 10  1  0
  5 11  1  0
  6  7  1  0
  6 15  1  0
  7  8  2  0
  7 16  1  0
  8  9  1  0
  9 10  2  0
 11 12  1  0
 13 14  1  0
 13 16  2  0
 14 15  2  0
  2 17  1  0
  5 18  1  0
  8 19  1  0
  9 20  1  0
 10 21  1  0
 11 22  1  0
 11 23  1  0
 12 24  1  0
 12 25  1  0
 12 26  1  0
 13 27  1  0
 14 28  1  0
 15 29  1  0
 16 30  1  0
A    1
C1
A    2
N1
A    3
O1
A    4
C2
A    5
N2
A    6
C3
A    7
C4
A    8
C5
A    9
C6
A   10
C7
A   11
C8
A   12
C9
A   13
C11
A   14
C12
A   15
C40
A   16
C80
M  END
