4C5D_X0R_A_2000
     RDKit          3D

 64 66  0  0  0  0  0  0  0  0999 V2000
  -11.9640  -32.1310  -14.4820 Br  0  0  0  0  0  0  0  0  0  0  0  0
  -13.4420  -31.0430  -14.9130 C   0  0  0  0  0  0  0  0  0  0  0  0
  -14.3580  -31.5090  -15.8660 C   0  0  0  0  0  0  0  0  0  0  0  0
  -15.4420  -30.7040  -16.2030 C   0  0  0  0  0  0  0  0  0  0  0  0
  -13.6200  -29.8090  -14.2700 C   0  0  0  0  0  0  0  0  0  0  0  0
  -14.7210  -29.0120  -14.5960 C   0  0  0  0  0  0  0  0  0  0  0  0
  -15.6220  -29.4690  -15.5780 C   0  0  0  0  0  0  0  0  0  0  0  0
  -16.8020  -28.6120  -15.9740 C   0  0  0  0  0  0  0  0  0  0  0  0
  -18.2710  -29.5400  -15.8180 S   0  0  0  0  0  0  0  0  0  0  0  0
  -18.3240  -29.5170  -14.0670 C   0  0  0  0  0  0  0  0  0  0  0  0
  -19.1420  -28.3110  -13.6420 C   0  0  0  0  0  0  0  0  0  0  0  0
  -20.1020  -28.8710  -12.6400 C   0  0  0  0  0  0  0  0  0  0  0  0
  -21.3300  -28.7960  -12.8790 O   0  0  0  0  0  0  0  0  0  0  0  0
  -19.6160  -29.4240  -11.6250 O   0  0  0  0  0  0  0  0  0  0  0  0
  -18.2880  -27.2250  -13.1570 N   0  0  0  0  0  0  0  0  0  0  0  0
  -18.5400  -25.9540  -13.4800 C   0  0  0  0  0  0  0  0  0  0  0  0
  -19.5180  -25.7360  -14.1750 O   0  0  0  0  0  0  0  0  0  0  0  0
  -17.7600  -24.9460  -13.0310 N   0  0  0  0  0  0  0  0  0  0  0  0
  -18.3330  -23.6560  -12.7140 C   0  0  0  0  0  0  0  0  0  0  0  0
  -18.3430  -22.9290  -14.0400 C   0  0  0  0  0  0  0  0  0  0  0  0
  -19.2670  -21.7320  -13.9630 C   0  0  0  0  0  0  0  0  0  0  0  0
  -16.5200  -25.2390  -12.6410 C   0  0  0  0  0  0  0  0  0  0  0  0
  -16.0110  -26.3170  -12.8920 O   0  0  0  0  0  0  0  0  0  0  0  0
  -15.7110  -24.2420  -11.8570 C   0  0  0  0  0  0  0  0  0  0  0  0
  -14.7870  -23.4050  -12.4950 C   0  0  0  0  0  0  0  0  0  0  0  0
  -15.8650  -24.1490  -10.4720 C   0  0  0  0  0  0  0  0  0  0  0  0
  -15.0980  -23.2200   -9.7510 C   0  0  0  0  0  0  0  0  0  0  0  0
  -14.1770  -22.3920  -10.3870 C   0  0  0  0  0  0  0  0  0  0  0  0
  -14.0040  -22.4890  -11.7710 C   0  0  0  0  0  0  0  0  0  0  0  0
  -13.1650  -21.7190  -12.4000 C   0  0  0  0  0  0  0  0  0  0  0  0
  -12.3910  -21.0110  -12.9780 C   0  0  0  0  0  0  0  0  0  0  0  0
  -11.5680  -20.2550  -13.6480 C   0  0  0  0  0  0  0  0  0  0  0  0
  -11.6570  -18.8660  -13.5970 C   0  0  0  0  0  0  0  0  0  0  0  0
  -10.7170  -18.0960  -14.2940 C   0  0  0  0  0  0  0  0  0  0  0  0
   -9.6880  -18.6770  -15.0520 C   0  0  0  0  0  0  0  0  0  0  0  0
   -8.7640  -17.9500  -15.7550 F   0  0  0  0  0  0  0  0  0  0  0  0
   -9.6030  -20.0490  -15.0730 C   0  0  0  0  0  0  0  0  0  0  0  0
  -10.5170  -20.8230  -14.3680 C   0  0  0  0  0  0  0  0  0  0  0  0
  -10.3570  -22.1620  -14.4060 F   0  0  0  0  0  0  0  0  0  0  0  0
  -14.2226  -32.4929  -16.3389 H   0  0  0  0  0  0  0  0  0  0  0  0
  -16.1597  -31.0423  -16.9649 H   0  0  0  0  0  0  0  0  0  0  0  0
  -12.8970  -29.4704  -13.5133 H   0  0  0  0  0  0  0  0  0  0  0  0
  -14.8810  -28.0458  -14.0951 H   0  0  0  0  0  0  0  0  0  0  0  0
  -16.8528  -27.7313  -15.3169 H   0  0  0  0  0  0  0  0  0  0  0  0
  -16.6839  -28.2839  -17.0173 H   0  0  0  0  0  0  0  0  0  0  0  0
  -18.7955  -30.4386  -13.6950 H   0  0  0  0  0  0  0  0  0  0  0  0
  -17.3067  -29.4557  -13.6531 H   0  0  0  0  0  0  0  0  0  0  0  0
  -19.6893  -27.8247  -14.4629 H   0  0  0  0  0  0  0  0  0  0  0  0
  -19.8823  -29.1210  -10.7209 H   0  0  0  0  0  0  0  0  0  0  0  0
  -17.4801  -27.4449  -12.5572 H   0  0  0  0  0  0  0  0  0  0  0  0
  -19.3542  -23.7670  -12.3204 H   0  0  0  0  0  0  0  0  0  0  0  0
  -17.7671  -23.1185  -11.9388 H   0  0  0  0  0  0  0  0  0  0  0  0
  -17.3242  -22.5889  -14.2775 H   0  0  0  0  0  0  0  0  0  0  0  0
  -18.6989  -23.6120  -14.8254 H   0  0  0  0  0  0  0  0  0  0  0  0
  -19.4585  -21.4839  -12.9086 H   0  0  0  0  0  0  0  0  0  0  0  0
  -18.7959  -20.8724  -14.4622 H   0  0  0  0  0  0  0  0  0  0  0  0
  -20.2178  -21.9701  -14.4622 H   0  0  0  0  0  0  0  0  0  0  0  0
  -14.6713  -23.4657  -13.5872 H   0  0  0  0  0  0  0  0  0  0  0  0
  -16.5823  -24.7991   -9.9497 H   0  0  0  0  0  0  0  0  0  0  0  0
  -15.2274  -23.1448   -8.6612 H   0  0  0  0  0  0  0  0  0  0  0  0
  -13.5896  -21.6667   -9.8048 H   0  0  0  0  0  0  0  0  0  0  0  0
  -12.4552  -18.3799  -13.0168 H   0  0  0  0  0  0  0  0  0  0  0  0
  -10.7875  -16.9993  -14.2458 H   0  0  0  0  0  0  0  0  0  0  0  0
   -8.8057  -20.5378  -15.6521 H   0  0  0  0  0  0  0  0  0  0  0  0
  1  2  1  0
  2  3  2  0
  2  5  1  0
  3  4  1  0
  4  7  2  0
  5  6  2  0
  6  7  1  0
  7  8  1  0
  8  9  1  0
  9 10  1  0
 10 11  1  0
 11 12  1  0
 11 15  1  0
 12 13  2  0
 12 14  1  0
 15 16  1  0
 16 17  2  0
 16 18  1  0
 18 19  1  0
 18 22  1  0
 19 20  1  0
 20 21  1  0
 22 23  2  0
 22 24  1  0
 24 25  2  0
 24 26  1  0
 25 29  1  0
 26 27  2  0
 27 28  1  0
 28 29  2  0
 29 30  1  0
 30 31  3  0
 31 32  1  0
 32 33  2  0
 32 38  1  0
 33 34  1  0
 34 35  2  0
 35 36  1  0
 35 37  1  0
 37 38  2  0
 38 39  1  0
  3 40  1  0
  4 41  1  0
  5 42  1  0
  6 43  1  0
  8 44  1  0
  8 45  1  0
 10 46  1  0
 10 47  1  0
 11 48  1  0
 14 49  1  0
 15 50  1  0
 19 51  1  0
 19 52  1  0
 20 53  1  0
 20 54  1  0
 21 55  1  0
 21 56  1  0
 21 57  1  0
 25 58  1  0
 26 59  1  0
 27 60  1  0
 28 61  1  0
 33 62  1  0
 34 63  1  0
 37 64  1  0
A    1
BR
A    2
C28
A    3
C27
A    4
C26
A    5
C29
A    6
C30
A    7
C25
A    8
C24
A    9
S23
A   10
C22
A   11
C20
A   12
C21
A   13
O2
A   14
O1
A   15
N19
A   16
C19
A   17
O19
A   18
N15
A   19
C16
A   20
C17
A   21
C18
A   22
C15
A   23
O15
A   24
C11
A   25
C10
A   26
C12
A   27
C13
A   28
C14
A   29
C9
A   30
C8
A   31
C7
A   32
C1
A   33
C6
A   34
C5
A   35
C4
A   36
F4
A   37
C3
A   38
C2
A   39
F2
M  END
