4C61_LMM_A_2133
     RDKit          3D

 44 47  0  0  0  0  0  0  0  0999 V2000
   10.6370    7.4690   43.5650 F   0  0  0  0  0  0  0  0  0  0  0  0
   11.6050    6.5200   43.6400 C   0  0  0  0  0  0  0  0  0  0  0  0
   11.3470    5.2000   44.0990 C   0  0  0  0  0  0  0  0  0  0  0  0
   12.3470    4.3160   44.2220 N   0  0  0  0  0  0  0  0  0  0  0  0
   13.5630    4.7640   43.8730 C   0  0  0  0  0  0  0  0  0  0  0  0
   13.9020    5.9700   43.3940 N   0  0  0  0  0  0  0  0  0  0  0  0
   12.9050    6.8560   43.2790 C   0  0  0  0  0  0  0  0  0  0  0  0
   14.7600    3.7720   44.0640 C   0  0  0  0  0  0  0  0  0  0  0  0
   15.3030    3.9670   45.4770 C   0  0  0  0  0  0  0  0  0  0  0  0
   15.8400    4.0140   43.0940 N   0  0  0  0  0  0  0  0  0  0  0  0
   15.7910    3.7760   41.7670 C   0  0  0  0  0  0  0  0  0  0  0  0
   16.8960    4.0740   41.0670 N   0  0  0  0  0  0  0  0  0  0  0  0
   16.8500    3.7280   39.7710 C   0  0  0  0  0  0  0  0  0  0  0  0
   17.9670    3.8670   38.8050 C   0  0  0  0  0  0  0  0  0  0  0  0
   19.3600    4.3440   39.0980 C   0  0  0  0  0  0  0  0  0  0  0  0
   14.6680    3.2120   41.2840 N   0  0  0  0  0  0  0  0  0  0  0  0
   14.6160    2.8840   39.9840 C   0  0  0  0  0  0  0  0  0  0  0  0
   15.7420    3.1300   39.1490 C   0  0  0  0  0  0  0  0  0  0  0  0
   16.0220    2.7760   37.4790 S   0  0  0  0  0  0  0  0  0  0  0  0
   17.6150    3.4150   37.5660 C   0  0  0  0  0  0  0  0  0  0  0  0
   13.4650    2.2720   39.4490 N   0  0  0  0  0  0  0  0  0  0  0  0
   12.3020    1.9500   40.1300 C   0  0  0  0  0  0  0  0  0  0  0  0
   11.2970    1.3210   39.4640 N   0  0  0  0  0  0  0  0  0  0  0  0
   10.3140    1.1200   40.3110 C   0  0  0  0  0  0  0  0  0  0  0  0
   10.6860    1.6190   41.5660 N   0  0  0  0  0  0  0  0  0  0  0  0
    9.9000    1.6050   42.8030 C   0  0  0  0  0  0  0  0  0  0  0  0
   11.9420    2.1320   41.4280 C   0  0  0  0  0  0  0  0  0  0  0  0
   10.3196    4.9017   44.3551 H   0  0  0  0  0  0  0  0  0  0  0  0
   13.1173    7.8641   42.8934 H   0  0  0  0  0  0  0  0  0  0  0  0
   14.3990    2.7454   43.9034 H   0  0  0  0  0  0  0  0  0  0  0  0
   14.5298    3.6893   46.2085 H   0  0  0  0  0  0  0  0  0  0  0  0
   16.1888    3.3308   45.6204 H   0  0  0  0  0  0  0  0  0  0  0  0
   15.5817    5.0214   45.6204 H   0  0  0  0  0  0  0  0  0  0  0  0
   16.7189    4.4030   43.4643 H   0  0  0  0  0  0  0  0  0  0  0  0
   19.5087    4.3949   40.1867 H   0  0  0  0  0  0  0  0  0  0  0  0
   20.0869    3.6436   38.6610 H   0  0  0  0  0  0  0  0  0  0  0  0
   19.5050    5.3430   38.6610 H   0  0  0  0  0  0  0  0  0  0  0  0
   18.2914    3.4561   36.6995 H   0  0  0  0  0  0  0  0  0  0  0  0
   13.4909    2.0395   38.4459 H   0  0  0  0  0  0  0  0  0  0  0  0
    9.3541    0.6380   40.0736 H   0  0  0  0  0  0  0  0  0  0  0  0
   10.5785    1.6171   43.6687 H   0  0  0  0  0  0  0  0  0  0  0  0
    9.2498    2.4917   42.8343 H   0  0  0  0  0  0  0  0  0  0  0  0
    9.2818    0.6957   42.8343 H   0  0  0  0  0  0  0  0  0  0  0  0
   12.5478    2.6029   42.2162 H   0  0  0  0  0  0  0  0  0  0  0  0
  1  2  1  0
  2  3  2  0
  2  7  1  0
  3  4  1  0
  4  5  2  0
  5  6  1  0
  5  8  1  0
  6  7  2  0
  8  9  1  0
  8 10  1  0
 10 11  1  0
 11 12  2  0
 11 16  1  0
 12 13  1  0
 13 14  1  0
 13 18  2  0
 14 15  1  0
 14 20  2  0
 16 17  2  0
 17 18  1  0
 17 21  1  0
 18 19  1  0
 19 20  1  0
 21 22  1  0
 22 23  1  0
 22 27  2  0
 23 24  2  0
 24 25  1  0
 25 26  1  0
 25 27  1  0
  3 28  1  0
  7 29  1  0
  8 30  1  0
  9 31  1  0
  9 32  1  0
  9 33  1  0
 10 34  1  0
 15 35  1  0
 15 36  1  0
 15 37  1  0
 20 38  1  0
 21 39  1  0
 24 40  1  0
 26 41  1  0
 26 42  1  0
 26 43  1  0
 27 44  1  0
A    1
F28
A    2
C25
A    3
C26
A    4
N27
A    5
C22
A    6
N23
A    7
C24
A    8
C19
A    9
C21
A   10
N18
A   11
C8
A   12
N7
A   13
C6
A   14
C2
A   15
C1
A   16
N9
A   17
C10
A   18
C5
A   19
S4
A   20
C3
A   21
N11
A   22
C12
A   23
N16
A   24
C15
A   25
N14
A   26
C17
A   27
C13
M  END
