1FJ4_TLM_A_500
     RDKit          3D

 28 28  0  0  0  0  0  0  0  0999 V2000
    6.2170  -19.4860   -0.4880 S   0  0  0  0  0  0  0  0  0  0  0  0
    7.0270  -18.5720    0.7860 C   0  0  0  0  0  0  0  0  0  0  0  0
    6.6290  -19.0160    2.0970 C   0  0  0  0  0  0  0  0  0  0  0  0
    5.7900  -20.0690    2.0550 C   0  0  0  0  0  0  0  0  0  0  0  0
    5.3860  -20.6510    0.7160 C   0  0  0  0  0  0  0  0  0  0  0  0
    3.8840  -20.6960    0.4040 C   0  0  0  0  0  0  0  0  0  0  0  0
    3.1800  -20.8520   -0.7410 C   0  0  0  0  0  0  0  0  0  0  0  0
    1.6930  -20.7190   -0.6320 C   0  0  0  0  0  0  0  0  0  0  0  0
    0.7810  -20.8290   -1.6020 C   0  0  0  0  0  0  0  0  0  0  0  0
    7.8230  -17.6860    0.5180 O   0  0  0  0  0  0  0  0  0  0  0  0
    7.1190  -18.3340    3.3280 C   0  0  0  0  0  0  0  0  0  0  0  0
    5.2870  -20.6170    3.1700 O   0  0  0  0  0  0  0  0  0  0  0  0
    6.0340  -22.0480    0.5840 C   0  0  0  0  0  0  0  0  0  0  0  0
    3.7580  -21.1460   -2.0940 C   0  0  0  0  0  0  0  0  0  0  0  0
    3.2491  -20.5769    1.2944 H   0  0  0  0  0  0  0  0  0  0  0  0
    1.3020  -20.5036    0.3733 H   0  0  0  0  0  0  0  0  0  0  0  0
   -0.2870  -20.7050   -1.3695 H   0  0  0  0  0  0  0  0  0  0  0  0
    1.0980  -21.0436   -2.6332 H   0  0  0  0  0  0  0  0  0  0  0  0
    6.7397  -18.8620    4.2153 H   0  0  0  0  0  0  0  0  0  0  0  0
    8.2189  -18.3424    3.3387 H   0  0  0  0  0  0  0  0  0  0  0  0
    6.7601  -17.2942    3.3387 H   0  0  0  0  0  0  0  0  0  0  0  0
    5.5835  -20.2939    4.0576 H   0  0  0  0  0  0  0  0  0  0  0  0
    6.2250  -22.4598    1.5860 H   0  0  0  0  0  0  0  0  0  0  0  0
    5.3543  -22.7172    0.0360 H   0  0  0  0  0  0  0  0  0  0  0  0
    6.9839  -21.9613    0.0360 H   0  0  0  0  0  0  0  0  0  0  0  0
    4.7328  -21.6419   -1.9764 H   0  0  0  0  0  0  0  0  0  0  0  0
    3.0753  -21.8064   -2.6488 H   0  0  0  0  0  0  0  0  0  0  0  0
    3.8897  -20.2053   -2.6488 H   0  0  0  0  0  0  0  0  0  0  0  0
  1  2  1  0
  1  5  1  0
  2  3  1  0
  2 10  2  0
  3  4  2  0
  3 11  1  0
  4  5  1  0
  4 12  1  0
  5  6  1  0
  5 13  1  0
  6  7  2  0
  7  8  1  0
  7 14  1  0
  8  9  2  0
  6 15  1  0
  8 16  1  0
  9 17  1  0
  9 18  1  0
 11 19  1  0
 11 20  1  0
 11 21  1  0
 12 22  1  0
 13 23  1  0
 13 24  1  0
 13 25  1  0
 14 26  1  0
 14 27  1  0
 14 28  1  0
A    1
S1
A    2
C1
A    3
C2
A    4
C3
A    5
C4
A    6
C5
A    7
C6
A    8
C7
A    9
C8
A   10
O1
A   11
C9
A   12
O2
A   13
C10
A   14
C11
M  END
