4C6Z_TLE_A_1420
     RDKit          3D

 31 31  0  0  0  0  0  0  0  0999 V2000
   -8.5150  -17.5250    9.1190 C   0  0  0  0  0  0  0  0  0  0  0  0
   -3.8350  -23.9010    8.5220 O   0  0  0  0  0  0  0  0  0  0  0  0
   -4.6970  -21.5000    8.1490 S   0  0  0  0  0  0  0  0  0  0  0  0
   -8.3810  -18.6940    8.4730 C   0  0  0  0  0  0  0  0  0  0  0  0
   -7.4960  -22.8200    5.6340 O   0  0  0  0  0  0  0  0  0  0  0  0
   -7.1720  -19.3510    7.9860 C   0  0  0  0  0  0  0  0  0  0  0  0
   -5.8480  -18.6950    8.2780 C   0  0  0  0  0  0  0  0  0  0  0  0
   -7.1730  -20.4750    7.2700 C   0  0  0  0  0  0  0  0  0  0  0  0
   -5.9840  -21.2470    6.7940 C   0  0  0  0  0  0  0  0  0  0  0  0
   -5.2450  -20.5480    5.6590 C   0  0  0  0  0  0  0  0  0  0  0  0
   -4.6730  -23.2870    7.9330 C   0  0  0  0  0  0  0  0  0  0  0  0
   -5.6520  -23.6940    6.8940 C   0  0  0  0  0  0  0  0  0  0  0  0
   -5.8600  -25.1290    6.4920 C   0  0  0  0  0  0  0  0  0  0  0  0
   -6.1240  -26.0560    7.6940 C   0  0  0  0  0  0  0  0  0  0  0  0
   -6.3570  -22.6760    6.3910 C   0  0  0  0  0  0  0  0  0  0  0  0
   -9.5134  -17.1732    9.4181 H   0  0  0  0  0  0  0  0  0  0  0  0
   -7.6264  -16.9188    9.3492 H   0  0  0  0  0  0  0  0  0  0  0  0
   -9.3192  -19.2359    8.2829 H   0  0  0  0  0  0  0  0  0  0  0  0
   -8.3742  -22.9310    6.0773 H   0  0  0  0  0  0  0  0  0  0  0  0
   -5.7058  -18.6246    9.3665 H   0  0  0  0  0  0  0  0  0  0  0  0
   -5.0369  -19.2954    7.8404 H   0  0  0  0  0  0  0  0  0  0  0  0
   -5.8343  -17.6859    7.8404 H   0  0  0  0  0  0  0  0  0  0  0  0
   -8.1590  -20.8803    6.9987 H   0  0  0  0  0  0  0  0  0  0  0  0
   -4.5061  -19.8491    6.0781 H   0  0  0  0  0  0  0  0  0  0  0  0
   -4.7306  -21.2977    5.0399 H   0  0  0  0  0  0  0  0  0  0  0  0
   -5.9649  -19.9927    5.0399 H   0  0  0  0  0  0  0  0  0  0  0  0
   -6.7231  -25.1815    5.8120 H   0  0  0  0  0  0  0  0  0  0  0  0
   -4.9349  -25.4733    6.0065 H   0  0  0  0  0  0  0  0  0  0  0  0
   -5.9652  -25.4985    8.6288 H   0  0  0  0  0  0  0  0  0  0  0  0
   -7.1614  -26.4197    7.6557 H   0  0  0  0  0  0  0  0  0  0  0  0
   -5.4338  -26.9117    7.6557 H   0  0  0  0  0  0  0  0  0  0  0  0
  1  4  2  0
  2 11  2  0
  3  9  1  0
  3 11  1  0
  4  6  1  0
  5 15  1  0
  6  7  1  0
  6  8  2  0
  8  9  1  0
  9 10  1  0
  9 15  1  0
 11 12  1  0
 12 13  1  0
 12 15  2  0
 13 14  1  0
  1 16  1  0
  1 17  1  0
  4 18  1  0
  5 19  1  0
  7 20  1  0
  7 21  1  0
  7 22  1  0
  8 23  1  0
 10 24  1  0
 10 25  1  0
 10 26  1  0
 13 27  1  0
 13 28  1  0
 14 29  1  0
 14 30  1  0
 14 31  1  0
A    1
C
A    2
O
A    3
S
A    4
C1
A    5
O1
A    6
C2
A    7
C3
A    8
C4
A    9
C5
A   10
C6
A   11
C7
A   12
C8
A   13
C9
A   14
C10
A   15
C11
M  END
