4C70_TLJ_A_1423
     RDKit          3D

 34 34  0  0  0  0  0  0  0  0999 V2000
   -9.0420  -17.5140    9.3310 C   0  0  0  0  0  0  0  0  0  0  0  0
   -4.0940  -23.9120    8.3910 O   0  0  0  0  0  0  0  0  0  0  0  0
   -5.1920  -21.5570    8.4310 S   0  0  0  0  0  0  0  0  0  0  0  0
   -8.7600  -18.5790    8.5770 C   0  0  0  0  0  0  0  0  0  0  0  0
   -7.7320  -22.6680    5.5500 O   0  0  0  0  0  0  0  0  0  0  0  0
   -7.5040  -19.2210    8.0540 C   0  0  0  0  0  0  0  0  0  0  0  0
   -6.1610  -18.6030    8.3350 C   0  0  0  0  0  0  0  0  0  0  0  0
   -7.5040  -20.3790    7.3720 C   0  0  0  0  0  0  0  0  0  0  0  0
   -6.3140  -21.1850    6.9380 C   0  0  0  0  0  0  0  0  0  0  0  0
   -5.4760  -20.4740    5.8380 C   0  0  0  0  0  0  0  0  0  0  0  0
   -5.0070  -23.3050    7.9220 C   0  0  0  0  0  0  0  0  0  0  0  0
   -5.8860  -23.6470    6.7630 C   0  0  0  0  0  0  0  0  0  0  0  0
   -5.9910  -25.0310    6.1770 C   0  0  0  0  0  0  0  0  0  0  0  0
   -6.9690  -25.9850    7.0390 C   0  0  0  0  0  0  0  0  0  0  0  0
   -6.3680  -26.6890    8.2800 C   0  0  0  0  0  0  0  0  0  0  0  0
   -6.6650  -22.5930    6.3920 C   0  0  0  0  0  0  0  0  0  0  0  0
  -10.0880  -17.2684    9.5667 H   0  0  0  0  0  0  0  0  0  0  0  0
   -8.2284  -16.8821    9.7165 H   0  0  0  0  0  0  0  0  0  0  0  0
   -9.6657  -19.1178    8.2617 H   0  0  0  0  0  0  0  0  0  0  0  0
   -8.6490  -22.7325    5.9175 H   0  0  0  0  0  0  0  0  0  0  0  0
   -6.0097  -18.5334    9.4223 H   0  0  0  0  0  0  0  0  0  0  0  0
   -5.3704  -19.2278    7.8940 H   0  0  0  0  0  0  0  0  0  0  0  0
   -6.1213  -17.5960    7.8940 H   0  0  0  0  0  0  0  0  0  0  0  0
   -8.4903  -20.7832    7.1002 H   0  0  0  0  0  0  0  0  0  0  0  0
   -4.7189  -19.8317    6.3116 H   0  0  0  0  0  0  0  0  0  0  0  0
   -4.9770  -21.2285    5.2121 H   0  0  0  0  0  0  0  0  0  0  0  0
   -6.1392  -19.8588    5.2121 H   0  0  0  0  0  0  0  0  0  0  0  0
   -6.3843  -24.9533    5.1526 H   0  0  0  0  0  0  0  0  0  0  0  0
   -4.9866  -25.4794    6.1868 H   0  0  0  0  0  0  0  0  0  0  0  0
   -7.8105  -25.3672    7.3858 H   0  0  0  0  0  0  0  0  0  0  0  0
   -7.2373  -26.8034    6.3547 H   0  0  0  0  0  0  0  0  0  0  0  0
   -6.7654  -26.2235    9.1940 H   0  0  0  0  0  0  0  0  0  0  0  0
   -6.6389  -27.7550    8.2639 H   0  0  0  0  0  0  0  0  0  0  0  0
   -5.2727  -26.5887    8.2639 H   0  0  0  0  0  0  0  0  0  0  0  0
  1  4  2  0
  2 11  2  0
  3  9  1  0
  3 11  1  0
  4  6  1  0
  5 16  1  0
  6  7  1  0
  6  8  2  0
  8  9  1  0
  9 10  1  0
  9 16  1  0
 11 12  1  0
 12 13  1  0
 12 16  2  0
 13 14  1  0
 14 15  1  0
  1 17  1  0
  1 18  1  0
  4 19  1  0
  5 20  1  0
  7 21  1  0
  7 22  1  0
  7 23  1  0
  8 24  1  0
 10 25  1  0
 10 26  1  0
 10 27  1  0
 13 28  1  0
 13 29  1  0
 14 30  1  0
 14 31  1  0
 15 32  1  0
 15 33  1  0
 15 34  1  0
A    1
C
A    2
O
A    3
S
A    4
C1
A    5
O1
A    6
C2
A    7
C3
A    8
C4
A    9
C5
A   10
C6
A   11
C7
A   12
C8
A   13
C9
A   14
C10
A   15
C11
A   16
C12
M  END
