4C71_7RD_A_1423
     RDKit          3D

 39 39  0  0  0  0  0  0  0  0999 V2000
   -4.2910  -28.9980    9.7810 N   0  0  0  0  0  0  0  0  0  0  0  0
   -4.9200  -28.0670    9.5950 N   0  0  0  0  0  0  0  0  0  0  0  0
   -5.4680  -27.0200    9.3080 N   0  0  0  0  0  0  0  0  0  0  0  0
   -5.1130  -26.4880    8.0250 C   0  0  0  0  0  0  0  0  0  0  0  0
   -6.3740  -25.7460    7.6630 C   0  0  0  0  0  0  0  0  0  0  0  0
   -6.2750  -25.1960    6.2980 C   0  0  0  0  0  0  0  0  0  0  0  0
   -4.9330  -24.4960    6.1860 C   0  0  0  0  0  0  0  0  0  0  0  0
   -4.8750  -23.1530    6.8630 C   0  0  0  0  0  0  0  0  0  0  0  0
   -3.9810  -22.8900    7.9520 C   0  0  0  0  0  0  0  0  0  0  0  0
   -3.2320  -23.6050    8.5510 O   0  0  0  0  0  0  0  0  0  0  0  0
   -4.0820  -21.1100    8.4080 S   0  0  0  0  0  0  0  0  0  0  0  0
   -5.5110  -22.0400    6.3920 C   0  0  0  0  0  0  0  0  0  0  0  0
   -6.4360  -22.0330    5.4140 O   0  0  0  0  0  0  0  0  0  0  0  0
   -5.2520  -20.6870    6.9980 C   0  0  0  0  0  0  0  0  0  0  0  0
   -4.4960  -19.8610    5.9380 C   0  0  0  0  0  0  0  0  0  0  0  0
   -6.5070  -20.0030    7.4890 C   0  0  0  0  0  0  0  0  0  0  0  0
   -6.6130  -18.8940    8.2000 C   0  0  0  0  0  0  0  0  0  0  0  0
   -5.3750  -18.1180    8.5840 C   0  0  0  0  0  0  0  0  0  0  0  0
   -7.9340  -18.3720    8.6210 C   0  0  0  0  0  0  0  0  0  0  0  0
   -8.0830  -17.1840    9.2620 C   0  0  0  0  0  0  0  0  0  0  0  0
   -4.2503  -25.8090    8.0938 H   0  0  0  0  0  0  0  0  0  0  0  0
   -4.8053  -27.2455    7.2892 H   0  0  0  0  0  0  0  0  0  0  0  0
   -7.2282  -26.4372    7.7139 H   0  0  0  0  0  0  0  0  0  0  0  0
   -6.5151  -24.9167    8.3717 H   0  0  0  0  0  0  0  0  0  0  0  0
   -6.3375  -26.0091    5.5598 H   0  0  0  0  0  0  0  0  0  0  0  0
   -7.0973  -24.4920    6.1027 H   0  0  0  0  0  0  0  0  0  0  0  0
   -4.1681  -25.1435    6.6396 H   0  0  0  0  0  0  0  0  0  0  0  0
   -4.7609  -24.3157    5.1146 H   0  0  0  0  0  0  0  0  0  0  0  0
   -7.3990  -22.0257    5.6435 H   0  0  0  0  0  0  0  0  0  0  0  0
   -3.8349  -19.1386    6.4391 H   0  0  0  0  0  0  0  0  0  0  0  0
   -3.8944  -20.5339    5.3094 H   0  0  0  0  0  0  0  0  0  0  0  0
   -5.2194  -19.3212    5.3094 H   0  0  0  0  0  0  0  0  0  0  0  0
   -7.4551  -20.4915    7.2197 H   0  0  0  0  0  0  0  0  0  0  0  0
   -5.2979  -18.0697    9.6802 H   0  0  0  0  0  0  0  0  0  0  0  0
   -4.4858  -18.6207    8.1757 H   0  0  0  0  0  0  0  0  0  0  0  0
   -5.4399  -17.0987    8.1757 H   0  0  0  0  0  0  0  0  0  0  0  0
   -8.8310  -18.9712    8.4056 H   0  0  0  0  0  0  0  0  0  0  0  0
   -9.0856  -16.8389    9.5547 H   0  0  0  0  0  0  0  0  0  0  0  0
   -7.2011  -16.5669    9.4885 H   0  0  0  0  0  0  0  0  0  0  0  0
  1  2  2  0
  2  3  2  3
  3  4  1  0
  4  5  1  0
  5  6  1  0
  6  7  1  0
  7  8  1  0
  8  9  1  0
  8 12  2  0
  9 10  2  0
  9 11  1  0
 11 14  1  0
 12 13  1  0
 12 14  1  0
 14 15  1  0
 14 16  1  0
 16 17  2  0
 17 18  1  0
 17 19  1  0
 19 20  2  0
  4 21  1  0
  4 22  1  0
  5 23  1  0
  5 24  1  0
  6 25  1  0
  6 26  1  0
  7 27  1  0
  7 28  1  0
 13 29  1  0
 15 30  1  0
 15 31  1  0
 15 32  1  0
 16 33  1  0
 18 34  1  0
 18 35  1  0
 18 36  1  0
 19 37  1  0
 20 38  1  0
 20 39  1  0
M  CHG  2   1  -1   2   1
A    1
N2
A    2
N1
A    3
N
A    4
C12
A    5
C11
A    6
C10
A    7
C9
A    8
C8
A    9
C7
A   10
O
A   11
S
A   12
C13
A   13
O1
A   14
C5
A   15
C6
A   16
C4
A   17
C2
A   18
C3
A   19
C1
A   20
C
M  END
