4C73_TLH_A_1427
     RDKit          3D

 30 30  0  0  0  0  0  0  0  0999 V2000
   -6.5690  -26.2630    5.3210 F   0  0  0  0  0  0  0  0  0  0  0  0
   -6.8570  -25.0490    5.6950 C   0  0  0  0  0  0  0  0  0  0  0  0
   -8.1810  -25.0220    5.9280 F   0  0  0  0  0  0  0  0  0  0  0  0
   -6.5270  -24.2860    4.6670 F   0  0  0  0  0  0  0  0  0  0  0  0
   -6.0570  -24.6260    6.9440 C   0  0  0  0  0  0  0  0  0  0  0  0
   -5.7760  -25.5120    7.7210 O   0  0  0  0  0  0  0  0  0  0  0  0
   -5.8490  -23.2330    7.1790 C   0  0  0  0  0  0  0  0  0  0  0  0
   -4.8560  -22.9030    8.1420 C   0  0  0  0  0  0  0  0  0  0  0  0
   -4.0780  -23.6410    8.6840 O   0  0  0  0  0  0  0  0  0  0  0  0
   -4.8250  -21.1130    8.3560 S   0  0  0  0  0  0  0  0  0  0  0  0
   -6.5010  -22.1780    6.6430 C   0  0  0  0  0  0  0  0  0  0  0  0
   -7.5720  -22.1940    5.8700 O   0  0  0  0  0  0  0  0  0  0  0  0
   -6.0710  -20.7710    7.0160 C   0  0  0  0  0  0  0  0  0  0  0  0
   -5.3580  -20.1950    5.8200 C   0  0  0  0  0  0  0  0  0  0  0  0
   -7.2480  -19.9990    7.5130 C   0  0  0  0  0  0  0  0  0  0  0  0
   -7.2810  -18.8590    8.1860 C   0  0  0  0  0  0  0  0  0  0  0  0
   -6.0160  -18.1350    8.5980 C   0  0  0  0  0  0  0  0  0  0  0  0
   -8.5610  -18.2730    8.5540 C   0  0  0  0  0  0  0  0  0  0  0  0
   -8.6840  -17.0880    9.1410 C   0  0  0  0  0  0  0  0  0  0  0  0
   -8.4750  -22.2075    6.2756 H   0  0  0  0  0  0  0  0  0  0  0  0
   -4.5442  -19.5376    6.1598 H   0  0  0  0  0  0  0  0  0  0  0  0
   -4.9403  -21.0121    5.2135 H   0  0  0  0  0  0  0  0  0  0  0  0
   -6.0691  -19.6148    5.2135 H   0  0  0  0  0  0  0  0  0  0  0  0
   -8.2298  -20.4409    7.2876 H   0  0  0  0  0  0  0  0  0  0  0  0
   -5.9546  -18.0999    9.6957 H   0  0  0  0  0  0  0  0  0  0  0  0
   -5.1412  -18.6692    8.1987 H   0  0  0  0  0  0  0  0  0  0  0  0
   -6.0335  -17.1102    8.1987 H   0  0  0  0  0  0  0  0  0  0  0  0
   -9.4762  -18.8422    8.3341 H   0  0  0  0  0  0  0  0  0  0  0  0
   -9.6819  -16.7005    9.3940 H   0  0  0  0  0  0  0  0  0  0  0  0
   -7.7880  -16.4941    9.3742 H   0  0  0  0  0  0  0  0  0  0  0  0
  1  2  1  0
  2  3  1  0
  2  4  1  0
  2  5  1  0
  5  6  2  0
  5  7  1  0
  7  8  1  0
  7 11  2  0
  8  9  2  0
  8 10  1  0
 10 13  1  0
 11 12  1  0
 11 13  1  0
 13 14  1  0
 13 15  1  0
 15 16  2  0
 16 17  1  0
 16 18  1  0
 18 19  2  0
 12 20  1  0
 14 21  1  0
 14 22  1  0
 14 23  1  0
 15 24  1  0
 17 25  1  0
 17 26  1  0
 17 27  1  0
 18 28  1  0
 19 29  1  0
 19 30  1  0
A    1
F2
A    2
C10
A    3
F
A    4
F1
A    5
C9
A    6
O1
A    7
C8
A    8
C7
A    9
O
A   10
S
A   11
C11
A   12
O2
A   13
C5
A   14
C6
A   15
C4
A   16
C2
A   17
C3
A   18
C1
A   19
C
M  END
