4C7T_5RI_A_1685
     RDKit          3D

 52 54  0  0  0  0  0  0  0  0999 V2000
   -8.5800    5.3280   -5.8090 C   0  0  0  0  0  0  0  0  0  0  0  0
   -9.2990    4.6840   -4.7440 O   0  0  0  0  0  0  0  0  0  0  0  0
  -10.6130    5.0080   -4.5260 C   0  0  0  0  0  0  0  0  0  0  0  0
  -11.3300    5.9370   -5.3040 C   0  0  0  0  0  0  0  0  0  0  0  0
  -11.2310    4.3520   -3.4530 C   0  0  0  0  0  0  0  0  0  0  0  0
  -10.5450    3.4130   -2.7080 O   0  0  0  0  0  0  0  0  0  0  0  0
   -9.5980    3.9330   -1.7590 C   0  0  0  0  0  0  0  0  0  0  0  0
  -12.5580    4.6110   -3.1570 C   0  0  0  0  0  0  0  0  0  0  0  0
  -13.1360    3.9250   -2.1140 O   0  0  0  0  0  0  0  0  0  0  0  0
  -14.2330    4.5510   -1.4430 C   0  0  0  0  0  0  0  0  0  0  0  0
  -13.2700    5.5390   -3.9370 C   0  0  0  0  0  0  0  0  0  0  0  0
  -12.6750    6.2120   -4.9960 C   0  0  0  0  0  0  0  0  0  0  0  0
  -13.4730    7.0660   -5.6710 N   0  0  0  0  0  0  0  0  0  0  0  0
  -13.1610    8.1230   -6.4090 C   0  0  0  0  0  0  0  0  0  0  0  0
  -11.8990    8.5640   -6.5210 N   0  0  0  0  0  0  0  0  0  0  0  0
  -14.1580    8.7760   -7.0590 N   0  0  0  0  0  0  0  0  0  0  0  0
  -13.8880    9.8380   -7.8020 C   0  0  0  0  0  0  0  0  0  0  0  0
  -12.6470   10.2750   -7.9250 N   0  0  0  0  0  0  0  0  0  0  0  0
  -11.6420    9.6350   -7.2810 C   0  0  0  0  0  0  0  0  0  0  0  0
  -10.4090   10.0860   -7.4310 N   0  0  0  0  0  0  0  0  0  0  0  0
   -9.2890    9.5890   -6.8510 C   0  0  0  0  0  0  0  0  0  0  0  0
   -9.2100    9.4470   -5.4650 C   0  0  0  0  0  0  0  0  0  0  0  0
   -8.0510    8.9750   -4.8650 C   0  0  0  0  0  0  0  0  0  0  0  0
   -6.9420    8.6530   -5.6510 C   0  0  0  0  0  0  0  0  0  0  0  0
   -7.0000    8.7980   -7.0380 C   0  0  0  0  0  0  0  0  0  0  0  0
   -8.1770    9.2690   -7.6370 C   0  0  0  0  0  0  0  0  0  0  0  0
   -8.2180    9.4230   -9.1650 C   0  0  0  0  0  0  0  0  0  0  0  0
   -8.9650   10.2410   -9.7060 O   0  0  0  0  0  0  0  0  0  0  0  0
   -7.4050    8.6020   -9.8280 N   0  0  0  0  0  0  0  0  0  0  0  0
   -7.3560    8.7020  -11.2900 C   0  0  0  0  0  0  0  0  0  0  0  0
   -7.8242    6.0050   -5.3842 H   0  0  0  0  0  0  0  0  0  0  0  0
   -8.0835    4.5669   -6.4289 H   0  0  0  0  0  0  0  0  0  0  0  0
   -9.2820    5.9050   -6.4289 H   0  0  0  0  0  0  0  0  0  0  0  0
  -10.8411    6.4452   -6.1483 H   0  0  0  0  0  0  0  0  0  0  0  0
   -9.9565    3.7362   -0.7378 H   0  0  0  0  0  0  0  0  0  0  0  0
   -8.6243    3.4430   -1.9066 H   0  0  0  0  0  0  0  0  0  0  0  0
   -9.4889    5.0176   -1.9066 H   0  0  0  0  0  0  0  0  0  0  0  0
  -14.0916    4.4703   -0.3551 H   0  0  0  0  0  0  0  0  0  0  0  0
  -14.2804    5.6121   -1.7289 H   0  0  0  0  0  0  0  0  0  0  0  0
  -15.1707    4.0520   -1.7289 H   0  0  0  0  0  0  0  0  0  0  0  0
  -14.3262    5.7372   -3.7023 H   0  0  0  0  0  0  0  0  0  0  0  0
  -14.4810    6.8657   -5.6023 H   0  0  0  0  0  0  0  0  0  0  0  0
  -14.7041   10.3614   -8.3217 H   0  0  0  0  0  0  0  0  0  0  0  0
  -10.2863   10.8984   -8.0522 H   0  0  0  0  0  0  0  0  0  0  0  0
  -10.0762    9.7122   -4.8410 H   0  0  0  0  0  0  0  0  0  0  0  0
   -8.0057    8.8547   -3.7725 H   0  0  0  0  0  0  0  0  0  0  0  0
   -6.0210    8.2844   -5.1758 H   0  0  0  0  0  0  0  0  0  0  0  0
   -6.1273    8.5442   -7.6576 H   0  0  0  0  0  0  0  0  0  0  0  0
   -6.8253    7.9142   -9.3262 H   0  0  0  0  0  0  0  0  0  0  0  0
   -6.8887    9.6556  -11.5768 H   0  0  0  0  0  0  0  0  0  0  0  0
   -6.7647    7.8675  -11.6950 H   0  0  0  0  0  0  0  0  0  0  0  0
   -8.3778    8.6579  -11.6950 H   0  0  0  0  0  0  0  0  0  0  0  0
  1  2  1  0
  2  3  1  0
  3  4  2  0
  3  5  1  0
  4 12  1  0
  5  6  1  0
  5  8  2  0
  6  7  1  0
  8  9  1  0
  8 11  1  0
  9 10  1  0
 11 12  2  0
 12 13  1  0
 13 14  1  0
 14 15  2  0
 14 16  1  0
 15 19  1  0
 16 17  2  0
 17 18  1  0
 18 19  2  0
 19 20  1  0
 20 21  1  0
 21 22  2  0
 21 26  1  0
 22 23  1  0
 23 24  2  0
 24 25  1  0
 25 26  2  0
 26 27  1  0
 27 28  2  0
 27 29  1  0
 29 30  1  0
  1 31  1  0
  1 32  1  0
  1 33  1  0
  4 34  1  0
  7 35  1  0
  7 36  1  0
  7 37  1  0
 10 38  1  0
 10 39  1  0
 10 40  1  0
 11 41  1  0
 13 42  1  0
 17 43  1  0
 20 44  1  0
 22 45  1  0
 23 46  1  0
 24 47  1  0
 25 48  1  0
 29 49  1  0
 30 50  1  0
 30 51  1  0
 30 52  1  0
A    1
CAB
A    2
OAS
A    3
CBA
A    4
CAK
A    5
CBD
A    6
OAU
A    7
CAD
A    8
CBB
A    9
OAT
A   10
CAC
A   11
CAL
A   12
CAW
A   13
NAQ
A   14
CAX
A   15
NAO
A   16
NAM
A   17
CAH
A   18
NAN
A   19
CAY
A   20
NAR
A   21
CAZ
A   22
CAI
A   23
CAF
A   24
CAG
A   25
CAJ
A   26
CBC
A   27
CAV
A   28
OAE
A   29
NAP
A   30
CAA
M  END
