4C8K_BMR_A_1834
     RDKit          3D

 53 55  0  0  0  0  0  0  0  0999 V2000
   20.6270  -20.0610   -3.9230 C   0  0  0  0  0  0  0  0  0  0  0  0
   20.3370  -18.7270   -4.2200 C   0  0  0  0  0  0  0  0  0  0  0  0
   19.3800  -18.0350   -3.4870 C   0  0  0  0  0  0  0  0  0  0  0  0
   18.7010  -18.6710   -2.4530 C   0  0  0  0  0  0  0  0  0  0  0  0
   18.9840  -20.0000   -2.1560 C   0  0  0  0  0  0  0  0  0  0  0  0
   19.9450  -20.6900   -2.8920 C   0  0  0  0  0  0  0  0  0  0  0  0
   20.2470  -17.0840   -8.3060 P   0  0  0  0  0  0  0  0  0  0  0  0
   18.2310  -17.3690  -10.2680 P   0  0  0  0  0  0  0  0  0  0  0  0
   18.0180  -14.8440  -11.4910 P   0  0  0  0  0  0  0  0  0  0  0  0
   21.6480  -20.8160   -4.7000 C   0  0  0  0  0  0  0  0  0  0  0  0
   21.1380  -16.8840   -9.5120 O   0  0  0  0  0  0  0  0  0  0  0  0
   16.9340  -18.1330  -10.4090 O   0  0  0  0  0  0  0  0  0  0  0  0
   17.5750  -13.4910  -10.9880 O   0  0  0  0  0  0  0  0  0  0  0  0
   20.9800  -21.8990   -5.5370 C   0  0  0  0  0  0  0  0  0  0  0  0
   17.7430  -17.9750   -1.7220 C   0  0  0  0  0  0  0  0  0  0  0  0
   17.4700  -16.6460   -2.0280 C   0  0  0  0  0  0  0  0  0  0  0  0
   18.1530  -16.0100   -3.0620 C   0  0  0  0  0  0  0  0  0  0  0  0
   19.1070  -16.7070   -3.7930 C   0  0  0  0  0  0  0  0  0  0  0  0
   19.9990  -15.9330   -7.3630 O   0  0  0  0  0  0  0  0  0  0  0  0
   19.3320  -17.5750  -11.2840 O   0  0  0  0  0  0  0  0  0  0  0  0
   17.0930  -15.4740  -12.5090 O   0  0  0  0  0  0  0  0  0  0  0  0
   20.8710  -21.2770   -6.9130 C   0  0  0  0  0  0  0  0  0  0  0  0
   20.9020  -22.2690   -7.9410 O   0  0  0  0  0  0  0  0  0  0  0  0
   20.2210  -21.9970   -2.5880 O   0  0  0  0  0  0  0  0  0  0  0  0
   20.8900  -22.3160   -1.3680 C   0  0  0  0  0  0  0  0  0  0  0  0
   18.8260  -17.6720   -8.8000 O   0  0  0  0  0  0  0  0  0  0  0  0
   17.8870  -15.7940  -10.1930 O   0  0  0  0  0  0  0  0  0  0  0  0
   19.4870  -14.9180  -11.8440 O   0  0  0  0  0  0  0  0  0  0  0  0
   22.0710  -20.3490   -6.9770 C   0  0  0  0  0  0  0  0  0  0  0  0
   22.3310  -19.9550   -5.6230 O   0  0  0  0  0  0  0  0  0  0  0  0
   21.8590  -19.1550   -7.9050 C   0  0  0  0  0  0  0  0  0  0  0  0
   20.8050  -18.3170   -7.4280 O   0  0  0  0  0  0  0  0  0  0  0  0
   20.8693  -18.2212   -5.0390 H   0  0  0  0  0  0  0  0  0  0  0  0
   18.4487  -20.5067   -1.3395 H   0  0  0  0  0  0  0  0  0  0  0  0
   22.3518  -21.2458   -3.9721 H   0  0  0  0  0  0  0  0  0  0  0  0
   22.0584  -16.6774   -9.2116 H   0  0  0  0  0  0  0  0  0  0  0  0
   21.5979  -22.8086   -5.5661 H   0  0  0  0  0  0  0  0  0  0  0  0
   20.0053  -22.2087   -5.1320 H   0  0  0  0  0  0  0  0  0  0  0  0
   17.2030  -18.4747   -0.9042 H   0  0  0  0  0  0  0  0  0  0  0  0
   16.7121  -16.0953   -1.4515 H   0  0  0  0  0  0  0  0  0  0  0  0
   17.9374  -14.9578   -3.2994 H   0  0  0  0  0  0  0  0  0  0  0  0
   19.6454  -16.2086   -4.6126 H   0  0  0  0  0  0  0  0  0  0  0  0
   20.1886  -17.7353  -10.8144 H   0  0  0  0  0  0  0  0  0  0  0  0
   16.3721  -15.9650  -12.0406 H   0  0  0  0  0  0  0  0  0  0  0  0
   19.9207  -20.7461   -7.0713 H   0  0  0  0  0  0  0  0  0  0  0  0
   20.9301  -23.1693   -7.5301 H   0  0  0  0  0  0  0  0  0  0  0  0
   20.2618  -22.0164   -0.5162 H   0  0  0  0  0  0  0  0  0  0  0  0
   21.0753  -23.3994   -1.3239 H   0  0  0  0  0  0  0  0  0  0  0  0
   21.8484  -21.7780   -1.3239 H   0  0  0  0  0  0  0  0  0  0  0  0
   20.0250  -14.9451  -11.0134 H   0  0  0  0  0  0  0  0  0  0  0  0
   22.9376  -20.8652   -7.4158 H   0  0  0  0  0  0  0  0  0  0  0  0
   22.7889  -18.5696   -7.9562 H   0  0  0  0  0  0  0  0  0  0  0  0
   21.5846  -19.5302   -8.9020 H   0  0  0  0  0  0  0  0  0  0  0  0
  1  2  2  0
  1  6  1  0
  1 10  1  0
  2  3  1  0
  3  4  2  0
  3 18  1  0
  4  5  1  0
  4 15  1  0
  5  6  2  0
  6 24  1  0
  7 11  1  0
  7 19  2  0
  7 26  1  0
  7 32  1  0
  8 12  2  0
  8 20  1  0
  8 26  1  0
  8 27  1  0
  9 13  2  0
  9 21  1  0
  9 27  1  0
  9 28  1  0
 10 14  1  0
 10 30  1  0
 14 22  1  0
 15 16  2  0
 16 17  1  0
 17 18  2  0
 22 23  1  0
 22 29  1  0
 24 25  1  0
 29 30  1  0
 29 31  1  0
 31 32  1  0
  2 33  1  0
  5 34  1  0
 10 35  1  0
 11 36  1  0
 14 37  1  0
 14 38  1  0
 15 39  1  0
 16 40  1  0
 17 41  1  0
 18 42  1  0
 20 43  1  0
 21 44  1  0
 22 45  1  0
 23 46  1  0
 25 47  1  0
 25 48  1  0
 25 49  1  0
 28 50  1  0
 29 51  1  0
 31 52  1  0
 31 53  1  0
A    1
C1
A    2
C2
A    3
C3
A    4
C4
A    5
C5
A    6
C6
A    7
PA
A    8
PB
A    9
PC
A   10
C1'
A   11
O1A
A   12
O1B
A   13
O1C
A   14
C2'
A   15
C20
A   16
C21
A   17
C22
A   18
C23
A   19
O2A
A   20
O2B
A   21
O2C
A   22
C3'
A   23
O3'
A   24
O37
A   25
C38
A   26
O3A
A   27
O3B
A   28
O3C
A   29
C4'
A   30
O4'
A   31
C5'
A   32
O5'
M  END
