4C9X_VHS_A_1157
     RDKit          3D

 52 55  0  0  0  0  0  0  0  0999 V2000
  -12.8480  -13.9590   10.5830 Cl  0  0  0  0  0  0  0  0  0  0  0  0
  -14.3320  -13.1490   10.5750 C   0  0  0  0  0  0  0  0  0  0  0  0
  -14.6490  -12.4340    9.4210 C   0  0  0  0  0  0  0  0  0  0  0  0
  -13.8060  -12.4370    8.4070 F   0  0  0  0  0  0  0  0  0  0  0  0
  -15.8360  -11.7260    9.3230 C   0  0  0  0  0  0  0  0  0  0  0  0
  -16.7160  -11.7280   10.3850 C   0  0  0  0  0  0  0  0  0  0  0  0
  -16.4030  -12.4310   11.5430 C   0  0  0  0  0  0  0  0  0  0  0  0
  -17.5270  -12.3530   12.7580 Cl  0  0  0  0  0  0  0  0  0  0  0  0
  -15.2060  -13.1680   11.6720 C   0  0  0  0  0  0  0  0  0  0  0  0
  -14.9170  -13.8990   12.8830 C   0  0  0  0  0  0  0  0  0  0  0  0
  -13.8460  -13.2030   13.7290 C   0  0  0  0  0  0  0  0  0  0  0  0
  -14.4390  -15.2460   12.6430 O   0  0  0  0  0  0  0  0  0  0  0  0
  -15.2550  -16.1620   12.0530 C   0  0  0  0  0  0  0  0  0  0  0  0
  -16.5650  -15.9320   11.6040 C   0  0  0  0  0  0  0  0  0  0  0  0
  -14.6820  -17.4210   11.9070 C   0  0  0  0  0  0  0  0  0  0  0  0
  -13.4290  -17.6220   12.3560 N   0  0  0  0  0  0  0  0  0  0  0  0
  -15.3980  -18.3870   11.3500 N   0  0  0  0  0  0  0  0  0  0  0  0
  -16.7100  -18.1870   10.8800 C   0  0  0  0  0  0  0  0  0  0  0  0
  -17.3290  -16.9370   11.0090 C   0  0  0  0  0  0  0  0  0  0  0  0
  -18.6050  -16.6900   10.5850 C   0  0  0  0  0  0  0  0  0  0  0  0
  -19.1080  -15.5450   10.1110 C   0  0  0  0  0  0  0  0  0  0  0  0
  -19.6110  -17.5560   10.5800 C   0  0  0  0  0  0  0  0  0  0  0  0
  -20.6920  -16.9280   10.1060 N   0  0  0  0  0  0  0  0  0  0  0  0
  -20.4060  -15.7590    9.8280 N   0  0  0  0  0  0  0  0  0  0  0  0
  -21.4570  -14.8430    9.2670 C   0  0  0  0  0  0  0  0  0  0  0  0
  -21.8350  -15.2970    7.9270 C   0  0  0  0  0  0  0  0  0  0  0  0
  -22.9780  -14.4100    7.5050 C   0  0  0  0  0  0  0  0  0  0  0  0
  -22.5050  -13.0360    7.3110 N   0  0  0  0  0  0  0  0  0  0  0  0
  -22.0600  -12.5050    8.6080 C   0  0  0  0  0  0  0  0  0  0  0  0
  -20.9730  -13.4010    9.2040 C   0  0  0  0  0  0  0  0  0  0  0  0
  -16.0745  -11.1671    8.4061 H   0  0  0  0  0  0  0  0  0  0  0  0
  -17.6640  -11.1743   10.3160 H   0  0  0  0  0  0  0  0  0  0  0  0
  -15.8821  -13.9353   13.4096 H   0  0  0  0  0  0  0  0  0  0  0  0
  -14.0699  -13.3485   14.7961 H   0  0  0  0  0  0  0  0  0  0  0  0
  -12.8602  -13.6335   13.4992 H   0  0  0  0  0  0  0  0  0  0  0  0
  -13.8390  -12.1273   13.4992 H   0  0  0  0  0  0  0  0  0  0  0  0
  -17.0023  -14.9299   11.7247 H   0  0  0  0  0  0  0  0  0  0  0  0
  -13.2434  -17.6518   13.3687 H   0  0  0  0  0  0  0  0  0  0  0  0
  -12.6558  -17.7460   11.6869 H   0  0  0  0  0  0  0  0  0  0  0  0
  -17.2532  -19.0188   10.4078 H   0  0  0  0  0  0  0  0  0  0  0  0
  -18.5604  -14.6004    9.9769 H   0  0  0  0  0  0  0  0  0  0  0  0
  -19.5637  -18.6049   10.9079 H   0  0  0  0  0  0  0  0  0  0  0  0
  -22.3290  -14.8748    9.9368 H   0  0  0  0  0  0  0  0  0  0  0  0
  -20.9889  -15.1893    7.2324 H   0  0  0  0  0  0  0  0  0  0  0  0
  -22.1216  -16.3590    7.9232 H   0  0  0  0  0  0  0  0  0  0  0  0
  -23.4009  -14.7857    6.5616 H   0  0  0  0  0  0  0  0  0  0  0  0
  -23.7484  -14.4179    8.2901 H   0  0  0  0  0  0  0  0  0  0  0  0
  -21.7187  -13.0305    6.6457 H   0  0  0  0  0  0  0  0  0  0  0  0
  -21.6572  -11.4913    8.4661 H   0  0  0  0  0  0  0  0  0  0  0  0
  -22.9176  -12.4769    9.2963 H   0  0  0  0  0  0  0  0  0  0  0  0
  -20.7322  -13.0538   10.2196 H   0  0  0  0  0  0  0  0  0  0  0  0
  -20.0771  -13.3504    8.5678 H   0  0  0  0  0  0  0  0  0  0  0  0
  1  2  1  0
  2  3  2  0
  2  9  1  0
  3  4  1  0
  3  5  1  0
  5  6  2  0
  6  7  1  0
  7  8  1  0
  7  9  2  0
  9 10  1  0
 10 11  1  0
 10 12  1  0
 12 13  1  0
 13 14  2  0
 13 15  1  0
 14 19  1  0
 15 16  1  0
 15 17  2  0
 17 18  1  0
 18 19  2  0
 19 20  1  0
 20 21  2  0
 20 22  1  0
 21 24  1  0
 22 23  2  0
 23 24  1  0
 24 25  1  0
 25 26  1  0
 25 30  1  0
 26 27  1  0
 27 28  1  0
 28 29  1  0
 29 30  1  0
  5 31  1  0
  6 32  1  0
 10 33  1  0
 11 34  1  0
 11 35  1  0
 11 36  1  0
 14 37  1  0
 16 38  1  0
 16 39  1  0
 18 40  1  0
 21 41  1  0
 22 42  1  0
 25 43  1  0
 26 44  1  0
 26 45  1  0
 27 46  1  0
 27 47  1  0
 28 48  1  0
 29 49  1  0
 29 50  1  0
 30 51  1  0
 30 52  1  0
A    1
CL2
A    2
C18
A    3
C12
A    4
F
A    5
C2
A    6
C3
A    7
C13
A    8
CL
A    9
C17
A   10
C21
A   11
C1
A   12
O27
A   13
C15
A   14
C4
A   15
C19
A   16
N22
A   17
N23
A   18
C5
A   19
C14
A   20
C16
A   21
C7
A   22
C6
A   23
N24
A   24
N26
A   25
C20
A   26
C8
A   27
C10
A   28
N25
A   29
C11
A   30
C9
M  END
