4CAQ_M68_A_800
     RDKit          3D

 43 45  0  0  0  0  0  0  0  0999 V2000
    0.0400    3.4890   28.2800 Cl  0  0  0  0  0  0  0  0  0  0  0  0
    1.6960    4.1740   28.3200 C   0  0  0  0  0  0  0  0  0  0  0  0
    1.9230    5.4520   28.8430 C   0  0  0  0  0  0  0  0  0  0  0  0
    3.2220    5.9650   28.8650 C   0  0  0  0  0  0  0  0  0  0  0  0
    4.2790    5.1930   28.3650 C   0  0  0  0  0  0  0  0  0  0  0  0
    2.7510    3.4070   27.8170 C   0  0  0  0  0  0  0  0  0  0  0  0
    4.0490    3.9130   27.8350 C   0  0  0  0  0  0  0  0  0  0  0  0
    5.1810    3.0640   27.2950 C   0  0  0  0  0  0  0  0  0  0  0  0
    5.6510    3.5930   25.9440 C   0  0  0  0  0  0  0  0  0  0  0  0
    6.3320    2.5670   25.1760 N   0  0  0  0  0  0  0  0  0  0  0  0
    7.5520    2.8490   24.4440 C   0  0  0  0  0  0  0  0  0  0  0  0
    8.7500    2.8940   25.3760 C   0  0  0  0  0  0  0  0  0  0  0  0
   10.0860    2.8090   24.6740 C   0  0  0  0  0  0  0  0  0  0  0  0
   10.5600    3.9020   23.9450 C   0  0  0  0  0  0  0  0  0  0  0  0
   11.8070    3.8500   23.3080 C   0  0  0  0  0  0  0  0  0  0  0  0
   10.8880    1.6680   24.7710 C   0  0  0  0  0  0  0  0  0  0  0  0
   12.1660    1.6310   24.1480 C   0  0  0  0  0  0  0  0  0  0  0  0
   12.9530    0.5250   24.2400 N   0  0  0  0  0  0  0  0  0  0  0  0
   12.6210    2.7150   23.4020 C   0  0  0  0  0  0  0  0  0  0  0  0
   13.8600    2.6540   22.7580 C   0  0  0  0  0  0  0  0  0  0  0  0
   14.6560    1.4940   22.8670 C   0  0  0  0  0  0  0  0  0  0  0  0
   14.1710    0.4320   23.6480 C   0  0  0  0  0  0  0  0  0  0  0  0
   14.8640   -0.7150   23.8230 N   0  0  0  0  0  0  0  0  0  0  0  0
    1.0850    6.0479   29.2337 H   0  0  0  0  0  0  0  0  0  0  0  0
    3.4139    6.9686   29.2723 H   0  0  0  0  0  0  0  0  0  0  0  0
    5.3027    5.5949   28.3879 H   0  0  0  0  0  0  0  0  0  0  0  0
    2.5565    2.4048   27.4073 H   0  0  0  0  0  0  0  0  0  0  0  0
    6.0211    3.0877   28.0047 H   0  0  0  0  0  0  0  0  0  0  0  0
    4.8208    2.0327   27.1663 H   0  0  0  0  0  0  0  0  0  0  0  0
    4.7777    3.9444   25.3748 H   0  0  0  0  0  0  0  0  0  0  0  0
    6.3594    4.4151   26.1240 H   0  0  0  0  0  0  0  0  0  0  0  0
    6.5592    1.8117   25.8384 H   0  0  0  0  0  0  0  0  0  0  0  0
    7.7105    2.0613   23.6927 H   0  0  0  0  0  0  0  0  0  0  0  0
    7.4495    3.8308   23.9586 H   0  0  0  0  0  0  0  0  0  0  0  0
    8.7149    3.8394   25.9372 H   0  0  0  0  0  0  0  0  0  0  0  0
    8.6779    2.0092   26.0256 H   0  0  0  0  0  0  0  0  0  0  0  0
    9.9481    4.8130   23.8701 H   0  0  0  0  0  0  0  0  0  0  0  0
   12.1522    4.7159   22.7240 H   0  0  0  0  0  0  0  0  0  0  0  0
   10.5283    0.7933   25.3327 H   0  0  0  0  0  0  0  0  0  0  0  0
   14.2147    3.5106   22.1660 H   0  0  0  0  0  0  0  0  0  0  0  0
   15.6273    1.4235   22.3556 H   0  0  0  0  0  0  0  0  0  0  0  0
   15.0683   -1.0532   24.7742 H   0  0  0  0  0  0  0  0  0  0  0  0
   15.1878   -1.2509   23.0052 H   0  0  0  0  0  0  0  0  0  0  0  0
  1  2  1  0
  2  3  2  0
  2  6  1  0
  3  4  1  0
  4  5  2  0
  5  7  1  0
  6  7  2  0
  7  8  1  0
  8  9  1  0
  9 10  1  0
 10 11  1  0
 11 12  1  0
 12 13  1  0
 13 14  2  0
 13 16  1  0
 14 15  1  0
 15 19  2  0
 16 17  2  0
 17 18  1  0
 17 19  1  0
 18 22  2  0
 19 20  1  0
 20 21  2  0
 21 22  1  0
 22 23  1  0
  3 24  1  0
  4 25  1  0
  5 26  1  0
  6 27  1  0
  8 28  1  0
  8 29  1  0
  9 30  1  0
  9 31  1  0
 10 32  1  0
 11 33  1  0
 11 34  1  0
 12 35  1  0
 12 36  1  0
 14 37  1  0
 15 38  1  0
 16 39  1  0
 20 40  1  0
 21 41  1  0
 23 42  1  0
 23 43  1  0
A    1
CL
A    2
C23
A    3
C24
A    4
C25
A    5
C26
A    6
C22
A    7
C21
A    8
C15
A    9
C14
A   10
N13
A   11
C12
A   12
C11
A   13
C08
A   14
C07
A   15
C06
A   16
C09
A   17
C10
A   18
N01
A   19
C05
A   20
C04
A   21
C03
A   22
C02
A   23
N02
M  END
