4CCB_OFG_A_2401
     RDKit          3D

 46 49  0  0  0  0  0  0  0  0999 V2000
   34.5150   47.0040    8.8730 C   0  0  0  0  0  0  0  0  0  0  0  0
   34.8580   46.8530   10.2390 C   0  0  0  0  0  0  0  0  0  0  0  0
   29.7690   45.9020    8.5400 C   0  0  0  0  0  0  0  0  0  0  0  0
   33.4440   44.8490   10.3740 C   0  0  0  0  0  0  0  0  0  0  0  0
   32.6480   47.2690    5.1330 C   0  0  0  0  0  0  0  0  0  0  0  0
   33.2090   46.0410    4.7920 C   0  0  0  0  0  0  0  0  0  0  0  0
   27.6430   46.3340    9.5490 C   0  0  0  0  0  0  0  0  0  0  0  0
   29.6950   48.8620    7.4930 C   0  0  0  0  0  0  0  0  0  0  0  0
   28.6500   46.7740    8.6650 C   0  0  0  0  0  0  0  0  0  0  0  0
   28.6000   48.0460    7.9060 C   0  0  0  0  0  0  0  0  0  0  0  0
   33.0690   44.9690    8.9870 C   0  0  0  0  0  0  0  0  0  0  0  0
   33.6260   46.0730    8.2390 C   0  0  0  0  0  0  0  0  0  0  0  0
   29.8700   44.6690    9.2600 C   0  0  0  0  0  0  0  0  0  0  0  0
   34.3220   45.7810   10.9770 C   0  0  0  0  0  0  0  0  0  0  0  0
   27.4850   48.7530    7.4190 C   0  0  0  0  0  0  0  0  0  0  0  0
   28.7890   44.3350   10.1190 C   0  0  0  0  0  0  0  0  0  0  0  0
   26.0080   48.5550    7.4460 C   0  0  0  0  0  0  0  0  0  0  0  0
   32.7660   42.5460    8.2900 C   0  0  0  0  0  0  0  0  0  0  0  0
   32.1010   43.9250    8.3960 C   0  0  0  0  0  0  0  0  0  0  0  0
   27.6950   45.1570   10.2590 N   0  0  0  0  0  0  0  0  0  0  0  0
   32.7220   47.4510    6.4480 N   0  0  0  0  0  0  0  0  0  0  0  0
   33.6510   45.4230    5.8880 N   0  0  0  0  0  0  0  0  0  0  0  0
   29.3290   49.9560    6.8240 N   0  0  0  0  0  0  0  0  0  0  0  0
   27.9980   49.8610    6.7970 N   0  0  0  0  0  0  0  0  0  0  0  0
   33.3370   46.3070    6.8630 N   0  0  0  0  0  0  0  0  0  0  0  0
   28.8240   43.1330   10.8590 N   0  0  0  0  0  0  0  0  0  0  0  0
   30.9110   43.7450    9.2210 O   0  0  0  0  0  0  0  0  0  0  0  0
   34.6480   45.6430   12.2650 F   0  0  0  0  0  0  0  0  0  0  0  0
   34.9330   47.8408    8.2942 H   0  0  0  0  0  0  0  0  0  0  0  0
   35.5396   47.5697   10.7205 H   0  0  0  0  0  0  0  0  0  0  0  0
   30.5881   46.1873    7.8634 H   0  0  0  0  0  0  0  0  0  0  0  0
   33.0410   44.0194   10.9734 H   0  0  0  0  0  0  0  0  0  0  0  0
   32.2088   47.9825    4.4203 H   0  0  0  0  0  0  0  0  0  0  0  0
   33.2775   45.6401    3.7700 H   0  0  0  0  0  0  0  0  0  0  0  0
   26.7579   46.9741    9.6792 H   0  0  0  0  0  0  0  0  0  0  0  0
   30.7446   48.6118    7.7067 H   0  0  0  0  0  0  0  0  0  0  0  0
   25.6633   48.5088    8.4896 H   0  0  0  0  0  0  0  0  0  0  0  0
   25.5160   49.3952    6.9342 H   0  0  0  0  0  0  0  0  0  0  0  0
   25.7547   47.6149    6.9342 H   0  0  0  0  0  0  0  0  0  0  0  0
   32.9560   42.1520    9.2993 H   0  0  0  0  0  0  0  0  0  0  0  0
   32.1003   41.8587    7.7474 H   0  0  0  0  0  0  0  0  0  0  0  0
   33.7183   42.6389    7.7474 H   0  0  0  0  0  0  0  0  0  0  0  0
   31.8241   44.3134    7.4048 H   0  0  0  0  0  0  0  0  0  0  0  0
   29.9272   50.6938    6.4256 H   0  0  0  0  0  0  0  0  0  0  0  0
   28.8232   43.1619   11.8886 H   0  0  0  0  0  0  0  0  0  0  0  0
   28.8504   42.2273   10.3692 H   0  0  0  0  0  0  0  0  0  0  0  0
  1  2  2  0
  1 12  1  0
  2 14  1  0
  3  9  2  0
  3 13  1  0
  4 11  1  0
  4 14  2  0
  5  6  1  0
  5 21  2  0
  6 22  2  0
  7  9  1  0
  7 20  2  0
  8 10  2  0
  8 23  1  0
  9 10  1  0
 10 15  1  0
 11 12  2  0
 11 19  1  0
 12 25  1  0
 13 16  2  0
 13 27  1  0
 14 28  1  0
 15 17  1  0
 15 24  2  0
 16 20  1  0
 16 26  1  0
 18 19  1  0
 19 27  1  0
 21 25  1  0
 22 25  1  0
 23 24  1  0
  1 29  1  0
  2 30  1  0
  3 31  1  0
  4 32  1  0
  5 33  1  0
  6 34  1  0
  7 35  1  0
  8 36  1  0
 17 37  1  0
 17 38  1  0
 17 39  1  0
 18 40  1  0
 18 41  1  0
 18 42  1  0
 19 43  1  0
 23 44  1  0
 26 45  1  0
 26 46  1  0
A    1
C13
A    2
C14
A    3
C6
A    4
C16
A    5
C26
A    6
C27
A    7
C4
A    8
C19
A    9
C5
A   10
C18
A   11
C10
A   12
C12
A   13
C1
A   14
C15
A   15
C22
A   16
C2
A   17
C23
A   18
C11
A   19
C9
A   20
N3
A   21
N25
A   22
N28
A   23
N20
A   24
N21
A   25
N24
A   26
N8
A   27
O7
A   28
F17
M  END
