4CD1_8E9_A_1452
     RDKit          3D

 45 48  0  0  0  0  0  0  0  0999 V2000
   28.1120   34.5550   26.0360 O   0  0  0  0  0  0  0  0  0  0  0  0
   29.1500   35.0860   25.6370 C   0  0  0  0  0  0  0  0  0  0  0  0
   29.1640   35.8640   24.3420 C   0  0  0  0  0  0  0  0  0  0  0  0
   28.0100   35.9830   23.5440 C   0  0  0  0  0  0  0  0  0  0  0  0
   28.0970   36.6940   22.3380 C   0  0  0  0  0  0  0  0  0  0  0  0
   29.3010   37.2780   21.8900 C   0  0  0  0  0  0  0  0  0  0  0  0
   30.4620   37.1830   22.6530 C   0  0  0  0  0  0  0  0  0  0  0  0
   30.4340   36.4810   23.8790 C   0  0  0  0  0  0  0  0  0  0  0  0
   31.6580   36.3350   24.7160 C   0  0  0  0  0  0  0  0  0  0  0  0
   32.7260   36.8540   24.3630 O   0  0  0  0  0  0  0  0  0  0  0  0
   30.3710   34.9550   26.4850 C   0  0  0  0  0  0  0  0  0  0  0  0
   31.6220   35.5900   26.0060 C   0  0  0  0  0  0  0  0  0  0  0  0
   32.8190   35.4580   26.8600 C   0  0  0  0  0  0  0  0  0  0  0  0
   34.0070   35.9600   26.4810 N   0  0  0  0  0  0  0  0  0  0  0  0
   30.3470   34.1950   27.7910 C   0  0  0  0  0  0  0  0  0  0  0  0
   31.5210   34.1090   28.5400 C   0  0  0  0  0  0  0  0  0  0  0  0
   32.7570   34.6710   28.1400 C   0  0  0  0  0  0  0  0  0  0  0  0
   34.1080   34.5660   29.0680 S   0  0  0  0  0  0  0  0  0  0  0  0
   35.1870   33.8230   28.4050 O   0  0  0  0  0  0  0  0  0  0  0  0
   33.6960   33.8710   30.3600 O   0  0  0  0  0  0  0  0  0  0  0  0
   34.5820   35.9090   29.4110 O   0  0  0  0  0  0  0  0  0  0  0  0
   29.1430   33.6470   28.1270 N   0  0  0  0  0  0  0  0  0  0  0  0
   28.9350   32.8450   29.2150 C   0  0  0  0  0  0  0  0  0  0  0  0
   27.7360   33.0250   29.9240 C   0  0  0  0  0  0  0  0  0  0  0  0
   27.3770   32.2560   31.0580 C   0  0  0  0  0  0  0  0  0  0  0  0
   28.3080   31.3160   31.4550 C   0  0  0  0  0  0  0  0  0  0  0  0
   29.4880   31.1310   30.7770 C   0  0  0  0  0  0  0  0  0  0  0  0
   30.4260   30.1010   31.2730 C   0  0  0  0  0  0  0  0  0  0  0  0
   29.8430   31.8580   29.6180 C   0  0  0  0  0  0  0  0  0  0  0  0
   27.0598   35.5277   23.8599 H   0  0  0  0  0  0  0  0  0  0  0  0
   27.1939   36.8002   21.7190 H   0  0  0  0  0  0  0  0  0  0  0  0
   29.3226   37.8132   20.9292 H   0  0  0  0  0  0  0  0  0  0  0  0
   31.3942   37.6511   22.3038 H   0  0  0  0  0  0  0  0  0  0  0  0
   34.6938   36.2502   27.1916 H   0  0  0  0  0  0  0  0  0  0  0  0
   34.2305   36.0544   25.4800 H   0  0  0  0  0  0  0  0  0  0  0  0
   31.4838   33.5720   29.4993 H   0  0  0  0  0  0  0  0  0  0  0  0
   34.0103   34.4013   31.1347 H   0  0  0  0  0  0  0  0  0  0  0  0
   28.3364   33.8513   27.5200 H   0  0  0  0  0  0  0  0  0  0  0  0
   27.0393   33.8039   29.5806 H   0  0  0  0  0  0  0  0  0  0  0  0
   26.4225   32.3976   31.5861 H   0  0  0  0  0  0  0  0  0  0  0  0
   28.0982   30.6975   32.3401 H   0  0  0  0  0  0  0  0  0  0  0  0
   30.4244   30.1028   32.3730 H   0  0  0  0  0  0  0  0  0  0  0  0
   30.1116   29.1123   30.9075 H   0  0  0  0  0  0  0  0  0  0  0  0
   31.4397   30.3217   30.9075 H   0  0  0  0  0  0  0  0  0  0  0  0
   30.7744   31.6608   29.0670 H   0  0  0  0  0  0  0  0  0  0  0  0
  1  2  2  0
  2  3  1  0
  2 11  1  0
  3  4  1  0
  3  8  2  0
  4  5  2  0
  5  6  1  0
  6  7  2  0
  7  8  1  0
  8  9  1  0
  9 10  2  0
  9 12  1  0
 11 12  2  0
 11 15  1  0
 12 13  1  0
 13 14  1  0
 13 17  2  0
 15 16  2  0
 15 22  1  0
 16 17  1  0
 17 18  1  0
 18 19  2  0
 18 20  1  0
 18 21  2  0
 22 23  1  0
 23 24  2  0
 23 29  1  0
 24 25  1  0
 25 26  2  0
 26 27  1  0
 27 28  1  0
 27 29  2  0
  4 30  1  0
  5 31  1  0
  6 32  1  0
  7 33  1  0
 14 34  1  0
 14 35  1  0
 16 36  1  0
 20 37  1  0
 22 38  1  0
 24 39  1  0
 25 40  1  0
 26 41  1  0
 28 42  1  0
 28 43  1  0
 28 44  1  0
 29 45  1  0
A    1
O16
A    2
C10
A    3
C14
A    4
C5
A    5
C6
A    6
C7
A    7
C8
A    8
C13
A    9
C9
A   10
O9
A   11
C11
A   12
C12
A   13
C1
A   14
N1
A   15
C4
A   16
C3
A   17
C2
A   18
S2
A   19
OS2
A   20
OS1
A   21
OS3
A   22
N4
A   23
C1'
A   24
C6'
A   25
C5'
A   26
C4'
A   27
C3'
A   28
C7'
A   29
C2'
M  END
