4CE1_7FK_A_1215
     RDKit          3D

 52 53  0  0  0  0  0  0  0  0999 V2000
   19.8830   -1.9180   -6.1750 O   0  0  0  0  0  0  0  0  0  0  0  0
   18.9630   -2.7070   -6.0140 C   0  0  0  0  0  0  0  0  0  0  0  0
   17.9460   -2.8520   -6.8860 N   0  0  0  0  0  0  0  0  0  0  0  0
   16.9460   -3.9220   -6.7610 C   0  0  0  0  0  0  0  0  0  0  0  0
   19.0060   -3.5920   -4.7950 C   0  0  0  0  0  0  0  0  0  0  0  0
   19.9400   -4.6660   -4.7570 C   0  0  0  0  0  0  0  0  0  0  0  0
   20.7510   -4.8690   -5.7990 O   0  0  0  0  0  0  0  0  0  0  0  0
   19.9990   -5.5180   -3.6690 C   0  0  0  0  0  0  0  0  0  0  0  0
   19.1500   -5.3140   -2.5960 C   0  0  0  0  0  0  0  0  0  0  0  0
   19.1190   -6.1560   -1.5350 O   0  0  0  0  0  0  0  0  0  0  0  0
   18.2580   -4.2200   -2.6520 C   0  0  0  0  0  0  0  0  0  0  0  0
   17.3230   -3.9730   -1.2430 Cl  0  0  0  0  0  0  0  0  0  0  0  0
   18.1240   -3.3460   -3.7240 C   0  0  0  0  0  0  0  0  0  0  0  0
   17.1160   -2.2100   -3.7550 C   0  0  0  0  0  0  0  0  0  0  0  0
   15.6760   -2.6260   -3.5330 C   0  0  0  0  0  0  0  0  0  0  0  0
   15.2630   -3.6740   -3.9720 O   0  0  0  0  0  0  0  0  0  0  0  0
   14.7950   -1.7110   -2.7250 C   0  0  0  0  0  0  0  0  0  0  0  0
   13.3100   -2.0370   -2.7370 C   0  0  0  0  0  0  0  0  0  0  0  0
   12.5790   -1.1470   -3.6910 C   0  0  0  0  0  0  0  0  0  0  0  0
   12.9500   -1.4330   -5.1370 C   0  0  0  0  0  0  0  0  0  0  0  0
   12.4950   -0.4060   -6.1570 C   0  0  0  0  0  0  0  0  0  0  0  0
   12.8930   -0.8180   -7.5780 C   0  0  0  0  0  0  0  0  0  0  0  0
   14.3220   -0.4340   -7.8830 C   0  0  0  0  0  0  0  0  0  0  0  0
   15.4070   -1.0410   -7.4100 C   0  0  0  0  0  0  0  0  0  0  0  0
   16.8540   -0.6740   -7.6690 C   0  0  0  0  0  0  0  0  0  0  0  0
   17.7480   -1.8840   -7.9650 C   0  0  0  0  0  0  0  0  0  0  0  0
   16.7568   -4.1245   -5.6965 H   0  0  0  0  0  0  0  0  0  0  0  0
   16.0102   -3.6079   -7.2465 H   0  0  0  0  0  0  0  0  0  0  0  0
   17.3226   -4.8344   -7.2465 H   0  0  0  0  0  0  0  0  0  0  0  0
   21.7002   -5.1066   -5.6486 H   0  0  0  0  0  0  0  0  0  0  0  0
   20.7161   -6.3521   -3.6570 H   0  0  0  0  0  0  0  0  0  0  0  0
   19.1324   -5.7927   -0.6142 H   0  0  0  0  0  0  0  0  0  0  0  0
   17.3885   -1.4904   -2.9689 H   0  0  0  0  0  0  0  0  0  0  0  0
   17.1610   -1.7864   -4.7692 H   0  0  0  0  0  0  0  0  0  0  0  0
   15.1394   -1.7470   -1.6809 H   0  0  0  0  0  0  0  0  0  0  0  0
   14.8858   -0.7201   -3.1939 H   0  0  0  0  0  0  0  0  0  0  0  0
   13.1731   -3.0844   -3.0438 H   0  0  0  0  0  0  0  0  0  0  0  0
   12.9058   -1.8783   -1.7263 H   0  0  0  0  0  0  0  0  0  0  0  0
   11.4975   -1.3034   -3.5645 H   0  0  0  0  0  0  0  0  0  0  0  0
   12.8602   -0.1072   -3.4680 H   0  0  0  0  0  0  0  0  0  0  0  0
   14.0462   -1.5024   -5.1956 H   0  0  0  0  0  0  0  0  0  0  0  0
   12.4249   -2.3634   -5.3990 H   0  0  0  0  0  0  0  0  0  0  0  0
   11.4004   -0.3101   -6.1051 H   0  0  0  0  0  0  0  0  0  0  0  0
   12.9813    0.5529   -5.9247 H   0  0  0  0  0  0  0  0  0  0  0  0
   12.7862   -1.9082   -7.6778 H   0  0  0  0  0  0  0  0  0  0  0  0
   12.2348   -0.2950   -8.2874 H   0  0  0  0  0  0  0  0  0  0  0  0
   14.4789    0.4226   -8.5551 H   0  0  0  0  0  0  0  0  0  0  0  0
   15.2339   -1.9085   -6.7561 H   0  0  0  0  0  0  0  0  0  0  0  0
   16.8915    0.0062   -8.5326 H   0  0  0  0  0  0  0  0  0  0  0  0
   17.2381   -0.2045   -6.7514 H   0  0  0  0  0  0  0  0  0  0  0  0
   18.7386   -1.5008   -8.2510 H   0  0  0  0  0  0  0  0  0  0  0  0
   17.2173   -2.4417   -8.7508 H   0  0  0  0  0  0  0  0  0  0  0  0
  1  2  2  0
  2  3  1  0
  2  5  1  0
  3  4  1  0
  3 26  1  0
  5  6  2  0
  5 13  1  0
  6  7  1  0
  6  8  1  0
  8  9  2  0
  9 10  1  0
  9 11  1  0
 11 12  1  0
 11 13  2  0
 13 14  1  0
 14 15  1  0
 15 16  2  0
 15 17  1  0
 17 18  1  0
 18 19  1  0
 19 20  1  0
 20 21  1  0
 21 22  1  0
 22 23  1  0
 23 24  2  0
 24 25  1  0
 25 26  1  0
  4 27  1  0
  4 28  1  0
  4 29  1  0
  7 30  1  0
  8 31  1  0
 10 32  1  0
 14 33  1  0
 14 34  1  0
 17 35  1  0
 17 36  1  0
 18 37  1  0
 18 38  1  0
 19 39  1  0
 19 40  1  0
 20 41  1  0
 20 42  1  0
 21 43  1  0
 21 44  1  0
 22 45  1  0
 22 46  1  0
 23 47  1  0
 24 48  1  0
 25 49  1  0
 25 50  1  0
 26 51  1  0
 26 52  1  0
A    1
O3
A    2
C19
A    3
N
A    4
C
A    5
C18
A    6
C17
A    7
O2
A    8
C16
A    9
C15
A   10
O1
A   11
C14
A   12
CL
A   13
C13
A   14
C12
A   15
C11
A   16
O
A   17
C10
A   18
C9
A   19
C8
A   20
C7
A   21
C6
A   22
C5
A   23
C4
A   24
C3
A   25
C2
A   26
C1
M  END
