4CED_9NS_B_1215
     RDKit          3D

 69 72  0  0  0  0  0  0  0  0999 V2000
   10.2540    6.8280   -5.2230 C   0  0  0  0  0  0  0  0  0  0  0  0
   11.0720    7.7080   -4.5440 C   0  0  0  0  0  0  0  0  0  0  0  0
    8.3500    2.0960    1.1260 C   0  0  0  0  0  0  0  0  0  0  0  0
    9.3220    6.0730   -4.5410 C   0  0  0  0  0  0  0  0  0  0  0  0
   10.9540    7.8240   -3.1750 C   0  0  0  0  0  0  0  0  0  0  0  0
   11.5610    4.1090    1.9480 C   0  0  0  0  0  0  0  0  0  0  0  0
   12.4490    3.6550    2.9080 C   0  0  0  0  0  0  0  0  0  0  0  0
    7.8790    3.1100    0.2480 C   0  0  0  0  0  0  0  0  0  0  0  0
    8.4710    0.9470    0.3740 C   0  0  0  0  0  0  0  0  0  0  0  0
    9.2070    6.1870   -3.1710 C   0  0  0  0  0  0  0  0  0  0  0  0
   13.3780    4.5830    0.4370 C   0  0  0  0  0  0  0  0  0  0  0  0
   10.0280    7.0710   -2.4870 C   0  0  0  0  0  0  0  0  0  0  0  0
   12.0150    4.5660    0.7220 C   0  0  0  0  0  0  0  0  0  0  0  0
   13.7960    3.6860    2.6350 C   0  0  0  0  0  0  0  0  0  0  0  0
   14.2640    4.1290    1.4110 C   0  0  0  0  0  0  0  0  0  0  0  0
    7.7400    2.5090   -0.9830 C   0  0  0  0  0  0  0  0  0  0  0  0
    9.6240    8.3660    2.3850 C   0  0  0  0  0  0  0  0  0  0  0  0
   10.5440    8.4090    1.4190 C   0  0  0  0  0  0  0  0  0  0  0  0
    8.1960    5.3450   -2.4760 C   0  0  0  0  0  0  0  0  0  0  0  0
   13.8810    5.0310   -0.8950 C   0  0  0  0  0  0  0  0  0  0  0  0
   16.7520    4.5980    6.3150 C   0  0  0  0  0  0  0  0  0  0  0  0
   16.4030    3.4150    2.0870 C   0  0  0  0  0  0  0  0  0  0  0  0
   15.9550    3.7560    3.4830 C   0  0  0  0  0  0  0  0  0  0  0  0
    9.9610    7.2480   -1.0120 C   0  0  0  0  0  0  0  0  0  0  0  0
   10.9950    5.0570   -0.2620 C   0  0  0  0  0  0  0  0  0  0  0  0
    7.2900    3.0290   -2.2960 C   0  0  0  0  0  0  0  0  0  0  0  0
   11.4030    7.2640    1.0210 C   0  0  0  0  0  0  0  0  0  0  0  0
   16.4300    3.1770    5.8990 C   0  0  0  0  0  0  0  0  0  0  0  0
   16.9070    3.0840    4.4610 C   0  0  0  0  0  0  0  0  0  0  0  0
    8.2480    3.9980   -2.7830 N   0  0  0  0  0  0  0  0  0  0  0  0
   11.0780    6.5750   -0.2880 N   0  0  0  0  0  0  0  0  0  0  0  0
   14.7710    4.2720   -1.3980 O   0  0  0  0  0  0  0  0  0  0  0  0
   15.8510    5.1790    6.9930 O   0  0  0  0  0  0  0  0  0  0  0  0
    7.4120    5.8500   -1.6920 O   0  0  0  0  0  0  0  0  0  0  0  0
   13.3850    6.0240   -1.4880 O   0  0  0  0  0  0  0  0  0  0  0  0
   17.8830    5.0330    5.9700 O   0  0  0  0  0  0  0  0  0  0  0  0
    8.0970    1.1930   -0.9120 O   0  0  0  0  0  0  0  0  0  0  0  0
   15.6350    4.1680    1.1520 O   0  0  0  0  0  0  0  0  0  0  0  0
   14.6380    3.2370    3.6360 O   0  0  0  0  0  0  0  0  0  0  0  0
   10.3456    6.7279   -6.3146 H   0  0  0  0  0  0  0  0  0  0  0  0
   11.8118    8.3117   -5.0902 H   0  0  0  0  0  0  0  0  0  0  0  0
    8.5743    2.2067    2.1972 H   0  0  0  0  0  0  0  0  0  0  0  0
    8.6694    5.3788   -5.0908 H   0  0  0  0  0  0  0  0  0  0  0  0
   11.6041    8.5229   -2.6283 H   0  0  0  0  0  0  0  0  0  0  0  0
   10.4819    4.1068    2.1615 H   0  0  0  0  0  0  0  0  0  0  0  0
   12.0828    3.2757    3.8734 H   0  0  0  0  0  0  0  0  0  0  0  0
    7.6687    4.1598    0.5004 H   0  0  0  0  0  0  0  0  0  0  0  0
    8.8181   -0.0243    0.7561 H   0  0  0  0  0  0  0  0  0  0  0  0
    9.0286    9.2612    2.6177 H   0  0  0  0  0  0  0  0  0  0  0  0
    9.4612    7.4354    2.9484 H   0  0  0  0  0  0  0  0  0  0  0  0
   10.6754    9.3587    0.8798 H   0  0  0  0  0  0  0  0  0  0  0  0
   17.4686    3.6622    1.9718 H   0  0  0  0  0  0  0  0  0  0  0  0
   16.2579    2.3400    1.9042 H   0  0  0  0  0  0  0  0  0  0  0  0
   15.9567    4.8402    3.6689 H   0  0  0  0  0  0  0  0  0  0  0  0
    9.9968    8.3242   -0.7871 H   0  0  0  0  0  0  0  0  0  0  0  0
    9.0237    6.7852   -0.6695 H   0  0  0  0  0  0  0  0  0  0  0  0
   11.2120    4.6519   -1.2614 H   0  0  0  0  0  0  0  0  0  0  0  0
    9.9863    4.7293    0.0298 H   0  0  0  0  0  0  0  0  0  0  0  0
    7.2118    2.1981   -3.0126 H   0  0  0  0  0  0  0  0  0  0  0  0
    6.3066    3.5089   -2.1837 H   0  0  0  0  0  0  0  0  0  0  0  0
   12.4365    7.6344    0.9520 H   0  0  0  0  0  0  0  0  0  0  0  0
   11.2311    6.4997    1.7932 H   0  0  0  0  0  0  0  0  0  0  0  0
   16.9654    2.4554    6.5336 H   0  0  0  0  0  0  0  0  0  0  0  0
   15.3597    2.9441    6.0003 H   0  0  0  0  0  0  0  0  0  0  0  0
   16.9998    2.0223    4.1888 H   0  0  0  0  0  0  0  0  0  0  0  0
   17.8732    3.6059    4.3966 H   0  0  0  0  0  0  0  0  0  0  0  0
    9.0100    3.6662   -3.3914 H   0  0  0  0  0  0  0  0  0  0  0  0
   15.3747    3.7571   -0.8059 H   0  0  0  0  0  0  0  0  0  0  0  0
   15.8845    5.1574    7.9822 H   0  0  0  0  0  0  0  0  0  0  0  0
  1  2  2  0
  1  4  1  0
  2  5  1  0
  3  8  1  0
  3  9  2  0
  4 10  2  0
  5 12  2  0
  6  7  2  0
  6 13  1  0
  7 14  1  0
  8 16  2  0
  9 37  1  0
 10 12  1  0
 10 19  1  0
 11 13  2  0
 11 15  1  0
 11 20  1  0
 12 24  1  0
 13 25  1  0
 14 15  2  0
 14 39  1  0
 15 38  1  0
 16 26  1  0
 16 37  1  0
 17 18  2  3
 18 27  1  0
 19 30  1  0
 19 34  2  0
 20 32  1  0
 20 35  2  0
 21 28  1  0
 21 33  1  0
 21 36  2  0
 22 23  1  0
 22 38  1  0
 23 29  1  0
 23 39  1  0
 24 31  1  0
 25 31  1  0
 26 30  1  0
 27 31  1  0
 28 29  1  0
  1 40  1  0
  2 41  1  0
  3 42  1  0
  4 43  1  0
  5 44  1  0
  6 45  1  0
  7 46  1  0
  8 47  1  0
  9 48  1  0
 17 49  1  0
 17 50  1  0
 18 51  1  0
 22 52  1  0
 22 53  1  0
 23 54  1  0
 24 55  1  0
 24 56  1  0
 25 57  1  0
 25 58  1  0
 26 59  1  0
 26 60  1  0
 27 61  1  0
 27 62  1  0
 28 63  1  0
 28 64  1  0
 29 65  1  0
 29 66  1  0
 30 67  1  0
 32 68  1  0
 33 69  1  0
A    1
C1
A    2
C2
A    3
C3
A    4
C4
A    5
C5
A    6
C6
A    7
C7
A    8
C8
A    9
C9
A   10
C10
A   11
C11
A   12
C12
A   13
C13
A   14
C14
A   15
C15
A   16
C16
A   17
C17
A   18
C18
A   19
C19
A   20
C20
A   21
C21
A   22
C22
A   23
C23
A   24
C24
A   25
C25
A   26
C26
A   27
C27
A   28
C28
A   29
C29
A   30
N30
A   31
N31
A   32
O32
A   33
O33
A   34
O34
A   35
O35
A   36
O36
A   37
O37
A   38
O38
A   39
O39
M  END
