4CF9_5EY_A_1214
     RDKit          3D

 49 52  0  0  0  0  0  0  0  0999 V2000
   30.3990  -28.8040    0.7390 C   0  0  0  0  0  0  0  0  0  0  0  0
   30.5840  -27.5690    0.1540 C   0  0  0  0  0  0  0  0  0  0  0  0
   31.2290  -29.8620    0.4330 C   0  0  0  0  0  0  0  0  0  0  0  0
   32.7180  -31.9210    1.6740 C   0  0  0  0  0  0  0  0  0  0  0  0
   31.6030  -27.3700   -0.7450 C   0  0  0  0  0  0  0  0  0  0  0  0
   32.0970  -32.5440    2.7230 C   0  0  0  0  0  0  0  0  0  0  0  0
   32.2440  -29.6490   -0.4640 C   0  0  0  0  0  0  0  0  0  0  0  0
   32.7820  -32.5430    0.4520 C   0  0  0  0  0  0  0  0  0  0  0  0
   32.2390  -33.8020    0.2700 C   0  0  0  0  0  0  0  0  0  0  0  0
   32.4230  -28.4280   -1.0420 C   0  0  0  0  0  0  0  0  0  0  0  0
   31.5480  -33.7860    2.5430 C   0  0  0  0  0  0  0  0  0  0  0  0
   31.6070  -34.4310    1.3250 C   0  0  0  0  0  0  0  0  0  0  0  0
   33.2450  -30.5610   -0.9670 C   0  0  0  0  0  0  0  0  0  0  0  0
   33.4760  -31.8300   -0.6080 C   0  0  0  0  0  0  0  0  0  0  0  0
   32.3270  -34.4510   -1.0570 C   0  0  0  0  0  0  0  0  0  0  0  0
   29.2160  -39.0810    0.4370 C   0  0  0  0  0  0  0  0  0  0  0  0
   33.5680  -28.4020   -1.9880 C   0  0  0  0  0  0  0  0  0  0  0  0
   31.1280  -35.7190    3.3010 C   0  0  0  0  0  0  0  0  0  0  0  0
   34.0050  -29.8540   -2.0370 C   0  0  0  0  0  0  0  0  0  0  0  0
   30.1510  -35.9850    2.2100 C   0  0  0  0  0  0  0  0  0  0  0  0
   29.6210  -37.6210    0.4280 C   0  0  0  0  0  0  0  0  0  0  0  0
   29.9000  -37.4240    1.8940 C   0  0  0  0  0  0  0  0  0  0  0  0
   31.2410  -34.7960   -1.5950 O   0  0  0  0  0  0  0  0  0  0  0  0
   28.4010  -39.4090   -0.4670 O   0  0  0  0  0  0  0  0  0  0  0  0
   33.4740  -34.5910   -1.5560 O   0  0  0  0  0  0  0  0  0  0  0  0
   29.7400  -39.7820    1.3460 O   0  0  0  0  0  0  0  0  0  0  0  0
   30.9430  -34.3590    3.6260 O   0  0  0  0  0  0  0  0  0  0  0  0
   31.0560  -35.7030    1.1390 O   0  0  0  0  0  0  0  0  0  0  0  0
   35.4000  -29.9020   -1.7800 O   0  0  0  0  0  0  0  0  0  0  0  0
   29.5794  -28.9470    1.4585 H   0  0  0  0  0  0  0  0  0  0  0  0
   29.9107  -26.7374    0.4092 H   0  0  0  0  0  0  0  0  0  0  0  0
   31.0809  -30.8490    0.8955 H   0  0  0  0  0  0  0  0  0  0  0  0
   33.1644  -30.9249    1.8100 H   0  0  0  0  0  0  0  0  0  0  0  0
   31.7573  -26.3873   -1.2146 H   0  0  0  0  0  0  0  0  0  0  0  0
   32.0393  -32.0503    3.7043 H   0  0  0  0  0  0  0  0  0  0  0  0
   34.2541  -32.3776   -1.1599 H   0  0  0  0  0  0  0  0  0  0  0  0
   33.2519  -28.0508   -2.9813 H   0  0  0  0  0  0  0  0  0  0  0  0
   34.3715  -27.7183   -1.6766 H   0  0  0  0  0  0  0  0  0  0  0  0
   30.9196  -36.3575    4.1721 H   0  0  0  0  0  0  0  0  0  0  0  0
   32.1620  -35.9360    2.9947 H   0  0  0  0  0  0  0  0  0  0  0  0
   33.8112  -30.3243   -3.0123 H   0  0  0  0  0  0  0  0  0  0  0  0
   29.1918  -35.4828    2.4045 H   0  0  0  0  0  0  0  0  0  0  0  0
   30.5174  -37.4488   -0.1859 H   0  0  0  0  0  0  0  0  0  0  0  0
   28.8764  -36.9340   -0.0005 H   0  0  0  0  0  0  0  0  0  0  0  0
   30.7870  -38.0120    2.1722 H   0  0  0  0  0  0  0  0  0  0  0  0
   29.0191  -37.7561    2.4629 H   0  0  0  0  0  0  0  0  0  0  0  0
   30.4655  -35.0424   -1.0310 H   0  0  0  0  0  0  0  0  0  0  0  0
   27.5106  -39.7674   -0.2245 H   0  0  0  0  0  0  0  0  0  0  0  0
   35.5554  -29.9073   -0.8023 H   0  0  0  0  0  0  0  0  0  0  0  0
  1  2  2  0
  1  3  1  0
  2  5  1  0
  3  7  2  0
  4  6  2  0
  4  8  1  0
  5 10  2  0
  6 11  1  0
  7 10  1  0
  7 13  1  0
  8  9  2  0
  8 14  1  0
  9 12  1  0
  9 15  1  0
 10 17  1  0
 11 12  2  0
 11 27  1  0
 12 28  1  0
 13 14  2  0
 13 19  1  0
 15 23  1  0
 15 25  2  0
 16 21  1  0
 16 24  1  0
 16 26  2  0
 17 19  1  0
 18 20  1  0
 18 27  1  0
 19 29  1  0
 20 22  1  0
 20 28  1  0
 21 22  1  0
  1 30  1  0
  2 31  1  0
  3 32  1  0
  4 33  1  0
  5 34  1  0
  6 35  1  0
 14 36  1  0
 17 37  1  0
 17 38  1  0
 18 39  1  0
 18 40  1  0
 19 41  1  0
 20 42  1  0
 21 43  1  0
 21 44  1  0
 22 45  1  0
 22 46  1  0
 23 47  1  0
 24 48  1  0
 29 49  1  0
A    1
C3
A    2
C2
A    3
C4
A    4
C12
A    5
C1
A    6
C13
A    7
C5
A    8
C11
A    9
C16
A   10
C6
A   11
C14
A   12
C15
A   13
C9
A   14
C10
A   15
C17
A   16
C26
A   17
C7
A   18
C22
A   19
C8
A   20
C21
A   21
C25
A   22
C24
A   23
O19
A   24
O28
A   25
O18
A   26
O27
A   27
O23
A   28
O20
A   29
O29
M  END
