4CFA_WOP_A_1214
     RDKit          3D

 60 63  0  0  0  0  0  0  0  0999 V2000
   12.0590  -49.7990    7.5730 C   0  0  0  0  0  0  0  0  0  0  0  0
   12.5630  -49.6160   -0.5090 C   0  0  0  0  0  0  0  0  0  0  0  0
   11.6130  -50.4400    6.4360 C   0  0  0  0  0  0  0  0  0  0  0  0
   11.4500  -48.6370    7.9950 C   0  0  0  0  0  0  0  0  0  0  0  0
   11.4140  -49.2290   -1.1620 C   0  0  0  0  0  0  0  0  0  0  0  0
   12.6390  -49.4690    0.8580 C   0  0  0  0  0  0  0  0  0  0  0  0
   10.5560  -49.9170    5.7240 C   0  0  0  0  0  0  0  0  0  0  0  0
   10.3930  -48.1210    7.2780 C   0  0  0  0  0  0  0  0  0  0  0  0
   10.3560  -48.6990   -0.4590 C   0  0  0  0  0  0  0  0  0  0  0  0
   11.5740  -48.9420    1.5590 C   0  0  0  0  0  0  0  0  0  0  0  0
   10.8430  -44.1530   -1.1210 C   0  0  0  0  0  0  0  0  0  0  0  0
   11.6490  -44.4800   -2.1800 C   0  0  0  0  0  0  0  0  0  0  0  0
   12.3920  -45.0340    0.4910 C   0  0  0  0  0  0  0  0  0  0  0  0
    9.9420  -48.7550    6.1410 C   0  0  0  0  0  0  0  0  0  0  0  0
   10.4260  -48.5510    0.9050 C   0  0  0  0  0  0  0  0  0  0  0  0
   11.1890  -44.4140    0.1930 C   0  0  0  0  0  0  0  0  0  0  0  0
   12.8370  -45.0820   -1.8760 C   0  0  0  0  0  0  0  0  0  0  0  0
   13.2000  -45.3530   -0.5860 C   0  0  0  0  0  0  0  0  0  0  0  0
   12.8050  -45.3320    1.8940 C   0  0  0  0  0  0  0  0  0  0  0  0
    9.0260  -48.5930    2.9820 C   0  0  0  0  0  0  0  0  0  0  0  0
    8.4830  -45.7520    1.0060 C   0  0  0  0  0  0  0  0  0  0  0  0
   14.7780  -45.9970   -1.9370 C   0  0  0  0  0  0  0  0  0  0  0  0
    7.9940  -43.3990    0.4170 C   0  0  0  0  0  0  0  0  0  0  0  0
    8.7920  -48.1810    5.3770 C   0  0  0  0  0  0  0  0  0  0  0  0
   10.2140  -44.0090    1.2550 C   0  0  0  0  0  0  0  0  0  0  0  0
    9.2580  -47.9760    1.6310 C   0  0  0  0  0  0  0  0  0  0  0  0
    9.1830  -47.7500    4.0550 N   0  0  0  0  0  0  0  0  0  0  0  0
    9.3220  -46.5420    1.7730 N   0  0  0  0  0  0  0  0  0  0  0  0
    8.8770  -44.4210    0.9120 N   0  0  0  0  0  0  0  0  0  0  0  0
   14.0180  -45.1500    2.1840 O   0  0  0  0  0  0  0  0  0  0  0  0
   11.9120  -45.7330    2.6890 O   0  0  0  0  0  0  0  0  0  0  0  0
    8.7240  -49.7690    3.0770 O   0  0  0  0  0  0  0  0  0  0  0  0
    7.4840  -46.2130    0.4690 O   0  0  0  0  0  0  0  0  0  0  0  0
   13.7640  -45.4690   -2.8060 O   0  0  0  0  0  0  0  0  0  0  0  0
   14.4400  -45.9610   -0.5350 O   0  0  0  0  0  0  0  0  0  0  0  0
   12.9019  -50.2159    8.1437 H   0  0  0  0  0  0  0  0  0  0  0  0
   13.4090  -50.0370   -1.0720 H   0  0  0  0  0  0  0  0  0  0  0  0
   12.1002  -51.3667    6.0986 H   0  0  0  0  0  0  0  0  0  0  0  0
   11.8064  -48.1238    8.9004 H   0  0  0  0  0  0  0  0  0  0  0  0
   11.3412  -49.3443   -2.2535 H   0  0  0  0  0  0  0  0  0  0  0  0
   13.5512  -49.7725    1.3925 H   0  0  0  0  0  0  0  0  0  0  0  0
   10.1999  -50.4291    4.8180 H   0  0  0  0  0  0  0  0  0  0  0  0
    9.9049  -47.1950    7.6161 H   0  0  0  0  0  0  0  0  0  0  0  0
    9.4458  -48.3910   -0.9944 H   0  0  0  0  0  0  0  0  0  0  0  0
   11.6421  -48.8328    2.6515 H   0  0  0  0  0  0  0  0  0  0  0  0
    9.8798  -43.6621   -1.3243 H   0  0  0  0  0  0  0  0  0  0  0  0
   11.3552  -44.2691   -3.2188 H   0  0  0  0  0  0  0  0  0  0  0  0
   14.9621  -47.0440   -2.2196 H   0  0  0  0  0  0  0  0  0  0  0  0
   15.6634  -45.3565   -2.0627 H   0  0  0  0  0  0  0  0  0  0  0  0
    7.5356  -42.8684    1.2646 H   0  0  0  0  0  0  0  0  0  0  0  0
    8.5652  -42.6863   -0.1961 H   0  0  0  0  0  0  0  0  0  0  0  0
    7.2060  -43.8607   -0.1961 H   0  0  0  0  0  0  0  0  0  0  0  0
    8.0092  -48.9481    5.2836 H   0  0  0  0  0  0  0  0  0  0  0  0
    8.4235  -47.3020    5.9262 H   0  0  0  0  0  0  0  0  0  0  0  0
   10.5025  -44.4794    2.2066 H   0  0  0  0  0  0  0  0  0  0  0  0
   10.2305  -42.9129    1.3466 H   0  0  0  0  0  0  0  0  0  0  0  0
    8.4042  -48.2269    0.9844 H   0  0  0  0  0  0  0  0  0  0  0  0
    9.5799  -46.8096    3.9168 H   0  0  0  0  0  0  0  0  0  0  0  0
    9.9827  -46.1118    2.4358 H   0  0  0  0  0  0  0  0  0  0  0  0
   12.0545  -45.6690    3.6666 H   0  0  0  0  0  0  0  0  0  0  0  0
  1  3  2  0
  1  4  1  0
  2  5  2  0
  2  6  1  0
  3  7  1  0
  4  8  2  0
  5  9  1  0
  6 10  2  0
  7 14  2  0
  8 14  1  0
  9 15  2  0
 10 15  1  0
 11 12  2  0
 11 16  1  0
 12 17  1  0
 13 16  2  0
 13 18  1  0
 13 19  1  0
 14 24  1  0
 15 26  1  0
 16 25  1  0
 17 18  2  0
 17 34  1  0
 18 35  1  0
 19 30  2  0
 19 31  1  0
 20 26  1  0
 20 27  1  0
 20 32  2  0
 21 28  1  0
 21 29  1  0
 21 33  2  0
 22 34  1  0
 22 35  1  0
 23 29  1  0
 24 27  1  0
 25 29  1  0
 26 28  1  0
  1 36  1  0
  2 37  1  0
  3 38  1  0
  4 39  1  0
  5 40  1  0
  6 41  1  0
  7 42  1  0
  8 43  1  0
  9 44  1  0
 10 45  1  0
 11 46  1  0
 12 47  1  0
 22 48  1  0
 22 49  1  0
 23 50  1  0
 23 51  1  0
 23 52  1  0
 24 53  1  0
 24 54  1  0
 25 55  1  0
 25 56  1  0
 26 57  1  0
 27 58  1  0
 28 59  1  0
 31 60  1  0
A    1
C1
A    2
C2
A    3
C3
A    4
C4
A    5
C5
A    6
C6
A    7
C7
A    8
C8
A    9
C9
A   10
C10
A   11
C11
A   12
C12
A   13
C13
A   14
C14
A   15
C15
A   16
C16
A   17
C17
A   18
C18
A   19
C19
A   20
C20
A   21
C21
A   22
C22
A   23
C23
A   24
C24
A   25
C25
A   26
C26
A   27
N27
A   28
N28
A   29
N29
A   30
O30
A   31
O31
A   32
O32
A   33
O33
A   34
O34
A   35
O35
M  END
