4CFC_7NV_A_1216
     RDKit          3D

 59 61  0  0  0  0  0  0  0  0999 V2000
   12.7500  -49.2980   -0.8010 C   0  0  0  0  0  0  0  0  0  0  0  0
   12.7730  -49.3780    0.5740 C   0  0  0  0  0  0  0  0  0  0  0  0
   11.6800  -48.9540    1.3010 C   0  0  0  0  0  0  0  0  0  0  0  0
   11.0370  -43.9950   -1.2390 C   0  0  0  0  0  0  0  0  0  0  0  0
   10.6630  -48.2740    7.1210 C   0  0  0  0  0  0  0  0  0  0  0  0
   11.8800  -44.2690   -2.2910 C   0  0  0  0  0  0  0  0  0  0  0  0
   11.8780  -48.9180    7.7440 C   0  0  0  0  0  0  0  0  0  0  0  0
    7.9940  -43.3810    0.3510 C   0  0  0  0  0  0  0  0  0  0  0  0
    9.3780  -47.9630    1.4110 C   0  0  0  0  0  0  0  0  0  0  0  0
   12.5050  -44.9810    0.3910 C   0  0  0  0  0  0  0  0  0  0  0  0
   10.5080  -48.6910    5.6830 C   0  0  0  0  0  0  0  0  0  0  0  0
   10.5660  -48.4480    0.6610 C   0  0  0  0  0  0  0  0  0  0  0  0
   11.3140  -44.3310    0.0780 C   0  0  0  0  0  0  0  0  0  0  0  0
   13.0480  -44.9030   -1.9690 C   0  0  0  0  0  0  0  0  0  0  0  0
   13.3480  -45.2460   -0.6770 C   0  0  0  0  0  0  0  0  0  0  0  0
    9.2060  -48.6110    2.7620 C   0  0  0  0  0  0  0  0  0  0  0  0
   12.9220  -45.3920    1.7700 C   0  0  0  0  0  0  0  0  0  0  0  0
   15.0220  -45.7190   -1.9550 C   0  0  0  0  0  0  0  0  0  0  0  0
    8.5340  -45.7290    0.9350 C   0  0  0  0  0  0  0  0  0  0  0  0
    9.1350  -48.2750    5.2040 C   0  0  0  0  0  0  0  0  0  0  0  0
   10.5480  -48.3690   -0.7110 C   0  0  0  0  0  0  0  0  0  0  0  0
   10.2750  -43.9580    1.1080 C   0  0  0  0  0  0  0  0  0  0  0  0
    9.1940  -47.7620    3.8510 N   0  0  0  0  0  0  0  0  0  0  0  0
   12.0420  -45.9250    2.4880 O   0  0  0  0  0  0  0  0  0  0  0  0
    9.0950  -49.8230    2.8280 O   0  0  0  0  0  0  0  0  0  0  0  0
   14.1270  -45.1810    2.1160 O   0  0  0  0  0  0  0  0  0  0  0  0
   14.0130  -45.2510   -2.8610 O   0  0  0  0  0  0  0  0  0  0  0  0
   14.5690  -45.8690   -0.5980 O   0  0  0  0  0  0  0  0  0  0  0  0
    7.4470  -46.1680    0.5740 O   0  0  0  0  0  0  0  0  0  0  0  0
   11.6340  -48.7940   -1.4360 C   0  0  0  0  0  0  0  0  0  0  0  0
    9.4680  -46.5330    1.5790 N   0  0  0  0  0  0  0  0  0  0  0  0
    8.9430  -44.4090    0.7460 N   0  0  0  0  0  0  0  0  0  0  0  0
   13.6166  -49.6341   -1.3892 H   0  0  0  0  0  0  0  0  0  0  0  0
   13.6585  -49.7780    1.0897 H   0  0  0  0  0  0  0  0  0  0  0  0
   11.6960  -49.0195    2.3989 H   0  0  0  0  0  0  0  0  0  0  0  0
   10.0892  -43.4801   -1.4545 H   0  0  0  0  0  0  0  0  0  0  0  0
    9.7672  -48.5783    7.6822 H   0  0  0  0  0  0  0  0  0  0  0  0
   10.7884  -47.1818    7.1572 H   0  0  0  0  0  0  0  0  0  0  0  0
   11.6301  -43.9952   -3.3266 H   0  0  0  0  0  0  0  0  0  0  0  0
   11.7949  -48.8740    8.8400 H   0  0  0  0  0  0  0  0  0  0  0  0
   11.9416  -49.9682    7.4230 H   0  0  0  0  0  0  0  0  0  0  0  0
   12.7828  -48.3811    7.4230 H   0  0  0  0  0  0  0  0  0  0  0  0
    7.5635  -42.9147    1.2494 H   0  0  0  0  0  0  0  0  0  0  0  0
    8.5101  -42.6160   -0.2477 H   0  0  0  0  0  0  0  0  0  0  0  0
    7.1903  -43.8345   -0.2477 H   0  0  0  0  0  0  0  0  0  0  0  0
    8.4973  -48.2401    0.8131 H   0  0  0  0  0  0  0  0  0  0  0  0
   11.2785  -48.2005    5.0700 H   0  0  0  0  0  0  0  0  0  0  0  0
   10.6220  -49.7815    5.5941 H   0  0  0  0  0  0  0  0  0  0  0  0
   15.3785  -46.6971   -2.3103 H   0  0  0  0  0  0  0  0  0  0  0  0
   15.8150  -44.9568   -1.9422 H   0  0  0  0  0  0  0  0  0  0  0  0
    8.4649  -49.1470    5.2298 H   0  0  0  0  0  0  0  0  0  0  0  0
    8.7574  -47.4810    5.8651 H   0  0  0  0  0  0  0  0  0  0  0  0
    9.6646  -47.9658   -1.2278 H   0  0  0  0  0  0  0  0  0  0  0  0
   10.5524  -44.4145    2.0696 H   0  0  0  0  0  0  0  0  0  0  0  0
   10.2490  -42.8602    1.1727 H   0  0  0  0  0  0  0  0  0  0  0  0
    9.2277  -46.7440    3.6980 H   0  0  0  0  0  0  0  0  0  0  0  0
   14.3663  -45.1391    3.0757 H   0  0  0  0  0  0  0  0  0  0  0  0
   11.6138  -48.7319   -2.5341 H   0  0  0  0  0  0  0  0  0  0  0  0
   10.2075  -46.1169    2.1629 H   0  0  0  0  0  0  0  0  0  0  0  0
  1  2  2  0
  1 30  1  0
  2  3  1  0
  3 12  2  0
  4  6  2  0
  4 13  1  0
  5  7  1  0
  5 11  1  0
  6 14  1  0
  8 32  1  0
  9 12  1  0
  9 16  1  0
  9 31  1  0
 10 13  2  0
 10 15  1  0
 10 17  1  0
 11 20  1  0
 12 21  1  0
 13 22  1  0
 14 15  2  0
 14 27  1  0
 15 28  1  0
 16 23  1  0
 16 25  2  0
 17 24  2  0
 17 26  1  0
 18 27  1  0
 18 28  1  0
 19 29  2  0
 19 31  1  0
 19 32  1  0
 20 23  1  0
 21 30  2  0
 22 32  1  0
  1 33  1  0
  2 34  1  0
  3 35  1  0
  4 36  1  0
  5 37  1  0
  5 38  1  0
  6 39  1  0
  7 40  1  0
  7 41  1  0
  7 42  1  0
  8 43  1  0
  8 44  1  0
  8 45  1  0
  9 46  1  0
 11 47  1  0
 11 48  1  0
 18 49  1  0
 18 50  1  0
 20 51  1  0
 20 52  1  0
 21 53  1  0
 22 54  1  0
 22 55  1  0
 23 56  1  0
 26 57  1  0
 30 58  1  0
 31 59  1  0
A    1
C15
A    2
C16
A    3
C17
A    4
C23
A    5
C6
A    6
C24
A    7
C7
A    8
C9
A    9
C13
A   10
C30
A   11
C5
A   12
C18
A   13
C22
A   14
C25
A   15
C29
A   16
C2
A   17
C31
A   18
C27
A   19
C12
A   20
C4
A   21
C19
A   22
C21
A   23
N3
A   24
O33
A   25
O1
A   26
O32
A   27
O26
A   28
O28
A   29
O11
A   30
C3
A   31
N25
A   32
N26
M  END
