4CFU_2WC_A_1299
     RDKit          3D

 51 54  0  0  0  0  0  0  0  0999 V2000
   -5.9800   21.6440  -19.4150 C   0  0  0  0  0  0  0  0  0  0  0  0
   -4.7150   22.2930  -18.9630 C   0  0  0  0  0  0  0  0  0  0  0  0
   -3.7070   21.2410  -18.3820 C   0  0  0  0  0  0  0  0  0  0  0  0
   -3.4980   19.9830  -19.2850 C   0  0  0  0  0  0  0  0  0  0  0  0
   -4.9260   19.3880  -19.7090 C   0  0  0  0  0  0  0  0  0  0  0  0
   -5.5780   20.5560  -20.4340 C   0  0  0  0  0  0  0  0  0  0  0  0
   -6.7180   20.1050  -21.2500 C   0  0  0  0  0  0  0  0  0  0  0  0
   -6.4370   20.9030  -22.4360 O   0  0  0  0  0  0  0  0  0  0  0  0
   -7.5220   21.5090  -23.0210 C   0  0  0  0  0  0  0  0  0  0  0  0
   -8.8070   21.1460  -22.7510 N   0  0  0  0  0  0  0  0  0  0  0  0
   -9.8240   21.7830  -23.4110 C   0  0  0  0  0  0  0  0  0  0  0  0
  -11.0640   21.3910  -23.1720 N   0  0  0  0  0  0  0  0  0  0  0  0
   -9.5700   22.7450  -24.3190 N   0  0  0  0  0  0  0  0  0  0  0  0
   -8.2810   23.0830  -24.5530 C   0  0  0  0  0  0  0  0  0  0  0  0
   -7.7440   24.0310  -25.3130 N   0  0  0  0  0  0  0  0  0  0  0  0
   -7.2410   22.5040  -23.9010 C   0  0  0  0  0  0  0  0  0  0  0  0
   -6.0650   23.0810  -24.3060 N   0  0  0  0  0  0  0  0  0  0  0  0
   -6.3920   24.0210  -25.2050 C   0  0  0  0  0  0  0  0  0  0  0  0
   -5.5740   24.8640  -25.8910 C   0  0  0  0  0  0  0  0  0  0  0  0
   -5.8550   25.1380  -27.2340 C   0  0  0  0  0  0  0  0  0  0  0  0
   -5.0360   25.9990  -27.9860 C   0  0  0  0  0  0  0  0  0  0  0  0
   -3.9330   26.6480  -27.3880 C   0  0  0  0  0  0  0  0  0  0  0  0
   -3.6380   26.3820  -26.0390 C   0  0  0  0  0  0  0  0  0  0  0  0
   -2.5340   27.0240  -25.4230 C   0  0  0  0  0  0  0  0  0  0  0  0
   -2.7560   27.8640  -24.5080 O   0  0  0  0  0  0  0  0  0  0  0  0
   -1.3320   26.7230  -25.7160 O   0  0  0  0  0  0  0  0  0  0  0  0
   -4.4520   25.5170  -25.2740 C   0  0  0  0  0  0  0  0  0  0  0  0
   -4.1370   25.2740  -23.8930 C   0  0  0  0  0  0  0  0  0  0  0  0
   -6.4999   21.1889  -18.5591 H   0  0  0  0  0  0  0  0  0  0  0  0
   -6.6629   22.3782  -19.8673 H   0  0  0  0  0  0  0  0  0  0  0  0
   -4.2478   22.8011  -19.8194 H   0  0  0  0  0  0  0  0  0  0  0  0
   -4.9603   23.0126  -18.1681 H   0  0  0  0  0  0  0  0  0  0  0  0
   -2.7331   21.7346  -18.2482 H   0  0  0  0  0  0  0  0  0  0  0  0
   -4.1379   20.8813  -17.4360 H   0  0  0  0  0  0  0  0  0  0  0  0
   -2.9367   20.2680  -20.1871 H   0  0  0  0  0  0  0  0  0  0  0  0
   -2.9332   19.2209  -18.7281 H   0  0  0  0  0  0  0  0  0  0  0  0
   -4.8114   18.5216  -20.3770 H   0  0  0  0  0  0  0  0  0  0  0  0
   -5.5155   19.0224  -18.8553 H   0  0  0  0  0  0  0  0  0  0  0  0
   -4.8519   20.9984  -21.1319 H   0  0  0  0  0  0  0  0  0  0  0  0
   -6.6836   19.0249  -21.4553 H   0  0  0  0  0  0  0  0  0  0  0  0
   -7.7153   20.2328  -20.8038 H   0  0  0  0  0  0  0  0  0  0  0  0
  -11.3932   21.2869  -22.2016 H   0  0  0  0  0  0  0  0  0  0  0  0
  -11.7007   21.1897  -23.9562 H   0  0  0  0  0  0  0  0  0  0  0  0
   -5.1170   22.8400  -23.9833 H   0  0  0  0  0  0  0  0  0  0  0  0
   -6.7309   24.6723  -27.7094 H   0  0  0  0  0  0  0  0  0  0  0  0
   -5.2564   26.1688  -29.0502 H   0  0  0  0  0  0  0  0  0  0  0  0
   -3.3153   27.3496  -27.9678 H   0  0  0  0  0  0  0  0  0  0  0  0
   -0.6733   26.5581  -24.9955 H   0  0  0  0  0  0  0  0  0  0  0  0
   -4.8457   25.8207  -23.2536 H   0  0  0  0  0  0  0  0  0  0  0  0
   -4.2107   24.1965  -23.6842 H   0  0  0  0  0  0  0  0  0  0  0  0
   -3.1135   25.6188  -23.6842 H   0  0  0  0  0  0  0  0  0  0  0  0
  1  2  1  0
  1  6  1  0
  2  3  1  0
  3  4  1  0
  4  5  1  0
  5  6  1  0
  6  7  1  0
  7  8  1  0
  8  9  1  0
  9 10  2  0
  9 16  1  0
 10 11  1  0
 11 12  1  0
 11 13  2  0
 13 14  1  0
 14 15  1  0
 14 16  2  0
 15 18  2  0
 16 17  1  0
 17 18  1  0
 18 19  1  0
 19 20  2  0
 19 27  1  0
 20 21  1  0
 21 22  2  0
 22 23  1  0
 23 24  1  0
 23 27  2  0
 24 25  2  0
 24 26  1  0
 27 28  1  0
  1 29  1  0
  1 30  1  0
  2 31  1  0
  2 32  1  0
  3 33  1  0
  3 34  1  0
  4 35  1  0
  4 36  1  0
  5 37  1  0
  5 38  1  0
  6 39  1  0
  7 40  1  0
  7 41  1  0
 12 42  1  0
 12 43  1  0
 17 44  1  0
 20 45  1  0
 21 46  1  0
 22 47  1  0
 26 48  1  0
 28 49  1  0
 28 50  1  0
 28 51  1  0
A    1
CAW
A    2
CAX
A    3
CAY
A    4
CAZ
A    5
CBA
A    6
CAV
A    7
CAU
A    8
O6
A    9
C6
A   10
N1
A   11
C2
A   12
N2
A   13
N3
A   14
C4
A   15
N9
A   16
C5
A   17
N7
A   18
C8
A   19
CAJ
A   20
CAK
A   21
CAL
A   22
CAM
A   23
CAN
A   24
CAQ
A   25
OAS
A   26
OAR
A   27
CAO
A   28
CAP
M  END
