4CFX_G6T_A_1299
     RDKit          3D

 50 53  0  0  0  0  0  0  0  0999 V2000
   -8.3890  -22.2650   23.1120 N   0  0  0  0  0  0  0  0  0  0  0  0
   -9.3760  -22.6890   23.8920 C   0  0  0  0  0  0  0  0  0  0  0  0
  -10.5730  -22.1570   23.7770 N   0  0  0  0  0  0  0  0  0  0  0  0
   -9.1550  -23.6580   24.7830 N   0  0  0  0  0  0  0  0  0  0  0  0
   -7.9460  -24.2060   24.9000 C   0  0  0  0  0  0  0  0  0  0  0  0
   -6.9680  -23.7920   24.1340 C   0  0  0  0  0  0  0  0  0  0  0  0
   -7.2000  -22.8420   23.2650 C   0  0  0  0  0  0  0  0  0  0  0  0
   -6.1150  -22.5350   22.5680 O   0  0  0  0  0  0  0  0  0  0  0  0
   -5.8660  -24.4650   24.4170 N   0  0  0  0  0  0  0  0  0  0  0  0
   -6.1950  -25.3030   25.3750 C   0  0  0  0  0  0  0  0  0  0  0  0
   -7.4700  -25.1520   25.6760 N   0  0  0  0  0  0  0  0  0  0  0  0
   -6.1990  -21.4500   21.6910 C   0  0  0  0  0  0  0  0  0  0  0  0
   -4.8240  -21.5050   21.1500 C   0  0  0  0  0  0  0  0  0  0  0  0
   -4.7370  -22.7060   20.1990 C   0  0  0  0  0  0  0  0  0  0  0  0
   -3.3760  -22.8210   19.6890 C   0  0  0  0  0  0  0  0  0  0  0  0
   -3.1290  -21.5480   18.8860 C   0  0  0  0  0  0  0  0  0  0  0  0
   -3.2020  -20.3180   19.8090 C   0  0  0  0  0  0  0  0  0  0  0  0
   -4.5720  -20.2350   20.4280 C   0  0  0  0  0  0  0  0  0  0  0  0
   -5.3840  -26.1690   25.9620 C   0  0  0  0  0  0  0  0  0  0  0  0
   -5.8170  -26.8050   27.1180 C   0  0  0  0  0  0  0  0  0  0  0  0
   -5.0150  -27.7100   27.7750 C   0  0  0  0  0  0  0  0  0  0  0  0
   -3.7680  -27.9890   27.2680 C   0  0  0  0  0  0  0  0  0  0  0  0
   -3.3200  -27.3680   26.1160 C   0  0  0  0  0  0  0  0  0  0  0  0
   -4.1220  -26.4440   25.4540 C   0  0  0  0  0  0  0  0  0  0  0  0
   -1.7520  -27.7980   25.6030 S   0  0  0  0  0  0  0  0  0  0  0  0
   -0.7570  -27.3250   26.6600 O   0  0  0  0  0  0  0  0  0  0  0  0
   -1.4180  -27.2080   24.3190 N   0  0  0  0  0  0  0  0  0  0  0  0
   -1.6410  -29.3110   25.4850 O   0  0  0  0  0  0  0  0  0  0  0  0
  -11.1131  -21.9170   24.6205 H   0  0  0  0  0  0  0  0  0  0  0  0
  -10.9705  -21.9803   22.8434 H   0  0  0  0  0  0  0  0  0  0  0  0
   -4.9408  -24.3555   23.9777 H   0  0  0  0  0  0  0  0  0  0  0  0
   -6.9588  -21.6046   20.9107 H   0  0  0  0  0  0  0  0  0  0  0  0
   -6.4995  -20.4921   22.1406 H   0  0  0  0  0  0  0  0  0  0  0  0
   -4.0712  -21.6240   21.9432 H   0  0  0  0  0  0  0  0  0  0  0  0
   -5.0045  -23.6245   20.7420 H   0  0  0  0  0  0  0  0  0  0  0  0
   -5.4334  -22.5619   19.3598 H   0  0  0  0  0  0  0  0  0  0  0  0
   -2.6596  -22.8954   20.5204 H   0  0  0  0  0  0  0  0  0  0  0  0
   -3.2478  -23.7224   19.0718 H   0  0  0  0  0  0  0  0  0  0  0  0
   -2.1322  -21.5972   18.4235 H   0  0  0  0  0  0  0  0  0  0  0  0
   -3.8994  -21.4591   18.1059 H   0  0  0  0  0  0  0  0  0  0  0  0
   -2.4461  -20.4100   20.6028 H   0  0  0  0  0  0  0  0  0  0  0  0
   -3.0092  -19.4077   19.2224 H   0  0  0  0  0  0  0  0  0  0  0  0
   -5.3291  -20.0952   19.6424 H   0  0  0  0  0  0  0  0  0  0  0  0
   -4.6281  -19.3827   21.1212 H   0  0  0  0  0  0  0  0  0  0  0  0
   -6.8181  -26.5816   27.5153 H   0  0  0  0  0  0  0  0  0  0  0  0
   -5.3669  -28.2033   28.6931 H   0  0  0  0  0  0  0  0  0  0  0  0
   -3.1201  -28.7132   27.7835 H   0  0  0  0  0  0  0  0  0  0  0  0
   -3.7625  -25.9405   24.5445 H   0  0  0  0  0  0  0  0  0  0  0  0
   -0.9160  -26.3212   24.4688 H   0  0  0  0  0  0  0  0  0  0  0  0
   -0.8187  -27.8564   23.7887 H   0  0  0  0  0  0  0  0  0  0  0  0
  1  2  2  0
  1  7  1  0
  2  3  1  0
  2  4  1  0
  4  5  2  0
  5  6  1  0
  5 11  1  0
  6  7  2  0
  6  9  1  0
  7  8  1  0
  8 12  1  0
  9 10  1  0
 10 11  2  0
 10 19  1  0
 12 13  1  0
 13 14  1  0
 13 18  1  0
 14 15  1  0
 15 16  1  0
 16 17  1  0
 17 18  1  0
 19 20  2  0
 19 24  1  0
 20 21  1  0
 21 22  2  0
 22 23  1  0
 23 24  2  0
 23 25  1  0
 25 26  2  0
 25 27  1  0
 25 28  2  0
  3 29  1  0
  3 30  1  0
  9 31  1  0
 12 32  1  0
 12 33  1  0
 13 34  1  0
 14 35  1  0
 14 36  1  0
 15 37  1  0
 15 38  1  0
 16 39  1  0
 16 40  1  0
 17 41  1  0
 17 42  1  0
 18 43  1  0
 18 44  1  0
 20 45  1  0
 21 46  1  0
 22 47  1  0
 24 48  1  0
 27 49  1  0
 27 50  1  0
A    1
N1
A    2
C2
A    3
N2
A    4
N3
A    5
C4
A    6
C5
A    7
C6
A    8
O6
A    9
N7
A   10
C8
A   11
N9
A   12
CAL
A   13
CAM
A   14
CAN
A   15
CAO
A   16
CAP
A   17
CAQ
A   18
CAR
A   19
CAS
A   20
CAT
A   21
CAU
A   22
CAV
A   23
CAW
A   24
CAX
A   25
SAY
A   26
OAZ
A   27
NBA
A   28
OBB
M  END
