4CG8_G8S_A_1458
     RDKit          3D

 83 87  0  0  0  0  0  0  0  0999 V2000
   25.0640  -10.6800   13.9720 Cl  0  0  0  0  0  0  0  0  0  0  0  0
   16.7420   -6.8320    7.9150 C   0  0  0  0  0  0  0  0  0  0  0  0
   16.4010   -9.2820    8.6830 C   0  0  0  0  0  0  0  0  0  0  0  0
   21.2630  -15.0480   10.4710 C   0  0  0  0  0  0  0  0  0  0  0  0
   24.7780  -12.5550   12.0130 C   0  0  0  0  0  0  0  0  0  0  0  0
   22.7390  -11.4100   12.6970 C   0  0  0  0  0  0  0  0  0  0  0  0
   15.8400   -5.9100    1.2630 C   0  0  0  0  0  0  0  0  0  0  0  0
   17.5950   -7.5920    1.0340 C   0  0  0  0  0  0  0  0  0  0  0  0
   19.3130   -8.8020    4.7580 C   0  0  0  0  0  0  0  0  0  0  0  0
   21.3180   -8.3160    3.5150 C   0  0  0  0  0  0  0  0  0  0  0  0
   14.9770   -6.9110    1.7060 C   0  0  0  0  0  0  0  0  0  0  0  0
   16.7430   -8.5910    1.4830 C   0  0  0  0  0  0  0  0  0  0  0  0
   19.7750  -10.1100    4.9970 C   0  0  0  0  0  0  0  0  0  0  0  0
   21.7820   -9.6210    3.7520 C   0  0  0  0  0  0  0  0  0  0  0  0
   24.0320  -13.2910   11.0860 C   0  0  0  0  0  0  0  0  0  0  0  0
   21.9970  -12.1540   11.7720 C   0  0  0  0  0  0  0  0  0  0  0  0
   15.8570   -7.5100    5.4830 C   0  0  0  0  0  0  0  0  0  0  0  0
   15.5560   -9.8460    6.0060 C   0  0  0  0  0  0  0  0  0  0  0  0
   20.9600  -13.9900    7.8310 C   0  0  0  0  0  0  0  0  0  0  0  0
   22.5190  -12.2090    8.3600 C   0  0  0  0  0  0  0  0  0  0  0  0
   15.4150   -7.7910    4.2030 C   0  0  0  0  0  0  0  0  0  0  0  0
   15.1150  -10.1380    4.7020 C   0  0  0  0  0  0  0  0  0  0  0  0
   20.8590  -13.5050    6.5170 C   0  0  0  0  0  0  0  0  0  0  0  0
   22.4300  -11.7210    7.0540 C   0  0  0  0  0  0  0  0  0  0  0  0
   18.8020   -4.9590    1.8590 C   0  0  0  0  0  0  0  0  0  0  0  0
   19.7710   -6.1060    2.3060 C   0  0  0  0  0  0  0  0  0  0  0  0
   18.0410   -5.3040    0.5270 C   0  0  0  0  0  0  0  0  0  0  0  0
   19.5790   -6.5680    3.7810 C   0  0  0  0  0  0  0  0  0  0  0  0
   14.5990   -9.2230    2.3210 C   0  0  0  0  0  0  0  0  0  0  0  0
   21.4980  -11.8380    4.7090 C   0  0  0  0  0  0  0  0  0  0  0  0
   24.1230  -11.6180   12.8160 C   0  0  0  0  0  0  0  0  0  0  0  0
   17.1430   -6.2700    0.9180 C   0  0  0  0  0  0  0  0  0  0  0  0
   20.0730   -7.8890    4.0080 C   0  0  0  0  0  0  0  0  0  0  0  0
   15.4240   -8.2430    1.7880 C   0  0  0  0  0  0  0  0  0  0  0  0
   21.0180  -10.5260    4.5100 C   0  0  0  0  0  0  0  0  0  0  0  0
   15.9260   -8.5450    6.4040 C   0  0  0  0  0  0  0  0  0  0  0  0
   22.6460  -13.0860   10.9600 C   0  0  0  0  0  0  0  0  0  0  0  0
   21.8000  -13.3460    8.7720 C   0  0  0  0  0  0  0  0  0  0  0  0
   16.3520   -8.2360    7.6410 N   0  0  0  0  0  0  0  0  0  0  0  0
   21.9220  -13.7940   10.0510 N   0  0  0  0  0  0  0  0  0  0  0  0
   15.0270   -9.0870    3.7690 N   0  0  0  0  0  0  0  0  0  0  0  0
   21.5880  -12.3490    6.1190 N   0  0  0  0  0  0  0  0  0  0  0  0
   16.7872   -6.6695    9.0020 H   0  0  0  0  0  0  0  0  0  0  0  0
   17.7295   -6.6328    7.4731 H   0  0  0  0  0  0  0  0  0  0  0  0
   15.9987   -6.1521    7.4731 H   0  0  0  0  0  0  0  0  0  0  0  0
   16.3789   -8.8109    9.6768 H   0  0  0  0  0  0  0  0  0  0  0  0
   15.5331   -9.9490    8.5741 H   0  0  0  0  0  0  0  0  0  0  0  0
   17.3274   -9.8650    8.5741 H   0  0  0  0  0  0  0  0  0  0  0  0
   21.2366  -15.0982   11.5695 H   0  0  0  0  0  0  0  0  0  0  0  0
   20.2358  -15.0719   10.0781 H   0  0  0  0  0  0  0  0  0  0  0  0
   21.8259  -15.9075   10.0781 H   0  0  0  0  0  0  0  0  0  0  0  0
   25.8626  -12.7116   12.1080 H   0  0  0  0  0  0  0  0  0  0  0  0
   22.2384  -10.6628   13.3304 H   0  0  0  0  0  0  0  0  0  0  0  0
   15.5031   -4.8656    1.1875 H   0  0  0  0  0  0  0  0  0  0  0  0
   18.6331   -7.8393    0.7670 H   0  0  0  0  0  0  0  0  0  0  0  0
   18.3402   -8.4894    5.1654 H   0  0  0  0  0  0  0  0  0  0  0  0
   21.9389   -7.6177    2.9346 H   0  0  0  0  0  0  0  0  0  0  0  0
   13.9450   -6.6595    1.9919 H   0  0  0  0  0  0  0  0  0  0  0  0
   17.0954   -9.6269    1.5957 H   0  0  0  0  0  0  0  0  0  0  0  0
   19.1525  -10.8113    5.5721 H   0  0  0  0  0  0  0  0  0  0  0  0
   22.7519   -9.9376    3.3408 H   0  0  0  0  0  0  0  0  0  0  0  0
   24.5333  -14.0359   10.4506 H   0  0  0  0  0  0  0  0  0  0  0  0
   20.9105  -12.0054   11.6856 H   0  0  0  0  0  0  0  0  0  0  0  0
   16.1477   -6.4872    5.7648 H   0  0  0  0  0  0  0  0  0  0  0  0
   15.6142  -10.6621    6.7413 H   0  0  0  0  0  0  0  0  0  0  0  0
   20.3825  -14.8766    8.1316 H   0  0  0  0  0  0  0  0  0  0  0  0
   23.1666  -11.6920    9.0834 H   0  0  0  0  0  0  0  0  0  0  0  0
   15.3608   -6.9640    3.4798 H   0  0  0  0  0  0  0  0  0  0  0  0
   14.8447  -11.1656    4.4175 H   0  0  0  0  0  0  0  0  0  0  0  0
   20.2131  -14.0212    5.7915 H   0  0  0  0  0  0  0  0  0  0  0  0
   23.0207  -10.8423    6.7559 H   0  0  0  0  0  0  0  0  0  0  0  0
   18.0621   -4.7909    2.6554 H   0  0  0  0  0  0  0  0  0  0  0  0
   19.4081   -4.0594    1.6763 H   0  0  0  0  0  0  0  0  0  0  0  0
   19.6054   -6.9726    1.6491 H   0  0  0  0  0  0  0  0  0  0  0  0
   20.7918   -5.7030    2.2322 H   0  0  0  0  0  0  0  0  0  0  0  0
   17.5209   -4.4199    0.1297 H   0  0  0  0  0  0  0  0  0  0  0  0
   18.7115   -5.6394   -0.2779 H   0  0  0  0  0  0  0  0  0  0  0  0
   20.1163   -5.8718    4.4417 H   0  0  0  0  0  0  0  0  0  0  0  0
   18.4995   -6.5734    3.9923 H   0  0  0  0  0  0  0  0  0  0  0  0
   13.5326   -8.9944    2.1776 H   0  0  0  0  0  0  0  0  0  0  0  0
   14.6915  -10.2267    1.8805 H   0  0  0  0  0  0  0  0  0  0  0  0
   20.8322  -12.5174    4.1566 H   0  0  0  0  0  0  0  0  0  0  0  0
   22.5411  -11.8050    4.3612 H   0  0  0  0  0  0  0  0  0  0  0  0
  1 31  1  0
  2 39  1  0
  3 39  1  0
  4 40  1  0
  5 15  2  0
  5 31  1  0
  6 16  1  0
  6 31  2  0
  7 11  2  0
  7 32  1  0
  8 12  1  0
  8 32  2  0
  9 13  2  0
  9 33  1  0
 10 14  1  0
 10 33  2  0
 11 34  1  0
 12 34  2  0
 13 35  1  0
 14 35  2  0
 15 37  1  0
 16 37  2  0
 17 21  2  0
 17 36  1  0
 18 22  1  0
 18 36  2  0
 19 23  2  0
 19 38  1  0
 20 24  1  0
 20 38  2  0
 21 41  1  0
 22 41  2  0
 23 42  1  0
 24 42  2  0
 25 26  1  0
 25 27  1  0
 26 28  1  0
 27 32  1  0
 28 33  1  0
 29 34  1  0
 29 41  1  0
 30 35  1  0
 30 42  1  0
 36 39  1  0
 37 40  1  0
 38 40  1  0
  2 43  1  0
  2 44  1  0
  2 45  1  0
  3 46  1  0
  3 47  1  0
  3 48  1  0
  4 49  1  0
  4 50  1  0
  4 51  1  0
  5 52  1  0
  6 53  1  0
  7 54  1  0
  8 55  1  0
  9 56  1  0
 10 57  1  0
 11 58  1  0
 12 59  1  0
 13 60  1  0
 14 61  1  0
 15 62  1  0
 16 63  1  0
 17 64  1  0
 18 65  1  0
 19 66  1  0
 20 67  1  0
 21 68  1  0
 22 69  1  0
 23 70  1  0
 24 71  1  0
 25 72  1  0
 25 73  1  0
 26 74  1  0
 26 75  1  0
 27 76  1  0
 27 77  1  0
 28 78  1  0
 28 79  1  0
 29 80  1  0
 29 81  1  0
 30 82  1  0
 30 83  1  0
M  CHG  2  41   1  42   1
A    1
CL
A    2
CAA
A    3
CAB
A    4
CAC
A    5
CAE
A    6
CAF
A    7
CAG
A    8
CAH
A    9
CAI
A   10
CAJ
A   11
CAK
A   12
CAL
A   13
CAM
A   14
CAN
A   15
CAO
A   16
CAP
A   17
CAQ
A   18
CAR
A   19
CAS
A   20
CAT
A   21
CAU
A   22
CAV
A   23
CAW
A   24
CAX
A   25
CAY
A   26
CAZ
A   27
CBA
A   28
CBB
A   29
CBC
A   30
CBD
A   31
CBE
A   32
CBF
A   33
CBG
A   34
CBH
A   35
CBI
A   36
CBJ
A   37
CBK
A   38
CBL
A   39
NBM
A   40
NBN
A   41
NBO
A   42
NBP
M  END
