4CGI_NZL_A_1215
     RDKit          3D

 59 62  0  0  0  0  0  0  0  0999 V2000
   75.0890   34.0240    0.8390 C   0  0  0  0  0  0  0  0  0  0  0  0
   75.9090   33.1590    1.5310 C   0  0  0  0  0  0  0  0  0  0  0  0
   75.5970   34.8460   -0.1370 C   0  0  0  0  0  0  0  0  0  0  0  0
   77.2500   33.0810    1.2610 C   0  0  0  0  0  0  0  0  0  0  0  0
   80.0520   32.9280    3.0280 C   0  0  0  0  0  0  0  0  0  0  0  0
   80.3430   31.8960    3.8820 C   0  0  0  0  0  0  0  0  0  0  0  0
   81.2260   31.8760    1.2020 C   0  0  0  0  0  0  0  0  0  0  0  0
   76.9340   34.7670   -0.4000 C   0  0  0  0  0  0  0  0  0  0  0  0
   77.7420   33.9040    0.2810 C   0  0  0  0  0  0  0  0  0  0  0  0
   80.4750   32.9300    1.7090 C   0  0  0  0  0  0  0  0  0  0  0  0
   81.0820   30.8660    3.3840 C   0  0  0  0  0  0  0  0  0  0  0  0
   81.5030   30.8600    2.0910 C   0  0  0  0  0  0  0  0  0  0  0  0
   81.7340   31.7680   -0.1940 C   0  0  0  0  0  0  0  0  0  0  0  0
   81.1470   36.2680   -1.7290 C   0  0  0  0  0  0  0  0  0  0  0  0
   77.6690   35.5600   -1.3970 C   0  0  0  0  0  0  0  0  0  0  0  0
   82.0220   28.9940    3.0340 C   0  0  0  0  0  0  0  0  0  0  0  0
   79.1280   34.0040   -0.1750 C   0  0  0  0  0  0  0  0  0  0  0  0
   79.0750   35.3500   -0.8770 C   0  0  0  0  0  0  0  0  0  0  0  0
   80.0760   34.1630    0.9620 C   0  0  0  0  0  0  0  0  0  0  0  0
   82.3490   35.7650   -2.4440 C   0  0  0  0  0  0  0  0  0  0  0  0
   82.3120   36.3390   -3.8300 C   0  0  0  0  0  0  0  0  0  0  0  0
   83.4040   35.6810   -4.6300 C   0  0  0  0  0  0  0  0  0  0  0  0
   83.1630   35.9460   -6.0930 C   0  0  0  0  0  0  0  0  0  0  0  0
   83.8730   34.8920   -6.9050 C   0  0  0  0  0  0  0  0  0  0  0  0
   80.0730   35.4290   -1.9080 N   0  0  0  0  0  0  0  0  0  0  0  0
   83.6640   35.2370   -8.3260 N   0  0  0  0  0  0  0  0  0  0  0  0
   81.7330   30.6260   -0.7390 O   0  0  0  0  0  0  0  0  0  0  0  0
   82.1410   32.8110   -0.7640 O   0  0  0  0  0  0  0  0  0  0  0  0
   81.1520   37.3020   -1.0740 O   0  0  0  0  0  0  0  0  0  0  0  0
   81.4580   29.7690    4.0970 O   0  0  0  0  0  0  0  0  0  0  0  0
   82.2180   29.7270    1.8180 O   0  0  0  0  0  0  0  0  0  0  0  0
   74.0143   34.0564    1.0713 H   0  0  0  0  0  0  0  0  0  0  0  0
   75.4786   32.5189    2.3152 H   0  0  0  0  0  0  0  0  0  0  0  0
   74.9489   35.5437   -0.6876 H   0  0  0  0  0  0  0  0  0  0  0  0
   77.9049   32.3867    1.8079 H   0  0  0  0  0  0  0  0  0  0  0  0
   79.4650   33.7801    3.4013 H   0  0  0  0  0  0  0  0  0  0  0  0
   79.9944   31.8996    4.9253 H   0  0  0  0  0  0  0  0  0  0  0  0
   77.5421   35.1628   -2.4149 H   0  0  0  0  0  0  0  0  0  0  0  0
   77.3523   36.6089   -1.4940 H   0  0  0  0  0  0  0  0  0  0  0  0
   82.9972   28.6088    3.3666 H   0  0  0  0  0  0  0  0  0  0  0  0
   81.3036   28.1918    2.8095 H   0  0  0  0  0  0  0  0  0  0  0  0
   79.4554   33.1289   -0.7555 H   0  0  0  0  0  0  0  0  0  0  0  0
   79.3092   36.1629   -0.1740 H   0  0  0  0  0  0  0  0  0  0  0  0
   79.6108   34.8495    1.6847 H   0  0  0  0  0  0  0  0  0  0  0  0
   81.0072   34.5236    0.5007 H   0  0  0  0  0  0  0  0  0  0  0  0
   83.2615   36.0927   -1.9244 H   0  0  0  0  0  0  0  0  0  0  0  0
   82.3532   34.6655   -2.4762 H   0  0  0  0  0  0  0  0  0  0  0  0
   81.3350   36.1363   -4.2930 H   0  0  0  0  0  0  0  0  0  0  0  0
   82.4618   37.4283   -3.7988 H   0  0  0  0  0  0  0  0  0  0  0  0
   84.3792   36.0959   -4.3352 H   0  0  0  0  0  0  0  0  0  0  0  0
   83.4029   34.5972   -4.4420 H   0  0  0  0  0  0  0  0  0  0  0  0
   82.0837   35.9080   -6.3020 H   0  0  0  0  0  0  0  0  0  0  0  0
   83.5468   36.9420   -6.3590 H   0  0  0  0  0  0  0  0  0  0  0  0
   84.9474   34.8919   -6.6692 H   0  0  0  0  0  0  0  0  0  0  0  0
   83.4810   33.8891   -6.6800 H   0  0  0  0  0  0  0  0  0  0  0  0
   79.9850   34.8666   -2.7664 H   0  0  0  0  0  0  0  0  0  0  0  0
   83.1314   36.1162   -8.3911 H   0  0  0  0  0  0  0  0  0  0  0  0
   84.5767   35.3534   -8.7889 H   0  0  0  0  0  0  0  0  0  0  0  0
   81.7323   29.8100   -0.1784 H   0  0  0  0  0  0  0  0  0  0  0  0
  1  2  2  0
  1  3  1  0
  2  4  1  0
  3  8  2  0
  4  9  2  0
  5  6  2  0
  5 10  1  0
  6 11  1  0
  7 10  2  0
  7 12  1  0
  7 13  1  0
  8  9  1  0
  8 15  1  0
  9 17  1  0
 10 19  1  0
 11 12  2  0
 11 30  1  0
 12 31  1  0
 13 27  1  0
 13 28  2  0
 14 20  1  0
 14 25  1  0
 14 29  2  0
 15 18  1  0
 16 30  1  0
 16 31  1  0
 17 18  1  0
 17 19  1  0
 18 25  1  0
 20 21  1  0
 21 22  1  0
 22 23  1  0
 23 24  1  0
 24 26  1  0
  1 32  1  0
  2 33  1  0
  3 34  1  0
  4 35  1  0
  5 36  1  0
  6 37  1  0
 15 38  1  0
 15 39  1  0
 16 40  1  0
 16 41  1  0
 17 42  1  0
 18 43  1  0
 19 44  1  0
 19 45  1  0
 20 46  1  0
 20 47  1  0
 21 48  1  0
 21 49  1  0
 22 50  1  0
 22 51  1  0
 23 52  1  0
 23 53  1  0
 24 54  1  0
 24 55  1  0
 25 56  1  0
 26 57  1  0
 26 58  1  0
 27 59  1  0
A    1
C27
A    2
C26
A    3
C28
A    4
C25
A    5
C3
A    6
C4
A    7
C1
A    8
C23
A    9
C24
A   10
C2
A   11
C5
A   12
C6
A   13
C29
A   14
C14
A   15
C22
A   16
C8
A   17
C11
A   18
C12
A   19
C10
A   20
C16
A   21
C17
A   22
C18
A   23
C19
A   24
C20
A   25
N13
A   26
N21
A   27
O31
A   28
O30
A   29
O15
A   30
O9
A   31
O7
M  END
