4CHY_C5Q_A_1217
     RDKit          3D

 35 38  0  0  0  0  0  0  0  0999 V2000
  -19.1270   12.7200    3.2110 C   0  0  0  0  0  0  0  0  0  0  0  0
  -19.6980   11.7040    2.4820 C   0  0  0  0  0  0  0  0  0  0  0  0
  -18.1520   13.5430    2.6920 C   0  0  0  0  0  0  0  0  0  0  0  0
  -15.6710   17.1220    1.9530 C   0  0  0  0  0  0  0  0  0  0  0  0
  -19.3170   11.4540    1.1850 C   0  0  0  0  0  0  0  0  0  0  0  0
  -15.9510   18.4160    2.3200 C   0  0  0  0  0  0  0  0  0  0  0  0
  -17.7540   13.3160    1.3890 C   0  0  0  0  0  0  0  0  0  0  0  0
  -16.4030   16.4480    0.9930 C   0  0  0  0  0  0  0  0  0  0  0  0
  -17.4520   17.1060    0.3600 C   0  0  0  0  0  0  0  0  0  0  0  0
  -18.3450   12.2830    0.6830 C   0  0  0  0  0  0  0  0  0  0  0  0
  -16.9950   19.0410    1.6950 C   0  0  0  0  0  0  0  0  0  0  0  0
  -17.7220   18.4030    0.7440 C   0  0  0  0  0  0  0  0  0  0  0  0
  -16.8570   13.2440   -0.6670 C   0  0  0  0  0  0  0  0  0  0  0  0
  -16.8150   13.9350    0.5210 C   0  0  0  0  0  0  0  0  0  0  0  0
  -15.8860   15.0560    0.7540 C   0  0  0  0  0  0  0  0  0  0  0  0
  -18.3040   16.5120   -0.6820 C   0  0  0  0  0  0  0  0  0  0  0  0
  -18.4560   20.4220    0.9590 C   0  0  0  0  0  0  0  0  0  0  0  0
  -17.7900   12.2560   -0.5620 N   0  0  0  0  0  0  0  0  0  0  0  0
  -17.8650   16.5500   -1.8630 O   0  0  0  0  0  0  0  0  0  0  0  0
  -19.4050   16.0440   -0.2900 O   0  0  0  0  0  0  0  0  0  0  0  0
  -17.4200   20.3260    1.9280 O   0  0  0  0  0  0  0  0  0  0  0  0
  -18.7130   19.2160    0.2480 O   0  0  0  0  0  0  0  0  0  0  0  0
  -19.4609   12.8816    4.2466 H   0  0  0  0  0  0  0  0  0  0  0  0
  -20.4752   11.0787    2.9457 H   0  0  0  0  0  0  0  0  0  0  0  0
  -17.7073   14.3503    3.2924 H   0  0  0  0  0  0  0  0  0  0  0  0
  -14.8331   16.6027    2.4412 H   0  0  0  0  0  0  0  0  0  0  0  0
  -19.7616   10.6434    0.5890 H   0  0  0  0  0  0  0  0  0  0  0  0
  -15.3568   18.9312    3.0891 H   0  0  0  0  0  0  0  0  0  0  0  0
  -16.2407   13.4535   -1.5538 H   0  0  0  0  0  0  0  0  0  0  0  0
  -15.2333   15.1113   -0.1297 H   0  0  0  0  0  0  0  0  0  0  0  0
  -15.4281   14.7966    1.7199 H   0  0  0  0  0  0  0  0  0  0  0  0
  -19.3810   20.7212    1.4736 H   0  0  0  0  0  0  0  0  0  0  0  0
  -18.1204   21.1587    0.2143 H   0  0  0  0  0  0  0  0  0  0  0  0
  -18.0377   11.5911   -1.3086 H   0  0  0  0  0  0  0  0  0  0  0  0
  -16.8923   16.6342   -2.0271 H   0  0  0  0  0  0  0  0  0  0  0  0
  3  1  2  0
  1  2  1  0
  2  5  2  0
  3  7  1  0
  6  4  2  0
  4  8  1  0
 10  5  1  0
 11  6  1  0
 14  7  1  0
  7 10  2  0
  9  8  2  0
  8 15  1  0
 12  9  1  0
  9 16  1  0
 18 10  1  0
 21 11  1  0
 11 12  2  0
 22 12  1  0
 14 13  2  0
 13 18  1  0
 15 14  1  0
 20 16  2  0
 16 19  1  0
 17 21  1  0
 17 22  1  0
  1 23  1  0
  2 24  1  0
  3 25  1  0
  4 26  1  0
  5 27  1  0
  6 28  1  0
 13 29  1  0
 15 30  1  0
 15 31  1  0
 17 32  1  0
 17 33  1  0
 18 34  1  0
 19 35  1  0
A    1
C1
A    2
C2
A    3
C3
A    4
C4
A    5
C5
A    6
C6
A    7
C7
A    8
C8
A    9
C9
A   10
C10
A   11
C11
A   12
C12
A   13
C13
A   14
C14
A   15
C15
A   16
C16
A   17
C17
A   18
N18
A   19
O19
A   20
O20
A   21
O21
A   22
O22
M  END
