4CI4_Y1N_A_1468
     RDKit          3D

 54 56  0  0  0  0  0  0  0  0999 V2000
  -23.0700    0.7250   10.7770 C   0  0  0  0  0  0  0  0  0  0  0  0
  -23.6230   -0.3590    9.8980 C   0  0  0  0  0  0  0  0  0  0  0  0
  -24.0840   -1.4670   10.7880 C   0  0  0  0  0  0  0  0  0  0  0  0
  -22.6500   -0.8040    9.0090 O   0  0  0  0  0  0  0  0  0  0  0  0
  -21.7220    0.0440    8.4290 C   0  0  0  0  0  0  0  0  0  0  0  0
  -20.3600   -0.1760    8.5930 C   0  0  0  0  0  0  0  0  0  0  0  0
  -19.4440    0.6910    8.0090 C   0  0  0  0  0  0  0  0  0  0  0  0
  -19.8930    1.7750    7.2580 C   0  0  0  0  0  0  0  0  0  0  0  0
  -18.9580    2.7460    6.6200 C   0  0  0  0  0  0  0  0  0  0  0  0
  -18.1400    3.5710    7.5520 C   0  0  0  0  0  0  0  0  0  0  0  0
  -17.3370    2.7590    8.3180 O   0  0  0  0  0  0  0  0  0  0  0  0
  -16.5760    3.1720    9.3860 C   0  0  0  0  0  0  0  0  0  0  0  0
  -15.8740    2.1810   10.0360 C   0  0  0  0  0  0  0  0  0  0  0  0
  -15.0880    2.4790   11.1220 C   0  0  0  0  0  0  0  0  0  0  0  0
  -14.9890    3.7850   11.5580 C   0  0  0  0  0  0  0  0  0  0  0  0
  -14.1510    3.9960   12.6980 N   0  0  0  0  0  0  0  0  0  0  0  0
  -13.9030    5.0780   13.2120 N   0  0  0  0  0  0  0  0  0  0  0  0
  -13.1090    5.0350   14.4000 C   0  0  0  0  0  0  0  0  0  0  0  0
  -12.7410    6.2050   15.0500 C   0  0  0  0  0  0  0  0  0  0  0  0
  -11.9830    6.1300   16.2070 C   0  0  0  0  0  0  0  0  0  0  0  0
  -11.6000    4.8950   16.7110 C   0  0  0  0  0  0  0  0  0  0  0  0
  -11.9730    3.7260   16.0650 C   0  0  0  0  0  0  0  0  0  0  0  0
  -12.7300    3.7990   14.9090 C   0  0  0  0  0  0  0  0  0  0  0  0
  -15.6860    4.8060   10.9120 C   0  0  0  0  0  0  0  0  0  0  0  0
  -16.4890    4.4950    9.8120 C   0  0  0  0  0  0  0  0  0  0  0  0
  -21.2480    1.9930    7.0990 C   0  0  0  0  0  0  0  0  0  0  0  0
  -22.1590    1.1250    7.6730 C   0  0  0  0  0  0  0  0  0  0  0  0
  -24.8150    0.1410    9.1430 C   0  0  0  0  0  0  0  0  0  0  0  0
  -25.5490   -0.6720    8.5180 O   0  0  0  0  0  0  0  0  0  0  0  0
  -25.0780    1.3760    9.1300 O   0  0  0  0  0  0  0  0  0  0  0  0
  -23.2109    0.4488   11.8324 H   0  0  0  0  0  0  0  0  0  0  0  0
  -21.9969    0.8521   10.5713 H   0  0  0  0  0  0  0  0  0  0  0  0
  -23.5970    1.6684   10.5713 H   0  0  0  0  0  0  0  0  0  0  0  0
  -23.9598   -1.1685   11.8394 H   0  0  0  0  0  0  0  0  0  0  0  0
  -25.1450   -1.6791   10.5899 H   0  0  0  0  0  0  0  0  0  0  0  0
  -23.4866   -2.3691   10.5899 H   0  0  0  0  0  0  0  0  0  0  0  0
  -20.0074   -1.0344    9.1837 H   0  0  0  0  0  0  0  0  0  0  0  0
  -18.3651    0.5213    8.1397 H   0  0  0  0  0  0  0  0  0  0  0  0
  -18.2679    2.1777    5.9790 H   0  0  0  0  0  0  0  0  0  0  0  0
  -19.5951    3.4575    6.0742 H   0  0  0  0  0  0  0  0  0  0  0  0
  -17.5111    4.2615    6.9709 H   0  0  0  0  0  0  0  0  0  0  0  0
  -18.8101    4.1419    8.2116 H   0  0  0  0  0  0  0  0  0  0  0  0
  -15.9436    1.1418    9.6821 H   0  0  0  0  0  0  0  0  0  0  0  0
  -14.5394    1.6801   11.6424 H   0  0  0  0  0  0  0  0  0  0  0  0
  -13.0484    7.1825   14.6501 H   0  0  0  0  0  0  0  0  0  0  0  0
  -11.6839    7.0517   16.7276 H   0  0  0  0  0  0  0  0  0  0  0  0
  -10.9964    4.8430   17.6292 H   0  0  0  0  0  0  0  0  0  0  0  0
  -11.6696    2.7486   16.4683 H   0  0  0  0  0  0  0  0  0  0  0  0
  -13.0324    2.8764   14.3919 H   0  0  0  0  0  0  0  0  0  0  0  0
  -15.6043    5.8447   11.2648 H   0  0  0  0  0  0  0  0  0  0  0  0
  -17.0461    5.2859    9.2884 H   0  0  0  0  0  0  0  0  0  0  0  0
  -21.6020    2.8562    6.5163 H   0  0  0  0  0  0  0  0  0  0  0  0
  -23.2369    1.2915    7.5301 H   0  0  0  0  0  0  0  0  0  0  0  0
  -25.1829    1.8688    9.9822 H   0  0  0  0  0  0  0  0  0  0  0  0
  1  2  1  0
  2  3  1  0
  2  4  1  0
  2 28  1  0
  4  5  1  0
  5  6  2  0
  5 27  1  0
  6  7  1  0
  7  8  2  0
  8  9  1  0
  8 26  1  0
  9 10  1  0
 10 11  1  0
 11 12  1  0
 12 13  2  0
 12 25  1  0
 13 14  1  0
 14 15  2  0
 15 16  1  0
 15 24  1  0
 16 17  2  0
 17 18  1  0
 18 19  2  0
 18 23  1  0
 19 20  1  0
 20 21  2  0
 21 22  1  0
 22 23  2  0
 24 25  2  0
 26 27  2  0
 28 29  2  0
 28 30  1  0
  1 31  1  0
  1 32  1  0
  1 33  1  0
  3 34  1  0
  3 35  1  0
  3 36  1  0
  6 37  1  0
  7 38  1  0
  9 39  1  0
  9 40  1  0
 10 41  1  0
 10 42  1  0
 13 43  1  0
 14 44  1  0
 19 45  1  0
 20 46  1  0
 21 47  1  0
 22 48  1  0
 23 49  1  0
 24 50  1  0
 25 51  1  0
 26 52  1  0
 27 53  1  0
 30 54  1  0
A    1
C01
A    2
C02
A    3
C03
A    4
O04
A    5
C05
A    6
C06
A    7
C07
A    8
C08
A    9
C09
A   10
C10
A   11
O11
A   12
C12
A   13
C13
A   14
C14
A   15
C15
A   16
N16
A   17
N17
A   18
C18
A   19
C19
A   20
C20
A   21
C21
A   22
C22
A   23
C23
A   24
C24
A   25
C25
A   26
C26
A   27
C27
A   28
C28
A   29
O29
A   30
O30
M  END
