4CIF_JDX_A_1216
     RDKit          3D

 61 63  0  0  0  0  0  0  0  0999 V2000
   10.7780  -48.2930    5.7590 C   0  0  0  0  0  0  0  0  0  0  0  0
   11.6970  -49.0130    5.0270 C   0  0  0  0  0  0  0  0  0  0  0  0
    9.6870  -47.7220    5.1350 C   0  0  0  0  0  0  0  0  0  0  0  0
   11.5260  -49.1600    3.6670 C   0  0  0  0  0  0  0  0  0  0  0  0
   11.1610  -45.4230   -1.5000 C   0  0  0  0  0  0  0  0  0  0  0  0
    8.4050  -43.2750    1.8330 C   0  0  0  0  0  0  0  0  0  0  0  0
    7.3350  -44.8230    0.3680 C   0  0  0  0  0  0  0  0  0  0  0  0
   11.8660  -44.8100   -2.5130 C   0  0  0  0  0  0  0  0  0  0  0  0
    8.8970  -42.5780    0.7500 C   0  0  0  0  0  0  0  0  0  0  0  0
    7.8210  -44.1320   -0.7210 C   0  0  0  0  0  0  0  0  0  0  0  0
    9.5240  -47.8720    3.7740 C   0  0  0  0  0  0  0  0  0  0  0  0
   13.1540  -45.6370   -0.1890 C   0  0  0  0  0  0  0  0  0  0  0  0
    7.6260  -44.3980    1.6460 C   0  0  0  0  0  0  0  0  0  0  0  0
   10.4430  -48.5920    3.0320 C   0  0  0  0  0  0  0  0  0  0  0  0
   11.7890  -45.8350   -0.3400 C   0  0  0  0  0  0  0  0  0  0  0  0
   13.2210  -44.6120   -2.3710 C   0  0  0  0  0  0  0  0  0  0  0  0
   13.8500  -45.0250   -1.2150 C   0  0  0  0  0  0  0  0  0  0  0  0
    8.6010  -43.0140   -0.5260 C   0  0  0  0  0  0  0  0  0  0  0  0
    8.3510  -47.2550    3.1290 C   0  0  0  0  0  0  0  0  0  0  0  0
   13.8890  -46.0490    1.0410 C   0  0  0  0  0  0  0  0  0  0  0  0
   15.7950  -44.5110   -2.3110 C   0  0  0  0  0  0  0  0  0  0  0  0
    9.9230  -41.3010   -1.2480 C   0  0  0  0  0  0  0  0  0  0  0  0
    7.1020  -45.1490    2.8240 C   0  0  0  0  0  0  0  0  0  0  0  0
   10.2940  -48.7760    1.5600 C   0  0  0  0  0  0  0  0  0  0  0  0
   10.9510  -46.5010    0.7050 C   0  0  0  0  0  0  0  0  0  0  0  0
    8.1510  -45.9300    3.4380 N   0  0  0  0  0  0  0  0  0  0  0  0
   11.2470  -47.9710    0.7530 N   0  0  0  0  0  0  0  0  0  0  0  0
   13.5510  -47.1110    1.6330 O   0  0  0  0  0  0  0  0  0  0  0  0
    7.6480  -47.9280    2.3890 O   0  0  0  0  0  0  0  0  0  0  0  0
   14.8020  -45.2580    1.4280 O   0  0  0  0  0  0  0  0  0  0  0  0
   15.2120  -44.8400   -1.0550 O   0  0  0  0  0  0  0  0  0  0  0  0
   11.4180  -48.6280   -0.5710 C   0  0  0  0  0  0  0  0  0  0  0  0
    9.0650  -42.3600   -1.6540 O   0  0  0  0  0  0  0  0  0  0  0  0
   10.9141  -48.1729    6.8439 H   0  0  0  0  0  0  0  0  0  0  0  0
   12.5645  -49.4691    5.5264 H   0  0  0  0  0  0  0  0  0  0  0  0
    8.9517  -47.1504    5.7203 H   0  0  0  0  0  0  0  0  0  0  0  0
   12.2601  -49.7354    3.0840 H   0  0  0  0  0  0  0  0  0  0  0  0
   10.0796  -45.5872   -1.6168 H   0  0  0  0  0  0  0  0  0  0  0  0
    8.6352  -42.9334    2.8530 H   0  0  0  0  0  0  0  0  0  0  0  0
    6.7125  -45.7171    0.2163 H   0  0  0  0  0  0  0  0  0  0  0  0
   11.3504  -44.4816   -3.4275 H   0  0  0  0  0  0  0  0  0  0  0  0
    9.5191  -41.6835    0.9011 H   0  0  0  0  0  0  0  0  0  0  0  0
    7.5870  -44.4718   -1.7407 H   0  0  0  0  0  0  0  0  0  0  0  0
   13.7975  -44.1282   -3.1732 H   0  0  0  0  0  0  0  0  0  0  0  0
   16.7423  -43.9764   -2.1468 H   0  0  0  0  0  0  0  0  0  0  0  0
   15.9881  -45.4333   -2.8785 H   0  0  0  0  0  0  0  0  0  0  0  0
   15.1053  -43.8689   -2.8785 H   0  0  0  0  0  0  0  0  0  0  0  0
    9.9578  -41.2580   -0.1494 H   0  0  0  0  0  0  0  0  0  0  0  0
   10.9353  -41.4783   -1.6403 H   0  0  0  0  0  0  0  0  0  0  0  0
    9.5396  -40.3475   -1.6403 H   0  0  0  0  0  0  0  0  0  0  0  0
    6.7051  -44.4348    3.5604 H   0  0  0  0  0  0  0  0  0  0  0  0
    6.3063  -45.8288    2.4853 H   0  0  0  0  0  0  0  0  0  0  0  0
   10.4537  -49.8389    1.3259 H   0  0  0  0  0  0  0  0  0  0  0  0
    9.2828  -48.4326    1.2961 H   0  0  0  0  0  0  0  0  0  0  0  0
   11.1718  -46.0544    1.6857 H   0  0  0  0  0  0  0  0  0  0  0  0
    9.8892  -46.3584    0.4557 H   0  0  0  0  0  0  0  0  0  0  0  0
    8.7685  -45.4802    4.1289 H   0  0  0  0  0  0  0  0  0  0  0  0
   14.9606  -45.1206    2.3955 H   0  0  0  0  0  0  0  0  0  0  0  0
   11.6926  -49.6830   -0.4241 H   0  0  0  0  0  0  0  0  0  0  0  0
   10.4747  -48.5696   -1.1339 H   0  0  0  0  0  0  0  0  0  0  0  0
   12.2131  -48.1171   -1.1339 H   0  0  0  0  0  0  0  0  0  0  0  0
  1  2  2  0
  1  3  1  0
  2  4  1  0
  3 11  2  0
  4 14  2  0
  5  8  2  0
  5 15  1  0
  6  9  2  0
  6 13  1  0
  7 10  1  0
  7 13  2  0
  8 16  1  0
  9 18  1  0
 10 18  2  0
 11 14  1  0
 11 19  1  0
 12 15  2  0
 12 17  1  0
 12 20  1  0
 13 23  1  0
 14 24  1  0
 15 25  1  0
 16 17  2  0
 17 31  1  0
 18 33  1  0
 19 26  1  0
 19 29  2  0
 20 28  2  0
 20 30  1  0
 21 31  1  0
 22 33  1  0
 23 26  1  0
 24 27  1  0
 25 27  1  0
 27 32  1  0
  1 34  1  0
  2 35  1  0
  3 36  1  0
  4 37  1  0
  5 38  1  0
  6 39  1  0
  7 40  1  0
  8 41  1  0
  9 42  1  0
 10 43  1  0
 16 44  1  0
 21 45  1  0
 21 46  1  0
 21 47  1  0
 22 48  1  0
 22 49  1  0
 22 50  1  0
 23 51  1  0
 23 52  1  0
 24 53  1  0
 24 54  1  0
 25 55  1  0
 25 56  1  0
 26 57  1  0
 30 58  1  0
 32 59  1  0
 32 60  1  0
 32 61  1  0
A    1
C15
A    2
C16
A    3
C14
A    4
C17
A    5
C23
A    6
C6
A    7
C10
A    8
C24
A    9
C7
A   10
C9
A   11
C13
A   12
C30
A   13
C5
A   14
C18
A   15
C22
A   16
C25
A   17
C29
A   18
C8
A   19
C2
A   20
C31
A   21
C27
A   22
C12
A   23
C4
A   24
C19
A   25
C21
A   26
N3
A   27
N20
A   28
O33
A   29
O1
A   30
O32
A   31
O28
A   32
C20
A   33
O11
M  END
