4CIK_XO3_A_1081
     RDKit          3D

 37 39  0  0  0  0  0  0  0  0999 V2000
   -5.3960   -0.2270   14.8560 C   0  0  0  0  0  0  0  0  0  0  0  0
   -5.1110   -1.7360   14.8780 C   0  0  0  0  0  0  0  0  0  0  0  0
   -4.8730   -2.0500   16.3110 N   0  0  0  0  0  0  0  0  0  0  0  0
   -6.1280   -1.9030   17.0750 C   0  0  0  0  0  0  0  0  0  0  0  0
   -6.4870   -0.3940   17.1200 C   0  0  0  0  0  0  0  0  0  0  0  0
   -6.6790    0.0330   15.6650 C   0  0  0  0  0  0  0  0  0  0  0  0
   -7.0400    1.4830   15.6830 C   0  0  0  0  0  0  0  0  0  0  0  0
   -8.2250    1.9820   16.0570 O   0  0  0  0  0  0  0  0  0  0  0  0
   -8.2450    3.1970   15.9620 N   0  0  0  0  0  0  0  0  0  0  0  0
   -7.0390    3.6490   15.5650 C   0  0  0  0  0  0  0  0  0  0  0  0
   -6.2170    2.5040   15.3760 C   0  0  0  0  0  0  0  0  0  0  0  0
   -6.7020    4.7930   15.3760 O   0  0  0  0  0  0  0  0  0  0  0  0
   -5.8650   -2.3160   18.5200 C   0  0  0  0  0  0  0  0  0  0  0  0
   -7.1620   -2.4830   19.2880 C   0  0  0  0  0  0  0  0  0  0  0  0
   -7.3620   -1.7480   20.4490 C   0  0  0  0  0  0  0  0  0  0  0  0
   -8.5200   -1.9150   21.1930 C   0  0  0  0  0  0  0  0  0  0  0  0
   -9.5010   -2.7950   20.7600 C   0  0  0  0  0  0  0  0  0  0  0  0
   -9.2860   -3.5420   19.6130 C   0  0  0  0  0  0  0  0  0  0  0  0
   -8.1260   -3.3820   18.8710 C   0  0  0  0  0  0  0  0  0  0  0  0
   -4.5540    0.3174   15.3084 H   0  0  0  0  0  0  0  0  0  0  0  0
   -5.5237    0.1200   13.8200 H   0  0  0  0  0  0  0  0  0  0  0  0
   -5.9740   -2.3001   14.4947 H   0  0  0  0  0  0  0  0  0  0  0  0
   -4.2554   -2.0089   14.2428 H   0  0  0  0  0  0  0  0  0  0  0  0
   -4.5332   -3.0186   16.3961 H   0  0  0  0  0  0  0  0  0  0  0  0
   -6.9227   -2.5080   16.6141 H   0  0  0  0  0  0  0  0  0  0  0  0
   -7.4145   -0.2380   17.6904 H   0  0  0  0  0  0  0  0  0  0  0  0
   -5.6996    0.1945   17.6137 H   0  0  0  0  0  0  0  0  0  0  0  0
   -7.4767   -0.5471   15.1779 H   0  0  0  0  0  0  0  0  0  0  0  0
   -9.0635    3.7912   16.1566 H   0  0  0  0  0  0  0  0  0  0  0  0
   -5.1652    2.4624   15.0568 H   0  0  0  0  0  0  0  0  0  0  0  0
   -5.3188   -3.2708   18.5264 H   0  0  0  0  0  0  0  0  0  0  0  0
   -5.2723   -1.5265   19.0053 H   0  0  0  0  0  0  0  0  0  0  0  0
   -6.5977   -1.0295   20.7802 H   0  0  0  0  0  0  0  0  0  0  0  0
   -8.6607   -1.3499   22.1262 H   0  0  0  0  0  0  0  0  0  0  0  0
  -10.4409   -2.8988   21.3220 H   0  0  0  0  0  0  0  0  0  0  0  0
  -10.0439   -4.2698   19.2877 H   0  0  0  0  0  0  0  0  0  0  0  0
   -7.9730   -3.9686   17.9531 H   0  0  0  0  0  0  0  0  0  0  0  0
  1  2  1  0
  1  6  1  0
  2  3  1  0
  3  4  1  0
  4  5  1  0
  4 13  1  0
  5  6  1  0
  6  7  1  0
  7  8  1  0
  7 11  2  0
  8  9  1  0
  9 10  1  0
 10 11  1  0
 10 12  2  0
 13 14  1  0
 14 15  2  0
 14 19  1  0
 15 16  1  0
 16 17  2  0
 17 18  1  0
 18 19  2  0
  1 20  1  0
  1 21  1  0
  2 22  1  0
  2 23  1  0
  3 24  1  0
  4 25  1  0
  5 26  1  0
  5 27  1  0
  6 28  1  0
  9 29  1  0
 11 30  1  0
 13 31  1  0
 13 32  1  0
 15 33  1  0
 16 34  1  0
 17 35  1  0
 18 36  1  0
 19 37  1  0
A    1
C1
A    2
C2
A    3
N3
A    4
C4
A    5
C5
A    6
C6
A    7
C7
A    8
O8
A    9
N9
A   10
C10
A   11
C11
A   12
O12
A   13
C13
A   14
C14
A   15
C15
A   16
C16
A   17
C17
A   18
C18
A   19
C19
M  END
