4CIX_W4N_A_1143
     RDKit          3D

 39 40  0  0  0  0  0  0  0  0999 V2000
    6.4620  -31.1470  -46.5600 C   0  0  0  0  0  0  0  0  0  0  0  0
    5.1520  -31.6220  -46.4710 C   0  0  0  0  0  0  0  0  0  0  0  0
    4.1440  -31.0020  -47.2070 C   0  0  0  0  0  0  0  0  0  0  0  0
    4.4340  -29.9150  -48.0350 C   0  0  0  0  0  0  0  0  0  0  0  0
    5.7430  -29.4430  -48.1270 C   0  0  0  0  0  0  0  0  0  0  0  0
    6.7650  -30.0560  -47.3890 C   0  0  0  0  0  0  0  0  0  0  0  0
    8.0810  -29.5880  -47.4840 C   0  0  0  0  0  0  0  0  0  0  0  0
    8.2600  -28.3370  -46.6250 C   0  0  0  0  0  0  0  0  0  0  0  0
    9.3680  -27.5560  -47.1310 O   0  0  0  0  0  0  0  0  0  0  0  0
    8.4180  -28.7170  -45.2780 C   0  0  0  0  0  0  0  0  0  0  0  0
    7.2700  -28.7030  -44.4830 C   0  0  0  0  0  0  0  0  0  0  0  0
    7.2200  -29.0660  -43.1350 C   0  0  0  0  0  0  0  0  0  0  0  0
    6.0870  -29.8820  -42.9560 C   0  0  0  0  0  0  0  0  0  0  0  0
    6.2420  -31.1100  -42.7890 O   0  0  0  0  0  0  0  0  0  0  0  0
    4.9810  -29.3180  -43.0050 O   0  0  0  0  0  0  0  0  0  0  0  0
    7.0540  -27.8900  -42.3490 O   0  0  0  0  0  0  0  0  0  0  0  0
    8.4640  -29.7960  -42.6720 C   0  0  0  0  0  0  0  0  0  0  0  0
    9.6810  -29.0590  -43.2390 C   0  0  0  0  0  0  0  0  0  0  0  0
   10.9080  -29.6970  -42.7860 O   0  0  0  0  0  0  0  0  0  0  0  0
    9.6620  -29.1260  -44.7650 C   0  0  0  0  0  0  0  0  0  0  0  0
   10.7200  -28.2780  -45.2190 O   0  0  0  0  0  0  0  0  0  0  0  0
    7.2603  -31.6303  -45.9776 H   0  0  0  0  0  0  0  0  0  0  0  0
    4.9171  -32.4801  -45.8241 H   0  0  0  0  0  0  0  0  0  0  0  0
    3.1106  -31.3720  -47.1353 H   0  0  0  0  0  0  0  0  0  0  0  0
    3.6320  -29.4326  -48.6129 H   0  0  0  0  0  0  0  0  0  0  0  0
    5.9739  -28.5883  -48.7798 H   0  0  0  0  0  0  0  0  0  0  0  0
    8.7709  -30.3703  -47.1346 H   0  0  0  0  0  0  0  0  0  0  0  0
    8.2976  -29.3370  -48.5328 H   0  0  0  0  0  0  0  0  0  0  0  0
    7.3689  -27.6942  -46.6771 H   0  0  0  0  0  0  0  0  0  0  0  0
    9.8875  -27.1898  -46.3720 H   0  0  0  0  0  0  0  0  0  0  0  0
    6.3306  -28.3806  -44.9558 H   0  0  0  0  0  0  0  0  0  0  0  0
    6.2891  -31.4830  -41.8731 H   0  0  0  0  0  0  0  0  0  0  0  0
    7.0875  -28.1276  -41.3885 H   0  0  0  0  0  0  0  0  0  0  0  0
    8.5079  -29.7995  -41.5729 H   0  0  0  0  0  0  0  0  0  0  0  0
    8.4495  -30.8383  -43.0231 H   0  0  0  0  0  0  0  0  0  0  0  0
    9.6419  -28.0149  -42.8950 H   0  0  0  0  0  0  0  0  0  0  0  0
   10.9285  -29.7076  -41.7963 H   0  0  0  0  0  0  0  0  0  0  0  0
    9.8090  -30.1577  -45.1172 H   0  0  0  0  0  0  0  0  0  0  0  0
   11.1954  -27.8969  -44.4387 H   0  0  0  0  0  0  0  0  0  0  0  0
  1  2  2  0
  1  6  1  0
  2  3  1  0
  3  4  2  0
  4  5  1  0
  5  6  2  0
  6  7  1  0
  7  8  1  0
  8  9  1  0
  8 10  1  0
 10 11  2  0
 10 20  1  0
 11 12  1  0
 12 13  1  0
 12 16  1  0
 12 17  1  0
 13 14  1  0
 13 15  2  0
 17 18  1  0
 18 19  1  0
 18 20  1  0
 20 21  1  0
  1 22  1  0
  2 23  1  0
  3 24  1  0
  4 25  1  0
  5 26  1  0
  7 27  1  0
  7 28  1  0
  8 29  1  0
  9 30  1  0
 11 31  1  0
 14 32  1  0
 16 33  1  0
 17 34  1  0
 17 35  1  0
 18 36  1  0
 19 37  1  0
 20 38  1  0
 21 39  1  0
A    1
CAK
A    2
CAI
A    3
CAH
A    4
CAJ
A    5
CAL
A    6
CAQ
A    7
CAM
A    8
CAR
A    9
OAC
A   10
CAP
A   11
CAG
A   12
CAU
A   13
CAO
A   14
OAB
A   15
OAA
A   16
OAF
A   17
CAN
A   18
CAS
A   19
OAD
A   20
CAT
A   21
OAE
M  END
