4CJ4_S3G_A_1217
     RDKit          3D

 52 54  0  0  0  0  0  0  0  0999 V2000
  -11.2580   44.2170   -1.8040 C   0  0  0  0  0  0  0  0  0  0  0  0
  -12.1510   44.2180   -2.8540 C   0  0  0  0  0  0  0  0  0  0  0  0
  -10.8670   49.4760    3.1290 C   0  0  0  0  0  0  0  0  0  0  0  0
   -9.3590   48.0840    4.3370 C   0  0  0  0  0  0  0  0  0  0  0  0
  -11.4340   49.8090    4.3400 C   0  0  0  0  0  0  0  0  0  0  0  0
  -10.0000   48.4850    5.4870 C   0  0  0  0  0  0  0  0  0  0  0  0
   -9.8120   48.5960    3.1450 C   0  0  0  0  0  0  0  0  0  0  0  0
  -12.8890   45.1580   -0.3010 C   0  0  0  0  0  0  0  0  0  0  0  0
  -11.6080   44.6820   -0.5430 C   0  0  0  0  0  0  0  0  0  0  0  0
  -13.4080   44.6940   -2.5980 C   0  0  0  0  0  0  0  0  0  0  0  0
  -13.7600   45.1490   -1.3640 C   0  0  0  0  0  0  0  0  0  0  0  0
   -9.1670   48.2030    1.8930 C   0  0  0  0  0  0  0  0  0  0  0  0
  -13.3800   45.6780    1.0100 C   0  0  0  0  0  0  0  0  0  0  0  0
  -15.5020   45.0450   -2.5900 C   0  0  0  0  0  0  0  0  0  0  0  0
   -7.4570   42.6850    0.2260 C   0  0  0  0  0  0  0  0  0  0  0  0
   -6.8800   43.2720    2.5690 C   0  0  0  0  0  0  0  0  0  0  0  0
  -10.5740   44.6140    0.5350 C   0  0  0  0  0  0  0  0  0  0  0  0
   -8.2180   44.8770    1.2510 C   0  0  0  0  0  0  0  0  0  0  0  0
   -9.3550   46.6880   -0.0210 C   0  0  0  0  0  0  0  0  0  0  0  0
   -7.9330   43.3920    1.4800 C   0  0  0  0  0  0  0  0  0  0  0  0
   -9.2310   45.1870    0.1600 C   0  0  0  0  0  0  0  0  0  0  0  0
  -11.0310   49.3360    5.5250 N   0  0  0  0  0  0  0  0  0  0  0  0
   -9.9210   47.3320    1.1400 N   0  0  0  0  0  0  0  0  0  0  0  0
  -14.4820   45.2350    1.4360 O   0  0  0  0  0  0  0  0  0  0  0  0
   -8.0650   48.6550    1.6190 O   0  0  0  0  0  0  0  0  0  0  0  0
  -12.6750   46.5540    1.5890 O   0  0  0  0  0  0  0  0  0  0  0  0
  -14.4310   44.7680   -3.4940 O   0  0  0  0  0  0  0  0  0  0  0  0
  -15.0590   45.5680   -1.3310 O   0  0  0  0  0  0  0  0  0  0  0  0
  -10.2391   43.8371   -1.9695 H   0  0  0  0  0  0  0  0  0  0  0  0
  -11.8662   43.8529   -3.8518 H   0  0  0  0  0  0  0  0  0  0  0  0
  -11.2444   49.8984    2.1860 H   0  0  0  0  0  0  0  0  0  0  0  0
   -8.5149   47.3794    4.3708 H   0  0  0  0  0  0  0  0  0  0  0  0
  -12.2783   50.5141    4.3319 H   0  0  0  0  0  0  0  0  0  0  0  0
   -9.6388   48.0767    6.4424 H   0  0  0  0  0  0  0  0  0  0  0  0
  -16.1724   45.7811   -3.0577 H   0  0  0  0  0  0  0  0  0  0  0  0
  -16.0117   44.0918   -2.3862 H   0  0  0  0  0  0  0  0  0  0  0  0
   -6.8629   41.8025    0.5057 H   0  0  0  0  0  0  0  0  0  0  0  0
   -8.3264   42.3682   -0.3687 H   0  0  0  0  0  0  0  0  0  0  0  0
   -6.8364   43.3714   -0.3687 H   0  0  0  0  0  0  0  0  0  0  0  0
   -7.3644   43.3272    3.5551 H   0  0  0  0  0  0  0  0  0  0  0  0
   -6.3584   42.3086    2.4701 H   0  0  0  0  0  0  0  0  0  0  0  0
   -6.1550   44.0933    2.4701 H   0  0  0  0  0  0  0  0  0  0  0  0
  -10.9514   45.1688    1.4066 H   0  0  0  0  0  0  0  0  0  0  0  0
  -10.4089   43.5457    0.7387 H   0  0  0  0  0  0  0  0  0  0  0  0
   -8.5952   45.2993    2.1940 H   0  0  0  0  0  0  0  0  0  0  0  0
   -7.2681   45.3195    0.9166 H   0  0  0  0  0  0  0  0  0  0  0  0
   -8.3546   47.1064   -0.2058 H   0  0  0  0  0  0  0  0  0  0  0  0
  -10.0287   46.8712   -0.8710 H   0  0  0  0  0  0  0  0  0  0  0  0
   -8.8729   42.9043    1.7780 H   0  0  0  0  0  0  0  0  0  0  0  0
   -8.8897   44.7354   -0.7831 H   0  0  0  0  0  0  0  0  0  0  0  0
  -10.8967   47.1383    1.4071 H   0  0  0  0  0  0  0  0  0  0  0  0
  -14.6457   45.1692    2.4101 H   0  0  0  0  0  0  0  0  0  0  0  0
  1  2  2  0
  1  9  1  0
  2 10  1  0
  3  5  2  0
  3  7  1  0
  4  6  1  0
  4  7  2  0
  5 22  1  0
  6 22  2  0
  7 12  1  0
  8  9  2  0
  8 11  1  0
  8 13  1  0
  9 17  1  0
 10 11  2  0
 10 27  1  0
 11 28  1  0
 12 23  1  0
 12 25  2  0
 13 24  1  0
 13 26  2  0
 14 27  1  0
 14 28  1  0
 15 20  1  0
 16 20  1  0
 17 21  1  0
 18 20  1  0
 18 21  1  0
 19 21  1  0
 19 23  1  0
  1 29  1  0
  2 30  1  0
  3 31  1  0
  4 32  1  0
  5 33  1  0
  6 34  1  0
 14 35  1  0
 14 36  1  0
 15 37  1  0
 15 38  1  0
 15 39  1  0
 16 40  1  0
 16 41  1  0
 16 42  1  0
 17 43  1  0
 17 44  1  0
 18 45  1  0
 18 46  1  0
 19 47  1  0
 19 48  1  0
 20 49  1  0
 21 50  1  0
 23 51  1  0
 24 52  1  0
A    1
C1
A    2
C2
A    3
C3
A    4
C4
A    5
C5
A    6
C6
A    7
C7
A    8
C8
A    9
C9
A   10
C10
A   11
C11
A   12
C12
A   13
C13
A   14
C14
A   15
C15
A   16
C16
A   17
C17
A   18
C18
A   19
C19
A   20
C20
A   21
C21
A   22
N22
A   23
N23
A   24
O24
A   25
O25
A   26
O26
A   27
O27
A   28
O28
M  END
