4CJL_9PA_A_1216
     RDKit          3D

 57 58  0  0  0  0  0  0  0  0999 V2000
  -14.4070   45.3740  -14.1470 O   0  0  0  0  0  0  0  0  0  0  0  0
  -13.2920   45.7690  -14.5810 C   0  0  0  0  0  0  0  0  0  0  0  0
  -12.5540   46.6110  -13.9990 O   0  0  0  0  0  0  0  0  0  0  0  0
  -12.8350   45.2290  -15.8960 C   0  0  0  0  0  0  0  0  0  0  0  0
  -13.7270   45.2340  -16.9450 C   0  0  0  0  0  0  0  0  0  0  0  0
  -15.0180   45.6840  -16.9000 O   0  0  0  0  0  0  0  0  0  0  0  0
  -15.5030   45.1160  -18.1220 C   0  0  0  0  0  0  0  0  0  0  0  0
  -14.4580   44.8560  -19.0590 O   0  0  0  0  0  0  0  0  0  0  0  0
  -13.4120   44.7600  -18.1810 C   0  0  0  0  0  0  0  0  0  0  0  0
  -12.1670   44.2510  -18.4510 C   0  0  0  0  0  0  0  0  0  0  0  0
  -11.2550   44.2390  -17.4170 C   0  0  0  0  0  0  0  0  0  0  0  0
  -11.5690   44.7240  -16.1520 C   0  0  0  0  0  0  0  0  0  0  0  0
  -10.5110   44.6400  -15.0930 C   0  0  0  0  0  0  0  0  0  0  0  0
   -9.1670   45.2330  -15.4490 C   0  0  0  0  0  0  0  0  0  0  0  0
   -9.2790   46.7310  -15.6550 C   0  0  0  0  0  0  0  0  0  0  0  0
   -9.9080   47.3990  -14.5360 N   0  0  0  0  0  0  0  0  0  0  0  0
   -9.2030   48.3290  -13.8030 C   0  0  0  0  0  0  0  0  0  0  0  0
   -8.0360   48.6370  -13.9990 O   0  0  0  0  0  0  0  0  0  0  0  0
  -10.0240   48.9640  -12.7210 C   0  0  0  0  0  0  0  0  0  0  0  0
   -9.4610   48.5720  -11.3760 C   0  0  0  0  0  0  0  0  0  0  0  0
  -10.4700   48.9140  -10.3040 C   0  0  0  0  0  0  0  0  0  0  0  0
   -9.7630   49.0780   -8.9790 C   0  0  0  0  0  0  0  0  0  0  0  0
  -10.7700   49.4010   -7.9340 N   0  0  0  0  0  0  0  0  0  0  0  0
   -8.1740   44.9640  -14.3290 C   0  0  0  0  0  0  0  0  0  0  0  0
   -7.9350   43.4900  -14.0150 C   0  0  0  0  0  0  0  0  0  0  0  0
   -7.5320   42.7050  -15.2510 C   0  0  0  0  0  0  0  0  0  0  0  0
   -6.8470   43.3850  -12.9570 C   0  0  0  0  0  0  0  0  0  0  0  0
  -14.5667   45.3174  -13.1716 H   0  0  0  0  0  0  0  0  0  0  0  0
  -16.0138   44.1693  -17.8922 H   0  0  0  0  0  0  0  0  0  0  0  0
  -16.1874   45.8453  -18.5799 H   0  0  0  0  0  0  0  0  0  0  0  0
  -11.9075   43.8689  -19.4493 H   0  0  0  0  0  0  0  0  0  0  0  0
  -10.2486   43.8336  -17.5981 H   0  0  0  0  0  0  0  0  0  0  0  0
  -10.8849   45.1652  -14.2017 H   0  0  0  0  0  0  0  0  0  0  0  0
  -10.3296   43.5659  -14.9403 H   0  0  0  0  0  0  0  0  0  0  0  0
   -8.8208   44.7654  -16.3825 H   0  0  0  0  0  0  0  0  0  0  0  0
   -8.2689   47.1449  -15.7904 H   0  0  0  0  0  0  0  0  0  0  0  0
   -9.9078   46.9003  -16.5416 H   0  0  0  0  0  0  0  0  0  0  0  0
  -10.8831   47.1793  -14.2872 H   0  0  0  0  0  0  0  0  0  0  0  0
   -9.9915   50.0582  -12.8287 H   0  0  0  0  0  0  0  0  0  0  0  0
  -11.0666   48.6220  -12.7992 H   0  0  0  0  0  0  0  0  0  0  0  0
   -9.2588   47.4908  -11.3613 H   0  0  0  0  0  0  0  0  0  0  0  0
   -8.5229   49.1162  -11.1919 H   0  0  0  0  0  0  0  0  0  0  0  0
  -10.9792   49.8531  -10.5663 H   0  0  0  0  0  0  0  0  0  0  0  0
  -11.2102   48.1041  -10.2262 H   0  0  0  0  0  0  0  0  0  0  0  0
   -9.2463   48.1427   -8.7177 H   0  0  0  0  0  0  0  0  0  0  0  0
   -9.0237   49.8895   -9.0484 H   0  0  0  0  0  0  0  0  0  0  0  0
  -10.3526   49.2671   -7.0019 H   0  0  0  0  0  0  0  0  0  0  0  0
  -11.0707   50.3806   -8.0381 H   0  0  0  0  0  0  0  0  0  0  0  0
   -7.2105   45.4123  -14.6130 H   0  0  0  0  0  0  0  0  0  0  0  0
   -8.6112   45.4035  -13.4203 H   0  0  0  0  0  0  0  0  0  0  0  0
   -8.8756   43.0561  -13.6449 H   0  0  0  0  0  0  0  0  0  0  0  0
   -7.0492   41.7646  -14.9468 H   0  0  0  0  0  0  0  0  0  0  0  0
   -8.4264   42.4807  -15.8507 H   0  0  0  0  0  0  0  0  0  0  0  0
   -6.8284   43.3011  -15.8507 H   0  0  0  0  0  0  0  0  0  0  0  0
   -7.3027   43.4290  -11.9568 H   0  0  0  0  0  0  0  0  0  0  0  0
   -6.3121   42.4311  -13.0746 H   0  0  0  0  0  0  0  0  0  0  0  0
   -6.1395   44.2190  -13.0746 H   0  0  0  0  0  0  0  0  0  0  0  0
  2  1  1  0
  4  2  1  0
  2  3  2  0
  5  4  2  0
 12  4  1  0
  9  5  1  0
  5  6  1  0
  7  6  1  0
  8  7  1  0
  8  9  1  0
 10  9  2  0
 10 11  1  0
 11 12  2  0
 12 13  1  0
 14 13  1  0
 15 14  1  0
 14 24  1  0
 15 16  1  0
 16 17  1  0
 18 17  2  0
 17 19  1  0
 19 20  1  0
 20 21  1  0
 21 22  1  0
 22 23  1  0
 24 25  1  0
 26 25  1  0
 25 27  1  0
  1 28  1  0
  7 29  1  0
  7 30  1  0
 10 31  1  0
 11 32  1  0
 13 33  1  0
 13 34  1  0
 14 35  1  0
 15 36  1  0
 15 37  1  0
 16 38  1  0
 19 39  1  0
 19 40  1  0
 20 41  1  0
 20 42  1  0
 21 43  1  0
 21 44  1  0
 22 45  1  0
 22 46  1  0
 23 47  1  0
 23 48  1  0
 24 49  1  0
 24 50  1  0
 25 51  1  0
 26 52  1  0
 26 53  1  0
 26 54  1  0
 27 55  1  0
 27 56  1  0
 27 57  1  0
A    1
O1
A    2
C2
A    3
O3
A    4
C4
A    5
C5
A    6
O6
A    7
C7
A    8
O8
A    9
C9
A   10
C10
A   11
C11
A   12
C12
A   13
C13
A   14
C14
A   15
C15
A   16
N16
A   17
C17
A   18
O18
A   19
C19
A   20
C20
A   21
C21
A   22
C22
A   23
N23
A   24
C24
A   25
C25
A   26
C26
A   27
C27
M  END
