4CJS_L0Y_A_1217
     RDKit          3D

 65 68  0  0  0  0  0  0  0  0999 V2000
   36.3380  -33.1990   -6.2630 C   0  0  0  0  0  0  0  0  0  0  0  0
   36.5730  -34.3960   -5.6240 C   0  0  0  0  0  0  0  0  0  0  0  0
   36.3220  -32.0230   -5.5460 C   0  0  0  0  0  0  0  0  0  0  0  0
   36.7920  -34.4190   -4.2630 C   0  0  0  0  0  0  0  0  0  0  0  0
   33.6840  -32.7050    1.0410 C   0  0  0  0  0  0  0  0  0  0  0  0
   32.8090  -33.0820    2.0360 C   0  0  0  0  0  0  0  0  0  0  0  0
   36.5410  -32.0550   -4.1850 C   0  0  0  0  0  0  0  0  0  0  0  0
   32.8880  -34.4750   -0.3820 C   0  0  0  0  0  0  0  0  0  0  0  0
   36.7760  -33.2510   -3.5340 C   0  0  0  0  0  0  0  0  0  0  0  0
   33.7250  -33.3900   -0.1570 C   0  0  0  0  0  0  0  0  0  0  0  0
   31.9790  -34.1590    1.8220 C   0  0  0  0  0  0  0  0  0  0  0  0
   32.0100  -34.8530    0.6240 C   0  0  0  0  0  0  0  0  0  0  0  0
   36.5160  -30.7860   -3.4410 C   0  0  0  0  0  0  0  0  0  0  0  0
   32.9200  -35.1980   -1.6890 C   0  0  0  0  0  0  0  0  0  0  0  0
   31.9290  -28.6290   -0.4540 C   0  0  0  0  0  0  0  0  0  0  0  0
   32.0670  -27.5240   -1.4830 C   0  0  0  0  0  0  0  0  0  0  0  0
   33.2970  -29.0400    0.0490 C   0  0  0  0  0  0  0  0  0  0  0  0
   32.9740  -27.9580   -2.6210 C   0  0  0  0  0  0  0  0  0  0  0  0
   34.1760  -29.4950   -1.1010 C   0  0  0  0  0  0  0  0  0  0  0  0
   30.6960  -35.8100    2.7450 C   0  0  0  0  0  0  0  0  0  0  0  0
   30.1290  -35.9740    1.3630 C   0  0  0  0  0  0  0  0  0  0  0  0
   34.3320  -28.3730   -2.1070 C   0  0  0  0  0  0  0  0  0  0  0  0
   36.4140  -34.3130    0.0420 C   0  0  0  0  0  0  0  0  0  0  0  0
   37.0220  -33.3090   -2.0630 C   0  0  0  0  0  0  0  0  0  0  0  0
   34.7070  -32.9190   -1.1840 C   0  0  0  0  0  0  0  0  0  0  0  0
   35.3010  -28.6680   -3.2410 C   0  0  0  0  0  0  0  0  0  0  0  0
   35.3690  -30.0560   -3.6290 N   0  0  0  0  0  0  0  0  0  0  0  0
   35.8890  -33.8410   -1.2660 N   0  0  0  0  0  0  0  0  0  0  0  0
   31.7960  -35.5350   -2.1700 O   0  0  0  0  0  0  0  0  0  0  0  0
   37.4510  -30.4690   -2.7190 O   0  0  0  0  0  0  0  0  0  0  0  0
   34.0210  -35.3720   -2.2800 O   0  0  0  0  0  0  0  0  0  0  0  0
   31.1370  -34.4730    2.8700 O   0  0  0  0  0  0  0  0  0  0  0  0
   31.1870  -35.9500    0.4030 O   0  0  0  0  0  0  0  0  0  0  0  0
   36.1626  -33.1819   -7.3488 H   0  0  0  0  0  0  0  0  0  0  0  0
   36.5860  -35.3335   -6.1993 H   0  0  0  0  0  0  0  0  0  0  0  0
   36.1360  -31.0658   -6.0552 H   0  0  0  0  0  0  0  0  0  0  0  0
   36.9808  -35.3768   -3.7561 H   0  0  0  0  0  0  0  0  0  0  0  0
   34.3566  -31.8498    1.2026 H   0  0  0  0  0  0  0  0  0  0  0  0
   32.7741  -32.5306    2.9872 H   0  0  0  0  0  0  0  0  0  0  0  0
   31.3236  -28.2674    0.3903 H   0  0  0  0  0  0  0  0  0  0  0  0
   31.4387  -29.4970   -0.9189 H   0  0  0  0  0  0  0  0  0  0  0  0
   31.0731  -27.2807   -1.8866 H   0  0  0  0  0  0  0  0  0  0  0  0
   32.5088  -26.6419   -0.9964 H   0  0  0  0  0  0  0  0  0  0  0  0
   33.7710  -28.1822    0.5485 H   0  0  0  0  0  0  0  0  0  0  0  0
   33.1783  -29.8747    0.7555 H   0  0  0  0  0  0  0  0  0  0  0  0
   32.5125  -28.8088   -3.1436 H   0  0  0  0  0  0  0  0  0  0  0  0
   33.1052  -27.1077   -3.3065 H   0  0  0  0  0  0  0  0  0  0  0  0
   35.1660  -29.7776   -0.7136 H   0  0  0  0  0  0  0  0  0  0  0  0
   33.7083  -30.3602   -1.5936 H   0  0  0  0  0  0  0  0  0  0  0  0
   29.9205  -36.0210    3.4961 H   0  0  0  0  0  0  0  0  0  0  0  0
   31.5303  -36.5086    2.9057 H   0  0  0  0  0  0  0  0  0  0  0  0
   29.5974  -36.9348    1.2974 H   0  0  0  0  0  0  0  0  0  0  0  0
   29.4299  -35.1504    1.1557 H   0  0  0  0  0  0  0  0  0  0  0  0
   34.7965  -27.5331   -1.5696 H   0  0  0  0  0  0  0  0  0  0  0  0
   35.8648  -33.8193    0.8573 H   0  0  0  0  0  0  0  0  0  0  0  0
   36.2824  -35.4024    0.1184 H   0  0  0  0  0  0  0  0  0  0  0  0
   37.4833  -34.0666    0.1184 H   0  0  0  0  0  0  0  0  0  0  0  0
   37.8968  -33.9522   -1.8869 H   0  0  0  0  0  0  0  0  0  0  0  0
   37.1747  -32.2711   -1.7321 H   0  0  0  0  0  0  0  0  0  0  0  0
   34.2110  -32.8830   -2.1651 H   0  0  0  0  0  0  0  0  0  0  0  0
   35.0634  -31.9197   -0.8935 H   0  0  0  0  0  0  0  0  0  0  0  0
   34.9907  -28.0816   -4.1184 H   0  0  0  0  0  0  0  0  0  0  0  0
   36.3019  -28.3985   -2.8729 H   0  0  0  0  0  0  0  0  0  0  0  0
   34.5450  -30.5055   -4.0531 H   0  0  0  0  0  0  0  0  0  0  0  0
   31.0458  -35.7599   -1.5644 H   0  0  0  0  0  0  0  0  0  0  0  0
  1  2  2  0
  1  3  1  0
  2  4  1  0
  3  7  2  0
  4  9  2  0
  5  6  2  0
  5 10  1  0
  6 11  1  0
  7  9  1  0
  7 13  1  0
  8 10  2  0
  8 12  1  0
  8 14  1  0
  9 24  1  0
 10 25  1  0
 11 12  2  0
 11 32  1  0
 12 33  1  0
 13 27  1  0
 13 30  2  0
 14 29  1  0
 14 31  2  0
 15 16  1  0
 15 17  1  0
 16 18  1  0
 17 19  1  0
 18 22  1  0
 19 22  1  0
 20 21  1  0
 20 32  1  0
 21 33  1  0
 22 26  1  0
 23 28  1  0
 24 28  1  0
 25 28  1  0
 26 27  1  0
  1 34  1  0
  2 35  1  0
  3 36  1  0
  4 37  1  0
  5 38  1  0
  6 39  1  0
 15 40  1  0
 15 41  1  0
 16 42  1  0
 16 43  1  0
 17 44  1  0
 17 45  1  0
 18 46  1  0
 18 47  1  0
 19 48  1  0
 19 49  1  0
 20 50  1  0
 20 51  1  0
 21 52  1  0
 21 53  1  0
 22 54  1  0
 23 55  1  0
 23 56  1  0
 23 57  1  0
 24 58  1  0
 24 59  1  0
 25 60  1  0
 25 61  1  0
 26 62  1  0
 26 63  1  0
 27 64  1  0
 29 65  1  0
A    1
C1
A    2
C2
A    3
C3
A    4
C4
A    5
C5
A    6
C6
A    7
C7
A    8
C8
A    9
C9
A   10
C10
A   11
C11
A   12
C12
A   13
C13
A   14
C14
A   15
C15
A   16
C16
A   17
C17
A   18
C18
A   19
C19
A   20
C20
A   21
C21
A   22
C22
A   23
C23
A   24
C24
A   25
C25
A   26
C26
A   27
N27
A   28
N28
A   29
O29
A   30
O30
A   31
O31
A   32
O32
A   33
O33
M  END
