4CK9_LFT_A_1490
     RDKit          3D

 49 51  0  0  0  0  0  0  0  0999 V2000
   33.2720   22.6750  236.6370 C   0  0  0  0  0  0  0  0  0  0  0  0
   33.5250   21.7590  238.9540 C   0  0  0  0  0  0  0  0  0  0  0  0
   29.6820   26.8660  240.9240 O   0  0  0  0  0  0  0  0  0  0  0  0
   32.4120   33.4530  244.6910 Cl  0  0  0  0  0  0  0  0  0  0  0  0
   25.1290   28.0790  240.4330 C   0  0  0  0  0  0  0  0  0  0  0  0
   30.1990   31.9510  244.2610 C   0  0  0  0  0  0  0  0  0  0  0  0
   32.0000   31.6730  242.6970 C   0  0  0  0  0  0  0  0  0  0  0  0
   31.1840   25.2250  239.4700 C   0  0  0  0  0  0  0  0  0  0  0  0
   33.1160   26.4790  238.7700 C   0  0  0  0  0  0  0  0  0  0  0  0
   29.4580   31.0060  243.5620 C   0  0  0  0  0  0  0  0  0  0  0  0
   31.2550   30.7290  241.9970 C   0  0  0  0  0  0  0  0  0  0  0  0
   31.8070   24.0490  239.0570 C   0  0  0  0  0  0  0  0  0  0  0  0
   33.7370   25.3100  238.3600 C   0  0  0  0  0  0  0  0  0  0  0  0
   25.8030   28.8210  241.3070 C   0  0  0  0  0  0  0  0  0  0  0  0
   26.9160   28.7950  239.4680 C   0  0  0  0  0  0  0  0  0  0  0  0
   27.8700   30.1390  241.4230 C   0  0  0  0  0  0  0  0  0  0  0  0
   25.8170   28.0630  239.2950 N   0  0  0  0  0  0  0  0  0  0  0  0
   31.3630   27.6390  239.6470 N   0  0  0  0  0  0  0  0  0  0  0  0
   29.8210   29.0920  240.5150 O   0  0  0  0  0  0  0  0  0  0  0  0
   30.2700   27.8110  240.4000 C   0  0  0  0  0  0  0  0  0  0  0  0
   31.4770   32.2860  243.8290 C   0  0  0  0  0  0  0  0  0  0  0  0
   31.8560   26.4390  239.3500 C   0  0  0  0  0  0  0  0  0  0  0  0
   33.0910   24.0930  238.5200 C   0  0  0  0  0  0  0  0  0  0  0  0
   29.9800   30.3830  242.4340 C   0  0  0  0  0  0  0  0  0  0  0  0
   33.7640   22.9710  238.0550 C   0  0  0  0  0  0  0  0  0  0  0  0
   29.1970   29.4560  241.7470 C   0  0  0  0  0  0  0  0  0  0  0  0
   26.9190   29.2440  240.7200 N   0  0  0  0  0  0  0  0  0  0  0  0
   32.3304   22.1085  236.6864 H   0  0  0  0  0  0  0  0  0  0  0  0
   33.1029   23.6214  236.1025 H   0  0  0  0  0  0  0  0  0  0  0  0
   34.0289   22.0822  236.1025 H   0  0  0  0  0  0  0  0  0  0  0  0
   33.5857   22.0668  240.0083 H   0  0  0  0  0  0  0  0  0  0  0  0
   32.5274   21.3425  238.7505 H   0  0  0  0  0  0  0  0  0  0  0  0
   34.2898   20.9950  238.7505 H   0  0  0  0  0  0  0  0  0  0  0  0
   24.1722   27.5690  240.6185 H   0  0  0  0  0  0  0  0  0  0  0  0
   29.7752   32.4330  245.1543 H   0  0  0  0  0  0  0  0  0  0  0  0
   33.0107   31.9360  242.3516 H   0  0  0  0  0  0  0  0  0  0  0  0
   30.1672   25.1947  239.8885 H   0  0  0  0  0  0  0  0  0  0  0  0
   33.6251   27.4447  238.6348 H   0  0  0  0  0  0  0  0  0  0  0  0
   28.4455   30.7475  243.9055 H   0  0  0  0  0  0  0  0  0  0  0  0
   31.6745   30.2556  241.0970 H   0  0  0  0  0  0  0  0  0  0  0  0
   31.2845   23.0860  239.1552 H   0  0  0  0  0  0  0  0  0  0  0  0
   34.7396   25.3471  237.9089 H   0  0  0  0  0  0  0  0  0  0  0  0
   25.4913   29.0461  242.3376 H   0  0  0  0  0  0  0  0  0  0  0  0
   27.6864   28.9935  238.7084 H   0  0  0  0  0  0  0  0  0  0  0  0
   27.4080   30.4733  242.3636 H   0  0  0  0  0  0  0  0  0  0  0  0
   28.0874   30.9833  240.7523 H   0  0  0  0  0  0  0  0  0  0  0  0
   31.8443   28.4728  239.2809 H   0  0  0  0  0  0  0  0  0  0  0  0
   34.8455   23.1718  238.0590 H   0  0  0  0  0  0  0  0  0  0  0  0
   29.0605   28.5530  242.3602 H   0  0  0  0  0  0  0  0  0  0  0  0
  1 25  1  0
  2 25  1  0
  3 20  2  0
  4 21  1  0
  5 14  2  0
  5 17  1  0
  6 10  2  0
  6 21  1  0
  7 11  1  0
  7 21  2  0
  8 12  2  0
  8 22  1  0
  9 13  1  0
  9 22  2  0
 10 24  1  0
 11 24  2  0
 12 23  1  0
 13 23  2  0
 14 27  1  0
 15 17  2  0
 15 27  1  0
 16 26  1  0
 16 27  1  0
 18 20  1  0
 18 22  1  0
 19 20  1  0
 19 26  1  0
 23 25  1  0
 24 26  1  0
  1 28  1  0
  1 29  1  0
  1 30  1  0
  2 31  1  0
  2 32  1  0
  2 33  1  0
  5 34  1  0
  6 35  1  0
  7 36  1  0
  8 37  1  0
  9 38  1  0
 10 39  1  0
 11 40  1  0
 12 41  1  0
 13 42  1  0
 14 43  1  0
 15 44  1  0
 16 45  1  0
 16 46  1  0
 18 47  1  0
 25 48  1  0
 26 49  1  0
A    1
CAA
A    2
CAB
A    3
OAC
A    4
CLD
A    5
CAE
A    6
CAF
A    7
CAG
A    8
CAH
A    9
CAI
A   10
CAJ
A   11
CAK
A   12
CAL
A   13
CAM
A   14
CAN
A   15
CAO
A   16
CAP
A   17
NAQ
A   18
NAR
A   19
OAS
A   20
CAT
A   21
CAU
A   22
CAV
A   23
CAW
A   24
CAX
A   25
CAY
A   26
CAZ
A   27
NBA
M  END
