4BKI_DI1_A_1000
     RDKit          3D

 71 75  0  0  0  0  0  0  0  0999 V2000
   -8.9310   38.3090   11.8170 C   0  0  0  0  0  0  0  0  0  0  0  0
   -7.6900   37.5040   11.5230 C   0  0  0  0  0  0  0  0  0  0  0  0
   -7.0850   36.9070   12.5190 N   0  0  0  0  0  0  0  0  0  0  0  0
   -6.8670   37.6760   13.6370 C   0  0  0  0  0  0  0  0  0  0  0  0
   -5.9870   36.9550   14.6690 C   0  0  0  0  0  0  0  0  0  0  0  0
   -4.8350   36.3840   14.1450 N   0  0  0  0  0  0  0  0  0  0  0  0
   -5.0930   35.6060   13.0540 C   0  0  0  0  0  0  0  0  0  0  0  0
   -5.8890   36.3860   12.0350 C   0  0  0  0  0  0  0  0  0  0  0  0
   -4.0960   35.7670   15.0800 C   0  0  0  0  0  0  0  0  0  0  0  0
   -2.6780   35.4570   14.5970 C   0  0  0  0  0  0  0  0  0  0  0  0
   -1.9910   36.4250   13.8410 C   0  0  0  0  0  0  0  0  0  0  0  0
   -0.6980   36.1460   13.3590 C   0  0  0  0  0  0  0  0  0  0  0  0
   -0.0920   34.8900   13.6450 C   0  0  0  0  0  0  0  0  0  0  0  0
   -0.7550   33.9290   14.3840 C   0  0  0  0  0  0  0  0  0  0  0  0
   -2.0440   34.2030   14.8640 C   0  0  0  0  0  0  0  0  0  0  0  0
   -2.7170   33.0390   15.6550 C   0  0  0  0  0  0  0  0  0  0  0  0
   -3.1480   33.4800   16.8580 F   0  0  0  0  0  0  0  0  0  0  0  0
   -1.8690   31.9840   15.7860 F   0  0  0  0  0  0  0  0  0  0  0  0
   -3.7550   32.6090   14.9360 F   0  0  0  0  0  0  0  0  0  0  0  0
    1.3190   34.5120   13.1430 C   0  0  0  0  0  0  0  0  0  0  0  0
    2.2620   35.5590   12.9430 N   0  0  0  0  0  0  0  0  0  0  0  0
    3.6400   35.3360   12.4760 C   0  0  0  0  0  0  0  0  0  0  0  0
    4.6270   36.1340   13.1050 C   0  0  0  0  0  0  0  0  0  0  0  0
    5.9230   36.0100   12.7240 C   0  0  0  0  0  0  0  0  0  0  0  0
    6.2680   35.0870   11.7200 C   0  0  0  0  0  0  0  0  0  0  0  0
    7.7550   35.0150   11.3860 C   0  0  0  0  0  0  0  0  0  0  0  0
    5.2700   34.2750   11.0490 C   0  0  0  0  0  0  0  0  0  0  0  0
    3.9710   34.4230   11.4450 C   0  0  0  0  0  0  0  0  0  0  0  0
    5.5710   33.3190    9.9710 O   0  0  0  0  0  0  0  0  0  0  0  0
    6.2260   32.1330   10.4190 C   0  0  0  0  0  0  0  0  0  0  0  0
    6.1500   32.0740   11.8200 C   0  0  0  0  0  0  0  0  0  0  0  0
    6.6740   31.0480   12.5180 C   0  0  0  0  0  0  0  0  0  0  0  0
    7.3070   30.0120   11.8660 C   0  0  0  0  0  0  0  0  0  0  0  0
    7.4200   29.9580   10.4750 C   0  0  0  0  0  0  0  0  0  0  0  0
    8.1630   28.6790   10.2790 C   0  0  0  0  0  0  0  0  0  0  0  0
    8.4080   28.0610   11.5980 C   0  0  0  0  0  0  0  0  0  0  0  0
    7.8960   28.8740   12.5820 N   0  0  0  0  0  0  0  0  0  0  0  0
    8.9720   27.0320   11.9320 O   0  0  0  0  0  0  0  0  0  0  0  0
    6.8640   31.0590    9.6750 C   0  0  0  0  0  0  0  0  0  0  0  0
    1.5380   33.3360   12.9060 O   0  0  0  0  0  0  0  0  0  0  0  0
   -9.0631   38.3947   12.9057 H   0  0  0  0  0  0  0  0  0  0  0  0
   -8.8287   39.3132   11.3799 H   0  0  0  0  0  0  0  0  0  0  0  0
   -9.8063   37.8062   11.3799 H   0  0  0  0  0  0  0  0  0  0  0  0
   -7.9715   36.7249   10.7993 H   0  0  0  0  0  0  0  0  0  0  0  0
   -6.9612   38.2490   11.1712 H   0  0  0  0  0  0  0  0  0  0  0  0
   -6.3682   38.6086   13.3347 H   0  0  0  0  0  0  0  0  0  0  0  0
   -7.8416   37.8794   14.1047 H   0  0  0  0  0  0  0  0  0  0  0  0
   -5.6901   37.6846   15.4369 H   0  0  0  0  0  0  0  0  0  0  0  0
   -6.5906   36.1282   15.0716 H   0  0  0  0  0  0  0  0  0  0  0  0
   -4.1423   35.2843   12.6038 H   0  0  0  0  0  0  0  0  0  0  0  0
   -5.6752   34.7274   13.3688 H   0  0  0  0  0  0  0  0  0  0  0  0
   -6.1205   35.7168   11.1932 H   0  0  0  0  0  0  0  0  0  0  0  0
   -5.2678   37.2447   11.7405 H   0  0  0  0  0  0  0  0  0  0  0  0
   -4.0327   36.4171   15.9651 H   0  0  0  0  0  0  0  0  0  0  0  0
   -4.5854   34.8102   15.3145 H   0  0  0  0  0  0  0  0  0  0  0  0
   -2.4624   37.3957   13.6276 H   0  0  0  0  0  0  0  0  0  0  0  0
   -0.1576   36.8963   12.7632 H   0  0  0  0  0  0  0  0  0  0  0  0
   -0.2774   32.9604   14.5934 H   0  0  0  0  0  0  0  0  0  0  0  0
    1.9639   36.5259   13.1356 H   0  0  0  0  0  0  0  0  0  0  0  0
    4.3455   36.8468   13.8941 H   0  0  0  0  0  0  0  0  0  0  0  0
    6.7001   36.6279   13.1976 H   0  0  0  0  0  0  0  0  0  0  0  0
    8.3391   34.9867   12.3177 H   0  0  0  0  0  0  0  0  0  0  0  0
    7.9555   34.1061   10.7998 H   0  0  0  0  0  0  0  0  0  0  0  0
    8.0424   35.9003   10.7998 H   0  0  0  0  0  0  0  0  0  0  0  0
    3.1796   33.8313   10.9617 H   0  0  0  0  0  0  0  0  0  0  0  0
    5.6484   32.8887   12.3628 H   0  0  0  0  0  0  0  0  0  0  0  0
    6.5962   31.0370   13.6152 H   0  0  0  0  0  0  0  0  0  0  0  0
    7.5655   27.9965    9.6567 H   0  0  0  0  0  0  0  0  0  0  0  0
    9.1213   28.8779    9.7769 H   0  0  0  0  0  0  0  0  0  0  0  0
    7.9205   28.7183   13.5999 H   0  0  0  0  0  0  0  0  0  0  0  0
    6.9270   31.0697    8.5769 H   0  0  0  0  0  0  0  0  0  0  0  0
  1  2  1  0
  2  3  1  0
  3  4  1  0
  3  8  1  0
  4  5  1  0
  5  6  1  0
  6  7  1  0
  6  9  1  0
  7  8  1  0
  9 10  1  0
 10 11  2  0
 10 15  1  0
 11 12  1  0
 12 13  2  0
 13 14  1  0
 13 20  1  0
 14 15  2  0
 15 16  1  0
 16 17  1  0
 16 18  1  0
 16 19  1  0
 20 21  1  0
 20 40  2  0
 21 22  1  0
 22 23  2  0
 22 28  1  0
 23 24  1  0
 24 25  2  0
 25 26  1  0
 25 27  1  0
 27 28  2  0
 27 29  1  0
 29 30  1  0
 30 31  2  0
 30 39  1  0
 31 32  1  0
 32 33  2  0
 33 34  1  0
 33 37  1  0
 34 35  1  0
 34 39  2  0
 35 36  1  0
 36 37  1  0
 36 38  2  0
  1 41  1  0
  1 42  1  0
  1 43  1  0
  2 44  1  0
  2 45  1  0
  4 46  1  0
  4 47  1  0
  5 48  1  0
  5 49  1  0
  7 50  1  0
  7 51  1  0
  8 52  1  0
  8 53  1  0
  9 54  1  0
  9 55  1  0
 11 56  1  0
 12 57  1  0
 14 58  1  0
 21 59  1  0
 23 60  1  0
 24 61  1  0
 26 62  1  0
 26 63  1  0
 26 64  1  0
 28 65  1  0
 31 66  1  0
 32 67  1  0
 35 68  1  0
 35 69  1  0
 37 70  1  0
 39 71  1  0
A    1
C01
A    2
C02
A    3
N03
A    4
C04
A    5
C05
A    6
N06
A    7
C07
A    8
C08
A    9
C09
A   10
C10
A   11
C11
A   12
C12
A   13
C13
A   14
C14
A   15
C15
A   16
C16
A   17
F17
A   18
F18
A   19
F19
A   20
C20
A   21
N21
A   22
C22
A   23
C23
A   24
C24
A   25
C25
A   26
C26
A   27
C27
A   28
C28
A   29
O29
A   30
C30
A   31
C31
A   32
C32
A   33
C33
A   34
C34
A   35
C35
A   36
C36
A   37
N37
A   38
O38
A   39
C39
A   40
O40
M  END
