4CKY_ND3_A_1148
     RDKit          3D

 29 29  0  0  0  0  0  0  0  0999 V2000
  -25.5580   -0.2900   11.2550 O   0  0  0  0  0  0  0  0  0  0  0  0
  -25.6460   -1.5220   11.3590 C   0  0  0  0  0  0  0  0  0  0  0  0
  -26.6820   -2.2170   11.1690 O   0  0  0  0  0  0  0  0  0  0  0  0
  -24.3810   -2.3090   11.7760 C   0  0  0  0  0  0  0  0  0  0  0  0
  -24.5290   -3.6950   11.2890 O   0  0  0  0  0  0  0  0  0  0  0  0
  -23.1200   -1.6810   11.1880 C   0  0  0  0  0  0  0  0  0  0  0  0
  -21.8770   -2.4800   11.5860 C   0  0  0  0  0  0  0  0  0  0  0  0
  -20.6640   -1.8130   11.0790 O   0  0  0  0  0  0  0  0  0  0  0  0
  -21.7620   -2.6210   13.0830 C   0  0  0  0  0  0  0  0  0  0  0  0
  -20.6330   -3.5060   13.3370 O   0  0  0  0  0  0  0  0  0  0  0  0
  -23.0200   -3.0590   13.6570 C   0  0  0  0  0  0  0  0  0  0  0  0
  -23.0120   -3.9490   14.5260 O   0  0  0  0  0  0  0  0  0  0  0  0
  -24.2450   -2.3650   13.3420 C   0  0  0  0  0  0  0  0  0  0  0  0
  -24.1980   -0.9240   13.9880 C   0  0  0  0  0  0  0  0  0  0  0  0
  -25.4980   -3.1080   13.9140 C   0  0  0  0  0  0  0  0  0  0  0  0
  -27.1956   -2.5615   11.9421 H   0  0  0  0  0  0  0  0  0  0  0  0
  -24.5948   -4.3109   12.0613 H   0  0  0  0  0  0  0  0  0  0  0  0
  -23.2027   -1.6658   10.0912 H   0  0  0  0  0  0  0  0  0  0  0  0
  -23.0210   -0.6578   11.5794 H   0  0  0  0  0  0  0  0  0  0  0  0
  -21.9758   -3.4823   11.1438 H   0  0  0  0  0  0  0  0  0  0  0  0
  -20.1112   -1.5090   11.8420 H   0  0  0  0  0  0  0  0  0  0  0  0
  -21.5635   -1.6603   13.5806 H   0  0  0  0  0  0  0  0  0  0  0  0
  -20.5053   -3.6061   14.3136 H   0  0  0  0  0  0  0  0  0  0  0  0
  -24.2009   -1.0134   15.0844 H   0  0  0  0  0  0  0  0  0  0  0  0
  -23.2825   -0.4069   13.6647 H   0  0  0  0  0  0  0  0  0  0  0  0
  -25.0778   -0.3484   13.6647 H   0  0  0  0  0  0  0  0  0  0  0  0
  -25.4655   -3.0887   15.0134 H   0  0  0  0  0  0  0  0  0  0  0  0
  -26.4127   -2.6062   13.5653 H   0  0  0  0  0  0  0  0  0  0  0  0
  -25.4965   -4.1513   13.5653 H   0  0  0  0  0  0  0  0  0  0  0  0
  1  2  2  0
  2  3  1  0
  2  4  1  0
  4  5  1  0
  4  6  1  0
  4 13  1  0
  6  7  1  0
  7  8  1  0
  7  9  1  0
  9 10  1  0
  9 11  1  0
 11 12  2  0
 11 13  1  0
 13 14  1  0
 13 15  1  0
  3 16  1  0
  5 17  1  0
  6 18  1  0
  6 19  1  0
  7 20  1  0
  8 21  1  0
  9 22  1  0
 10 23  1  0
 14 24  1  0
 14 25  1  0
 14 26  1  0
 15 27  1  0
 15 28  1  0
 15 29  1  0
A    1
OAC
A    2
CAJ
A    3
OAE
A    4
CAO
A    5
OAH
A    6
CAI
A    7
CAL
A    8
OAF
A    9
CAM
A   10
OAG
A   11
CAK
A   12
OAD
A   13
CAN
A   14
CAB
A   15
CAA
M  END
