4CMT_GWH_A_2401
     RDKit          3D

 54 57  0  0  0  0  0  0  0  0999 V2000
   30.0790   44.7040    9.2780 C   0  0  0  0  0  0  0  0  0  0  0  0
   28.9810   44.3830   10.1220 C   0  0  0  0  0  0  0  0  0  0  0  0
   27.8970   45.2190   10.2550 N   0  0  0  0  0  0  0  0  0  0  0  0
   27.8780   46.3940    9.5550 C   0  0  0  0  0  0  0  0  0  0  0  0
   28.9050   46.8280    8.6860 C   0  0  0  0  0  0  0  0  0  0  0  0
   30.0040   45.9390    8.5730 C   0  0  0  0  0  0  0  0  0  0  0  0
   31.1140   43.7830    9.2250 O   0  0  0  0  0  0  0  0  0  0  0  0
   28.9800   43.1830   10.8520 N   0  0  0  0  0  0  0  0  0  0  0  0
   32.3050   43.9770    8.4000 C   0  0  0  0  0  0  0  0  0  0  0  0
   33.2620   45.0350    8.9830 C   0  0  0  0  0  0  0  0  0  0  0  0
   32.9800   42.6020    8.2990 C   0  0  0  0  0  0  0  0  0  0  0  0
   33.7880   46.1530    8.2350 C   0  0  0  0  0  0  0  0  0  0  0  0
   34.6690   47.1000    8.8490 C   0  0  0  0  0  0  0  0  0  0  0  0
   35.0370   46.9500   10.2090 C   0  0  0  0  0  0  0  0  0  0  0  0
   34.5280   45.8600   10.9490 C   0  0  0  0  0  0  0  0  0  0  0  0
   33.6590   44.9160   10.3630 C   0  0  0  0  0  0  0  0  0  0  0  0
   34.8730   45.7160   12.2330 F   0  0  0  0  0  0  0  0  0  0  0  0
   33.4740   46.3850    6.8690 N   0  0  0  0  0  0  0  0  0  0  0  0
   32.7880   47.4920    6.4770 N   0  0  0  0  0  0  0  0  0  0  0  0
   32.7150   47.3170    5.1550 C   0  0  0  0  0  0  0  0  0  0  0  0
   33.3500   46.1310    4.8000 C   0  0  0  0  0  0  0  0  0  0  0  0
   33.8380   45.5290    5.8870 N   0  0  0  0  0  0  0  0  0  0  0  0
   28.8470   48.1140    7.9510 C   0  0  0  0  0  0  0  0  0  0  0  0
   27.5980   48.6860    7.5730 C   0  0  0  0  0  0  0  0  0  0  0  0
   27.5410   49.9120    6.8770 C   0  0  0  0  0  0  0  0  0  0  0  0
   28.7260   50.6180    6.5290 C   0  0  0  0  0  0  0  0  0  0  0  0
   29.9840   50.0740    6.8910 C   0  0  0  0  0  0  0  0  0  0  0  0
   30.0420   48.8380    7.5940 C   0  0  0  0  0  0  0  0  0  0  0  0
   25.9600   50.5610    6.4550 S   0  0  0  0  0  0  0  0  0  0  0  0
   26.0710   51.1330    4.7820 C   0  0  0  0  0  0  0  0  0  0  0  0
   25.0060   49.4670    6.4620 O   0  0  0  0  0  0  0  0  0  0  0  0
   25.7680   51.7080    7.3250 O   0  0  0  0  0  0  0  0  0  0  0  0
   27.0015   47.0474    9.6769 H   0  0  0  0  0  0  0  0  0  0  0  0
   30.8370   46.2162    7.9102 H   0  0  0  0  0  0  0  0  0  0  0  0
   28.9800   43.2066   11.8817 H   0  0  0  0  0  0  0  0  0  0  0  0
   28.9792   42.2794   10.3576 H   0  0  0  0  0  0  0  0  0  0  0  0
   32.0269   44.3636    7.4084 H   0  0  0  0  0  0  0  0  0  0  0  0
   33.1713   42.2123    9.3097 H   0  0  0  0  0  0  0  0  0  0  0  0
   32.3200   41.9084    7.7575 H   0  0  0  0  0  0  0  0  0  0  0  0
   33.9324   42.7000    7.7575 H   0  0  0  0  0  0  0  0  0  0  0  0
   35.0607   47.9452    8.2640 H   0  0  0  0  0  0  0  0  0  0  0  0
   35.7131   47.6760   10.6843 H   0  0  0  0  0  0  0  0  0  0  0  0
   33.2797   44.0786   10.9670 H   0  0  0  0  0  0  0  0  0  0  0  0
   32.4204   48.2645    7.0506 H   0  0  0  0  0  0  0  0  0  0  0  0
   32.2260   48.0073    4.4519 H   0  0  0  0  0  0  0  0  0  0  0  0
   33.4372   45.7456    3.7734 H   0  0  0  0  0  0  0  0  0  0  0  0
   34.3572   44.6424    5.9592 H   0  0  0  0  0  0  0  0  0  0  0  0
   26.6639   48.1638    7.8277 H   0  0  0  0  0  0  0  0  0  0  0  0
   28.6669   51.5730    5.9864 H   0  0  0  0  0  0  0  0  0  0  0  0
   30.9113   50.6049    6.6297 H   0  0  0  0  0  0  0  0  0  0  0  0
   31.0227   48.4246    7.8720 H   0  0  0  0  0  0  0  0  0  0  0  0
   26.2806   52.2128    4.7768 H   0  0  0  0  0  0  0  0  0  0  0  0
   26.8824   50.5996    4.2652 H   0  0  0  0  0  0  0  0  0  0  0  0
   25.1190   50.9418    4.2652 H   0  0  0  0  0  0  0  0  0  0  0  0
  1  2  2  0
  1  6  1  0
  1  7  1  0
  2  3  1  0
  2  8  1  0
  3  4  2  0
  4  5  1  0
  5  6  2  0
  5 23  1  0
  7  9  1  0
  9 10  1  0
  9 11  1  0
 10 12  1  0
 10 16  2  0
 12 13  2  0
 12 18  1  0
 13 14  1  0
 14 15  2  0
 15 16  1  0
 15 17  1  0
 18 19  1  0
 18 22  1  0
 19 20  1  0
 20 21  2  0
 21 22  1  0
 23 24  2  0
 23 28  1  0
 24 25  1  0
 25 26  2  0
 25 29  1  0
 26 27  1  0
 27 28  2  0
 29 30  1  0
 29 31  2  0
 29 32  2  0
  4 33  1  0
  6 34  1  0
  8 35  1  0
  8 36  1  0
  9 37  1  0
 11 38  1  0
 11 39  1  0
 11 40  1  0
 13 41  1  0
 14 42  1  0
 16 43  1  0
 19 44  1  0
 20 45  1  0
 21 46  1  0
 22 47  1  0
 24 48  1  0
 26 49  1  0
 27 50  1  0
 28 51  1  0
 30 52  1  0
 30 53  1  0
 30 54  1  0
A    1
C1
A    2
C2
A    3
N3
A    4
C4
A    5
C5
A    6
C6
A    7
O7
A    8
N8
A    9
C9
A   10
C10
A   11
C11
A   12
C12
A   13
C13
A   14
C14
A   15
C15
A   16
C16
A   17
F17
A   18
N18
A   19
N19
A   20
C20
A   21
C21
A   22
N22
A   23
C23
A   24
C24
A   25
C25
A   26
C26
A   27
C27
A   28
C28
A   29
S29
A   30
C30
A   31
O31
A   32
O32
M  END
