4CN1_M1F_A_701
     RDKit          3D

 50 51  0  0  0  0  0  0  0  0999 V2000
   22.9390  -25.1570   31.1120 P   0  0  0  0  0  0  0  0  0  0  0  0
   23.9670  -25.3250   37.3410 C   0  0  0  0  0  0  0  0  0  0  0  0
   23.6370  -25.1610   35.9410 O   0  0  0  0  0  0  0  0  0  0  0  0
   22.7350  -25.6390   38.1940 C   0  0  0  0  0  0  0  0  0  0  0  0
   21.8760  -26.5330   37.4710 O   0  0  0  0  0  0  0  0  0  0  0  0
   21.9340  -24.4120   38.5900 C   0  0  0  0  0  0  0  0  0  0  0  0
   20.9370  -24.8580   39.5100 O   0  0  0  0  0  0  0  0  0  0  0  0
   22.8820  -23.3530   39.1700 C   0  0  0  0  0  0  0  0  0  0  0  0
   22.2190  -22.1610   39.5030 O   0  0  0  0  0  0  0  0  0  0  0  0
   23.9210  -23.0330   38.1140 C   0  0  0  0  0  0  0  0  0  0  0  0
   24.7080  -24.1990   37.8410 O   0  0  0  0  0  0  0  0  0  0  0  0
   24.8790  -21.9910   38.5810 C   0  0  0  0  0  0  0  0  0  0  0  0
   25.2600  -22.3850   39.8800 O   0  0  0  0  0  0  0  0  0  0  0  0
   25.3090  -25.6600   32.3490 C   0  0  0  0  0  0  0  0  0  0  0  0
   23.8800  -25.9730   32.1770 O   0  0  0  0  0  0  0  0  0  0  0  0
   26.0920  -26.4810   33.4030 C   0  0  0  0  0  0  0  0  0  0  0  0
   26.7320  -27.6930   32.9190 O   0  0  0  0  0  0  0  0  0  0  0  0
   25.1500  -26.6410   34.6230 C   0  0  0  0  0  0  0  0  0  0  0  0
   25.7830  -27.5130   35.5970 O   0  0  0  0  0  0  0  0  0  0  0  0
   24.8320  -25.1930   35.1360 C   0  0  0  0  0  0  0  0  0  0  0  0
   24.6550  -24.0840   34.0400 C   0  0  0  0  0  0  0  0  0  0  0  0
   25.4750  -24.3270   32.8700 O   0  0  0  0  0  0  0  0  0  0  0  0
   24.9460  -22.6400   34.4560 C   0  0  0  0  0  0  0  0  0  0  0  0
   26.1480  -22.5530   35.2380 O   0  0  0  0  0  0  0  0  0  0  0  0
   23.6860  -25.4390   29.8310 O   0  0  0  0  0  0  0  0  0  0  0  0
   22.9190  -23.7020   31.5410 O   0  0  0  0  0  0  0  0  0  0  0  0
   21.5130  -25.6800   31.0950 O   0  0  0  0  0  0  0  0  0  0  0  0
   24.6242  -26.2035   37.4200 H   0  0  0  0  0  0  0  0  0  0  0  0
   23.1087  -26.0929   39.1237 H   0  0  0  0  0  0  0  0  0  0  0  0
   21.3527  -27.0776   38.1111 H   0  0  0  0  0  0  0  0  0  0  0  0
   21.4333  -23.9295   37.7376 H   0  0  0  0  0  0  0  0  0  0  0  0
   21.2555  -24.7155   40.4365 H   0  0  0  0  0  0  0  0  0  0  0  0
   23.3263  -23.7599   40.0903 H   0  0  0  0  0  0  0  0  0  0  0  0
   22.1708  -22.0743   40.4880 H   0  0  0  0  0  0  0  0  0  0  0  0
   23.3733  -22.6807   37.2275 H   0  0  0  0  0  0  0  0  0  0  0  0
   25.7563  -21.9507   37.9186 H   0  0  0  0  0  0  0  0  0  0  0  0
   24.4266  -20.9884   38.5748 H   0  0  0  0  0  0  0  0  0  0  0  0
   24.7514  -21.8590   40.5469 H   0  0  0  0  0  0  0  0  0  0  0  0
   25.6910  -25.8596   31.3370 H   0  0  0  0  0  0  0  0  0  0  0  0
   26.9967  -25.9342   33.7071 H   0  0  0  0  0  0  0  0  0  0  0  0
   27.0224  -28.2430   33.6892 H   0  0  0  0  0  0  0  0  0  0  0  0
   24.1922  -27.1261   34.3835 H   0  0  0  0  0  0  0  0  0  0  0  0
   25.5591  -27.2046   36.5107 H   0  0  0  0  0  0  0  0  0  0  0  0
   25.7399  -24.9546   35.7094 H   0  0  0  0  0  0  0  0  0  0  0  0
   23.5771  -24.1696   33.8379 H   0  0  0  0  0  0  0  0  0  0  0  0
   25.0612  -22.0233   33.5524 H   0  0  0  0  0  0  0  0  0  0  0  0
   24.1067  -22.2800   35.0692 H   0  0  0  0  0  0  0  0  0  0  0  0
   25.9174  -22.5697   36.2006 H   0  0  0  0  0  0  0  0  0  0  0  0
   24.5904  -25.7804   30.0447 H   0  0  0  0  0  0  0  0  0  0  0  0
   22.9183  -23.6494   32.5296 H   0  0  0  0  0  0  0  0  0  0  0  0
 27  1  2  0
 26  1  1  0
  1 25  1  0
  1 15  1  0
  3  2  1  0
  2 11  1  0
  2  4  1  0
 20  3  1  0
  5  4  1  0
  4  6  1  0
  6  8  1  0
  6  7  1  0
 10  8  1  0
  8  9  1  0
 11 10  1  0
 10 12  1  0
 12 13  1  0
 15 14  1  0
 14 22  1  0
 14 16  1  0
 17 16  1  0
 16 18  1  0
 18 20  1  0
 18 19  1  0
 21 20  1  0
 22 21  1  0
 21 23  1  0
 23 24  1  0
  2 28  1  0
  4 29  1  0
  5 30  1  0
  6 31  1  0
  7 32  1  0
  8 33  1  0
  9 34  1  0
 10 35  1  0
 12 36  1  0
 12 37  1  0
 13 38  1  0
 14 39  1  0
 16 40  1  0
 17 41  1  0
 18 42  1  0
 19 43  1  0
 20 44  1  0
 21 45  1  0
 23 46  1  0
 23 47  1  0
 24 48  1  0
 25 49  1  0
 26 50  1  0
A    1
P
A    2
C1
A    3
O1
A    4
C2
A    5
O2
A    6
C3
A    7
O3
A    8
C4
A    9
O4
A   10
C5
A   11
O5
A   12
C6
A   13
O6
A   14
C1'
A   15
O1'
A   16
C2'
A   17
O2'
A   18
C3'
A   19
O3'
A   20
C4'
A   21
C5'
A   22
O5'
A   23
C6'
A   24
O6'
A   25
OP1
A   26
OP2
A   27
OP3
M  END
