4CNH_3U9_A_2402
     RDKit          3D

 43 45  0  0  0  0  0  0  0  0999 V2000
   48.2310   -1.9910  -47.9280 C   0  0  0  0  0  0  0  0  0  0  0  0
   48.7500   -0.6740  -47.8890 C   0  0  0  0  0  0  0  0  0  0  0  0
   43.7320   -1.9260  -46.6380 C   0  0  0  0  0  0  0  0  0  0  0  0
   47.5590   -0.2530  -45.7830 C   0  0  0  0  0  0  0  0  0  0  0  0
   41.6330   -0.8970  -47.1300 C   0  0  0  0  0  0  0  0  0  0  0  0
   43.6680   -3.1190  -49.5040 C   0  0  0  0  0  0  0  0  0  0  0  0
   42.6280   -1.8190  -47.5200 C   0  0  0  0  0  0  0  0  0  0  0  0
   47.0160   -1.5800  -45.7940 C   0  0  0  0  0  0  0  0  0  0  0  0
   47.3600   -2.4660  -46.8890 C   0  0  0  0  0  0  0  0  0  0  0  0
   43.8460   -1.1640  -45.4370 C   0  0  0  0  0  0  0  0  0  0  0  0
   48.4130    0.1830  -46.8210 C   0  0  0  0  0  0  0  0  0  0  0  0
   42.5930   -2.6410  -48.7570 C   0  0  0  0  0  0  0  0  0  0  0  0
   42.7870   -0.2710  -45.1460 C   0  0  0  0  0  0  0  0  0  0  0  0
   46.7880   -2.0210  -43.3010 C   0  0  0  0  0  0  0  0  0  0  0  0
   40.0840   -3.0280  -49.2840 C   0  0  0  0  0  0  0  0  0  0  0  0
   47.0660   -4.6890  -47.8720 C   0  0  0  0  0  0  0  0  0  0  0  0
   46.0690   -2.0450  -44.6590 C   0  0  0  0  0  0  0  0  0  0  0  0
   41.6970   -0.1420  -45.9800 N   0  0  0  0  0  0  0  0  0  0  0  0
   43.2440   -3.8340  -50.5740 N   0  0  0  0  0  0  0  0  0  0  0  0
   41.9270   -3.8420  -50.5570 N   0  0  0  0  0  0  0  0  0  0  0  0
   41.5150   -3.1390  -49.4840 N   0  0  0  0  0  0  0  0  0  0  0  0
   42.8380    0.5130  -43.9800 N   0  0  0  0  0  0  0  0  0  0  0  0
   46.7920   -3.7390  -46.8350 O   0  0  0  0  0  0  0  0  0  0  0  0
   44.8910   -1.1890  -44.5110 O   0  0  0  0  0  0  0  0  0  0  0  0
   48.9080    1.4280  -46.7890 F   0  0  0  0  0  0  0  0  0  0  0  0
   48.4974   -2.6569  -48.7621 H   0  0  0  0  0  0  0  0  0  0  0  0
   49.4150   -0.3200  -48.6905 H   0  0  0  0  0  0  0  0  0  0  0  0
   44.5389   -2.6295  -46.8911 H   0  0  0  0  0  0  0  0  0  0  0  0
   47.3086    0.4317  -44.9593 H   0  0  0  0  0  0  0  0  0  0  0  0
   40.7558   -0.7744  -47.7823 H   0  0  0  0  0  0  0  0  0  0  0  0
   44.7246   -2.9390  -49.2568 H   0  0  0  0  0  0  0  0  0  0  0  0
   46.0436   -2.0458  -42.4915 H   0  0  0  0  0  0  0  0  0  0  0  0
   47.4475   -2.8976  -43.2197 H   0  0  0  0  0  0  0  0  0  0  0  0
   47.3876   -1.1023  -43.2197 H   0  0  0  0  0  0  0  0  0  0  0  0
   39.8646   -3.0110  -48.2062 H   0  0  0  0  0  0  0  0  0  0  0  0
   39.7200   -2.0989  -49.7470 H   0  0  0  0  0  0  0  0  0  0  0  0
   39.5811   -3.8898  -49.7470 H   0  0  0  0  0  0  0  0  0  0  0  0
   47.3441   -5.6533  -47.4217 H   0  0  0  0  0  0  0  0  0  0  0  0
   46.1691   -4.8204  -48.4952 H   0  0  0  0  0  0  0  0  0  0  0  0
   47.8951   -4.3226  -48.4952 H   0  0  0  0  0  0  0  0  0  0  0  0
   45.7596   -3.0614  -44.9438 H   0  0  0  0  0  0  0  0  0  0  0  0
   42.8087    0.0620  -43.0545 H   0  0  0  0  0  0  0  0  0  0  0  0
   42.9047    1.5384  -44.0514 H   0  0  0  0  0  0  0  0  0  0  0  0
  1  2  2  0
  1  9  1  0
  2 11  1  0
  3  7  2  0
  3 10  1  0
  4  8  1  0
  4 11  2  0
  5  7  1  0
  5 18  2  0
  6 12  2  0
  6 19  1  0
  7 12  1  0
  8  9  2  0
  8 17  1  0
  9 23  1  0
 10 13  2  0
 10 24  1  0
 11 25  1  0
 12 21  1  0
 13 18  1  0
 13 22  1  0
 14 17  1  0
 15 21  1  0
 16 23  1  0
 17 24  1  0
 19 20  2  0
 20 21  1  0
  1 26  1  0
  2 27  1  0
  3 28  1  0
  4 29  1  0
  5 30  1  0
  6 31  1  0
 14 32  1  0
 14 33  1  0
 14 34  1  0
 15 35  1  0
 15 36  1  0
 15 37  1  0
 16 38  1  0
 16 39  1  0
 16 40  1  0
 17 41  1  0
 22 42  1  0
 22 43  1  0
A    1
C14
A    2
C11
A    3
C6
A    4
C13
A    5
C4
A    6
C24
A    7
C5
A    8
C10
A    9
C15
A   10
C1
A   11
C12
A   12
C20
A   13
C2
A   14
C16
A   15
C25
A   16
C18
A   17
C9
A   18
N3
A   19
N23
A   20
N22
A   21
N21
A   22
N7
A   23
O17
A   24
O8
A   25
F19
M  END
