4CNP_9C4_A_301
     RDKit          3D

 26 26  0  0  0  0  0  0  0  0999 V2000
   16.3590    4.7640   14.4650 O   0  0  0  0  0  0  0  0  0  0  0  0
   16.6140    3.6640   13.9230 C   0  0  0  0  0  0  0  0  0  0  0  0
   16.8250    2.5830   14.5160 O   0  0  0  0  0  0  0  0  0  0  0  0
   16.6340    3.6480   12.3990 C   0  0  0  0  0  0  0  0  0  0  0  0
   16.8140    4.9820   11.9120 O   0  0  0  0  0  0  0  0  0  0  0  0
   17.7600    2.7580   11.8750 C   0  0  0  0  0  0  0  0  0  0  0  0
   17.7360    2.7470   10.3370 C   0  0  0  0  0  0  0  0  0  0  0  0
   18.8250    1.9120    9.8170 O   0  0  0  0  0  0  0  0  0  0  0  0
   16.3770    2.2420    9.8280 C   0  0  0  0  0  0  0  0  0  0  0  0
   16.3010    2.3910    8.4320 O   0  0  0  0  0  0  0  0  0  0  0  0
   15.2310    3.0490   10.4100 C   0  0  0  0  0  0  0  0  0  0  0  0
   13.9510    2.4580   10.0120 O   0  0  0  0  0  0  0  0  0  0  0  0
   15.2980    3.1470   11.9360 C   0  0  0  0  0  0  0  0  0  0  0  0
   14.2940    4.0700   12.3760 O   0  0  0  0  0  0  0  0  0  0  0  0
   16.3420    4.8373   15.4521 H   0  0  0  0  0  0  0  0  0  0  0  0
   16.8980    5.6042   12.6774 H   0  0  0  0  0  0  0  0  0  0  0  0
   18.7275    3.1487   12.2232 H   0  0  0  0  0  0  0  0  0  0  0  0
   17.6201    1.7333   12.2498 H   0  0  0  0  0  0  0  0  0  0  0  0
   17.8824    3.7751    9.9742 H   0  0  0  0  0  0  0  0  0  0  0  0
   19.3323    1.5230   10.5729 H   0  0  0  0  0  0  0  0  0  0  0  0
   16.2949    1.1879   10.1314 H   0  0  0  0  0  0  0  0  0  0  0  0
   15.8621    3.2515    8.2154 H   0  0  0  0  0  0  0  0  0  0  0  0
   15.3187    4.0697   10.0095 H   0  0  0  0  0  0  0  0  0  0  0  0
   13.4324    2.2186   10.8206 H   0  0  0  0  0  0  0  0  0  0  0  0
   15.1373    2.1427   12.3550 H   0  0  0  0  0  0  0  0  0  0  0  0
   14.2738    4.0886   13.3656 H   0  0  0  0  0  0  0  0  0  0  0  0
  1  2  1  0
  2  3  2  0
  2  4  1  0
  4  5  1  0
  4  6  1  0
  4 13  1  0
  6  7  1  0
  7  8  1  0
  7  9  1  0
  9 10  1  0
  9 11  1  0
 11 12  1  0
 11 13  1  0
 13 14  1  0
  1 15  1  0
  5 16  1  0
  6 17  1  0
  6 18  1  0
  7 19  1  0
  8 20  1  0
  9 21  1  0
 10 22  1  0
 11 23  1  0
 12 24  1  0
 13 25  1  0
 14 26  1  0
A    1
OAA
A    2
CAI
A    3
OAB
A    4
CAN
A    5
OAG
A    6
CAH
A    7
CAJ
A    8
OAC
A    9
CAK
A   10
OAD
A   11
CAL
A   12
OAE
A   13
CAM
A   14
OAF
M  END
