4COH_T9H_A_1460
     RDKit          3D

 73 78  0  0  0  0  0  0  0  0999 V2000
   13.0880   -9.5140  -24.5240 O   0  0  0  0  0  0  0  0  0  0  0  0
   13.2560   -8.3640  -24.0490 C   0  0  0  0  0  0  0  0  0  0  0  0
   12.2920   -7.5920  -23.5600 N   0  0  0  0  0  0  0  0  0  0  0  0
   10.9470   -7.8790  -23.7370 C   0  0  0  0  0  0  0  0  0  0  0  0
   10.0350   -6.8220  -23.7530 C   0  0  0  0  0  0  0  0  0  0  0  0
    8.6610   -7.0700  -23.9590 C   0  0  0  0  0  0  0  0  0  0  0  0
    8.1680   -8.3010  -24.1540 N   0  0  0  0  0  0  0  0  0  0  0  0
    9.0200   -9.3360  -24.1190 C   0  0  0  0  0  0  0  0  0  0  0  0
   10.4220   -9.1500  -23.9410 C   0  0  0  0  0  0  0  0  0  0  0  0
   14.6850   -7.8160  -24.0290 C   0  0  0  0  0  0  0  0  0  0  0  0
   14.9890   -7.1860  -25.3910 C   0  0  0  0  0  0  0  0  0  0  0  0
   14.0620   -6.0370  -25.5980 C   0  0  0  0  0  0  0  0  0  0  0  0
   12.7450   -6.0730  -26.3030 C   0  0  0  0  0  0  0  0  0  0  0  0
   12.1030   -7.0560  -26.9980 C   0  0  0  0  0  0  0  0  0  0  0  0
   10.8600   -6.6870  -27.5940 C   0  0  0  0  0  0  0  0  0  0  0  0
   10.3260   -5.3910  -27.4730 C   0  0  0  0  0  0  0  0  0  0  0  0
   10.9900   -4.3970  -26.7510 C   0  0  0  0  0  0  0  0  0  0  0  0
   12.2320   -4.7150  -26.1800 C   0  0  0  0  0  0  0  0  0  0  0  0
   13.1630   -4.0030  -25.4530 N   0  0  0  0  0  0  0  0  0  0  0  0
   14.2530   -4.7460  -25.0890 C   0  0  0  0  0  0  0  0  0  0  0  0
   14.9870   -6.8900  -22.9460 N   0  0  0  0  0  0  0  0  0  0  0  0
   15.3850   -7.3210  -21.7470 C   0  0  0  0  0  0  0  0  0  0  0  0
   15.4120   -8.5050  -21.5470 O   0  0  0  0  0  0  0  0  0  0  0  0
   15.9960   -6.4950  -20.6540 C   0  0  0  0  0  0  0  0  0  0  0  0
   16.6650   -5.2080  -20.9740 C   0  0  0  0  0  0  0  0  0  0  0  0
   16.6500   -4.7530  -22.2430 F   0  0  0  0  0  0  0  0  0  0  0  0
   17.2620   -4.4690  -19.9490 C   0  0  0  0  0  0  0  0  0  0  0  0
   17.2430   -4.9060  -18.6180 C   0  0  0  0  0  0  0  0  0  0  0  0
   16.6200   -6.1340  -18.3290 C   0  0  0  0  0  0  0  0  0  0  0  0
   16.0100   -6.9160  -19.3390 C   0  0  0  0  0  0  0  0  0  0  0  0
   18.0290   -4.2080  -17.6660 N   0  0  0  0  0  0  0  0  0  0  0  0
   18.6120   -2.9320  -18.0360 C   0  0  0  0  0  0  0  0  0  0  0  0
   19.2080   -2.1000  -16.9140 C   0  0  0  0  0  0  0  0  0  0  0  0
   19.6110   -2.8330  -15.7120 N   0  0  0  0  0  0  0  0  0  0  0  0
   18.8690   -4.0390  -15.3090 C   0  0  0  0  0  0  0  0  0  0  0  0
   18.5580   -4.9430  -16.5150 C   0  0  0  0  0  0  0  0  0  0  0  0
   20.6160   -2.1500  -14.7650 S   0  0  0  0  0  0  0  0  0  0  0  0
   21.4670   -3.0090  -14.0120 O   0  0  0  0  0  0  0  0  0  0  0  0
   21.3520   -1.0900  -15.4010 O   0  0  0  0  0  0  0  0  0  0  0  0
   19.4490   -1.5000  -13.7260 C   0  0  0  0  0  0  0  0  0  0  0  0
   19.0300   -2.2840  -12.2390 S   0  0  0  0  0  0  0  0  0  0  0  0
   17.7280   -1.1730  -11.8340 C   0  0  0  0  0  0  0  0  0  0  0  0
   17.6330   -0.2510  -12.9250 C   0  0  0  0  0  0  0  0  0  0  0  0
   18.5720   -0.4300  -14.0000 C   0  0  0  0  0  0  0  0  0  0  0  0
   12.5533   -6.7487  -23.0295 H   0  0  0  0  0  0  0  0  0  0  0  0
   10.3890   -5.7912  -23.6044 H   0  0  0  0  0  0  0  0  0  0  0  0
    7.9658   -6.2176  -23.9595 H   0  0  0  0  0  0  0  0  0  0  0  0
    8.6260  -10.3569  -24.2308 H   0  0  0  0  0  0  0  0  0  0  0  0
   11.0946  -10.0201  -23.9653 H   0  0  0  0  0  0  0  0  0  0  0  0
   15.3428   -8.6750  -23.8307 H   0  0  0  0  0  0  0  0  0  0  0  0
   16.0300   -6.8313  -25.4117 H   0  0  0  0  0  0  0  0  0  0  0  0
   14.8515   -7.9299  -26.1896 H   0  0  0  0  0  0  0  0  0  0  0  0
   12.5179   -8.0703  -27.0930 H   0  0  0  0  0  0  0  0  0  0  0  0
   10.3007   -7.4411  -28.1672 H   0  0  0  0  0  0  0  0  0  0  0  0
    9.3664   -5.1560  -27.9567 H   0  0  0  0  0  0  0  0  0  0  0  0
   10.5526   -3.3946  -26.6333 H   0  0  0  0  0  0  0  0  0  0  0  0
   13.0490   -3.0091  -25.2080 H   0  0  0  0  0  0  0  0  0  0  0  0
   15.1173   -4.3952  -24.5059 H   0  0  0  0  0  0  0  0  0  0  0  0
   14.8911   -5.8776  -23.1094 H   0  0  0  0  0  0  0  0  0  0  0  0
   17.7599   -3.5192  -20.1937 H   0  0  0  0  0  0  0  0  0  0  0  0
   16.6066   -6.4961  -17.2904 H   0  0  0  0  0  0  0  0  0  0  0  0
   15.5398   -7.8740  -19.0721 H   0  0  0  0  0  0  0  0  0  0  0  0
   19.4122   -3.1305  -18.7642 H   0  0  0  0  0  0  0  0  0  0  0  0
   17.7738   -2.3342  -18.4234 H   0  0  0  0  0  0  0  0  0  0  0  0
   20.0981   -1.5896  -17.3105 H   0  0  0  0  0  0  0  0  0  0  0  0
   18.4047   -1.4216  -16.5907 H   0  0  0  0  0  0  0  0  0  0  0  0
   19.4739   -4.6050  -14.5854 H   0  0  0  0  0  0  0  0  0  0  0  0
   17.9152   -3.7224  -14.8617 H   0  0  0  0  0  0  0  0  0  0  0  0
   17.8143   -5.6928  -16.2072 H   0  0  0  0  0  0  0  0  0  0  0  0
   19.5052   -5.4053  -16.8297 H   0  0  0  0  0  0  0  0  0  0  0  0
   17.1101   -1.1844  -10.9240 H   0  0  0  0  0  0  0  0  0  0  0  0
   16.8815    0.5521  -12.9405 H   0  0  0  0  0  0  0  0  0  0  0  0
   18.6019    0.1843  -14.9120 H   0  0  0  0  0  0  0  0  0  0  0  0
  1  2  2  0
  2  3  1  0
  2 10  1  0
  3  4  1  0
  4  5  2  0
  4  9  1  0
  5  6  1  0
  6  7  2  0
  7  8  1  0
  8  9  2  0
 10 11  1  0
 10 21  1  0
 11 12  1  0
 12 13  1  0
 12 20  2  0
 13 14  2  0
 13 18  1  0
 14 15  1  0
 15 16  2  0
 16 17  1  0
 17 18  2  0
 18 19  1  0
 19 20  1  0
 21 22  1  0
 22 23  2  0
 22 24  1  0
 24 25  2  0
 24 30  1  0
 25 26  1  0
 25 27  1  0
 27 28  2  0
 28 29  1  0
 28 31  1  0
 29 30  2  0
 31 32  1  0
 31 36  1  0
 32 33  1  0
 33 34  1  0
 34 35  1  0
 34 37  1  0
 35 36  1  0
 37 38  2  0
 37 39  2  0
 37 40  1  0
 40 41  1  0
 40 44  2  0
 41 42  1  0
 42 43  2  0
 43 44  1  0
  3 45  1  0
  5 46  1  0
  6 47  1  0
  8 48  1  0
  9 49  1  0
 10 50  1  0
 11 51  1  0
 11 52  1  0
 14 53  1  0
 15 54  1  0
 16 55  1  0
 17 56  1  0
 19 57  1  0
 20 58  1  0
 21 59  1  0
 27 60  1  0
 29 61  1  0
 30 62  1  0
 32 63  1  0
 32 64  1  0
 33 65  1  0
 33 66  1  0
 35 67  1  0
 35 68  1  0
 36 69  1  0
 36 70  1  0
 42 71  1  0
 43 72  1  0
 44 73  1  0
A    1
O4
A    2
C6
A    3
N2
A    4
C5
A    5
C4
A    6
C3
A    7
N1
A    8
C2
A    9
C1
A   10
C7
A   11
C23
A   12
C24
A   13
C27
A   14
C28
A   15
C29
A   16
C30
A   17
C31
A   18
C26
A   19
N6
A   20
C25
A   21
N3
A   22
C8
A   23
O3
A   24
C9
A   25
C22
A   26
F
A   27
C21
A   28
C12
A   29
C11
A   30
C10
A   31
N4
A   32
C20
A   33
C19
A   34
N5
A   35
C14
A   36
C13
A   37
S1
A   38
O1
A   39
O2
A   40
C15
A   41
S2
A   42
C18
A   43
C17
A   44
C16
M  END
