4CPE_LUV_A_1136
     RDKit          3D

 73 77  0  0  0  0  0  0  0  0999 V2000
  -11.8980  -14.9950   -5.9010 O   0  0  0  0  0  0  0  0  0  0  0  0
  -11.9650  -15.8850   -5.0570 C   0  0  0  0  0  0  0  0  0  0  0  0
  -13.0880  -16.5360   -4.6670 N   0  0  0  0  0  0  0  0  0  0  0  0
  -12.8140  -17.6270   -3.7190 C   0  0  0  0  0  0  0  0  0  0  0  0
  -10.9090  -16.4120   -4.4070 N   0  0  0  0  0  0  0  0  0  0  0  0
  -11.2760  -17.4850   -3.4900 C   0  0  0  0  0  0  0  0  0  0  0  0
  -10.6850  -18.8620   -3.8300 C   0  0  0  0  0  0  0  0  0  0  0  0
  -11.7550  -19.5300   -5.1420 S   0  0  0  0  0  0  0  0  0  0  0  0
  -13.0490  -19.2520   -4.0820 C   0  0  0  0  0  0  0  0  0  0  0  0
   -9.2240  -18.8340   -4.2280 C   0  0  0  0  0  0  0  0  0  0  0  0
   -8.5830  -20.1950   -4.1410 C   0  0  0  0  0  0  0  0  0  0  0  0
   -7.1910  -20.1770   -4.6140 C   0  0  0  0  0  0  0  0  0  0  0  0
   -6.5320  -21.5250   -4.5350 C   0  0  0  0  0  0  0  0  0  0  0  0
   -6.4540  -22.0900   -3.1460 C   0  0  0  0  0  0  0  0  0  0  0  0
   -6.1110  -21.4000   -2.1970 O   0  0  0  0  0  0  0  0  0  0  0  0
   -6.7690  -23.3830   -3.0540 N   0  0  0  0  0  0  0  0  0  0  0  0
   -6.8130  -24.1270   -1.8100 C   0  0  0  0  0  0  0  0  0  0  0  0
   -5.6640  -25.1030   -1.7230 C   0  0  0  0  0  0  0  0  0  0  0  0
   -5.6780  -25.7730   -0.4330 N   0  0  0  0  0  0  0  0  0  0  0  0
   -4.6340  -25.7530    0.3960 C   0  0  0  0  0  0  0  0  0  0  0  0
   -3.5670  -25.2160    0.1140 O   0  0  0  0  0  0  0  0  0  0  0  0
   -4.8340  -26.4310    1.7190 C   0  0  0  0  0  0  0  0  0  0  0  0
   -5.5700  -25.7070    2.6720 C   0  0  0  0  0  0  0  0  0  0  0  0
   -6.3720  -24.5020    2.3110 C   0  0  0  0  0  0  0  0  0  0  0  0
   -7.6620  -24.6370    1.8110 C   0  0  0  0  0  0  0  0  0  0  0  0
   -8.3780  -23.5280    1.3990 C   0  0  0  0  0  0  0  0  0  0  0  0
   -7.8250  -22.2730    1.4880 C   0  0  0  0  0  0  0  0  0  0  0  0
   -6.5550  -22.1210    1.9870 C   0  0  0  0  0  0  0  0  0  0  0  0
   -5.8290  -23.2260    2.3980 C   0  0  0  0  0  0  0  0  0  0  0  0
   -5.6380  -26.2030    3.9740 C   0  0  0  0  0  0  0  0  0  0  0  0
   -5.0210  -27.4000    4.3000 C   0  0  0  0  0  0  0  0  0  0  0  0
   -4.3400  -28.1340    3.3400 C   0  0  0  0  0  0  0  0  0  0  0  0
   -4.2440  -27.6700    2.0280 C   0  0  0  0  0  0  0  0  0  0  0  0
   -3.5910  -28.5290    1.0000 C   0  0  0  0  0  0  0  0  0  0  0  0
   -2.3530  -29.1210    1.2390 C   0  0  0  0  0  0  0  0  0  0  0  0
   -1.7490  -29.9130    0.2760 C   0  0  0  0  0  0  0  0  0  0  0  0
   -2.3650  -30.1260   -0.9380 C   0  0  0  0  0  0  0  0  0  0  0  0
   -3.5900  -29.5490   -1.1910 C   0  0  0  0  0  0  0  0  0  0  0  0
   -4.2020  -28.7590   -0.2310 C   0  0  0  0  0  0  0  0  0  0  0  0
  -14.0323  -16.2928   -4.9989 H   0  0  0  0  0  0  0  0  0  0  0  0
  -13.5533  -17.4769   -2.9184 H   0  0  0  0  0  0  0  0  0  0  0  0
   -9.9404  -16.0896   -4.5439 H   0  0  0  0  0  0  0  0  0  0  0  0
  -10.9226  -17.2303   -2.4799 H   0  0  0  0  0  0  0  0  0  0  0  0
  -10.6758  -19.5037   -2.9366 H   0  0  0  0  0  0  0  0  0  0  0  0
  -12.9787  -19.8821   -3.1831 H   0  0  0  0  0  0  0  0  0  0  0  0
  -14.0390  -19.4872   -4.4998 H   0  0  0  0  0  0  0  0  0  0  0  0
   -9.1461  -18.4715   -5.2636 H   0  0  0  0  0  0  0  0  0  0  0  0
   -8.6969  -18.1677   -3.5293 H   0  0  0  0  0  0  0  0  0  0  0  0
   -8.5981  -20.5288   -3.0930 H   0  0  0  0  0  0  0  0  0  0  0  0
   -9.1527  -20.8817   -4.7844 H   0  0  0  0  0  0  0  0  0  0  0  0
   -7.1800  -19.8412   -5.6614 H   0  0  0  0  0  0  0  0  0  0  0  0
   -6.6279  -19.4942   -3.9608 H   0  0  0  0  0  0  0  0  0  0  0  0
   -7.1035  -22.2259   -5.1612 H   0  0  0  0  0  0  0  0  0  0  0  0
   -5.4965  -21.3921   -4.8815 H   0  0  0  0  0  0  0  0  0  0  0  0
   -6.9959  -23.8860   -3.9237 H   0  0  0  0  0  0  0  0  0  0  0  0
   -6.7516  -23.4228   -0.9672 H   0  0  0  0  0  0  0  0  0  0  0  0
   -7.7563  -24.6915   -1.7721 H   0  0  0  0  0  0  0  0  0  0  0  0
   -5.7603  -25.8514   -2.5234 H   0  0  0  0  0  0  0  0  0  0  0  0
   -4.7162  -24.5563   -1.8359 H   0  0  0  0  0  0  0  0  0  0  0  0
   -6.5267  -26.2826   -0.1486 H   0  0  0  0  0  0  0  0  0  0  0  0
   -8.1177  -25.6358    1.7424 H   0  0  0  0  0  0  0  0  0  0  0  0
   -9.3950  -23.6509    0.9981 H   0  0  0  0  0  0  0  0  0  0  0  0
   -8.3981  -21.3931    1.1605 H   0  0  0  0  0  0  0  0  0  0  0  0
   -6.1122  -21.1167    2.0606 H   0  0  0  0  0  0  0  0  0  0  0  0
   -4.8127  -23.0925    2.7972 H   0  0  0  0  0  0  0  0  0  0  0  0
   -6.1842  -25.6410    4.7458 H   0  0  0  0  0  0  0  0  0  0  0  0
   -5.0719  -27.7731    5.3335 H   0  0  0  0  0  0  0  0  0  0  0  0
   -3.8716  -29.0903    3.6157 H   0  0  0  0  0  0  0  0  0  0  0  0
   -1.8492  -28.9578    2.2032 H   0  0  0  0  0  0  0  0  0  0  0  0
   -0.7719  -30.3745    0.4818 H   0  0  0  0  0  0  0  0  0  0  0  0
   -1.8811  -30.7534   -1.7010 H   0  0  0  0  0  0  0  0  0  0  0  0
   -4.0845  -29.7161   -2.1593 H   0  0  0  0  0  0  0  0  0  0  0  0
   -5.1825  -28.3078   -0.4434 H   0  0  0  0  0  0  0  0  0  0  0  0
  1  2  2  0
  2  3  1  0
  2  5  1  0
  3  4  1  0
  4  6  1  0
  4  9  1  0
  5  6  1  0
  6  7  1  0
  7  8  1  0
  7 10  1  0
  8  9  1  0
 10 11  1  0
 11 12  1  0
 12 13  1  0
 13 14  1  0
 14 15  2  0
 14 16  1  0
 16 17  1  0
 17 18  1  0
 18 19  1  0
 19 20  1  0
 20 21  2  0
 20 22  1  0
 22 23  1  0
 22 33  2  0
 23 24  1  0
 23 30  2  0
 24 25  2  0
 24 29  1  0
 25 26  1  0
 26 27  2  0
 27 28  1  0
 28 29  2  0
 30 31  1  0
 31 32  2  0
 32 33  1  0
 33 34  1  0
 34 35  2  0
 34 39  1  0
 35 36  1  0
 36 37  2  0
 37 38  1  0
 38 39  2  0
  3 40  1  0
  4 41  1  0
  5 42  1  0
  6 43  1  0
  7 44  1  0
  9 45  1  0
  9 46  1  0
 10 47  1  0
 10 48  1  0
 11 49  1  0
 11 50  1  0
 12 51  1  0
 12 52  1  0
 13 53  1  0
 13 54  1  0
 16 55  1  0
 17 56  1  0
 17 57  1  0
 18 58  1  0
 18 59  1  0
 19 60  1  0
 25 61  1  0
 26 62  1  0
 27 63  1  0
 28 64  1  0
 29 65  1  0
 30 66  1  0
 31 67  1  0
 32 68  1  0
 35 69  1  0
 36 70  1  0
 37 71  1  0
 38 72  1  0
 39 73  1  0
A    1
O2
A    2
C30
A    3
N3
A    4
C
A    5
N2
A    6
C29
A    7
C2
A    8
S
A    9
C1
A   10
C3
A   11
C4
A   12
C5
A   13
C6
A   14
C7
A   15
O
A   16
N
A   17
C8
A   18
C9
A   19
N1
A   20
C10
A   21
O1
A   22
C11
A   23
C16
A   24
C17
A   25
C22
A   26
C21
A   27
C20
A   28
C19
A   29
C18
A   30
C15
A   31
C14
A   32
C13
A   33
C12
A   34
C23
A   35
C28
A   36
C27
A   37
C26
A   38
C25
A   39
C24
M  END
