4CPF_LH3_B_1136
     RDKit          3D

 77 81  0  0  0  0  0  0  0  0999 V2000
   11.3390   14.9710    6.1810 O   0  0  0  0  0  0  0  0  0  0  0  0
   11.2550   15.8500    5.3320 C   0  0  0  0  0  0  0  0  0  0  0  0
   10.1130   16.4450    4.9160 N   0  0  0  0  0  0  0  0  0  0  0  0
   10.3470   17.4570    3.8930 C   0  0  0  0  0  0  0  0  0  0  0  0
   12.2960   16.3770    4.6530 N   0  0  0  0  0  0  0  0  0  0  0  0
   11.8940   17.3870    3.6930 C   0  0  0  0  0  0  0  0  0  0  0  0
   12.4580   18.7850    3.9930 C   0  0  0  0  0  0  0  0  0  0  0  0
   11.3820   19.4590    5.2940 S   0  0  0  0  0  0  0  0  0  0  0  0
    9.9830   18.9250    4.3190 C   0  0  0  0  0  0  0  0  0  0  0  0
   13.9240   18.7880    4.3780 C   0  0  0  0  0  0  0  0  0  0  0  0
   14.5820   20.1430    4.2890 C   0  0  0  0  0  0  0  0  0  0  0  0
   16.0280   20.0830    4.6930 C   0  0  0  0  0  0  0  0  0  0  0  0
   16.7570   21.4040    4.4280 C   0  0  0  0  0  0  0  0  0  0  0  0
   18.2140   21.3060    4.8220 C   0  0  0  0  0  0  0  0  0  0  0  0
   18.5660   21.3890    5.9830 O   0  0  0  0  0  0  0  0  0  0  0  0
   19.0900   21.0830    3.8400 N   0  0  0  0  0  0  0  0  0  0  0  0
   20.4480   20.9030    4.1180 N   0  0  0  0  0  0  0  0  0  0  0  0
   21.2120   19.9460    3.3970 C   0  0  0  0  0  0  0  0  0  0  0  0
   22.3910   20.4280    2.8010 C   0  0  0  0  0  0  0  0  0  0  0  0
   22.7930   21.8600    2.8860 C   0  0  0  0  0  0  0  0  0  0  0  0
   24.0090   22.2400    3.4450 C   0  0  0  0  0  0  0  0  0  0  0  0
   24.3750   23.5710    3.5270 C   0  0  0  0  0  0  0  0  0  0  0  0
   23.5280   24.5690    3.0580 C   0  0  0  0  0  0  0  0  0  0  0  0
   23.8820   26.0110    3.1720 C   0  0  0  0  0  0  0  0  0  0  0  0
   25.0920   26.2000    3.6990 O   0  0  0  0  0  0  0  0  0  0  0  0
   25.4410   27.5700    4.0090 C   0  0  0  0  0  0  0  0  0  0  0  0
   23.1470   26.9140    2.8640 O   0  0  0  0  0  0  0  0  0  0  0  0
   22.3070   24.1980    2.5090 C   0  0  0  0  0  0  0  0  0  0  0  0
   21.9500   22.8660    2.4210 C   0  0  0  0  0  0  0  0  0  0  0  0
   23.1900   19.5310    2.0960 C   0  0  0  0  0  0  0  0  0  0  0  0
   22.8230   18.2020    1.9780 C   0  0  0  0  0  0  0  0  0  0  0  0
   21.6560   17.7380    2.5580 C   0  0  0  0  0  0  0  0  0  0  0  0
   20.8290   18.5950    3.2820 C   0  0  0  0  0  0  0  0  0  0  0  0
   19.6060   18.0470    3.9370 C   0  0  0  0  0  0  0  0  0  0  0  0
   19.4040   18.1840    5.3070 C   0  0  0  0  0  0  0  0  0  0  0  0
   18.3170   17.5960    5.9340 C   0  0  0  0  0  0  0  0  0  0  0  0
   17.3940   16.8540    5.1990 C   0  0  0  0  0  0  0  0  0  0  0  0
   17.5630   16.7530    3.8240 C   0  0  0  0  0  0  0  0  0  0  0  0
   18.6630   17.3230    3.2090 C   0  0  0  0  0  0  0  0  0  0  0  0
   16.1880   16.2510    5.8340 C   0  0  0  0  0  0  0  0  0  0  0  0
   15.2470   15.8070    5.2290 O   0  0  0  0  0  0  0  0  0  0  0  0
   16.2200   16.3190    7.1500 O   0  0  0  0  0  0  0  0  0  0  0  0
   15.0120   15.9090    7.8220 C   0  0  0  0  0  0  0  0  0  0  0  0
    9.1798   16.2086    5.2823 H   0  0  0  0  0  0  0  0  0  0  0  0
    9.7220   17.2531    3.0110 H   0  0  0  0  0  0  0  0  0  0  0  0
   13.2744   16.0914    4.8014 H   0  0  0  0  0  0  0  0  0  0  0  0
   12.2484   17.1232    2.6856 H   0  0  0  0  0  0  0  0  0  0  0  0
   12.4482   19.4116    3.0890 H   0  0  0  0  0  0  0  0  0  0  0  0
    9.8556   19.5674    3.4352 H   0  0  0  0  0  0  0  0  0  0  0  0
    9.0361   18.9792    4.8762 H   0  0  0  0  0  0  0  0  0  0  0  0
   14.0096   18.4299    5.4146 H   0  0  0  0  0  0  0  0  0  0  0  0
   14.4419   18.1362    3.6590 H   0  0  0  0  0  0  0  0  0  0  0  0
   14.5157   20.5047    3.2523 H   0  0  0  0  0  0  0  0  0  0  0  0
   14.0604   20.8247    4.9769 H   0  0  0  0  0  0  0  0  0  0  0  0
   16.0866   19.8552    5.7675 H   0  0  0  0  0  0  0  0  0  0  0  0
   16.5150   19.3014    4.0914 H   0  0  0  0  0  0  0  0  0  0  0  0
   16.6892   21.6439    3.3566 H   0  0  0  0  0  0  0  0  0  0  0  0
   16.2830   22.1934    5.0298 H   0  0  0  0  0  0  0  0  0  0  0  0
   18.7611   21.0430    2.8647 H   0  0  0  0  0  0  0  0  0  0  0  0
   20.8986   21.4686    4.8514 H   0  0  0  0  0  0  0  0  0  0  0  0
   24.6918   21.4676    3.8287 H   0  0  0  0  0  0  0  0  0  0  0  0
   25.3456   23.8429    3.9675 H   0  0  0  0  0  0  0  0  0  0  0  0
   25.4746   27.7018    5.1006 H   0  0  0  0  0  0  0  0  0  0  0  0
   26.4272   27.8030    3.5810 H   0  0  0  0  0  0  0  0  0  0  0  0
   24.6865   28.2464    3.5810 H   0  0  0  0  0  0  0  0  0  0  0  0
   21.6177   24.9721    2.1408 H   0  0  0  0  0  0  0  0  0  0  0  0
   20.9815   22.5952    1.9752 H   0  0  0  0  0  0  0  0  0  0  0  0
   24.1217   19.8824    1.6286 H   0  0  0  0  0  0  0  0  0  0  0  0
   23.4658   17.5074    1.4173 H   0  0  0  0  0  0  0  0  0  0  0  0
   21.3773   16.6798    2.4464 H   0  0  0  0  0  0  0  0  0  0  0  0
   20.1198   18.7694    5.9028 H   0  0  0  0  0  0  0  0  0  0  0  0
   18.1817   17.7157    7.0191 H   0  0  0  0  0  0  0  0  0  0  0  0
   16.8168   16.2160    3.2200 H   0  0  0  0  0  0  0  0  0  0  0  0
   18.7964   17.2026    2.1238 H   0  0  0  0  0  0  0  0  0  0  0  0
   15.1625   15.9601    8.9105 H   0  0  0  0  0  0  0  0  0  0  0  0
   14.1873   16.5776    7.5341 H   0  0  0  0  0  0  0  0  0  0  0  0
   14.7646   14.8766    7.5341 H   0  0  0  0  0  0  0  0  0  0  0  0
  1  2  2  0
  2  3  1  0
  2  5  1  0
  3  4  1  0
  4  6  1  0
  4  9  1  0
  5  6  1  0
  6  7  1  0
  7  8  1  0
  7 10  1  0
  8  9  1  0
 10 11  1  0
 11 12  1  0
 12 13  1  0
 13 14  1  0
 14 15  2  0
 14 16  1  0
 16 17  1  0
 17 18  1  0
 18 19  1  0
 18 33  2  0
 19 20  1  0
 19 30  2  0
 20 21  2  0
 20 29  1  0
 21 22  1  0
 22 23  2  0
 23 24  1  0
 23 28  1  0
 24 25  1  0
 24 27  2  0
 25 26  1  0
 28 29  2  0
 30 31  1  0
 31 32  2  0
 32 33  1  0
 33 34  1  0
 34 35  2  0
 34 39  1  0
 35 36  1  0
 36 37  2  0
 37 38  1  0
 37 40  1  0
 38 39  2  0
 40 41  2  0
 40 42  1  0
 42 43  1  0
  3 44  1  0
  4 45  1  0
  5 46  1  0
  6 47  1  0
  7 48  1  0
  9 49  1  0
  9 50  1  0
 10 51  1  0
 10 52  1  0
 11 53  1  0
 11 54  1  0
 12 55  1  0
 12 56  1  0
 13 57  1  0
 13 58  1  0
 16 59  1  0
 17 60  1  0
 21 61  1  0
 22 62  1  0
 26 63  1  0
 26 64  1  0
 26 65  1  0
 28 66  1  0
 29 67  1  0
 30 68  1  0
 31 69  1  0
 32 70  1  0
 35 71  1  0
 36 72  1  0
 38 73  1  0
 39 74  1  0
 43 75  1  0
 43 76  1  0
 43 77  1  0
A    1
O5
A    2
C31
A    3
N3
A    4
C
A    5
N2
A    6
C30
A    7
C2
A    8
S
A    9
C1
A   10
C3
A   11
C4
A   12
C5
A   13
C6
A   14
C7
A   15
O
A   16
N
A   17
N1
A   18
C8
A   19
C13
A   20
C14
A   21
C19
A   22
C18
A   23
C17
A   24
C20
A   25
O2
A   26
C21
A   27
O1
A   28
C16
A   29
C15
A   30
C12
A   31
C11
A   32
C10
A   33
C9
A   34
C22
A   35
C27
A   36
C26
A   37
C25
A   38
C24
A   39
C23
A   40
C28
A   41
O3
A   42
O4
A   43
C29
M  END
