3CP4_ADM_A_416
     RDKit          3D

 26 28  0  0  0  0  0  0  0  0999 V2000
   46.0740   44.7880   15.4160 C   0  0  0  0  0  0  0  0  0  0  0  0
   44.6660   44.3810   14.8160 C   0  0  0  0  0  0  0  0  0  0  0  0
   44.7750   43.2180   13.7720 C   0  0  0  0  0  0  0  0  0  0  0  0
   45.7500   43.6460   12.6150 C   0  0  0  0  0  0  0  0  0  0  0  0
   47.1800   44.0300   13.2170 C   0  0  0  0  0  0  0  0  0  0  0  0
   47.7590   42.7900   13.9580 C   0  0  0  0  0  0  0  0  0  0  0  0
   46.8130   42.3460   15.1360 C   0  0  0  0  0  0  0  0  0  0  0  0
   46.6470   43.5200   16.1700 C   0  0  0  0  0  0  0  0  0  0  0  0
   47.0080   45.2240   14.2320 C   0  0  0  0  0  0  0  0  0  0  0  0
   45.3960   41.9790   14.5410 C   0  0  0  0  0  0  0  0  0  0  0  0
   46.0008   45.6278   16.1226 H   0  0  0  0  0  0  0  0  0  0  0  0
   44.0118   44.0569   15.6388 H   0  0  0  0  0  0  0  0  0  0  0  0
   44.2559   45.2600   14.2971 H   0  0  0  0  0  0  0  0  0  0  0  0
   43.7934   42.9755   13.3389 H   0  0  0  0  0  0  0  0  0  0  0  0
   45.8649   42.8110   11.9083 H   0  0  0  0  0  0  0  0  0  0  0  0
   45.3310   44.5204   12.0955 H   0  0  0  0  0  0  0  0  0  0  0  0
   47.8648   44.3332   12.4113 H   0  0  0  0  0  0  0  0  0  0  0  0
   47.8599   41.9589   13.2445 H   0  0  0  0  0  0  0  0  0  0  0  0
   48.7400   43.0580   14.3774 H   0  0  0  0  0  0  0  0  0  0  0  0
   47.2518   41.4762   15.6468 H   0  0  0  0  0  0  0  0  0  0  0  0
   47.6242   43.7635   16.6126 H   0  0  0  0  0  0  0  0  0  0  0  0
   45.9556   43.2176   16.9703 H   0  0  0  0  0  0  0  0  0  0  0  0
   46.5602   46.0835   13.7116 H   0  0  0  0  0  0  0  0  0  0  0  0
   47.9936   45.5041   14.6323 H   0  0  0  0  0  0  0  0  0  0  0  0
   44.7235   41.6891   15.3618 H   0  0  0  0  0  0  0  0  0  0  0  0
   45.5141   41.1455   13.8329 H   0  0  0  0  0  0  0  0  0  0  0  0
  1  2  1  0
  1  8  1  0
  1  9  1  0
  2  3  1  0
  3  4  1  0
  3 10  1  0
  4  5  1  0
  5  6  1  0
  5  9  1  0
  6  7  1  0
  7  8  1  0
  7 10  1  0
  1 11  1  0
  2 12  1  0
  2 13  1  0
  3 14  1  0
  4 15  1  0
  4 16  1  0
  5 17  1  0
  6 18  1  0
  6 19  1  0
  7 20  1  0
  8 21  1  0
  8 22  1  0
  9 23  1  0
  9 24  1  0
 10 25  1  0
 10 26  1  0
A    1
C1
A    2
C2
A    3
C3
A    4
C4
A    5
C5
A    6
C6
A    7
C7
A    8
C8
A    9
C9
A   10
C10
M  END
