4CQ9_XBL_A_4000
     RDKit          3D

 41 45  0  0  0  0  0  0  0  0999 V2000
   49.0770  -18.8620  -34.3960 C   0  0  0  0  0  0  0  0  0  0  0  0
   48.5600  -17.4700  -34.3710 C   0  0  0  0  0  0  0  0  0  0  0  0
   47.4020  -17.0900  -33.7360 N   0  0  0  0  0  0  0  0  0  0  0  0
   46.5570  -17.9000  -33.0050 N   0  0  0  0  0  0  0  0  0  0  0  0
   45.5480  -17.3440  -32.4490 C   0  0  0  0  0  0  0  0  0  0  0  0
   45.2650  -15.9180  -32.5430 C   0  0  0  0  0  0  0  0  0  0  0  0
   44.1870  -15.3190  -31.8800 C   0  0  0  0  0  0  0  0  0  0  0  0
   43.9540  -13.9570  -32.0040 C   0  0  0  0  0  0  0  0  0  0  0  0
   44.7840  -13.1740  -32.7910 C   0  0  0  0  0  0  0  0  0  0  0  0
   45.8650  -13.7420  -33.4520 C   0  0  0  0  0  0  0  0  0  0  0  0
   46.1260  -15.1140  -33.3270 C   0  0  0  0  0  0  0  0  0  0  0  0
   47.2760  -15.7350  -33.9570 C   0  0  0  0  0  0  0  0  0  0  0  0
   48.2970  -15.3280  -34.6800 N   0  0  0  0  0  0  0  0  0  0  0  0
   49.1070  -16.4290  -34.9410 N   0  0  0  0  0  0  0  0  0  0  0  0
   44.7040  -18.2420  -31.8050 N   0  0  0  0  0  0  0  0  0  0  0  0
   43.4140  -18.5040  -32.4520 C   0  0  0  0  0  0  0  0  0  0  0  0
   42.5060  -19.3370  -31.5790 C   0  0  0  0  0  0  0  0  0  0  0  0
   41.1340  -19.3500  -31.8270 C   0  0  0  0  0  0  0  0  0  0  0  0
   40.2710  -20.0710  -31.0180 C   0  0  0  0  0  0  0  0  0  0  0  0
   40.7640  -20.7990  -29.9640 C   0  0  0  0  0  0  0  0  0  0  0  0
   42.1250  -20.8160  -29.7110 C   0  0  0  0  0  0  0  0  0  0  0  0
   43.0120  -20.0850  -30.5010 C   0  0  0  0  0  0  0  0  0  0  0  0
   44.4800  -20.0470  -30.1450 C   0  0  0  0  0  0  0  0  0  0  0  0
   45.3240  -19.4590  -31.2590 C   0  0  0  0  0  0  0  0  0  0  0  0
   49.2107  -19.2220  -33.3652 H   0  0  0  0  0  0  0  0  0  0  0  0
   48.3597  -19.5102  -34.9206 H   0  0  0  0  0  0  0  0  0  0  0  0
   50.0436  -18.8848  -34.9206 H   0  0  0  0  0  0  0  0  0  0  0  0
   43.5202  -15.9326  -31.2564 H   0  0  0  0  0  0  0  0  0  0  0  0
   43.1066  -13.4963  -31.4753 H   0  0  0  0  0  0  0  0  0  0  0  0
   44.5852  -12.0969  -32.8925 H   0  0  0  0  0  0  0  0  0  0  0  0
   46.5184  -13.1139  -34.0754 H   0  0  0  0  0  0  0  0  0  0  0  0
   42.9209  -17.5439  -32.6642 H   0  0  0  0  0  0  0  0  0  0  0  0
   43.6048  -19.0647  -33.3789 H   0  0  0  0  0  0  0  0  0  0  0  0
   40.7312  -18.7797  -32.6770 H   0  0  0  0  0  0  0  0  0  0  0  0
   39.1898  -20.0601  -31.2205 H   0  0  0  0  0  0  0  0  0  0  0  0
   40.0777  -21.3689  -29.3204 H   0  0  0  0  0  0  0  0  0  0  0  0
   42.5128  -21.4153  -28.8740 H   0  0  0  0  0  0  0  0  0  0  0  0
   44.6096  -19.4339  -29.2409 H   0  0  0  0  0  0  0  0  0  0  0  0
   44.8141  -21.0817  -29.9781 H   0  0  0  0  0  0  0  0  0  0  0  0
   45.4262  -20.2024  -32.0633 H   0  0  0  0  0  0  0  0  0  0  0  0
   46.3103  -19.1958  -30.8493 H   0  0  0  0  0  0  0  0  0  0  0  0
  1  2  1  0
  2  3  1  0
  2 14  2  0
  3  4  1  0
  3 12  1  0
  4  5  2  0
  5  6  1  0
  5 15  1  0
  6  7  1  0
  6 11  2  0
  7  8  2  0
  8  9  1  0
  9 10  2  0
 10 11  1  0
 11 12  1  0
 12 13  2  0
 13 14  1  0
 15 16  1  0
 15 24  1  0
 16 17  1  0
 17 18  2  0
 17 22  1  0
 18 19  1  0
 19 20  2  0
 20 21  1  0
 21 22  2  0
 22 23  1  0
 23 24  1  0
  1 25  1  0
  1 26  1  0
  1 27  1  0
  7 28  1  0
  8 29  1  0
  9 30  1  0
 10 31  1  0
 16 32  1  0
 16 33  1  0
 18 34  1  0
 19 35  1  0
 20 36  1  0
 21 37  1  0
 23 38  1  0
 23 39  1  0
 24 40  1  0
 24 41  1  0
A    1
C
A    2
C1
A    3
N2
A    4
N3
A    5
C3
A    6
C13
A    7
C18
A    8
C17
A    9
C16
A   10
C15
A   11
C14
A   12
C2
A   13
N1
A   14
N
A   15
N4
A   16
C8
A   17
C7
A   18
C9
A   19
C10
A   20
C11
A   21
C12
A   22
C6
A   23
C5
A   24
C4
M  END
