4CR9_OTW_A_1489
     RDKit          3D

 24 25  0  0  0  0  0  0  0  0999 V2000
   49.6750   23.0710   11.9230 C   0  0  0  0  0  0  0  0  0  0  0  0
   49.9300   21.6020   11.8740 C   0  0  0  0  0  0  0  0  0  0  0  0
   48.8390   20.7680   11.8230 C   0  0  0  0  0  0  0  0  0  0  0  0
   49.0270   19.4100   11.7740 C   0  0  0  0  0  0  0  0  0  0  0  0
   50.2450   18.8590   11.7770 N   0  0  0  0  0  0  0  0  0  0  0  0
   51.3080   19.6710   11.8290 C   0  0  0  0  0  0  0  0  0  0  0  0
   51.2010   21.0540   11.8790 C   0  0  0  0  0  0  0  0  0  0  0  0
   52.3300   21.8510   11.9300 C   0  0  0  0  0  0  0  0  0  0  0  0
   53.5870   21.2750   11.9340 C   0  0  0  0  0  0  0  0  0  0  0  0
   53.7030   19.9050   11.8850 C   0  0  0  0  0  0  0  0  0  0  0  0
   52.5750   19.1240   11.8340 C   0  0  0  0  0  0  0  0  0  0  0  0
   54.7520   22.0450   11.9860 N   0  0  0  0  0  0  0  0  0  0  0  0
   47.8810   18.6090   11.7190 N   0  0  0  0  0  0  0  0  0  0  0  0
   49.6181   23.3985   12.9716 H   0  0  0  0  0  0  0  0  0  0  0  0
   50.4943   23.6025   11.4168 H   0  0  0  0  0  0  0  0  0  0  0  0
   48.7245   23.2952   11.4168 H   0  0  0  0  0  0  0  0  0  0  0  0
   47.8217   21.1865   11.8215 H   0  0  0  0  0  0  0  0  0  0  0  0
   52.2278   22.9456   11.9675 H   0  0  0  0  0  0  0  0  0  0  0  0
   54.6980   19.4361   11.8867 H   0  0  0  0  0  0  0  0  0  0  0  0
   52.6844   18.0301   11.7960 H   0  0  0  0  0  0  0  0  0  0  0  0
   55.1536   22.3105   12.8966 H   0  0  0  0  0  0  0  0  0  0  0  0
   55.2090   22.3471   11.1138 H   0  0  0  0  0  0  0  0  0  0  0  0
   47.4305   18.2941   12.5901 H   0  0  0  0  0  0  0  0  0  0  0  0
   47.4880   18.3343   10.8074 H   0  0  0  0  0  0  0  0  0  0  0  0
  1  2  1  0
  2  3  2  0
  2  7  1  0
  3  4  1  0
  4  5  2  0
  4 13  1  0
  5  6  1  0
  6  7  2  0
  6 11  1  0
  7  8  1  0
  8  9  2  0
  9 10  1  0
  9 12  1  0
 10 11  2  0
  1 14  1  0
  1 15  1  0
  1 16  1  0
  3 17  1  0
  8 18  1  0
 10 19  1  0
 11 20  1  0
 12 21  1  0
 12 22  1  0
 13 23  1  0
 13 24  1  0
A    1
C1
A    2
C2
A    3
C3
A    4
C4
A    5
N5
A    6
C6
A    7
C7
A    8
C8
A    9
C9
A   10
C10
A   11
C11
A   12
N12
A   13
N13
M  END
