4CRL_C1I_A_1360
     RDKit          3D

 71 77  0  0  0  0  0  0  0  0999 V2000
    2.2190   17.7910   -2.7150 C   0  0  0  0  0  0  0  0  0  0  0  0
    2.8140   16.4630   -2.5380 N   0  0  0  0  0  0  0  0  0  0  0  0
    2.2750   15.8570   -1.3190 C   0  0  0  0  0  0  0  0  0  0  0  0
    2.5760   15.6070   -3.7040 C   0  0  0  0  0  0  0  0  0  0  0  0
    1.0770   15.4470   -3.8750 C   0  0  0  0  0  0  0  0  0  0  0  0
    0.6930   14.6220   -5.0960 C   0  0  0  0  0  0  0  0  0  0  0  0
    0.7400   13.1060   -4.8800 C   0  0  0  0  0  0  0  0  0  0  0  0
   -0.3630   12.6070   -5.8570 C   0  0  0  0  0  0  0  0  0  0  0  0
   -1.0680   13.8740   -6.3710 C   0  0  0  0  0  0  0  0  0  0  0  0
   -0.7000   14.8810   -5.4100 O   0  0  0  0  0  0  0  0  0  0  0  0
   -0.4060   14.3240   -7.6770 C   0  0  0  0  0  0  0  0  0  0  0  0
    0.9620   14.7900   -7.5340 C   0  0  0  0  0  0  0  0  0  0  0  0
    1.5350   14.9600   -6.3070 C   0  0  0  0  0  0  0  0  0  0  0  0
    2.9530   15.4280   -6.1810 C   0  0  0  0  0  0  0  0  0  0  0  0
    3.2900   16.2120   -7.3180 O   0  0  0  0  0  0  0  0  0  0  0  0
    3.1680   16.2790   -4.9400 C   0  0  0  0  0  0  0  0  0  0  0  0
    4.5660   16.4470   -4.7470 O   0  0  0  0  0  0  0  0  0  0  0  0
   -1.0280   14.3050   -8.8300 C   0  0  0  0  0  0  0  0  0  0  0  0
   -2.4450   13.8410   -9.0080 C   0  0  0  0  0  0  0  0  0  0  0  0
   -2.9670   13.0740   -7.8180 C   0  0  0  0  0  0  0  0  0  0  0  0
   -2.4470   11.6390   -7.8520 C   0  0  0  0  0  0  0  0  0  0  0  0
   -4.4650   13.0780   -7.5710 C   0  0  0  0  0  0  0  0  0  0  0  0
   -4.5880   12.5110   -6.1400 C   0  0  0  0  0  0  0  0  0  0  0  0
   -3.2750   12.9250   -5.4360 C   0  0  0  0  0  0  0  0  0  0  0  0
   -2.5660   13.7780   -6.4940 C   0  0  0  0  0  0  0  0  0  0  0  0
   -5.2740   12.3200   -8.5920 C   0  0  0  0  0  0  0  0  0  0  0  0
   -5.9290   11.1760   -8.2710 C   0  0  0  0  0  0  0  0  0  0  0  0
   -6.6850   10.5210   -9.2460 C   0  0  0  0  0  0  0  0  0  0  0  0
   -7.3780    9.3340   -8.9880 C   0  0  0  0  0  0  0  0  0  0  0  0
   -8.0750    8.7650   -9.9330 N   0  0  0  0  0  0  0  0  0  0  0  0
   -8.1600    9.2490  -11.1520 C   0  0  0  0  0  0  0  0  0  0  0  0
   -7.5280   10.3940  -11.4980 C   0  0  0  0  0  0  0  0  0  0  0  0
   -6.7640   11.0680  -10.5420 C   0  0  0  0  0  0  0  0  0  0  0  0
   -6.0860   12.2510  -10.8340 C   0  0  0  0  0  0  0  0  0  0  0  0
   -5.3630   12.8560   -9.8650 C   0  0  0  0  0  0  0  0  0  0  0  0
    2.0190   18.2374   -1.7298 H   0  0  0  0  0  0  0  0  0  0  0  0
    2.9154   18.4333   -3.2740 H   0  0  0  0  0  0  0  0  0  0  0  0
    1.2761   17.6988   -3.2740 H   0  0  0  0  0  0  0  0  0  0  0  0
    2.7139   16.3504   -0.4393 H   0  0  0  0  0  0  0  0  0  0  0  0
    1.1820   15.9796   -1.3010 H   0  0  0  0  0  0  0  0  0  0  0  0
    2.5242   14.7857   -1.3010 H   0  0  0  0  0  0  0  0  0  0  0  0
    3.0456   14.6216   -3.5677 H   0  0  0  0  0  0  0  0  0  0  0  0
    0.6746   14.9520   -2.9789 H   0  0  0  0  0  0  0  0  0  0  0  0
    0.6568   16.4535   -4.0175 H   0  0  0  0  0  0  0  0  0  0  0  0
    1.7251   12.6946   -5.1453 H   0  0  0  0  0  0  0  0  0  0  0  0
    0.5789   12.8012   -3.8354 H   0  0  0  0  0  0  0  0  0  0  0  0
    0.0877   12.0528   -6.6935 H   0  0  0  0  0  0  0  0  0  0  0  0
   -1.0673   11.9240   -5.3595 H   0  0  0  0  0  0  0  0  0  0  0  0
    1.5507   15.0113   -8.4365 H   0  0  0  0  0  0  0  0  0  0  0  0
    3.5886   14.5334   -6.1055 H   0  0  0  0  0  0  0  0  0  0  0  0
    3.6630   17.0798   -7.0216 H   0  0  0  0  0  0  0  0  0  0  0  0
    2.6684   17.2487   -5.0820 H   0  0  0  0  0  0  0  0  0  0  0  0
    4.7648   16.4709   -3.7775 H   0  0  0  0  0  0  0  0  0  0  0  0
   -0.4802   14.6491   -9.7197 H   0  0  0  0  0  0  0  0  0  0  0  0
   -3.0851   14.7215   -9.1660 H   0  0  0  0  0  0  0  0  0  0  0  0
   -2.4628   13.1606   -9.8722 H   0  0  0  0  0  0  0  0  0  0  0  0
   -2.3142   11.2726   -6.8233 H   0  0  0  0  0  0  0  0  0  0  0  0
   -3.1705   10.9992   -8.3786 H   0  0  0  0  0  0  0  0  0  0  0  0
   -1.4816   11.6112   -8.3786 H   0  0  0  0  0  0  0  0  0  0  0  0
   -4.8928   14.0865   -7.6711 H   0  0  0  0  0  0  0  0  0  0  0  0
   -5.4574   12.9453   -5.6247 H   0  0  0  0  0  0  0  0  0  0  0  0
   -4.7346   11.4208   -6.1369 H   0  0  0  0  0  0  0  0  0  0  0  0
   -3.4816   13.5123   -4.5291 H   0  0  0  0  0  0  0  0  0  0  0  0
   -2.6752   12.0660   -5.1007 H   0  0  0  0  0  0  0  0  0  0  0  0
   -2.8707   14.8311   -6.4038 H   0  0  0  0  0  0  0  0  0  0  0  0
   -5.8652   10.7677   -7.2516 H   0  0  0  0  0  0  0  0  0  0  0  0
   -7.3355    8.8795   -7.9872 H   0  0  0  0  0  0  0  0  0  0  0  0
   -8.7563    8.7130  -11.9051 H   0  0  0  0  0  0  0  0  0  0  0  0
   -7.6147   10.7899  -12.5206 H   0  0  0  0  0  0  0  0  0  0  0  0
   -6.1389   12.6874  -11.8423 H   0  0  0  0  0  0  0  0  0  0  0  0
   -4.8346   13.7935  -10.0929 H   0  0  0  0  0  0  0  0  0  0  0  0
  1  2  1  0
  2  3  1  0
  2  4  1  0
  4  5  1  0
  4 16  1  0
  5  6  1  0
  6  7  1  0
  6 10  1  0
  6 13  1  0
  7  8  1  0
  8  9  1  0
  9 10  1  0
  9 11  1  0
  9 25  1  0
 11 12  1  0
 11 18  2  0
 12 13  2  0
 13 14  1  0
 14 15  1  0
 14 16  1  0
 16 17  1  0
 18 19  1  0
 19 20  1  0
 20 21  1  0
 20 22  1  0
 20 25  1  0
 22 23  1  0
 22 26  1  0
 23 24  1  0
 24 25  1  0
 26 27  2  0
 26 35  1  0
 27 28  1  0
 28 29  2  0
 28 33  1  0
 29 30  1  0
 30 31  2  0
 31 32  1  0
 32 33  2  0
 33 34  1  0
 34 35  2  0
  1 36  1  0
  1 37  1  0
  1 38  1  0
  3 39  1  0
  3 40  1  0
  3 41  1  0
  4 42  1  0
  5 43  1  0
  5 44  1  0
  7 45  1  0
  7 46  1  0
  8 47  1  0
  8 48  1  0
 12 49  1  0
 14 50  1  0
 15 51  1  0
 16 52  1  0
 17 53  1  0
 18 54  1  0
 19 55  1  0
 19 56  1  0
 21 57  1  0
 21 58  1  0
 21 59  1  0
 22 60  1  0
 23 61  1  0
 23 62  1  0
 24 63  1  0
 24 64  1  0
 25 65  1  0
 27 66  1  0
 29 67  1  0
 31 68  1  0
 32 69  1  0
 34 70  1  0
 35 71  1  0
A    1
C1
A    2
N2
A    3
C3
A    4
C4
A    5
C6
A    6
C7
A    7
C8
A    8
C9
A    9
C10
A   10
O11
A   11
C12
A   12
C13
A   13
C14
A   14
C15
A   15
O17
A   16
C18
A   17
O20
A   18
C21
A   19
C22
A   20
C23
A   21
C24
A   22
C25
A   23
C26
A   24
C27
A   25
C28
A   26
C29
A   27
C30
A   28
C31
A   29
C32
A   30
N33
A   31
C34
A   32
C35
A   33
C36
A   34
C37
A   35
C38
M  END
