4CS4_AXZ_A_1480
     RDKit          3D

 32 32  0  0  0  0  0  0  0  0999 V2000
  -16.3360   17.0140   16.9260 O   0  0  0  0  0  0  0  0  0  0  0  0
  -16.7940   16.5890   18.2840 S   0  0  0  0  0  0  0  0  0  0  0  0
  -16.1270   15.3310   18.7640 O   0  0  0  0  0  0  0  0  0  0  0  0
  -16.3470   17.8840   19.3980 C   0  0  0  0  0  0  0  0  0  0  0  0
  -15.2810   18.6700   19.1130 C   0  0  0  0  0  0  0  0  0  0  0  0
  -17.1760   18.0850   20.6310 C   0  0  0  0  0  0  0  0  0  0  0  0
  -16.8550   19.0640   21.4920 C   0  0  0  0  0  0  0  0  0  0  0  0
  -15.6640   19.9380   21.2080 C   0  0  0  0  0  0  0  0  0  0  0  0
  -14.9220   19.7630   20.1010 C   0  0  0  0  0  0  0  0  0  0  0  0
  -15.3290   21.0350   22.1940 C   0  0  0  0  0  0  0  0  0  0  0  0
  -18.4320   16.3600   18.3690 N   0  0  0  0  0  0  0  0  0  0  0  0
  -19.1420   17.5040   17.9280 C   0  0  0  0  0  0  0  0  0  0  0  0
  -19.3400   17.3060   16.4600 C   0  0  0  0  0  0  0  0  0  0  0  0
  -20.5400   17.4880   18.4850 C   0  0  0  0  0  0  0  0  0  0  0  0
  -21.1420   18.5500   18.7930 O   0  0  0  0  0  0  0  0  0  0  0  0
  -21.1350   16.3830   18.6050 O   0  0  0  0  0  0  0  0  0  0  0  0
  -19.5400   18.5060   15.7850 O   0  0  0  0  0  0  0  0  0  0  0  0
  -15.6133   17.6846   17.0163 H   0  0  0  0  0  0  0  0  0  0  0  0
  -16.1202   15.3182   19.7539 H   0  0  0  0  0  0  0  0  0  0  0  0
  -14.6947   18.5202   18.1944 H   0  0  0  0  0  0  0  0  0  0  0  0
  -18.0411   17.4350   20.8288 H   0  0  0  0  0  0  0  0  0  0  0  0
  -17.4580   19.2256   22.3977 H   0  0  0  0  0  0  0  0  0  0  0  0
  -14.0546   20.4124   19.9118 H   0  0  0  0  0  0  0  0  0  0  0  0
  -15.4452   20.6543   23.2195 H   0  0  0  0  0  0  0  0  0  0  0  0
  -14.2901   21.3619   22.0398 H   0  0  0  0  0  0  0  0  0  0  0  0
  -16.0080   21.8865   22.0398 H   0  0  0  0  0  0  0  0  0  0  0  0
  -18.6886   15.5580   17.7758 H   0  0  0  0  0  0  0  0  0  0  0  0
  -18.6031   18.4182   18.2174 H   0  0  0  0  0  0  0  0  0  0  0  0
  -18.4480   16.8126   16.0466 H   0  0  0  0  0  0  0  0  0  0  0  0
  -20.2411   16.6902   16.3233 H   0  0  0  0  0  0  0  0  0  0  0  0
  -21.3299   16.0210   19.5056 H   0  0  0  0  0  0  0  0  0  0  0  0
  -19.6619   19.2373   16.4411 H   0  0  0  0  0  0  0  0  0  0  0  0
  1  2  1  0
  2  3  1  0
  2  4  1  0
  2 11  1  0
  4  5  2  0
  4  6  1  0
  5  9  1  0
  6  7  2  0
  7  8  1  0
  8  9  2  0
  8 10  1  0
 11 12  1  0
 12 13  1  0
 12 14  1  0
 13 17  1  0
 14 15  2  0
 14 16  1  0
  1 18  1  0
  3 19  1  0
  5 20  1  0
  6 21  1  0
  7 22  1  0
  9 23  1  0
 10 24  1  0
 10 25  1  0
 10 26  1  0
 11 27  1  0
 12 28  1  0
 13 29  1  0
 13 30  1  0
 16 31  1  0
 17 32  1  0
A    1
O2S
A    2
S
A    3
O1S
A    4
C1
A    5
C2
A    6
C6
A    7
C5
A    8
C4
A    9
C3
A   10
C7
A   11
N
A   12
CA
A   13
CB
A   14
C
A   15
O
A   16
OXT
A   17
O9
M  END
