4CSJ_NN7_A_1778
     RDKit          3D

 60 63  0  0  0  0  0  0  0  0999 V2000
   32.3900   17.0130    7.2980 C   0  0  0  0  0  0  0  0  0  0  0  0
   32.9430   18.2370    6.5560 C   0  0  0  0  0  0  0  0  0  0  0  0
   34.3840   18.6060    6.9710 C   0  0  0  0  0  0  0  0  0  0  0  0
   34.6050   18.6510    8.4280 N   0  0  0  0  0  0  0  0  0  0  0  0
   34.2290   19.7150    9.2720 C   0  0  0  0  0  0  0  0  0  0  0  0
   33.2770   20.6850    8.9400 C   0  0  0  0  0  0  0  0  0  0  0  0
   32.9000   21.6810    9.8370 C   0  0  0  0  0  0  0  0  0  0  0  0
   33.4910   21.7750   11.0770 C   0  0  0  0  0  0  0  0  0  0  0  0
   34.4610   20.8250   11.4400 C   0  0  0  0  0  0  0  0  0  0  0  0
   35.2200   20.6280   12.5660 N   0  0  0  0  0  0  0  0  0  0  0  0
   36.0250   19.5060   12.3570 N   0  0  0  0  0  0  0  0  0  0  0  0
   35.8170   19.0070   11.1740 C   0  0  0  0  0  0  0  0  0  0  0  0
   34.8330   19.7930   10.5410 C   0  0  0  0  0  0  0  0  0  0  0  0
   35.2240   21.4120   13.7330 C   0  0  0  0  0  0  0  0  0  0  0  0
   34.0550   21.5820   14.4950 C   0  0  0  0  0  0  0  0  0  0  0  0
   34.1210   22.3580   15.6440 C   0  0  0  0  0  0  0  0  0  0  0  0
   35.3420   22.9000   16.0670 C   0  0  0  0  0  0  0  0  0  0  0  0
   35.3700   23.6650   17.1750 F   0  0  0  0  0  0  0  0  0  0  0  0
   36.5130   22.7020   15.3390 C   0  0  0  0  0  0  0  0  0  0  0  0
   36.4380   21.9640   14.1610 C   0  0  0  0  0  0  0  0  0  0  0  0
   32.9280   17.9220    5.1220 N   0  0  0  0  0  0  0  0  0  0  0  0
   32.5330   19.0730    3.9980 S   0  0  0  0  0  0  0  0  0  0  0  0
   32.7060   18.4430    2.7150 O   0  0  0  0  0  0  0  0  0  0  0  0
   31.2490   19.5240    4.4230 O   0  0  0  0  0  0  0  0  0  0  0  0
   33.6960   20.4350    4.1010 C   0  0  0  0  0  0  0  0  0  0  0  0
   35.0650   20.2380    3.8180 C   0  0  0  0  0  0  0  0  0  0  0  0
   35.6490   18.9240    3.3790 C   0  0  0  0  0  0  0  0  0  0  0  0
   35.9850   21.2710    3.9340 C   0  0  0  0  0  0  0  0  0  0  0  0
   35.5780   22.5240    4.3470 C   0  0  0  0  0  0  0  0  0  0  0  0
   36.5860   23.6440    4.4490 C   0  0  0  0  0  0  0  0  0  0  0  0
   34.2330   22.7460    4.6020 C   0  0  0  0  0  0  0  0  0  0  0  0
   33.2950   21.7250    4.4880 C   0  0  0  0  0  0  0  0  0  0  0  0
   31.8870   22.0810    4.9090 C   0  0  0  0  0  0  0  0  0  0  0  0
   32.4643   17.1775    8.3831 H   0  0  0  0  0  0  0  0  0  0  0  0
   31.3361   16.8618    7.0214 H   0  0  0  0  0  0  0  0  0  0  0  0
   32.9731   16.1222    7.0214 H   0  0  0  0  0  0  0  0  0  0  0  0
   32.3130   19.1030    6.8073 H   0  0  0  0  0  0  0  0  0  0  0  0
   35.0677   17.8586    6.5421 H   0  0  0  0  0  0  0  0  0  0  0  0
   34.5691   19.6225    6.5936 H   0  0  0  0  0  0  0  0  0  0  0  0
   35.0705   17.8416    8.8629 H   0  0  0  0  0  0  0  0  0  0  0  0
   32.8135   20.6601    7.9427 H   0  0  0  0  0  0  0  0  0  0  0  0
   32.1200   22.4020    9.5513 H   0  0  0  0  0  0  0  0  0  0  0  0
   33.2088   22.5799   11.7717 H   0  0  0  0  0  0  0  0  0  0  0  0
   36.3196   18.1280   10.7440 H   0  0  0  0  0  0  0  0  0  0  0  0
   33.1097   21.1109   14.1878 H   0  0  0  0  0  0  0  0  0  0  0  0
   33.2079   22.5489   16.2269 H   0  0  0  0  0  0  0  0  0  0  0  0
   37.4708   23.1174   15.6855 H   0  0  0  0  0  0  0  0  0  0  0  0
   37.3452   21.8122   13.5577 H   0  0  0  0  0  0  0  0  0  0  0  0
   33.8751   17.5942    4.8846 H   0  0  0  0  0  0  0  0  0  0  0  0
   35.9144   18.3268    4.2638 H   0  0  0  0  0  0  0  0  0  0  0  0
   34.9092   18.3771    2.7760 H   0  0  0  0  0  0  0  0  0  0  0  0
   36.5507   19.1067    2.7760 H   0  0  0  0  0  0  0  0  0  0  0  0
   37.0436   21.0904    3.6957 H   0  0  0  0  0  0  0  0  0  0  0  0
   36.7839   23.8639    5.5085 H   0  0  0  0  0  0  0  0  0  0  0  0
   37.5217   23.3411    3.9564 H   0  0  0  0  0  0  0  0  0  0  0  0
   36.1866   24.5428    3.9564 H   0  0  0  0  0  0  0  0  0  0  0  0
   33.9007   23.7511    4.9009 H   0  0  0  0  0  0  0  0  0  0  0  0
   31.8255   22.0965    6.0072 H   0  0  0  0  0  0  0  0  0  0  0  0
   31.6258   23.0735    4.5130 H   0  0  0  0  0  0  0  0  0  0  0  0
   31.1854   21.3320    4.5130 H   0  0  0  0  0  0  0  0  0  0  0  0
  1  2  1  0
  2  3  1  0
  2 21  1  0
  3  4  1  0
  4  5  1  0
  5  6  2  0
  5 13  1  0
  6  7  1  0
  7  8  2  0
  8  9  1  0
  9 10  1  0
  9 13  2  0
 10 11  1  0
 10 14  1  0
 11 12  2  0
 12 13  1  0
 14 15  2  0
 14 20  1  0
 15 16  1  0
 16 17  2  0
 17 18  1  0
 17 19  1  0
 19 20  2  0
 21 22  1  0
 22 23  2  0
 22 24  2  0
 22 25  1  0
 25 26  2  0
 25 32  1  0
 26 27  1  0
 26 28  1  0
 28 29  2  0
 29 30  1  0
 29 31  1  0
 31 32  2  0
 32 33  1  0
  1 34  1  0
  1 35  1  0
  1 36  1  0
  2 37  1  0
  3 38  1  0
  3 39  1  0
  4 40  1  0
  6 41  1  0
  7 42  1  0
  8 43  1  0
 12 44  1  0
 15 45  1  0
 16 46  1  0
 19 47  1  0
 20 48  1  0
 21 49  1  0
 27 50  1  0
 27 51  1  0
 27 52  1  0
 28 53  1  0
 30 54  1  0
 30 55  1  0
 30 56  1  0
 31 57  1  0
 33 58  1  0
 33 59  1  0
 33 60  1  0
A    1
C1
A    2
C2
A    3
C4
A    4
N5
A    5
C6
A    6
C7
A    7
C8
A    8
C9
A    9
C10
A   10
N11
A   11
N12
A   12
C13
A   13
C14
A   14
C15
A   15
C16
A   16
C17
A   17
C18
A   18
F19
A   19
C20
A   20
C21
A   21
N22
A   22
S23
A   23
O24
A   24
O25
A   25
C26
A   26
C27
A   27
C28
A   28
C29
A   29
C30
A   30
C31
A   31
C32
A   32
C33
A   33
C34
M  END
