4CST_CWK_A_1160
     RDKit          3D

 45 47  0  0  0  0  0  0  0  0999 V2000
   -4.8970   11.0660    9.9720 Cl  0  0  0  0  0  0  0  0  0  0  0  0
   -2.2840    7.7420    9.9910 C   0  0  0  0  0  0  0  0  0  0  0  0
   -3.2850    8.7610   10.1170 O   0  0  0  0  0  0  0  0  0  0  0  0
   -1.0590    8.4360    9.4920 C   0  0  0  0  0  0  0  0  0  0  0  0
   -0.0580    7.4400    9.4060 O   0  0  0  0  0  0  0  0  0  0  0  0
   -1.3520    9.0460    8.0830 C   0  0  0  0  0  0  0  0  0  0  0  0
   -0.1020    9.5770    7.5710 O   0  0  0  0  0  0  0  0  0  0  0  0
   -1.8310    7.9640    7.1420 C   0  0  0  0  0  0  0  0  0  0  0  0
   -2.1810    8.5860    5.8990 O   0  0  0  0  0  0  0  0  0  0  0  0
   -3.0750    7.3380    7.7260 C   0  0  0  0  0  0  0  0  0  0  0  0
   -2.7840    6.7670    9.0220 O   0  0  0  0  0  0  0  0  0  0  0  0
   -3.6180    6.1590    6.9000 C   0  0  0  0  0  0  0  0  0  0  0  0
   -2.6440    5.1300    6.7710 O   0  0  0  0  0  0  0  0  0  0  0  0
   -4.5400    8.4780   10.5450 C   0  0  0  0  0  0  0  0  0  0  0  0
   -4.9800    7.2470   11.0290 C   0  0  0  0  0  0  0  0  0  0  0  0
   -6.3210    7.1370   11.4390 C   0  0  0  0  0  0  0  0  0  0  0  0
   -7.1880    8.2380   11.3830 C   0  0  0  0  0  0  0  0  0  0  0  0
   -6.7180    9.4470   10.9140 C   0  0  0  0  0  0  0  0  0  0  0  0
   -5.3910    9.5720   10.5550 C   0  0  0  0  0  0  0  0  0  0  0  0
   -8.5590    8.1810   11.7790 C   0  0  0  0  0  0  0  0  0  0  0  0
   -9.1640    7.0200   12.2430 C   0  0  0  0  0  0  0  0  0  0  0  0
  -10.5130    7.0120   12.6150 C   0  0  0  0  0  0  0  0  0  0  0  0
  -11.2890    8.1450   12.5430 C   0  0  0  0  0  0  0  0  0  0  0  0
  -10.7210    9.3110   12.0980 C   0  0  0  0  0  0  0  0  0  0  0  0
   -9.3820    9.3100   11.7310 C   0  0  0  0  0  0  0  0  0  0  0  0
  -12.6810    8.1000   12.9420 C   0  0  0  0  0  0  0  0  0  0  0  0
  -13.7860    8.0530   13.2610 N   0  0  0  0  0  0  0  0  0  0  0  0
   -2.0568    7.2163   10.9301 H   0  0  0  0  0  0  0  0  0  0  0  0
   -0.7430    9.2559   10.1537 H   0  0  0  0  0  0  0  0  0  0  0  0
    0.2157    7.1677   10.3176 H   0  0  0  0  0  0  0  0  0  0  0  0
   -2.1235    9.8262    8.1608 H   0  0  0  0  0  0  0  0  0  0  0  0
    0.4853    9.8265    8.3280 H   0  0  0  0  0  0  0  0  0  0  0  0
   -1.0519    7.2015    6.9948 H   0  0  0  0  0  0  0  0  0  0  0  0
   -2.6585    9.4346    6.0776 H   0  0  0  0  0  0  0  0  0  0  0  0
   -3.8106    8.1553    7.7558 H   0  0  0  0  0  0  0  0  0  0  0  0
   -4.5081    5.7500    7.4005 H   0  0  0  0  0  0  0  0  0  0  0  0
   -3.8727    6.5258    5.8947 H   0  0  0  0  0  0  0  0  0  0  0  0
   -2.3599    4.8299    7.6706 H   0  0  0  0  0  0  0  0  0  0  0  0
   -4.2979    6.3861   11.0886 H   0  0  0  0  0  0  0  0  0  0  0  0
   -6.6959    6.1716   11.8097 H   0  0  0  0  0  0  0  0  0  0  0  0
   -7.3975   10.3076   10.8265 H   0  0  0  0  0  0  0  0  0  0  0  0
   -8.5747    6.0943   12.3191 H   0  0  0  0  0  0  0  0  0  0  0  0
  -10.9643    6.0754   12.9742 H   0  0  0  0  0  0  0  0  0  0  0  0
  -11.3171   10.2331   12.0328 H   0  0  0  0  0  0  0  0  0  0  0  0
   -8.9418   10.2554   11.3811 H   0  0  0  0  0  0  0  0  0  0  0  0
  1 19  1  0
  2  3  1  0
  2  4  1  0
  2 11  1  0
  3 14  1  0
  4  5  1  0
  4  6  1  0
  6  7  1  0
  6  8  1  0
  8  9  1  0
  8 10  1  0
 10 11  1  0
 10 12  1  0
 12 13  1  0
 14 15  2  0
 14 19  1  0
 15 16  1  0
 16 17  2  0
 17 18  1  0
 17 20  1  0
 18 19  2  0
 20 21  2  0
 20 25  1  0
 21 22  1  0
 22 23  2  0
 23 24  1  0
 23 26  1  0
 24 25  2  0
 26 27  3  0
  2 28  1  0
  4 29  1  0
  5 30  1  0
  6 31  1  0
  7 32  1  0
  8 33  1  0
  9 34  1  0
 10 35  1  0
 12 36  1  0
 12 37  1  0
 13 38  1  0
 15 39  1  0
 16 40  1  0
 18 41  1  0
 21 42  1  0
 22 43  1  0
 24 44  1  0
 25 45  1  0
A    1
CL
A    2
C1
A    3
O1
A    4
C2
A    5
O2
A    6
C3
A    7
O3
A    8
C4
A    9
O4
A   10
C5
A   11
O5
A   12
C6
A   13
O6
A   14
CAA
A   15
CAB
A   16
CAC
A   17
CAD
A   18
CAE
A   19
CAF
A   20
CAG
A   21
CAH
A   22
CAI
A   23
CAJ
A   24
CAK
A   25
CAL
A   26
CAN
A   27
NAO
M  END
