4CTC_J99_A_2402
     RDKit          3D

 55 59  0  0  0  0  0  0  0  0999 V2000
   32.6460   42.1670    8.3140 C   0  0  0  0  0  0  0  0  0  0  0  0
   34.6980   45.0840   12.2730 F   0  0  0  0  0  0  0  0  0  0  0  0
   27.8830   45.1130   10.3580 N   0  0  0  0  0  0  0  0  0  0  0  0
   30.8730   43.3390    9.3210 O   0  0  0  0  0  0  0  0  0  0  0  0
   32.0210   43.5370    8.4960 C   0  0  0  0  0  0  0  0  0  0  0  0
   28.7750   43.0850   11.0260 N   0  0  0  0  0  0  0  0  0  0  0  0
   33.5210   45.2490    6.1500 O   0  0  0  0  0  0  0  0  0  0  0  0
   29.8630   44.2740    9.2760 C   0  0  0  0  0  0  0  0  0  0  0  0
   28.4670   49.5640    6.7410 N   0  0  0  0  0  0  0  0  0  0  0  0
   29.8570   45.3740    8.4280 C   0  0  0  0  0  0  0  0  0  0  0  0
   29.8090   49.4890    6.8910 N   0  0  0  0  0  0  0  0  0  0  0  0
   28.9100   46.3790    8.5900 C   0  0  0  0  0  0  0  0  0  0  0  0
   32.2740   47.0490    6.6940 N   0  0  0  0  0  0  0  0  0  0  0  0
   27.9390   46.1990    9.5700 C   0  0  0  0  0  0  0  0  0  0  0  0
   28.8360   44.1620   10.2250 C   0  0  0  0  0  0  0  0  0  0  0  0
   29.0300   47.6460    7.8000 C   0  0  0  0  0  0  0  0  0  0  0  0
   27.9830   48.4830    7.2790 C   0  0  0  0  0  0  0  0  0  0  0  0
   30.6280   50.6140    6.4550 C   0  0  0  0  0  0  0  0  0  0  0  0
   30.1920   48.3300    7.4880 C   0  0  0  0  0  0  0  0  0  0  0  0
   31.6700   47.9450    7.6720 C   0  0  0  0  0  0  0  0  0  0  0  0
   32.0740   47.3840    5.2880 C   0  0  0  0  0  0  0  0  0  0  0  0
   33.0330   45.9770    7.0000 C   0  0  0  0  0  0  0  0  0  0  0  0
   33.3810   45.7030    8.4370 C   0  0  0  0  0  0  0  0  0  0  0  0
   34.2340   46.6190    9.0630 C   0  0  0  0  0  0  0  0  0  0  0  0
   34.6740   46.4150   10.3550 C   0  0  0  0  0  0  0  0  0  0  0  0
   34.2760   45.2820   10.9990 C   0  0  0  0  0  0  0  0  0  0  0  0
   33.4540   44.3410   10.4230 C   0  0  0  0  0  0  0  0  0  0  0  0
   32.9760   44.5450    9.1240 C   0  0  0  0  0  0  0  0  0  0  0  0
   26.4920   48.2490    7.2920 C   0  0  0  0  0  0  0  0  0  0  0  0
   25.5650   49.2380    6.6300 C   0  0  0  0  0  0  0  0  0  0  0  0
   25.5970   49.1520    8.1040 C   0  0  0  0  0  0  0  0  0  0  0  0
   32.8487   41.7226    9.2996 H   0  0  0  0  0  0  0  0  0  0  0  0
   31.9541   41.5196    7.7552 H   0  0  0  0  0  0  0  0  0  0  0  0
   33.5884   42.2652    7.7552 H   0  0  0  0  0  0  0  0  0  0  0  0
   31.7573   43.9649    7.5176 H   0  0  0  0  0  0  0  0  0  0  0  0
   28.7817   43.2031   12.0492 H   0  0  0  0  0  0  0  0  0  0  0  0
   28.7215   42.1413   10.6169 H   0  0  0  0  0  0  0  0  0  0  0  0
   30.6047   45.4504    7.6248 H   0  0  0  0  0  0  0  0  0  0  0  0
   27.1806   46.9841    9.7059 H   0  0  0  0  0  0  0  0  0  0  0  0
   31.0164   51.1476    7.3350 H   0  0  0  0  0  0  0  0  0  0  0  0
   31.4688   50.2429    5.8505 H   0  0  0  0  0  0  0  0  0  0  0  0
   30.0166   51.3001    5.8505 H   0  0  0  0  0  0  0  0  0  0  0  0
   31.7616   47.4630    8.6565 H   0  0  0  0  0  0  0  0  0  0  0  0
   32.2162   48.8918    7.5489 H   0  0  0  0  0  0  0  0  0  0  0  0
   31.5115   48.3262    5.2120 H   0  0  0  0  0  0  0  0  0  0  0  0
   33.0510   47.4996    4.7960 H   0  0  0  0  0  0  0  0  0  0  0  0
   31.5087   46.5788    4.7960 H   0  0  0  0  0  0  0  0  0  0  0  0
   34.5591   47.5164    8.5162 H   0  0  0  0  0  0  0  0  0  0  0  0
   35.3281   47.1470   10.8514 H   0  0  0  0  0  0  0  0  0  0  0  0
   33.1745   43.4345   10.9799 H   0  0  0  0  0  0  0  0  0  0  0  0
   26.6613   47.1643    7.2221 H   0  0  0  0  0  0  0  0  0  0  0  0
   25.9785   50.1226    6.1235 H   0  0  0  0  0  0  0  0  0  0  0  0
   24.7750   49.1675    5.8678 H   0  0  0  0  0  0  0  0  0  0  0  0
   24.7391   48.7289    8.6471 H   0  0  0  0  0  0  0  0  0  0  0  0
   25.7596   49.8740    8.9178 H   0  0  0  0  0  0  0  0  0  0  0  0
  1  5  1  0
 26  2  1  0
 14  3  2  0
 15  3  1  0
  5  4  1  0
  8  4  1  0
  5 28  1  0
 15  6  1  0
  7 22  2  0
 10  8  1  0
  8 15  2  0
  9 11  1  0
  9 17  2  0
 10 12  2  0
 18 11  1  0
 11 19  1  0
 16 12  1  0
 12 14  1  0
 21 13  1  0
 13 22  1  0
 13 20  1  0
 17 16  1  0
 19 16  2  0
 17 29  1  0
 19 20  1  0
 22 23  1  0
 23 24  2  0
 23 28  1  0
 24 25  1  0
 25 26  2  0
 27 26  1  0
 28 27  2  0
 31 29  1  0
 29 30  1  0
 31 30  1  0
  1 32  1  0
  1 33  1  0
  1 34  1  0
  5 35  1  0
  6 36  1  0
  6 37  1  0
 10 38  1  0
 14 39  1  0
 18 40  1  0
 18 41  1  0
 18 42  1  0
 20 43  1  0
 20 44  1  0
 21 45  1  0
 21 46  1  0
 21 47  1  0
 24 48  1  0
 25 49  1  0
 27 50  1  0
 29 51  1  0
 30 52  1  0
 30 53  1  0
 31 54  1  0
 31 55  1  0
A    1
C
A    2
F
A    3
N
A    4
O
A    5
C1
A    6
N1
A    7
O1
A    8
C2
A    9
N2
A   10
C3
A   11
N3
A   12
C4
A   13
N4
A   14
C5
A   15
C6
A   16
C7
A   17
C8
A   18
C9
A   19
C10
A   20
C11
A   21
C12
A   22
C13
A   23
C14
A   24
C15
A   25
C16
A   26
C17
A   27
C18
A   28
C19
A   29
C20
A   30
C21
A   31
C22
M  END
