4CTU_S42_A_800
     RDKit          3D

 57 59  0  0  0  0  0  0  0  0999 V2000
   13.2660   -0.0240   23.8370 N   0  0  0  0  0  0  0  0  0  0  0  0
   14.5070    0.0780   23.3320 C   0  0  0  0  0  0  0  0  0  0  0  0
   15.4930   -0.7120   23.8180 N   0  0  0  0  0  0  0  0  0  0  0  0
   14.7600    0.9930   22.3120 C   0  0  0  0  0  0  0  0  0  0  0  0
   13.7330    1.7950   21.8120 C   0  0  0  0  0  0  0  0  0  0  0  0
   12.4650    1.6870   22.3540 C   0  0  0  0  0  0  0  0  0  0  0  0
   12.2450    0.7630   23.3940 C   0  0  0  0  0  0  0  0  0  0  0  0
   14.0060    2.7730   20.6930 C   0  0  0  0  0  0  0  0  0  0  0  0
   10.8670    0.5750   24.0150 C   0  0  0  0  0  0  0  0  0  0  0  0
    9.9970    1.8220   23.9380 C   0  0  0  0  0  0  0  0  0  0  0  0
    8.6180    1.4680   24.4260 C   0  0  0  0  0  0  0  0  0  0  0  0
    8.0190    0.2410   24.1080 C   0  0  0  0  0  0  0  0  0  0  0  0
    6.7430   -0.0870   24.5880 C   0  0  0  0  0  0  0  0  0  0  0  0
    6.0550    0.8180   25.3860 C   0  0  0  0  0  0  0  0  0  0  0  0
    6.6550    2.0430   25.7000 C   0  0  0  0  0  0  0  0  0  0  0  0
    7.9240    2.3740   25.2200 C   0  0  0  0  0  0  0  0  0  0  0  0
    5.1540    5.9000   26.6790 N   0  0  0  0  0  0  0  0  0  0  0  0
    4.8340    7.0510   27.3410 C   0  0  0  0  0  0  0  0  0  0  0  0
    5.7060    8.1120   27.3600 N   0  0  0  0  0  0  0  0  0  0  0  0
    3.5860    7.1130   27.9780 C   0  0  0  0  0  0  0  0  0  0  0  0
    2.7050    6.0120   27.9330 C   0  0  0  0  0  0  0  0  0  0  0  0
    3.0760    4.8550   27.2540 C   0  0  0  0  0  0  0  0  0  0  0  0
    4.3180    4.8230   26.6290 C   0  0  0  0  0  0  0  0  0  0  0  0
    1.3510    6.0460   28.6080 C   0  0  0  0  0  0  0  0  0  0  0  0
    4.7260    3.5720   25.8900 C   0  0  0  0  0  0  0  0  0  0  0  0
    5.9810    3.0350   26.5680 C   0  0  0  0  0  0  0  0  0  0  0  0
    5.6880    2.4440   27.9650 C   0  0  0  0  0  0  0  0  0  0  0  0
    6.8140    1.6670   28.4610 N   0  0  0  0  0  0  0  0  0  0  0  0
   15.6182   -0.8123   24.8354 H   0  0  0  0  0  0  0  0  0  0  0  0
   16.1180   -1.2128   23.1704 H   0  0  0  0  0  0  0  0  0  0  0  0
   15.7752    1.0838   21.8984 H   0  0  0  0  0  0  0  0  0  0  0  0
   11.6417    2.3127   21.9788 H   0  0  0  0  0  0  0  0  0  0  0  0
   14.2787    3.7501   21.1184 H   0  0  0  0  0  0  0  0  0  0  0  0
   14.8341    2.3990   20.0730 H   0  0  0  0  0  0  0  0  0  0  0  0
   13.1039    2.8819   20.0730 H   0  0  0  0  0  0  0  0  0  0  0  0
   10.3541   -0.2418   23.4861 H   0  0  0  0  0  0  0  0  0  0  0  0
   11.0179    0.3481   25.0807 H   0  0  0  0  0  0  0  0  0  0  0  0
   10.4241    2.6130   24.5720 H   0  0  0  0  0  0  0  0  0  0  0  0
    9.9497    2.1873   22.9015 H   0  0  0  0  0  0  0  0  0  0  0  0
    8.5587   -0.4759   23.4717 H   0  0  0  0  0  0  0  0  0  0  0  0
    6.2891   -1.0562   24.3338 H   0  0  0  0  0  0  0  0  0  0  0  0
    5.0518    0.5752   25.7662 H   0  0  0  0  0  0  0  0  0  0  0  0
    8.3724    3.3471   25.4690 H   0  0  0  0  0  0  0  0  0  0  0  0
    6.0251    8.5003   28.2590 H   0  0  0  0  0  0  0  0  0  0  0  0
    6.0408    8.5194   26.4752 H   0  0  0  0  0  0  0  0  0  0  0  0
    3.2921    8.0262   28.5163 H   0  0  0  0  0  0  0  0  0  0  0  0
    2.4026    3.9862   27.2127 H   0  0  0  0  0  0  0  0  0  0  0  0
    1.4854    6.0426   29.6998 H   0  0  0  0  0  0  0  0  0  0  0  0
    0.8143    6.9579   28.3074 H   0  0  0  0  0  0  0  0  0  0  0  0
    0.7692    5.1622   28.3074 H   0  0  0  0  0  0  0  0  0  0  0  0
    3.9207    2.8244   25.9419 H   0  0  0  0  0  0  0  0  0  0  0  0
    4.9194    3.7913   24.8296 H   0  0  0  0  0  0  0  0  0  0  0  0
    6.6596    3.8869   26.7223 H   0  0  0  0  0  0  0  0  0  0  0  0
    5.4849    3.2670   28.6661 H   0  0  0  0  0  0  0  0  0  0  0  0
    4.8173    1.7768   27.8824 H   0  0  0  0  0  0  0  0  0  0  0  0
    6.8072    1.6717   29.4910 H   0  0  0  0  0  0  0  0  0  0  0  0
    6.7382    0.6975   28.1216 H   0  0  0  0  0  0  0  0  0  0  0  0
  1  2  2  0
  1  7  1  0
  2  3  1  0
  2  4  1  0
  4  5  2  0
  5  6  1  0
  5  8  1  0
  6  7  2  0
  7  9  1  0
  9 10  1  0
 10 11  1  0
 11 12  2  0
 11 16  1  0
 12 13  1  0
 13 14  2  0
 14 15  1  0
 15 16  2  0
 15 26  1  0
 17 18  2  0
 17 23  1  0
 18 19  1  0
 18 20  1  0
 20 21  2  0
 21 22  1  0
 21 24  1  0
 22 23  2  0
 23 25  1  0
 25 26  1  0
 26 27  1  0
 27 28  1  0
  3 29  1  0
  3 30  1  0
  4 31  1  0
  6 32  1  0
  8 33  1  0
  8 34  1  0
  8 35  1  0
  9 36  1  0
  9 37  1  0
 10 38  1  0
 10 39  1  0
 12 40  1  0
 13 41  1  0
 14 42  1  0
 16 43  1  0
 19 44  1  0
 19 45  1  0
 20 46  1  0
 22 47  1  0
 24 48  1  0
 24 49  1  0
 24 50  1  0
 25 51  1  0
 25 52  1  0
 26 53  1  0
 27 54  1  0
 27 55  1  0
 28 56  1  0
 28 57  1  0
A    1
N01
A    2
C02
A    3
N02
A    4
C03
A    5
C04
A    6
C05
A    7
C06
A    8
C07
A    9
C08
A   10
C09
A   11
C11
A   12
C12
A   13
C13
A   14
C14
A   15
C15
A   16
C16
A   17
N21
A   18
C22
A   19
N22
A   20
C23
A   21
C24
A   22
C25
A   23
C26
A   24
C27
A   25
C28
A   26
C29
A   27
C30
A   28
N31
M  END
