4CUQ_5K3_A_2971
     RDKit          3D

 27 27  0  0  0  0  0  0  0  0999 V2000
   16.0180   39.5900   30.0060 O   0  0  0  0  0  0  0  0  0  0  0  0
   14.9000   39.1590   29.7730 C   0  0  0  0  0  0  0  0  0  0  0  0
   14.7150   37.7670   29.6530 O   0  0  0  0  0  0  0  0  0  0  0  0
   15.9300   37.0040   29.5300 C   0  0  0  0  0  0  0  0  0  0  0  0
   13.6740   39.9810   30.1670 C   0  0  0  0  0  0  0  0  0  0  0  0
   13.9500   41.5040   30.1200 C   0  0  0  0  0  0  0  0  0  0  0  0
   12.6810   42.1840   30.6070 C   0  0  0  0  0  0  0  0  0  0  0  0
   12.5890   42.6190   31.9150 C   0  0  0  0  0  0  0  0  0  0  0  0
   11.3150   43.2910   32.4040 C   0  0  0  0  0  0  0  0  0  0  0  0
   10.2590   43.4630   31.5540 C   0  0  0  0  0  0  0  0  0  0  0  0
    9.0750   44.0870   32.0100 O   0  0  0  0  0  0  0  0  0  0  0  0
   10.3630   42.9760   30.1010 C   0  0  0  0  0  0  0  0  0  0  0  0
   11.5060   42.3700   29.6560 C   0  0  0  0  0  0  0  0  0  0  0  0
   16.1540   39.6424   30.9852 H   0  0  0  0  0  0  0  0  0  0  0  0
   14.9521   39.4409   28.7110 H   0  0  0  0  0  0  0  0  0  0  0  0
   16.3144   36.7626   30.5320 H   0  0  0  0  0  0  0  0  0  0  0  0
   15.7242   36.0727   28.9820 H   0  0  0  0  0  0  0  0  0  0  0  0
   16.6795   37.5939   28.9820 H   0  0  0  0  0  0  0  0  0  0  0  0
   12.8535   39.7482   29.4723 H   0  0  0  0  0  0  0  0  0  0  0  0
   13.4098   39.7179   31.2019 H   0  0  0  0  0  0  0  0  0  0  0  0
   14.7945   41.7583   30.7774 H   0  0  0  0  0  0  0  0  0  0  0  0
   14.2132   41.8309   29.1032 H   0  0  0  0  0  0  0  0  0  0  0  0
   13.4364   42.4795   32.6023 H   0  0  0  0  0  0  0  0  0  0  0  0
   11.2436   43.6395   33.4449 H   0  0  0  0  0  0  0  0  0  0  0  0
    8.9051   44.1765   32.9812 H   0  0  0  0  0  0  0  0  0  0  0  0
    9.5145   43.1151   29.4150 H   0  0  0  0  0  0  0  0  0  0  0  0
   11.5761   42.0187   28.6160 H   0  0  0  0  0  0  0  0  0  0  0  0
  1  2  1  0
  2  3  1  0
  2  5  1  0
  3  4  1  0
  5  6  1  0
  6  7  1  0
  7  8  2  0
  7 13  1  0
  8  9  1  0
  9 10  2  0
 10 11  1  0
 10 12  1  0
 12 13  2  0
  1 14  1  0
  2 15  1  0
  4 16  1  0
  4 17  1  0
  4 18  1  0
  5 19  1  0
  5 20  1  0
  6 21  1  0
  6 22  1  0
  8 23  1  0
  9 24  1  0
 11 25  1  0
 12 26  1  0
 13 27  1  0
A    1
O2
A    2
C1
A    3
O
A    4
C
A    5
C2
A    6
C3
A    7
C4
A    8
C9
A    9
C8
A   10
C7
A   11
O1
A   12
C6
A   13
C5
M  END
