4CV0_PT6_A_1258
     RDKit          3D

 44 46  0  0  0  0  0  0  0  0999 V2000
   12.2840  -15.6010  -43.8220 O   0  0  0  0  0  0  0  0  0  0  0  0
   12.2820  -14.5590  -44.4820 C   0  0  0  0  0  0  0  0  0  0  0  0
   12.3640  -14.6110  -45.8850 N   0  0  0  0  0  0  0  0  0  0  0  0
   12.4810  -15.9220  -46.5560 C   0  0  0  0  0  0  0  0  0  0  0  0
   11.1870  -16.3740  -47.1890 C   0  0  0  0  0  0  0  0  0  0  0  0
   10.0500  -15.5850  -47.0160 C   0  0  0  0  0  0  0  0  0  0  0  0
    8.8720  -15.8820  -47.6890 C   0  0  0  0  0  0  0  0  0  0  0  0
    8.8110  -16.9780  -48.5430 C   0  0  0  0  0  0  0  0  0  0  0  0
    9.9180  -17.8120  -48.7310 C   0  0  0  0  0  0  0  0  0  0  0  0
    9.8220  -18.9110  -49.5790 N   0  0  0  0  0  0  0  0  0  0  0  0
   11.1330  -17.5040  -48.0180 C   0  0  0  0  0  0  0  0  0  0  0  0
   12.2980  -18.4610  -48.1030 C   0  0  0  0  0  0  0  0  0  0  0  0
   12.1460  -13.2600  -43.9140 C   0  0  0  0  0  0  0  0  0  0  0  0
   12.0700  -12.1530  -44.7010 C   0  0  0  0  0  0  0  0  0  0  0  0
   12.1670  -12.2530  -46.1200 C   0  0  0  0  0  0  0  0  0  0  0  0
   12.3200  -13.4800  -46.6550 C   0  0  0  0  0  0  0  0  0  0  0  0
   11.8790  -10.8600  -44.2480 O   0  0  0  0  0  0  0  0  0  0  0  0
   11.6540  -10.5970  -42.8330 C   0  0  0  0  0  0  0  0  0  0  0  0
   10.7660   -9.3700  -42.8640 C   0  0  0  0  0  0  0  0  0  0  0  0
    9.3010   -9.6580  -43.2370 C   0  0  0  0  0  0  0  0  0  0  0  0
    8.9020  -10.2560  -44.7950 S   0  0  0  0  0  0  0  0  0  0  0  0
    7.2380  -10.3630  -44.4090 C   0  0  0  0  0  0  0  0  0  0  0  0
    6.9750   -9.9510  -43.1380 C   0  0  0  0  0  0  0  0  0  0  0  0
    8.1550   -9.5360  -42.4420 C   0  0  0  0  0  0  0  0  0  0  0  0
   13.2486  -15.8479  -47.3404 H   0  0  0  0  0  0  0  0  0  0  0  0
   12.7506  -16.6631  -45.7892 H   0  0  0  0  0  0  0  0  0  0  0  0
   10.0867  -14.7184  -46.3394 H   0  0  0  0  0  0  0  0  0  0  0  0
    7.9843  -15.2483  -47.5461 H   0  0  0  0  0  0  0  0  0  0  0  0
    7.8754  -17.1928  -49.0802 H   0  0  0  0  0  0  0  0  0  0  0  0
    9.7392  -19.8593  -49.1856 H   0  0  0  0  0  0  0  0  0  0  0  0
    9.8338  -18.7762  -50.6001 H   0  0  0  0  0  0  0  0  0  0  0  0
   12.6260  -18.7304  -47.0882 H   0  0  0  0  0  0  0  0  0  0  0  0
   11.9882  -19.3689  -48.6414 H   0  0  0  0  0  0  0  0  0  0  0  0
   13.1284  -17.9808  -48.6414 H   0  0  0  0  0  0  0  0  0  0  0  0
   12.1017  -13.1500  -42.8204 H   0  0  0  0  0  0  0  0  0  0  0  0
   12.1185  -11.3576  -46.7571 H   0  0  0  0  0  0  0  0  0  0  0  0
   12.4126  -13.5762  -47.7469 H   0  0  0  0  0  0  0  0  0  0  0  0
   11.1458  -11.4432  -42.3474 H   0  0  0  0  0  0  0  0  0  0  0  0
   12.5824  -10.4517  -42.2612 H   0  0  0  0  0  0  0  0  0  0  0  0
   10.7829   -8.9072  -41.8662 H   0  0  0  0  0  0  0  0  0  0  0  0
   11.1669   -8.7106  -43.6479 H   0  0  0  0  0  0  0  0  0  0  0  0
    6.4688  -10.7234  -45.1079 H   0  0  0  0  0  0  0  0  0  0  0  0
    5.9680   -9.9385  -42.6955 H   0  0  0  0  0  0  0  0  0  0  0  0
    8.1607   -9.1655  -41.4063 H   0  0  0  0  0  0  0  0  0  0  0  0
  1  2  2  0
  2  3  1  0
  2 13  1  0
  3  4  1  0
  3 16  1  0
  4  5  1  0
  5  6  2  0
  5 11  1  0
  6  7  1  0
  7  8  2  0
  8  9  1  0
  9 10  1  0
  9 11  2  0
 11 12  1  0
 13 14  2  0
 14 15  1  0
 14 17  1  0
 15 16  2  0
 17 18  1  0
 18 19  1  0
 19 20  1  0
 20 21  1  0
 20 24  2  0
 21 22  1  0
 22 23  2  0
 23 24  1  0
  4 25  1  0
  4 26  1  0
  6 27  1  0
  7 28  1  0
  8 29  1  0
 10 30  1  0
 10 31  1  0
 12 32  1  0
 12 33  1  0
 12 34  1  0
 13 35  1  0
 15 36  1  0
 16 37  1  0
 18 38  1  0
 18 39  1  0
 19 40  1  0
 19 41  1  0
 22 42  1  0
 23 43  1  0
 24 44  1  0
A    1
O1
A    2
C18
A    3
N1
A    4
C7
A    5
C6
A    6
C5
A    7
C4
A    8
C3
A    9
C2
A   10
N
A   11
C1
A   12
C
A   13
C17
A   14
C10
A   15
C9
A   16
C8
A   17
O
A   18
C11
A   19
C12
A   20
C13
A   21
S
A   22
C16
A   23
C15
A   24
C14
M  END
