4CV3_VT4_A_1258
     RDKit          3D

 47 48  0  0  0  0  0  0  0  0999 V2000
  -34.6750   24.4920   -9.7810 C   0  0  0  0  0  0  0  0  0  0  0  0
  -34.7580   23.5010   -8.8680 C   0  0  0  0  0  0  0  0  0  0  0  0
  -32.8780   24.3510   -7.6020 C   0  0  0  0  0  0  0  0  0  0  0  0
  -32.7610   25.3480   -8.5100 C   0  0  0  0  0  0  0  0  0  0  0  0
  -33.6380   25.4810   -9.6780 C   0  0  0  0  0  0  0  0  0  0  0  0
  -32.0510   27.4740   -7.6690 C   0  0  0  0  0  0  0  0  0  0  0  0
  -30.9300   28.2040   -7.2790 C   0  0  0  0  0  0  0  0  0  0  0  0
  -31.1450   29.3440   -6.5040 C   0  0  0  0  0  0  0  0  0  0  0  0
  -32.4280   29.7640   -6.1880 C   0  0  0  0  0  0  0  0  0  0  0  0
  -33.5200   29.0360   -6.6070 C   0  0  0  0  0  0  0  0  0  0  0  0
  -33.3460   27.8690   -7.3440 C   0  0  0  0  0  0  0  0  0  0  0  0
  -35.9290   22.5640   -8.9820 C   0  0  0  0  0  0  0  0  0  0  0  0
  -37.1610   23.1290   -8.2370 C   0  0  0  0  0  0  0  0  0  0  0  0
  -38.3680   22.2010   -8.3900 C   0  0  0  0  0  0  0  0  0  0  0  0
  -39.5770   22.4980   -7.4890 C   0  0  0  0  0  0  0  0  0  0  0  0
  -40.6170   21.3410   -7.4530 C   0  0  0  0  0  0  0  0  0  0  0  0
  -40.1280   19.9040   -7.0810 C   0  0  0  0  0  0  0  0  0  0  0  0
  -33.9080   22.3050   -6.8070 C   0  0  0  0  0  0  0  0  0  0  0  0
  -33.4650   26.4020  -10.4830 O   0  0  0  0  0  0  0  0  0  0  0  0
  -29.5390   27.7130   -7.5870 C   0  0  0  0  0  0  0  0  0  0  0  0
  -31.7730   26.2840   -8.3530 O   0  0  0  0  0  0  0  0  0  0  0  0
  -33.8530   23.4160   -7.7560 N   0  0  0  0  0  0  0  0  0  0  0  0
  -35.4022   24.5423  -10.6048 H   0  0  0  0  0  0  0  0  0  0  0  0
  -32.1894   24.2976   -6.7459 H   0  0  0  0  0  0  0  0  0  0  0  0
  -30.2821   29.9193   -6.1375 H   0  0  0  0  0  0  0  0  0  0  0  0
  -32.5746   30.6822   -5.6003 H   0  0  0  0  0  0  0  0  0  0  0  0
  -34.5348   29.3793   -6.3575 H   0  0  0  0  0  0  0  0  0  0  0  0
  -34.2126   27.2713   -7.6630 H   0  0  0  0  0  0  0  0  0  0  0  0
  -36.1807   22.4294  -10.0443 H   0  0  0  0  0  0  0  0  0  0  0  0
  -35.6543   21.6006   -8.5278 H   0  0  0  0  0  0  0  0  0  0  0  0
  -36.9194   23.2317   -7.1688 H   0  0  0  0  0  0  0  0  0  0  0  0
  -37.4143   24.1076   -8.6708 H   0  0  0  0  0  0  0  0  0  0  0  0
  -38.7064   22.2617   -9.4349 H   0  0  0  0  0  0  0  0  0  0  0  0
  -38.0124   21.2063   -8.0833 H   0  0  0  0  0  0  0  0  0  0  0  0
  -39.2147   22.6737   -6.4653 H   0  0  0  0  0  0  0  0  0  0  0  0
  -40.0852   23.3799   -7.9061 H   0  0  0  0  0  0  0  0  0  0  0  0
  -41.3875   21.6209   -6.7195 H   0  0  0  0  0  0  0  0  0  0  0  0
  -40.9496   21.2481   -8.4974 H   0  0  0  0  0  0  0  0  0  0  0  0
  -40.0928   19.8006   -5.9864 H   0  0  0  0  0  0  0  0  0  0  0  0
  -40.8238   19.1607   -7.4974 H   0  0  0  0  0  0  0  0  0  0  0  0
  -39.1232   19.7393   -7.4974 H   0  0  0  0  0  0  0  0  0  0  0  0
  -33.8885   22.6987   -5.7800 H   0  0  0  0  0  0  0  0  0  0  0  0
  -34.8355   21.7347   -6.9635 H   0  0  0  0  0  0  0  0  0  0  0  0
  -33.0414   21.6458   -6.9635 H   0  0  0  0  0  0  0  0  0  0  0  0
  -29.0007   27.5230   -6.6467 H   0  0  0  0  0  0  0  0  0  0  0  0
  -29.5994   26.7819   -8.1695 H   0  0  0  0  0  0  0  0  0  0  0  0
  -29.0015   28.4757   -8.1695 H   0  0  0  0  0  0  0  0  0  0  0  0
  1  2  2  0
  1  5  1  0
  2 12  1  0
  2 22  1  0
  3  4  2  0
  3 22  1  0
  4  5  1  0
  4 21  1  0
  5 19  2  0
  6  7  2  0
  6 11  1  0
  6 21  1  0
  7  8  1  0
  7 20  1  0
  8  9  2  0
  9 10  1  0
 10 11  2  0
 12 13  1  0
 13 14  1  0
 14 15  1  0
 15 16  1  0
 16 17  1  0
 18 22  1  0
  1 23  1  0
  3 24  1  0
  8 25  1  0
  9 26  1  0
 10 27  1  0
 11 28  1  0
 12 29  1  0
 12 30  1  0
 13 31  1  0
 13 32  1  0
 14 33  1  0
 14 34  1  0
 15 35  1  0
 15 36  1  0
 16 37  1  0
 16 38  1  0
 17 39  1  0
 17 40  1  0
 17 41  1  0
 18 42  1  0
 18 43  1  0
 18 44  1  0
 20 45  1  0
 20 46  1  0
 20 47  1  0
A    1
C1
A    2
C2
A    3
C4
A    4
C5
A    5
C6
A    6
C8
A    7
C9
A    8
C10
A    9
C11
A   10
C12
A   11
C13
A   12
C14
A   13
C15
A   14
C16
A   15
C17
A   16
C18
A   17
C19
A   18
C21
A   19
O17
A   20
C80
A   21
O7
A   22
N
M  END
