4CV8_3D7_A_1795
     RDKit          3D

 24 25  0  0  0  0  0  0  0  0999 V2000
   -0.6370  -22.8600  -47.6290 O   0  0  0  0  0  0  0  0  0  0  0  0
    0.1290  -22.5870  -46.6860 C   0  0  0  0  0  0  0  0  0  0  0  0
    0.5130  -21.1770  -46.2610 C   0  0  0  0  0  0  0  0  0  0  0  0
    0.0430  -20.1100  -47.0410 N   0  0  0  0  0  0  0  0  0  0  0  0
    0.6400  -23.6580  -45.9170 N   0  0  0  0  0  0  0  0  0  0  0  0
    1.4450  -23.4460  -44.7910 C   0  0  0  0  0  0  0  0  0  0  0  0
    1.7700  -22.1530  -44.3730 C   0  0  0  0  0  0  0  0  0  0  0  0
    1.3080  -20.9940  -45.1340 C   0  0  0  0  0  0  0  0  0  0  0  0
    2.5000  -21.9520  -43.1210 C   0  0  0  0  0  0  0  0  0  0  0  0
    3.4500  -20.9230  -42.8140 C   0  0  0  0  0  0  0  0  0  0  0  0
    3.9060  -21.0340  -41.5260 N   0  0  0  0  0  0  0  0  0  0  0  0
    3.2630  -22.1250  -41.0180 N   0  0  0  0  0  0  0  0  0  0  0  0
    3.5150  -22.6070  -39.6450 C   0  0  0  0  0  0  0  0  0  0  0  0
    2.3990  -22.7050  -41.9470 C   0  0  0  0  0  0  0  0  0  0  0  0
   -0.3295  -19.2644  -46.5860 H   0  0  0  0  0  0  0  0  0  0  0  0
    0.0704  -20.1722  -48.0688 H   0  0  0  0  0  0  0  0  0  0  0  0
    0.4131  -24.6239  -46.1936 H   0  0  0  0  0  0  0  0  0  0  0  0
    1.8270  -24.3099  -44.2274 H   0  0  0  0  0  0  0  0  0  0  0  0
    1.5883  -19.9789  -44.8163 H   0  0  0  0  0  0  0  0  0  0  0  0
    3.7717  -20.1443  -43.5213 H   0  0  0  0  0  0  0  0  0  0  0  0
    3.1308  -21.8722  -38.9222 H   0  0  0  0  0  0  0  0  0  0  0  0
    3.0050  -23.5700  -39.4951 H   0  0  0  0  0  0  0  0  0  0  0  0
    4.5969  -22.7378  -39.4951 H   0  0  0  0  0  0  0  0  0  0  0  0
    1.7604  -23.5862  -41.7867 H   0  0  0  0  0  0  0  0  0  0  0  0
  1  2  2  0
  2  3  1  0
  2  5  1  0
  3  4  1  0
  3  8  2  0
  5  6  1  0
  6  7  2  0
  7  8  1  0
  7  9  1  0
  9 10  1  0
  9 14  2  0
 10 11  2  0
 11 12  1  0
 12 13  1  0
 12 14  1  0
  4 15  1  0
  4 16  1  0
  5 17  1  0
  6 18  1  0
  8 19  1  0
 10 20  1  0
 13 21  1  0
 13 22  1  0
 13 23  1  0
 14 24  1  0
A    1
O
A    2
C4
A    3
C
A    4
N
A    5
N1
A    6
C3
A    7
C2
A    8
C1
A    9
C5
A   10
C7
A   11
N3
A   12
N2
A   13
C8
A   14
C6
M  END
