4CVA_WBI_A_1795
     RDKit          3D

 50 53  0  0  0  0  0  0  0  0999 V2000
   -4.3220  -12.5750  -52.5070 C   0  0  0  0  0  0  0  0  0  0  0  0
   -2.9870  -14.4880  -50.8040 N   0  0  0  0  0  0  0  0  0  0  0  0
   -0.5040  -21.7870  -47.4300 O   0  0  0  0  0  0  0  0  0  0  0  0
   -4.6480  -14.0680  -52.6020 C   0  0  0  0  0  0  0  0  0  0  0  0
   -0.3410  -19.1060  -46.8870 N   0  0  0  0  0  0  0  0  0  0  0  0
   -0.2040  -17.1080  -45.6470 O   0  0  0  0  0  0  0  0  0  0  0  0
   -3.4770  -14.9210  -52.1300 C   0  0  0  0  0  0  0  0  0  0  0  0
    0.5430  -22.4510  -45.4880 N   0  0  0  0  0  0  0  0  0  0  0  0
   -2.4250  -15.4090  -49.8480 C   0  0  0  0  0  0  0  0  0  0  0  0
    3.6770  -19.7980  -40.3170 N   0  0  0  0  0  0  0  0  0  0  0  0
   -2.1290  -16.8070  -50.0930 C   0  0  0  0  0  0  0  0  0  0  0  0
   -1.5660  -17.6120  -49.0640 C   0  0  0  0  0  0  0  0  0  0  0  0
   -1.2810  -17.0290  -47.7990 C   0  0  0  0  0  0  0  0  0  0  0  0
   -0.5600  -17.7290  -46.6900 C   0  0  0  0  0  0  0  0  0  0  0  0
    0.3080  -20.0060  -45.9990 C   0  0  0  0  0  0  0  0  0  0  0  0
    0.9700  -19.7180  -44.8130 C   0  0  0  0  0  0  0  0  0  0  0  0
    1.4440  -20.7990  -43.9410 C   0  0  0  0  0  0  0  0  0  0  0  0
    1.2040  -22.1420  -44.2950 C   0  0  0  0  0  0  0  0  0  0  0  0
    0.0830  -21.4360  -46.3870 C   0  0  0  0  0  0  0  0  0  0  0  0
    2.2210  -20.4460  -42.7060 C   0  0  0  0  0  0  0  0  0  0  0  0
    2.8050  -19.1520  -42.5410 C   0  0  0  0  0  0  0  0  0  0  0  0
    3.5180  -18.8770  -41.3390 C   0  0  0  0  0  0  0  0  0  0  0  0
    3.1110  -21.0430  -40.4880 C   0  0  0  0  0  0  0  0  0  0  0  0
    2.3800  -21.3990  -41.6600 C   0  0  0  0  0  0  0  0  0  0  0  0
   -1.5900  -15.6700  -47.5570 C   0  0  0  0  0  0  0  0  0  0  0  0
   -2.1450  -14.8770  -48.5500 C   0  0  0  0  0  0  0  0  0  0  0  0
   -2.6990  -13.0440  -50.6460 C   0  0  0  0  0  0  0  0  0  0  0  0
   -3.8720  -12.1900  -51.0990 C   0  0  0  0  0  0  0  0  0  0  0  0
   -3.5158  -12.3391  -53.2172 H   0  0  0  0  0  0  0  0  0  0  0  0
   -5.2327  -12.0064  -52.7464 H   0  0  0  0  0  0  0  0  0  0  0  0
   -5.5249  -14.2841  -51.9740 H   0  0  0  0  0  0  0  0  0  0  0  0
   -4.8538  -14.3124  -53.6546 H   0  0  0  0  0  0  0  0  0  0  0  0
   -0.6890  -19.5043  -47.7708 H   0  0  0  0  0  0  0  0  0  0  0  0
   -3.8027  -15.9697  -52.0651 H   0  0  0  0  0  0  0  0  0  0  0  0
   -2.6561  -14.8083  -52.8534 H   0  0  0  0  0  0  0  0  0  0  0  0
    0.3820  -23.4398  -45.7275 H   0  0  0  0  0  0  0  0  0  0  0  0
   -2.3406  -17.2471  -51.0787 H   0  0  0  0  0  0  0  0  0  0  0  0
   -1.3531  -18.6758  -49.2454 H   0  0  0  0  0  0  0  0  0  0  0  0
    1.1407  -18.6703  -44.5245 H   0  0  0  0  0  0  0  0  0  0  0  0
    1.5384  -22.9514  -43.6293 H   0  0  0  0  0  0  0  0  0  0  0  0
    2.7061  -18.3861  -43.3243 H   0  0  0  0  0  0  0  0  0  0  0  0
    3.9662  -17.8800  -41.2159 H   0  0  0  0  0  0  0  0  0  0  0  0
    3.2275  -21.7910  -39.6899 H   0  0  0  0  0  0  0  0  0  0  0  0
    1.9418  -22.4035  -41.7552 H   0  0  0  0  0  0  0  0  0  0  0  0
   -1.3871  -15.2360  -46.5668 H   0  0  0  0  0  0  0  0  0  0  0  0
   -2.3735  -13.8224  -48.3362 H   0  0  0  0  0  0  0  0  0  0  0  0
   -1.8158  -12.7874  -51.2494 H   0  0  0  0  0  0  0  0  0  0  0  0
   -2.5164  -12.8427  -49.5801 H   0  0  0  0  0  0  0  0  0  0  0  0
   -3.5689  -11.1326  -51.0954 H   0  0  0  0  0  0  0  0  0  0  0  0
   -4.7112  -12.3544  -50.4071 H   0  0  0  0  0  0  0  0  0  0  0  0
  4  1  1  0
  4  7  1  0
  1 28  1  0
  7  2  1  0
 28 27  1  0
  2 27  1  0
  2  9  1  0
 11  9  2  0
 11 12  1  0
  9 26  1  0
 12 13  2  0
 26 25  2  0
 13 25  1  0
 13 14  1  0
  3 19  2  0
  5 14  1  0
  5 15  1  0
 14  6  2  0
 19 15  1  0
 19  8  1  0
 15 16  2  0
  8 18  1  0
 16 17  1  0
 18 17  2  0
 17 20  1  0
 20 24  2  0
 20 21  1  0
 24 23  1  0
 21 22  2  0
 23 10  2  0
 22 10  1  0
  1 29  1  0
  1 30  1  0
  4 31  1  0
  4 32  1  0
  5 33  1  0
  7 34  1  0
  7 35  1  0
  8 36  1  0
 11 37  1  0
 12 38  1  0
 16 39  1  0
 18 40  1  0
 21 41  1  0
 22 42  1  0
 23 43  1  0
 24 44  1  0
 25 45  1  0
 26 46  1  0
 27 47  1  0
 27 48  1  0
 28 49  1  0
 28 50  1  0
A    1
C
A    2
N
A    3
O
A    4
C1
A    5
N1
A    6
O1
A    7
C2
A    8
N2
A    9
C3
A   10
N3
A   11
C4
A   12
C5
A   13
C6
A   14
C7
A   15
C8
A   16
C9
A   17
C10
A   18
C11
A   19
C12
A   20
C13
A   21
C14
A   22
C15
A   23
C16
A   24
C17
A   25
C18
A   26
C19
A   27
C20
A   28
C21
M  END
