4CW0_MUA_A_1303
     RDKit          3D

 19 20  0  0  0  0  0  0  0  0999 V2000
   30.0900   27.3250   36.3690 N   0  0  0  0  0  0  0  0  0  0  0  0
   29.3280   27.0290   37.5110 C   0  0  0  0  0  0  0  0  0  0  0  0
   28.1520   27.4020   37.5390 O   0  0  0  0  0  0  0  0  0  0  0  0
   29.8880   26.3140   38.5410 N   0  0  0  0  0  0  0  0  0  0  0  0
   31.1420   25.9450   38.3810 C   0  0  0  0  0  0  0  0  0  0  0  0
   31.9810   26.1970   37.2370 C   0  0  0  0  0  0  0  0  0  0  0  0
   31.4030   26.9470   36.1420 C   0  0  0  0  0  0  0  0  0  0  0  0
   31.9720   27.2570   35.0820 O   0  0  0  0  0  0  0  0  0  0  0  0
   33.2440   25.6890   37.3580 N   0  0  0  0  0  0  0  0  0  0  0  0
   33.2610   25.0660   38.6200 C   0  0  0  0  0  0  0  0  0  0  0  0
   31.9390   25.2530   39.2460 N   0  0  0  0  0  0  0  0  0  0  0  0
   31.5460   24.6990   40.5490 C   0  0  0  0  0  0  0  0  0  0  0  0
   34.1700   24.4590   39.1910 O   0  0  0  0  0  0  0  0  0  0  0  0
   29.6288   27.8752   35.6304 H   0  0  0  0  0  0  0  0  0  0  0  0
   29.3567   26.0793   39.3916 H   0  0  0  0  0  0  0  0  0  0  0  0
   34.0136   25.7489   36.6761 H   0  0  0  0  0  0  0  0  0  0  0  0
   31.9800   25.3108   41.3535 H   0  0  0  0  0  0  0  0  0  0  0  0
   30.4493   24.7054   40.6344 H   0  0  0  0  0  0  0  0  0  0  0  0
   31.9144   23.6661   40.6344 H   0  0  0  0  0  0  0  0  0  0  0  0
  1  2  1  0
  1  7  1  0
  2  3  2  0
  2  4  1  0
  4  5  1  0
  5  6  2  0
  5 11  1  0
  6  7  1  0
  6  9  1  0
  7  8  2  0
  9 10  1  0
 10 11  1  0
 10 13  2  0
 11 12  1  0
  1 14  1  0
  4 15  1  0
  9 16  1  0
 12 17  1  0
 12 18  1  0
 12 19  1  0
A    1
N1
A    2
C2
A    3
O2
A    4
N3
A    5
C4
A    6
C5
A    7
C6
A    8
O6
A    9
N7
A   10
C8
A   11
N9
A   12
C10
A   13
O8
M  END
