4CWD_449_A_1385
     RDKit          3D

 27 27  0  0  0  0  0  0  0  0999 V2000
  -38.8900   -3.5730  -47.5880 C   0  0  0  0  0  0  0  0  0  0  0  0
  -37.5510   -4.2960  -47.4900 C   0  0  0  0  0  0  0  0  0  0  0  0
  -37.0150   -3.5100  -49.6250 C   0  0  0  0  0  0  0  0  0  0  0  0
  -38.2940   -2.8460  -49.7500 C   0  0  0  0  0  0  0  0  0  0  0  0
  -38.9210   -2.3230  -48.4590 C   0  0  0  0  0  0  0  0  0  0  0  0
  -35.6010   -5.1150  -48.5390 C   0  0  0  0  0  0  0  0  0  0  0  0
  -37.7090   -5.7680  -49.3710 C   0  0  0  0  0  0  0  0  0  0  0  0
  -40.3260   -1.7790  -48.6280 C   0  0  0  0  0  0  0  0  0  0  0  0
  -40.5780   -0.5800  -48.3350 O   0  0  0  0  0  0  0  0  0  0  0  0
  -41.2300   -2.5450  -49.0510 O   0  0  0  0  0  0  0  0  0  0  0  0
  -36.9640   -4.6820  -48.7610 N   0  0  0  0  0  0  0  0  0  0  0  0
  -39.6251   -4.2830  -47.9947 H   0  0  0  0  0  0  0  0  0  0  0  0
  -39.1103   -3.2249  -46.5681 H   0  0  0  0  0  0  0  0  0  0  0  0
  -36.8418   -3.6312  -46.9752 H   0  0  0  0  0  0  0  0  0  0  0  0
  -37.7478   -5.2322  -46.9470 H   0  0  0  0  0  0  0  0  0  0  0  0
  -36.7041   -3.8253  -50.6319 H   0  0  0  0  0  0  0  0  0  0  0  0
  -36.3535   -2.7720  -49.1477 H   0  0  0  0  0  0  0  0  0  0  0  0
  -38.1609   -1.9896  -50.4274 H   0  0  0  0  0  0  0  0  0  0  0  0
  -38.9869   -3.6171  -50.1179 H   0  0  0  0  0  0  0  0  0  0  0  0
  -38.3862   -1.4561  -48.0437 H   0  0  0  0  0  0  0  0  0  0  0  0
  -35.4073   -5.1765  -47.4579 H   0  0  0  0  0  0  0  0  0  0  0  0
  -35.4518   -6.1048  -48.9952 H   0  0  0  0  0  0  0  0  0  0  0  0
  -34.9079   -4.3928  -48.9952 H   0  0  0  0  0  0  0  0  0  0  0  0
  -38.1438   -6.4018  -48.5841 H   0  0  0  0  0  0  0  0  0  0  0  0
  -38.5146   -5.3546  -49.9956 H   0  0  0  0  0  0  0  0  0  0  0  0
  -37.0333   -6.3707  -49.9956 H   0  0  0  0  0  0  0  0  0  0  0  0
  -40.6360   -0.3040  -47.3860 H   0  0  0  0  0  0  0  0  0  0  0  0
  1  2  1  0
  1  5  1  0
  2 11  1  0
  3  4  1  0
  3 11  1  0
  4  5  1  0
  5  8  1  0
  6 11  1  0
  7 11  1  0
  8  9  1  0
  8 10  2  0
  1 12  1  0
  1 13  1  0
  2 14  1  0
  2 15  1  0
  3 16  1  0
  3 17  1  0
  4 18  1  0
  4 19  1  0
  5 20  1  0
  6 21  1  0
  6 22  1  0
  6 23  1  0
  7 24  1  0
  7 25  1  0
  7 26  1  0
  9 27  1  0
M  CHG  1  11   1
A    1
CAA
A    2
CAB
A    3
CAC
A    4
CAD
A    5
CAE
A    6
CAF
A    7
CAG
A    8
CAH
A    9
OAI
A   10
OAJ
A   11
NAK
M  END
