4CWQ_W2D_A_1224
     RDKit          3D

 42 46  0  0  0  0  0  0  0  0999 V2000
    3.2100   12.7990   24.3950 C   0  0  0  0  0  0  0  0  0  0  0  0
    4.0320   13.8010   24.7710 C   0  0  0  0  0  0  0  0  0  0  0  0
    3.6810   15.0490   25.2080 O   0  0  0  0  0  0  0  0  0  0  0  0
    4.9410   15.7700   25.4060 C   0  0  0  0  0  0  0  0  0  0  0  0
    5.9750   14.8150   25.1710 O   0  0  0  0  0  0  0  0  0  0  0  0
    5.3590   13.6530   24.7520 C   0  0  0  0  0  0  0  0  0  0  0  0
    5.9160   12.4830   24.3510 C   0  0  0  0  0  0  0  0  0  0  0  0
    5.1140   11.3920   23.9580 C   0  0  0  0  0  0  0  0  0  0  0  0
    3.7180   11.5680   23.9820 C   0  0  0  0  0  0  0  0  0  0  0  0
    2.8170   10.5390   23.5940 C   0  0  0  0  0  0  0  0  0  0  0  0
    1.9770   10.1190   24.6590 C   0  0  0  0  0  0  0  0  0  0  0  0
    2.4850    9.3240   25.6170 N   0  0  0  0  0  0  0  0  0  0  0  0
    1.7160    8.9080   26.6650 C   0  0  0  0  0  0  0  0  0  0  0  0
    2.2530    8.0840   27.6520 C   0  0  0  0  0  0  0  0  0  0  0  0
    1.4770    7.6410   28.7190 C   0  0  0  0  0  0  0  0  0  0  0  0
    2.1320    6.5920   29.9720 S   0  0  0  0  0  0  0  0  0  0  0  0
    3.5990    6.3480   29.7390 O   0  0  0  0  0  0  0  0  0  0  0  0
    1.3980    5.2580   29.9260 O   0  0  0  0  0  0  0  0  0  0  0  0
    1.7890    7.2960   31.5360 N   0  0  0  0  0  0  0  0  0  0  0  0
    0.1470    8.0230   28.8060 C   0  0  0  0  0  0  0  0  0  0  0  0
   -0.4040    8.8500   27.8250 C   0  0  0  0  0  0  0  0  0  0  0  0
    0.3770    9.3050   26.7480 C   0  0  0  0  0  0  0  0  0  0  0  0
   -0.1250   10.0980   25.7810 C   0  0  0  0  0  0  0  0  0  0  0  0
   -1.3400   10.6330   25.5820 N   0  0  0  0  0  0  0  0  0  0  0  0
    0.6820   10.4950   24.7740 N   0  0  0  0  0  0  0  0  0  0  0  0
    0.0110   11.2530   23.9810 N   0  0  0  0  0  0  0  0  0  0  0  0
   -1.2440   11.3270   24.4530 C   0  0  0  0  0  0  0  0  0  0  0  0
   -2.2410   12.0200   23.8760 N   0  0  0  0  0  0  0  0  0  0  0  0
    2.1214   12.9560   24.4147 H   0  0  0  0  0  0  0  0  0  0  0  0
    5.0210   16.6046   24.6939 H   0  0  0  0  0  0  0  0  0  0  0  0
    5.0078   16.1995   26.4165 H   0  0  0  0  0  0  0  0  0  0  0  0
    7.0113   12.3837   24.3321 H   0  0  0  0  0  0  0  0  0  0  0  0
    5.5631   10.4382   23.6441 H   0  0  0  0  0  0  0  0  0  0  0  0
    2.1862   10.9135   22.7744 H   0  0  0  0  0  0  0  0  0  0  0  0
    3.4166    9.6717   23.2805 H   0  0  0  0  0  0  0  0  0  0  0  0
    3.3077    7.7786   27.5868 H   0  0  0  0  0  0  0  0  0  0  0  0
    2.1020    6.6536   32.2778 H   0  0  0  0  0  0  0  0  0  0  0  0
    2.2875    8.1928   31.6256 H   0  0  0  0  0  0  0  0  0  0  0  0
   -0.4726    7.6754   29.6458 H   0  0  0  0  0  0  0  0  0  0  0  0
   -1.4603    9.1487   27.8956 H   0  0  0  0  0  0  0  0  0  0  0  0
   -2.9373   12.5040   24.4606 H   0  0  0  0  0  0  0  0  0  0  0  0
   -2.3086   12.0670   22.8493 H   0  0  0  0  0  0  0  0  0  0  0  0
  1  2  2  0
  1  9  1  0
  2  3  1  0
  2  6  1  0
  3  4  1  0
  4  5  1  0
  5  6  1  0
  6  7  2  0
  7  8  1  0
  8  9  2  0
  9 10  1  0
 10 11  1  0
 11 12  2  0
 11 25  1  0
 12 13  1  0
 13 14  2  0
 13 22  1  0
 14 15  1  0
 15 16  1  0
 15 20  2  0
 16 17  2  0
 16 18  2  0
 16 19  1  0
 20 21  1  0
 21 22  2  0
 22 23  1  0
 23 24  2  0
 23 25  1  0
 24 27  1  0
 25 26  1  0
 26 27  2  0
 27 28  1  0
  1 29  1  0
  4 30  1  0
  4 31  1  0
  7 32  1  0
  8 33  1  0
 10 34  1  0
 10 35  1  0
 14 36  1  0
 19 37  1  0
 19 38  1  0
 20 39  1  0
 21 40  1  0
 28 41  1  0
 28 42  1  0
A    1
C21
A    2
C22
A    3
O23
A    4
C24
A    5
O25
A    6
C26
A    7
C27
A    8
C28
A    9
C20
A   10
C19
A   11
C9
A   12
N8
A   13
C7
A   14
C6
A   15
C5
A   16
S2
A   17
O3
A   18
O1
A   19
N4
A   20
C18
A   21
C17
A   22
C16
A   23
C15
A   24
N14
A   25
N10
A   26
N11
A   27
C12
A   28
N13
M  END
