4CXX_640_A_1505
     RDKit          3D

 51 52  0  0  0  0  0  0  0  0999 V2000
   33.9560   -7.1640  725.8230 O   0  0  0  0  0  0  0  0  0  0  0  0
   33.8660   -7.5210  724.6360 C   0  0  0  0  0  0  0  0  0  0  0  0
   34.3740   -8.5820  724.2550 O   0  0  0  0  0  0  0  0  0  0  0  0
   33.1040   -6.6660  723.6680 C   0  0  0  0  0  0  0  0  0  0  0  0
   32.0010   -7.5870  723.1180 C   0  0  0  0  0  0  0  0  0  0  0  0
   31.1780   -6.9080  722.0750 C   0  0  0  0  0  0  0  0  0  0  0  0
   31.4940   -5.7980  721.6390 O   0  0  0  0  0  0  0  0  0  0  0  0
   30.0150   -7.6020  721.6530 N   0  0  0  0  0  0  0  0  0  0  0  0
   29.2100   -6.9740  720.7230 N   0  0  0  0  0  0  0  0  0  0  0  0
   28.8330   -7.6490  719.4830 C   0  0  0  0  0  0  0  0  0  0  0  0
   29.1760   -8.7690  719.2460 O   0  0  0  0  0  0  0  0  0  0  0  0
   27.9360   -6.9590  718.5090 C   0  0  0  0  0  0  0  0  0  0  0  0
   26.5980   -6.8540  718.8200 C   0  0  0  0  0  0  0  0  0  0  0  0
   25.7490   -6.2690  717.9860 N   0  0  0  0  0  0  0  0  0  0  0  0
   26.1880   -5.7820  716.8090 C   0  0  0  0  0  0  0  0  0  0  0  0
   27.5270   -5.8560  716.4030 C   0  0  0  0  0  0  0  0  0  0  0  0
   28.4400   -6.5050  717.2730 C   0  0  0  0  0  0  0  0  0  0  0  0
   29.9670   -6.6440  716.9960 C   0  0  0  0  0  0  0  0  0  0  0  0
   30.3880   -6.9860  715.5420 C   0  0  0  0  0  0  0  0  0  0  0  0
   30.3450   -8.2780  715.0620 C   0  0  0  0  0  0  0  0  0  0  0  0
   30.7990   -8.5000  713.7680 C   0  0  0  0  0  0  0  0  0  0  0  0
   31.2840   -7.4490  713.0040 C   0  0  0  0  0  0  0  0  0  0  0  0
   31.7810   -7.5900  711.5370 C   0  0  0  0  0  0  0  0  0  0  0  0
   32.0490   -9.0510  711.3000 C   0  0  0  0  0  0  0  0  0  0  0  0
   30.7860   -7.0280  710.5520 C   0  0  0  0  0  0  0  0  0  0  0  0
   33.1480   -6.8630  711.3610 C   0  0  0  0  0  0  0  0  0  0  0  0
   31.3230   -6.1770  713.5270 C   0  0  0  0  0  0  0  0  0  0  0  0
   30.8860   -5.9390  714.8030 C   0  0  0  0  0  0  0  0  0  0  0  0
   33.7917   -7.8158  726.5498 H   0  0  0  0  0  0  0  0  0  0  0  0
   33.2919   -5.6137  723.4086 H   0  0  0  0  0  0  0  0  0  0  0  0
   31.8387   -8.6219  723.4535 H   0  0  0  0  0  0  0  0  0  0  0  0
   29.7811   -8.5339  722.0241 H   0  0  0  0  0  0  0  0  0  0  0  0
   28.8714   -6.0186  720.9056 H   0  0  0  0  0  0  0  0  0  0  0  0
   26.2289   -7.2609  719.7730 H   0  0  0  0  0  0  0  0  0  0  0  0
   25.4614   -5.3041  716.1355 H   0  0  0  0  0  0  0  0  0  0  0  0
   27.8577   -5.4269  715.4456 H   0  0  0  0  0  0  0  0  0  0  0  0
   30.4417   -5.6884  717.2635 H   0  0  0  0  0  0  0  0  0  0  0  0
   30.2907   -7.5054  717.5987 H   0  0  0  0  0  0  0  0  0  0  0  0
   29.9647   -9.1035  715.6817 H   0  0  0  0  0  0  0  0  0  0  0  0
   30.7737   -9.5158  713.3467 H   0  0  0  0  0  0  0  0  0  0  0  0
   32.1438   -9.5679  712.2664 H   0  0  0  0  0  0  0  0  0  0  0  0
   31.2162   -9.4888  710.7302 H   0  0  0  0  0  0  0  0  0  0  0  0
   32.9830   -9.1647  710.7302 H   0  0  0  0  0  0  0  0  0  0  0  0
   29.9546   -6.5584  711.0982 H   0  0  0  0  0  0  0  0  0  0  0  0
   31.2807   -6.2759  709.9198 H   0  0  0  0  0  0  0  0  0  0  0  0
   30.3973   -7.8399  709.9198 H   0  0  0  0  0  0  0  0  0  0  0  0
   33.5731   -6.6369  712.3500 H   0  0  0  0  0  0  0  0  0  0  0  0
   33.8397   -7.5124  710.8044 H   0  0  0  0  0  0  0  0  0  0  0  0
   32.9962   -5.9265  710.8044 H   0  0  0  0  0  0  0  0  0  0  0  0
   31.7074   -5.3464  712.9168 H   0  0  0  0  0  0  0  0  0  0  0  0
   30.9327   -4.9263  715.2298 H   0  0  0  0  0  0  0  0  0  0  0  0
  1  2  1  0
  2  3  2  0
  2  4  1  0
  4  5  2  0
  5  6  1  0
  6  7  2  0
  6  8  1  0
  8  9  1  0
  9 10  1  0
 10 11  2  0
 10 12  1  0
 12 13  2  0
 12 17  1  0
 13 14  1  0
 14 15  2  0
 15 16  1  0
 16 17  2  0
 17 18  1  0
 18 19  1  0
 19 20  2  0
 19 28  1  0
 20 21  1  0
 21 22  2  0
 22 23  1  0
 22 27  1  0
 23 24  1  0
 23 25  1  0
 23 26  1  0
 27 28  2  0
  1 29  1  0
  4 30  1  0
  5 31  1  0
  8 32  1  0
  9 33  1  0
 13 34  1  0
 15 35  1  0
 16 36  1  0
 18 37  1  0
 18 38  1  0
 20 39  1  0
 21 40  1  0
 24 41  1  0
 24 42  1  0
 24 43  1  0
 25 44  1  0
 25 45  1  0
 25 46  1  0
 26 47  1  0
 26 48  1  0
 26 49  1  0
 27 50  1  0
 28 51  1  0
A    1
OAD
A    2
CAU
A    3
OAG
A    4
CAH
A    5
CAI
A    6
CAV
A    7
OAE
A    8
NAS
A    9
NAT
A   10
CAW
A   11
OAF
A   12
CBA
A   13
CAP
A   14
NAR
A   15
CAJ
A   16
CAM
A   17
CAZ
A   18
CAQ
A   19
CAX
A   20
CAK
A   21
CAN
A   22
CAY
A   23
CBB
A   24
CAB
A   25
CAC
A   26
CAA
A   27
CAO
A   28
CAL
M  END
