4CXY_DGR_A_1503
     RDKit          3D

 26 26  0  0  0  0  0  0  0  0999 V2000
  -24.6080  -25.6570    5.4120 O   0  0  0  0  0  0  0  0  0  0  0  0
  -23.4950  -25.9400    5.8390 C   0  0  0  0  0  0  0  0  0  0  0  0
  -23.1840  -26.6080    6.8130 O   0  0  0  0  0  0  0  0  0  0  0  0
  -22.2860  -25.3250    5.0230 C   0  0  0  0  0  0  0  0  0  0  0  0
  -22.5600  -24.9360    3.6080 C   0  0  0  0  0  0  0  0  0  0  0  0
  -21.3210  -24.4230    2.9210 C   0  0  0  0  0  0  0  0  0  0  0  0
  -20.3000  -25.0260    2.8610 O   0  0  0  0  0  0  0  0  0  0  0  0
  -21.3710  -23.1070    2.3770 N   0  0  0  0  0  0  0  0  0  0  0  0
  -20.3460  -22.4370    1.6950 N   0  0  0  0  0  0  0  0  0  0  0  0
  -20.7000  -21.8680    0.4440 C   0  0  0  0  0  0  0  0  0  0  0  0
  -21.7880  -21.9910   -0.0300 O   0  0  0  0  0  0  0  0  0  0  0  0
  -19.6880  -21.1050   -0.4040 C   0  0  0  0  0  0  0  0  0  0  0  0
  -19.4310  -21.4810   -1.7050 C   0  0  0  0  0  0  0  0  0  0  0  0
  -18.5010  -20.7680   -2.4780 C   0  0  0  0  0  0  0  0  0  0  0  0
  -17.8510  -19.6600   -1.9170 C   0  0  0  0  0  0  0  0  0  0  0  0
  -18.0950  -19.2440   -0.6480 N   0  0  0  0  0  0  0  0  0  0  0  0
  -18.9910  -19.9590    0.0810 C   0  0  0  0  0  0  0  0  0  0  0  0
  -25.3472  -25.4690    6.0431 H   0  0  0  0  0  0  0  0  0  0  0  0
  -21.2928  -25.1909    5.4763 H   0  0  0  0  0  0  0  0  0  0  0  0
  -23.5457  -25.0143    3.1260 H   0  0  0  0  0  0  0  0  0  0  0  0
  -22.2553  -22.5929    2.4979 H   0  0  0  0  0  0  0  0  0  0  0  0
  -19.3931  -22.3621    2.0787 H   0  0  0  0  0  0  0  0  0  0  0  0
  -19.9571  -22.3438   -2.1396 H   0  0  0  0  0  0  0  0  0  0  0  0
  -18.2849  -21.0752   -3.5119 H   0  0  0  0  0  0  0  0  0  0  0  0
  -17.1186  -19.1091   -2.5254 H   0  0  0  0  0  0  0  0  0  0  0  0
  -19.1920  -19.6330    1.1122 H   0  0  0  0  0  0  0  0  0  0  0  0
  1  2  1  0
  2  3  2  0
  2  4  1  0
  4  5  2  0
  5  6  1  0
  6  7  2  0
  6  8  1  0
  8  9  1  0
  9 10  1  0
 10 11  2  0
 10 12  1  0
 12 13  2  0
 12 17  1  0
 13 14  1  0
 14 15  2  0
 15 16  1  0
 16 17  2  0
  1 18  1  0
  4 19  1  0
  5 20  1  0
  8 21  1  0
  9 22  1  0
 13 23  1  0
 14 24  1  0
 15 25  1  0
 17 26  1  0
A    1
OAA
A    2
CAN
A    3
OAD
A    4
CAE
A    5
CAF
A    6
CAO
A    7
OAB
A    8
NAL
A    9
NAM
A   10
CAP
A   11
OAC
A   12
CAQ
A   13
CAI
A   14
CAG
A   15
CAH
A   16
NAK
A   17
CAJ
M  END
