4D0W_VVQ_A_2132
     RDKit          3D

 37 39  0  0  0  0  0  0  0  0999 V2000
   32.0990   -9.1610    3.2170 C   0  0  0  0  0  0  0  0  0  0  0  0
   32.8050   -8.1840    2.5110 C   0  0  0  0  0  0  0  0  0  0  0  0
   33.8890   -8.5240    1.7790 N   0  0  0  0  0  0  0  0  0  0  0  0
   34.3510   -9.8530    1.7770 C   0  0  0  0  0  0  0  0  0  0  0  0
   35.4370  -10.1670    1.0330 N   0  0  0  0  0  0  0  0  0  0  0  0
   33.6990  -10.8010    2.5050 N   0  0  0  0  0  0  0  0  0  0  0  0
   32.5290  -10.4930    3.2120 C   0  0  0  0  0  0  0  0  0  0  0  0
   31.8680  -11.4990    3.8500 C   0  0  0  0  0  0  0  0  0  0  0  0
   32.3460  -12.7750    3.8300 N   0  0  0  0  0  0  0  0  0  0  0  0
   30.6370  -11.4790    4.4830 C   0  0  0  0  0  0  0  0  0  0  0  0
   30.3560  -12.7630    4.9150 C   0  0  0  0  0  0  0  0  0  0  0  0
   29.1480  -13.2080    5.5680 C   0  0  0  0  0  0  0  0  0  0  0  0
   28.1020  -12.5520    5.6870 O   0  0  0  0  0  0  0  0  0  0  0  0
   29.0150  -14.4320    5.9520 N   0  0  0  0  0  0  0  0  0  0  0  0
   31.4250  -13.5400    4.5120 C   0  0  0  0  0  0  0  0  0  0  0  0
   31.6550  -14.8910    4.6000 C   0  0  0  0  0  0  0  0  0  0  0  0
   32.3030  -15.4880    5.7010 C   0  0  0  0  0  0  0  0  0  0  0  0
   32.6070  -16.8470    5.7480 C   0  0  0  0  0  0  0  0  0  0  0  0
   33.4580  -17.5610    7.1580 Cl  0  0  0  0  0  0  0  0  0  0  0  0
   32.3390  -17.7630    4.7460 C   0  0  0  0  0  0  0  0  0  0  0  0
   31.7160  -17.1790    3.6410 C   0  0  0  0  0  0  0  0  0  0  0  0
   31.3870  -15.8070    3.5600 C   0  0  0  0  0  0  0  0  0  0  0  0
   30.8340  -15.4160    2.3290 C   0  0  0  0  0  0  0  0  0  0  0  0
   31.1974   -8.8811    3.7817 H   0  0  0  0  0  0  0  0  0  0  0  0
   32.4776   -7.1346    2.5510 H   0  0  0  0  0  0  0  0  0  0  0  0
   36.3214  -10.4227    1.4950 H   0  0  0  0  0  0  0  0  0  0  0  0
   35.3792  -10.1503    0.0048 H   0  0  0  0  0  0  0  0  0  0  0  0
   33.2197  -13.1017    3.3931 H   0  0  0  0  0  0  0  0  0  0  0  0
   29.9945  -10.5965    4.6188 H   0  0  0  0  0  0  0  0  0  0  0  0
   28.9906  -14.6567    6.9569 H   0  0  0  0  0  0  0  0  0  0  0  0
   28.9332  -15.1848    5.2538 H   0  0  0  0  0  0  0  0  0  0  0  0
   32.5796  -14.8553    6.5573 H   0  0  0  0  0  0  0  0  0  0  0  0
   32.5889  -18.8322    4.8125 H   0  0  0  0  0  0  0  0  0  0  0  0
   31.4672  -17.8235    2.7850 H   0  0  0  0  0  0  0  0  0  0  0  0
   29.9478  -14.7894    2.5077 H   0  0  0  0  0  0  0  0  0  0  0  0
   31.5792  -14.8429    1.7578 H   0  0  0  0  0  0  0  0  0  0  0  0
   30.5421  -16.3096    1.7578 H   0  0  0  0  0  0  0  0  0  0  0  0
  1  2  2  0
  1  7  1  0
  2  3  1  0
  3  4  2  0
  4  5  1  0
  4  6  1  0
  6  7  2  0
  7  8  1  0
  8  9  1  0
  8 10  2  0
  9 15  1  0
 10 11  1  0
 11 12  1  0
 11 15  2  0
 12 13  2  0
 12 14  1  0
 15 16  1  0
 16 17  2  0
 16 22  1  0
 17 18  1  0
 18 19  1  0
 18 20  2  0
 20 21  1  0
 21 22  2  0
 22 23  1  0
  1 24  1  0
  2 25  1  0
  5 26  1  0
  5 27  1  0
  9 28  1  0
 10 29  1  0
 14 30  1  0
 14 31  1  0
 17 32  1  0
 20 33  1  0
 21 34  1  0
 23 35  1  0
 23 36  1  0
 23 37  1  0
A    1
C16
A    2
C17
A    3
N18
A    4
C19
A    5
N21
A    6
N20
A    7
C15
A    8
C11
A    9
N7
A   10
C10
A   11
C9
A   12
C12
A   13
O13
A   14
N14
A   15
C8
A   16
C1
A   17
C6
A   18
C5
A   19
CL
A   20
C4
A   21
C3
A   22
C2
A   23
C22
M  END
