4D13_IUP_A_1297
     RDKit          3D

 18 19  0  0  0  0  0  0  0  0999 V2000
   30.0700   27.2790   36.1970 N   0  0  0  0  0  0  0  0  0  0  0  0
   29.3330   27.0750   37.3650 C   0  0  0  0  0  0  0  0  0  0  0  0
   31.4000   27.0050   36.0310 C   0  0  0  0  0  0  0  0  0  0  0  0
   29.8570   26.4260   38.4540 N   0  0  0  0  0  0  0  0  0  0  0  0
   28.1650   27.4770   37.3860 O   0  0  0  0  0  0  0  0  0  0  0  0
   31.1450   26.1630   38.3880 C   0  0  0  0  0  0  0  0  0  0  0  0
   32.0780   26.6700   37.3390 C   0  0  0  0  0  0  0  0  0  0  0  0
   31.9000   25.3640   39.1500 N   0  0  0  0  0  0  0  0  0  0  0  0
   31.9670   27.0830   34.9480 O   0  0  0  0  0  0  0  0  0  0  0  0
   33.2580   25.8790   37.3740 N   0  0  0  0  0  0  0  0  0  0  0  0
   33.1420   25.2040   38.5430 C   0  0  0  0  0  0  0  0  0  0  0  0
   34.0430   24.5500   39.0930 O   0  0  0  0  0  0  0  0  0  0  0  0
   32.2940   28.1190   37.7190 O   0  0  0  0  0  0  0  0  0  0  0  0
   32.8750   28.3430   39.0470 O   0  0  0  0  0  0  0  0  0  0  0  0
   29.5674   27.6709   35.3878 H   0  0  0  0  0  0  0  0  0  0  0  0
   29.2823   26.1627   39.2672 H   0  0  0  0  0  0  0  0  0  0  0  0
   34.0170   25.8306   36.6794 H   0  0  0  0  0  0  0  0  0  0  0  0
   32.2172   28.0894   39.7420 H   0  0  0  0  0  0  0  0  0  0  0  0
  1  2  1  0
  1  3  1  0
  2  4  1  0
  2  5  2  0
  3  7  1  0
  3  9  2  0
  4  6  1  0
  6  7  1  0
  6  8  2  0
  7 10  1  0
  7 13  1  0
  8 11  1  0
 10 11  1  0
 11 12  2  0
 13 14  1  0
  1 15  1  0
  4 16  1  0
 10 17  1  0
 14 18  1  0
A    1
N1
A    2
C2
A    3
C6
A    4
N3
A    5
O11
A    6
C4
A    7
C5
A    8
N9
A    9
O13
A   10
N7
A   11
C8
A   12
O24
A   13
O2
A   14
O3
M  END
