4D1A_I5H_A_1467
     RDKit          3D

 28 30  0  0  0  0  0  0  0  0999 V2000
    2.4860    6.9090   27.7500 N   0  0  0  0  0  0  0  0  0  0  0  0
    2.6050    8.1130   27.1520 C   0  0  0  0  0  0  0  0  0  0  0  0
    2.3990    9.1190   28.0770 C   0  0  0  0  0  0  0  0  0  0  0  0
    2.1420    8.4830   29.3040 C   0  0  0  0  0  0  0  0  0  0  0  0
    1.8620    8.9430   30.5910 C   0  0  0  0  0  0  0  0  0  0  0  0
    1.6500    8.0040   31.6110 C   0  0  0  0  0  0  0  0  0  0  0  0
    1.7140    6.6490   31.3560 C   0  0  0  0  0  0  0  0  0  0  0  0
    1.9890    6.1560   30.0880 C   0  0  0  0  0  0  0  0  0  0  0  0
    2.1990    7.0950   29.0750 C   0  0  0  0  0  0  0  0  0  0  0  0
    2.4430   10.6250   27.8140 C   0  0  0  0  0  0  0  0  0  0  0  0
    3.5360   10.9100   26.8780 C   0  0  0  0  0  0  0  0  0  0  0  0
    3.2710   12.2170   26.2220 C   0  0  0  0  0  0  0  0  0  0  0  0
    4.3380   13.0970   26.5580 N   0  0  0  0  0  0  0  0  0  0  0  0
    5.2750   12.3660   27.4130 C   0  0  0  0  0  0  0  0  0  0  0  0
    4.7600   11.0160   27.5970 N   0  0  0  0  0  0  0  0  0  0  0  0
    2.3170   12.4790   25.5320 O   0  0  0  0  0  0  0  0  0  0  0  0
    6.2910   12.7940   27.8850 O   0  0  0  0  0  0  0  0  0  0  0  0
    2.5939    5.9968   27.2840 H   0  0  0  0  0  0  0  0  0  0  0  0
    2.8321    8.2702   26.0872 H   0  0  0  0  0  0  0  0  0  0  0  0
    1.8085   10.0213   30.8017 H   0  0  0  0  0  0  0  0  0  0  0  0
    1.4292    8.3530   32.6305 H   0  0  0  0  0  0  0  0  0  0  0  0
    1.5424    5.9407   32.1800 H   0  0  0  0  0  0  0  0  0  0  0  0
    2.0393    5.0752   29.8897 H   0  0  0  0  0  0  0  0  0  0  0  0
    1.4878   10.9521   27.3775 H   0  0  0  0  0  0  0  0  0  0  0  0
    2.6094   11.1644   28.7581 H   0  0  0  0  0  0  0  0  0  0  0  0
    3.6035   10.1035   26.1330 H   0  0  0  0  0  0  0  0  0  0  0  0
    4.4341   14.0762   26.2532 H   0  0  0  0  0  0  0  0  0  0  0  0
    5.2037   10.2691   28.1503 H   0  0  0  0  0  0  0  0  0  0  0  0
  1  2  1  0
  1  9  1  0
  2  3  2  0
  3  4  1  0
  3 10  1  0
  4  5  1  0
  4  9  2  0
  5  6  2  0
  6  7  1  0
  7  8  2  0
  8  9  1  0
 10 11  1  0
 11 12  1  0
 11 15  1  0
 12 13  1  0
 12 16  2  0
 13 14  1  0
 14 15  1  0
 14 17  2  0
  1 18  1  0
  2 19  1  0
  5 20  1  0
  6 21  1  0
  7 22  1  0
  8 23  1  0
 10 24  1  0
 10 25  1  0
 11 26  1  0
 13 27  1  0
 15 28  1  0
A    1
N1
A    2
C2
A    3
C3
A    4
C4
A    5
C5
A    6
C6
A    7
C7
A    8
C8
A    9
C9
A   10
C10
A   11
C11
A   12
C12
A   13
N13
A   14
C14
A   15
N15
A   16
O16
A   17
O17
M  END
