4D1S_BJG_A_1141
     RDKit          3D

 67 71  0  0  0  0  0  0  0  0999 V2000
    1.9860   -1.6590    5.4110 C   0  0  0  0  0  0  0  0  0  0  0  0
    1.4030   -0.1800    5.2020 C   0  0  0  0  0  0  0  0  0  0  0  0
    1.5260    0.2570    3.7910 N   0  0  0  0  0  0  0  0  0  0  0  0
    1.2470    1.7460    3.8280 C   0  0  0  0  0  0  0  0  0  0  0  0
    2.9270    0.2580    3.3660 C   0  0  0  0  0  0  0  0  0  0  0  0
    3.4550   -1.1630    3.2900 C   0  0  0  0  0  0  0  0  0  0  0  0
    3.1300   -1.9350    4.4700 N   0  0  0  0  0  0  0  0  0  0  0  0
    3.9230   -3.0670    4.6970 C   0  0  0  0  0  0  0  0  0  0  0  0
    5.2870   -2.9670    4.4870 C   0  0  0  0  0  0  0  0  0  0  0  0
    6.0720   -4.0920    4.7390 C   0  0  0  0  0  0  0  0  0  0  0  0
    3.3080   -4.2480    5.1450 C   0  0  0  0  0  0  0  0  0  0  0  0
    4.1250   -5.3720    5.3530 C   0  0  0  0  0  0  0  0  0  0  0  0
    5.5070   -5.2800    5.2070 C   0  0  0  0  0  0  0  0  0  0  0  0
    6.1730   -6.4400    5.4840 N   0  0  0  0  0  0  0  0  0  0  0  0
    7.5330   -6.7190    5.3830 C   0  0  0  0  0  0  0  0  0  0  0  0
    8.4470   -5.8000    4.9950 N   0  0  0  0  0  0  0  0  0  0  0  0
    7.8960   -7.9760    5.7420 N   0  0  0  0  0  0  0  0  0  0  0  0
    9.2280   -8.3880    5.7390 C   0  0  0  0  0  0  0  0  0  0  0  0
   10.1560   -7.4340    5.2850 C   0  0  0  0  0  0  0  0  0  0  0  0
    9.7850   -6.1180    4.9330 C   0  0  0  0  0  0  0  0  0  0  0  0
   10.6970   -5.0990    4.6010 C   0  0  0  0  0  0  0  0  0  0  0  0
   10.3940   -3.8430    4.1220 N   0  0  0  0  0  0  0  0  0  0  0  0
    9.1000   -3.4750    3.6140 C   0  0  0  0  0  0  0  0  0  0  0  0
   12.0240   -5.0640    4.8890 C   0  0  0  0  0  0  0  0  0  0  0  0
   12.5010   -3.7940    4.5350 C   0  0  0  0  0  0  0  0  0  0  0  0
   13.8140   -3.3930    4.6360 C   0  0  0  0  0  0  0  0  0  0  0  0
   14.7520   -4.1860    4.4610 O   0  0  0  0  0  0  0  0  0  0  0  0
   14.0260   -2.0550    4.9400 N   0  0  0  0  0  0  0  0  0  0  0  0
   11.5080   -3.0550    4.0560 C   0  0  0  0  0  0  0  0  0  0  0  0
   11.4860   -1.7430    3.5300 C   0  0  0  0  0  0  0  0  0  0  0  0
   12.1730   -1.4000    2.3490 C   0  0  0  0  0  0  0  0  0  0  0  0
   12.0560   -0.0840    1.8030 C   0  0  0  0  0  0  0  0  0  0  0  0
   12.9950    0.1610    0.3970 Cl  0  0  0  0  0  0  0  0  0  0  0  0
   11.2720    0.9620    2.3650 C   0  0  0  0  0  0  0  0  0  0  0  0
   10.5800    0.6310    3.5520 C   0  0  0  0  0  0  0  0  0  0  0  0
   10.6600   -0.6850    4.0970 C   0  0  0  0  0  0  0  0  0  0  0  0
    9.8990   -0.9070    5.3050 C   0  0  0  0  0  0  0  0  0  0  0  0
    2.3417   -1.7608    6.4469 H   0  0  0  0  0  0  0  0  0  0  0  0
    1.1830   -2.3812    5.2023 H   0  0  0  0  0  0  0  0  0  0  0  0
    0.3409   -0.1706    5.4880 H   0  0  0  0  0  0  0  0  0  0  0  0
    1.9833    0.5121    5.8299 H   0  0  0  0  0  0  0  0  0  0  0  0
    1.1842    2.0814    4.8737 H   0  0  0  0  0  0  0  0  0  0  0  0
    2.0599    2.2841    3.3186 H   0  0  0  0  0  0  0  0  0  0  0  0
    0.2944    1.9533    3.3186 H   0  0  0  0  0  0  0  0  0  0  0  0
    3.0051    0.7278    2.3744 H   0  0  0  0  0  0  0  0  0  0  0  0
    3.5228    0.8226    4.0983 H   0  0  0  0  0  0  0  0  0  0  0  0
    3.0142   -1.6573    2.4117 H   0  0  0  0  0  0  0  0  0  0  0  0
    4.5511   -1.1104    3.2144 H   0  0  0  0  0  0  0  0  0  0  0  0
    5.7385   -2.0288    4.1321 H   0  0  0  0  0  0  0  0  0  0  0  0
    7.1571   -4.0424    4.5657 H   0  0  0  0  0  0  0  0  0  0  0  0
    2.2240   -4.2912    5.3267 H   0  0  0  0  0  0  0  0  0  0  0  0
    3.6692   -6.3330    5.6336 H   0  0  0  0  0  0  0  0  0  0  0  0
    5.5855   -7.2188    5.8145 H   0  0  0  0  0  0  0  0  0  0  0  0
    9.5325   -9.3920    6.0696 H   0  0  0  0  0  0  0  0  0  0  0  0
   11.2135   -7.7247    5.2007 H   0  0  0  0  0  0  0  0  0  0  0  0
    8.4177   -3.2810    4.4547 H   0  0  0  0  0  0  0  0  0  0  0  0
    9.1919   -2.5674    2.9994 H   0  0  0  0  0  0  0  0  0  0  0  0
    8.7006   -4.2952    2.9994 H   0  0  0  0  0  0  0  0  0  0  0  0
   12.6168   -5.8834    5.3215 H   0  0  0  0  0  0  0  0  0  0  0  0
   14.0741   -1.7516    5.9231 H   0  0  0  0  0  0  0  0  0  0  0  0
   14.1352   -1.3658    4.1824 H   0  0  0  0  0  0  0  0  0  0  0  0
   12.8023   -2.1481    1.8447 H   0  0  0  0  0  0  0  0  0  0  0  0
   11.2088    1.9601    1.9069 H   0  0  0  0  0  0  0  0  0  0  0  0
    9.9740    1.3953    4.0605 H   0  0  0  0  0  0  0  0  0  0  0  0
   10.5383   -0.7205    6.1805 H   0  0  0  0  0  0  0  0  0  0  0  0
    9.0382   -0.2225    5.3271 H   0  0  0  0  0  0  0  0  0  0  0  0
    9.5412   -1.9470    5.3271 H   0  0  0  0  0  0  0  0  0  0  0  0
  1  2  1  0
  1  7  1  0
  2  3  1  0
  3  4  1  0
  3  5  1  0
  5  6  1  0
  6  7  1  0
  7  8  1  0
  8  9  2  0
  8 11  1  0
  9 10  1  0
 10 13  2  0
 11 12  2  0
 12 13  1  0
 13 14  1  0
 14 15  1  0
 15 16  2  0
 15 17  1  0
 16 20  1  0
 17 18  2  0
 18 19  1  0
 19 20  2  0
 20 21  1  0
 21 22  1  0
 21 24  2  0
 22 23  1  0
 22 29  1  0
 24 25  1  0
 25 26  1  0
 25 29  2  0
 26 27  2  0
 26 28  1  0
 29 30  1  0
 30 31  2  0
 30 36  1  0
 31 32  1  0
 32 33  1  0
 32 34  2  0
 34 35  1  0
 35 36  2  0
 36 37  1  0
  1 38  1  0
  1 39  1  0
  2 40  1  0
  2 41  1  0
  4 42  1  0
  4 43  1  0
  4 44  1  0
  5 45  1  0
  5 46  1  0
  6 47  1  0
  6 48  1  0
  9 49  1  0
 10 50  1  0
 11 51  1  0
 12 52  1  0
 14 53  1  0
 18 54  1  0
 19 55  1  0
 23 56  1  0
 23 57  1  0
 23 58  1  0
 24 59  1  0
 28 60  1  0
 28 61  1  0
 31 62  1  0
 34 63  1  0
 35 64  1  0
 37 65  1  0
 37 66  1  0
 37 67  1  0
A    1
C8
A    2
C9
A    3
N10
A    4
C35
A    5
C11
A    6
C12
A    7
N7
A    8
C16
A    9
C17
A   10
C18
A   11
C15
A   12
C14
A   13
C13
A   14
N34
A   15
C23
A   16
N24
A   17
N22
A   18
C21
A   19
C20
A   20
C19
A   21
C29
A   22
N25
A   23
C33
A   24
C28
A   25
C27
A   26
C30
A   27
O31
A   28
N32
A   29
C26
A   30
C1
A   31
C2
A   32
C3
A   33
CL1
A   34
C4
A   35
C5
A   36
C6
A   37
C36
M  END
