4D2W_NF5_A_1334
     RDKit          3D

 38 40  0  0  0  0  0  0  0  0999 V2000
    1.6220    0.0700   -8.4270 Br  0  0  0  0  0  0  0  0  0  0  0  0
    1.0170   -1.5960   -9.0700 C   0  0  0  0  0  0  0  0  0  0  0  0
    1.4830   -2.7610   -8.4670 C   0  0  0  0  0  0  0  0  0  0  0  0
    1.0160   -3.9750   -8.9320 C   0  0  0  0  0  0  0  0  0  0  0  0
    0.1130   -4.0300   -9.9860 C   0  0  0  0  0  0  0  0  0  0  0  0
   -0.3500   -2.8530  -10.5760 C   0  0  0  0  0  0  0  0  0  0  0  0
    0.1100   -1.6330  -10.1250 C   0  0  0  0  0  0  0  0  0  0  0  0
   -0.3810   -5.3570  -10.4510 C   0  0  0  0  0  0  0  0  0  0  0  0
    0.3090   -6.3640  -10.3630 O   0  0  0  0  0  0  0  0  0  0  0  0
   -1.6330   -5.3450  -10.9490 N   0  0  0  0  0  0  0  0  0  0  0  0
   -2.3440   -6.3240  -11.6700 C   0  0  0  0  0  0  0  0  0  0  0  0
   -1.7840   -7.4640  -12.2340 C   0  0  0  0  0  0  0  0  0  0  0  0
   -2.5800   -8.3440  -12.9400 C   0  0  0  0  0  0  0  0  0  0  0  0
   -3.9450   -8.1030  -13.1000 C   0  0  0  0  0  0  0  0  0  0  0  0
   -4.7700   -9.0990  -13.8790 C   0  0  0  0  0  0  0  0  0  0  0  0
   -5.9060   -9.7170  -13.0780 C   0  0  0  0  0  0  0  0  0  0  0  0
   -7.0860   -8.8640  -12.9020 N   0  0  0  0  0  0  0  0  0  0  0  0
   -6.8890   -7.6890  -12.0490 C   0  0  0  0  0  0  0  0  0  0  0  0
   -5.9830   -6.6170  -12.6450 C   0  0  0  0  0  0  0  0  0  0  0  0
   -4.5150   -6.9570  -12.5270 C   0  0  0  0  0  0  0  0  0  0  0  0
   -3.6990   -6.0800  -11.8270 C   0  0  0  0  0  0  0  0  0  0  0  0
    2.2063   -2.7158   -7.6395 H   0  0  0  0  0  0  0  0  0  0  0  0
    1.3627   -4.9076   -8.4629 H   0  0  0  0  0  0  0  0  0  0  0  0
   -1.0795   -2.8979  -11.3981 H   0  0  0  0  0  0  0  0  0  0  0  0
   -0.2362   -0.7001  -10.5939 H   0  0  0  0  0  0  0  0  0  0  0  0
   -2.1569   -4.4758  -10.7733 H   0  0  0  0  0  0  0  0  0  0  0  0
   -0.7087   -7.6649  -12.1182 H   0  0  0  0  0  0  0  0  0  0  0  0
   -2.1324   -9.2464  -13.3819 H   0  0  0  0  0  0  0  0  0  0  0  0
   -5.2004   -8.5855  -14.7514 H   0  0  0  0  0  0  0  0  0  0  0  0
   -4.0955   -9.9201  -14.1634 H   0  0  0  0  0  0  0  0  0  0  0  0
   -6.2244  -10.6353  -13.5930 H   0  0  0  0  0  0  0  0  0  0  0  0
   -5.5054   -9.8935  -12.0689 H   0  0  0  0  0  0  0  0  0  0  0  0
   -7.3826   -8.5356  -13.8321 H   0  0  0  0  0  0  0  0  0  0  0  0
   -7.8729   -7.2374  -11.8544 H   0  0  0  0  0  0  0  0  0  0  0  0
   -6.3904   -8.0465  -11.1360 H   0  0  0  0  0  0  0  0  0  0  0  0
   -6.2317   -6.4993  -13.7100 H   0  0  0  0  0  0  0  0  0  0  0  0
   -6.1537   -5.6885  -12.0804 H   0  0  0  0  0  0  0  0  0  0  0  0
   -4.1369   -5.1718  -11.3873 H   0  0  0  0  0  0  0  0  0  0  0  0
  1  2  1  0
  2  3  2  0
  2  7  1  0
  3  4  1  0
  4  5  2  0
  5  6  1  0
  5  8  1  0
  6  7  2  0
  8  9  2  0
  8 10  1  0
 10 11  1  0
 11 12  2  0
 11 21  1  0
 12 13  1  0
 13 14  2  0
 14 15  1  0
 14 20  1  0
 15 16  1  0
 16 17  1  0
 17 18  1  0
 18 19  1  0
 19 20  1  0
 20 21  2  0
  3 22  1  0
  4 23  1  0
  6 24  1  0
  7 25  1  0
 10 26  1  0
 12 27  1  0
 13 28  1  0
 15 29  1  0
 15 30  1  0
 16 31  1  0
 16 32  1  0
 17 33  1  0
 18 34  1  0
 18 35  1  0
 19 36  1  0
 19 37  1  0
 21 38  1  0
A    1
BR1
A    2
C2
A    3
C3
A    4
C4
A    5
C5
A    6
C6
A    7
C7
A    8
C8
A    9
O9
A   10
N10
A   11
C11
A   12
C12
A   13
C13
A   14
C14
A   15
C15
A   16
C16
A   17
N17
A   18
C20
A   19
C21
A   20
C22
A   21
C23
M  END
