4D30_EG8_A_800
     RDKit          3D

 43 45  0  0  0  0  0  0  0  0999 V2000
   14.1580    2.9460   22.8610 N   0  0  0  0  0  0  0  0  0  0  0  0
   13.0060    2.5230   23.4040 C   0  0  0  0  0  0  0  0  0  0  0  0
   12.5390    1.6980   22.4710 N   0  0  0  0  0  0  0  0  0  0  0  0
   13.3020    1.5330   21.3940 C   0  0  0  0  0  0  0  0  0  0  0  0
   14.3690    2.3640   21.6560 C   0  0  0  0  0  0  0  0  0  0  0  0
    1.2180    4.2320   29.0850 N   0  0  0  0  0  0  0  0  0  0  0  0
   10.5780    1.3360   23.6510 N   0  0  0  0  0  0  0  0  0  0  0  0
   11.3910    1.0390   22.6130 C   0  0  0  0  0  0  0  0  0  0  0  0
   11.0810    0.0740   21.7160 N   0  0  0  0  0  0  0  0  0  0  0  0
    9.9450   -0.6160   21.8370 C   0  0  0  0  0  0  0  0  0  0  0  0
    9.0910   -0.3330   22.8830 C   0  0  0  0  0  0  0  0  0  0  0  0
    9.4390    0.6510   23.7970 C   0  0  0  0  0  0  0  0  0  0  0  0
    8.5210    1.0120   24.9200 C   0  0  0  0  0  0  0  0  0  0  0  0
    8.2040    2.4770   24.6320 C   0  0  0  0  0  0  0  0  0  0  0  0
    7.4910    3.0700   25.7640 N   0  0  0  0  0  0  0  0  0  0  0  0
    1.9660    3.3120   28.4600 C   0  0  0  0  0  0  0  0  0  0  0  0
    6.1440    2.4850   25.8280 C   0  0  0  0  0  0  0  0  0  0  0  0
    5.3860    3.2240   26.9210 C   0  0  0  0  0  0  0  0  0  0  0  0
    3.9950    2.6500   27.1230 C   0  0  0  0  0  0  0  0  0  0  0  0
    3.1510    3.6860   27.8260 C   0  0  0  0  0  0  0  0  0  0  0  0
    3.5580    5.0180   27.8490 C   0  0  0  0  0  0  0  0  0  0  0  0
    2.7640    5.9510   28.5080 C   0  0  0  0  0  0  0  0  0  0  0  0
    1.5900    5.5230   29.1210 C   0  0  0  0  0  0  0  0  0  0  0  0
   12.5612    2.7905   24.3738 H   0  0  0  0  0  0  0  0  0  0  0  0
   13.1255    0.8943   20.5160 H   0  0  0  0  0  0  0  0  0  0  0  0
   15.2387    2.5263   21.0023 H   0  0  0  0  0  0  0  0  0  0  0  0
    9.6922   -1.4022   21.1103 H   0  0  0  0  0  0  0  0  0  0  0  0
    8.1439   -0.8819   22.9912 H   0  0  0  0  0  0  0  0  0  0  0  0
    7.6091    0.3971   24.9009 H   0  0  0  0  0  0  0  0  0  0  0  0
    8.9601    0.8464   25.9149 H   0  0  0  0  0  0  0  0  0  0  0  0
    9.1424    3.0262   24.4653 H   0  0  0  0  0  0  0  0  0  0  0  0
    7.5697    2.5382   23.7354 H   0  0  0  0  0  0  0  0  0  0  0  0
    7.9985    2.8691   26.6375 H   0  0  0  0  0  0  0  0  0  0  0  0
    1.6448    2.2600   28.4470 H   0  0  0  0  0  0  0  0  0  0  0  0
    5.6319    2.6108   24.8627 H   0  0  0  0  0  0  0  0  0  0  0  0
    6.1951    1.4082   26.0468 H   0  0  0  0  0  0  0  0  0  0  0  0
    5.9470    3.1403   27.8635 H   0  0  0  0  0  0  0  0  0  0  0  0
    5.2831    4.2761   26.6170 H   0  0  0  0  0  0  0  0  0  0  0  0
    3.5483    2.4060   26.1479 H   0  0  0  0  0  0  0  0  0  0  0  0
    4.0483    1.7320   27.7267 H   0  0  0  0  0  0  0  0  0  0  0  0
    4.4909    5.3267   27.3547 H   0  0  0  0  0  0  0  0  0  0  0  0
    3.0593    7.0100   28.5440 H   0  0  0  0  0  0  0  0  0  0  0  0
    0.9557    6.2539   29.6439 H   0  0  0  0  0  0  0  0  0  0  0  0
  1  2  2  0
  1  5  1  0
  2  3  1  0
  3  4  1  0
  3  8  1  0
  4  5  2  0
  6 16  2  0
  6 23  1  0
  7  8  2  0
  7 12  1  0
  8  9  1  0
  9 10  2  0
 10 11  1  0
 11 12  2  0
 12 13  1  0
 13 14  1  0
 14 15  1  0
 15 17  1  0
 16 20  1  0
 17 18  1  0
 18 19  1  0
 19 20  1  0
 20 21  2  0
 21 22  1  0
 22 23  2  0
  2 24  1  0
  4 25  1  0
  5 26  1  0
 10 27  1  0
 11 28  1  0
 13 29  1  0
 13 30  1  0
 14 31  1  0
 14 32  1  0
 15 33  1  0
 16 34  1  0
 17 35  1  0
 17 36  1  0
 18 37  1  0
 18 38  1  0
 19 39  1  0
 19 40  1  0
 21 41  1  0
 22 42  1  0
 23 43  1  0
A    1
N01
A    2
C02
A    3
N03
A    4
C04
A    5
C05
A    6
N1'
A    7
N11
A    8
C12
A    9
N13
A   10
C14
A   11
C15
A   12
C16
A   13
C17
A   14
C18
A   15
N19
A   16
C2'
A   17
C20
A   18
C21
A   19
C22
A   20
C3'
A   21
C4'
A   22
C5'
A   23
C6'
M  END
