4D37_9HL_A_800
     RDKit          3D

 45 48  0  0  0  0  0  0  0  0999 V2000
    7.9060    9.7810   31.1910 N   0  0  0  0  0  0  0  0  0  0  0  0
    8.4050   10.7530   31.9950 C   0  0  0  0  0  0  0  0  0  0  0  0
    8.4660   11.8230   31.2010 N   0  0  0  0  0  0  0  0  0  0  0  0
    8.0240   11.6220   29.9540 C   0  0  0  0  0  0  0  0  0  0  0  0
    7.6750   10.2850   29.9490 C   0  0  0  0  0  0  0  0  0  0  0  0
   16.0230   15.8910   38.3340 C   0  0  0  0  0  0  0  0  0  0  0  0
    9.5390   13.1760   32.7930 N   0  0  0  0  0  0  0  0  0  0  0  0
    8.8670   13.0290   31.6250 C   0  0  0  0  0  0  0  0  0  0  0  0
    8.5630   14.1020   30.8510 N   0  0  0  0  0  0  0  0  0  0  0  0
    8.9060   15.3450   31.2080 C   0  0  0  0  0  0  0  0  0  0  0  0
    9.5980   15.5390   32.3940 C   0  0  0  0  0  0  0  0  0  0  0  0
    9.9020   14.4270   33.1850 C   0  0  0  0  0  0  0  0  0  0  0  0
   10.6590   14.6450   34.4670 C   0  0  0  0  0  0  0  0  0  0  0  0
   11.7990   13.6560   34.5200 C   0  0  0  0  0  0  0  0  0  0  0  0
   12.4630   13.7230   35.8350 N   0  0  0  0  0  0  0  0  0  0  0  0
   16.7650   17.0560   38.5080 C   0  0  0  0  0  0  0  0  0  0  0  0
   13.0850   15.0350   36.0950 C   0  0  0  0  0  0  0  0  0  0  0  0
   14.3080   14.8060   36.9820 C   0  0  0  0  0  0  0  0  0  0  0  0
   13.8840   14.7320   38.4450 C   0  0  0  0  0  0  0  0  0  0  0  0
   14.6010   15.9680   37.9320 C   0  0  0  0  0  0  0  0  0  0  0  0
   18.1050   16.9690   38.8860 C   0  0  0  0  0  0  0  0  0  0  0  0
   18.6920   15.7270   39.0920 C   0  0  0  0  0  0  0  0  0  0  0  0
   17.9590   14.5610   38.9240 C   0  0  0  0  0  0  0  0  0  0  0  0
   16.6220   14.6490   38.5420 C   0  0  0  0  0  0  0  0  0  0  0  0
   18.8430   18.0840   39.0610 F   0  0  0  0  0  0  0  0  0  0  0  0
    8.6922   10.6766   33.0541 H   0  0  0  0  0  0  0  0  0  0  0  0
    7.9550   12.3475   29.1301 H   0  0  0  0  0  0  0  0  0  0  0  0
    7.2788    9.7250   29.0891 H   0  0  0  0  0  0  0  0  0  0  0  0
    8.6427   16.2012   30.5696 H   0  0  0  0  0  0  0  0  0  0  0  0
    9.9020   16.5489   32.7066 H   0  0  0  0  0  0  0  0  0  0  0  0
   11.0552   15.6708   34.4949 H   0  0  0  0  0  0  0  0  0  0  0  0
    9.9920   14.5003   35.3297 H   0  0  0  0  0  0  0  0  0  0  0  0
   11.4080   12.6403   34.3605 H   0  0  0  0  0  0  0  0  0  0  0  0
   12.5280   13.9023   33.7340 H   0  0  0  0  0  0  0  0  0  0  0  0
   11.7621   13.5402   36.5673 H   0  0  0  0  0  0  0  0  0  0  0  0
   16.2976   18.0389   38.3484 H   0  0  0  0  0  0  0  0  0  0  0  0
   13.3929   15.4976   35.1457 H   0  0  0  0  0  0  0  0  0  0  0  0
   12.3702   15.7066   36.5930 H   0  0  0  0  0  0  0  0  0  0  0  0
   14.9215   14.2102   36.2901 H   0  0  0  0  0  0  0  0  0  0  0  0
   12.8181   14.7864   38.7112 H   0  0  0  0  0  0  0  0  0  0  0  0
   14.0544   14.0214   39.2672 H   0  0  0  0  0  0  0  0  0  0  0  0
   14.4033   17.0501   37.9398 H   0  0  0  0  0  0  0  0  0  0  0  0
   19.7488   15.6673   39.3914 H   0  0  0  0  0  0  0  0  0  0  0  0
   18.4274   13.5797   39.0903 H   0  0  0  0  0  0  0  0  0  0  0  0
   16.0334   13.7301   38.4032 H   0  0  0  0  0  0  0  0  0  0  0  0
  1  2  2  0
  1  5  1  0
  2  3  1  0
  3  4  1  0
  3  8  1  0
  4  5  2  0
  6 16  2  0
  6 20  1  0
  6 24  1  0
  7  8  2  0
  7 12  1  0
  8  9  1  0
  9 10  2  0
 10 11  1  0
 11 12  2  0
 12 13  1  0
 13 14  1  0
 14 15  1  0
 15 17  1  0
 16 21  1  0
 17 18  1  0
 18 19  1  0
 18 20  1  0
 19 20  1  0
 21 22  2  0
 21 25  1  0
 22 23  1  0
 23 24  2  0
  2 26  1  0
  4 27  1  0
  5 28  1  0
 10 29  1  0
 11 30  1  0
 13 31  1  0
 13 32  1  0
 14 33  1  0
 14 34  1  0
 15 35  1  0
 16 36  1  0
 17 37  1  0
 17 38  1  0
 18 39  1  0
 19 40  1  0
 19 41  1  0
 20 42  1  0
 22 43  1  0
 23 44  1  0
 24 45  1  0
A    1
N01
A    2
C02
A    3
N03
A    4
C04
A    5
C05
A    6
C1'
A    7
N11
A    8
C12
A    9
N13
A   10
C14
A   11
C15
A   12
C16
A   13
C17
A   14
C18
A   15
N19
A   16
C2'
A   17
C20
A   18
C21
A   19
C22
A   20
C23
A   21
C3'
A   22
C4'
A   23
C5'
A   24
C6'
A   25
F7'
M  END
