4D33_6J0_A_800
     RDKit          3D

 43 45  0  0  0  0  0  0  0  0999 V2000
    7.7130    9.7450   30.5400 N   0  0  0  0  0  0  0  0  0  0  0  0
    8.1840   10.6780   31.3860 C   0  0  0  0  0  0  0  0  0  0  0  0
    8.4130   11.7010   30.5840 N   0  0  0  0  0  0  0  0  0  0  0  0
    8.1490   11.5050   29.2830 C   0  0  0  0  0  0  0  0  0  0  0  0
    7.6890   10.2030   29.2600 C   0  0  0  0  0  0  0  0  0  0  0  0
   16.0240   14.9710   37.4630 C   0  0  0  0  0  0  0  0  0  0  0  0
    8.7980   13.9570   30.2620 N   0  0  0  0  0  0  0  0  0  0  0  0
    8.8880   12.8510   31.0470 C   0  0  0  0  0  0  0  0  0  0  0  0
    9.4640   12.8870   32.2710 N   0  0  0  0  0  0  0  0  0  0  0  0
    9.9450   14.0700   32.7230 C   0  0  0  0  0  0  0  0  0  0  0  0
    9.8520   15.2200   31.9330 C   0  0  0  0  0  0  0  0  0  0  0  0
    9.2550   15.1480   30.6850 C   0  0  0  0  0  0  0  0  0  0  0  0
   10.5350   14.1670   33.9270 N   0  0  0  0  0  0  0  0  0  0  0  0
   10.7720   15.5110   34.4370 C   0  0  0  0  0  0  0  0  0  0  0  0
   12.2490   15.7550   34.7040 C   0  0  0  0  0  0  0  0  0  0  0  0
   16.9080   14.3640   36.5760 C   0  0  0  0  0  0  0  0  0  0  0  0
   12.7830   14.8120   35.6560 N   0  0  0  0  0  0  0  0  0  0  0  0
   14.2180   14.7490   35.8640 C   0  0  0  0  0  0  0  0  0  0  0  0
   14.5530   14.6780   37.3450 C   0  0  0  0  0  0  0  0  0  0  0  0
   18.2710   14.6300   36.6650 C   0  0  0  0  0  0  0  0  0  0  0  0
   18.7340   15.5070   37.6410 C   0  0  0  0  0  0  0  0  0  0  0  0
   17.8470   16.1190   38.5230 C   0  0  0  0  0  0  0  0  0  0  0  0
   16.4880   15.8510   38.4360 C   0  0  0  0  0  0  0  0  0  0  0  0
   19.1380   14.0420   35.8120 F   0  0  0  0  0  0  0  0  0  0  0  0
    8.3393   10.6067   32.4726 H   0  0  0  0  0  0  0  0  0  0  0  0
    8.2690   12.2064   28.4441 H   0  0  0  0  0  0  0  0  0  0  0  0
    7.3639    9.6413   28.3719 H   0  0  0  0  0  0  0  0  0  0  0  0
   10.2508   16.1770   32.3006 H   0  0  0  0  0  0  0  0  0  0  0  0
    9.1573   16.0445   30.0551 H   0  0  0  0  0  0  0  0  0  0  0  0
   10.8066   13.3308   34.4635 H   0  0  0  0  0  0  0  0  0  0  0  0
   10.4176   16.2421   33.6954 H   0  0  0  0  0  0  0  0  0  0  0  0
   10.2277   15.6200   35.3866 H   0  0  0  0  0  0  0  0  0  0  0  0
   12.8026   15.6588   33.7584 H   0  0  0  0  0  0  0  0  0  0  0  0
   12.3586   16.7655   35.1246 H   0  0  0  0  0  0  0  0  0  0  0  0
   16.5301   13.6753   35.8060 H   0  0  0  0  0  0  0  0  0  0  0  0
   12.3565   15.0310   36.5676 H   0  0  0  0  0  0  0  0  0  0  0  0
   14.6149   13.8541   35.3625 H   0  0  0  0  0  0  0  0  0  0  0  0
   14.6722   15.6595   35.4460 H   0  0  0  0  0  0  0  0  0  0  0  0
   14.3325   13.6742   37.7371 H   0  0  0  0  0  0  0  0  0  0  0  0
   13.9556   15.3979   37.9236 H   0  0  0  0  0  0  0  0  0  0  0  0
   19.8108   15.7189   37.7166 H   0  0  0  0  0  0  0  0  0  0  0  0
   18.2231   16.8142   39.2880 H   0  0  0  0  0  0  0  0  0  0  0  0
   15.7830   16.3306   39.1310 H   0  0  0  0  0  0  0  0  0  0  0  0
  1  2  2  0
  1  5  1  0
  2  3  1  0
  3  4  1  0
  3  8  1  0
  4  5  2  0
  6 16  2  0
  6 19  1  0
  6 23  1  0
  7  8  2  0
  7 12  1  0
  8  9  1  0
  9 10  2  0
 10 11  1  0
 10 13  1  0
 11 12  2  0
 13 14  1  0
 14 15  1  0
 15 17  1  0
 16 20  1  0
 17 18  1  0
 18 19  1  0
 20 21  2  0
 20 24  1  0
 21 22  1  0
 22 23  2  0
  2 25  1  0
  4 26  1  0
  5 27  1  0
 11 28  1  0
 12 29  1  0
 13 30  1  0
 14 31  1  0
 14 32  1  0
 15 33  1  0
 15 34  1  0
 16 35  1  0
 17 36  1  0
 18 37  1  0
 18 38  1  0
 19 39  1  0
 19 40  1  0
 21 41  1  0
 22 42  1  0
 23 43  1  0
A    1
N01
A    2
C02
A    3
N03
A    4
C04
A    5
C05
A    6
C1'
A    7
N11
A    8
C12
A    9
N13
A   10
C14
A   11
C15
A   12
C16
A   13
N17
A   14
C18
A   15
C19
A   16
C2'
A   17
N20
A   18
C21
A   19
C22
A   20
C3'
A   21
C4'
A   22
C5'
A   23
C6'
A   24
F7'
M  END
