4D3O_S97_A_904
     RDKit          3D

 56 59  0  0  0  0  0  0  0  0999 V2000
    2.7850   19.7870   23.3600 C   0  0  0  0  0  0  0  0  0  0  0  0
    2.9130   18.5740   24.0240 C   0  0  0  0  0  0  0  0  0  0  0  0
    3.6540   17.5220   23.4860 C   0  0  0  0  0  0  0  0  0  0  0  0
    2.2830   18.4330   25.2490 C   0  0  0  0  0  0  0  0  0  0  0  0
    2.4030   17.2380   25.9260 C   0  0  0  0  0  0  0  0  0  0  0  0
    1.7900   17.1250   27.1100 N   0  0  0  0  0  0  0  0  0  0  0  0
    3.1290   16.2280   25.3960 N   0  0  0  0  0  0  0  0  0  0  0  0
    3.7670   16.3300   24.2050 C   0  0  0  0  0  0  0  0  0  0  0  0
    4.4840   15.2360   23.6690 C   0  0  0  0  0  0  0  0  0  0  0  0
    5.9710   15.1690   24.0680 C   0  0  0  0  0  0  0  0  0  0  0  0
    6.6570   14.0480   23.5180 C   0  0  0  0  0  0  0  0  0  0  0  0
    6.3390   12.7240   23.8790 C   0  0  0  0  0  0  0  0  0  0  0  0
    7.6970   14.2580   22.6060 C   0  0  0  0  0  0  0  0  0  0  0  0
    8.3990   13.1740   22.0700 C   0  0  0  0  0  0  0  0  0  0  0  0
    9.4400   13.3620   21.1470 C   0  0  0  0  0  0  0  0  0  0  0  0
    9.1660   12.6880   19.8610 N   0  0  0  0  0  0  0  0  0  0  0  0
    8.0670   11.8780   22.4540 C   0  0  0  0  0  0  0  0  0  0  0  0
    7.0510   11.6240   23.3780 C   0  0  0  0  0  0  0  0  0  0  0  0
    6.7150   10.2750   23.7060 C   0  0  0  0  0  0  0  0  0  0  0  0
    7.4270    9.3800   22.6810 C   0  0  0  0  0  0  0  0  0  0  0  0
    7.2010    7.9980   22.6050 C   0  0  0  0  0  0  0  0  0  0  0  0
    5.9680    7.5160   22.3640 N   0  0  0  0  0  0  0  0  0  0  0  0
    5.7590    6.1960   22.2190 C   0  0  0  0  0  0  0  0  0  0  0  0
    4.6440    5.5000   22.0120 N   0  0  0  0  0  0  0  0  0  0  0  0
    4.9630    4.2080   21.9370 C   0  0  0  0  0  0  0  0  0  0  0  0
    6.2800    4.1000   22.0980 C   0  0  0  0  0  0  0  0  0  0  0  0
    6.7720    5.3260   22.2760 C   0  0  0  0  0  0  0  0  0  0  0  0
    8.0150    5.7500   22.4810 C   0  0  0  0  0  0  0  0  0  0  0  0
    8.2670    7.1070   22.6310 C   0  0  0  0  0  0  0  0  0  0  0  0
    2.6992   20.6004   24.0956 H   0  0  0  0  0  0  0  0  0  0  0  0
    3.6704   19.9550   22.7293 H   0  0  0  0  0  0  0  0  0  0  0  0
    1.8840   19.7665   22.7293 H   0  0  0  0  0  0  0  0  0  0  0  0
    4.1437   17.6299   22.5069 H   0  0  0  0  0  0  0  0  0  0  0  0
    1.6966   19.2606   25.6748 H   0  0  0  0  0  0  0  0  0  0  0  0
    2.3303   17.2246   27.9812 H   0  0  0  0  0  0  0  0  0  0  0  0
    0.7778   16.9384   27.1502 H   0  0  0  0  0  0  0  0  0  0  0  0
    3.9978   14.3101   24.0102 H   0  0  0  0  0  0  0  0  0  0  0  0
    4.4659   15.3641   22.5766 H   0  0  0  0  0  0  0  0  0  0  0  0
    6.4670   16.0865   23.7185 H   0  0  0  0  0  0  0  0  0  0  0  0
    6.0080   15.0658   25.1625 H   0  0  0  0  0  0  0  0  0  0  0  0
    5.5063   12.5471   24.5756 H   0  0  0  0  0  0  0  0  0  0  0  0
    7.9642   15.2828   22.3086 H   0  0  0  0  0  0  0  0  0  0  0  0
    9.5627   14.4398   20.9643 H   0  0  0  0  0  0  0  0  0  0  0  0
   10.3553   12.9246   21.5724 H   0  0  0  0  0  0  0  0  0  0  0  0
    8.7840   11.7484   20.0404 H   0  0  0  0  0  0  0  0  0  0  0  0
    8.4824   13.2396   19.3231 H   0  0  0  0  0  0  0  0  0  0  0  0
    8.6190   11.0321   22.0185 H   0  0  0  0  0  0  0  0  0  0  0  0
    7.0598   10.0351   24.7227 H   0  0  0  0  0  0  0  0  0  0  0  0
    5.6263   10.1206   23.6768 H   0  0  0  0  0  0  0  0  0  0  0  0
    7.1728    9.7865   21.6910 H   0  0  0  0  0  0  0  0  0  0  0  0
    8.4693    9.4203   23.0303 H   0  0  0  0  0  0  0  0  0  0  0  0
    3.6958    5.8927   21.9246 H   0  0  0  0  0  0  0  0  0  0  0  0
    4.2614    3.3772   21.7712 H   0  0  0  0  0  0  0  0  0  0  0  0
    6.8594    3.1650   22.0862 H   0  0  0  0  0  0  0  0  0  0  0  0
    8.8425    5.0270   22.5317 H   0  0  0  0  0  0  0  0  0  0  0  0
    9.2957    7.4716   22.7684 H   0  0  0  0  0  0  0  0  0  0  0  0
  1  2  1  0
  2  3  2  0
  2  4  1  0
  3  8  1  0
  4  5  2  0
  5  6  1  0
  5  7  1  0
  7  8  2  0
  8  9  1  0
  9 10  1  0
 10 11  1  0
 11 12  2  0
 11 13  1  0
 12 18  1  0
 13 14  2  0
 14 15  1  0
 14 17  1  0
 15 16  1  0
 17 18  2  0
 18 19  1  0
 19 20  1  0
 20 21  1  0
 21 22  2  0
 21 29  1  0
 22 23  1  0
 23 24  1  0
 23 27  2  0
 24 25  1  0
 25 26  2  0
 26 27  1  0
 27 28  1  0
 28 29  2  0
  1 30  1  0
  1 31  1  0
  1 32  1  0
  3 33  1  0
  4 34  1  0
  6 35  1  0
  6 36  1  0
  9 37  1  0
  9 38  1  0
 10 39  1  0
 10 40  1  0
 12 41  1  0
 13 42  1  0
 15 43  1  0
 15 44  1  0
 16 45  1  0
 16 46  1  0
 17 47  1  0
 19 48  1  0
 19 49  1  0
 20 50  1  0
 20 51  1  0
 24 52  1  0
 25 53  1  0
 26 54  1  0
 28 55  1  0
 29 56  1  0
A    1
C29
A    2
C26
A    3
C27
A    4
C25
A    5
C24
A    6
N28
A    7
N23
A    8
C22
A    9
C21
A   10
C20
A   11
C16
A   12
C17
A   13
C15
A   14
C14
A   15
C18
A   16
N19
A   17
C13
A   18
C12
A   19
C11
A   20
C10
A   21
C07
A   22
N06
A   23
C05
A   24
N01
A   25
C02
A   26
C03
A   27
C04
A   28
C09
A   29
C08
M  END
