5I9L_9W7_A_302
     RDKit          3D

 32 33  0  0  0  0  0  0  0  0999 V2000
    7.5110   14.9440  -11.6850 C   0  0  0  0  0  0  0  0  0  0  0  0
   10.5210   15.4660  -13.4350 F   0  0  0  0  0  0  0  0  0  0  0  0
    7.9820   12.6260  -21.1410 N   0  0  0  0  0  0  0  0  0  0  0  0
    8.8930   10.3480  -14.5550 O   0  0  0  0  0  0  0  0  0  0  0  0
   11.7740   10.3170  -18.5790 Cl  0  0  0  0  0  0  0  0  0  0  0  0
    8.8350   14.2570  -11.5900 C   0  0  0  0  0  0  0  0  0  0  0  0
   10.5460   11.6120  -16.2760 O   0  0  0  0  0  0  0  0  0  0  0  0
    9.2950   13.5590  -12.8250 C   0  0  0  0  0  0  0  0  0  0  0  0
    8.5840   12.4600  -22.1910 O   0  0  0  0  0  0  0  0  0  0  0  0
    8.8730   12.2640  -13.1000 C   0  0  0  0  0  0  0  0  0  0  0  0
    6.8250   13.0000  -21.1810 O   0  0  0  0  0  0  0  0  0  0  0  0
    9.2970   11.6320  -14.2620 C   0  0  0  0  0  0  0  0  0  0  0  0
   10.1320   12.2920  -15.1520 C   0  0  0  0  0  0  0  0  0  0  0  0
    9.8790   11.8940  -17.4470 C   0  0  0  0  0  0  0  0  0  0  0  0
    8.7490   12.7030  -17.4860 C   0  0  0  0  0  0  0  0  0  0  0  0
    8.1220   12.9410  -18.7040 C   0  0  0  0  0  0  0  0  0  0  0  0
    8.6200   12.3820  -19.8800 C   0  0  0  0  0  0  0  0  0  0  0  0
    9.7430   11.5730  -19.8330 C   0  0  0  0  0  0  0  0  0  0  0  0
   10.3670   11.3270  -18.6200 C   0  0  0  0  0  0  0  0  0  0  0  0
   10.5580   13.5870  -14.8760 C   0  0  0  0  0  0  0  0  0  0  0  0
   10.1340   14.2220  -13.7120 C   0  0  0  0  0  0  0  0  0  0  0  0
    7.1277   15.1429  -10.6733 H   0  0  0  0  0  0  0  0  0  0  0  0
    7.6291   15.8946  -12.2258 H   0  0  0  0  0  0  0  0  0  0  0  0
    6.8018   14.3001  -12.2258 H   0  0  0  0  0  0  0  0  0  0  0  0
    8.6931    9.7127  -13.8225 H   0  0  0  0  0  0  0  0  0  0  0  0
    9.5897   15.0136  -11.3292 H   0  0  0  0  0  0  0  0  0  0  0  0
    8.7091   13.4700  -10.8318 H   0  0  0  0  0  0  0  0  0  0  0  0
    8.2052   11.7409  -12.3997 H   0  0  0  0  0  0  0  0  0  0  0  0
    8.3546   13.1506  -16.5618 H   0  0  0  0  0  0  0  0  0  0  0  0
    7.2247   13.5763  -18.7400 H   0  0  0  0  0  0  0  0  0  0  0  0
   10.1392   11.1263  -20.7569 H   0  0  0  0  0  0  0  0  0  0  0  0
   11.2281   14.1080  -15.5756 H   0  0  0  0  0  0  0  0  0  0  0  0
  1  6  1  0
  2 21  1  0
  3  9  2  0
  3 11  1  0
  3 17  1  0
  4 12  1  0
  5 19  1  0
  6  8  1  0
  7 13  1  0
  7 14  1  0
  8 10  2  0
  8 21  1  0
 10 12  1  0
 12 13  2  0
 13 20  1  0
 14 15  2  0
 14 19  1  0
 15 16  1  0
 16 17  2  0
 17 18  1  0
 18 19  2  0
 20 21  2  0
  1 22  1  0
  1 23  1  0
  1 24  1  0
  4 25  1  0
  6 26  1  0
  6 27  1  0
 10 28  1  0
 15 29  1  0
 16 30  1  0
 18 31  1  0
 20 32  1  0
M  CHG  2   3   1  11  -1
A    1
C
A    2
F
A    3
N
A    4
O
A    5
CL
A    6
C1
A    7
O1
A    8
C2
A    9
O2
A   10
C3
A   11
O3
A   12
C4
A   13
C5
A   14
C6
A   15
C7
A   16
C8
A   17
C9
A   18
C10
A   19
C11
A   20
C12
A   21
C13
M  END
