4D4V_KB8_B_1691
     RDKit          3D

 37 39  0  0  0  0  0  0  0  0999 V2000
   18.9480    9.5070   77.4020 F   0  0  0  0  0  0  0  0  0  0  0  0
   17.8890    8.9310   78.0580 C   0  0  0  0  0  0  0  0  0  0  0  0
   18.2410    8.6200   79.3710 F   0  0  0  0  0  0  0  0  0  0  0  0
   17.4760    7.7370   77.3710 F   0  0  0  0  0  0  0  0  0  0  0  0
   16.8590    9.8670   78.1210 C   0  0  0  0  0  0  0  0  0  0  0  0
   15.5300    9.4770   78.3130 C   0  0  0  0  0  0  0  0  0  0  0  0
   17.1810   11.1630   78.0120 N   0  0  0  0  0  0  0  0  0  0  0  0
   16.2380   12.1070   78.0650 C   0  0  0  0  0  0  0  0  0  0  0  0
   16.6670   13.4190   77.9290 C   0  0  0  0  0  0  0  0  0  0  0  0
   15.7430   14.4510   77.9820 C   0  0  0  0  0  0  0  0  0  0  0  0
   14.3940   14.1640   78.1800 C   0  0  0  0  0  0  0  0  0  0  0  0
   13.4870   15.2210   78.2290 C   0  0  0  0  0  0  0  0  0  0  0  0
   13.9600   12.8420   78.3190 C   0  0  0  0  0  0  0  0  0  0  0  0
   14.8800   11.7870   78.2650 C   0  0  0  0  0  0  0  0  0  0  0  0
   14.5050   10.4280   78.3950 C   0  0  0  0  0  0  0  0  0  0  0  0
   13.2340    9.9540   78.5680 N   0  0  0  0  0  0  0  0  0  0  0  0
   12.9710    8.8450   79.5330 C   0  0  0  0  0  0  0  0  0  0  0  0
   11.5390    8.8520   80.0790 C   0  0  0  0  0  0  0  0  0  0  0  0
   10.5600    9.0480   78.9920 N   0  0  0  0  0  0  0  0  0  0  0  0
   10.7580   10.3550   78.3860 C   0  0  0  0  0  0  0  0  0  0  0  0
   12.1120   10.3210   77.6450 C   0  0  0  0  0  0  0  0  0  0  0  0
   15.2860    8.4080   78.4009 H   0  0  0  0  0  0  0  0  0  0  0  0
   17.7344   13.6393   77.7799 H   0  0  0  0  0  0  0  0  0  0  0  0
   16.0739   15.4938   77.8680 H   0  0  0  0  0  0  0  0  0  0  0  0
   13.2721   15.4714   79.2783 H   0  0  0  0  0  0  0  0  0  0  0  0
   13.9181   16.0978   77.7237 H   0  0  0  0  0  0  0  0  0  0  0  0
   12.5549   14.9281   77.7237 H   0  0  0  0  0  0  0  0  0  0  0  0
   12.8915   12.6296   78.4714 H   0  0  0  0  0  0  0  0  0  0  0  0
   13.1464    7.8869   79.0219 H   0  0  0  0  0  0  0  0  0  0  0  0
   13.6492    8.9853   80.3876 H   0  0  0  0  0  0  0  0  0  0  0  0
   11.3383    7.8909   80.5750 H   0  0  0  0  0  0  0  0  0  0  0  0
   11.4403    9.6823   80.7938 H   0  0  0  0  0  0  0  0  0  0  0  0
   10.6891    8.3164   78.2786 H   0  0  0  0  0  0  0  0  0  0  0  0
    9.9457   10.5666   77.6751 H   0  0  0  0  0  0  0  0  0  0  0  0
   10.7554   11.1430   79.1535 H   0  0  0  0  0  0  0  0  0  0  0  0
   12.3109   11.3151   77.2181 H   0  0  0  0  0  0  0  0  0  0  0  0
   12.0532    9.5595   76.8533 H   0  0  0  0  0  0  0  0  0  0  0  0
  1  2  1  0
  2  3  1  0
  2  4  1  0
  2  5  1  0
  5  6  2  0
  5  7  1  0
  6 15  1  0
  7  8  2  0
  8  9  1  0
  8 14  1  0
  9 10  2  0
 10 11  1  0
 11 12  1  0
 11 13  2  0
 13 14  1  0
 14 15  2  0
 15 16  1  0
 16 17  1  0
 16 21  1  0
 17 18  1  0
 18 19  1  0
 19 20  1  0
 20 21  1  0
  6 22  1  0
  9 23  1  0
 10 24  1  0
 12 25  1  0
 12 26  1  0
 12 27  1  0
 13 28  1  0
 17 29  1  0
 17 30  1  0
 18 31  1  0
 18 32  1  0
 19 33  1  0
 20 34  1  0
 20 35  1  0
 21 36  1  0
 21 37  1  0
A    1
FAB
A    2
CAU
A    3
FAC
A    4
FAD
A    5
CAP
A    6
CAG
A    7
NAM
A    8
CAR
A    9
CAF
A   10
CAE
A   11
CAO
A   12
CAA
A   13
CAH
A   14
CAS
A   15
CAQ
A   16
NAT
A   17
CAK
A   18
CAI
A   19
NAN
A   20
CAJ
A   21
CAL
M  END
