4D8N_0HM_A_301
     RDKit          3D

 55 58  0  0  0  0  0  0  0  0999 V2000
   25.5300   10.9030   35.8850 C   0  0  0  0  0  0  0  0  0  0  0  0
   25.6900   12.2830   35.7850 C   0  0  0  0  0  0  0  0  0  0  0  0
   25.6770   12.8960   34.5360 C   0  0  0  0  0  0  0  0  0  0  0  0
   25.5060   12.1280   33.3870 C   0  0  0  0  0  0  0  0  0  0  0  0
   25.3480   10.7510   33.4870 C   0  0  0  0  0  0  0  0  0  0  0  0
   25.3570   10.1350   34.7380 C   0  0  0  0  0  0  0  0  0  0  0  0
   25.1490    8.6250   34.8600 C   0  0  0  0  0  0  0  0  0  0  0  0
   25.5970    7.9310   33.6370 N   0  0  0  0  0  0  0  0  0  0  0  0
   24.8420    7.7530   32.5620 C   0  0  0  0  0  0  0  0  0  0  0  0
   25.5950    7.1170   31.6680 C   0  0  0  0  0  0  0  0  0  0  0  0
   26.7960    6.9110   32.2060 N   0  0  0  0  0  0  0  0  0  0  0  0
   26.8040    7.4150   33.4340 C   0  0  0  0  0  0  0  0  0  0  0  0
   27.9930    7.3870   34.4060 C   0  0  0  0  0  0  0  0  0  0  0  0
   27.9750    6.1730   35.2520 N   0  0  0  0  0  0  0  0  0  0  0  0
   28.1990    4.9170   34.6670 C   0  0  0  0  0  0  0  0  0  0  0  0
   28.1630    3.7690   35.4450 C   0  0  0  0  0  0  0  0  0  0  0  0
   27.9020    3.8700   36.8120 C   0  0  0  0  0  0  0  0  0  0  0  0
   27.6810    5.1080   37.4010 C   0  0  0  0  0  0  0  0  0  0  0  0
   27.4060    5.1730   38.7350 O   0  0  0  0  0  0  0  0  0  0  0  0
   27.7220    6.2660   36.6340 C   0  0  0  0  0  0  0  0  0  0  0  0
   27.5930    7.6370   37.3010 C   0  0  0  0  0  0  0  0  0  0  0  0
   28.4160    8.5240   37.0580 O   0  0  0  0  0  0  0  0  0  0  0  0
   26.5640    7.7660   38.1320 N   0  0  0  0  0  0  0  0  0  0  0  0
   26.2340    8.8960   38.7660 C   0  0  0  0  0  0  0  0  0  0  0  0
   24.9530    9.0070   39.2900 C   0  0  0  0  0  0  0  0  0  0  0  0
   24.5410   10.1910   39.9060 C   0  0  0  0  0  0  0  0  0  0  0  0
   27.1090    9.9730   38.8620 C   0  0  0  0  0  0  0  0  0  0  0  0
   26.7010   11.1570   39.4790 C   0  0  0  0  0  0  0  0  0  0  0  0
   25.4180   11.2640   39.9980 C   0  0  0  0  0  0  0  0  0  0  0  0
   24.9750   12.5780   40.6570 C   0  0  0  0  0  0  0  0  0  0  0  0
   23.7750   12.3630   41.4760 N   0  0  0  0  0  0  0  0  0  0  0  0
   25.5405   10.4194   36.8729 H   0  0  0  0  0  0  0  0  0  0  0  0
   25.8266   12.8882   36.6934 H   0  0  0  0  0  0  0  0  0  0  0  0
   25.8017   13.9860   34.4563 H   0  0  0  0  0  0  0  0  0  0  0  0
   25.4960   12.6119   32.3992 H   0  0  0  0  0  0  0  0  0  0  0  0
   25.2156   10.1460   32.5779 H   0  0  0  0  0  0  0  0  0  0  0  0
   24.0800    8.4204   35.0190 H   0  0  0  0  0  0  0  0  0  0  0  0
   25.7415    8.2563   35.7103 H   0  0  0  0  0  0  0  0  0  0  0  0
   23.7963    8.0695   32.4339 H   0  0  0  0  0  0  0  0  0  0  0  0
   25.2800    6.8137   30.6587 H   0  0  0  0  0  0  0  0  0  0  0  0
   28.9281    7.4051   33.8271 H   0  0  0  0  0  0  0  0  0  0  0  0
   27.9215    8.2661   35.0633 H   0  0  0  0  0  0  0  0  0  0  0  0
   28.4036    4.8427   33.5888 H   0  0  0  0  0  0  0  0  0  0  0  0
   28.3392    2.7846   34.9868 H   0  0  0  0  0  0  0  0  0  0  0  0
   27.8710    2.9600   37.4292 H   0  0  0  0  0  0  0  0  0  0  0  0
   28.1224    5.0037   39.3969 H   0  0  0  0  0  0  0  0  0  0  0  0
   25.9784    6.9355   38.2998 H   0  0  0  0  0  0  0  0  0  0  0  0
   24.2582    8.1571   39.2196 H   0  0  0  0  0  0  0  0  0  0  0  0
   23.5241   10.2734   40.3174 H   0  0  0  0  0  0  0  0  0  0  0  0
   28.1258    9.8915   38.4504 H   0  0  0  0  0  0  0  0  0  0  0  0
   27.3967   12.0057   39.5539 H   0  0  0  0  0  0  0  0  0  0  0  0
   25.7872   12.9542   41.2964 H   0  0  0  0  0  0  0  0  0  0  0  0
   24.7423   13.3103   39.8699 H   0  0  0  0  0  0  0  0  0  0  0  0
   24.0275   12.4082   42.4735 H   0  0  0  0  0  0  0  0  0  0  0  0
   23.0796   13.0928   41.2644 H   0  0  0  0  0  0  0  0  0  0  0  0
 10 11  1  0
 10  9  2  0
 11 12  2  0
  9  8  1  0
  4  5  2  0
  4  3  1  0
 12  8  1  0
 12 13  1  0
  5  6  1  0
  8  7  1  0
 13 14  1  0
  3  2  2  0
 15 14  2  0
 15 16  1  0
  6  7  1  0
  6  1  2  0
 14 20  1  0
 16 17  2  0
  2  1  1  0
 20 21  1  0
 20 18  2  0
 17 18  1  0
 22 21  2  0
 21 23  1  0
 18 19  1  0
 23 24  1  0
 24 27  1  0
 24 25  2  0
 27 28  2  0
 25 26  1  0
 28 29  1  0
 26 29  2  0
 29 30  1  0
 30 31  1  0
  1 32  1  0
  2 33  1  0
  3 34  1  0
  4 35  1  0
  5 36  1  0
  7 37  1  0
  7 38  1  0
  9 39  1  0
 10 40  1  0
 13 41  1  0
 13 42  1  0
 15 43  1  0
 16 44  1  0
 17 45  1  0
 19 46  1  0
 23 47  1  0
 25 48  1  0
 26 49  1  0
 27 50  1  0
 28 51  1  0
 30 52  1  0
 30 53  1  0
 31 54  1  0
 31 55  1  0
M  CHG  1  14   1
A    1
CAB
A    2
CAC
A    3
CAD
A    4
CAE
A    5
CAF
A    6
CAA
A    7
CAL
A    8
NAG
A    9
CAK
A   10
CAJ
A   11
NAI
A   12
CAH
A   13
CBD
A   14
NAN
A   15
CAM
A   16
CAQ
A   17
CAR
A   18
CAP
A   19
OBE
A   20
CAO
A   21
CAS
A   22
OAU
A   23
NAT
A   24
CAX
A   25
CAY
A   26
CAZ
A   27
CAW
A   28
CAV
A   29
CBA
A   30
CBB
A   31
NBC
M  END
