4D9T_0JG_A_900
     RDKit          3D

 50 52  0  0  0  0  0  0  0  0999 V2000
  -33.8570   14.9370  -19.9370 N   0  0  0  0  0  0  0  0  0  0  0  0
  -33.4580   14.6180  -21.2810 C   0  0  0  0  0  0  0  0  0  0  0  0
  -32.3520   13.7060  -21.5480 C   0  0  0  0  0  0  0  0  0  0  0  0
  -32.0130   13.4240  -22.9310 C   0  0  0  0  0  0  0  0  0  0  0  0
  -30.8810   12.4850  -22.9700 N   0  0  0  0  0  0  0  0  0  0  0  0
  -30.3020   12.0080  -24.2500 C   0  0  0  0  0  0  0  0  0  0  0  0
  -29.1300   12.7390  -24.8650 C   0  0  0  0  0  0  0  0  0  0  0  0
  -28.3570   11.9560  -25.8990 C   0  0  0  0  0  0  0  0  0  0  0  0
  -28.9640   11.7470  -27.1260 O   0  0  0  0  0  0  0  0  0  0  0  0
  -30.4530   12.1400  -21.5560 C   0  0  0  0  0  0  0  0  0  0  0  0
  -29.5340   11.2120  -20.7870 C   0  0  0  0  0  0  0  0  0  0  0  0
  -28.2200   11.0780  -21.4250 C   0  0  0  0  0  0  0  0  0  0  0  0
  -27.5220    9.9770  -20.6670 C   0  0  0  0  0  0  0  0  0  0  0  0
  -27.5820    8.7620  -21.0710 O   0  0  0  0  0  0  0  0  0  0  0  0
  -26.9340    7.7420  -20.3750 C   0  0  0  0  0  0  0  0  0  0  0  0
  -26.8760   10.2550  -19.6240 O   0  0  0  0  0  0  0  0  0  0  0  0
  -27.5050   12.3350  -21.4490 C   0  0  0  0  0  0  0  0  0  0  0  0
  -26.9620   13.3000  -21.4320 N   0  0  0  0  0  0  0  0  0  0  0  0
  -31.3680   12.9470  -20.7160 C   0  0  0  0  0  0  0  0  0  0  0  0
  -31.2920   12.8420  -19.2250 C   0  0  0  0  0  0  0  0  0  0  0  0
  -32.2980   12.0590  -18.5080 C   0  0  0  0  0  0  0  0  0  0  0  0
  -32.1980   11.9300  -17.0610 C   0  0  0  0  0  0  0  0  0  0  0  0
  -31.1420   12.5330  -16.3700 C   0  0  0  0  0  0  0  0  0  0  0  0
  -31.0730   12.4000  -14.9190 C   0  0  0  0  0  0  0  0  0  0  0  0
  -30.0990   13.3210  -17.0990 C   0  0  0  0  0  0  0  0  0  0  0  0
  -30.1990   13.4490  -18.5140 C   0  0  0  0  0  0  0  0  0  0  0  0
  -32.7320   14.0090  -23.9600 N   0  0  0  0  0  0  0  0  0  0  0  0
  -33.7970   14.8830  -23.6690 C   0  0  0  0  0  0  0  0  0  0  0  0
  -34.1480   15.1790  -22.3630 N   0  0  0  0  0  0  0  0  0  0  0  0
  -33.3487   14.5306  -19.1387 H   0  0  0  0  0  0  0  0  0  0  0  0
  -34.6512   15.5719  -19.7725 H   0  0  0  0  0  0  0  0  0  0  0  0
  -30.7245   11.1243  -24.7506 H   0  0  0  0  0  0  0  0  0  0  0  0
  -28.8601   13.7665  -24.5798 H   0  0  0  0  0  0  0  0  0  0  0  0
  -28.1363   10.9684  -25.4677 H   0  0  0  0  0  0  0  0  0  0  0  0
  -27.4777   12.5779  -26.1228 H   0  0  0  0  0  0  0  0  0  0  0  0
  -29.8906   11.4280  -26.9857 H   0  0  0  0  0  0  0  0  0  0  0  0
  -29.3955   11.6122  -19.7718 H   0  0  0  0  0  0  0  0  0  0  0  0
  -30.0014   10.2165  -20.7652 H   0  0  0  0  0  0  0  0  0  0  0  0
  -28.2910   10.8117  -22.4899 H   0  0  0  0  0  0  0  0  0  0  0  0
  -27.0412    7.9107  -19.2933 H   0  0  0  0  0  0  0  0  0  0  0  0
  -27.3829    6.7737  -20.6413 H   0  0  0  0  0  0  0  0  0  0  0  0
  -25.8667    7.7370  -20.6413 H   0  0  0  0  0  0  0  0  0  0  0  0
  -33.1198   11.5737  -19.0549 H   0  0  0  0  0  0  0  0  0  0  0  0
  -32.9565   11.3557  -16.5088 H   0  0  0  0  0  0  0  0  0  0  0  0
  -31.5307   13.2823  -14.4478 H   0  0  0  0  0  0  0  0  0  0  0  0
  -31.6154   11.4951  -14.6075 H   0  0  0  0  0  0  0  0  0  0  0  0
  -30.0209   12.3223  -14.6075 H   0  0  0  0  0  0  0  0  0  0  0  0
  -29.2698   13.7930  -16.5516 H   0  0  0  0  0  0  0  0  0  0  0  0
  -29.4353   14.0158  -19.0667 H   0  0  0  0  0  0  0  0  0  0  0  0
  -34.3611   15.3395  -24.4956 H   0  0  0  0  0  0  0  0  0  0  0  0
  9  8  1  0
  8  7  1  0
  7  6  2  0
  6  5  1  0
 27 28  2  0
 27  4  1  0
 28 29  1  0
  5  4  1  0
  5 10  1  0
  4  3  2  0
 29  2  2  0
 10 11  1  0
 10 19  2  0
  3  2  1  0
  3 19  1  0
 17 18  3  0
 17 12  1  0
 12 11  1  0
 12 13  1  0
  2  1  1  0
 14 13  1  0
 14 15  1  0
 19 20  1  0
 13 16  2  0
 20 26  1  0
 20 21  2  0
 26 25  2  0
 21 22  1  0
 25 23  1  0
 22 23  2  0
 23 24  1  0
  1 30  1  0
  1 31  1  0
  6 32  1  0
  7 33  1  0
  8 34  1  0
  8 35  1  0
  9 36  1  0
 11 37  1  0
 11 38  1  0
 12 39  1  0
 15 40  1  0
 15 41  1  0
 15 42  1  0
 21 43  1  0
 22 44  1  0
 24 45  1  0
 24 46  1  0
 24 47  1  0
 25 48  1  0
 26 49  1  0
 28 50  1  0
A    1
N01
A    2
C02
A    3
C03
A    4
C04
A    5
N05
A    6
C06
A    7
C07
A    8
C08
A    9
O09
A   10
C10
A   11
C11
A   12
C12
A   13
C13
A   14
O14
A   15
C15
A   16
O16
A   17
C17
A   18
N18
A   19
C19
A   20
C20
A   21
C21
A   22
C22
A   23
C23
A   24
C24
A   25
C25
A   26
C26
A   27
N27
A   28
C28
A   29
N29
M  END
