4DA5_0H7_A_502
     RDKit          3D

 39 42  0  0  0  0  0  0  0  0999 V2000
  -10.2100  -12.7890    7.1080 O   0  0  0  0  0  0  0  0  0  0  0  0
  -10.8920  -13.9480    6.6050 C   0  0  0  0  0  0  0  0  0  0  0  0
  -10.8120  -14.0220    5.0430 C   0  0  0  0  0  0  0  0  0  0  0  0
  -11.2320  -12.6860    4.4020 C   0  0  0  0  0  0  0  0  0  0  0  0
  -10.1060  -12.1440    3.6070 N   0  0  0  0  0  0  0  0  0  0  0  0
   -8.9150  -11.9230    4.4600 C   0  0  0  0  0  0  0  0  0  0  0  0
   -8.3790  -13.2850    4.9510 C   0  0  0  0  0  0  0  0  0  0  0  0
   -9.3740  -14.3930    4.5360 C   0  0  0  0  0  0  0  0  0  0  0  0
   -9.3990  -14.4350    2.9930 C   0  0  0  0  0  0  0  0  0  0  0  0
   -9.7750  -13.0310    2.4680 C   0  0  0  0  0  0  0  0  0  0  0  0
  -10.3080  -15.1820    7.1840 C   0  0  0  0  0  0  0  0  0  0  0  0
  -10.5590  -16.4160    6.7440 C   0  0  0  0  0  0  0  0  0  0  0  0
   -9.9680  -17.4180    7.4730 C   0  0  0  0  0  0  0  0  0  0  0  0
   -9.3000  -17.0010    8.5380 C   0  0  0  0  0  0  0  0  0  0  0  0
   -8.4790  -18.0310    9.6440 Cl  0  0  0  0  0  0  0  0  0  0  0  0
   -9.3540  -15.2490    8.6460 S   0  0  0  0  0  0  0  0  0  0  0  0
  -12.3220  -13.9020    7.1000 C   0  0  0  0  0  0  0  0  0  0  0  0
  -12.7100  -13.4440    8.2990 C   0  0  0  0  0  0  0  0  0  0  0  0
  -14.0670  -13.5230    8.5470 C   0  0  0  0  0  0  0  0  0  0  0  0
  -14.7770  -14.1210    7.5830 C   0  0  0  0  0  0  0  0  0  0  0  0
  -16.5060  -14.3680    7.5850 Cl  0  0  0  0  0  0  0  0  0  0  0  0
  -13.7050  -14.5880    6.2740 S   0  0  0  0  0  0  0  0  0  0  0  0
  -10.2191  -12.8044    8.0978 H   0  0  0  0  0  0  0  0  0  0  0  0
  -11.5077  -14.8183    4.7397 H   0  0  0  0  0  0  0  0  0  0  0  0
  -12.0987  -12.8510    3.7450 H   0  0  0  0  0  0  0  0  0  0  0  0
  -11.5016  -11.9693    5.1917 H   0  0  0  0  0  0  0  0  0  0  0  0
   -8.1358  -11.4100    3.8772 H   0  0  0  0  0  0  0  0  0  0  0  0
   -9.1915  -11.3023    5.3251 H   0  0  0  0  0  0  0  0  0  0  0  0
   -7.3969  -13.4812    4.4961 H   0  0  0  0  0  0  0  0  0  0  0  0
   -8.2717  -13.2709    6.0457 H   0  0  0  0  0  0  0  0  0  0  0  0
   -9.0720  -15.3609    4.9625 H   0  0  0  0  0  0  0  0  0  0  0  0
   -8.4062  -14.7189    2.6138 H   0  0  0  0  0  0  0  0  0  0  0  0
  -10.1366  -15.1750    2.6489 H   0  0  0  0  0  0  0  0  0  0  0  0
  -10.6466  -13.1111    1.8017 H   0  0  0  0  0  0  0  0  0  0  0  0
   -8.9236  -12.6094    1.9136 H   0  0  0  0  0  0  0  0  0  0  0  0
  -11.1903  -16.6152    5.8655 H   0  0  0  0  0  0  0  0  0  0  0  0
  -10.0431  -18.4798    7.1955 H   0  0  0  0  0  0  0  0  0  0  0  0
  -11.9993  -13.0349    9.0322 H   0  0  0  0  0  0  0  0  0  0  0  0
  -14.5271  -13.1259    9.4639 H   0  0  0  0  0  0  0  0  0  0  0  0
 21 20  1  0
 19 20  2  0
 19 18  1  0
 20 22  1  0
 18 17  2  0
 22 17  1  0
 17  2  1  0
 16 14  1  0
 16 11  1  0
 15 14  1  0
  1  2  1  0
 14 13  2  0
  2 11  1  0
  2  3  1  0
 11 12  2  0
 13 12  1  0
  4  3  1  0
  4  5  1  0
  3  8  1  0
  6  5  1  0
  6  7  1  0
  5 10  1  0
  7  8  1  0
  8  9  1  0
 10  9  1  0
  1 23  1  0
  3 24  1  0
  4 25  1  0
  4 26  1  0
  6 27  1  0
  6 28  1  0
  7 29  1  0
  7 30  1  0
  8 31  1  0
  9 32  1  0
  9 33  1  0
 10 34  1  0
 10 35  1  0
 12 36  1  0
 13 37  1  0
 18 38  1  0
 19 39  1  0
A    1
O1
A    2
C2
A    3
C3
A    4
C4
A    5
N5
A    6
C6
A    7
C7
A    8
C8
A    9
C9
A   10
C10
A   11
C11
A   12
C12
A   13
C13
A   14
C14
A   15
CL1
A   16
S16
A   17
C17
A   18
C18
A   19
C19
A   20
C20
A   21
CL2
A   22
S22
M  END
