4DAE_6CR_A_301
     RDKit          3D

 32 34  0  0  0  0  0  0  0  0999 V2000
  -52.2760   22.1160   25.5680 N   0  0  0  0  0  0  0  0  0  0  0  0
  -52.0670   22.5060   24.3040 C   0  0  0  0  0  0  0  0  0  0  0  0
  -51.4340   21.6940   23.4050 N   0  0  0  0  0  0  0  0  0  0  0  0
  -50.9760   20.4620   23.7440 C   0  0  0  0  0  0  0  0  0  0  0  0
  -51.1980   19.9930   25.1190 C   0  0  0  0  0  0  0  0  0  0  0  0
  -51.8870   20.9130   26.0270 C   0  0  0  0  0  0  0  0  0  0  0  0
  -50.6930   18.7640   25.2140 N   0  0  0  0  0  0  0  0  0  0  0  0
  -50.1760   18.4480   23.9980 C   0  0  0  0  0  0  0  0  0  0  0  0
  -50.3690   19.4520   23.1200 N   0  0  0  0  0  0  0  0  0  0  0  0
  -49.8760   19.4130   21.7490 C   0  0  0  0  0  0  0  0  0  0  0  0
  -52.1560   20.4710   27.7470 Cl  0  0  0  0  0  0  0  0  0  0  0  0
  -50.4240   20.5200   20.8610 C   0  0  0  0  0  0  0  0  0  0  0  0
  -51.1470   19.9720   19.7560 O   0  0  0  0  0  0  0  0  0  0  0  0
  -52.5080   23.7370   23.9690 N   0  0  0  0  0  0  0  0  0  0  0  0
  -49.2140   21.2820   20.3760 C   0  0  0  0  0  0  0  0  0  0  0  0
  -48.7890   20.6270   19.1750 O   0  0  0  0  0  0  0  0  0  0  0  0
  -48.1200   21.0030   21.3980 C   0  0  0  0  0  0  0  0  0  0  0  0
  -48.5300   19.8020   22.0680 O   0  0  0  0  0  0  0  0  0  0  0  0
  -47.9280   22.1380   22.4040 C   0  0  0  0  0  0  0  0  0  0  0  0
  -46.9040   21.7850   23.3360 O   0  0  0  0  0  0  0  0  0  0  0  0
  -49.6686   17.5010   23.7621 H   0  0  0  0  0  0  0  0  0  0  0  0
  -50.0942   18.4742   21.2188 H   0  0  0  0  0  0  0  0  0  0  0  0
  -51.1253   21.1683   21.4067 H   0  0  0  0  0  0  0  0  0  0  0  0
  -51.8888   19.4098   20.0932 H   0  0  0  0  0  0  0  0  0  0  0  0
  -52.7509   24.4151   24.7053 H   0  0  0  0  0  0  0  0  0  0  0  0
  -52.6016   23.9983   22.9771 H   0  0  0  0  0  0  0  0  0  0  0  0
  -49.4141   22.3540   20.2319 H   0  0  0  0  0  0  0  0  0  0  0  0
  -48.2651   19.8196   19.4071 H   0  0  0  0  0  0  0  0  0  0  0  0
  -47.1466   20.9047   20.8951 H   0  0  0  0  0  0  0  0  0  0  0  0
  -47.6369   23.0548   21.8703 H   0  0  0  0  0  0  0  0  0  0  0  0
  -48.8704   22.3099   22.9447 H   0  0  0  0  0  0  0  0  0  0  0  0
  -47.2431   21.9019   24.2588 H   0  0  0  0  0  0  0  0  0  0  0  0
  2  1  2  0
  1  6  1  0
  3  2  1  0
 14  2  1  0
  3  4  2  0
  9  4  1  0
  4  5  1  0
  5  7  1  0
  5  6  2  0
  6 11  1  0
  8  7  2  0
  9  8  1  0
 10  9  1  0
 12 10  1  0
 10 18  1  0
 13 12  1  0
 15 12  1  0
 16 15  1  0
 15 17  1  0
 17 18  1  0
 17 19  1  0
 19 20  1  0
  8 21  1  0
 10 22  1  0
 12 23  1  0
 13 24  1  0
 14 25  1  0
 14 26  1  0
 15 27  1  0
 16 28  1  0
 17 29  1  0
 19 30  1  0
 19 31  1  0
 20 32  1  0
A    1
N1
A    2
C2
A    3
N3
A    4
C4
A    5
C5
A    6
C6
A    7
N7
A    8
C8
A    9
N9
A   10
C1'
A   11
CL1
A   12
C2'
A   13
O2'
A   14
N20
A   15
C3'
A   16
O3'
A   17
C4'
A   18
O4'
A   19
C5'
A   20
O5'
M  END
