1EQA_MG7_A_600
     RDKit          3D

 37 39  0  0  0  0  0  0  0  0999 V2000
   16.4460   12.0020   22.8010 N   0  0  0  0  0  0  0  0  0  0  0  0
   15.6940   13.0580   23.2270 C   0  0  0  0  0  0  0  0  0  0  0  0
   15.8730   14.1410   22.5550 N   0  0  0  0  0  0  0  0  0  0  0  0
   16.8220   13.7960   21.6120 C   0  0  0  0  0  0  0  0  0  0  0  0
   17.4060   14.5860   20.6030 C   0  0  0  0  0  0  0  0  0  0  0  0
   17.1770   15.7610   20.3510 O   0  0  0  0  0  0  0  0  0  0  0  0
   18.3230   13.8770   19.8630 N   0  0  0  0  0  0  0  0  0  0  0  0
   18.6590   12.5490   20.0470 C   0  0  0  0  0  0  0  0  0  0  0  0
   19.5660   12.0280   19.2200 N   0  0  0  0  0  0  0  0  0  0  0  0
   18.0980   11.7990   21.0060 N   0  0  0  0  0  0  0  0  0  0  0  0
   17.1900   12.4840   21.7490 C   0  0  0  0  0  0  0  0  0  0  0  0
   13.1860   11.1370   25.6180 O   0  0  0  0  0  0  0  0  0  0  0  0
   13.5550    9.7670   25.3880 C   0  0  0  0  0  0  0  0  0  0  0  0
   14.9260    9.5910   24.7350 C   0  0  0  0  0  0  0  0  0  0  0  0
   14.9950   10.3240   23.5120 O   0  0  0  0  0  0  0  0  0  0  0  0
   16.3880   10.6130   23.2870 C   0  0  0  0  0  0  0  0  0  0  0  0
   15.1610   15.3790   22.7870 C   0  0  0  0  0  0  0  0  0  0  0  0
   17.1500   10.3950   24.5990 C   0  0  0  0  0  0  0  0  0  0  0  0
   17.9650    9.2300   24.4240 O   0  0  0  0  0  0  0  0  0  0  0  0
   16.0270   10.1770   25.5960 C   0  0  0  0  0  0  0  0  0  0  0  0
   16.4310    9.2450   26.6160 O   0  0  0  0  0  0  0  0  0  0  0  0
   14.9942   12.9895   24.0729 H   0  0  0  0  0  0  0  0  0  0  0  0
   18.8025   14.3809   19.1034 H   0  0  0  0  0  0  0  0  0  0  0  0
   20.3960   11.5512   19.6003 H   0  0  0  0  0  0  0  0  0  0  0  0
   19.4366   12.1023   18.2009 H   0  0  0  0  0  0  0  0  0  0  0  0
   13.1401   11.3073   26.5922 H   0  0  0  0  0  0  0  0  0  0  0  0
   13.5638    9.2445   26.3559 H   0  0  0  0  0  0  0  0  0  0  0  0
   12.8147    9.3524   24.6880 H   0  0  0  0  0  0  0  0  0  0  0  0
   15.0561    8.5087   24.5873 H   0  0  0  0  0  0  0  0  0  0  0  0
   16.8591    9.9563   22.5408 H   0  0  0  0  0  0  0  0  0  0  0  0
   15.0635   15.5486   23.8695 H   0  0  0  0  0  0  0  0  0  0  0  0
   15.7177   16.2126   22.3340 H   0  0  0  0  0  0  0  0  0  0  0  0
   14.1605   15.3170   22.3340 H   0  0  0  0  0  0  0  0  0  0  0  0
   17.8173   11.2086   24.9196 H   0  0  0  0  0  0  0  0  0  0  0  0
   18.2181    8.8682   25.3101 H   0  0  0  0  0  0  0  0  0  0  0  0
   15.7247   11.0918   26.1267 H   0  0  0  0  0  0  0  0  0  0  0  0
   16.2606    9.6382   27.5085 H   0  0  0  0  0  0  0  0  0  0  0  0
  1  2  1  0
  1 11  1  0
  1 16  1  0
  2  3  2  0
  3  4  1  0
  3 17  1  0
  4  5  1  0
  4 11  2  0
  5  6  2  0
  5  7  1  0
  7  8  1  0
  8  9  1  0
  8 10  2  0
 10 11  1  0
 12 13  1  0
 13 14  1  0
 14 15  1  0
 14 20  1  0
 15 16  1  0
 16 18  1  0
 18 19  1  0
 18 20  1  0
 20 21  1  0
  2 22  1  0
  7 23  1  0
  9 24  1  0
  9 25  1  0
 12 26  1  0
 13 27  1  0
 13 28  1  0
 14 29  1  0
 16 30  1  0
 17 31  1  0
 17 32  1  0
 17 33  1  0
 18 34  1  0
 19 35  1  0
 20 36  1  0
 21 37  1  0
M  CHG  1   3   1
A    1
N9
A    2
C8
A    3
N7
A    4
C5
A    5
C6
A    6
O6
A    7
N1
A    8
C2
A    9
N2
A   10
N3
A   11
C4
A   12
O5'
A   13
C5'
A   14
C4'
A   15
O4'
A   16
C1'
A   17
CN7
A   18
C2'
A   19
O2'
A   20
C3'
A   21
O3'
M  END
