4DDK_0HN_A_401
     RDKit          3D

 18 19  0  0  0  0  0  0  0  0999 V2000
  -15.3860   -0.3440   -0.1040 O   0  0  0  0  0  0  0  0  0  0  0  0
  -15.7330   -0.2650    1.0980 C   0  0  0  0  0  0  0  0  0  0  0  0
  -16.9060    0.1570    1.3230 O   0  0  0  0  0  0  0  0  0  0  0  0
  -14.8400   -0.5650    2.1750 C   0  0  0  0  0  0  0  0  0  0  0  0
  -13.4970   -0.9630    2.0130 C   0  0  0  0  0  0  0  0  0  0  0  0
  -12.6960   -1.2190    3.0980 C   0  0  0  0  0  0  0  0  0  0  0  0
  -11.3870   -1.6300    3.1160 O   0  0  0  0  0  0  0  0  0  0  0  0
  -11.0330   -1.8330    4.5400 C   0  0  0  0  0  0  0  0  0  0  0  0
  -12.1840   -1.3570    5.3410 O   0  0  0  0  0  0  0  0  0  0  0  0
  -13.1700   -1.0910    4.3850 C   0  0  0  0  0  0  0  0  0  0  0  0
  -14.4410   -0.6870    4.5850 C   0  0  0  0  0  0  0  0  0  0  0  0
  -15.2870   -0.4210    3.5050 C   0  0  0  0  0  0  0  0  0  0  0  0
  -17.2211    0.2704    2.2547 H   0  0  0  0  0  0  0  0  0  0  0  0
  -13.0839   -1.0702    0.9992 H   0  0  0  0  0  0  0  0  0  0  0  0
  -10.8509   -2.8999    4.7362 H   0  0  0  0  0  0  0  0  0  0  0  0
  -10.1171   -1.2823    4.8006 H   0  0  0  0  0  0  0  0  0  0  0  0
  -14.8167   -0.5653    5.6117 H   0  0  0  0  0  0  0  0  0  0  0  0
  -16.3197   -0.0936    3.6955 H   0  0  0  0  0  0  0  0  0  0  0  0
  1  2  2  0
  2  3  1  0
  2  4  1  0
  5  4  2  0
  5  6  1  0
  4 12  1  0
  6  7  1  0
  6 10  2  0
  7  8  1  0
 12 11  2  0
 10 11  1  0
 10  9  1  0
  8  9  1  0
  3 13  1  0
  5 14  1  0
  8 15  1  0
  8 16  1  0
 11 17  1  0
 12 18  1  0
A    1
OAA
A    2
CAI
A    3
OAB
A    4
CAJ
A    5
CAE
A    6
CAL
A    7
OAH
A    8
CAF
A    9
OAG
A   10
CAK
A   11
CAD
A   12
CAC
M  END
