4DDL_0JQ_A_1010
     RDKit          3D

 61 64  0  0  0  0  0  0  0  0999 V2000
   13.9930   85.8360   36.8520 C   0  0  0  0  0  0  0  0  0  0  0  0
   14.0270   86.5200   38.1130 O   0  0  0  0  0  0  0  0  0  0  0  0
   13.1380   87.4590   38.3380 C   0  0  0  0  0  0  0  0  0  0  0  0
   12.2280   87.8650   37.4010 C   0  0  0  0  0  0  0  0  0  0  0  0
   13.1810   88.0670   39.5590 C   0  0  0  0  0  0  0  0  0  0  0  0
   14.1010   87.6500   40.4190 O   0  0  0  0  0  0  0  0  0  0  0  0
   13.9110   88.1760   41.7460 C   0  0  0  0  0  0  0  0  0  0  0  0
   12.3080   89.0760   39.8570 C   0  0  0  0  0  0  0  0  0  0  0  0
   11.3440   89.4310   38.9490 C   0  0  0  0  0  0  0  0  0  0  0  0
   11.3520   88.8840   37.6970 C   0  0  0  0  0  0  0  0  0  0  0  0
   10.4740   89.2930   36.8020 N   0  0  0  0  0  0  0  0  0  0  0  0
    9.7030   90.1800   37.0580 N   0  0  0  0  0  0  0  0  0  0  0  0
    9.6660   90.7980   38.2020 C   0  0  0  0  0  0  0  0  0  0  0  0
   10.5840   90.5290   39.1750 C   0  0  0  0  0  0  0  0  0  0  0  0
   10.5120   91.1180   40.4100 C   0  0  0  0  0  0  0  0  0  0  0  0
   10.2510   90.4350   41.5520 C   0  0  0  0  0  0  0  0  0  0  0  0
   10.0980   91.1000   42.7380 C   0  0  0  0  0  0  0  0  0  0  0  0
    9.9010   90.3180   44.0250 C   0  0  0  0  0  0  0  0  0  0  0  0
   10.3680   92.4530   40.4940 C   0  0  0  0  0  0  0  0  0  0  0  0
   10.3120   93.0790   41.6180 N   0  0  0  0  0  0  0  0  0  0  0  0
   10.1100   92.4650   42.7470 C   0  0  0  0  0  0  0  0  0  0  0  0
   10.0090   93.2130   43.8970 N   0  0  0  0  0  0  0  0  0  0  0  0
    9.6660   94.6040   43.8560 C   0  0  0  0  0  0  0  0  0  0  0  0
    9.4430   95.2150   45.2330 C   0  0  0  0  0  0  0  0  0  0  0  0
   10.7570   92.7470   45.0370 C   0  0  0  0  0  0  0  0  0  0  0  0
   10.4160   93.4030   46.3550 C   0  0  0  0  0  0  0  0  0  0  0  0
   10.5700   94.8770   46.1980 C   0  0  0  0  0  0  0  0  0  0  0  0
   10.4340   95.6790   47.5010 C   0  0  0  0  0  0  0  0  0  0  0  0
   11.2050   95.1190   48.6510 C   0  0  0  0  0  0  0  0  0  0  0  0
    8.9970   95.8000   47.9260 C   0  0  0  0  0  0  0  0  0  0  0  0
   10.8170   96.9940   47.1790 O   0  0  0  0  0  0  0  0  0  0  0  0
   13.9391   84.7510   37.0247 H   0  0  0  0  0  0  0  0  0  0  0  0
   13.1099   86.1609   36.2823 H   0  0  0  0  0  0  0  0  0  0  0  0
   14.9040   86.0718   36.2823 H   0  0  0  0  0  0  0  0  0  0  0  0
   12.1966   87.3788   36.4148 H   0  0  0  0  0  0  0  0  0  0  0  0
   14.1873   87.4111   42.4867 H   0  0  0  0  0  0  0  0  0  0  0  0
   14.5450   89.0645   41.8825 H   0  0  0  0  0  0  0  0  0  0  0  0
   12.8556   88.4542   41.8825 H   0  0  0  0  0  0  0  0  0  0  0  0
   12.3787   89.6008   40.8212 H   0  0  0  0  0  0  0  0  0  0  0  0
    8.8833   91.5483   38.3877 H   0  0  0  0  0  0  0  0  0  0  0  0
   10.1617   89.3390   41.5248 H   0  0  0  0  0  0  0  0  0  0  0  0
   10.0681   90.9814   44.8864 H   0  0  0  0  0  0  0  0  0  0  0  0
    8.8752   89.9225   44.0604 H   0  0  0  0  0  0  0  0  0  0  0  0
   10.6170   89.4837   44.0604 H   0  0  0  0  0  0  0  0  0  0  0  0
   10.2950   93.0345   39.5631 H   0  0  0  0  0  0  0  0  0  0  0  0
   10.4828   95.1497   43.3610 H   0  0  0  0  0  0  0  0  0  0  0  0
    8.7163   94.6873   43.3072 H   0  0  0  0  0  0  0  0  0  0  0  0
    9.3800   96.3084   45.1300 H   0  0  0  0  0  0  0  0  0  0  0  0
    8.5105   94.7985   45.6417 H   0  0  0  0  0  0  0  0  0  0  0  0
   10.5779   91.6666   45.1405 H   0  0  0  0  0  0  0  0  0  0  0  0
   11.8065   93.0068   44.8345 H   0  0  0  0  0  0  0  0  0  0  0  0
    9.3783   93.1648   46.6315 H   0  0  0  0  0  0  0  0  0  0  0  0
   11.0854   93.0342   47.1462 H   0  0  0  0  0  0  0  0  0  0  0  0
   11.5799   95.1422   45.8520 H   0  0  0  0  0  0  0  0  0  0  0  0
   10.7482   95.4508   49.5950 H   0  0  0  0  0  0  0  0  0  0  0  0
   11.1895   94.0202   48.6025 H   0  0  0  0  0  0  0  0  0  0  0  0
   12.2452   95.4736   48.6025 H   0  0  0  0  0  0  0  0  0  0  0  0
    8.9387   95.8049   49.0244 H   0  0  0  0  0  0  0  0  0  0  0  0
    8.5758   96.7368   47.5323 H   0  0  0  0  0  0  0  0  0  0  0  0
    8.4251   94.9468   47.5323 H   0  0  0  0  0  0  0  0  0  0  0  0
   10.9666   97.5075   48.0121 H   0  0  0  0  0  0  0  0  0  0  0  0
 11 12  1  0
 11 10  2  0
  1  2  1  0
 12 13  2  0
  4 10  1  0
  4  3  2  0
 10  9  1  0
  2  3  1  0
 13 14  1  0
  3  5  1  0
  9 14  2  0
  9  8  1  0
 14 15  1  0
  5  8  2  0
  5  6  1  0
 15 19  1  0
 15 16  2  0
  6  7  1  0
 19 20  2  0
 16 17  1  0
 20 21  1  0
 17 21  2  0
 17 18  1  0
 21 22  1  0
 23 22  1  0
 23 24  1  0
 22 25  1  0
 25 26  1  0
 24 27  1  0
 27 26  1  0
 27 28  1  0
 31 28  1  0
 28 30  1  0
 28 29  1  0
  1 32  1  0
  1 33  1  0
  1 34  1  0
  4 35  1  0
  7 36  1  0
  7 37  1  0
  7 38  1  0
  8 39  1  0
 13 40  1  0
 16 41  1  0
 18 42  1  0
 18 43  1  0
 18 44  1  0
 19 45  1  0
 23 46  1  0
 23 47  1  0
 24 48  1  0
 24 49  1  0
 25 50  1  0
 25 51  1  0
 26 52  1  0
 26 53  1  0
 27 54  1  0
 29 55  1  0
 29 56  1  0
 29 57  1  0
 30 58  1  0
 30 59  1  0
 30 60  1  0
 31 61  1  0
A    1
C11
A    2
O2
A    3
C9
A    4
C5
A    5
C6
A    6
O1
A    7
C10
A    8
C3
A    9
C1
A   10
C2
A   11
N1
A   12
N2
A   13
C7
A   14
C4
A   15
C8
A   16
C12
A   17
C13
A   18
C16
A   19
C15
A   20
N3
A   21
C14
A   22
N4
A   23
C24
A   24
C23
A   25
C20
A   26
C21
A   27
C22
A   28
C18
A   29
C17
A   30
C19
A   31
O3
M  END
