4DDM_0HO_A_406
     RDKit          3D

 16 17  0  0  0  0  0  0  0  0999 V2000
   15.4630   11.4810    2.0480 O   0  0  0  0  0  0  0  0  0  0  0  0
   15.1360   11.7620    3.2270 C   0  0  0  0  0  0  0  0  0  0  0  0
   15.2630   12.9170    3.6320 O   0  0  0  0  0  0  0  0  0  0  0  0
   14.7450   10.7480    4.1030 C   0  0  0  0  0  0  0  0  0  0  0  0
   14.4470   11.0470    5.4150 C   0  0  0  0  0  0  0  0  0  0  0  0
   14.1300   10.1160    6.2960 C   0  0  0  0  0  0  0  0  0  0  0  0
   13.8090   10.3290    7.5720 N   0  0  0  0  0  0  0  0  0  0  0  0
   13.5130    8.8480    8.2560 S   0  0  0  0  0  0  0  0  0  0  0  0
   13.7650    7.9700    6.9130 N   0  0  0  0  0  0  0  0  0  0  0  0
   14.0920    8.8160    5.9140 C   0  0  0  0  0  0  0  0  0  0  0  0
   14.4050    8.4840    4.6680 C   0  0  0  0  0  0  0  0  0  0  0  0
   14.7420    9.4220    3.7010 C   0  0  0  0  0  0  0  0  0  0  0  0
   15.2832   13.1011    4.6045 H   0  0  0  0  0  0  0  0  0  0  0  0
   14.4742   12.0977    5.7394 H   0  0  0  0  0  0  0  0  0  0  0  0
   14.3972    7.4200    4.3890 H   0  0  0  0  0  0  0  0  0  0  0  0
   14.9931    9.1281    2.6712 H   0  0  0  0  0  0  0  0  0  0  0  0
  1  2  2  0
  2  3  1  0
  2  4  1  0
 12  4  1  0
 12 11  2  0
  4  5  2  0
 11 10  1  0
  5  6  1  0
 10  6  1  0
 10  9  2  0
  6  7  2  0
  9  8  1  0
  7  8  1  0
  3 13  1  0
  5 14  1  0
 11 15  1  0
 12 16  1  0
A    1
OAA
A    2
CAI
A    3
OAB
A    4
CAJ
A    5
CAE
A    6
CAL
A    7
NAG
A    8
SAH
A    9
NAF
A   10
CAK
A   11
CAD
A   12
CAC
M  END
