4DEA_NHI_A_504
     RDKit          3D

 40 42  0  0  0  0  0  0  0  0999 V2000
   -6.9390  -29.5820    1.1840 C   0  0  0  0  0  0  0  0  0  0  0  0
   -3.1330  -33.1080    6.9960 N   0  0  0  0  0  0  0  0  0  0  0  0
   -5.9230  -29.6110    0.1760 O   0  0  0  0  0  0  0  0  0  0  0  0
   -4.3330  -31.1150    6.7660 N   0  0  0  0  0  0  0  0  0  0  0  0
   -8.1120  -29.6800    0.8740 O   0  0  0  0  0  0  0  0  0  0  0  0
   -3.6480  -31.9870    8.9050 N   0  0  0  0  0  0  0  0  0  0  0  0
   -5.5280  -29.1120    6.7070 N   0  0  0  0  0  0  0  0  0  0  0  0
   -3.0710  -33.0350    3.2810 C   0  0  0  0  0  0  0  0  0  0  0  0
   -1.9160  -33.8280    3.0360 C   0  0  0  0  0  0  0  0  0  0  0  0
   -1.1890  -34.3720    4.1520 C   0  0  0  0  0  0  0  0  0  0  0  0
   -1.6160  -34.1120    5.4860 C   0  0  0  0  0  0  0  0  0  0  0  0
   -2.7680  -33.3140    5.7400 C   0  0  0  0  0  0  0  0  0  0  0  0
   -3.4890  -32.7870    4.6110 C   0  0  0  0  0  0  0  0  0  0  0  0
   -1.4980  -34.0640    1.7410 C   0  0  0  0  0  0  0  0  0  0  0  0
   -3.7120  -32.0550    7.5420 C   0  0  0  0  0  0  0  0  0  0  0  0
   -4.9180  -30.0440    7.4050 C   0  0  0  0  0  0  0  0  0  0  0  0
   -4.8950  -29.8910    8.7940 C   0  0  0  0  0  0  0  0  0  0  0  0
   -4.2400  -30.9050    9.5000 C   0  0  0  0  0  0  0  0  0  0  0  0
   -5.8360  -29.2110    5.4380 C   0  0  0  0  0  0  0  0  0  0  0  0
   -7.2010  -29.1900    5.0300 C   0  0  0  0  0  0  0  0  0  0  0  0
   -7.5430  -29.3070    3.6520 C   0  0  0  0  0  0  0  0  0  0  0  0
   -6.5170  -29.4460    2.6710 C   0  0  0  0  0  0  0  0  0  0  0  0
   -5.1610  -29.4610    3.0720 C   0  0  0  0  0  0  0  0  0  0  0  0
   -4.8190  -29.3430    4.4380 C   0  0  0  0  0  0  0  0  0  0  0  0
   -2.2840  -34.0780    0.8180 O   0  0  0  0  0  0  0  0  0  0  0  0
   -0.2130  -34.2620    1.4840 O   0  0  0  0  0  0  0  0  0  0  0  0
   -2.9358  -33.8848    7.6430 H   0  0  0  0  0  0  0  0  0  0  0  0
   -8.8066  -29.7380    1.5770 H   0  0  0  0  0  0  0  0  0  0  0  0
   -5.7822  -28.2405    7.1935 H   0  0  0  0  0  0  0  0  0  0  0  0
   -3.6391  -32.6147    2.4380 H   0  0  0  0  0  0  0  0  0  0  0  0
   -0.2982  -34.9923    3.9742 H   0  0  0  0  0  0  0  0  0  0  0  0
   -1.0493  -34.5325    6.3298 H   0  0  0  0  0  0  0  0  0  0  0  0
   -4.3871  -32.1764    4.7858 H   0  0  0  0  0  0  0  0  0  0  0  0
   -5.3606  -29.0311    9.2978 H   0  0  0  0  0  0  0  0  0  0  0  0
   -4.1979  -30.8291   10.5966 H   0  0  0  0  0  0  0  0  0  0  0  0
   -7.9953  -29.0828    5.7834 H   0  0  0  0  0  0  0  0  0  0  0  0
   -8.5990  -29.2901    3.3444 H   0  0  0  0  0  0  0  0  0  0  0  0
   -4.3682  -29.5651    2.3166 H   0  0  0  0  0  0  0  0  0  0  0  0
   -3.7603  -29.3526    4.7366 H   0  0  0  0  0  0  0  0  0  0  0  0
    0.4313  -34.3613    2.2291 H   0  0  0  0  0  0  0  0  0  0  0  0
  3  1  2  0
  5  1  1  0
  1 22  1  0
 12  2  1  0
  2 15  1  0
  4 16  2  0
  4 15  1  0
 15  6  2  0
  6 18  1  0
 19  7  1  0
  7 16  1  0
  9  8  2  0
  8 13  1  0
 14  9  1  0
  9 10  1  0
 10 11  2  0
 11 12  1  0
 13 12  2  0
 25 14  2  0
 26 14  1  0
 16 17  1  0
 17 18  2  0
 24 19  1  0
 20 19  2  0
 21 20  1  0
 22 21  2  0
 22 23  1  0
 23 24  2  0
  2 27  1  0
  5 28  1  0
  7 29  1  0
  8 30  1  0
 10 31  1  0
 11 32  1  0
 13 33  1  0
 17 34  1  0
 18 35  1  0
 20 36  1  0
 21 37  1  0
 23 38  1  0
 24 39  1  0
 26 40  1  0
A    1
C01
A    2
N01
A    3
O01
A    4
N02
A    5
O02
A    6
N03
A    7
N04
A    8
C05
A    9
C06
A   10
C07
A   11
C08
A   12
C09
A   13
C10
A   14
C11
A   15
C12
A   16
C13
A   17
C14
A   18
C15
A   19
C16
A   20
C17
A   21
C18
A   22
C19
A   23
C20
A   24
C21
A   25
O25
A   26
O26
M  END
