4DEI_0JL_A_1401
     RDKit          3D

 55 59  0  0  0  0  0  0  0  0999 V2000
   28.3430   31.0880   60.9540 C   0  0  0  0  0  0  0  0  0  0  0  0
   27.1360   31.2780   60.0330 C   0  0  0  0  0  0  0  0  0  0  0  0
   26.2790   30.2700   59.7760 C   0  0  0  0  0  0  0  0  0  0  0  0
   26.8790   32.4560   59.4460 N   0  0  0  0  0  0  0  0  0  0  0  0
   25.5220   32.2440   58.5510 S   0  0  0  0  0  0  0  0  0  0  0  0
   25.2840   30.6250   58.9590 C   0  0  0  0  0  0  0  0  0  0  0  0
   24.2530   29.7840   58.4940 N   0  0  0  0  0  0  0  0  0  0  0  0
   23.3240   30.2490   57.5350 C   0  0  0  0  0  0  0  0  0  0  0  0
   22.3180   29.3940   57.0760 C   0  0  0  0  0  0  0  0  0  0  0  0
   23.3940   31.4020   57.1160 O   0  0  0  0  0  0  0  0  0  0  0  0
   24.1480   28.4530   58.9550 C   0  0  0  0  0  0  0  0  0  0  0  0
   23.1390   27.6130   58.4820 C   0  0  0  0  0  0  0  0  0  0  0  0
   22.2270   28.0960   57.5420 C   0  0  0  0  0  0  0  0  0  0  0  0
   21.1790   27.5690   56.9010 N   0  0  0  0  0  0  0  0  0  0  0  0
   20.6840   28.4240   56.1490 N   0  0  0  0  0  0  0  0  0  0  0  0
   21.3120   29.4910   56.2100 N   0  0  0  0  0  0  0  0  0  0  0  0
   20.9920   30.7180   55.4480 C   0  0  0  0  0  0  0  0  0  0  0  0
   20.3170   30.4010   54.1060 C   0  0  0  0  0  0  0  0  0  0  0  0
   20.1110   31.6020   56.3390 C   0  0  0  0  0  0  0  0  0  0  0  0
   20.6620   32.7610   56.8760 C   0  0  0  0  0  0  0  0  0  0  0  0
   19.8920   33.5700   57.6990 C   0  0  0  0  0  0  0  0  0  0  0  0
   20.4400   34.7290   58.2300 C   0  0  0  0  0  0  0  0  0  0  0  0
   18.7920   31.2510   56.6380 C   0  0  0  0  0  0  0  0  0  0  0  0
   18.0190   32.0680   57.4620 C   0  0  0  0  0  0  0  0  0  0  0  0
   18.5720   33.2300   57.9950 C   0  0  0  0  0  0  0  0  0  0  0  0
   17.8350   34.0220   58.7920 N   0  0  0  0  0  0  0  0  0  0  0  0
   18.3360   35.1360   59.3140 C   0  0  0  0  0  0  0  0  0  0  0  0
   19.6520   35.5200   59.0570 C   0  0  0  0  0  0  0  0  0  0  0  0
   20.1750   36.6610   59.5870 O   0  0  0  0  0  0  0  0  0  0  0  0
   20.4470   36.4990   60.9980 C   0  0  0  0  0  0  0  0  0  0  0  0
   20.1730   37.8080   61.7110 C   0  0  0  0  0  0  0  0  0  0  0  0
   21.3920   38.5560   61.7820 O   0  0  0  0  0  0  0  0  0  0  0  0
   21.1090   39.9610   61.6620 C   0  0  0  0  0  0  0  0  0  0  0  0
   28.0156   31.1395   62.0029 H   0  0  0  0  0  0  0  0  0  0  0  0
   28.8009   30.1067   60.7606 H   0  0  0  0  0  0  0  0  0  0  0  0
   29.0802   31.8812   60.7606 H   0  0  0  0  0  0  0  0  0  0  0  0
   26.3879   29.2591   60.1959 H   0  0  0  0  0  0  0  0  0  0  0  0
   24.8691   28.0747   59.6945 H   0  0  0  0  0  0  0  0  0  0  0  0
   23.0629   26.5782   58.8471 H   0  0  0  0  0  0  0  0  0  0  0  0
   21.9187   31.2516   55.1901 H   0  0  0  0  0  0  0  0  0  0  0  0
   19.3352   29.9399   54.2892 H   0  0  0  0  0  0  0  0  0  0  0  0
   20.1843   31.3309   53.5336 H   0  0  0  0  0  0  0  0  0  0  0  0
   20.9479   29.7050   53.5336 H   0  0  0  0  0  0  0  0  0  0  0  0
   21.7030   33.0346   56.6492 H   0  0  0  0  0  0  0  0  0  0  0  0
   21.4770   35.0157   58.0009 H   0  0  0  0  0  0  0  0  0  0  0  0
   18.3623   30.3277   56.2222 H   0  0  0  0  0  0  0  0  0  0  0  0
   16.9778   31.7963   57.6900 H   0  0  0  0  0  0  0  0  0  0  0  0
   17.7039   35.7647   59.9583 H   0  0  0  0  0  0  0  0  0  0  0  0
   19.7977   35.7125   61.4101 H   0  0  0  0  0  0  0  0  0  0  0  0
   21.4994   36.2129   61.1414 H   0  0  0  0  0  0  0  0  0  0  0  0
   19.4183   38.3822   61.1536 H   0  0  0  0  0  0  0  0  0  0  0  0
   19.7948   37.6105   62.7249 H   0  0  0  0  0  0  0  0  0  0  0  0
   21.0198   40.4040   62.6649 H   0  0  0  0  0  0  0  0  0  0  0  0
   21.9259   40.4541   61.1147 H   0  0  0  0  0  0  0  0  0  0  0  0
   20.1649   40.0994   61.1147 H   0  0  0  0  0  0  0  0  0  0  0  0
 18 17  1  0
 17 16  1  0
 17 19  1  0
 15 16  1  0
 15 14  2  0
 16  9  1  0
 19 23  1  0
 19 20  2  0
 23 24  2  0
 20 21  1  0
 14 13  1  0
  9  8  1  0
  9 13  2  0
 10  8  2  0
 24 25  1  0
  8  7  1  0
 13 12  1  0
 21 25  2  0
 21 22  1  0
 25 26  1  0
 22 28  2  0
 12 11  2  0
  7 11  1  0
  7  6  1  0
  5  6  1  0
  5  4  1  0
 26 27  2  0
  6  3  2  0
 28 27  1  0
 28 29  1  0
  4  2  2  0
 29 30  1  0
  3  2  1  0
  2  1  1  0
 30 31  1  0
 33 32  1  0
 31 32  1  0
  1 34  1  0
  1 35  1  0
  1 36  1  0
  3 37  1  0
 11 38  1  0
 12 39  1  0
 17 40  1  0
 18 41  1  0
 18 42  1  0
 18 43  1  0
 20 44  1  0
 22 45  1  0
 23 46  1  0
 24 47  1  0
 27 48  1  0
 30 49  1  0
 30 50  1  0
 31 51  1  0
 31 52  1  0
 33 53  1  0
 33 54  1  0
 33 55  1  0
A    1
CBF
A    2
CBE
A    3
CBB
A    4
NBD
A    5
S
A    6
CBA
A    7
NAZ
A    8
CAT
A    9
CAS
A   10
OBG
A   11
CAY
A   12
CAX
A   13
CAW
A   14
NAV
A   15
NAU
A   16
NAR
A   17
CAP
A   18
CAQ
A   19
CAO
A   20
CAI
A   21
CAH
A   22
CAG
A   23
CAN
A   24
CAM
A   25
CAL
A   26
NAK
A   27
CAJ
A   28
CAF
A   29
OAE
A   30
CAD
A   31
CAC
A   32
OAB
A   33
CAA
M  END
