4DF4_0L3_A_903
     RDKit          3D

 90 92  0  0  0  0  0  0  0  0999 V2000
   15.2920  -13.8330  -14.6690 O   0  0  0  0  0  0  0  0  0  0  0  0
   16.4620  -14.1850  -13.7810 P   0  0  0  0  0  0  0  0  0  0  0  0
   17.5210  -15.0560  -14.4130 O   0  0  0  0  0  0  0  0  0  0  0  0
   17.0200  -13.0050  -13.0220 O   0  0  0  0  0  0  0  0  0  0  0  0
   15.8070  -15.1170  -12.6410 O   0  0  0  0  0  0  0  0  0  0  0  0
   16.4750  -16.5210  -12.2160 P   0  0  0  0  0  0  0  0  0  0  0  0
   15.4490  -17.2740  -11.4060 O   0  0  0  0  0  0  0  0  0  0  0  0
   17.0980  -17.1990  -13.4190 O   0  0  0  0  0  0  0  0  0  0  0  0
   17.6260  -16.0310  -11.2000 O   0  0  0  0  0  0  0  0  0  0  0  0
   19.1480  -16.5030  -11.4170 P   0  0  0  0  0  0  0  0  0  0  0  0
   19.3880  -16.6990  -12.8970 O   0  0  0  0  0  0  0  0  0  0  0  0
   20.0350  -15.5680  -10.6320 O   0  0  0  0  0  0  0  0  0  0  0  0
   19.1210  -17.9190  -10.6580 O   0  0  0  0  0  0  0  0  0  0  0  0
   19.2670  -19.1440  -11.3690 C   0  0  0  0  0  0  0  0  0  0  0  0
   18.6020  -20.2320  -10.5430 C   0  0  0  0  0  0  0  0  0  0  0  0
   17.2220  -19.7960  -10.0850 C   0  0  0  0  0  0  0  0  0  0  0  0
   16.2020  -20.1510  -11.0220 O   0  0  0  0  0  0  0  0  0  0  0  0
   17.0340  -20.5200   -8.7680 C   0  0  0  0  0  0  0  0  0  0  0  0
   19.3410  -20.4750   -9.3440 O   0  0  0  0  0  0  0  0  0  0  0  0
   18.4500  -20.7410   -8.2590 C   0  0  0  0  0  0  0  0  0  0  0  0
   18.6820  -19.7570   -7.1750 N   0  0  0  0  0  0  0  0  0  0  0  0
   18.3770  -19.9810   -5.8750 C   0  0  0  0  0  0  0  0  0  0  0  0
   17.8550  -21.0290   -5.1920 N   0  0  0  0  0  0  0  0  0  0  0  0
   17.6630  -20.9730   -3.8600 C   0  0  0  0  0  0  0  0  0  0  0  0
   17.9620  -19.9020   -3.1010 N   0  0  0  0  0  0  0  0  0  0  0  0
   18.4900  -18.7770   -3.6340 C   0  0  0  0  0  0  0  0  0  0  0  0
   18.7920  -17.6970   -2.8700 N   0  0  0  0  0  0  0  0  0  0  0  0
   18.7230  -18.7790   -5.0970 C   0  0  0  0  0  0  0  0  0  0  0  0
   19.1940  -18.5160   -7.3740 C   0  0  0  0  0  0  0  0  0  0  0  0
   19.2340  -17.8920   -6.1480 C   0  0  0  0  0  0  0  0  0  0  0  0
   19.6920  -16.6560   -5.9320 C   0  0  0  0  0  0  0  0  0  0  0  0
   20.0840  -15.5560   -5.7380 C   0  0  0  0  0  0  0  0  0  0  0  0
   20.5960  -14.2040   -5.4600 C   0  0  0  0  0  0  0  0  0  0  0  0
   21.4030  -13.6530   -6.6240 C   0  0  0  0  0  0  0  0  0  0  0  0
   20.7720  -13.9690   -7.9740 C   0  0  0  0  0  0  0  0  0  0  0  0
   21.3480  -13.1930   -9.0620 N   0  0  0  0  0  0  0  0  0  0  0  0
   21.0530  -11.9040   -9.2250 C   0  0  0  0  0  0  0  0  0  0  0  0
   20.1060  -11.3710   -8.6740 O   0  0  0  0  0  0  0  0  0  0  0  0
   21.9430  -11.0980  -10.1420 C   0  0  0  0  0  0  0  0  0  0  0  0
   21.4670  -11.2150  -11.5860 C   0  0  0  0  0  0  0  0  0  0  0  0
   22.0840  -10.1150  -12.4420 C   0  0  0  0  0  0  0  0  0  0  0  0
   22.2170  -10.5620  -13.8930 C   0  0  0  0  0  0  0  0  0  0  0  0
   20.8620  -10.6500  -14.5820 C   0  0  0  0  0  0  0  0  0  0  0  0
   20.9720  -11.4360  -15.8830 C   0  0  0  0  0  0  0  0  0  0  0  0
   19.7430  -11.2200  -16.7590 C   0  0  0  0  0  0  0  0  0  0  0  0
   19.6620   -9.7670  -17.2130 C   0  0  0  0  0  0  0  0  0  0  0  0
   18.2540   -9.3990  -17.6670 C   0  0  0  0  0  0  0  0  0  0  0  0
   18.2510   -8.0600  -18.1730 O   0  0  0  0  0  0  0  0  0  0  0  0
   18.0542  -15.4946  -13.7035 H   0  0  0  0  0  0  0  0  0  0  0  0
   16.9414  -13.1713  -12.0492 H   0  0  0  0  0  0  0  0  0  0  0  0
   15.6286  -17.1422  -10.4414 H   0  0  0  0  0  0  0  0  0  0  0  0
   19.8948  -15.7158   -9.6632 H   0  0  0  0  0  0  0  0  0  0  0  0
   18.7799  -19.0681  -12.3524 H   0  0  0  0  0  0  0  0  0  0  0  0
   20.3304  -19.3746  -11.5302 H   0  0  0  0  0  0  0  0  0  0  0  0
   18.5531  -21.1254  -11.1829 H   0  0  0  0  0  0  0  0  0  0  0  0
   17.1448  -18.7028   -9.9906 H   0  0  0  0  0  0  0  0  0  0  0  0
   15.3889  -20.4340  -10.5332 H   0  0  0  0  0  0  0  0  0  0  0  0
   16.4575  -19.9035   -8.0626 H   0  0  0  0  0  0  0  0  0  0  0  0
   16.4747  -21.4605   -8.8801 H   0  0  0  0  0  0  0  0  0  0  0  0
   18.6052  -21.7642   -7.8862 H   0  0  0  0  0  0  0  0  0  0  0  0
   17.2359  -21.8560   -3.3621 H   0  0  0  0  0  0  0  0  0  0  0  0
   18.7714  -17.7708   -1.8429 H   0  0  0  0  0  0  0  0  0  0  0  0
   19.0419  -16.8034   -3.3172 H   0  0  0  0  0  0  0  0  0  0  0  0
   19.5165  -18.0889   -8.3350 H   0  0  0  0  0  0  0  0  0  0  0  0
   21.2392  -14.2437   -4.5686 H   0  0  0  0  0  0  0  0  0  0  0  0
   19.7342  -13.5398   -5.2980 H   0  0  0  0  0  0  0  0  0  0  0  0
   22.4106  -14.0932   -6.5941 H   0  0  0  0  0  0  0  0  0  0  0  0
   21.4359  -12.5585   -6.5189 H   0  0  0  0  0  0  0  0  0  0  0  0
   19.6953  -13.7506   -7.9183 H   0  0  0  0  0  0  0  0  0  0  0  0
   20.9628  -15.0310   -8.1879 H   0  0  0  0  0  0  0  0  0  0  0  0
   21.9967  -13.6493   -9.7192 H   0  0  0  0  0  0  0  0  0  0  0  0
   22.9739  -11.4746  -10.0690 H   0  0  0  0  0  0  0  0  0  0  0  0
   21.9031  -10.0414   -9.8385 H   0  0  0  0  0  0  0  0  0  0  0  0
   20.3711  -11.1241  -11.6144 H   0  0  0  0  0  0  0  0  0  0  0  0
   21.7768  -12.1922  -11.9848 H   0  0  0  0  0  0  0  0  0  0  0  0
   23.0814   -9.8696  -12.0483 H   0  0  0  0  0  0  0  0  0  0  0  0
   21.4277   -9.2330  -12.4057 H   0  0  0  0  0  0  0  0  0  0  0  0
   22.6948  -11.5525  -13.9184 H   0  0  0  0  0  0  0  0  0  0  0  0
   22.8252   -9.8169  -14.4268 H   0  0  0  0  0  0  0  0  0  0  0  0
   20.5019   -9.6343  -14.8026 H   0  0  0  0  0  0  0  0  0  0  0  0
   20.1573  -11.1667  -13.9139 H   0  0  0  0  0  0  0  0  0  0  0  0
   21.0631  -12.5070  -15.6493 H   0  0  0  0  0  0  0  0  0  0  0  0
   21.8584  -11.0836  -16.4308 H   0  0  0  0  0  0  0  0  0  0  0  0
   18.8395  -11.4708  -16.1839 H   0  0  0  0  0  0  0  0  0  0  0  0
   19.8188  -11.8669  -17.6455 H   0  0  0  0  0  0  0  0  0  0  0  0
   20.3584   -9.6154  -18.0509 H   0  0  0  0  0  0  0  0  0  0  0  0
   19.9277   -9.1247  -16.3605 H   0  0  0  0  0  0  0  0  0  0  0  0
   17.5632   -9.4702  -16.8139 H   0  0  0  0  0  0  0  0  0  0  0  0
   17.9312  -10.0911  -18.4587 H   0  0  0  0  0  0  0  0  0  0  0  0
   18.2496   -7.4214  -17.4165 H   0  0  0  0  0  0  0  0  0  0  0  0
 48 47  1  0
 47 46  1  0
 46 45  1  0
 45 44  1  0
 44 43  1  0
  1  2  2  0
 43 42  1  0
  3  2  1  0
 42 41  1  0
  2  4  1  0
  2  5  1  0
  8  6  2  0
 11 10  2  0
  5  6  1  0
 41 40  1  0
  6  7  1  0
  6  9  1  0
 40 39  1  0
 10  9  1  0
 10 13  1  0
 10 12  1  0
 14 13  1  0
 14 15  1  0
 17 16  1  0
 15 16  1  0
 15 19  1  0
 39 37  1  0
 16 18  1  0
 19 20  1  0
 37 36  1  0
 37 38  2  0
 36 35  1  0
 18 20  1  0
 20 21  1  0
 35 34  1  0
 29 21  1  0
 29 30  2  0
 21 22  1  0
 34 33  1  0
 30 31  1  0
 30 28  1  0
 31 32  3  0
 22 23  2  0
 22 28  1  0
 32 33  1  0
 23 24  1  0
 28 26  2  0
 24 25  2  0
 26 25  1  0
 26 27  1  0
  3 49  1  0
  4 50  1  0
  7 51  1  0
 12 52  1  0
 14 53  1  0
 14 54  1  0
 15 55  1  0
 16 56  1  0
 17 57  1  0
 18 58  1  0
 18 59  1  0
 20 60  1  0
 24 61  1  0
 27 62  1  0
 27 63  1  0
 29 64  1  0
 33 65  1  0
 33 66  1  0
 34 67  1  0
 34 68  1  0
 35 69  1  0
 35 70  1  0
 36 71  1  0
 39 72  1  0
 39 73  1  0
 40 74  1  0
 40 75  1  0
 41 76  1  0
 41 77  1  0
 42 78  1  0
 42 79  1  0
 43 80  1  0
 43 81  1  0
 44 82  1  0
 44 83  1  0
 45 84  1  0
 45 85  1  0
 46 86  1  0
 46 87  1  0
 47 88  1  0
 47 89  1  0
 48 90  1  0
A    1
O1G
A    2
PG
A    3
O3G
A    4
O2G
A    5
O3B
A    6
PB
A    7
O1B
A    8
O2B
A    9
O3A
A   10
PA
A   11
O2A
A   12
O1A
A   13
O5'
A   14
C5'
A   15
C4'
A   16
C3'
A   17
O3'
A   18
C2'
A   19
O4'
A   20
C1'
A   21
N9
A   22
C4
A   23
N3
A   24
C2
A   25
N1
A   26
C6
A   27
N6
A   28
C5
A   29
C8
A   30
C7
A   31
C31
A   32
C32
A   33
C33
A   34
C34
A   35
C35
A   36
N36
A   37
C37
A   38
O38
A   39
C39
A   40
C40
A   41
C41
A   42
C42
A   43
C43
A   44
C44
A   45
C45
A   46
C46
A   47
C47
A   48
O48
M  END
