4DFG_0JV_B_201
     RDKit          3D

 87 90  0  0  0  0  0  0  0  0999 V2000
   21.7390   28.7370   14.6620 O   0  0  0  0  0  0  0  0  0  0  0  0
   23.1270   28.6950   14.9510 C   0  0  0  0  0  0  0  0  0  0  0  0
   21.1290   27.5880   15.0170 C   0  0  0  0  0  0  0  0  0  0  0  0
   19.7560   27.5880   14.8290 C   0  0  0  0  0  0  0  0  0  0  0  0
   18.9840   26.4890   15.1430 C   0  0  0  0  0  0  0  0  0  0  0  0
   19.5770   25.3480   15.6580 C   0  0  0  0  0  0  0  0  0  0  0  0
   20.9390   25.3780   15.8330 C   0  0  0  0  0  0  0  0  0  0  0  0
   21.7550   26.4530   15.5340 C   0  0  0  0  0  0  0  0  0  0  0  0
   18.5850   23.9560   16.0530 S   0  0  0  0  0  0  0  0  0  0  0  0
   17.4870   23.8930   15.0680 O   0  0  0  0  0  0  0  0  0  0  0  0
   19.4120   22.7420   16.2230 O   0  0  0  0  0  0  0  0  0  0  0  0
   17.8860   24.2420   17.5220 N   0  0  0  0  0  0  0  0  0  0  0  0
   18.8140   24.5560   18.5890 C   0  0  0  0  0  0  0  0  0  0  0  0
   18.5060   23.7990   19.8870 C   0  0  0  0  0  0  0  0  0  0  0  0
   18.6340   22.2740   19.7260 C   0  0  0  0  0  0  0  0  0  0  0  0
   19.4960   24.2770   20.9670 C   0  0  0  0  0  0  0  0  0  0  0  0
   16.6160   24.9500   17.5440 C   0  0  0  0  0  0  0  0  0  0  0  0
   15.4730   24.0460   18.0270 C   0  0  0  0  0  0  0  0  0  0  0  0
   14.2820   24.7560   18.3770 O   0  0  0  0  0  0  0  0  0  0  0  0
   15.0810   22.9170   17.0770 C   0  0  0  0  0  0  0  0  0  0  0  0
   14.2300   21.9550   17.7620 N   0  0  0  0  0  0  0  0  0  0  0  0
   14.4710   20.6680   18.0080 C   0  0  0  0  0  0  0  0  0  0  0  0
   15.5700   20.1490   17.7550 O   0  0  0  0  0  0  0  0  0  0  0  0
   13.4190   20.0090   18.5840 O   0  0  0  0  0  0  0  0  0  0  0  0
   13.7360   18.6140   18.8670 C   0  0  0  0  0  0  0  0  0  0  0  0
   12.6440   18.1820   19.8600 C   0  0  0  0  0  0  0  0  0  0  0  0
   11.4070   17.8420   19.0390 C   0  0  0  0  0  0  0  0  0  0  0  0
   10.7000   19.0050   18.6320 O   0  0  0  0  0  0  0  0  0  0  0  0
   10.5770   19.0640   17.2130 C   0  0  0  0  0  0  0  0  0  0  0  0
   10.9300   17.6640   16.7330 C   0  0  0  0  0  0  0  0  0  0  0  0
   11.9650   17.2370   17.7780 C   0  0  0  0  0  0  0  0  0  0  0  0
   13.3810   17.7730   17.6370 C   0  0  0  0  0  0  0  0  0  0  0  0
   11.4700   17.5390   15.3920 N   0  0  0  0  0  0  0  0  0  0  0  0
   10.7650   17.8050   14.2760 C   0  0  0  0  0  0  0  0  0  0  0  0
    9.6390   18.3350   14.2550 O   0  0  0  0  0  0  0  0  0  0  0  0
   11.2700   17.5620   13.0320 O   0  0  0  0  0  0  0  0  0  0  0  0
   10.2470   17.8350   12.0450 C   0  0  0  0  0  0  0  0  0  0  0  0
   14.4220   23.4340   15.7920 C   0  0  0  0  0  0  0  0  0  0  0  0
   12.8290   21.7170   14.8710 C   0  0  0  0  0  0  0  0  0  0  0  0
   12.4920   20.6260   14.0800 C   0  0  0  0  0  0  0  0  0  0  0  0
   13.4770   20.0390   13.3010 C   0  0  0  0  0  0  0  0  0  0  0  0
   14.7670   20.5260   13.3080 C   0  0  0  0  0  0  0  0  0  0  0  0
   15.1070   21.6280   14.1080 C   0  0  0  0  0  0  0  0  0  0  0  0
   14.1260   22.2220   14.8910 C   0  0  0  0  0  0  0  0  0  0  0  0
   23.2746   28.6905   16.0410 H   0  0  0  0  0  0  0  0  0  0  0  0
   23.5643   27.7832   14.5180 H   0  0  0  0  0  0  0  0  0  0  0  0
   23.6186   29.5787   14.5180 H   0  0  0  0  0  0  0  0  0  0  0  0
   19.2702   28.4860   14.4195 H   0  0  0  0  0  0  0  0  0  0  0  0
   17.8959   26.5186   14.9842 H   0  0  0  0  0  0  0  0  0  0  0  0
   21.4177   24.4765   16.2430 H   0  0  0  0  0  0  0  0  0  0  0  0
   22.8425   26.4157   15.6954 H   0  0  0  0  0  0  0  0  0  0  0  0
   19.8299   24.2913   18.2604 H   0  0  0  0  0  0  0  0  0  0  0  0
   18.7212   25.6310   18.8027 H   0  0  0  0  0  0  0  0  0  0  0  0
   17.4637   24.0098   20.1684 H   0  0  0  0  0  0  0  0  0  0  0  0
   18.6736   21.8025   20.7190 H   0  0  0  0  0  0  0  0  0  0  0  0
   17.7650   21.8896   19.1719 H   0  0  0  0  0  0  0  0  0  0  0  0
   19.5550   22.0398   19.1719 H   0  0  0  0  0  0  0  0  0  0  0  0
   19.0770   24.0747   21.9638 H   0  0  0  0  0  0  0  0  0  0  0  0
   20.4493   23.7399   20.8541 H   0  0  0  0  0  0  0  0  0  0  0  0
   19.6683   25.3575   20.8541 H   0  0  0  0  0  0  0  0  0  0  0  0
   16.6998   25.8123   18.2218 H   0  0  0  0  0  0  0  0  0  0  0  0
   16.3865   25.2766   16.5190 H   0  0  0  0  0  0  0  0  0  0  0  0
   15.9211   23.5970   18.9257 H   0  0  0  0  0  0  0  0  0  0  0  0
   14.2034   24.8029   19.3628 H   0  0  0  0  0  0  0  0  0  0  0  0
   16.0059   22.4095   16.7655 H   0  0  0  0  0  0  0  0  0  0  0  0
   13.3261   22.3153   18.0996 H   0  0  0  0  0  0  0  0  0  0  0  0
   14.7830   18.4996   19.1844 H   0  0  0  0  0  0  0  0  0  0  0  0
   12.9760   17.2995   20.4266 H   0  0  0  0  0  0  0  0  0  0  0  0
   12.4289   18.9841   20.5814 H   0  0  0  0  0  0  0  0  0  0  0  0
   10.7251   17.2048   19.6212 H   0  0  0  0  0  0  0  0  0  0  0  0
   11.2744   19.8044   16.7942 H   0  0  0  0  0  0  0  0  0  0  0  0
    9.5688   19.3693   16.8962 H   0  0  0  0  0  0  0  0  0  0  0  0
   10.0231   17.0469   16.6512 H   0  0  0  0  0  0  0  0  0  0  0  0
   12.0866   16.1457   17.7121 H   0  0  0  0  0  0  0  0  0  0  0  0
   14.0845   16.9315   17.5532 H   0  0  0  0  0  0  0  0  0  0  0  0
   13.4470   18.3988   16.7347 H   0  0  0  0  0  0  0  0  0  0  0  0
   12.4469   17.2296   15.2880 H   0  0  0  0  0  0  0  0  0  0  0  0
    9.3046   18.0865   12.5536 H   0  0  0  0  0  0  0  0  0  0  0  0
   10.5611   18.6808   11.4157 H   0  0  0  0  0  0  0  0  0  0  0  0
   10.0979   16.9452   11.4157 H   0  0  0  0  0  0  0  0  0  0  0  0
   15.1030   24.1263   15.2753 H   0  0  0  0  0  0  0  0  0  0  0  0
   13.4920   23.9719   16.0282 H   0  0  0  0  0  0  0  0  0  0  0  0
   12.0560   22.1911   15.4936 H   0  0  0  0  0  0  0  0  0  0  0  0
   11.4637   20.2355   14.0719 H   0  0  0  0  0  0  0  0  0  0  0  0
   13.2264   19.1740   12.6694 H   0  0  0  0  0  0  0  0  0  0  0  0
   15.5349   20.0476   12.6823 H   0  0  0  0  0  0  0  0  0  0  0  0
   16.1364   22.0158   14.1146 H   0  0  0  0  0  0  0  0  0  0  0  0
 37 36  1  0
 36 34  1  0
 41 42  2  0
 41 40  1  0
 42 43  1  0
 40 39  2  0
 43 44  2  0
 35 34  2  0
 34 33  1  0
  1  2  1  0
  1  3  1  0
  4  3  2  0
  4  5  1  0
 39 44  1  0
 44 38  1  0
  3  8  1  0
 10  9  2  0
  5  6  2  0
 33 30  1  0
  8  7  2  0
  6  7  1  0
  6  9  1  0
 38 20  1  0
  9 11  2  0
  9 12  1  0
 30 29  1  0
 30 31  1  0
 20 21  1  0
 20 18  1  0
 29 28  1  0
 12 17  1  0
 12 13  1  0
 17 18  1  0
 32 31  1  0
 32 25  1  0
 23 22  2  0
 21 22  1  0
 31 27  1  0
 22 24  1  0
 18 19  1  0
 24 25  1  0
 13 14  1  0
 28 27  1  0
 25 26  1  0
 27 26  1  0
 15 14  1  0
 14 16  1  0
  2 45  1  0
  2 46  1  0
  2 47  1  0
  4 48  1  0
  5 49  1  0
  7 50  1  0
  8 51  1  0
 13 52  1  0
 13 53  1  0
 14 54  1  0
 15 55  1  0
 15 56  1  0
 15 57  1  0
 16 58  1  0
 16 59  1  0
 16 60  1  0
 17 61  1  0
 17 62  1  0
 18 63  1  0
 19 64  1  0
 20 65  1  0
 21 66  1  0
 25 67  1  0
 26 68  1  0
 26 69  1  0
 27 70  1  0
 29 71  1  0
 29 72  1  0
 30 73  1  0
 31 74  1  0
 32 75  1  0
 32 76  1  0
 33 77  1  0
 37 78  1  0
 37 79  1  0
 37 80  1  0
 38 81  1  0
 38 82  1  0
 39 83  1  0
 40 84  1  0
 41 85  1  0
 42 86  1  0
 43 87  1  0
A    1
O39
A    2
C40
A    3
C2
A    4
C3
A    5
C4
A    6
C5
A    7
C6
A    8
C7
A    9
S8
A   10
O9
A   11
O10
A   12
N11
A   13
C12
A   14
C13
A   15
C14
A   16
C15
A   17
C16
A   18
C17
A   19
O18
A   20
C19
A   21
N20
A   22
C21
A   23
O22
A   24
O23
A   25
C24
A   26
C25
A   27
C26
A   28
O27
A   29
C28
A   30
C29
A   31
C30
A   32
C31
A   33
N41
A   34
C42
A   35
O43
A   36
O44
A   37
C45
A   38
C32
A   39
C33
A   40
C34
A   41
C35
A   42
C36
A   43
C37
A   44
C38
M  END
