4DFJ_0KL_A_903
     RDKit          3D

 56 57  0  0  0  0  0  0  0  0999 V2000
   18.1410  -14.9830  -14.4150 O   0  0  0  0  0  0  0  0  0  0  0  0
   17.1230  -14.0770  -13.7600 P   0  0  0  0  0  0  0  0  0  0  0  0
   17.7200  -12.8340  -13.1450 O   0  0  0  0  0  0  0  0  0  0  0  0
   15.8680  -13.8200  -14.5610 O   0  0  0  0  0  0  0  0  0  0  0  0
   16.5960  -14.9100  -12.4850 O   0  0  0  0  0  0  0  0  0  0  0  0
   16.9490  -16.4640  -12.2380 P   0  0  0  0  0  0  0  0  0  0  0  0
   15.7860  -17.0790  -11.4970 O   0  0  0  0  0  0  0  0  0  0  0  0
   17.4710  -17.1160  -13.4980 O   0  0  0  0  0  0  0  0  0  0  0  0
   18.1230  -16.3280  -11.1480 O   0  0  0  0  0  0  0  0  0  0  0  0
   19.6780  -16.6030  -11.4640 P   0  0  0  0  0  0  0  0  0  0  0  0
   19.9100  -16.7060  -12.9560 O   0  0  0  0  0  0  0  0  0  0  0  0
   20.4620  -15.6010  -10.6550 O   0  0  0  0  0  0  0  0  0  0  0  0
   19.8280  -18.0410  -10.7580 O   0  0  0  0  0  0  0  0  0  0  0  0
   19.6160  -19.2400  -11.4980 C   0  0  0  0  0  0  0  0  0  0  0  0
   18.8520  -20.2210  -10.6200 C   0  0  0  0  0  0  0  0  0  0  0  0
   17.5290  -19.6480  -10.1360 C   0  0  0  0  0  0  0  0  0  0  0  0
   16.4510  -19.8270  -11.0610 O   0  0  0  0  0  0  0  0  0  0  0  0
   17.2830  -20.4050   -8.8450 C   0  0  0  0  0  0  0  0  0  0  0  0
   19.5850  -20.5260   -9.4270 O   0  0  0  0  0  0  0  0  0  0  0  0
   18.6770  -20.7420   -8.3380 C   0  0  0  0  0  0  0  0  0  0  0  0
   18.9740  -19.8160   -7.2400 N   0  0  0  0  0  0  0  0  0  0  0  0
   18.6430  -20.1630   -5.9080 C   0  0  0  0  0  0  0  0  0  0  0  0
   18.1170  -21.2740   -5.6670 O   0  0  0  0  0  0  0  0  0  0  0  0
   18.8900  -19.3260   -4.8890 N   0  0  0  0  0  0  0  0  0  0  0  0
   19.5280  -18.6310   -7.5230 C   0  0  0  0  0  0  0  0  0  0  0  0
   19.8010  -17.7410   -6.5010 C   0  0  0  0  0  0  0  0  0  0  0  0
   19.4550  -18.1310   -5.1140 C   0  0  0  0  0  0  0  0  0  0  0  0
   19.6910  -17.3440   -4.1660 O   0  0  0  0  0  0  0  0  0  0  0  0
   20.3420  -16.6000   -6.7380 C   0  0  0  0  0  0  0  0  0  0  0  0
   20.8360  -15.5460   -6.9340 C   0  0  0  0  0  0  0  0  0  0  0  0
   21.4510  -14.2320   -7.1800 C   0  0  0  0  0  0  0  0  0  0  0  0
   21.1870  -13.3060   -6.0060 C   0  0  0  0  0  0  0  0  0  0  0  0
   21.8030  -13.8350   -4.7140 C   0  0  0  0  0  0  0  0  0  0  0  0
   20.8350  -14.6500   -4.0020 N   0  0  0  0  0  0  0  0  0  0  0  0
   18.6652  -15.4495  -13.7167 H   0  0  0  0  0  0  0  0  0  0  0  0
   17.6859  -12.9050  -12.1581 H   0  0  0  0  0  0  0  0  0  0  0  0
   15.9368  -16.9993  -10.5218 H   0  0  0  0  0  0  0  0  0  0  0  0
   20.3250  -15.7761   -9.6903 H   0  0  0  0  0  0  0  0  0  0  0  0
   19.0312  -19.0189  -12.4031 H   0  0  0  0  0  0  0  0  0  0  0  0
   20.5816  -19.6744  -11.7964 H   0  0  0  0  0  0  0  0  0  0  0  0
   18.6944  -21.1087  -11.2502 H   0  0  0  0  0  0  0  0  0  0  0  0
   17.5783  -18.5561  -10.0126 H   0  0  0  0  0  0  0  0  0  0  0  0
   15.6076  -19.9670  -10.5618 H   0  0  0  0  0  0  0  0  0  0  0  0
   16.7459  -19.7757   -8.1201 H   0  0  0  0  0  0  0  0  0  0  0  0
   16.6611  -21.3001   -8.9936 H   0  0  0  0  0  0  0  0  0  0  0  0
   18.7606  -21.7796   -7.9823 H   0  0  0  0  0  0  0  0  0  0  0  0
   18.6441  -19.6031   -3.9279 H   0  0  0  0  0  0  0  0  0  0  0  0
   19.7650  -18.3664   -8.5641 H   0  0  0  0  0  0  0  0  0  0  0  0
   22.5363  -14.3563   -7.3088 H   0  0  0  0  0  0  0  0  0  0  0  0
   21.0146  -13.7942   -8.0899 H   0  0  0  0  0  0  0  0  0  0  0  0
   21.6188  -12.3189   -6.2276 H   0  0  0  0  0  0  0  0  0  0  0  0
   20.0984  -13.2397   -5.8623 H   0  0  0  0  0  0  0  0  0  0  0  0
   22.6866  -14.4446   -4.9542 H   0  0  0  0  0  0  0  0  0  0  0  0
   22.0979  -12.9862   -4.0796 H   0  0  0  0  0  0  0  0  0  0  0  0
   20.9704  -14.5360   -2.9873 H   0  0  0  0  0  0  0  0  0  0  0  0
   19.8823  -14.3527   -4.2568 H   0  0  0  0  0  0  0  0  0  0  0  0
  4  2  2  0
  1  2  1  0
  2  3  1  0
  2  5  1  0
  8  6  2  0
 11 10  2  0
  5  6  1  0
  6  7  1  0
  6  9  1  0
 14 13  1  0
 14 15  1  0
 10  9  1  0
 10 13  1  0
 10 12  1  0
 17 16  1  0
 15 16  1  0
 15 19  1  0
 16 18  1  0
 19 20  1  0
 18 20  1  0
 20 21  1  0
 25 21  1  0
 25 26  2  0
 21 22  1  0
 31 30  1  0
 31 32  1  0
 30 29  3  0
 29 26  1  0
 26 27  1  0
 32 33  1  0
 22 23  2  0
 22 24  1  0
 27 24  1  0
 27 28  2  0
 33 34  1  0
  1 35  1  0
  3 36  1  0
  7 37  1  0
 12 38  1  0
 14 39  1  0
 14 40  1  0
 15 41  1  0
 16 42  1  0
 17 43  1  0
 18 44  1  0
 18 45  1  0
 20 46  1  0
 24 47  1  0
 25 48  1  0
 31 49  1  0
 31 50  1  0
 32 51  1  0
 32 52  1  0
 33 53  1  0
 33 54  1  0
 34 55  1  0
 34 56  1  0
A    1
O3G
A    2
PG
A    3
O2G
A    4
O1G
A    5
O3B
A    6
PB
A    7
O1B
A    8
O2B
A    9
O3A
A   10
PA
A   11
O1A
A   12
O2A
A   13
O5'
A   14
C5'
A   15
C4'
A   16
C3'
A   17
O3'
A   18
C2'
A   19
O4'
A   20
C1'
A   21
N1
A   22
C2
A   23
O2
A   24
N3
A   25
C6
A   26
C5
A   27
C4
A   28
O4
A   29
C29
A   30
C30
A   31
C31
A   32
C32
A   33
C33
A   34
N34
M  END
