4DFK_0L5_A_901
     RDKit          3D

 86 87  0  0  0  0  0  0  0  0999 V2000
   22.5460  -10.1040   -4.4580 O   0  0  0  0  0  0  0  0  0  0  0  0
   21.5580  -10.4850   -3.8440 C   0  0  0  0  0  0  0  0  0  0  0  0
   21.0450   -9.7050   -2.6460 C   0  0  0  0  0  0  0  0  0  0  0  0
   20.6810   -8.2830   -3.0770 C   0  0  0  0  0  0  0  0  0  0  0  0
   20.9360   -7.2190   -2.0000 C   0  0  0  0  0  0  0  0  0  0  0  0
   20.0750   -7.3500   -0.7490 C   0  0  0  0  0  0  0  0  0  0  0  0
   19.2050   -6.1150   -0.5180 C   0  0  0  0  0  0  0  0  0  0  0  0
   19.8730   -4.8100   -0.9440 C   0  0  0  0  0  0  0  0  0  0  0  0
   18.8360   -3.6950   -1.0560 C   0  0  0  0  0  0  0  0  0  0  0  0
   19.4640   -2.3680   -1.4680 C   0  0  0  0  0  0  0  0  0  0  0  0
   18.3950   -1.3540   -1.8610 C   0  0  0  0  0  0  0  0  0  0  0  0
   19.0150   -0.1270   -2.2640 O   0  0  0  0  0  0  0  0  0  0  0  0
   20.8910  -11.5870   -4.1940 N   0  0  0  0  0  0  0  0  0  0  0  0
   21.4420  -12.5740   -5.1150 C   0  0  0  0  0  0  0  0  0  0  0  0
   20.6930  -12.6810   -6.4410 C   0  0  0  0  0  0  0  0  0  0  0  0
   21.2490  -13.7950   -7.3240 C   0  0  0  0  0  0  0  0  0  0  0  0
   20.6540  -15.1070   -6.9810 C   0  0  0  0  0  0  0  0  0  0  0  0
   20.1940  -16.1790   -6.7470 C   0  0  0  0  0  0  0  0  0  0  0  0
   19.6920  -17.3490   -6.4900 C   0  0  0  0  0  0  0  0  0  0  0  0
   19.4060  -18.2570   -7.4970 C   0  0  0  0  0  0  0  0  0  0  0  0
   18.8800  -19.4620   -7.2140 N   0  0  0  0  0  0  0  0  0  0  0  0
   18.5820  -19.8020   -5.8750 C   0  0  0  0  0  0  0  0  0  0  0  0
   18.0860  -20.9280   -5.6260 O   0  0  0  0  0  0  0  0  0  0  0  0
   18.8310  -18.9470   -4.8700 N   0  0  0  0  0  0  0  0  0  0  0  0
   19.3650  -17.7420   -5.0960 C   0  0  0  0  0  0  0  0  0  0  0  0
   19.5950  -16.9620   -4.1440 O   0  0  0  0  0  0  0  0  0  0  0  0
   18.5680  -20.4360   -8.2860 C   0  0  0  0  0  0  0  0  0  0  0  0
   19.4520  -20.2370   -9.3960 O   0  0  0  0  0  0  0  0  0  0  0  0
   18.7050  -19.9070  -10.5820 C   0  0  0  0  0  0  0  0  0  0  0  0
   17.3840  -19.3550  -10.0710 C   0  0  0  0  0  0  0  0  0  0  0  0
   16.2960  -19.5090  -11.0060 O   0  0  0  0  0  0  0  0  0  0  0  0
   17.1580  -20.1570   -8.8000 C   0  0  0  0  0  0  0  0  0  0  0  0
   19.4650  -18.9230  -11.4730 C   0  0  0  0  0  0  0  0  0  0  0  0
   19.7040  -17.7060  -10.7660 O   0  0  0  0  0  0  0  0  0  0  0  0
   19.5240  -16.2830  -11.4950 P   0  0  0  0  0  0  0  0  0  0  0  0
   20.2020  -15.1980  -10.6890 O   0  0  0  0  0  0  0  0  0  0  0  0
   19.8020  -16.3810  -12.9810 O   0  0  0  0  0  0  0  0  0  0  0  0
   17.9350  -16.0900  -11.2350 O   0  0  0  0  0  0  0  0  0  0  0  0
   16.7350  -16.3010  -12.3100 P   0  0  0  0  0  0  0  0  0  0  0  0
   17.1990  -17.0950  -13.5180 O   0  0  0  0  0  0  0  0  0  0  0  0
   15.5940  -16.8500  -11.4840 O   0  0  0  0  0  0  0  0  0  0  0  0
   16.3570  -14.7600  -12.6300 O   0  0  0  0  0  0  0  0  0  0  0  0
   16.8890  -13.8300  -13.8460 P   0  0  0  0  0  0  0  0  0  0  0  0
   15.6620  -13.5730  -14.6790 O   0  0  0  0  0  0  0  0  0  0  0  0
   17.3990  -12.5900  -13.1460 O   0  0  0  0  0  0  0  0  0  0  0  0
   17.9920  -14.6040  -14.5550 O   0  0  0  0  0  0  0  0  0  0  0  0
   20.1530  -10.2038   -2.2391 H   0  0  0  0  0  0  0  0  0  0  0  0
   21.8280   -9.6637   -1.8745 H   0  0  0  0  0  0  0  0  0  0  0  0
   21.2785   -8.0270   -3.9644 H   0  0  0  0  0  0  0  0  0  0  0  0
   19.5996   -8.2787   -3.2785 H   0  0  0  0  0  0  0  0  0  0  0  0
   21.9912   -7.2864   -1.6967 H   0  0  0  0  0  0  0  0  0  0  0  0
   20.6733   -6.2523   -2.4544 H   0  0  0  0  0  0  0  0  0  0  0  0
   19.4220   -8.2285   -0.8582 H   0  0  0  0  0  0  0  0  0  0  0  0
   20.7472   -7.4573    0.1151 H   0  0  0  0  0  0  0  0  0  0  0  0
   18.9690   -6.0512    0.5545 H   0  0  0  0  0  0  0  0  0  0  0  0
   18.3039   -6.2340   -1.1376 H   0  0  0  0  0  0  0  0  0  0  0  0
   20.3587   -4.9531   -1.9205 H   0  0  0  0  0  0  0  0  0  0  0  0
   20.6210   -4.5280   -0.1884 H   0  0  0  0  0  0  0  0  0  0  0  0
   18.3453   -3.5674   -0.0798 H   0  0  0  0  0  0  0  0  0  0  0  0
   18.1113   -3.9826   -1.8320 H   0  0  0  0  0  0  0  0  0  0  0  0
   20.1315   -2.5373   -2.3258 H   0  0  0  0  0  0  0  0  0  0  0  0
   20.0281   -1.9676   -0.6127 H   0  0  0  0  0  0  0  0  0  0  0  0
   17.7368   -1.1651   -1.0002 H   0  0  0  0  0  0  0  0  0  0  0  0
   17.8045   -1.7547   -2.6981 H   0  0  0  0  0  0  0  0  0  0  0  0
   19.2762    0.3900   -1.4611 H   0  0  0  0  0  0  0  0  0  0  0  0
   19.9531  -11.7459   -3.7991 H   0  0  0  0  0  0  0  0  0  0  0  0
   21.4145  -13.5576   -4.6232 H   0  0  0  0  0  0  0  0  0  0  0  0
   22.4639  -12.2454   -5.3554 H   0  0  0  0  0  0  0  0  0  0  0  0
   20.7823  -11.7248   -6.9774 H   0  0  0  0  0  0  0  0  0  0  0  0
   19.6416  -12.9163   -6.2191 H   0  0  0  0  0  0  0  0  0  0  0  0
   22.3390  -13.8498   -7.1865 H   0  0  0  0  0  0  0  0  0  0  0  0
   20.9975  -13.5646   -8.3698 H   0  0  0  0  0  0  0  0  0  0  0  0
   19.6123  -17.9882   -8.5435 H   0  0  0  0  0  0  0  0  0  0  0  0
   18.6058  -19.2253   -3.9042 H   0  0  0  0  0  0  0  0  0  0  0  0
   18.6680  -21.4544   -7.8825 H   0  0  0  0  0  0  0  0  0  0  0  0
   18.5403  -20.7801  -11.2305 H   0  0  0  0  0  0  0  0  0  0  0  0
   17.4208  -18.2675   -9.9098 H   0  0  0  0  0  0  0  0  0  0  0  0
   15.4483  -19.6290  -10.5090 H   0  0  0  0  0  0  0  0  0  0  0  0
   16.5823  -19.5736   -8.0663 H   0  0  0  0  0  0  0  0  0  0  0  0
   16.5810  -21.0768   -8.9759 H   0  0  0  0  0  0  0  0  0  0  0  0
   18.8681  -18.7104  -12.3722 H   0  0  0  0  0  0  0  0  0  0  0  0
   20.4290  -19.3679  -11.7607 H   0  0  0  0  0  0  0  0  0  0  0  0
   20.0863  -15.3831   -9.7234 H   0  0  0  0  0  0  0  0  0  0  0  0
   15.8045  -16.7487  -10.5220 H   0  0  0  0  0  0  0  0  0  0  0  0
   17.3460  -12.7190  -12.1659 H   0  0  0  0  0  0  0  0  0  0  0  0
   18.5868  -15.0214  -13.8826 H   0  0  0  0  0  0  0  0  0  0  0  0
 44 43  2  0
 46 43  1  0
 43 45  1  0
 43 42  1  0
 40 39  2  0
 37 35  2  0
 42 39  1  0
 39 41  1  0
 39 38  1  0
 35 38  1  0
 35 34  1  0
 35 36  1  0
 33 34  1  0
 33 29  1  0
 31 30  1  0
 29 30  1  0
 29 28  1  0
 30 32  1  0
 28 27  1  0
 32 27  1  0
 27 21  1  0
 20 21  1  0
 20 19  2  0
 16 17  1  0
 16 15  1  0
 21 22  1  0
 17 18  3  0
 18 19  1  0
 19 25  1  0
 15 14  1  0
 22 23  2  0
 22 24  1  0
 14 13  1  0
 25 24  1  0
 25 26  2  0
  1  2  2  0
 13  2  1  0
  2  3  1  0
  4  3  1  0
  4  5  1  0
 12 11  1  0
  5  6  1  0
 11 10  1  0
 10  9  1  0
  9  8  1  0
  8  7  1  0
  6  7  1  0
  3 47  1  0
  3 48  1  0
  4 49  1  0
  4 50  1  0
  5 51  1  0
  5 52  1  0
  6 53  1  0
  6 54  1  0
  7 55  1  0
  7 56  1  0
  8 57  1  0
  8 58  1  0
  9 59  1  0
  9 60  1  0
 10 61  1  0
 10 62  1  0
 11 63  1  0
 11 64  1  0
 12 65  1  0
 13 66  1  0
 14 67  1  0
 14 68  1  0
 15 69  1  0
 15 70  1  0
 16 71  1  0
 16 72  1  0
 20 73  1  0
 24 74  1  0
 27 75  1  0
 29 76  1  0
 30 77  1  0
 31 78  1  0
 32 79  1  0
 32 80  1  0
 33 81  1  0
 33 82  1  0
 36 83  1  0
 41 84  1  0
 45 85  1  0
 46 86  1  0
A    1
O36
A    2
C35
A    3
C37
A    4
C38
A    5
C39
A    6
C40
A    7
C41
A    8
C42
A    9
C43
A   10
C44
A   11
C45
A   12
O46
A   13
N34
A   14
C33
A   15
C32
A   16
C31
A   17
C30
A   18
C29
A   19
C5
A   20
C6
A   21
N1
A   22
C2
A   23
O2
A   24
N3
A   25
C4
A   26
O4
A   27
C1'
A   28
O4'
A   29
C4'
A   30
C3'
A   31
O3'
A   32
C2'
A   33
C5'
A   34
O5'
A   35
PA
A   36
O1A
A   37
O2A
A   38
O3A
A   39
PB
A   40
O1B
A   41
O2B
A   42
O3B
A   43
PG
A   44
O1G
A   45
O3G
A   46
O2G
M  END
