4DFL_0K0_A_701
     RDKit          3D

 52 54  0  0  0  0  0  0  0  0999 V2000
    0.6800   -1.0190   14.5190 C   0  0  0  0  0  0  0  0  0  0  0  0
    0.1780   -0.2040   13.5150 C   0  0  0  0  0  0  0  0  0  0  0  0
   -0.1410   -1.9360   15.1640 C   0  0  0  0  0  0  0  0  0  0  0  0
   -1.1500   -0.3160   13.1280 C   0  0  0  0  0  0  0  0  0  0  0  0
   -1.4630   -2.0350   14.7880 C   0  0  0  0  0  0  0  0  0  0  0  0
   -1.9670   -1.2290   13.7860 C   0  0  0  0  0  0  0  0  0  0  0  0
    2.0800   -0.8490   14.8630 C   0  0  0  0  0  0  0  0  0  0  0  0
    2.7550   -1.6360   15.7810 C   0  0  0  0  0  0  0  0  0  0  0  0
    4.0770   -1.3830   16.0350 N   0  0  0  0  0  0  0  0  0  0  0  0
    4.0730    0.4120   14.4360 C   0  0  0  0  0  0  0  0  0  0  0  0
    4.7410   -0.3550   15.3710 C   0  0  0  0  0  0  0  0  0  0  0  0
    5.7620    1.9600   13.9340 O   0  0  0  0  0  0  0  0  0  0  0  0
    4.1950    3.3130   11.9700 C   0  0  0  0  0  0  0  0  0  0  0  0
    2.9890    4.2530   12.0310 C   0  0  0  0  0  0  0  0  0  0  0  0
    2.8270    4.8460   13.4450 C   0  0  0  0  0  0  0  0  0  0  0  0
    3.1330    5.4050   11.0290 C   0  0  0  0  0  0  0  0  0  0  0  0
    1.8000    6.1630   11.0190 C   0  0  0  0  0  0  0  0  0  0  0  0
    1.4660    6.6540   12.3710 N   0  0  0  0  0  0  0  0  0  0  0  0
    0.4130    1.6000   11.2630 O   0  0  0  0  0  0  0  0  0  0  0  0
   -1.3290    3.1870   12.5510 C   0  0  0  0  0  0  0  0  0  0  0  0
   -1.6070    2.0940   10.1510 O   0  0  0  0  0  0  0  0  0  0  0  0
   -1.0030    1.8100   11.4370 S   0  0  0  0  0  0  0  0  0  0  0  0
   -1.7250    0.5080   12.1270 N   0  0  0  0  0  0  0  0  0  0  0  0
    2.7420    0.1530   14.2040 N   0  0  0  0  0  0  0  0  0  0  0  0
    6.0840   -0.1510   15.6830 N   0  0  0  0  0  0  0  0  0  0  0  0
    4.6450    1.5490   13.6920 C   0  0  0  0  0  0  0  0  0  0  0  0
    3.8220    2.1360   12.7660 N   0  0  0  0  0  0  0  0  0  0  0  0
    1.5450    5.6930   13.4980 C   0  0  0  0  0  0  0  0  0  0  0  0
    0.8330    0.5316   13.0252 H   0  0  0  0  0  0  0  0  0  0  0  0
    0.2595   -2.5750   15.9648 H   0  0  0  0  0  0  0  0  0  0  0  0
   -2.1209   -2.7604   15.2889 H   0  0  0  0  0  0  0  0  0  0  0  0
   -3.0274   -1.3102   13.5051 H   0  0  0  0  0  0  0  0  0  0  0  0
    2.2355   -2.4549   16.3002 H   0  0  0  0  0  0  0  0  0  0  0  0
    4.4025    3.0223   10.9296 H   0  0  0  0  0  0  0  0  0  0  0  0
    5.1049    3.7941   12.3582 H   0  0  0  0  0  0  0  0  0  0  0  0
    2.1008    3.6567   11.7751 H   0  0  0  0  0  0  0  0  0  0  0  0
    2.7589    4.0303   14.1798 H   0  0  0  0  0  0  0  0  0  0  0  0
    3.6958    5.4781   13.6808 H   0  0  0  0  0  0  0  0  0  0  0  0
    3.3489    5.0080   10.0261 H   0  0  0  0  0  0  0  0  0  0  0  0
    3.9602    6.0714   11.3147 H   0  0  0  0  0  0  0  0  0  0  0  0
    1.8773    7.0195   10.3331 H   0  0  0  0  0  0  0  0  0  0  0  0
    1.0068    5.4771   10.6870 H   0  0  0  0  0  0  0  0  0  0  0  0
    2.1099    7.4293   12.5834 H   0  0  0  0  0  0  0  0  0  0  0  0
   -1.2476    2.8431   13.5927 H   0  0  0  0  0  0  0  0  0  0  0  0
   -0.5953    3.9864   12.3704 H   0  0  0  0  0  0  0  0  0  0  0  0
   -2.3433    3.5726   12.3704 H   0  0  0  0  0  0  0  0  0  0  0  0
   -2.6744    0.2694   11.8066 H   0  0  0  0  0  0  0  0  0  0  0  0
    6.3828   -0.1056   16.6677 H   0  0  0  0  0  0  0  0  0  0  0  0
    6.7777   -0.0456   14.9289 H   0  0  0  0  0  0  0  0  0  0  0  0
    2.8876    1.7280   12.6198 H   0  0  0  0  0  0  0  0  0  0  0  0
    1.5288    6.2536   14.4443 H   0  0  0  0  0  0  0  0  0  0  0  0
    0.6847    5.0116   13.4239 H   0  0  0  0  0  0  0  0  0  0  0  0
 21 22  2  0
 17 16  1  0
 17 18  1  0
 16 14  1  0
 19 22  2  0
 22 23  1  0
 22 20  1  0
 13 14  1  0
 13 27  1  0
 14 15  1  0
 23  4  1  0
 18 28  1  0
 27 26  1  0
  4  2  2  0
  4  6  1  0
 15 28  1  0
  2  1  1  0
 26 12  2  0
 26 10  1  0
  6  5  2  0
 24 10  2  0
 24  7  1  0
 10 11  1  0
  1  7  1  0
  1  3  2  0
  5  3  1  0
  7  8  2  0
 11 25  1  0
 11  9  2  0
  8  9  1  0
  2 29  1  0
  3 30  1  0
  5 31  1  0
  6 32  1  0
  8 33  1  0
 13 34  1  0
 13 35  1  0
 14 36  1  0
 15 37  1  0
 15 38  1  0
 16 39  1  0
 16 40  1  0
 17 41  1  0
 17 42  1  0
 18 43  1  0
 20 44  1  0
 20 45  1  0
 20 46  1  0
 23 47  1  0
 25 48  1  0
 25 49  1  0
 27 50  1  0
 28 51  1  0
 28 52  1  0
A    1
C1
A    2
C2
A    3
C3
A    4
C4
A    5
C5
A    6
C6
A    7
C7
A    8
C8
A    9
N10
A   10
C11
A   11
C12
A   12
O14
A   13
C16
A   14
C17
A   15
C18
A   16
C19
A   17
C21
A   18
N22
A   19
O26
A   20
C27
A   21
O28
A   22
S25
A   23
N24
A   24
N9
A   25
N23
A   26
C13
A   27
N15
A   28
C20
M  END
