3V51_I76_A_701
     RDKit          3D

 54 58  0  0  0  0  0  0  0  0999 V2000
   17.5330   17.8720   63.3040 C   0  0  0  0  0  0  0  0  0  0  0  0
   17.5160   16.5880   62.4770 C   0  0  0  0  0  0  0  0  0  0  0  0
   17.4140   16.9150   60.9690 C   0  0  0  0  0  0  0  0  0  0  0  0
   16.3950   15.7050   62.8790 N   0  0  0  0  0  0  0  0  0  0  0  0
   15.2470   16.0710   63.1930 N   0  0  0  0  0  0  0  0  0  0  0  0
   16.5240   14.3880   62.9050 C   0  0  0  0  0  0  0  0  0  0  0  0
   17.5700   13.5810   62.6500 N   0  0  0  0  0  0  0  0  0  0  0  0
   17.4310   12.2710   62.7750 C   0  0  0  0  0  0  0  0  0  0  0  0
   16.2800   11.7150   63.1410 N   0  0  0  0  0  0  0  0  0  0  0  0
   15.1950   12.4770   63.4180 C   0  0  0  0  0  0  0  0  0  0  0  0
   14.0690   11.8450   63.7770 N   0  0  0  0  0  0  0  0  0  0  0  0
   15.2950   13.8700   63.3070 C   0  0  0  0  0  0  0  0  0  0  0  0
   14.4860   15.0100   63.5050 C   0  0  0  0  0  0  0  0  0  0  0  0
   13.1230   15.0230   63.8770 C   0  0  0  0  0  0  0  0  0  0  0  0
   12.6270   14.3670   65.0030 C   0  0  0  0  0  0  0  0  0  0  0  0
   12.2150   15.7750   63.1030 C   0  0  0  0  0  0  0  0  0  0  0  0
   10.8550   15.8130   63.4260 C   0  0  0  0  0  0  0  0  0  0  0  0
   10.3640   15.1280   64.5220 C   0  0  0  0  0  0  0  0  0  0  0  0
    9.0160   15.1700   64.8330 C   0  0  0  0  0  0  0  0  0  0  0  0
   11.2660   14.4120   65.3270 C   0  0  0  0  0  0  0  0  0  0  0  0
   10.7910   13.7280   66.4270 C   0  0  0  0  0  0  0  0  0  0  0  0
    9.4420   13.7650   66.7380 C   0  0  0  0  0  0  0  0  0  0  0  0
    8.5440   14.4890   65.9430 C   0  0  0  0  0  0  0  0  0  0  0  0
    7.2300   14.4700   66.3220 O   0  0  0  0  0  0  0  0  0  0  0  0
    6.1450   14.8770   65.4390 C   0  0  0  0  0  0  0  0  0  0  0  0
    4.8880   15.0650   66.0690 C   0  0  0  0  0  0  0  0  0  0  0  0
    3.8240   15.6870   65.4080 C   0  0  0  0  0  0  0  0  0  0  0  0
    2.6290   15.8800   66.0930 C   0  0  0  0  0  0  0  0  0  0  0  0
    1.3210   16.6410   65.2720 Cl  0  0  0  0  0  0  0  0  0  0  0  0
    2.4610   15.4820   67.4100 C   0  0  0  0  0  0  0  0  0  0  0  0
    3.5260   14.8710   68.0740 C   0  0  0  0  0  0  0  0  0  0  0  0
    4.7120   14.6800   67.3980 C   0  0  0  0  0  0  0  0  0  0  0  0
   17.5296   17.6188   64.3744 H   0  0  0  0  0  0  0  0  0  0  0  0
   18.4389   18.4491   63.0666 H   0  0  0  0  0  0  0  0  0  0  0  0
   16.6427   18.4729   63.0666 H   0  0  0  0  0  0  0  0  0  0  0  0
   18.4603   16.0564   62.6663 H   0  0  0  0  0  0  0  0  0  0  0  0
   17.0887   17.9580   60.8412 H   0  0  0  0  0  0  0  0  0  0  0  0
   18.3978   16.7773   60.4966 H   0  0  0  0  0  0  0  0  0  0  0  0
   16.6830   16.2424   60.4966 H   0  0  0  0  0  0  0  0  0  0  0  0
   18.2948   11.6216   62.5697 H   0  0  0  0  0  0  0  0  0  0  0  0
   13.8447   11.7191   64.7744 H   0  0  0  0  0  0  0  0  0  0  0  0
   13.4280   11.4852   63.0555 H   0  0  0  0  0  0  0  0  0  0  0  0
   13.3176   13.8041   65.6482 H   0  0  0  0  0  0  0  0  0  0  0  0
   12.5818   16.3395   62.2331 H   0  0  0  0  0  0  0  0  0  0  0  0
   10.1654   16.3967   62.7986 H   0  0  0  0  0  0  0  0  0  0  0  0
    8.3215   15.7425   64.2006 H   0  0  0  0  0  0  0  0  0  0  0  0
   11.4846   13.1526   67.0577 H   0  0  0  0  0  0  0  0  0  0  0  0
    9.0716   13.2200   67.6188 H   0  0  0  0  0  0  0  0  0  0  0  0
    6.0258   14.1019   64.6676 H   0  0  0  0  0  0  0  0  0  0  0  0
    6.4331   15.8593   65.0364 H   0  0  0  0  0  0  0  0  0  0  0  0
    3.9304   16.0179   64.3644 H   0  0  0  0  0  0  0  0  0  0  0  0
    1.5025   15.6452   67.9244 H   0  0  0  0  0  0  0  0  0  0  0  0
    3.4205   14.5471   69.1199 H   0  0  0  0  0  0  0  0  0  0  0  0
    5.5518   14.2058   67.9269 H   0  0  0  0  0  0  0  0  0  0  0  0
  3  2  1  0
  2  4  1  0
  2  1  1  0
  7  8  1  0
  7  6  2  0
  8  9  2  0
  4  6  1  0
  4  5  1  0
  6 12  1  0
 16 17  2  0
 16 14  1  0
  9 10  1  0
  5 13  2  0
 12 10  2  0
 12 13  1  0
 10 11  1  0
 17 18  1  0
 13 14  1  0
 14 15  2  0
 18 19  1  0
 18 20  2  0
 19 23  2  0
 15 20  1  0
 29 28  1  0
 20 21  1  0
 27 26  2  0
 27 28  1  0
 25 26  1  0
 25 24  1  0
 23 24  1  0
 23 22  1  0
 26 32  1  0
 28 30  2  0
 21 22  2  0
 32 31  2  0
 30 31  1  0
  1 33  1  0
  1 34  1  0
  1 35  1  0
  2 36  1  0
  3 37  1  0
  3 38  1  0
  3 39  1  0
  8 40  1  0
 11 41  1  0
 11 42  1  0
 15 43  1  0
 16 44  1  0
 17 45  1  0
 19 46  1  0
 21 47  1  0
 22 48  1  0
 25 49  1  0
 25 50  1  0
 27 51  1  0
 30 52  1  0
 31 53  1  0
 32 54  1  0
A    1
CAA
A    2
CBE
A    3
CAB
A    4
NBF
A    5
NAS
A    6
C4
A    7
N3
A    8
C2
A    9
N1
A   10
C6
A   11
NAC
A   12
C5
A   13
CAZ
A   14
CAY
A   15
CAO
A   16
CAI
A   17
CAK
A   18
CBA
A   19
CAN
A   20
CBB
A   21
CAJ
A   22
CAH
A   23
CAW
A   24
OAT
A   25
CAP
A   26
CAV
A   27
CAM
A   28
CAU
A   29
CLD
A   30
CAF
A   31
CAE
A   32
CAG
M  END
