4DHP_Y07_A_309
     RDKit          3D

 38 39  0  0  0  0  0  0  0  0999 V2000
   21.5250   13.1490  -11.8130 O   0  0  0  0  0  0  0  0  0  0  0  0
   21.8430   13.6180  -10.3440 P   0  0  0  0  0  0  0  0  0  0  0  0
   20.8240   14.7780   -9.9020 O   0  0  0  0  0  0  0  0  0  0  0  0
   21.7470   12.5100   -9.3320 O   0  0  0  0  0  0  0  0  0  0  0  0
   23.4970   14.3880  -10.3950 C   0  0  0  0  0  0  0  0  0  0  0  0
   23.6140   15.7680  -10.2120 C   0  0  0  0  0  0  0  0  0  0  0  0
   24.8940   16.3370  -10.2560 C   0  0  0  0  0  0  0  0  0  0  0  0
   26.0270   15.5330  -10.4850 C   0  0  0  0  0  0  0  0  0  0  0  0
   25.8910   14.1440  -10.6830 C   0  0  0  0  0  0  0  0  0  0  0  0
   24.6000   13.5800  -10.6310 C   0  0  0  0  0  0  0  0  0  0  0  0
   24.3740   12.2360  -10.8260 O   0  0  0  0  0  0  0  0  0  0  0  0
   25.2480   11.2500  -10.2140 C   0  0  0  0  0  0  0  0  0  0  0  0
   24.4740   10.0440   -9.6160 C   0  0  0  0  0  0  0  0  0  0  0  0
   25.1150    9.0180   -9.3970 O   0  0  0  0  0  0  0  0  0  0  0  0
   23.1640   10.1320   -9.3620 N   0  0  0  0  0  0  0  0  0  0  0  0
   22.4860    9.1360   -8.7540 C   0  0  0  0  0  0  0  0  0  0  0  0
   22.4140    9.1630   -7.3640 C   0  0  0  0  0  0  0  0  0  0  0  0
   21.7310    8.1840   -6.6480 C   0  0  0  0  0  0  0  0  0  0  0  0
   21.6870    8.2640   -5.1110 C   0  0  0  0  0  0  0  0  0  0  0  0
   21.1080    7.1910   -4.5740 F   0  0  0  0  0  0  0  0  0  0  0  0
   20.9830    9.3300   -4.7680 F   0  0  0  0  0  0  0  0  0  0  0  0
   22.9190    8.4000   -4.6410 F   0  0  0  0  0  0  0  0  0  0  0  0
   21.1110    7.1500   -7.3350 C   0  0  0  0  0  0  0  0  0  0  0  0
   21.1570    7.1170   -8.7260 C   0  0  0  0  0  0  0  0  0  0  0  0
   21.8420    8.1010   -9.4320 C   0  0  0  0  0  0  0  0  0  0  0  0
   21.8780    8.0110  -11.1540 Cl  0  0  0  0  0  0  0  0  0  0  0  0
   20.7842   14.8234   -8.9138 H   0  0  0  0  0  0  0  0  0  0  0  0
   21.7802   12.8927   -8.4196 H   0  0  0  0  0  0  0  0  0  0  0  0
   22.7248   16.3917  -10.0379 H   0  0  0  0  0  0  0  0  0  0  0  0
   25.0145   17.4206  -10.1104 H   0  0  0  0  0  0  0  0  0  0  0  0
   27.0262   15.9924  -10.5096 H   0  0  0  0  0  0  0  0  0  0  0  0
   26.7725   13.5142  -10.8738 H   0  0  0  0  0  0  0  0  0  0  0  0
   25.9444   10.8756  -10.9788 H   0  0  0  0  0  0  0  0  0  0  0  0
   25.7764   11.7460   -9.3864 H   0  0  0  0  0  0  0  0  0  0  0  0
   22.6575   10.9852   -9.6386 H   0  0  0  0  0  0  0  0  0  0  0  0
   22.9096    9.9789   -6.8175 H   0  0  0  0  0  0  0  0  0  0  0  0
   20.5844    6.3583   -6.7818 H   0  0  0  0  0  0  0  0  0  0  0  0
   20.6485    6.3077   -9.2705 H   0  0  0  0  0  0  0  0  0  0  0  0
  1  2  2  0
 26 25  1  0
 11 10  1  0
 11 12  1  0
  9 10  1  0
  9  8  2  0
 10  5  2  0
  8  7  1  0
  5  2  1  0
  5  6  1  0
  2  3  1  0
  2  4  1  0
  7  6  2  0
 12 13  1  0
 13 14  2  0
 13 15  1  0
 25 16  1  0
 25 24  2  0
 15 16  1  0
 16 17  2  0
 24 23  1  0
 17 18  1  0
 23 18  2  0
 18 19  1  0
 19 21  1  0
 19 22  1  0
 19 20  1  0
  3 27  1  0
  4 28  1  0
  6 29  1  0
  7 30  1  0
  8 31  1  0
  9 32  1  0
 12 33  1  0
 12 34  1  0
 15 35  1  0
 17 36  1  0
 23 37  1  0
 24 38  1  0
A    1
OAI
A    2
PAG
A    3
OAJ
A    4
OAH
A    5
CAC
A    6
CAD
A    7
CAE
A    8
CAF
A    9
CAA
A   10
CAB
A   11
OAK
A   12
CAL
A   13
CAM
A   14
OAO
A   15
NAN
A   16
CAP
A   17
CAU
A   18
CAQ
A   19
CAW
A   20
FAY
A   21
FAZ
A   22
FAX
A   23
CAR
A   24
CAS
A   25
CAT
A   26
CL1
M  END
