4DHR_Y04_A_309
     RDKit          3D

 35 36  0  0  0  0  0  0  0  0999 V2000
   21.7050   13.2550  -11.6490 O   0  0  0  0  0  0  0  0  0  0  0  0
   21.8760   13.7000  -10.2320 P   0  0  0  0  0  0  0  0  0  0  0  0
   21.9420   12.5040   -9.2750 O   0  0  0  0  0  0  0  0  0  0  0  0
   20.8670   14.7550   -9.7410 O   0  0  0  0  0  0  0  0  0  0  0  0
   23.5740   14.5030  -10.2870 C   0  0  0  0  0  0  0  0  0  0  0  0
   23.6850   15.8970  -10.0240 C   0  0  0  0  0  0  0  0  0  0  0  0
   25.0010   16.4570  -10.0520 C   0  0  0  0  0  0  0  0  0  0  0  0
   26.1440   15.7210  -10.3900 C   0  0  0  0  0  0  0  0  0  0  0  0
   26.0310   14.3240  -10.6320 C   0  0  0  0  0  0  0  0  0  0  0  0
   24.7270   13.7770  -10.5840 C   0  0  0  0  0  0  0  0  0  0  0  0
   24.4690   12.4470  -10.8570 O   0  0  0  0  0  0  0  0  0  0  0  0
   25.5110   11.4320  -10.6740 C   0  0  0  0  0  0  0  0  0  0  0  0
   24.8060   10.0600  -10.4340 C   0  0  0  0  0  0  0  0  0  0  0  0
   25.4700    9.0270  -10.6130 O   0  0  0  0  0  0  0  0  0  0  0  0
   23.5000   10.1030  -10.0410 N   0  0  0  0  0  0  0  0  0  0  0  0
   22.7510    8.9540   -9.9330 C   0  0  0  0  0  0  0  0  0  0  0  0
   22.2130    8.6230   -8.6820 C   0  0  0  0  0  0  0  0  0  0  0  0
   22.5870    9.5550   -7.2860 Cl  0  0  0  0  0  0  0  0  0  0  0  0
   21.3710    7.5350   -8.5190 C   0  0  0  0  0  0  0  0  0  0  0  0
   20.9570    6.8750   -9.6170 C   0  0  0  0  0  0  0  0  0  0  0  0
   21.4450    7.1650  -10.8480 C   0  0  0  0  0  0  0  0  0  0  0  0
   22.3120    8.2420  -11.0180 C   0  0  0  0  0  0  0  0  0  0  0  0
   21.9241   12.8283   -8.3398 H   0  0  0  0  0  0  0  0  0  0  0  0
   20.8565   14.7660   -8.7511 H   0  0  0  0  0  0  0  0  0  0  0  0
   22.8006   16.5148   -9.8093 H   0  0  0  0  0  0  0  0  0  0  0  0
   25.1216   17.5197   -9.7950 H   0  0  0  0  0  0  0  0  0  0  0  0
   27.1214   16.2197  -10.4677 H   0  0  0  0  0  0  0  0  0  0  0  0
   26.9120   13.7009  -10.8455 H   0  0  0  0  0  0  0  0  0  0  0  0
   26.1410   11.3763  -11.5740 H   0  0  0  0  0  0  0  0  0  0  0  0
   26.1511   11.6895   -9.8172 H   0  0  0  0  0  0  0  0  0  0  0  0
   23.0673   11.0116   -9.8214 H   0  0  0  0  0  0  0  0  0  0  0  0
   21.0484    7.2179   -7.5163 H   0  0  0  0  0  0  0  0  0  0  0  0
   20.2037    6.0803   -9.5126 H   0  0  0  0  0  0  0  0  0  0  0  0
   21.1563    6.5497  -11.7129 H   0  0  0  0  0  0  0  0  0  0  0  0
   22.6457    8.5221  -12.0281 H   0  0  0  0  0  0  0  0  0  0  0  0
  1  2  2  0
 22 21  2  0
 22 16  1  0
 11 12  1  0
 11 10  1  0
 21 20  1  0
 12 13  1  0
  9 10  1  0
  9  8  2  0
 14 13  2  0
 10  5  2  0
 13 15  1  0
  8  7  1  0
  5  2  1  0
  5  6  1  0
  2  4  1  0
  2  3  1  0
  7  6  2  0
 15 16  1  0
 16 17  2  0
 20 19  2  0
 17 19  1  0
 17 18  1  0
  3 23  1  0
  4 24  1  0
  6 25  1  0
  7 26  1  0
  8 27  1  0
  9 28  1  0
 12 29  1  0
 12 30  1  0
 15 31  1  0
 19 32  1  0
 20 33  1  0
 21 34  1  0
 22 35  1  0
A    1
OAC
A    2
PAV
A    3
OAD
A    4
OAB
A    5
CAU
A    6
CAM
A    7
CAI
A    8
CAH
A    9
CAL
A   10
CAT
A   11
OAP
A   12
CAN
A   13
CAQ
A   14
OAA
A   15
NAO
A   16
CAS
A   17
CAR
A   18
CL1
A   19
CAJ
A   20
CAF
A   21
CAG
A   22
CAK
M  END
