4DHS_Y03_A_307
     RDKit          3D

 35 36  0  0  0  0  0  0  0  0999 V2000
   20.8860   14.6260   -9.7690 O   0  0  0  0  0  0  0  0  0  0  0  0
   21.9410   13.5980  -10.3920 P   0  0  0  0  0  0  0  0  0  0  0  0
   21.6920   13.0790  -11.8370 O   0  0  0  0  0  0  0  0  0  0  0  0
   21.8810   12.3940   -9.4770 O   0  0  0  0  0  0  0  0  0  0  0  0
   23.6140   14.4080  -10.4240 C   0  0  0  0  0  0  0  0  0  0  0  0
   23.7700   15.7720  -10.1540 C   0  0  0  0  0  0  0  0  0  0  0  0
   25.0530   16.3370  -10.1640 C   0  0  0  0  0  0  0  0  0  0  0  0
   26.1900   15.5680  -10.4690 C   0  0  0  0  0  0  0  0  0  0  0  0
   26.0070   14.2050  -10.7500 C   0  0  0  0  0  0  0  0  0  0  0  0
   24.7220   13.6490  -10.7170 C   0  0  0  0  0  0  0  0  0  0  0  0
   24.4660   12.3360  -10.9890 O   0  0  0  0  0  0  0  0  0  0  0  0
   25.4990   11.3430  -10.8430 C   0  0  0  0  0  0  0  0  0  0  0  0
   24.8090   10.0180  -10.4850 C   0  0  0  0  0  0  0  0  0  0  0  0
   25.4490    8.9680  -10.4670 O   0  0  0  0  0  0  0  0  0  0  0  0
   23.4970   10.1220  -10.2160 N   0  0  0  0  0  0  0  0  0  0  0  0
   22.7850    9.0630   -9.8190 C   0  0  0  0  0  0  0  0  0  0  0  0
   22.2880    8.1670  -10.7450 C   0  0  0  0  0  0  0  0  0  0  0  0
   21.5300    7.0940  -10.3000 C   0  0  0  0  0  0  0  0  0  0  0  0
   20.9800    6.0360  -11.4110 Cl  0  0  0  0  0  0  0  0  0  0  0  0
   21.2590    6.8870   -8.9590 C   0  0  0  0  0  0  0  0  0  0  0  0
   21.7490    7.7820   -8.0360 C   0  0  0  0  0  0  0  0  0  0  0  0
   21.4120    7.5160   -6.3830 Cl  0  0  0  0  0  0  0  0  0  0  0  0
   22.5060    8.8770   -8.4590 C   0  0  0  0  0  0  0  0  0  0  0  0
   20.9287   14.5844   -8.7808 H   0  0  0  0  0  0  0  0  0  0  0  0
   21.8960   12.6951   -8.5340 H   0  0  0  0  0  0  0  0  0  0  0  0
   22.8916   16.3970   -9.9353 H   0  0  0  0  0  0  0  0  0  0  0  0
   25.1728   17.4047   -9.9282 H   0  0  0  0  0  0  0  0  0  0  0  0
   27.1923   16.0208  -10.4868 H   0  0  0  0  0  0  0  0  0  0  0  0
   26.8732   13.5733  -10.9962 H   0  0  0  0  0  0  0  0  0  0  0  0
   26.0545   11.2357  -11.7864 H   0  0  0  0  0  0  0  0  0  0  0  0
   26.2132   11.6353  -10.0591 H   0  0  0  0  0  0  0  0  0  0  0  0
   23.0311   11.0350  -10.3176 H   0  0  0  0  0  0  0  0  0  0  0  0
   22.4900    8.3021  -11.8178 H   0  0  0  0  0  0  0  0  0  0  0  0
   20.6618    6.0214   -8.6363 H   0  0  0  0  0  0  0  0  0  0  0  0
   22.8854    9.5977   -7.7196 H   0  0  0  0  0  0  0  0  0  0  0  0
  3  2  2  0
 19 18  1  0
 11 12  1  0
 11 10  1  0
 12 13  1  0
  9 10  1  0
  9  8  2  0
 17 18  2  0
 17 16  1  0
 10  5  2  0
 13 14  2  0
 13 15  1  0
  8  7  1  0
  5  2  1  0
  5  6  1  0
  2  1  1  0
  2  4  1  0
 18 20  1  0
 15 16  1  0
  7  6  2  0
 16 23  2  0
 20 21  2  0
 23 21  1  0
 21 22  1  0
  1 24  1  0
  4 25  1  0
  6 26  1  0
  7 27  1  0
  8 28  1  0
  9 29  1  0
 12 30  1  0
 12 31  1  0
 15 32  1  0
 17 33  1  0
 20 34  1  0
 23 35  1  0
A    1
OAS
A    2
PAR
A    3
OAU
A    4
OAT
A    5
CAM
A    6
CAN
A    7
CAO
A    8
CAP
A    9
CAQ
A   10
CAL
A   11
OAK
A   12
CAA
A   13
CAB
A   14
OAD
A   15
NAC
A   16
CAE
A   17
CAF
A   18
CAG
A   19
CL1
A   20
CAH
A   21
CAI
A   22
CL2
A   23
CAJ
M  END
