4D95_0GY_A_403
     RDKit          3D

 20 19  0  0  0  0  0  0  0  0999 V2000
   22.1950    8.4660   -4.1760 C   0  0  0  0  0  0  0  0  0  0  0  0
   23.4720    8.4140   -4.9100 C   0  0  0  0  0  0  0  0  0  0  0  0
   23.5750    7.8740   -6.1340 C   0  0  0  0  0  0  0  0  0  0  0  0
   22.4510    7.1250   -6.7440 C   0  0  0  0  0  0  0  0  0  0  0  0
   21.2710    7.7060   -7.0450 C   0  0  0  0  0  0  0  0  0  0  0  0
   19.0160    7.1960   -7.3640 O   0  0  0  0  0  0  0  0  0  0  0  0
   20.2040    6.9140   -7.6460 C   0  0  0  0  0  0  0  0  0  0  0  0
   20.5080    5.9790   -8.4260 O   0  0  0  0  0  0  0  0  0  0  0  0
   21.0400    8.9970   -6.8150 O   0  0  0  0  0  0  0  0  0  0  0  0
   24.8460    8.0400   -6.8480 C   0  0  0  0  0  0  0  0  0  0  0  0
   25.5520    9.0520   -6.6040 O   0  0  0  0  0  0  0  0  0  0  0  0
   25.2050    7.1640   -7.6630 O   0  0  0  0  0  0  0  0  0  0  0  0
   22.1200    9.2220   -3.1940 O   0  0  0  0  0  0  0  0  0  0  0  0
   21.2340    7.7540   -4.5330 O   0  0  0  0  0  0  0  0  0  0  0  0
   24.3728    8.8328   -4.4375 H   0  0  0  0  0  0  0  0  0  0  0  0
   22.5838    6.0545   -6.9596 H   0  0  0  0  0  0  0  0  0  0  0  0
   18.7345    7.2628   -6.4172 H   0  0  0  0  0  0  0  0  0  0  0  0
   20.9802    9.3312   -5.8850 H   0  0  0  0  0  0  0  0  0  0  0  0
   25.7347    9.3139   -5.6669 H   0  0  0  0  0  0  0  0  0  0  0  0
   22.1570    8.8486   -2.2779 H   0  0  0  0  0  0  0  0  0  0  0  0
  8  7  2  0
 12 10  2  0
  7  6  1  0
  7  5  1  0
  5  9  1  0
  5  4  2  0
 10 11  1  0
 10  3  1  0
  4  3  1  0
  3  2  2  0
  2  1  1  0
 14  1  2  0
  1 13  1  0
  2 15  1  0
  4 16  1  0
  6 17  1  0
  9 18  1  0
 11 19  1  0
 13 20  1  0
A    1
C2
A    2
C3
A    3
C4
A    4
C5
A    5
C6
A    6
O6B
A    7
C6A
A    8
O6A
A    9
O6
A   10
C4A
A   11
O4A
A   12
O4B
A   13
O2
A   14
O1
M  END
