4DIJ_BLF_A_201
     RDKit          3D

 69 74  0  0  0  0  0  0  0  0999 V2000
   12.7090   -9.0750   18.8870 Cl  0  0  0  0  0  0  0  0  0  0  0  0
   12.0520   -7.6310   18.1510 C   0  0  0  0  0  0  0  0  0  0  0  0
    8.7670   -6.0910   22.2560 Cl  0  0  0  0  0  0  0  0  0  0  0  0
   12.7340   -6.4230   18.3160 C   0  0  0  0  0  0  0  0  0  0  0  0
   12.1610   -5.3010   17.7070 C   0  0  0  0  0  0  0  0  0  0  0  0
   12.5870   -4.0290   17.7100 N   0  0  0  0  0  0  0  0  0  0  0  0
   11.7800   -3.2440   17.0240 C   0  0  0  0  0  0  0  0  0  0  0  0
   10.7620   -3.9760   16.5050 C   0  0  0  0  0  0  0  0  0  0  0  0
   10.9960   -5.3890   16.9740 C   0  0  0  0  0  0  0  0  0  0  0  0
   10.3070   -6.5850   16.7980 C   0  0  0  0  0  0  0  0  0  0  0  0
   10.8650   -7.7180   17.4000 C   0  0  0  0  0  0  0  0  0  0  0  0
    9.5420   -3.6910   15.7060 C   0  0  0  0  0  0  0  0  0  0  0  0
    8.4990   -3.0080   16.1850 N   0  0  0  0  0  0  0  0  0  0  0  0
    7.5430   -2.9440   15.2960 C   0  0  0  0  0  0  0  0  0  0  0  0
    7.8920   -3.5820   14.2700 N   0  0  0  0  0  0  0  0  0  0  0  0
    9.2090   -4.1250   14.4630 C   0  0  0  0  0  0  0  0  0  0  0  0
    9.9100   -4.9320   13.3980 C   0  0  0  0  0  0  0  0  0  0  0  0
   11.3070   -4.9210   13.3500 C   0  0  0  0  0  0  0  0  0  0  0  0
   11.9860   -5.6430   12.3550 C   0  0  0  0  0  0  0  0  0  0  0  0
   11.2530   -6.3720   11.4080 C   0  0  0  0  0  0  0  0  0  0  0  0
    9.8570   -6.3800   11.4430 C   0  0  0  0  0  0  0  0  0  0  0  0
    9.1840   -5.6520   12.4330 C   0  0  0  0  0  0  0  0  0  0  0  0
    8.4020   -2.3500   17.4820 C   0  0  0  0  0  0  0  0  0  0  0  0
    8.4870   -3.3210   18.6600 C   0  0  0  0  0  0  0  0  0  0  0  0
    7.8890   -4.5910   18.6150 C   0  0  0  0  0  0  0  0  0  0  0  0
    7.9810   -5.4480   19.7210 C   0  0  0  0  0  0  0  0  0  0  0  0
    8.6630   -5.0230   20.8690 C   0  0  0  0  0  0  0  0  0  0  0  0
    9.2600   -3.7520   20.9160 C   0  0  0  0  0  0  0  0  0  0  0  0
    9.1770   -2.8980   19.8040 C   0  0  0  0  0  0  0  0  0  0  0  0
   12.0350   -1.8030   16.8540 C   0  0  0  0  0  0  0  0  0  0  0  0
   12.9800   -1.3500   17.4920 O   0  0  0  0  0  0  0  0  0  0  0  0
   11.2970   -1.0570   16.0050 N   0  0  0  0  0  0  0  0  0  0  0  0
   11.5740    0.3650   15.8210 C   0  0  0  0  0  0  0  0  0  0  0  0
   11.4420    0.7060   14.3170 C   0  0  0  0  0  0  0  0  0  0  0  0
   10.0940    0.3220   13.8200 N   0  0  0  0  0  0  0  0  0  0  0  0
   10.0240    0.0680   12.3590 C   0  0  0  0  0  0  0  0  0  0  0  0
    8.6370   -0.5130   11.9940 C   0  0  0  0  0  0  0  0  0  0  0  0
    7.5890    0.3420   12.4850 O   0  0  0  0  0  0  0  0  0  0  0  0
    7.6240    0.5300   13.9140 C   0  0  0  0  0  0  0  0  0  0  0  0
    8.9770    1.1740   14.3090 C   0  0  0  0  0  0  0  0  0  0  0  0
   13.6687   -6.3575   18.8922 H   0  0  0  0  0  0  0  0  0  0  0  0
   13.4394   -3.7055   18.1892 H   0  0  0  0  0  0  0  0  0  0  0  0
    9.3743   -6.6369   16.2171 H   0  0  0  0  0  0  0  0  0  0  0  0
   10.3679   -8.6925   17.2844 H   0  0  0  0  0  0  0  0  0  0  0  0
    6.5863   -2.4165   15.4247 H   0  0  0  0  0  0  0  0  0  0  0  0
   11.8765   -4.3448   14.0941 H   0  0  0  0  0  0  0  0  0  0  0  0
   13.0854   -5.6366   12.3189 H   0  0  0  0  0  0  0  0  0  0  0  0
   11.7821   -6.9427   10.6306 H   0  0  0  0  0  0  0  0  0  0  0  0
    9.2886   -6.9549   10.6971 H   0  0  0  0  0  0  0  0  0  0  0  0
    8.0843   -5.6437   12.4553 H   0  0  0  0  0  0  0  0  0  0  0  0
    9.2240   -1.6241   17.5677 H   0  0  0  0  0  0  0  0  0  0  0  0
    7.4154   -1.8659   17.5290 H   0  0  0  0  0  0  0  0  0  0  0  0
    7.3488   -4.9132   17.7126 H   0  0  0  0  0  0  0  0  0  0  0  0
    7.5211   -6.4467   19.6877 H   0  0  0  0  0  0  0  0  0  0  0  0
    9.7916   -3.4263   21.8223 H   0  0  0  0  0  0  0  0  0  0  0  0
    9.6498   -1.9052   19.8309 H   0  0  0  0  0  0  0  0  0  0  0  0
   10.5279   -1.4968   15.4797 H   0  0  0  0  0  0  0  0  0  0  0  0
   10.8529    0.9605   16.4002 H   0  0  0  0  0  0  0  0  0  0  0  0
   12.5911    0.5968   16.1699 H   0  0  0  0  0  0  0  0  0  0  0  0
   11.5871    1.7872   14.1754 H   0  0  0  0  0  0  0  0  0  0  0  0
   12.2046    0.1479   13.7540 H   0  0  0  0  0  0  0  0  0  0  0  0
   10.1787    1.0122   11.8163 H   0  0  0  0  0  0  0  0  0  0  0  0
   10.8054   -0.6533   12.0778 H   0  0  0  0  0  0  0  0  0  0  0  0
    8.5550   -0.5950   10.9001 H   0  0  0  0  0  0  0  0  0  0  0  0
    8.5334   -1.5055   12.4567 H   0  0  0  0  0  0  0  0  0  0  0  0
    6.7990    1.1907   14.2187 H   0  0  0  0  0  0  0  0  0  0  0  0
    7.5156   -0.4418   14.4179 H   0  0  0  0  0  0  0  0  0  0  0  0
    9.0353    1.2619   15.4039 H   0  0  0  0  0  0  0  0  0  0  0  0
    9.0531    2.1735   13.8560 H   0  0  0  0  0  0  0  0  0  0  0  0
  2  1  1  0
 11  2  2  0
  2  4  1  0
 27  3  1  0
  5  4  2  0
  9  5  1  0
  5  6  1  0
  7  6  1  0
  8  7  2  0
 30  7  1  0
 12  8  1  0
  8  9  1  0
 10  9  2  0
 10 11  1  0
 16 12  2  0
 12 13  1  0
 14 13  1  0
 13 23  1  0
 15 14  2  0
 15 16  1  0
 17 16  1  0
 22 17  1  0
 18 17  2  0
 19 18  1  0
 20 19  2  0
 20 21  1  0
 21 22  2  0
 23 24  1  0
 25 24  2  0
 24 29  1  0
 25 26  1  0
 26 27  2  0
 27 28  1  0
 29 28  2  0
 32 30  1  0
 30 31  2  0
 33 32  1  0
 34 33  1  0
 35 34  1  0
 36 35  1  0
 35 40  1  0
 37 36  1  0
 37 38  1  0
 38 39  1  0
 39 40  1  0
  4 41  1  0
  6 42  1  0
 10 43  1  0
 11 44  1  0
 14 45  1  0
 18 46  1  0
 19 47  1  0
 20 48  1  0
 21 49  1  0
 22 50  1  0
 23 51  1  0
 23 52  1  0
 25 53  1  0
 26 54  1  0
 28 55  1  0
 29 56  1  0
 32 57  1  0
 33 58  1  0
 33 59  1  0
 34 60  1  0
 34 61  1  0
 36 62  1  0
 36 63  1  0
 37 64  1  0
 37 65  1  0
 39 66  1  0
 39 67  1  0
 40 68  1  0
 40 69  1  0
A    1
CL1
A    2
C2
A    3
CL2
A    4
C3
A    5
C5
A    6
N6
A    7
C8
A    8
C9
A    9
C10
A   10
C11
A   11
C13
A   12
C15
A   13
N16
A   14
C17
A   15
N19
A   16
C20
A   17
C21
A   18
C22
A   19
C24
A   20
C26
A   21
C28
A   22
C30
A   23
C32
A   24
C35
A   25
C36
A   26
C38
A   27
C40
A   28
C41
A   29
C43
A   30
C46
A   31
O47
A   32
N48
A   33
C50
A   34
C53
A   35
N56
A   36
C57
A   37
C60
A   38
O63
A   39
C64
A   40
C67
M  END
