4DIT_0KD_A_501
     RDKit          3D

 34 37  0  0  0  0  0  0  0  0999 V2000
   10.6270   -3.2410  -14.1720 C   0  0  0  0  0  0  0  0  0  0  0  0
    9.7340   -3.7100  -15.1050 C   0  0  0  0  0  0  0  0  0  0  0  0
    8.6840   -4.9030  -14.4790 S   0  0  0  0  0  0  0  0  0  0  0  0
    9.4330   -4.7990  -12.9280 C   0  0  0  0  0  0  0  0  0  0  0  0
   10.4630   -3.8630  -12.8960 C   0  0  0  0  0  0  0  0  0  0  0  0
   11.2440   -3.5920  -11.7030 C   0  0  0  0  0  0  0  0  0  0  0  0
   12.2480   -2.6690  -11.6560 N   0  0  0  0  0  0  0  0  0  0  0  0
   12.7490   -2.6590  -10.3860 C   0  0  0  0  0  0  0  0  0  0  0  0
   11.9940   -3.6270   -9.6760 C   0  0  0  0  0  0  0  0  0  0  0  0
   11.0330   -4.1970  -10.5760 N   0  0  0  0  0  0  0  0  0  0  0  0
   13.7560   -1.8780   -9.9270 N   0  0  0  0  0  0  0  0  0  0  0  0
   14.0280   -2.0900   -8.6200 C   0  0  0  0  0  0  0  0  0  0  0  0
   13.3480   -3.0300   -7.7910 C   0  0  0  0  0  0  0  0  0  0  0  0
   12.2870   -3.8490   -8.3010 C   0  0  0  0  0  0  0  0  0  0  0  0
   11.6150   -4.8390   -7.3740 C   0  0  0  0  0  0  0  0  0  0  0  0
   10.6030   -5.6470   -7.9190 N   0  0  0  0  0  0  0  0  0  0  0  0
    9.8590   -6.6790   -7.2440 C   0  0  0  0  0  0  0  0  0  0  0  0
    9.2190   -7.7130   -8.0350 C   0  0  0  0  0  0  0  0  0  0  0  0
    8.4910   -8.7520   -7.3730 C   0  0  0  0  0  0  0  0  0  0  0  0
    8.4200   -8.7340   -5.9540 C   0  0  0  0  0  0  0  0  0  0  0  0
    9.0110   -7.7770   -5.1930 N   0  0  0  0  0  0  0  0  0  0  0  0
    9.7110   -6.7790   -5.8080 C   0  0  0  0  0  0  0  0  0  0  0  0
   11.9910   -4.9040   -6.2050 O   0  0  0  0  0  0  0  0  0  0  0  0
   11.3843   -2.4719  -14.3839 H   0  0  0  0  0  0  0  0  0  0  0  0
    9.6990   -3.3546  -16.1454 H   0  0  0  0  0  0  0  0  0  0  0  0
    9.1303   -5.4048  -12.0611 H   0  0  0  0  0  0  0  0  0  0  0  0
   12.5706   -2.0837  -12.4397 H   0  0  0  0  0  0  0  0  0  0  0  0
   14.8319   -1.4944   -8.1629 H   0  0  0  0  0  0  0  0  0  0  0  0
   13.6440   -3.1292   -6.7362 H   0  0  0  0  0  0  0  0  0  0  0  0
   10.3677   -5.4836   -8.9084 H   0  0  0  0  0  0  0  0  0  0  0  0
    9.2926   -7.6985   -9.1324 H   0  0  0  0  0  0  0  0  0  0  0  0
    7.9970   -9.5475   -7.9502 H   0  0  0  0  0  0  0  0  0  0  0  0
    7.8594   -9.5336   -5.4476 H   0  0  0  0  0  0  0  0  0  0  0  0
   10.1868   -6.0117   -5.1797 H   0  0  0  0  0  0  0  0  0  0  0  0
  2  3  1  0
  2  1  2  0
  3  4  1  0
  1  5  1  0
  4  5  2  0
  5  6  1  0
  6  7  1  0
  6 10  2  0
  7  8  1  0
 10  9  1  0
  8 11  2  0
  8  9  1  0
 11 12  1  0
  9 14  2  0
 12 13  2  0
 14 13  1  0
 14 15  1  0
 18 19  2  0
 18 17  1  0
 16 15  1  0
 16 17  1  0
 15 23  2  0
 19 20  1  0
 17 22  2  0
 20 21  2  0
 22 21  1  0
  1 24  1  0
  2 25  1  0
  4 26  1  0
  7 27  1  0
 12 28  1  0
 13 29  1  0
 16 30  1  0
 18 31  1  0
 19 32  1  0
 20 33  1  0
 22 34  1  0
A    1
C1
A    2
C2
A    3
S3
A    4
C4
A    5
C5
A    6
C6
A    7
N7
A    8
C8
A    9
C9
A   10
N10
A   11
N11
A   12
C12
A   13
C13
A   14
C14
A   15
C15
A   16
N16
A   17
C17
A   18
C18
A   19
C19
A   20
C20
A   21
N21
A   22
C22
A   23
O23
M  END
