4DJH_JDC_A_1300
     RDKit          3D

 73 76  0  0  0  0  0  0  0  0999 V2000
    3.2120  -20.4100   59.6680 C   0  0  0  0  0  0  0  0  0  0  0  0
    2.9250  -21.7880   59.5580 N   0  0  0  0  0  0  0  0  0  0  0  0
    2.2000  -22.0810   58.3660 C   0  0  0  0  0  0  0  0  0  0  0  0
    0.8340  -21.4170   58.3950 C   0  0  0  0  0  0  0  0  0  0  0  0
    0.9410  -19.9830   58.8450 C   0  0  0  0  0  0  0  0  0  0  0  0
   -0.1620  -19.0560   58.6390 C   0  0  0  0  0  0  0  0  0  0  0  0
   -0.0500  -17.7050   59.0610 C   0  0  0  0  0  0  0  0  0  0  0  0
    1.1110  -17.2580   59.6700 C   0  0  0  0  0  0  0  0  0  0  0  0
    1.2310  -15.9780   60.0740 O   0  0  0  0  0  0  0  0  0  0  0  0
    2.1660  -18.1470   59.8630 C   0  0  0  0  0  0  0  0  0  0  0  0
    2.0500  -19.5400   59.4310 C   0  0  0  0  0  0  0  0  0  0  0  0
    2.1110  -23.5980   58.1900 C   0  0  0  0  0  0  0  0  0  0  0  0
    1.7270  -24.3180   59.1200 O   0  0  0  0  0  0  0  0  0  0  0  0
    2.5030  -24.1780   56.9210 N   0  0  0  0  0  0  0  0  0  0  0  0
    2.4450  -25.5850   56.7110 C   0  0  0  0  0  0  0  0  0  0  0  0
    1.6140  -25.7430   55.4290 C   0  0  0  0  0  0  0  0  0  0  0  0
    0.1930  -25.0530   55.5450 C   0  0  0  0  0  0  0  0  0  0  0  0
    1.5760  -27.1070   54.8640 C   0  0  0  0  0  0  0  0  0  0  0  0
    3.8110  -26.2230   56.5650 C   0  0  0  0  0  0  0  0  0  0  0  0
    4.6780  -26.2930   57.8350 N   0  0  0  0  0  0  0  0  0  0  0  0
    4.0430  -27.0360   58.9030 C   0  0  0  0  0  0  0  0  0  0  0  0
    4.6790  -26.8460   60.2290 C   0  0  0  0  0  0  0  0  0  0  0  0
    4.3120  -25.4010   60.7390 C   0  0  0  0  0  0  0  0  0  0  0  0
    6.1290  -27.0320   60.2020 C   0  0  0  0  0  0  0  0  0  0  0  0
    6.7520  -26.2720   59.1520 C   0  0  0  0  0  0  0  0  0  0  0  0
    6.1150  -26.4610   57.8180 C   0  0  0  0  0  0  0  0  0  0  0  0
    6.4230  -28.4780   59.8440 C   0  0  0  0  0  0  0  0  0  0  0  0
    6.7210  -26.8030   61.5930 C   0  0  0  0  0  0  0  0  0  0  0  0
    6.1110  -27.3820   62.7090 C   0  0  0  0  0  0  0  0  0  0  0  0
    6.6580  -27.1750   63.9920 C   0  0  0  0  0  0  0  0  0  0  0  0
    6.0210  -27.7740   65.1510 O   0  0  0  0  0  0  0  0  0  0  0  0
    7.8390  -26.3720   64.1480 C   0  0  0  0  0  0  0  0  0  0  0  0
    8.4410  -25.8010   63.0380 C   0  0  0  0  0  0  0  0  0  0  0  0
    7.8990  -26.0050   61.7540 C   0  0  0  0  0  0  0  0  0  0  0  0
    3.9896  -20.1580   58.9319 H   0  0  0  0  0  0  0  0  0  0  0  0
    3.5385  -20.2328   60.7034 H   0  0  0  0  0  0  0  0  0  0  0  0
    2.3626  -22.0780   60.3708 H   0  0  0  0  0  0  0  0  0  0  0  0
    2.7290  -21.6697   57.4937 H   0  0  0  0  0  0  0  0  0  0  0  0
    0.3984  -21.4458   57.3853 H   0  0  0  0  0  0  0  0  0  0  0  0
    0.1946  -21.9609   59.1058 H   0  0  0  0  0  0  0  0  0  0  0  0
   -1.0863  -19.4036   58.1543 H   0  0  0  0  0  0  0  0  0  0  0  0
   -0.8885  -17.0106   58.9037 H   0  0  0  0  0  0  0  0  0  0  0  0
    1.2511  -15.7637   61.0403 H   0  0  0  0  0  0  0  0  0  0  0  0
    3.0925  -17.7993   60.3434 H   0  0  0  0  0  0  0  0  0  0  0  0
    2.8280  -23.5639   56.1606 H   0  0  0  0  0  0  0  0  0  0  0  0
    2.0012  -26.0980   57.5770 H   0  0  0  0  0  0  0  0  0  0  0  0
    2.1703  -25.1820   54.6636 H   0  0  0  0  0  0  0  0  0  0  0  0
   -0.0676  -24.9264   56.6062 H   0  0  0  0  0  0  0  0  0  0  0  0
    0.2222  -24.0687   55.0547 H   0  0  0  0  0  0  0  0  0  0  0  0
   -0.5624  -25.6846   55.0547 H   0  0  0  0  0  0  0  0  0  0  0  0
    1.5555  -27.8422   55.6819 H   0  0  0  0  0  0  0  0  0  0  0  0
    0.6743  -27.2223   54.2446 H   0  0  0  0  0  0  0  0  0  0  0  0
    2.4699  -27.2724   54.2446 H   0  0  0  0  0  0  0  0  0  0  0  0
    3.6621  -27.2518   56.2054 H   0  0  0  0  0  0  0  0  0  0  0  0
    4.3632  -25.5710   55.8723 H   0  0  0  0  0  0  0  0  0  0  0  0
    2.9937  -26.7133   58.9729 H   0  0  0  0  0  0  0  0  0  0  0  0
    4.1415  -28.1024   58.6519 H   0  0  0  0  0  0  0  0  0  0  0  0
    4.2951  -27.6160   60.9144 H   0  0  0  0  0  0  0  0  0  0  0  0
    4.3092  -25.3901   61.8389 H   0  0  0  0  0  0  0  0  0  0  0  0
    5.0558  -24.6810   60.3670 H   0  0  0  0  0  0  0  0  0  0  0  0
    3.3148  -25.1232   60.3670 H   0  0  0  0  0  0  0  0  0  0  0  0
    7.8062  -26.5779   59.0801 H   0  0  0  0  0  0  0  0  0  0  0  0
    6.6408  -25.2095   59.4142 H   0  0  0  0  0  0  0  0  0  0  0  0
    6.3424  -27.4775   57.4646 H   0  0  0  0  0  0  0  0  0  0  0  0
    6.5232  -25.6864   57.1521 H   0  0  0  0  0  0  0  0  0  0  0  0
    6.5427  -29.0668   60.7654 H   0  0  0  0  0  0  0  0  0  0  0  0
    5.5895  -28.8863   59.2536 H   0  0  0  0  0  0  0  0  0  0  0  0
    7.3498  -28.5284   59.2536 H   0  0  0  0  0  0  0  0  0  0  0  0
    5.2073  -27.9971   62.5870 H   0  0  0  0  0  0  0  0  0  0  0  0
    6.3024  -27.5094   66.0625 H   0  0  0  0  0  0  0  0  0  0  0  0
    8.2656  -26.2103   65.1489 H   0  0  0  0  0  0  0  0  0  0  0  0
    9.3451  -25.1864   63.1601 H   0  0  0  0  0  0  0  0  0  0  0  0
    8.3806  -25.5514   60.8752 H   0  0  0  0  0  0  0  0  0  0  0  0
 18 16  1  0
 16 17  1  0
 16 15  1  0
 19 15  1  0
 19 20  1  0
 15 14  1  0
 14 12  1  0
 26 20  1  0
 26 25  1  0
 20 21  1  0
 12  3  1  0
 12 13  2  0
  3  4  1  0
  3  2  1  0
  4  5  1  0
  6  5  2  0
  6  7  1  0
  5 11  1  0
 21 22  1  0
  7  8  2  0
 25 24  1  0
 11  1  1  0
 11 10  2  0
  2  1  1  0
  8 10  1  0
  8  9  1  0
 27 24  1  0
 24 22  1  0
 24 28  1  0
 22 23  1  0
 28 34  1  0
 28 29  2  0
 34 33  2  0
 29 30  1  0
 33 32  1  0
 30 32  2  0
 30 31  1  0
  1 35  1  0
  1 36  1  0
  2 37  1  0
  3 38  1  0
  4 39  1  0
  4 40  1  0
  6 41  1  0
  7 42  1  0
  9 43  1  0
 10 44  1  0
 14 45  1  0
 15 46  1  0
 16 47  1  0
 17 48  1  0
 17 49  1  0
 17 50  1  0
 18 51  1  0
 18 52  1  0
 18 53  1  0
 19 54  1  0
 19 55  1  0
 21 56  1  0
 21 57  1  0
 22 58  1  0
 23 59  1  0
 23 60  1  0
 23 61  1  0
 25 62  1  0
 25 63  1  0
 26 64  1  0
 26 65  1  0
 27 66  1  0
 27 67  1  0
 27 68  1  0
 29 69  1  0
 31 70  1  0
 32 71  1  0
 33 72  1  0
 34 73  1  0
A    1
C1
A    2
N2
A    3
C3
A    4
C4
A    5
C4A
A    6
C5
A    7
C6
A    8
C7
A    9
O7
A   10
C8
A   11
C8A
A   12
C1A
A   13
O1
A   14
N2A
A   15
C2A
A   16
C3A
A   17
C3D
A   18
C3B
A   19
C4D
A   20
N11
A   21
C21
A   22
C31
A   23
C34
A   24
C41
A   25
C51
A   26
C61
A   27
C4E
A   28
C1C
A   29
C2C
A   30
C3C
A   31
O3C
A   32
C4C
A   33
C5C
A   34
C6C
M  END
