4DJR_0KJ_A_101
     RDKit          3D

 76 79  0  0  0  0  0  0  0  0999 V2000
   21.8200   23.3930   11.4910 O   0  0  0  0  0  0  0  0  0  0  0  0
   21.7650   24.4410   10.8910 C   0  0  0  0  0  0  0  0  0  0  0  0
   22.8010   25.1420   10.4650 N   0  0  0  0  0  0  0  0  0  0  0  0
   22.4460   26.3660    9.7980 C   0  0  0  0  0  0  0  0  0  0  0  0
   20.9310   26.2580    9.6210 C   0  0  0  0  0  0  0  0  0  0  0  0
   20.4700   25.1100   10.5050 C   0  0  0  0  0  0  0  0  0  0  0  0
   22.8550   27.5520   10.6540 C   0  0  0  0  0  0  0  0  0  0  0  0
   22.2100   27.3810   11.9170 O   0  0  0  0  0  0  0  0  0  0  0  0
   21.3290   28.4180   12.4250 C   0  0  0  0  0  0  0  0  0  0  0  0
   21.3440   29.5100   11.8810 O   0  0  0  0  0  0  0  0  0  0  0  0
   20.5450   28.0630   13.4380 N   0  0  0  0  0  0  0  0  0  0  0  0
   19.5100   28.8850   14.0440 C   0  0  0  0  0  0  0  0  0  0  0  0
   18.1880   28.1130   13.9920 C   0  0  0  0  0  0  0  0  0  0  0  0
   17.7990   27.7770   12.5600 C   0  0  0  0  0  0  0  0  0  0  0  0
   17.7010   26.4470   12.1700 C   0  0  0  0  0  0  0  0  0  0  0  0
   17.3410   26.1240   10.8630 C   0  0  0  0  0  0  0  0  0  0  0  0
   17.0710   27.1300    9.9430 C   0  0  0  0  0  0  0  0  0  0  0  0
   17.1660   28.4610   10.3320 C   0  0  0  0  0  0  0  0  0  0  0  0
   17.5220   28.7780   11.6400 C   0  0  0  0  0  0  0  0  0  0  0  0
   19.9440   29.2990   15.4520 C   0  0  0  0  0  0  0  0  0  0  0  0
   19.8780   28.1760   16.3360 O   0  0  0  0  0  0  0  0  0  0  0  0
   19.0960   30.4320   16.0480 C   0  0  0  0  0  0  0  0  0  0  0  0
   19.3380   31.6740   15.2670 N   0  0  0  0  0  0  0  0  0  0  0  0
   20.1170   32.6720   16.0360 C   0  0  0  0  0  0  0  0  0  0  0  0
   21.6270   32.3790   15.9880 C   0  0  0  0  0  0  0  0  0  0  0  0
   22.2330   32.4320   14.5850 C   0  0  0  0  0  0  0  0  0  0  0  0
   22.3540   33.3630   16.9120 C   0  0  0  0  0  0  0  0  0  0  0  0
   22.2010   34.8180   16.4970 C   0  0  0  0  0  0  0  0  0  0  0  0
   18.0170   32.2920   14.5410 S   0  0  0  0  0  0  0  0  0  0  0  0
   17.2470   31.1870   14.0580 O   0  0  0  0  0  0  0  0  0  0  0  0
   18.5130   33.1710   13.5080 O   0  0  0  0  0  0  0  0  0  0  0  0
   17.1270   33.1930   15.5900 C   0  0  0  0  0  0  0  0  0  0  0  0
   16.1470   32.5440   16.3440 C   0  0  0  0  0  0  0  0  0  0  0  0
   15.3930   33.2270   17.2970 C   0  0  0  0  0  0  0  0  0  0  0  0
   17.3050   34.5670   15.8150 C   0  0  0  0  0  0  0  0  0  0  0  0
   16.5410   35.2630   16.7670 C   0  0  0  0  0  0  0  0  0  0  0  0
   16.6740   36.9330   17.1210 S   0  0  0  0  0  0  0  0  0  0  0  0
   15.4140   36.6730   18.2880 C   0  0  0  0  0  0  0  0  0  0  0  0
   14.9560   35.4140   18.3750 N   0  0  0  0  0  0  0  0  0  0  0  0
   15.5810   34.5770   17.5140 C   0  0  0  0  0  0  0  0  0  0  0  0
   23.7762   24.8388   10.5987 H   0  0  0  0  0  0  0  0  0  0  0  0
   22.9493   26.5151    8.8314 H   0  0  0  0  0  0  0  0  0  0  0  0
   20.4451   27.1947    9.9315 H   0  0  0  0  0  0  0  0  0  0  0  0
   20.6668   26.0784    8.5684 H   0  0  0  0  0  0  0  0  0  0  0  0
   19.9374   25.4830   11.3923 H   0  0  0  0  0  0  0  0  0  0  0  0
   19.7636   24.4322   10.0035 H   0  0  0  0  0  0  0  0  0  0  0  0
   23.9472   27.5684   10.7840 H   0  0  0  0  0  0  0  0  0  0  0  0
   22.5631   28.5024   10.1832 H   0  0  0  0  0  0  0  0  0  0  0  0
   20.6832   27.1202   13.8291 H   0  0  0  0  0  0  0  0  0  0  0  0
   19.3544   29.8239   13.4924 H   0  0  0  0  0  0  0  0  0  0  0  0
   17.3958   28.7285   14.4433 H   0  0  0  0  0  0  0  0  0  0  0  0
   18.3140   27.1717   14.5471 H   0  0  0  0  0  0  0  0  0  0  0  0
   17.9083   25.6464   12.8953 H   0  0  0  0  0  0  0  0  0  0  0  0
   17.2703   25.0693   10.5586 H   0  0  0  0  0  0  0  0  0  0  0  0
   16.7836   26.8743    8.9125 H   0  0  0  0  0  0  0  0  0  0  0  0
   16.9602   29.2627    9.6074 H   0  0  0  0  0  0  0  0  0  0  0  0
   17.5843   29.8324   11.9471 H   0  0  0  0  0  0  0  0  0  0  0  0
   20.9746   29.6701   15.3515 H   0  0  0  0  0  0  0  0  0  0  0  0
   19.8966   28.4927   17.2738 H   0  0  0  0  0  0  0  0  0  0  0  0
   19.3812   30.5941   17.0979 H   0  0  0  0  0  0  0  0  0  0  0  0
   18.0301   30.1642   16.0030 H   0  0  0  0  0  0  0  0  0  0  0  0
   19.9344   33.6702   15.6114 H   0  0  0  0  0  0  0  0  0  0  0  0
   19.7926   32.6235   17.0860 H   0  0  0  0  0  0  0  0  0  0  0  0
   21.7596   31.3411   16.3275 H   0  0  0  0  0  0  0  0  0  0  0  0
   23.3262   32.5276   14.6612 H   0  0  0  0  0  0  0  0  0  0  0  0
   21.9826   31.5085   14.0423 H   0  0  0  0  0  0  0  0  0  0  0  0
   21.8261   33.2980   14.0423 H   0  0  0  0  0  0  0  0  0  0  0  0
   21.9504   33.2476   17.9287 H   0  0  0  0  0  0  0  0  0  0  0  0
   23.4263   33.1239   16.8565 H   0  0  0  0  0  0  0  0  0  0  0  0
   22.1345   35.4503   17.3947 H   0  0  0  0  0  0  0  0  0  0  0  0
   23.0721   35.1220   15.8981 H   0  0  0  0  0  0  0  0  0  0  0  0
   21.2857   34.9342   15.8981 H   0  0  0  0  0  0  0  0  0  0  0  0
   15.9662   31.4710   16.1825 H   0  0  0  0  0  0  0  0  0  0  0  0
   14.6383   32.6829   17.8838 H   0  0  0  0  0  0  0  0  0  0  0  0
   18.0614   35.1125   15.2316 H   0  0  0  0  0  0  0  0  0  0  0  0
   15.0176   37.4859   18.9142 H   0  0  0  0  0  0  0  0  0  0  0  0
  5  4  1  0
  5  6  1  0
  4  3  1  0
  4  7  1  0
 17 18  2  0
 17 16  1  0
 18 19  1  0
  3  2  1  0
  6  2  1  0
  7  8  1  0
 16 15  2  0
  2  1  2  0
 19 14  2  0
 10  9  2  0
  8  9  1  0
 15 14  1  0
  9 11  1  0
 14 13  1  0
 11 12  1  0
 31 29  2  0
 13 12  1  0
 12 20  1  0
 30 29  2  0
 29 23  1  0
 29 32  1  0
 26 25  1  0
 23 24  1  0
 23 22  1  0
 20 22  1  0
 20 21  1  0
 32 35  1  0
 32 33  2  0
 35 36  2  0
 25 24  1  0
 25 27  1  0
 33 34  1  0
 28 27  1  0
 36 37  1  0
 36 40  1  0
 37 38  1  0
 34 40  2  0
 40 39  1  0
 38 39  2  0
  3 41  1  0
  4 42  1  0
  5 43  1  0
  5 44  1  0
  6 45  1  0
  6 46  1  0
  7 47  1  0
  7 48  1  0
 11 49  1  0
 12 50  1  0
 13 51  1  0
 13 52  1  0
 15 53  1  0
 16 54  1  0
 17 55  1  0
 18 56  1  0
 19 57  1  0
 20 58  1  0
 21 59  1  0
 22 60  1  0
 22 61  1  0
 24 62  1  0
 24 63  1  0
 25 64  1  0
 26 65  1  0
 26 66  1  0
 26 67  1  0
 27 68  1  0
 27 69  1  0
 28 70  1  0
 28 71  1  0
 28 72  1  0
 33 73  1  0
 34 74  1  0
 35 75  1  0
 38 76  1  0
A    1
O28
A    2
C27
A    3
N29
A    4
C24
A    5
C25
A    6
C26
A    7
C22
A    8
O23
A    9
C21
A   10
O22
A   11
N20
A   12
C19
A   13
C32
A   14
C38
A   15
C37
A   16
C36
A   17
C35
A   18
C34
A   19
C33
A   20
C17
A   21
O18
A   22
C16
A   23
N11
A   24
C12
A   25
C13
A   26
C14
A   27
C15
A   28
C18
A   29
S8
A   30
O10
A   31
O9
A   32
C5
A   33
C6
A   34
C7
A   35
C4
A   36
C3
A   37
S1
A   38
C1
A   39
N1
A   40
C2
M  END
