4DJW_0KP_A_501
     RDKit          3D

 44 47  0  0  0  0  0  0  0  0999 V2000
   22.3600   13.0630   22.3480 O   0  0  0  0  0  0  0  0  0  0  0  0
   22.4950   11.8750   22.5810 C   0  0  0  0  0  0  0  0  0  0  0  0
   22.3390   10.6680   21.5610 C   0  0  0  0  0  0  0  0  0  0  0  0
   22.5380    9.4930   22.4640 N   0  0  0  0  0  0  0  0  0  0  0  0
   22.7800    9.9140   23.7010 C   0  0  0  0  0  0  0  0  0  0  0  0
   22.7860   11.3350   23.8120 N   0  0  0  0  0  0  0  0  0  0  0  0
   22.9970    9.1110   24.7490 N   0  0  0  0  0  0  0  0  0  0  0  0
   23.0220   12.1410   25.0180 C   0  0  0  0  0  0  0  0  0  0  0  0
   20.9020   10.6270   21.0050 C   0  0  0  0  0  0  0  0  0  0  0  0
   20.2720    9.4140   20.7470 C   0  0  0  0  0  0  0  0  0  0  0  0
   18.9690    9.3760   20.2600 C   0  0  0  0  0  0  0  0  0  0  0  0
   18.2800   10.5440   20.0210 C   0  0  0  0  0  0  0  0  0  0  0  0
   18.8920   11.7530   20.2590 C   0  0  0  0  0  0  0  0  0  0  0  0
   20.1950   11.7970   20.7440 C   0  0  0  0  0  0  0  0  0  0  0  0
   23.4880   10.6920   20.5300 C   0  0  0  0  0  0  0  0  0  0  0  0
   23.2110   10.7890   19.1730 C   0  0  0  0  0  0  0  0  0  0  0  0
   24.2350   10.8650   18.2430 C   0  0  0  0  0  0  0  0  0  0  0  0
   25.5500   10.8410   18.6560 C   0  0  0  0  0  0  0  0  0  0  0  0
   25.8710   10.7460   20.0070 C   0  0  0  0  0  0  0  0  0  0  0  0
   24.8260   10.6610   20.9430 C   0  0  0  0  0  0  0  0  0  0  0  0
   29.8540   10.9130   21.4510 C   0  0  0  0  0  0  0  0  0  0  0  0
   29.1260    9.8230   21.7090 N   0  0  0  0  0  0  0  0  0  0  0  0
   27.8830    9.7800   21.2080 C   0  0  0  0  0  0  0  0  0  0  0  0
   27.3000   10.8010   20.4650 C   0  0  0  0  0  0  0  0  0  0  0  0
   28.0930   11.9190   20.2200 C   0  0  0  0  0  0  0  0  0  0  0  0
   29.3850   11.9780   20.7130 C   0  0  0  0  0  0  0  0  0  0  0  0
   22.4941    8.5064   22.1715 H   0  0  0  0  0  0  0  0  0  0  0  0
   23.1780    9.5154   25.6789 H   0  0  0  0  0  0  0  0  0  0  0  0
   22.8417   11.5253   25.9116 H   0  0  0  0  0  0  0  0  0  0  0  0
   24.0624   12.4981   25.0226 H   0  0  0  0  0  0  0  0  0  0  0  0
   22.3385   13.0029   25.0226 H   0  0  0  0  0  0  0  0  0  0  0  0
   20.8107    8.4726   20.9303 H   0  0  0  0  0  0  0  0  0  0  0  0
   18.4865    8.4070   20.0648 H   0  0  0  0  0  0  0  0  0  0  0  0
   17.2477   10.5107   19.6425 H   0  0  0  0  0  0  0  0  0  0  0  0
   18.3483   12.6893   20.0648 H   0  0  0  0  0  0  0  0  0  0  0  0
   20.6736   12.7709   20.9239 H   0  0  0  0  0  0  0  0  0  0  0  0
   22.1653   10.8057   18.8320 H   0  0  0  0  0  0  0  0  0  0  0  0
   23.9981   10.9447   17.1718 H   0  0  0  0  0  0  0  0  0  0  0  0
   26.3553   10.8976   17.9088 H   0  0  0  0  0  0  0  0  0  0  0  0
   25.0619   10.5690   22.0135 H   0  0  0  0  0  0  0  0  0  0  0  0
   30.8789   10.9628   21.8474 H   0  0  0  0  0  0  0  0  0  0  0  0
   27.2843    8.8768   21.3973 H   0  0  0  0  0  0  0  0  0  0  0  0
   27.6914   12.7580   19.6328 H   0  0  0  0  0  0  0  0  0  0  0  0
   30.0220   12.8539   20.5203 H   0  0  0  0  0  0  0  0  0  0  0  0
 17 18  1  0
 17 16  2  0
 18 19  2  0
 16 15  1  0
 19 24  1  0
 19 20  1  0
 12 13  2  0
 12 11  1  0
 25 24  2  0
 25 26  1  0
 13 14  1  0
 11 10  2  0
 24 23  1  0
 15 20  2  0
 15  3  1  0
 26 21  2  0
 14  9  2  0
 10  9  1  0
  9  3  1  0
 23 22  2  0
 21 22  1  0
  3  4  1  0
  3  2  1  0
  1  2  2  0
  4  5  1  0
  2  6  1  0
  5  6  1  0
  5  7  2  3
  6  8  1  0
  4 27  1  0
  7 28  1  0
  8 29  1  0
  8 30  1  0
  8 31  1  0
 10 32  1  0
 11 33  1  0
 12 34  1  0
 13 35  1  0
 14 36  1  0
 16 37  1  0
 17 38  1  0
 18 39  1  0
 20 40  1  0
 21 41  1  0
 23 42  1  0
 25 43  1  0
 26 44  1  0
A    1
O1
A    2
C1
A    3
C2
A    4
N1
A    5
C3
A    6
N2
A    7
N3
A    8
C4
A    9
C5
A   10
C6
A   11
C7
A   12
C8
A   13
C9
A   14
C10
A   15
C11
A   16
C12
A   17
C13
A   18
C14
A   19
C15
A   20
C16
A   21
C17
A   22
N4
A   23
C18
A   24
C19
A   25
C20
A   26
C21
M  END
