4DLJ_6RG_A_401
     RDKit          3D

 46 49  0  0  0  0  0  0  0  0999 V2000
   23.8750  -16.6430  -11.0000 N   0  0  0  0  0  0  0  0  0  0  0  0
   23.8420  -17.3970   -9.8840 C   0  0  0  0  0  0  0  0  0  0  0  0
   24.2590  -16.9060   -8.7020 N   0  0  0  0  0  0  0  0  0  0  0  0
   24.7330  -15.6440   -8.6280 C   0  0  0  0  0  0  0  0  0  0  0  0
   24.7970  -14.8650   -9.7920 C   0  0  0  0  0  0  0  0  0  0  0  0
   24.3690  -15.3920  -11.0050 C   0  0  0  0  0  0  0  0  0  0  0  0
   26.1130  -13.2400   -6.2330 N   0  0  0  0  0  0  0  0  0  0  0  0
   26.6110  -17.4210  -17.4640 C   0  0  0  0  0  0  0  0  0  0  0  0
   22.0940  -21.2090  -10.0330 C   0  0  0  0  0  0  0  0  0  0  0  0
   25.2160  -17.4690  -17.4860 C   0  0  0  0  0  0  0  0  0  0  0  0
   27.2430  -16.9350  -16.3100 C   0  0  0  0  0  0  0  0  0  0  0  0
   22.5340  -20.6980   -8.8190 C   0  0  0  0  0  0  0  0  0  0  0  0
   22.2620  -20.4520  -11.1800 C   0  0  0  0  0  0  0  0  0  0  0  0
   24.4900  -17.0320  -16.3550 C   0  0  0  0  0  0  0  0  0  0  0  0
   26.5140  -16.5030  -15.1880 C   0  0  0  0  0  0  0  0  0  0  0  0
   23.1210  -19.4240   -8.7730 C   0  0  0  0  0  0  0  0  0  0  0  0
   22.8610  -19.1860  -11.1490 C   0  0  0  0  0  0  0  0  0  0  0  0
   25.7420  -13.0290   -8.5430 C   0  0  0  0  0  0  0  0  0  0  0  0
   25.2890  -13.5540   -9.7470 C   0  0  0  0  0  0  0  0  0  0  0  0
   25.1860  -15.1140   -7.4160 C   0  0  0  0  0  0  0  0  0  0  0  0
   24.9550  -14.8920  -13.4060 C   0  0  0  0  0  0  0  0  0  0  0  0
   24.3150  -16.1110  -14.0150 C   0  0  0  0  0  0  0  0  0  0  0  0
   24.3730  -14.5990  -12.1070 N   0  0  0  0  0  0  0  0  0  0  0  0
   25.6810  -13.8000   -7.3730 C   0  0  0  0  0  0  0  0  0  0  0  0
   25.1290  -16.5520  -15.2070 C   0  0  0  0  0  0  0  0  0  0  0  0
   23.3020  -18.6740   -9.9410 C   0  0  0  0  0  0  0  0  0  0  0  0
   25.8159  -13.6252   -5.3251 H   0  0  0  0  0  0  0  0  0  0  0  0
   26.7418  -12.4249   -6.2656 H   0  0  0  0  0  0  0  0  0  0  0  0
   27.2001  -17.7561  -18.3304 H   0  0  0  0  0  0  0  0  0  0  0  0
   21.6193  -22.2000  -10.0826 H   0  0  0  0  0  0  0  0  0  0  0  0
   24.6871  -17.8433  -18.3749 H   0  0  0  0  0  0  0  0  0  0  0  0
   28.3417  -16.8905  -16.2819 H   0  0  0  0  0  0  0  0  0  0  0  0
   22.4230  -21.2889   -7.8979 H   0  0  0  0  0  0  0  0  0  0  0  0
   21.9154  -20.8560  -12.1426 H   0  0  0  0  0  0  0  0  0  0  0  0
   23.3909  -17.0704  -16.3781 H   0  0  0  0  0  0  0  0  0  0  0  0
   27.0409  -16.1275  -14.2984 H   0  0  0  0  0  0  0  0  0  0  0  0
   23.4431  -19.0094   -7.8064 H   0  0  0  0  0  0  0  0  0  0  0  0
   22.9797  -18.6047  -12.0753 H   0  0  0  0  0  0  0  0  0  0  0  0
   26.1489  -12.0076   -8.5074 H   0  0  0  0  0  0  0  0  0  0  0  0
   25.3165  -12.9428  -10.6612 H   0  0  0  0  0  0  0  0  0  0  0  0
   25.1549  -15.7231   -6.5005 H   0  0  0  0  0  0  0  0  0  0  0  0
   26.0334  -15.0727  -13.2857 H   0  0  0  0  0  0  0  0  0  0  0  0
   24.7830  -14.0333  -14.0716 H   0  0  0  0  0  0  0  0  0  0  0  0
   24.2825  -16.9207  -13.2711 H   0  0  0  0  0  0  0  0  0  0  0  0
   23.2899  -15.8714  -14.3341 H   0  0  0  0  0  0  0  0  0  0  0  0
   23.9100  -13.6839  -12.0113 H   0  0  0  0  0  0  0  0  0  0  0  0
  6  1  2  0
  1  2  1  0
  2  3  2  0
  2 26  1  0
  4  3  1  0
  5  4  2  0
  4 20  1  0
 19  5  1  0
  6  5  1  0
 23  6  1  0
 24  7  1  0
 10  8  2  0
  8 11  1  0
 13  9  2  0
  9 12  1  0
 14 10  1  0
 15 11  2  0
 16 12  2  0
 17 13  1  0
 14 25  2  0
 25 15  1  0
 26 16  1  0
 17 26  2  0
 19 18  2  0
 18 24  1  0
 24 20  2  0
 22 21  1  0
 21 23  1  0
 22 25  1  0
  7 27  1  0
  7 28  1  0
  8 29  1  0
  9 30  1  0
 10 31  1  0
 11 32  1  0
 12 33  1  0
 13 34  1  0
 14 35  1  0
 15 36  1  0
 16 37  1  0
 17 38  1  0
 18 39  1  0
 19 40  1  0
 20 41  1  0
 21 42  1  0
 21 43  1  0
 22 44  1  0
 22 45  1  0
 23 46  1  0
A    1
N1
A    2
C2
A    3
N3
A    4
C4
A    5
C5
A    6
C6
A    7
NAA
A    8
CAB
A    9
CAC
A   10
CAD
A   11
CAE
A   12
CAF
A   13
CAG
A   14
CAH
A   15
CAI
A   16
CAJ
A   17
CAK
A   18
CAL
A   19
CAM
A   20
CAN
A   21
CAO
A   22
CAP
A   23
NAS
A   24
CAT
A   25
CAU
A   26
CAV
M  END
