4DMN_0L9_A_305
     RDKit          3D

 40 42  0  0  0  0  0  0  0  0999 V2000
  -39.6380   14.2750   29.4340 Cl  0  0  0  0  0  0  0  0  0  0  0  0
  -41.3710   14.5930   29.0570 C   0  0  0  0  0  0  0  0  0  0  0  0
  -42.3820   14.4270   30.0180 C   0  0  0  0  0  0  0  0  0  0  0  0
  -43.7500   14.6670   29.7240 C   0  0  0  0  0  0  0  0  0  0  0  0
  -41.7250   14.9870   27.7950 C   0  0  0  0  0  0  0  0  0  0  0  0
  -43.0840   15.2080   27.4840 C   0  0  0  0  0  0  0  0  0  0  0  0
  -44.1010   15.0620   28.4400 C   0  0  0  0  0  0  0  0  0  0  0  0
  -45.4660   15.3440   27.9010 C   0  0  0  0  0  0  0  0  0  0  0  0
  -46.2820   14.2740   27.5640 C   0  0  0  0  0  0  0  0  0  0  0  0
  -45.7850   12.8760   27.8690 C   0  0  0  0  0  0  0  0  0  0  0  0
  -45.8670   11.9890   26.7420 O   0  0  0  0  0  0  0  0  0  0  0  0
  -44.6120   11.8980   26.0760 C   0  0  0  0  0  0  0  0  0  0  0  0
  -46.3800   12.3160   29.1940 C   0  0  0  0  0  0  0  0  0  0  0  0
  -46.4860   13.0780   30.1830 O   0  0  0  0  0  0  0  0  0  0  0  0
  -46.7190   11.1060   29.3550 O   0  0  0  0  0  0  0  0  0  0  0  0
  -45.8680   16.6700   27.6450 C   0  0  0  0  0  0  0  0  0  0  0  0
  -45.0470   17.7560   27.9750 C   0  0  0  0  0  0  0  0  0  0  0  0
  -45.4350   19.1020   27.7510 C   0  0  0  0  0  0  0  0  0  0  0  0
  -44.2130   20.4840   28.2860 Br  0  0  0  0  0  0  0  0  0  0  0  0
  -46.6880   19.3590   27.1720 C   0  0  0  0  0  0  0  0  0  0  0  0
  -47.5370   18.2640   26.8420 C   0  0  0  0  0  0  0  0  0  0  0  0
  -47.1250   16.9190   27.0910 C   0  0  0  0  0  0  0  0  0  0  0  0
  -47.9150   15.8460   26.7760 N   0  0  0  0  0  0  0  0  0  0  0  0
  -47.5280   14.5510   27.0000 C   0  0  0  0  0  0  0  0  0  0  0  0
  -48.4980   13.4540   26.6240 C   0  0  0  0  0  0  0  0  0  0  0  0
  -42.1047   14.1005   31.0312 H   0  0  0  0  0  0  0  0  0  0  0  0
  -44.5191   14.5421   30.5005 H   0  0  0  0  0  0  0  0  0  0  0  0
  -40.9526   15.1310   27.0252 H   0  0  0  0  0  0  0  0  0  0  0  0
  -43.3545   15.5041   26.4597 H   0  0  0  0  0  0  0  0  0  0  0  0
  -44.7042   12.9524   28.0587 H   0  0  0  0  0  0  0  0  0  0  0  0
  -43.8049   11.8395   26.8211 H   0  0  0  0  0  0  0  0  0  0  0  0
  -44.5957   10.9963   25.4462 H   0  0  0  0  0  0  0  0  0  0  0  0
  -44.4658   12.7879   25.4462 H   0  0  0  0  0  0  0  0  0  0  0  0
  -46.4346   12.7088   31.1001 H   0  0  0  0  0  0  0  0  0  0  0  0
  -44.0633   17.5574   28.4253 H   0  0  0  0  0  0  0  0  0  0  0  0
  -47.0098   20.3924   26.9758 H   0  0  0  0  0  0  0  0  0  0  0  0
  -48.5213   18.4562   26.3902 H   0  0  0  0  0  0  0  0  0  0  0  0
  -48.9041   12.9947   27.5373 H   0  0  0  0  0  0  0  0  0  0  0  0
  -49.3207   13.8795   26.0306 H   0  0  0  0  0  0  0  0  0  0  0  0
  -47.9750   12.6896   26.0306 H   0  0  0  0  0  0  0  0  0  0  0  0
 12 11  1  0
 25 24  1  0
 11 10  1  0
 23 24  1  0
 23 22  2  0
 21 22  1  0
 21 20  2  0
 24  9  2  0
 22 16  1  0
 20 18  1  0
  6  5  1  0
  6  7  2  0
  9 10  1  0
  9  8  1  0
 16  8  2  0
 16 17  1  0
 18 17  2  0
 18 19  1  0
  5  2  2  0
 10 13  1  0
  8  7  1  0
  7  4  1  0
  2  1  1  0
  2  3  1  0
 13 15  2  0
 13 14  1  0
  4  3  2  0
  3 26  1  0
  4 27  1  0
  5 28  1  0
  6 29  1  0
 10 30  1  0
 12 31  1  0
 12 32  1  0
 12 33  1  0
 14 34  1  0
 17 35  1  0
 20 36  1  0
 21 37  1  0
 25 38  1  0
 25 39  1  0
 25 40  1  0
A    1
CL1
A    2
C19
A    3
C20
A    4
C21
A    5
C18
A    6
C17
A    7
C10
A    8
C9
A    9
C8
A   10
C11
A   11
O13
A   12
C14
A   13
C12
A   14
O1
A   15
O2
A   16
C5
A   17
C6
A   18
C1
A   19
BR
A   20
C2
A   21
C3
A   22
C4
A   23
N
A   24
C7
A   25
C16
M  END
