1DAM_DTB_A_803
     RDKit          3D

 33 33  0  0  0  0  0  0  0  0999 V2000
   -3.1450   22.4880   13.0060 C   0  0  0  0  0  0  0  0  0  0  0  0
   -2.2720   21.7590   13.4940 O   0  0  0  0  0  0  0  0  0  0  0  0
   -3.1290   23.0530   11.7590 N   0  0  0  0  0  0  0  0  0  0  0  0
   -4.3800   23.7430   11.5100 C   0  0  0  0  0  0  0  0  0  0  0  0
   -4.7770   24.0400   13.0080 C   0  0  0  0  0  0  0  0  0  0  0  0
   -4.2750   22.8450   13.6390 N   0  0  0  0  0  0  0  0  0  0  0  0
   -4.3150   25.3550   13.6960 C   0  0  0  0  0  0  0  0  0  0  0  0
   -4.2170   25.0700   10.6790 C   0  0  0  0  0  0  0  0  0  0  0  0
   -5.5780   25.6920   10.3170 C   0  0  0  0  0  0  0  0  0  0  0  0
   -5.6410   26.7840    9.2670 C   0  0  0  0  0  0  0  0  0  0  0  0
   -6.9020   27.6040    9.4220 C   0  0  0  0  0  0  0  0  0  0  0  0
   -6.9640   28.6890    8.3180 C   0  0  0  0  0  0  0  0  0  0  0  0
   -6.7120   28.1880    6.8290 C   0  0  0  0  0  0  0  0  0  0  0  0
   -7.3650   27.2190    6.3800 O   0  0  0  0  0  0  0  0  0  0  0  0
   -5.7990   28.7430    6.2050 O   0  0  0  0  0  0  0  0  0  0  0  0
   -2.3436   22.9963   11.0951 H   0  0  0  0  0  0  0  0  0  0  0  0
   -5.1064   23.1784   10.9070 H   0  0  0  0  0  0  0  0  0  0  0  0
   -5.8544   24.2456   13.0909 H   0  0  0  0  0  0  0  0  0  0  0  0
   -4.7062   22.3523   14.4341 H   0  0  0  0  0  0  0  0  0  0  0  0
   -4.3582   25.2321   14.7883 H   0  0  0  0  0  0  0  0  0  0  0  0
   -3.2826   25.5840   13.3933 H   0  0  0  0  0  0  0  0  0  0  0  0
   -4.9773   26.1795   13.3933 H   0  0  0  0  0  0  0  0  0  0  0  0
   -3.6423   25.7943   11.2749 H   0  0  0  0  0  0  0  0  0  0  0  0
   -3.6951   24.8237    9.7426 H   0  0  0  0  0  0  0  0  0  0  0  0
   -6.2219   24.8722    9.9659 H   0  0  0  0  0  0  0  0  0  0  0  0
   -5.8842   26.2030   11.2417 H   0  0  0  0  0  0  0  0  0  0  0  0
   -4.7666   27.4422    9.3779 H   0  0  0  0  0  0  0  0  0  0  0  0
   -5.6438   26.3167    8.2712 H   0  0  0  0  0  0  0  0  0  0  0  0
   -7.7786   26.9451    9.3355 H   0  0  0  0  0  0  0  0  0  0  0  0
   -6.8987   28.0907   10.4085 H   0  0  0  0  0  0  0  0  0  0  0  0
   -7.9631   29.1479    8.3536 H   0  0  0  0  0  0  0  0  0  0  0  0
   -6.1400   29.3832    8.5395 H   0  0  0  0  0  0  0  0  0  0  0  0
   -5.0643   29.1896    6.6957 H   0  0  0  0  0  0  0  0  0  0  0  0
  1  2  2  0
  1  3  1  0
  1  6  1  0
  3  4  1  0
  4  5  1  0
  4  8  1  0
  5  6  1  0
  5  7  1  0
  8  9  1  0
  9 10  1  0
 10 11  1  0
 11 12  1  0
 12 13  1  0
 13 14  2  0
 13 15  1  0
  3 16  1  0
  4 17  1  0
  5 18  1  0
  6 19  1  0
  7 20  1  0
  7 21  1  0
  7 22  1  0
  8 23  1  0
  8 24  1  0
  9 25  1  0
  9 26  1  0
 10 27  1  0
 10 28  1  0
 11 29  1  0
 11 30  1  0
 12 31  1  0
 12 32  1  0
 15 33  1  0
A    1
CN
A    2
O
A    3
N2
A    4
CR
A    5
CS
A    6
N1
A    7
CT
A    8
CE
A    9
CD
A   10
CG
A   11
CB
A   12
CA
A   13
C
A   14
OI1
A   15
OI2
M  END
