4DO4_DJN_A_510
     RDKit          3D

 30 30  0  0  0  0  0  0  0  0999 V2000
   58.0300   -1.9300   18.0920 O   0  0  0  0  0  0  0  0  0  0  0  0
   57.3240   -2.5520   18.8880 C   0  0  0  0  0  0  0  0  0  0  0  0
   56.4130   -1.8710   19.8950 C   0  0  0  0  0  0  0  0  0  0  0  0
   57.3220   -3.8880   18.8960 N   0  0  0  0  0  0  0  0  0  0  0  0
   58.2610   -4.6800   18.1140 C   0  0  0  0  0  0  0  0  0  0  0  0
   57.6440   -5.5760   17.0750 C   0  0  0  0  0  0  0  0  0  0  0  0
   56.7370   -4.8760   16.2140 O   0  0  0  0  0  0  0  0  0  0  0  0
   58.7910   -6.1900   16.2720 C   0  0  0  0  0  0  0  0  0  0  0  0
   59.5020   -5.1490   15.5950 O   0  0  0  0  0  0  0  0  0  0  0  0
   59.7340   -6.9340   17.2110 C   0  0  0  0  0  0  0  0  0  0  0  0
   60.9630   -7.4480   16.4340 C   0  0  0  0  0  0  0  0  0  0  0  0
   61.8690   -8.1030   17.3410 O   0  0  0  0  0  0  0  0  0  0  0  0
   60.1930   -6.2030   18.3970 N   0  0  0  0  0  0  0  0  0  0  0  0
   59.0680   -5.5520   19.0820 C   0  0  0  0  0  0  0  0  0  0  0  0
   56.7437   -2.1182   20.9145 H   0  0  0  0  0  0  0  0  0  0  0  0
   56.4555   -0.7815   19.7498 H   0  0  0  0  0  0  0  0  0  0  0  0
   55.3800   -2.2202   19.7498 H   0  0  0  0  0  0  0  0  0  0  0  0
   56.6282   -4.3776   19.4789 H   0  0  0  0  0  0  0  0  0  0  0  0
   58.8761   -3.9574   17.5576 H   0  0  0  0  0  0  0  0  0  0  0  0
   57.0434   -6.3530   17.5706 H   0  0  0  0  0  0  0  0  0  0  0  0
   56.0842   -4.3722   16.7619 H   0  0  0  0  0  0  0  0  0  0  0  0
   58.3874   -6.8986   15.5337 H   0  0  0  0  0  0  0  0  0  0  0  0
   59.9150   -4.5443   16.2612 H   0  0  0  0  0  0  0  0  0  0  0  0
   59.1160   -7.7555   17.6024 H   0  0  0  0  0  0  0  0  0  0  0  0
   60.6366   -8.1620   15.6635 H   0  0  0  0  0  0  0  0  0  0  0  0
   61.4744   -6.5991   15.9567 H   0  0  0  0  0  0  0  0  0  0  0  0
   61.6001   -7.9086   18.2737 H   0  0  0  0  0  0  0  0  0  0  0  0
   60.6457   -6.8631   19.0453 H   0  0  0  0  0  0  0  0  0  0  0  0
   59.4587   -4.9205   19.8936 H   0  0  0  0  0  0  0  0  0  0  0  0
   58.4052   -6.3327   19.4836 H   0  0  0  0  0  0  0  0  0  0  0  0
  9  8  1  0
  7  6  1  0
  8  6  1  0
  8 10  1  0
 11 10  1  0
 11 12  1  0
  6  5  1  0
 10 13  1  0
  1  2  2  0
  5  4  1  0
  5 14  1  0
 13 14  1  0
  2  4  1  0
  2  3  1  0
  3 15  1  0
  3 16  1  0
  3 17  1  0
  4 18  1  0
  5 19  1  0
  6 20  1  0
  7 21  1  0
  8 22  1  0
  9 23  1  0
 10 24  1  0
 11 25  1  0
 11 26  1  0
 12 27  1  0
 13 28  1  0
 14 29  1  0
 14 30  1  0
A    1
O7
A    2
C7
A    3
C8
A    4
N2
A    5
C2
A    6
C3
A    7
O3
A    8
C4
A    9
O4
A   10
C5
A   11
C6
A   12
O6
A   13
N5
A   14
C1
M  END
