4DDR_MMV_A_202
     RDKit          3D

 50 51  0  0  0  0  0  0  0  0999 V2000
   26.5640   12.4010   -2.2950 C   0  0  0  0  0  0  0  0  0  0  0  0
   26.1840   12.2520   -3.5770 N   0  0  0  0  0  0  0  0  0  0  0  0
   27.0830   12.3140   -4.6310 C   0  0  0  0  0  0  0  0  0  0  0  0
   28.4050   12.5270   -4.3650 N   0  0  0  0  0  0  0  0  0  0  0  0
   28.9110   12.6950   -3.0660 C   0  0  0  0  0  0  0  0  0  0  0  0
   27.9380   12.6340   -1.9730 C   0  0  0  0  0  0  0  0  0  0  0  0
   25.7110   12.3370   -1.3230 N   0  0  0  0  0  0  0  0  0  0  0  0
   26.6260   12.1600   -5.8920 N   0  0  0  0  0  0  0  0  0  0  0  0
   30.3170   12.9050   -2.9120 C   0  0  0  0  0  0  0  0  0  0  0  0
   30.6960   14.3310   -3.4960 C   0  0  0  0  0  0  0  0  0  0  0  0
   28.2580   12.7760   -0.6330 O   0  0  0  0  0  0  0  0  0  0  0  0
   28.3380   14.1600   -0.2020 C   0  0  0  0  0  0  0  0  0  0  0  0
   28.4630   14.0980    1.3590 C   0  0  0  0  0  0  0  0  0  0  0  0
   29.7830   13.3430    1.7620 C   0  0  0  0  0  0  0  0  0  0  0  0
   30.9550   14.0500    1.1990 O   0  0  0  0  0  0  0  0  0  0  0  0
   32.2940   13.6050    1.3780 C   0  0  0  0  0  0  0  0  0  0  0  0
   33.3180   14.4490    0.7490 C   0  0  0  0  0  0  0  0  0  0  0  0
   34.7120   14.0210    0.9150 C   0  0  0  0  0  0  0  0  0  0  0  0
   35.0650   12.8200    1.6610 C   0  0  0  0  0  0  0  0  0  0  0  0
   34.0730   12.0070    2.2620 C   0  0  0  0  0  0  0  0  0  0  0  0
   32.6750   12.3890    2.1310 C   0  0  0  0  0  0  0  0  0  0  0  0
   32.9160   15.6760   -0.0200 C   0  0  0  0  0  0  0  0  0  0  0  0
   34.0140   16.5930   -0.7250 C   0  0  0  0  0  0  0  0  0  0  0  0
   34.6770   16.1070   -2.1030 C   0  0  0  0  0  0  0  0  0  0  0  0
   35.6160   16.8390   -2.5480 O   0  0  0  0  0  0  0  0  0  0  0  0
   34.3060   15.0330   -2.6590 O   0  0  0  0  0  0  0  0  0  0  0  0
   26.0395   12.3616   -0.3471 H   0  0  0  0  0  0  0  0  0  0  0  0
   24.7040   12.2614   -1.5257 H   0  0  0  0  0  0  0  0  0  0  0  0
   25.6621   11.8352   -6.0544 H   0  0  0  0  0  0  0  0  0  0  0  0
   27.2412   12.3673   -6.6917 H   0  0  0  0  0  0  0  0  0  0  0  0
   30.8679   12.1250   -3.4580 H   0  0  0  0  0  0  0  0  0  0  0  0
   30.5841   12.8582   -1.8460 H   0  0  0  0  0  0  0  0  0  0  0  0
   30.8816   15.0294   -2.6666 H   0  0  0  0  0  0  0  0  0  0  0  0
   31.6026   14.2454   -4.1131 H   0  0  0  0  0  0  0  0  0  0  0  0
   29.8665   14.7068   -4.1131 H   0  0  0  0  0  0  0  0  0  0  0  0
   29.2198   14.6501   -0.6404 H   0  0  0  0  0  0  0  0  0  0  0  0
   27.4604   14.7413   -0.5213 H   0  0  0  0  0  0  0  0  0  0  0  0
   28.4900   15.1206    1.7634 H   0  0  0  0  0  0  0  0  0  0  0  0
   27.5974   13.5577    1.7700 H   0  0  0  0  0  0  0  0  0  0  0  0
   29.7516   12.3164    1.3682 H   0  0  0  0  0  0  0  0  0  0  0  0
   29.8665   13.3161    2.8585 H   0  0  0  0  0  0  0  0  0  0  0  0
   35.5134   14.6241    0.4633 H   0  0  0  0  0  0  0  0  0  0  0  0
   36.1239   12.5389    1.7594 H   0  0  0  0  0  0  0  0  0  0  0  0
   34.3549   11.1013    2.8189 H   0  0  0  0  0  0  0  0  0  0  0  0
   31.8945   11.7686    2.5957 H   0  0  0  0  0  0  0  0  0  0  0  0
   32.3715   16.3230    0.6835 H   0  0  0  0  0  0  0  0  0  0  0  0
   32.3613   15.2589   -0.8734 H   0  0  0  0  0  0  0  0  0  0  0  0
   34.8338   16.7240   -0.0033 H   0  0  0  0  0  0  0  0  0  0  0  0
   33.4545   17.4962   -1.0099 H   0  0  0  0  0  0  0  0  0  0  0  0
   36.2184   17.3086   -1.9182 H   0  0  0  0  0  0  0  0  0  0  0  0
  8  3  1  0
  3  4  2  0
  3  2  1  0
  4  5  1  0
  2  1  2  0
 10  9  1  0
  5  9  1  0
  5  6  2  0
 26 24  2  0
 25 24  1  0
  1  6  1  0
  1  7  1  0
 24 23  1  0
  6 11  1  0
 23 22  1  0
 11 12  1  0
 12 13  1  0
 22 17  1  0
 17 18  2  0
 17 16  1  0
 18 19  1  0
 15 16  1  0
 15 14  1  0
 13 14  1  0
 16 21  2  0
 19 20  2  0
 21 20  1  0
  7 27  1  0
  7 28  1  0
  8 29  1  0
  8 30  1  0
  9 31  1  0
  9 32  1  0
 10 33  1  0
 10 34  1  0
 10 35  1  0
 12 36  1  0
 12 37  1  0
 13 38  1  0
 13 39  1  0
 14 40  1  0
 14 41  1  0
 18 42  1  0
 19 43  1  0
 20 44  1  0
 21 45  1  0
 22 46  1  0
 22 47  1  0
 23 48  1  0
 23 49  1  0
 25 50  1  0
A    1
C1
A    2
N2
A    3
C3
A    4
N4
A    5
C5
A    6
C6
A    7
N7
A    8
N8
A    9
C9
A   10
C10
A   11
O11
A   12
C12
A   13
C13
A   14
C14
A   15
O15
A   16
C16
A   17
C17
A   18
C18
A   19
C19
A   20
C20
A   21
C21
A   22
C22
A   23
C23
A   24
C24
A   25
O25
A   26
O26
M  END
