4DRM_0MC_A_201
     RDKit          3D

 91 94  0  0  0  0  0  0  0  0999 V2000
   26.5360   16.0350  -22.4370 C   0  0  0  0  0  0  0  0  0  0  0  0
   27.7260   15.7860  -21.4930 C   0  0  0  0  0  0  0  0  0  0  0  0
   28.4180   14.4040  -21.6720 C   0  0  0  0  0  0  0  0  0  0  0  0
   28.6010   13.9760  -23.1480 C   0  0  0  0  0  0  0  0  0  0  0  0
   29.4660   12.6940  -23.2320 C   0  0  0  0  0  0  0  0  0  0  0  0
   28.8480   11.5260  -22.4280 C   0  0  0  0  0  0  0  0  0  0  0  0
   28.5710   11.9180  -20.9600 C   0  0  0  0  0  0  0  0  0  0  0  0
   27.7810   13.2500  -20.8290 C   0  0  0  0  0  0  0  0  0  0  0  0
   26.4500   13.0000  -21.2620 O   0  0  0  0  0  0  0  0  0  0  0  0
   27.7830   13.6320  -19.3380 C   0  0  0  0  0  0  0  0  0  0  0  0
   26.7620   13.6290  -18.6570 O   0  0  0  0  0  0  0  0  0  0  0  0
   29.0490   14.1080  -18.6270 C   0  0  0  0  0  0  0  0  0  0  0  0
   29.3210   15.3190  -18.7340 O   0  0  0  0  0  0  0  0  0  0  0  0
   29.7800   13.2670  -17.8810 N   0  0  0  0  0  0  0  0  0  0  0  0
   29.4110   11.7890  -17.7400 C   0  0  0  0  0  0  0  0  0  0  0  0
   29.4020   11.3940  -16.2520 C   0  0  0  0  0  0  0  0  0  0  0  0
   30.7330   11.8090  -15.5660 C   0  0  0  0  0  0  0  0  0  0  0  0
   30.9690   13.3270  -15.7400 C   0  0  0  0  0  0  0  0  0  0  0  0
   30.9930   13.7590  -17.2200 C   0  0  0  0  0  0  0  0  0  0  0  0
   32.2510   13.2290  -17.9100 C   0  0  0  0  0  0  0  0  0  0  0  0
   33.3590   13.3900  -17.4090 O   0  0  0  0  0  0  0  0  0  0  0  0
   32.1020   12.6040  -19.0770 O   0  0  0  0  0  0  0  0  0  0  0  0
   33.2870   12.1460  -19.7830 C   0  0  0  0  0  0  0  0  0  0  0  0
   33.5020   13.0620  -20.9810 C   0  0  0  0  0  0  0  0  0  0  0  0
   34.9240   12.8360  -21.5870 C   0  0  0  0  0  0  0  0  0  0  0  0
   36.1080   13.4320  -20.7540 C   0  0  0  0  0  0  0  0  0  0  0  0
   36.3280   14.8170  -20.7830 C   0  0  0  0  0  0  0  0  0  0  0  0
   36.9390   12.6300  -19.9900 C   0  0  0  0  0  0  0  0  0  0  0  0
   37.9940   13.1740  -19.2410 C   0  0  0  0  0  0  0  0  0  0  0  0
   38.2100   14.5640  -19.2820 C   0  0  0  0  0  0  0  0  0  0  0  0
   39.2250   15.2090  -18.5920 O   0  0  0  0  0  0  0  0  0  0  0  0
   40.2000   14.3580  -17.9450 C   0  0  0  0  0  0  0  0  0  0  0  0
   37.3740   15.3770  -20.0380 C   0  0  0  0  0  0  0  0  0  0  0  0
   37.6550   16.7170  -20.0090 O   0  0  0  0  0  0  0  0  0  0  0  0
   36.9080   17.6200  -20.8600 C   0  0  0  0  0  0  0  0  0  0  0  0
   33.0090   10.6510  -20.0300 C   0  0  0  0  0  0  0  0  0  0  0  0
   33.7240    9.7330  -19.2740 C   0  0  0  0  0  0  0  0  0  0  0  0
   32.0650   10.2190  -20.9830 C   0  0  0  0  0  0  0  0  0  0  0  0
   31.8710    8.8430  -21.1410 C   0  0  0  0  0  0  0  0  0  0  0  0
   32.5850    7.9230  -20.3680 C   0  0  0  0  0  0  0  0  0  0  0  0
   33.5220    8.3650  -19.4120 C   0  0  0  0  0  0  0  0  0  0  0  0
   34.2820    7.5430  -18.5720 O   0  0  0  0  0  0  0  0  0  0  0  0
   33.9340    6.1270  -18.4460 C   0  0  0  0  0  0  0  0  0  0  0  0
   34.4220    5.4240  -19.7240 C   0  0  0  0  0  0  0  0  0  0  0  0
   35.3470    5.9640  -20.3840 O   0  0  0  0  0  0  0  0  0  0  0  0
   33.8520    4.3570  -20.0500 O   0  0  0  0  0  0  0  0  0  0  0  0
   25.6300   16.2246  -21.8427 H   0  0  0  0  0  0  0  0  0  0  0  0
   26.7478   16.9083  -23.0715 H   0  0  0  0  0  0  0  0  0  0  0  0
   26.3799   15.1501  -23.0715 H   0  0  0  0  0  0  0  0  0  0  0  0
   27.3624   15.8558  -20.4572 H   0  0  0  0  0  0  0  0  0  0  0  0
   28.4820   16.5467  -21.7378 H   0  0  0  0  0  0  0  0  0  0  0  0
   29.4236   14.5765  -21.2610 H   0  0  0  0  0  0  0  0  0  0  0  0
   29.0979   14.7861  -23.7019 H   0  0  0  0  0  0  0  0  0  0  0  0
   27.6132   13.7708  -23.5864 H   0  0  0  0  0  0  0  0  0  0  0  0
   30.4659   12.9129  -22.8291 H   0  0  0  0  0  0  0  0  0  0  0  0
   29.5210   12.3891  -24.2875 H   0  0  0  0  0  0  0  0  0  0  0  0
   27.9002   11.2308  -22.9018 H   0  0  0  0  0  0  0  0  0  0  0  0
   29.5682   10.6945  -22.4279 H   0  0  0  0  0  0  0  0  0  0  0  0
   27.9867   11.1152  -20.4865 H   0  0  0  0  0  0  0  0  0  0  0  0
   29.5439   12.0611  -20.4671 H   0  0  0  0  0  0  0  0  0  0  0  0
   25.8617   12.8895  -20.4735 H   0  0  0  0  0  0  0  0  0  0  0  0
   28.4124   11.6193  -18.1690 H   0  0  0  0  0  0  0  0  0  0  0  0
   30.1525   11.1767  -18.2741 H   0  0  0  0  0  0  0  0  0  0  0  0
   28.5639   11.8989  -15.7494 H   0  0  0  0  0  0  0  0  0  0  0  0
   29.2903   10.3023  -16.1764 H   0  0  0  0  0  0  0  0  0  0  0  0
   30.6798   11.5695  -14.4937 H   0  0  0  0  0  0  0  0  0  0  0  0
   31.5646   11.2595  -16.0312 H   0  0  0  0  0  0  0  0  0  0  0  0
   30.1609   13.8699  -15.2279 H   0  0  0  0  0  0  0  0  0  0  0  0
   31.9534   13.5621  -15.3090 H   0  0  0  0  0  0  0  0  0  0  0  0
   31.0162   14.8568  -17.2861 H   0  0  0  0  0  0  0  0  0  0  0  0
   34.2536   12.2071  -19.2616 H   0  0  0  0  0  0  0  0  0  0  0  0
   33.4070   14.1094  -20.6588 H   0  0  0  0  0  0  0  0  0  0  0  0
   32.7460   12.8336  -21.7467 H   0  0  0  0  0  0  0  0  0  0  0  0
   34.9451   13.2968  -22.5856 H   0  0  0  0  0  0  0  0  0  0  0  0
   35.0794   11.7471  -21.6010 H   0  0  0  0  0  0  0  0  0  0  0  0
   35.6787   15.4640  -21.3912 H   0  0  0  0  0  0  0  0  0  0  0  0
   36.7687   11.5435  -19.9697 H   0  0  0  0  0  0  0  0  0  0  0  0
   38.6409   12.5250  -18.6324 H   0  0  0  0  0  0  0  0  0  0  0  0
   40.0977   14.4473  -16.8534 H   0  0  0  0  0  0  0  0  0  0  0  0
   40.0312   13.3132  -18.2448 H   0  0  0  0  0  0  0  0  0  0  0  0
   41.2124   14.6665  -18.2448 H   0  0  0  0  0  0  0  0  0  0  0  0
   36.3305   18.3181  -20.2363 H   0  0  0  0  0  0  0  0  0  0  0  0
   37.6051   18.1863  -21.4950 H   0  0  0  0  0  0  0  0  0  0  0  0
   36.2211   17.0414  -21.4950 H   0  0  0  0  0  0  0  0  0  0  0  0
   34.4674   10.0963  -18.5492 H   0  0  0  0  0  0  0  0  0  0  0  0
   31.4970   10.9433  -21.5853 H   0  0  0  0  0  0  0  0  0  0  0  0
   31.1461    8.4795  -21.8843 H   0  0  0  0  0  0  0  0  0  0  0  0
   32.4143    6.8452  -20.5068 H   0  0  0  0  0  0  0  0  0  0  0  0
   32.8444    6.0140  -18.3462 H   0  0  0  0  0  0  0  0  0  0  0  0
   34.4041    5.6869  -17.5542 H   0  0  0  0  0  0  0  0  0  0  0  0
   33.5217    3.7387  -19.3510 H   0  0  0  0  0  0  0  0  0  0  0  0
 45 44  2  0
 46 44  1  0
 44 43  1  0
 43 42  1  0
 42 41  1  0
 40 41  1  0
 40 39  2  0
 41 37  2  0
 39 38  1  0
 37 36  1  0
  5  6  1  0
  5  4  1  0
  6  7  1  0
 38 36  2  0
 25 26  1  0
 25 24  1  0
 36 23  1  0
 28 26  1  0
 28 29  2  0
 26 27  2  0
  4  3  1  0
 24 23  1  0
  7  8  1  0
 23 22  1  0
 29 30  1  0
 27 33  1  0
  9  8  1  0
  3  8  1  0
  3  2  1  0
 30 33  2  0
 30 31  1  0
  8 10  1  0
 22 20  1  0
 33 34  1  0
 32 31  1  0
 15 14  1  0
 15 16  1  0
  1  2  1  0
 34 35  1  0
 20 21  2  0
 20 19  1  0
 10 12  1  0
 10 11  2  0
 14 12  1  0
 14 19  1  0
 16 17  1  0
 12 13  2  0
 17 18  1  0
 19 18  1  0
  1 47  1  0
  1 48  1  0
  1 49  1  0
  2 50  1  0
  2 51  1  0
  3 52  1  0
  4 53  1  0
  4 54  1  0
  5 55  1  0
  5 56  1  0
  6 57  1  0
  6 58  1  0
  7 59  1  0
  7 60  1  0
  9 61  1  0
 15 62  1  0
 15 63  1  0
 16 64  1  0
 16 65  1  0
 17 66  1  0
 17 67  1  0
 18 68  1  0
 18 69  1  0
 19 70  1  0
 23 71  1  0
 24 72  1  0
 24 73  1  0
 25 74  1  0
 25 75  1  0
 27 76  1  0
 28 77  1  0
 29 78  1  0
 32 79  1  0
 32 80  1  0
 32 81  1  0
 35 82  1  0
 35 83  1  0
 35 84  1  0
 37 85  1  0
 38 86  1  0
 39 87  1  0
 40 88  1  0
 43 89  1  0
 43 90  1  0
 46 91  1  0
A    1
CAA
A    2
CAQ
A    3
CBQ
A    4
CAX
A    5
CAS
A    6
CAU
A    7
CBB
A    8
CBT
A    9
OAI
A   10
CBJ
A   11
OAG
A   12
CBI
A   13
OAF
A   14
N
A   15
CBA
A   16
CAT
A   17
CAR
A   18
CB
A   19
CA
A   20
C
A   21
O
A   22
OBF
A   23
CBP
A   24
CAZ
A   25
CAV
A   26
CBK
A   27
CAO
A   28
CAM
A   29
CAN
A   30
CBN
A   31
OBC
A   32
CAB
A   33
CBO
A   34
OBD
A   35
CAC
A   36
CBM
A   37
CAP
A   38
CAL
A   39
CAJ
A   40
CAK
A   41
CBL
A   42
OBE
A   43
CAW
A   44
CBG
A   45
OAH
A   46
OAD
M  END
