4DSY_0LO_A_503
     RDKit          3D

 24 25  0  0  0  0  0  0  0  0999 V2000
  -73.9090   35.1500  -44.9110 C   0  0  0  0  0  0  0  0  0  0  0  0
  -74.1900   35.2750  -46.2700 C   0  0  0  0  0  0  0  0  0  0  0  0
  -73.3550   34.6880  -47.2200 C   0  0  0  0  0  0  0  0  0  0  0  0
  -72.2340   33.9740  -46.8170 C   0  0  0  0  0  0  0  0  0  0  0  0
  -71.9540   33.8540  -45.4580 C   0  0  0  0  0  0  0  0  0  0  0  0
  -72.7850   34.4360  -44.4990 C   0  0  0  0  0  0  0  0  0  0  0  0
  -72.4940   34.3020  -43.0300 C   0  0  0  0  0  0  0  0  0  0  0  0
  -71.4950   33.4550  -42.5410 C   0  0  0  0  0  0  0  0  0  0  0  0
  -73.2470   35.0350  -42.1230 C   0  0  0  0  0  0  0  0  0  0  0  0
  -73.0070   34.9320  -40.8090 N   0  0  0  0  0  0  0  0  0  0  0  0
  -72.0580   34.1310  -40.3200 C   0  0  0  0  0  0  0  0  0  0  0  0
  -71.2890   33.3590  -41.1660 C   0  0  0  0  0  0  0  0  0  0  0  0
  -70.2300   32.4850  -40.6080 C   0  0  0  0  0  0  0  0  0  0  0  0
  -70.4640   31.5630  -39.7580 O   0  0  0  0  0  0  0  0  0  0  0  0
  -69.0660   32.7180  -41.0170 O   0  0  0  0  0  0  0  0  0  0  0  0
  -74.5721   35.6133  -44.1656 H   0  0  0  0  0  0  0  0  0  0  0  0
  -75.0759   35.8401  -46.5954 H   0  0  0  0  0  0  0  0  0  0  0  0
  -73.5846   34.7907  -48.2909 H   0  0  0  0  0  0  0  0  0  0  0  0
  -71.5740   33.5080  -47.5635 H   0  0  0  0  0  0  0  0  0  0  0  0
  -71.0649   33.2923  -45.1355 H   0  0  0  0  0  0  0  0  0  0  0  0
  -70.8762   32.8688  -43.2363 H   0  0  0  0  0  0  0  0  0  0  0  0
  -74.0432   35.7025  -42.4843 H   0  0  0  0  0  0  0  0  0  0  0  0
  -71.8878   34.0861  -39.2342 H   0  0  0  0  0  0  0  0  0  0  0  0
  -70.4143   31.7590  -38.7889 H   0  0  0  0  0  0  0  0  0  0  0  0
  3  4  2  0
  3  2  1  0
  4  5  1  0
  2  1  2  0
  5  6  2  0
  1  6  1  0
  6  7  1  0
  7  8  2  0
  7  9  1  0
  8 12  1  0
  9 10  2  0
 12 13  1  0
 12 11  2  0
 15 13  2  0
 10 11  1  0
 13 14  1  0
  1 16  1  0
  2 17  1  0
  3 18  1  0
  4 19  1  0
  5 20  1  0
  8 21  1  0
  9 22  1  0
 11 23  1  0
 14 24  1  0
A    1
CAF
A    2
CAD
A    3
CAC
A    4
CAE
A    5
CAG
A    6
CAN
A    7
CAO
A    8
CAJ
A    9
CAI
A   10
NAK
A   11
CAH
A   12
CAM
A   13
CAL
A   14
OAB
A   15
OAA
M  END
