4DSZ_DC3_A_800
     RDKit          3D

 45 47  0  0  0  0  0  0  0  0999 V2000
    3.9670   15.0580  -16.7880 F   0  0  0  0  0  0  0  0  0  0  0  0
    3.1820   14.2000  -17.3370 C   0  0  0  0  0  0  0  0  0  0  0  0
    2.2670   13.5230  -16.5480 C   0  0  0  0  0  0  0  0  0  0  0  0
    1.4070   12.5850  -17.1120 C   0  0  0  0  0  0  0  0  0  0  0  0
    0.5330   11.9400  -16.3330 F   0  0  0  0  0  0  0  0  0  0  0  0
    1.4710   12.3260  -18.4810 C   0  0  0  0  0  0  0  0  0  0  0  0
    0.6580   11.4270  -19.0860 F   0  0  0  0  0  0  0  0  0  0  0  0
    2.3850   13.0030  -19.2690 C   0  0  0  0  0  0  0  0  0  0  0  0
    3.2290   13.9400  -18.7030 C   0  0  0  0  0  0  0  0  0  0  0  0
    4.1060   14.6080  -19.5450 C   0  0  0  0  0  0  0  0  0  0  0  0
    3.3900   15.7570  -20.3070 C   0  0  0  0  0  0  0  0  0  0  0  0
    2.5570   16.5560  -19.4130 N   0  0  0  0  0  0  0  0  0  0  0  0
    4.4190   16.6710  -20.9480 C   0  0  0  0  0  0  0  0  0  0  0  0
    5.4680   15.9010  -21.7740 C   0  0  0  0  0  0  0  0  0  0  0  0
    5.9080   16.7770  -22.8820 N   0  0  0  0  0  0  0  0  0  0  0  0
    7.1290   16.8360  -23.4010 C   0  0  0  0  0  0  0  0  0  0  0  0
    5.1690   17.6370  -23.5090 N   0  0  0  0  0  0  0  0  0  0  0  0
    5.8230   18.2390  -24.3880 N   0  0  0  0  0  0  0  0  0  0  0  0
    7.0620   17.7650  -24.3610 C   0  0  0  0  0  0  0  0  0  0  0  0
    8.0850   18.1320  -25.1570 C   0  0  0  0  0  0  0  0  0  0  0  0
    9.1680   17.2460  -25.2940 C   0  0  0  0  0  0  0  0  0  0  0  0
   10.2660   17.5530  -26.0880 C   0  0  0  0  0  0  0  0  0  0  0  0
   11.3200   16.6320  -26.1780 C   0  0  0  0  0  0  0  0  0  0  0  0
   10.2680   18.7800  -26.7670 C   0  0  0  0  0  0  0  0  0  0  0  0
    9.1950   19.6700  -26.6410 C   0  0  0  0  0  0  0  0  0  0  0  0
    8.1000   19.3520  -25.8400 C   0  0  0  0  0  0  0  0  0  0  0  0
    2.2196   13.7279  -15.4683 H   0  0  0  0  0  0  0  0  0  0  0  0
    2.4400   12.7952  -20.3478 H   0  0  0  0  0  0  0  0  0  0  0  0
    4.5158   13.8944  -20.2750 H   0  0  0  0  0  0  0  0  0  0  0  0
    4.9103   15.0440  -18.9343 H   0  0  0  0  0  0  0  0  0  0  0  0
    2.7502   15.2956  -21.0736 H   0  0  0  0  0  0  0  0  0  0  0  0
    2.7903   16.3323  -18.4350 H   0  0  0  0  0  0  0  0  0  0  0  0
    2.7287   17.5566  -19.5866 H   0  0  0  0  0  0  0  0  0  0  0  0
    4.9370   17.2288  -20.1540 H   0  0  0  0  0  0  0  0  0  0  0  0
    3.8837   17.3427  -21.6352 H   0  0  0  0  0  0  0  0  0  0  0  0
    5.0221   14.9809  -22.1797 H   0  0  0  0  0  0  0  0  0  0  0  0
    6.3245   15.6237  -21.1420 H   0  0  0  0  0  0  0  0  0  0  0  0
    8.0088   16.2461  -23.1043 H   0  0  0  0  0  0  0  0  0  0  0  0
    9.1454   16.2852  -24.7589 H   0  0  0  0  0  0  0  0  0  0  0  0
   11.6456   16.3474  -25.1666 H   0  0  0  0  0  0  0  0  0  0  0  0
   10.9795   15.7368  -26.7190 H   0  0  0  0  0  0  0  0  0  0  0  0
   12.1615   17.0894  -26.7190 H   0  0  0  0  0  0  0  0  0  0  0  0
   11.1228   19.0462  -27.4061 H   0  0  0  0  0  0  0  0  0  0  0  0
    9.2164   20.6291  -27.1792 H   0  0  0  0  0  0  0  0  0  0  0  0
    7.2572   20.0526  -25.7461 H   0  0  0  0  0  0  0  0  0  0  0  0
 24 25  2  0
 24 22  1  0
 25 26  1  0
 23 22  1  0
 22 21  2  0
 26 20  2  0
 21 20  1  0
 20 19  1  0
 18 19  1  0
 18 17  2  0
 19 16  2  0
 17 15  1  0
 16 15  1  0
 15 14  1  0
 14 13  1  0
 13 11  1  0
 11 10  1  0
 11 12  1  0
 10  9  1  0
  8  9  1  0
  8  6  2  0
  7  6  1  0
  9  2  2  0
  6  4  1  0
  2  1  1  0
  2  3  1  0
  4  3  2  0
  4  5  1  0
  3 27  1  0
  8 28  1  0
 10 29  1  0
 10 30  1  0
 11 31  1  0
 12 32  1  0
 12 33  1  0
 13 34  1  0
 13 35  1  0
 14 36  1  0
 14 37  1  0
 16 38  1  0
 21 39  1  0
 23 40  1  0
 23 41  1  0
 23 42  1  0
 24 43  1  0
 25 44  1  0
 26 45  1  0
A    1
FAG
A    2
CAE
A    3
CAF
A    4
CAA
A    5
FAH
A    6
CAB
A    7
FAI
A    8
CAC
A    9
CAD
A   10
CAJ
A   11
CAK
A   12
NAM
A   13
CAL
A   14
CAN
A   15
NAO
A   16
CAP
A   17
NAS
A   18
NAR
A   19
CAQ
A   20
CAT
A   21
CAY
A   22
CAX
A   23
CAZ
A   24
CAW
A   25
CAV
A   26
CAU
M  END
