4DT2_0LV_A_504
     RDKit          3D

 27 28  0  0  0  0  0  0  0  0999 V2000
  -69.5250   33.1940  -43.7540 C   0  0  0  0  0  0  0  0  0  0  0  0
  -70.4460   34.2930  -44.1210 C   0  0  0  0  0  0  0  0  0  0  0  0
  -71.2910   33.9520  -45.3250 C   0  0  0  0  0  0  0  0  0  0  0  0
  -69.6110   35.5670  -44.3900 C   0  0  0  0  0  0  0  0  0  0  0  0
  -71.2780   34.4920  -42.9920 O   0  0  0  0  0  0  0  0  0  0  0  0
  -70.8050   33.6530  -41.9410 C   0  0  0  0  0  0  0  0  0  0  0  0
  -69.7760   32.8770  -42.3660 C   0  0  0  0  0  0  0  0  0  0  0  0
  -69.1560   31.9480  -41.4450 C   0  0  0  0  0  0  0  0  0  0  0  0
  -69.5840   31.8230  -40.1290 C   0  0  0  0  0  0  0  0  0  0  0  0
  -70.6360   32.6230  -39.7080 C   0  0  0  0  0  0  0  0  0  0  0  0
  -71.2370   33.5410  -40.6140 C   0  0  0  0  0  0  0  0  0  0  0  0
  -72.3650   34.4160  -40.2380 C   0  0  0  0  0  0  0  0  0  0  0  0
  -73.5060   34.2500  -40.9660 O   0  0  0  0  0  0  0  0  0  0  0  0
  -68.4814   33.5162  -43.8850 H   0  0  0  0  0  0  0  0  0  0  0  0
  -69.6898   32.3141  -44.3933 H   0  0  0  0  0  0  0  0  0  0  0  0
  -72.2631   33.5597  -44.9915 H   0  0  0  0  0  0  0  0  0  0  0  0
  -71.4489   34.8568  -45.9303 H   0  0  0  0  0  0  0  0  0  0  0  0
  -70.7767   33.1910  -45.9303 H   0  0  0  0  0  0  0  0  0  0  0  0
  -69.3142   36.0198  -43.4325 H   0  0  0  0  0  0  0  0  0  0  0  0
  -68.7113   35.3012  -44.9644 H   0  0  0  0  0  0  0  0  0  0  0  0
  -70.2137   36.2859  -44.9644 H   0  0  0  0  0  0  0  0  0  0  0  0
  -68.3221   31.3231  -41.7971 H   0  0  0  0  0  0  0  0  0  0  0  0
  -69.1031   31.1112  -39.4419 H   0  0  0  0  0  0  0  0  0  0  0  0
  -71.0054   32.5478  -38.6746 H   0  0  0  0  0  0  0  0  0  0  0  0
  -72.6059   34.2232  -39.1822 H   0  0  0  0  0  0  0  0  0  0  0  0
  -72.0280   35.4442  -40.4359 H   0  0  0  0  0  0  0  0  0  0  0  0
  -74.2752   34.1381  -40.3529 H   0  0  0  0  0  0  0  0  0  0  0  0
  9  8  1  0
  9 10  2  0
  8  7  2  0
 10 11  1  0
  7  1  1  0
  7  6  1  0
  1  2  1  0
  4  2  1  0
 11  6  2  0
 11 12  1  0
  6  5  1  0
  2  5  1  0
  2  3  1  0
 12 13  1  0
  1 14  1  0
  1 15  1  0
  3 16  1  0
  3 17  1  0
  3 18  1  0
  4 19  1  0
  4 20  1  0
  4 21  1  0
  8 22  1  0
  9 23  1  0
 10 24  1  0
 12 25  1  0
 12 26  1  0
 13 27  1  0
A    1
CAH
A    2
CAM
A    3
CAA
A    4
CAB
A    5
OAI
A    6
CAL
A    7
CAK
A    8
CAF
A    9
CAD
A   10
CAE
A   11
CAJ
A   12
CAG
A   13
OAC
M  END
