4DTC_D5C_A_801
     RDKit          3D

 53 55  0  0  0  0  0  0  0  0999 V2000
    8.7170   23.8080  -31.3460 F   0  0  0  0  0  0  0  0  0  0  0  0
    7.4220   23.9450  -30.8360 C   0  0  0  0  0  0  0  0  0  0  0  0
    6.6730   22.8590  -31.2290 F   0  0  0  0  0  0  0  0  0  0  0  0
    6.8760   25.0660  -31.3330 F   0  0  0  0  0  0  0  0  0  0  0  0
    7.4490   24.0310  -29.4120 C   0  0  0  0  0  0  0  0  0  0  0  0
    7.1150   22.9340  -28.6020 C   0  0  0  0  0  0  0  0  0  0  0  0
    7.8170   25.2220  -28.7780 C   0  0  0  0  0  0  0  0  0  0  0  0
    7.8510   25.3230  -27.3820 C   0  0  0  0  0  0  0  0  0  0  0  0
    7.5220   24.2230  -26.5940 C   0  0  0  0  0  0  0  0  0  0  0  0
    7.1620   23.0140  -27.2030 C   0  0  0  0  0  0  0  0  0  0  0  0
    6.8270   21.9070  -26.4070 C   0  0  0  0  0  0  0  0  0  0  0  0
    7.6780   20.7750  -26.1960 C   0  0  0  0  0  0  0  0  0  0  0  0
    7.2720   19.7060  -25.3690 C   0  0  0  0  0  0  0  0  0  0  0  0
    5.5720   21.9590  -25.7830 C   0  0  0  0  0  0  0  0  0  0  0  0
    5.1820   20.9040  -24.9740 C   0  0  0  0  0  0  0  0  0  0  0  0
    5.9940   19.7760  -24.7390 C   0  0  0  0  0  0  0  0  0  0  0  0
    5.3860   18.8240  -23.8940 C   0  0  0  0  0  0  0  0  0  0  0  0
    4.1480   18.8020  -23.8410 O   0  0  0  0  0  0  0  0  0  0  0  0
    6.1340   17.9820  -23.1480 N   0  0  0  0  0  0  0  0  0  0  0  0
    5.4460   17.0110  -22.2320 C   0  0  0  0  0  0  0  0  0  0  0  0
    4.2680   17.6580  -21.4070 C   0  0  0  0  0  0  0  0  0  0  0  0
    3.4320   16.7240  -20.4710 C   0  0  0  0  0  0  0  0  0  0  0  0
    2.6730   17.5140  -19.4950 N   0  0  0  0  0  0  0  0  0  0  0  0
    4.2740   15.6820  -19.6860 C   0  0  0  0  0  0  0  0  0  0  0  0
    3.4950   14.8290  -18.8790 C   0  0  0  0  0  0  0  0  0  0  0  0
    3.5070   14.9310  -17.5040 C   0  0  0  0  0  0  0  0  0  0  0  0
    4.1870   15.7870  -16.9690 F   0  0  0  0  0  0  0  0  0  0  0  0
    2.7320   14.0850  -16.7100 C   0  0  0  0  0  0  0  0  0  0  0  0
    1.9210   13.1090  -17.2920 C   0  0  0  0  0  0  0  0  0  0  0  0
    1.1260   12.2540  -16.5260 F   0  0  0  0  0  0  0  0  0  0  0  0
    1.9080   13.0020  -18.6720 C   0  0  0  0  0  0  0  0  0  0  0  0
    1.1400   12.1010  -19.2500 F   0  0  0  0  0  0  0  0  0  0  0  0
    2.6990   13.8500  -19.4500 C   0  0  0  0  0  0  0  0  0  0  0  0
    6.8093   21.9896  -29.0760 H   0  0  0  0  0  0  0  0  0  0  0  0
    8.0851   26.0970  -29.3884 H   0  0  0  0  0  0  0  0  0  0  0  0
    8.1380   26.2727  -26.9069 H   0  0  0  0  0  0  0  0  0  0  0  0
    7.5447   24.3032  -25.4972 H   0  0  0  0  0  0  0  0  0  0  0  0
    8.6624   20.7381  -26.6855 H   0  0  0  0  0  0  0  0  0  0  0  0
    7.9276   18.8365  -25.2133 H   0  0  0  0  0  0  0  0  0  0  0  0
    4.9083   22.8232  -25.9334 H   0  0  0  0  0  0  0  0  0  0  0  0
    4.1937   20.9487  -24.4932 H   0  0  0  0  0  0  0  0  0  0  0  0
    7.1621   18.0057  -23.2067 H   0  0  0  0  0  0  0  0  0  0  0  0
    5.0373   16.1891  -22.8381 H   0  0  0  0  0  0  0  0  0  0  0  0
    6.1957   16.6595  -21.5079 H   0  0  0  0  0  0  0  0  0  0  0  0
    4.7038   18.4478  -20.7775 H   0  0  0  0  0  0  0  0  0  0  0  0
    3.5515   17.9985  -22.1690 H   0  0  0  0  0  0  0  0  0  0  0  0
    2.7671   16.1720  -21.1515 H   0  0  0  0  0  0  0  0  0  0  0  0
    2.9429   17.2330  -18.5415 H   0  0  0  0  0  0  0  0  0  0  0  0
    2.8781   18.5144  -19.6292 H   0  0  0  0  0  0  0  0  0  0  0  0
    4.8302   15.0669  -20.4087 H   0  0  0  0  0  0  0  0  0  0  0  0
    4.9432   16.2422  -19.0164 H   0  0  0  0  0  0  0  0  0  0  0  0
    2.7603   14.1880  -15.6152 H   0  0  0  0  0  0  0  0  0  0  0  0
    2.6896   13.7375  -20.5442 H   0  0  0  0  0  0  0  0  0  0  0  0
  4  2  1  0
  1  2  1  0
  3  2  1  0
  2  5  1  0
  5  7  2  0
  5  6  1  0
  7  8  1  0
  6 10  2  0
  8  9  2  0
 10  9  1  0
 10 11  1  0
 14 11  1  0
 14 15  2  0
 11 12  2  0
 15 16  1  0
 12 13  1  0
 16 13  2  0
 16 17  1  0
 18 17  2  0
 17 19  1  0
 19 20  1  0
 20 21  1  0
 21 22  1  0
 22 24  1  0
 22 23  1  0
 24 25  1  0
 33 25  1  0
 33 31  2  0
 32 31  1  0
 25 26  2  0
 31 29  1  0
 26 27  1  0
 26 28  1  0
 29 28  2  0
 29 30  1  0
  6 34  1  0
  7 35  1  0
  8 36  1  0
  9 37  1  0
 12 38  1  0
 13 39  1  0
 14 40  1  0
 15 41  1  0
 19 42  1  0
 20 43  1  0
 20 44  1  0
 21 45  1  0
 21 46  1  0
 22 47  1  0
 23 48  1  0
 23 49  1  0
 24 50  1  0
 24 51  1  0
 28 52  1  0
 33 53  1  0
A    1
FBE
A    2
CBD
A    3
FBF
A    4
FBG
A    5
CBB
A    6
CBC
A    7
CBA
A    8
CAZ
A    9
CAY
A   10
CAX
A   11
CAU
A   12
CAV
A   13
CAW
A   14
CAT
A   15
CAS
A   16
CAR
A   17
CAP
A   18
OAQ
A   19
NAO
A   20
CAN
A   21
CAL
A   22
CAK
A   23
NAM
A   24
CAJ
A   25
CAD
A   26
CAE
A   27
FAG
A   28
CAF
A   29
CAA
A   30
FAH
A   31
CAB
A   32
FAI
A   33
CAC
M  END
