4DTK_7LI_A_408
     RDKit          3D

 48 50  0  0  0  0  0  0  0  0999 V2000
   22.7970  -40.1530   -3.7150 C   0  0  0  0  0  0  0  0  0  0  0  0
   19.3330  -37.1640   -2.5370 N   0  0  0  0  0  0  0  0  0  0  0  0
   20.7330  -39.4530   -2.9090 O   0  0  0  0  0  0  0  0  0  0  0  0
   17.7840  -36.8070    2.6510 S   0  0  0  0  0  0  0  0  0  0  0  0
   21.4650  -40.6490   -3.2770 C   0  0  0  0  0  0  0  0  0  0  0  0
   16.3110  -37.3160   -4.7420 N   0  0  0  0  0  0  0  0  0  0  0  0
   17.0340  -33.9390    0.2010 O   0  0  0  0  0  0  0  0  0  0  0  0
   20.6960  -41.2920   -4.3840 C   0  0  0  0  0  0  0  0  0  0  0  0
   16.2780  -34.7590    2.2280 N   0  0  0  0  0  0  0  0  0  0  0  0
   15.8050  -35.8970    4.1670 O   0  0  0  0  0  0  0  0  0  0  0  0
   20.6300  -39.0260   -1.5980 C   0  0  0  0  0  0  0  0  0  0  0  0
   21.1810  -39.7010   -0.5130 C   0  0  0  0  0  0  0  0  0  0  0  0
   20.9850  -39.2170    0.7690 C   0  0  0  0  0  0  0  0  0  0  0  0
   20.2470  -38.0650    0.9710 C   0  0  0  0  0  0  0  0  0  0  0  0
   19.7010  -37.3590   -0.1090 C   0  0  0  0  0  0  0  0  0  0  0  0
   19.8990  -37.8450   -1.4110 C   0  0  0  0  0  0  0  0  0  0  0  0
   20.1400  -36.2080   -3.3070 C   0  0  0  0  0  0  0  0  0  0  0  0
   19.3510  -35.1490   -4.0470 C   0  0  0  0  0  0  0  0  0  0  0  0
   18.2330  -35.7860   -4.8610 C   0  0  0  0  0  0  0  0  0  0  0  0
   17.3690  -36.6510   -3.9580 C   0  0  0  0  0  0  0  0  0  0  0  0
   18.1700  -37.7150   -3.2430 C   0  0  0  0  0  0  0  0  0  0  0  0
   18.7610  -36.2570    0.1020 C   0  0  0  0  0  0  0  0  0  0  0  0
   18.0230  -35.9230    1.1730 C   0  0  0  0  0  0  0  0  0  0  0  0
   17.0940  -34.7720    1.1100 C   0  0  0  0  0  0  0  0  0  0  0  0
   16.4670  -35.7360    3.1610 C   0  0  0  0  0  0  0  0  0  0  0  0
   23.4116  -39.9241   -2.8319 H   0  0  0  0  0  0  0  0  0  0  0  0
   23.2957  -40.9257   -4.3185 H   0  0  0  0  0  0  0  0  0  0  0  0
   22.6689  -39.2423   -4.3185 H   0  0  0  0  0  0  0  0  0  0  0  0
   21.5921  -41.3935   -2.4773 H   0  0  0  0  0  0  0  0  0  0  0  0
   15.6278  -37.7454   -4.1019 H   0  0  0  0  0  0  0  0  0  0  0  0
   15.8357  -36.6214   -5.3358 H   0  0  0  0  0  0  0  0  0  0  0  0
   19.9174  -41.9430   -3.9597 H   0  0  0  0  0  0  0  0  0  0  0  0
   20.2259  -40.5143   -5.0039 H   0  0  0  0  0  0  0  0  0  0  0  0
   21.3782  -41.8923   -5.0039 H   0  0  0  0  0  0  0  0  0  0  0  0
   15.5537  -34.0371    2.3511 H   0  0  0  0  0  0  0  0  0  0  0  0
   21.7702  -40.6159   -0.6735 H   0  0  0  0  0  0  0  0  0  0  0  0
   21.4172  -39.7498    1.6289 H   0  0  0  0  0  0  0  0  0  0  0  0
   20.0862  -37.6974    1.9952 H   0  0  0  0  0  0  0  0  0  0  0  0
   20.8223  -35.6994   -2.6100 H   0  0  0  0  0  0  0  0  0  0  0  0
   20.6588  -36.7970   -4.0777 H   0  0  0  0  0  0  0  0  0  0  0  0
   18.9148  -34.4486   -3.3195 H   0  0  0  0  0  0  0  0  0  0  0  0
   20.0276  -34.6149   -4.7303 H   0  0  0  0  0  0  0  0  0  0  0  0
   17.6140  -34.9965   -5.3121 H   0  0  0  0  0  0  0  0  0  0  0  0
   18.6706  -36.4111   -5.6533 H   0  0  0  0  0  0  0  0  0  0  0  0
   16.9304  -35.9773   -3.2072 H   0  0  0  0  0  0  0  0  0  0  0  0
   18.5218  -38.4487   -3.9832 H   0  0  0  0  0  0  0  0  0  0  0  0
   17.5133  -38.1800   -2.4930 H   0  0  0  0  0  0  0  0  0  0  0  0
   18.6383  -35.5892   -0.7635 H   0  0  0  0  0  0  0  0  0  0  0  0
  1  5  1  0
  2 16  1  0
  2 17  1  0
  2 21  1  0
  3  5  1  0
  3 11  1  0
  4 23  1  0
  4 25  1  0
  5  8  1  0
  6 20  1  0
  7 24  2  0
  9 24  1  0
  9 25  1  0
 10 25  2  0
 11 12  2  0
 11 16  1  0
 12 13  1  0
 13 14  2  0
 14 15  1  0
 15 16  2  0
 15 22  1  0
 17 18  1  0
 18 19  1  0
 19 20  1  0
 20 21  1  0
 22 23  2  0
 23 24  1  0
  1 26  1  0
  1 27  1  0
  1 28  1  0
  5 29  1  0
  6 30  1  0
  6 31  1  0
  8 32  1  0
  8 33  1  0
  8 34  1  0
  9 35  1  0
 12 36  1  0
 13 37  1  0
 14 38  1  0
 17 39  1  0
 17 40  1  0
 18 41  1  0
 18 42  1  0
 19 43  1  0
 19 44  1  0
 20 45  1  0
 21 46  1  0
 21 47  1  0
 22 48  1  0
A    1
C
A    2
N
A    3
O
A    4
S
A    5
C1
A    6
N1
A    7
O1
A    8
C2
A    9
N2
A   10
O2
A   11
C3
A   12
C4
A   13
C5
A   14
C6
A   15
C7
A   16
C8
A   17
C9
A   18
C10
A   19
C11
A   20
C12
A   21
C13
A   22
C14
A   23
C15
A   24
C16
A   25
C17
M  END
