3VOB_9PC_A_403
     RDKit          3D

 31 33  0  0  0  0  0  0  0  0999 V2000
   -2.3490    6.1160   23.5660 C   0  0  0  0  0  0  0  0  0  0  0  0
   -2.5800    7.4610   23.7420 C   0  0  0  0  0  0  0  0  0  0  0  0
    5.6290   15.2130   21.1860 N   0  0  0  0  0  0  0  0  0  0  0  0
    2.8290   13.5240   21.3990 C   0  0  0  0  0  0  0  0  0  0  0  0
    3.2150   14.8900   20.9830 C   0  0  0  0  0  0  0  0  0  0  0  0
    2.2070   15.9620   21.2120 C   0  0  0  0  0  0  0  0  0  0  0  0
    0.9760   15.6620   21.7970 C   0  0  0  0  0  0  0  0  0  0  0  0
    3.6650   12.5000   21.2200 F   0  0  0  0  0  0  0  0  0  0  0  0
    4.5710   15.1660   20.3660 C   0  0  0  0  0  0  0  0  0  0  0  0
    4.6770   15.3360   19.1500 O   0  0  0  0  0  0  0  0  0  0  0  0
    1.4980   13.3040   22.0160 C   0  0  0  0  0  0  0  0  0  0  0  0
    0.6190   14.3720   22.1870 C   0  0  0  0  0  0  0  0  0  0  0  0
    2.4760   17.2320   20.8710 F   0  0  0  0  0  0  0  0  0  0  0  0
    1.1200   12.0440   22.4020 O   0  0  0  0  0  0  0  0  0  0  0  0
   -0.2810   11.7700   22.4430 C   0  0  0  0  0  0  0  0  0  0  0  0
   -0.6060   10.2990   22.6000 C   0  0  0  0  0  0  0  0  0  0  0  0
    0.4620    9.0970   21.9060 S   0  0  0  0  0  0  0  0  0  0  0  0
   -0.5130    7.8520   22.4740 C   0  0  0  0  0  0  0  0  0  0  0  0
   -0.3260    6.5220   22.3320 N   0  0  0  0  0  0  0  0  0  0  0  0
   -1.2280    5.6650   22.8660 C   0  0  0  0  0  0  0  0  0  0  0  0
   -3.5400    4.9950   24.2810 Cl  0  0  0  0  0  0  0  0  0  0  0  0
   -1.6860    8.3630   23.2110 C   0  0  0  0  0  0  0  0  0  0  0  0
   -1.6580    9.7280   23.2510 N   0  0  0  0  0  0  0  0  0  0  0  0
   -3.4634    7.8093   24.2972 H   0  0  0  0  0  0  0  0  0  0  0  0
    5.4902   15.2068   22.2066 H   0  0  0  0  0  0  0  0  0  0  0  0
    6.5814   15.2553   20.7960 H   0  0  0  0  0  0  0  0  0  0  0  0
    0.2565   16.4784   21.9573 H   0  0  0  0  0  0  0  0  0  0  0  0
   -0.3696   14.1947   22.6356 H   0  0  0  0  0  0  0  0  0  0  0  0
   -0.7174   12.3153   23.2928 H   0  0  0  0  0  0  0  0  0  0  0  0
   -0.7015   12.0925   21.4791 H   0  0  0  0  0  0  0  0  0  0  0  0
   -1.0734    4.5827   22.7450 H   0  0  0  0  0  0  0  0  0  0  0  0
 10  9  2  0
  9  5  1  0
  9  3  1  0
 13  6  1  0
  5  6  1  0
  5  4  2  0
  6  7  2  0
  8  4  1  0
  4 11  1  0
  7 12  1  0
 17 18  1  0
 17 16  1  0
 11 12  2  0
 11 14  1  0
 19 18  2  0
 19 20  1  0
 15 14  1  0
 15 16  1  0
 18 22  1  0
 16 23  2  0
 20  1  2  0
 22 23  1  0
 22  2  2  0
  1  2  1  0
  1 21  1  0
  2 24  1  0
  3 25  1  0
  3 26  1  0
  7 27  1  0
 12 28  1  0
 15 29  1  0
 15 30  1  0
 20 31  1  0
A    1
C11
A    2
C12
A    3
N
A    4
C13
A    5
C1
A    6
C2
A    7
C3
A    8
F1
A    9
C
A   10
O
A   11
C5
A   12
C4
A   13
F
A   14
O1
A   15
C6
A   16
C7
A   17
S
A   18
C9
A   19
N2
A   20
C10
A   21
CL
A   22
C8
A   23
N1
M  END
