2I2E_A22_A_273
     RDKit          3D

 76 81  0  0  0  0  0  0  0  0999 V2000
   17.2790    9.9520   17.6970 P   0  0  0  0  0  0  0  0  0  0  0  0
   15.9300   10.4980   17.4650 O   0  0  0  0  0  0  0  0  0  0  0  0
   17.2390    8.4110   18.2020 O   0  0  0  0  0  0  0  0  0  0  0  0
   18.0690   10.8050   18.8070 O   0  0  0  0  0  0  0  0  0  0  0  0
   13.9800    7.5470   13.3200 P   0  0  0  0  0  0  0  0  0  0  0  0
   13.6630    6.2690   12.6320 O   0  0  0  0  0  0  0  0  0  0  0  0
   13.7490    7.6560   14.7850 O   0  0  0  0  0  0  0  0  0  0  0  0
   15.5050    7.9350   12.9830 O   0  0  0  0  0  0  0  0  0  0  0  0
   16.5310    6.8990   12.9920 C   0  0  0  0  0  0  0  0  0  0  0  0
   17.8510    7.3500   13.6770 C   0  0  0  0  0  0  0  0  0  0  0  0
   18.3800    8.5120   12.9740 O   0  0  0  0  0  0  0  0  0  0  0  0
   17.6590    7.8020   15.1380 C   0  0  0  0  0  0  0  0  0  0  0  0
   18.7070    7.2170   15.9190 O   0  0  0  0  0  0  0  0  0  0  0  0
   17.8000    9.3390   15.0860 C   0  0  0  0  0  0  0  0  0  0  0  0
   18.2610    9.9000   16.3610 O   0  0  0  0  0  0  0  0  0  0  0  0
   18.8540    9.4400   13.9910 C   0  0  0  0  0  0  0  0  0  0  0  0
   19.0940   10.7680   13.3190 N   0  0  0  0  0  0  0  0  0  0  0  0
   18.2240   11.7030   12.9140 C   0  0  0  0  0  0  0  0  0  0  0  0
   18.8960   12.7320   12.3730 N   0  0  0  0  0  0  0  0  0  0  0  0
   20.2070   12.4260   12.4040 C   0  0  0  0  0  0  0  0  0  0  0  0
   21.3920   13.0470   11.9860 C   0  0  0  0  0  0  0  0  0  0  0  0
   21.4060   14.2470   11.3880 N   0  0  0  0  0  0  0  0  0  0  0  0
   22.5540   12.3890   12.1930 N   0  0  0  0  0  0  0  0  0  0  0  0
   22.6060   11.2190   12.7940 C   0  0  0  0  0  0  0  0  0  0  0  0
   21.5160   10.5910   13.1940 N   0  0  0  0  0  0  0  0  0  0  0  0
   20.3150   11.1690   12.9980 C   0  0  0  0  0  0  0  0  0  0  0  0
   13.2920   10.2880   12.7360 P   0  0  0  0  0  0  0  0  0  0  0  0
   11.9750   10.8930   13.0330 O   0  0  0  0  0  0  0  0  0  0  0  0
   14.4540   10.5630   13.6120 O   0  0  0  0  0  0  0  0  0  0  0  0
   13.0820    8.6850   12.5870 O   0  0  0  0  0  0  0  0  0  0  0  0
   13.6800   10.7190   11.2010 O   0  0  0  0  0  0  0  0  0  0  0  0
   13.9550    9.7450   10.2130 C   0  0  0  0  0  0  0  0  0  0  0  0
   15.4600    9.7080    9.9250 C   0  0  0  0  0  0  0  0  0  0  0  0
   15.9970    8.3400    9.9740 O   0  0  0  0  0  0  0  0  0  0  0  0
   15.5250   10.1180    8.4570 C   0  0  0  0  0  0  0  0  0  0  0  0
   15.5990   11.5640    8.3530 O   0  0  0  0  0  0  0  0  0  0  0  0
   16.8070    9.4260    7.9720 C   0  0  0  0  0  0  0  0  0  0  0  0
   17.8690   10.3910    8.0590 O   0  0  0  0  0  0  0  0  0  0  0  0
   17.0430    8.2410    8.9490 C   0  0  0  0  0  0  0  0  0  0  0  0
   16.9970    6.8380    8.3400 N   0  0  0  0  0  0  0  0  0  0  0  0
   15.9190    6.2180    7.8370 C   0  0  0  0  0  0  0  0  0  0  0  0
   16.2610    4.9970    7.4110 N   0  0  0  0  0  0  0  0  0  0  0  0
   17.5670    4.8270    7.6280 C   0  0  0  0  0  0  0  0  0  0  0  0
   18.4790    3.7850    7.3890 C   0  0  0  0  0  0  0  0  0  0  0  0
   18.1270    2.6210    6.8190 N   0  0  0  0  0  0  0  0  0  0  0  0
   19.7530    3.9680    7.7560 N   0  0  0  0  0  0  0  0  0  0  0  0
   20.1470    5.1080    8.3180 C   0  0  0  0  0  0  0  0  0  0  0  0
   19.3200    6.0980    8.5630 N   0  0  0  0  0  0  0  0  0  0  0  0
   18.0240    5.9950    8.2280 C   0  0  0  0  0  0  0  0  0  0  0  0
   15.4917   10.6754   18.3348 H   0  0  0  0  0  0  0  0  0  0  0  0
   17.2384    8.3880   19.1917 H   0  0  0  0  0  0  0  0  0  0  0  0
   13.4885    5.5656   13.3064 H   0  0  0  0  0  0  0  0  0  0  0  0
   16.1391    6.0236   13.5306 H   0  0  0  0  0  0  0  0  0  0  0  0
   16.7698    6.6666   11.9437 H   0  0  0  0  0  0  0  0  0  0  0  0
   18.5183    6.4760   13.6500 H   0  0  0  0  0  0  0  0  0  0  0  0
   16.6971    7.5041   15.5807 H   0  0  0  0  0  0  0  0  0  0  0  0
   18.5040    7.3303   16.8813 H   0  0  0  0  0  0  0  0  0  0  0  0
   16.8694    9.8950   14.8991 H   0  0  0  0  0  0  0  0  0  0  0  0
   19.8232    9.2399   14.4713 H   0  0  0  0  0  0  0  0  0  0  0  0
   17.1301   11.6379   13.0097 H   0  0  0  0  0  0  0  0  0  0  0  0
   21.4160   15.1057   11.9567 H   0  0  0  0  0  0  0  0  0  0  0  0
   21.4067   14.3101   10.3599 H   0  0  0  0  0  0  0  0  0  0  0  0
   23.5862   10.7511   12.9679 H   0  0  0  0  0  0  0  0  0  0  0  0
   11.8515   10.9497   14.0136 H   0  0  0  0  0  0  0  0  0  0  0  0
   13.6275    8.7581   10.5720 H   0  0  0  0  0  0  0  0  0  0  0  0
   13.4148   10.0016    9.2898 H   0  0  0  0  0  0  0  0  0  0  0  0
   16.0171   10.3265   10.6441 H   0  0  0  0  0  0  0  0  0  0  0  0
   14.6477    9.8302    7.8591 H   0  0  0  0  0  0  0  0  0  0  0  0
   15.6192   11.9595    9.2603 H   0  0  0  0  0  0  0  0  0  0  0  0
   16.7497    9.0562    6.9376 H   0  0  0  0  0  0  0  0  0  0  0  0
   18.0710   10.5745    9.0106 H   0  0  0  0  0  0  0  0  0  0  0  0
   18.0713    8.3408    9.3266 H   0  0  0  0  0  0  0  0  0  0  0  0
   14.9080    6.6481    7.7831 H   0  0  0  0  0  0  0  0  0  0  0  0
   17.8824    1.8123    7.4081 H   0  0  0  0  0  0  0  0  0  0  0  0
   18.1016    2.5370    5.7927 H   0  0  0  0  0  0  0  0  0  0  0  0
   21.2069    5.2256    8.5879 H   0  0  0  0  0  0  0  0  0  0  0  0
  1 15  1  0
  1  4  2  0
  1  3  1  0
  1  2  1  0
  5 30  1  0
  5  7  2  0
  5  8  1  0
  5  6  1  0
  8  9  1  0
  9 10  1  0
 10 11  1  0
 10 12  1  0
 11 16  1  0
 12 14  1  0
 12 13  1  0
 14 16  1  0
 14 15  1  0
 16 17  1  0
 17 18  1  0
 17 26  1  0
 18 19  2  0
 19 20  1  0
 20 21  1  0
 20 26  2  0
 21 22  1  0
 21 23  2  0
 23 24  1  0
 24 25  2  0
 25 26  1  0
 27 31  1  0
 27 30  1  0
 27 29  2  0
 27 28  1  0
 31 32  1  0
 32 33  1  0
 33 35  1  0
 33 34  1  0
 34 39  1  0
 35 37  1  0
 35 36  1  0
 37 38  1  0
 37 39  1  0
 39 40  1  0
 40 41  1  0
 40 49  1  0
 41 42  2  0
 42 43  1  0
 43 44  1  0
 43 49  2  0
 44 45  1  0
 44 46  2  0
 46 47  1  0
 47 48  2  0
 48 49  1  0
  2 50  1  0
  3 51  1  0
  6 52  1  0
  9 53  1  0
  9 54  1  0
 10 55  1  0
 12 56  1  0
 13 57  1  0
 14 58  1  0
 16 59  1  0
 18 60  1  0
 22 61  1  0
 22 62  1  0
 24 63  1  0
 28 64  1  0
 32 65  1  0
 32 66  1  0
 33 67  1  0
 35 68  1  0
 36 69  1  0
 37 70  1  0
 38 71  1  0
 39 72  1  0
 41 73  1  0
 45 74  1  0
 45 75  1  0
 47 76  1  0
A    1
P2D
A    2
O11
A    3
O12
A    4
O13
A    5
P1A
A    6
O14
A    7
O15
A    8
O5D
A    9
C5D
A   10
C4D
A   11
O4D
A   12
C3D
A   13
O3D
A   14
C2D
A   15
O2D
A   16
C1D
A   17
N9A
A   18
C8A
A   19
N7A
A   20
C5A
A   21
C6A
A   22
N6A
A   23
N1A
A   24
C2A
A   25
N3A
A   26
C4A
A   27
P1B
A   28
O16
A   29
O17
A   30
O18
A   31
O5E
A   32
C5E
A   33
C4E
A   34
O4E
A   35
C3E
A   36
O3E
A   37
C2E
A   38
O2E
A   39
C1E
A   40
N9B
A   41
C8B
A   42
N7B
A   43
C5B
A   44
C6B
A   45
N6B
A   46
N1B
A   47
C2B
A   48
N3B
A   49
C4B
M  END
