4DYA_0MF_A_601
     RDKit          3D

 61 65  0  0  0  0  0  0  0  0999 V2000
   25.8820  -33.4250   21.0550 C   0  0  0  0  0  0  0  0  0  0  0  0
   26.9300  -34.1350   20.4710 C   0  0  0  0  0  0  0  0  0  0  0  0
   32.0090  -36.5830   13.2050 C   0  0  0  0  0  0  0  0  0  0  0  0
   24.7450  -34.0960   21.5010 C   0  0  0  0  0  0  0  0  0  0  0  0
   26.8420  -35.5160   20.3310 C   0  0  0  0  0  0  0  0  0  0  0  0
   30.8900  -36.9260   13.9990 C   0  0  0  0  0  0  0  0  0  0  0  0
   26.0460  -34.9050   15.2900 C   0  0  0  0  0  0  0  0  0  0  0  0
   24.9370  -32.5160   14.3960 C   0  0  0  0  0  0  0  0  0  0  0  0
   31.7160  -35.3750   12.6130 C   0  0  0  0  0  0  0  0  0  0  0  0
   24.6530  -35.4810   21.3670 C   0  0  0  0  0  0  0  0  0  0  0  0
   22.7110  -37.1390   21.1710 C   0  0  0  0  0  0  0  0  0  0  0  0
   24.7760  -34.5330   15.7180 C   0  0  0  0  0  0  0  0  0  0  0  0
   26.7540  -34.0870   14.4160 C   0  0  0  0  0  0  0  0  0  0  0  0
   26.2030  -32.8920   13.9680 C   0  0  0  0  0  0  0  0  0  0  0  0
   25.7060  -36.1910   20.7800 C   0  0  0  0  0  0  0  0  0  0  0  0
   24.2300  -33.3320   15.2690 C   0  0  0  0  0  0  0  0  0  0  0  0
   23.4570  -36.1430   21.8330 C   0  0  0  0  0  0  0  0  0  0  0  0
   29.9930  -35.9020   13.8340 C   0  0  0  0  0  0  0  0  0  0  0  0
   21.6860  -37.4110   22.0380 C   0  0  0  0  0  0  0  0  0  0  0  0
   22.9220  -37.7930   19.8740 C   0  0  0  0  0  0  0  0  0  0  0  0
   28.6550  -35.6940   14.4000 C   0  0  0  0  0  0  0  0  0  0  0  0
   24.3430  -36.8130   16.5790 C   0  0  0  0  0  0  0  0  0  0  0  0
   24.0530  -34.8490   17.9890 C   0  0  0  0  0  0  0  0  0  0  0  0
   23.2640  -37.5540   17.3700 C   0  0  0  0  0  0  0  0  0  0  0  0
   22.9780  -35.5610   18.8130 C   0  0  0  0  0  0  0  0  0  0  0  0
   20.5430  -38.3310   22.0110 C   0  0  0  0  0  0  0  0  0  0  0  0
   22.9190  -35.8180   23.0150 N   0  0  0  0  0  0  0  0  0  0  0  0
   24.0970  -35.3680   16.6140 N   0  0  0  0  0  0  0  0  0  0  0  0
   23.0610  -37.0180   18.7230 N   0  0  0  0  0  0  0  0  0  0  0  0
   28.0130  -34.5120   14.0110 N   0  0  0  0  0  0  0  0  0  0  0  0
   26.8950  -32.0310   13.0750 N   0  0  0  0  0  0  0  0  0  0  0  0
   26.4620  -30.8730   12.8930 O   0  0  0  0  0  0  0  0  0  0  0  0
   22.9640  -39.0180   19.9020 O   0  0  0  0  0  0  0  0  0  0  0  0
   28.1630  -36.5140   15.1600 O   0  0  0  0  0  0  0  0  0  0  0  0
   27.9680  -32.4100   12.5500 O   0  0  0  0  0  0  0  0  0  0  0  0
   30.4840  -34.9490   12.9940 O   0  0  0  0  0  0  0  0  0  0  0  0
   21.7960  -36.6300   23.1420 O   0  0  0  0  0  0  0  0  0  0  0  0
   25.6590  -37.5480   20.6270 O   0  0  0  0  0  0  0  0  0  0  0  0
   22.6690  -32.8030   15.7530 Cl  0  0  0  0  0  0  0  0  0  0  0  0
   25.9527  -32.3327   21.1640 H   0  0  0  0  0  0  0  0  0  0  0  0
   27.8268  -33.6029   20.1208 H   0  0  0  0  0  0  0  0  0  0  0  0
   32.9331  -37.1673   13.0840 H   0  0  0  0  0  0  0  0  0  0  0  0
   23.9190  -33.5324   21.9594 H   0  0  0  0  0  0  0  0  0  0  0  0
   27.6672  -36.0758   19.8667 H   0  0  0  0  0  0  0  0  0  0  0  0
   30.7653  -37.8259   14.6192 H   0  0  0  0  0  0  0  0  0  0  0  0
   26.4908  -35.8470   15.6431 H   0  0  0  0  0  0  0  0  0  0  0  0
   24.4944  -31.5725   14.0438 H   0  0  0  0  0  0  0  0  0  0  0  0
   32.3847  -34.8321   11.9288 H   0  0  0  0  0  0  0  0  0  0  0  0
   25.3274  -37.0244   17.0220 H   0  0  0  0  0  0  0  0  0  0  0  0
   24.3191  -37.1550   15.5338 H   0  0  0  0  0  0  0  0  0  0  0  0
   23.8287  -33.7725   17.9596 H   0  0  0  0  0  0  0  0  0  0  0  0
   25.0303  -35.0278   18.4611 H   0  0  0  0  0  0  0  0  0  0  0  0
   23.5571  -38.6109   17.4539 H   0  0  0  0  0  0  0  0  0  0  0  0
   22.3170  -37.4273   16.8249 H   0  0  0  0  0  0  0  0  0  0  0  0
   21.9897  -35.2430   18.4494 H   0  0  0  0  0  0  0  0  0  0  0  0
   23.1355  -35.2868   19.8666 H   0  0  0  0  0  0  0  0  0  0  0  0
   20.2426  -38.5728   23.0412 H   0  0  0  0  0  0  0  0  0  0  0  0
   19.7017  -37.8552   21.4858 H   0  0  0  0  0  0  0  0  0  0  0  0
   20.8280  -39.2545   21.4858 H   0  0  0  0  0  0  0  0  0  0  0  0
   28.5241  -33.8977   13.3612 H   0  0  0  0  0  0  0  0  0  0  0  0
   25.6387  -38.1355   21.4235 H   0  0  0  0  0  0  0  0  0  0  0  0
 33 20  2  0
 26 19  1  0
 20 11  1  0
 20 29  1  0
 38 15  1  0
 19 11  2  0
 19 37  1  0
 24 29  1  0
 24 22  1  0
 11 17  1  0
  6  3  1  0
  6 18  2  0
 37 27  1  0
 29 25  1  0
 22 28  1  0
 34 21  2  0
  3  9  2  0
 17 27  2  0
 17 10  1  0
 15 10  2  0
 15  5  1  0
 18 21  1  0
 18 36  1  0
 21 30  1  0
 10  4  1  0
  5  2  2  0
 25 23  1  0
  9 36  1  0
 28 23  1  0
 28 12  1  0
  7 12  2  0
  7 13  1  0
 30 13  1  0
 12 16  1  0
  4  1  2  0
  2  1  1  0
 13 14  2  0
 16 39  1  0
 16  8  2  0
 14  8  1  0
 14 31  1  0
 35 31  1  0
 31 32  2  0
  1 40  1  0
  2 41  1  0
  3 42  1  0
  4 43  1  0
  5 44  1  0
  6 45  1  0
  7 46  1  0
  8 47  1  0
  9 48  1  0
 22 49  1  0
 22 50  1  0
 23 51  1  0
 23 52  1  0
 24 53  1  0
 24 54  1  0
 25 55  1  0
 25 56  1  0
 26 57  1  0
 26 58  1  0
 26 59  1  0
 30 60  1  0
 38 61  1  0
M  CHG  2  31   1  35  -1
A    1
C1
A    2
C2
A    3
C3
A    4
C4
A    5
C5
A    6
C6
A    7
C7
A    8
C8
A    9
C9
A   10
C10
A   11
C11
A   12
C12
A   13
C13
A   14
C14
A   15
C15
A   16
C16
A   17
C17
A   18
C18
A   19
C19
A   20
C20
A   21
C21
A   22
C22
A   23
C23
A   24
C24
A   25
C25
A   26
C26
A   27
N28
A   28
N29
A   29
N30
A   30
N31
A   31
N32
A   32
O33
A   33
O34
A   34
O35
A   35
O36
A   36
O37
A   37
O38
A   38
O39
A   39
CL4
M  END
