4DYP_0MS_A_601
     RDKit          3D

 49 52  0  0  0  0  0  0  0  0999 V2000
   26.0760  -33.7830   21.0930 C   0  0  0  0  0  0  0  0  0  0  0  0
   27.1720  -34.5030   20.6190 C   0  0  0  0  0  0  0  0  0  0  0  0
   24.9600  -34.4550   21.5900 C   0  0  0  0  0  0  0  0  0  0  0  0
   27.1500  -35.8950   20.6420 C   0  0  0  0  0  0  0  0  0  0  0  0
   25.1060  -33.2430   14.6050 C   0  0  0  0  0  0  0  0  0  0  0  0
   26.8500  -34.8640   14.7620 C   0  0  0  0  0  0  0  0  0  0  0  0
   24.9340  -35.8500   21.6230 C   0  0  0  0  0  0  0  0  0  0  0  0
   22.9640  -37.4840   21.5270 C   0  0  0  0  0  0  0  0  0  0  0  0
   24.3990  -33.9510   15.5640 C   0  0  0  0  0  0  0  0  0  0  0  0
   26.0340  -36.5680   21.1420 C   0  0  0  0  0  0  0  0  0  0  0  0
   26.3500  -33.7080   14.2000 C   0  0  0  0  0  0  0  0  0  0  0  0
   23.7470  -36.4880   22.1410 C   0  0  0  0  0  0  0  0  0  0  0  0
   21.9580  -37.7320   22.4190 C   0  0  0  0  0  0  0  0  0  0  0  0
   24.9830  -35.1010   16.0720 C   0  0  0  0  0  0  0  0  0  0  0  0
   23.1210  -38.1610   20.2420 C   0  0  0  0  0  0  0  0  0  0  0  0
   24.0770  -35.2130   18.3490 C   0  0  0  0  0  0  0  0  0  0  0  0
   24.4730  -37.2920   17.0400 C   0  0  0  0  0  0  0  0  0  0  0  0
   23.0000  -35.9430   19.1510 C   0  0  0  0  0  0  0  0  0  0  0  0
   23.2840  -37.9420   17.7350 C   0  0  0  0  0  0  0  0  0  0  0  0
   23.0660  -33.4490   15.9950 C   0  0  0  0  0  0  0  0  0  0  0  0
   20.8080  -38.6420   22.4300 C   0  0  0  0  0  0  0  0  0  0  0  0
   26.1900  -35.5770   15.6940 N   0  0  0  0  0  0  0  0  0  0  0  0
   23.2480  -36.1400   23.3290 N   0  0  0  0  0  0  0  0  0  0  0  0
   24.3030  -35.8400   17.0380 N   0  0  0  0  0  0  0  0  0  0  0  0
   23.1410  -37.3960   19.0830 N   0  0  0  0  0  0  0  0  0  0  0  0
   23.2230  -39.3840   20.2880 O   0  0  0  0  0  0  0  0  0  0  0  0
   22.1110  -36.9350   23.5050 O   0  0  0  0  0  0  0  0  0  0  0  0
   26.0750  -38.3000   21.1510 Cl  0  0  0  0  0  0  0  0  0  0  0  0
   27.3400  -32.7820   12.9060 Br  0  0  0  0  0  0  0  0  0  0  0  0
   26.0919  -32.6833   21.0748 H   0  0  0  0  0  0  0  0  0  0  0  0
   28.0524  -33.9722   20.2276 H   0  0  0  0  0  0  0  0  0  0  0  0
   24.0956  -33.8827   21.9580 H   0  0  0  0  0  0  0  0  0  0  0  0
   28.0126  -36.4647   20.2659 H   0  0  0  0  0  0  0  0  0  0  0  0
   24.6867  -32.3238   14.1700 H   0  0  0  0  0  0  0  0  0  0  0  0
   27.8368  -35.2211   14.4324 H   0  0  0  0  0  0  0  0  0  0  0  0
   25.0179  -35.2304   18.9186 H   0  0  0  0  0  0  0  0  0  0  0  0
   23.7356  -34.1812   18.1794 H   0  0  0  0  0  0  0  0  0  0  0  0
   24.5352  -37.6552   16.0036 H   0  0  0  0  0  0  0  0  0  0  0  0
   25.3977  -37.5519   17.5761 H   0  0  0  0  0  0  0  0  0  0  0  0
   23.0709  -35.6304   20.2033 H   0  0  0  0  0  0  0  0  0  0  0  0
   22.0240  -35.6809   18.7165 H   0  0  0  0  0  0  0  0  0  0  0  0
   22.3687  -37.7391   17.1596 H   0  0  0  0  0  0  0  0  0  0  0  0
   23.4485  -39.0278   17.7979 H   0  0  0  0  0  0  0  0  0  0  0  0
   23.0187  -33.4312   17.0938 H   0  0  0  0  0  0  0  0  0  0  0  0
   22.9136  -32.4319   15.6049 H   0  0  0  0  0  0  0  0  0  0  0  0
   22.2805  -34.1129   15.6049 H   0  0  0  0  0  0  0  0  0  0  0  0
   20.5266  -38.8647   23.4698 H   0  0  0  0  0  0  0  0  0  0  0  0
   19.9601  -38.1676   21.9142 H   0  0  0  0  0  0  0  0  0  0  0  0
   21.0747  -39.5762   21.9142 H   0  0  0  0  0  0  0  0  0  0  0  0
 29 11  1  0
 11  5  2  0
 11  6  1  0
  5  9  1  0
  6 22  2  0
  9 20  1  0
  9 14  2  0
 22 14  1  0
 14 24  1  0
 24 17  1  0
 24 16  1  0
 17 19  1  0
 19 25  1  0
 16 18  1  0
 25 18  1  0
 25 15  1  0
 15 26  2  0
 15  8  1  0
  2  4  1  0
  2  1  2  0
  4 10  2  0
  1  3  1  0
 10 28  1  0
 10  7  1  0
  8 12  1  0
  8 13  2  0
  3  7  2  0
  7 12  1  0
 12 23  2  0
 13 21  1  0
 13 27  1  0
 23 27  1  0
  1 30  1  0
  2 31  1  0
  3 32  1  0
  4 33  1  0
  5 34  1  0
  6 35  1  0
 16 36  1  0
 16 37  1  0
 17 38  1  0
 17 39  1  0
 18 40  1  0
 18 41  1  0
 19 42  1  0
 19 43  1  0
 20 44  1  0
 20 45  1  0
 20 46  1  0
 21 47  1  0
 21 48  1  0
 21 49  1  0
A    1
C1
A    2
C2
A    3
C3
A    4
C4
A    5
C5
A    6
C6
A    7
C7
A    8
C8
A    9
C9
A   10
C10
A   11
C11
A   12
C12
A   13
C13
A   14
C14
A   15
C15
A   16
C16
A   17
C17
A   18
C18
A   19
C19
A   20
C20
A   21
C21
A   22
N22
A   23
N23
A   24
N24
A   25
N25
A   26
O26
A   27
O27
A   28
CL2
A   29
BR2
M  END
