3P25_D02_A_263
     RDKit          3D

 29 30  0  0  0  0  0  0  0  0999 V2000
   -5.7700    7.3620   11.0990 C   0  0  0  0  0  0  0  0  0  0  0  0
   -5.3700   -0.3570   16.1140 N   0  0  0  0  0  0  0  0  0  0  0  0
   -2.4870    8.6460   10.7230 O   0  0  0  0  0  0  0  0  0  0  0  0
   -5.4100    1.2140   18.2120 O   0  0  0  0  0  0  0  0  0  0  0  0
   -7.3280    1.2310   16.6500 O   0  0  0  0  0  0  0  0  0  0  0  0
   -1.7740    3.6640   15.1490 F   0  0  0  0  0  0  0  0  0  0  0  0
   -5.9410    5.4300   14.2380 F   0  0  0  0  0  0  0  0  0  0  0  0
   -2.9630    1.5540   16.3810 F   0  0  0  0  0  0  0  0  0  0  0  0
   -7.1460    3.4480   15.4530 F   0  0  0  0  0  0  0  0  0  0  0  0
   -3.8310    6.0490   12.8210 C   0  0  0  0  0  0  0  0  0  0  0  0
   -2.2540    7.5180   13.4920 N   0  0  0  0  0  0  0  0  0  0  0  0
   -2.4310    6.5850   14.4600 N   0  0  0  0  0  0  0  0  0  0  0  0
   -4.7110    8.2400   10.8610 O   0  0  0  0  0  0  0  0  0  0  0  0
   -3.3880    7.9260   11.1570 C   0  0  0  0  0  0  0  0  0  0  0  0
   -3.1320    7.2070   12.4680 C   0  0  0  0  0  0  0  0  0  0  0  0
   -3.1090    3.5590   15.2200 C   0  0  0  0  0  0  0  0  0  0  0  0
   -5.2550    4.4840   14.7720 C   0  0  0  0  0  0  0  0  0  0  0  0
   -3.7150    2.5180   15.8490 C   0  0  0  0  0  0  0  0  0  0  0  0
   -5.8520    3.4540   15.3880 C   0  0  0  0  0  0  0  0  0  0  0  0
   -3.8930    4.5430   14.6780 C   0  0  0  0  0  0  0  0  0  0  0  0
   -5.1120    2.4200   15.9550 C   0  0  0  0  0  0  0  0  0  0  0  0
   -3.3740    5.6740   14.0060 N   0  0  0  0  0  0  0  0  0  0  0  0
   -5.8950    1.0440   16.8230 S   0  0  0  0  0  0  0  0  0  0  0  0
   -5.9120    7.2442   12.1834 H   0  0  0  0  0  0  0  0  0  0  0  0
   -6.6894    7.7664   10.6506 H   0  0  0  0  0  0  0  0  0  0  0  0
   -5.5430    6.3836   10.6506 H   0  0  0  0  0  0  0  0  0  0  0  0
   -5.1152   -1.0369   16.8445 H   0  0  0  0  0  0  0  0  0  0  0  0
   -6.1216   -0.7479   15.5282 H   0  0  0  0  0  0  0  0  0  0  0  0
   -4.6100    5.5464   12.2289 H   0  0  0  0  0  0  0  0  0  0  0  0
 13  1  1  0
  2 23  1  0
  3 14  2  0
 23  4  2  0
  5 23  2  0
  6 16  1  0
  7 17  1  0
 18  8  1  0
 19  9  1  0
 15 10  2  0
 10 22  1  0
 15 11  1  0
 11 12  2  0
 22 12  1  0
 13 14  1  0
 14 15  1  0
 20 16  2  0
 16 18  1  0
 20 17  1  0
 17 19  2  0
 18 21  2  0
 19 21  1  0
 22 20  1  0
 21 23  1  0
  1 24  1  0
  1 25  1  0
  1 26  1  0
  2 27  1  0
  2 28  1  0
 10 29  1  0
A    1
CAA
A    2
NAB
A    3
OAC
A    4
OAD
A    5
OAE
A    6
FAF
A    7
FAG
A    8
FAH
A    9
FAI
A   10
CAJ
A   11
NAK
A   12
NAL
A   13
OAM
A   14
CAN
A   15
CAO
A   16
CAP
A   17
CAQ
A   18
CAR
A   19
CAS
A   20
CAT
A   21
CAU
A   22
NAV
A   23
SAW
M  END
