4DZ9_ID4_A_303
     RDKit          3D

 42 44  0  0  0  0  0  0  0  0999 V2000
    0.0670    9.2560   14.2270 C   0  0  0  0  0  0  0  0  0  0  0  0
    0.2300   10.4800   15.0710 C   0  0  0  0  0  0  0  0  0  0  0  0
   -0.1820   11.7410   14.3770 C   0  0  0  0  0  0  0  0  0  0  0  0
   -1.6020   11.6710   13.9040 C   0  0  0  0  0  0  0  0  0  0  0  0
   -1.9370   10.3520   13.2890 C   0  0  0  0  0  0  0  0  0  0  0  0
   -5.1040    2.4120   15.9230 C   0  0  0  0  0  0  0  0  0  0  0  0
   -5.8090    3.4520   15.3250 C   0  0  0  0  0  0  0  0  0  0  0  0
   -2.3720    5.9590   12.9390 C   0  0  0  0  0  0  0  0  0  0  0  0
   -2.3600    7.7190   14.3380 N   0  0  0  0  0  0  0  0  0  0  0  0
   -3.7080    2.5160   15.8780 C   0  0  0  0  0  0  0  0  0  0  0  0
   -5.8540    5.4750   14.1290 F   0  0  0  0  0  0  0  0  0  0  0  0
   -5.1510    4.5080   14.7050 C   0  0  0  0  0  0  0  0  0  0  0  0
   -7.1220    3.4460   15.3270 F   0  0  0  0  0  0  0  0  0  0  0  0
   -3.7740    4.5580   14.6260 C   0  0  0  0  0  0  0  0  0  0  0  0
   -5.4270    1.2080   18.1350 O   0  0  0  0  0  0  0  0  0  0  0  0
   -7.3310    1.2040   16.7250 O   0  0  0  0  0  0  0  0  0  0  0  0
   -5.4700   -0.3440   16.0840 N   0  0  0  0  0  0  0  0  0  0  0  0
   -3.0520    3.5720   15.2510 C   0  0  0  0  0  0  0  0  0  0  0  0
   -2.9620    1.5630   16.4070 F   0  0  0  0  0  0  0  0  0  0  0  0
   -1.9010    7.3410   13.1270 C   0  0  0  0  0  0  0  0  0  0  0  0
   -1.7200    3.6420   15.2220 F   0  0  0  0  0  0  0  0  0  0  0  0
   -5.9080    1.0490   16.7840 S   0  0  0  0  0  0  0  0  0  0  0  0
   -3.0720    5.6860   14.0800 N   0  0  0  0  0  0  0  0  0  0  0  0
   -3.0210    6.7360   14.8610 N   0  0  0  0  0  0  0  0  0  0  0  0
   -1.0950    8.2230   12.2350 C   0  0  0  0  0  0  0  0  0  0  0  0
   -0.7310    9.5150   12.9790 C   0  0  0  0  0  0  0  0  0  0  0  0
   -0.4471    8.4853   14.8200 H   0  0  0  0  0  0  0  0  0  0  0  0
    1.0707    8.9287   13.9182 H   0  0  0  0  0  0  0  0  0  0  0  0
   -0.3843   10.3636   15.9760 H   0  0  0  0  0  0  0  0  0  0  0  0
    1.3010   10.5731   15.3040 H   0  0  0  0  0  0  0  0  0  0  0  0
    0.4756   11.9027   13.5101 H   0  0  0  0  0  0  0  0  0  0  0  0
   -0.0983   12.5714   15.0935 H   0  0  0  0  0  0  0  0  0  0  0  0
   -1.7634   12.4603   13.1550 H   0  0  0  0  0  0  0  0  0  0  0  0
   -2.2527   11.8052   14.7807 H   0  0  0  0  0  0  0  0  0  0  0  0
   -2.4856   10.5331   12.3529 H   0  0  0  0  0  0  0  0  0  0  0  0
   -2.5385    9.7953   14.0227 H   0  0  0  0  0  0  0  0  0  0  0  0
   -2.1998    5.2976   12.0771 H   0  0  0  0  0  0  0  0  0  0  0  0
   -5.2512   -1.0398   16.8113 H   0  0  0  0  0  0  0  0  0  0  0  0
   -6.2424   -0.6914   15.4977 H   0  0  0  0  0  0  0  0  0  0  0  0
   -1.6815    8.4702   11.3379 H   0  0  0  0  0  0  0  0  0  0  0  0
   -0.1734    7.6996   11.9404 H   0  0  0  0  0  0  0  0  0  0  0  0
   -0.0925   10.0858   12.2887 H   0  0  0  0  0  0  0  0  0  0  0  0
 25 26  1  0
 25 20  1  0
  8 20  2  0
  8 23  1  0
 26  5  1  0
 26  1  1  0
 20  9  1  0
  5  4  1  0
  4  3  1  0
 23 14  1  0
 23 24  1  0
 11 12  1  0
  1  2  1  0
  9 24  2  0
  3  2  1  0
 14 12  2  0
 14 18  1  0
 12  7  1  0
 21 18  1  0
 18 10  2  0
  7 13  1  0
  7  6  2  0
 10  6  1  0
 10 19  1  0
  6 22  1  0
 17 22  1  0
 16 22  2  0
 22 15  2  0
  1 27  1  0
  1 28  1  0
  2 29  1  0
  2 30  1  0
  3 31  1  0
  3 32  1  0
  4 33  1  0
  4 34  1  0
  5 35  1  0
  5 36  1  0
  8 37  1  0
 17 38  1  0
 17 39  1  0
 25 40  1  0
 25 41  1  0
 26 42  1  0
A    1
CAL
A    2
CAJ
A    3
CAI
A    4
CAK
A    5
CAM
A    6
CAW
A    7
CAT
A    8
CAH
A    9
NAO
A   10
CAU
A   11
FAD
A   12
CAR
A   13
FAF
A   14
CAV
A   15
OAB
A   16
OAC
A   17
NAA
A   18
CAS
A   19
FAG
A   20
CAQ
A   21
FAE
A   22
SAZ
A   23
NAY
A   24
NAP
A   25
CAN
A   26
CAX
M  END
