4DZY_WJ1_A_404
     RDKit          3D

 21 21  0  0  0  0  0  0  0  0999 V2000
   -6.9060  -32.7550   13.4570 O   0  0  0  0  0  0  0  0  0  0  0  0
   -7.6960  -31.8640   13.6720 C   0  0  0  0  0  0  0  0  0  0  0  0
   -8.3340  -31.3040   12.6360 O   0  0  0  0  0  0  0  0  0  0  0  0
   -7.9540  -31.4330   15.0790 C   0  0  0  0  0  0  0  0  0  0  0  0
   -8.3260  -29.6840   15.0330 Cl  0  0  0  0  0  0  0  0  0  0  0  0
   -9.1130  -32.2520   15.6920 C   0  0  0  0  0  0  0  0  0  0  0  0
   -9.0450  -32.1140   17.1980 C   0  0  0  0  0  0  0  0  0  0  0  0
   -9.8720  -31.2100   17.8500 C   0  0  0  0  0  0  0  0  0  0  0  0
   -8.1450  -32.8780   17.9340 C   0  0  0  0  0  0  0  0  0  0  0  0
   -8.0660  -32.7250   19.3160 C   0  0  0  0  0  0  0  0  0  0  0  0
   -8.8890  -31.8140   19.9750 C   0  0  0  0  0  0  0  0  0  0  0  0
   -9.7910  -31.0580   19.2350 C   0  0  0  0  0  0  0  0  0  0  0  0
   -6.4818  -33.2335   14.2128 H   0  0  0  0  0  0  0  0  0  0  0  0
   -7.0762  -31.6114   15.7175 H   0  0  0  0  0  0  0  0  0  0  0  0
  -10.0759  -31.8663   15.3258 H   0  0  0  0  0  0  0  0  0  0  0  0
   -9.0251  -33.3097   15.4031 H   0  0  0  0  0  0  0  0  0  0  0  0
  -10.5931  -30.6118   17.2737 H   0  0  0  0  0  0  0  0  0  0  0  0
   -7.4949  -33.6039   17.4237 H   0  0  0  0  0  0  0  0  0  0  0  0
   -7.3484  -33.3280   19.8917 H   0  0  0  0  0  0  0  0  0  0  0  0
   -8.8258  -31.6945   21.0667 H   0  0  0  0  0  0  0  0  0  0  0  0
  -10.4452  -30.3352   19.7445 H   0  0  0  0  0  0  0  0  0  0  0  0
  3  2  2  0
  1  2  1  0
  2  4  1  0
  5  4  1  0
  4  6  1  0
  6  7  1  0
  7  8  2  0
  7  9  1  0
  8 12  1  0
  9 10  2  0
 12 11  2  0
 10 11  1  0
  1 13  1  0
  4 14  1  0
  6 15  1  0
  6 16  1  0
  8 17  1  0
  9 18  1  0
 10 19  1  0
 11 20  1  0
 12 21  1  0
A    1
O2
A    2
C9
A    3
O1
A    4
C8
A    5
CL1
A    6
C7
A    7
C6
A    8
C1
A    9
C5
A   10
C4
A   11
C3
A   12
C2
M  END
