4E1K_0N5_A_505
     RDKit          3D

 47 50  0  0  0  0  0  0  0  0999 V2000
   28.8980    3.5580   85.2210 C   0  0  0  0  0  0  0  0  0  0  0  0
   30.2190    3.7160   85.7240 O   0  0  0  0  0  0  0  0  0  0  0  0
   30.2570    3.7720   87.1150 C   0  0  0  0  0  0  0  0  0  0  0  0
   29.1570    3.8180   87.9530 C   0  0  0  0  0  0  0  0  0  0  0  0
   29.3390    3.8700   89.3290 C   0  0  0  0  0  0  0  0  0  0  0  0
   30.6120    3.8780   89.8810 C   0  0  0  0  0  0  0  0  0  0  0  0
   31.7000    3.8330   89.0330 C   0  0  0  0  0  0  0  0  0  0  0  0
   31.5180    3.7830   87.6710 C   0  0  0  0  0  0  0  0  0  0  0  0
   32.6110    3.7420   86.8440 O   0  0  0  0  0  0  0  0  0  0  0  0
   30.8110    3.9250   91.2040 N   0  0  0  0  0  0  0  0  0  0  0  0
   29.7140    3.9640   91.9640 C   0  0  0  0  0  0  0  0  0  0  0  0
   28.4500    3.9660   91.5350 N   0  0  0  0  0  0  0  0  0  0  0  0
   28.2650    3.9160   90.2060 C   0  0  0  0  0  0  0  0  0  0  0  0
   26.9420    3.9100   89.6990 N   0  0  0  0  0  0  0  0  0  0  0  0
   25.8260    4.0230   90.5540 C   0  0  0  0  0  0  0  0  0  0  0  0
   25.6720    3.2170   91.6690 C   0  0  0  0  0  0  0  0  0  0  0  0
   24.5750    3.3470   92.5010 C   0  0  0  0  0  0  0  0  0  0  0  0
   23.6080    4.2910   92.2220 C   0  0  0  0  0  0  0  0  0  0  0  0
   23.7550    5.0850   91.1050 C   0  0  0  0  0  0  0  0  0  0  0  0
   24.8530    4.9560   90.2790 C   0  0  0  0  0  0  0  0  0  0  0  0
   22.4640    4.4630   93.0390 N   0  0  0  0  0  0  0  0  0  0  0  0
   22.5050    4.3480   94.4100 C   0  0  0  0  0  0  0  0  0  0  0  0
   23.5010    4.1010   95.0770 O   0  0  0  0  0  0  0  0  0  0  0  0
   21.2110    4.5460   95.0960 C   0  0  0  0  0  0  0  0  0  0  0  0
   20.0370    4.1510   94.4910 C   0  0  0  0  0  0  0  0  0  0  0  0
   18.8410    4.3460   95.1480 C   0  0  0  0  0  0  0  0  0  0  0  0
   18.8220    4.9300   96.3990 C   0  0  0  0  0  0  0  0  0  0  0  0
   20.0030    5.3200   97.0010 C   0  0  0  0  0  0  0  0  0  0  0  0
   21.2020    5.1270   96.3470 C   0  0  0  0  0  0  0  0  0  0  0  0
   28.1933    3.4737   86.0614 H   0  0  0  0  0  0  0  0  0  0  0  0
   28.6329    4.4308   84.6063 H   0  0  0  0  0  0  0  0  0  0  0  0
   28.8462    2.6473   84.6063 H   0  0  0  0  0  0  0  0  0  0  0  0
   28.1413    3.8134   87.5307 H   0  0  0  0  0  0  0  0  0  0  0  0
   32.7183    3.8372   89.4490 H   0  0  0  0  0  0  0  0  0  0  0  0
   33.5223    3.7078   87.2293 H   0  0  0  0  0  0  0  0  0  0  0  0
   29.8672    3.9979   93.0528 H   0  0  0  0  0  0  0  0  0  0  0  0
   26.7919    3.8212   88.6839 H   0  0  0  0  0  0  0  0  0  0  0  0
   26.4361    2.4594   91.8973 H   0  0  0  0  0  0  0  0  0  0  0  0
   24.4735    2.6988   93.3839 H   0  0  0  0  0  0  0  0  0  0  0  0
   22.9847    5.8336   90.8681 H   0  0  0  0  0  0  0  0  0  0  0  0
   24.9509    5.6033   89.3950 H   0  0  0  0  0  0  0  0  0  0  0  0
   21.5642    4.6832   92.5887 H   0  0  0  0  0  0  0  0  0  0  0  0
   20.0544    3.6852   93.4946 H   0  0  0  0  0  0  0  0  0  0  0  0
   17.8983    4.0352   94.6739 H   0  0  0  0  0  0  0  0  0  0  0  0
   17.8644    5.0852   96.9176 H   0  0  0  0  0  0  0  0  0  0  0  0
   19.9870    5.7830   97.9987 H   0  0  0  0  0  0  0  0  0  0  0  0
   22.1459    5.4348   96.8205 H   0  0  0  0  0  0  0  0  0  0  0  0
  1  2  1  0
  2  3  1  0
  9  8  1  0
  3  8  2  0
  3  4  1  0
  8  7  1  0
  4  5  2  0
  7  6  2  0
  5  6  1  0
  5 13  1  0
 14 13  1  0
 14 15  1  0
  6 10  1  0
 13 12  2  0
 20 15  1  0
 20 19  2  0
 15 16  2  0
 19 18  1  0
 10 11  2  0
 12 11  1  0
 16 17  1  0
 18 17  2  0
 18 21  1  0
 21 22  1  0
 22 23  2  0
 22 24  1  0
 25 24  2  0
 25 26  1  0
 24 29  1  0
 26 27  2  0
 29 28  2  0
 27 28  1  0
  1 30  1  0
  1 31  1  0
  1 32  1  0
  4 33  1  0
  7 34  1  0
  9 35  1  0
 11 36  1  0
 14 37  1  0
 16 38  1  0
 17 39  1  0
 19 40  1  0
 20 41  1  0
 21 42  1  0
 25 43  1  0
 26 44  1  0
 27 45  1  0
 28 46  1  0
 29 47  1  0
A    1
C1
A    2
O1
A    3
C2
A    4
C3
A    5
C4
A    6
C5
A    7
C6
A    8
C7
A    9
O2
A   10
N1
A   11
C8
A   12
N2
A   13
C9
A   14
N3
A   15
C10
A   16
C11
A   17
C12
A   18
C13
A   19
C14
A   20
C15
A   21
N4
A   22
C16
A   23
O3
A   24
C17
A   25
C18
A   26
C19
A   27
C20
A   28
C21
A   29
C22
M  END
