4E28_9MZ_A_404
     RDKit          3D

 45 47  0  0  0  0  0  0  0  0999 V2000
   55.7070  -17.4010   14.1400 C   0  0  0  0  0  0  0  0  0  0  0  0
   54.1740  -18.4410   12.6140 C   0  0  0  0  0  0  0  0  0  0  0  0
   53.1610  -18.3270   13.5500 C   0  0  0  0  0  0  0  0  0  0  0  0
   53.4270  -17.7480   14.7780 C   0  0  0  0  0  0  0  0  0  0  0  0
   42.0950  -21.0230   10.5370 F   0  0  0  0  0  0  0  0  0  0  0  0
   42.1100  -22.3160   10.8000 C   0  0  0  0  0  0  0  0  0  0  0  0
   42.1820  -22.9920    9.6660 F   0  0  0  0  0  0  0  0  0  0  0  0
   41.0020  -22.6260   11.4500 F   0  0  0  0  0  0  0  0  0  0  0  0
   43.2970  -22.6380   11.6600 C   0  0  0  0  0  0  0  0  0  0  0  0
   44.1920  -21.6340   12.0100 C   0  0  0  0  0  0  0  0  0  0  0  0
   43.5110  -23.9440   12.0890 C   0  0  0  0  0  0  0  0  0  0  0  0
   44.6120  -24.2440   12.8830 C   0  0  0  0  0  0  0  0  0  0  0  0
   45.5030  -23.2400   13.2360 C   0  0  0  0  0  0  0  0  0  0  0  0
   45.2990  -21.9350   12.7970 C   0  0  0  0  0  0  0  0  0  0  0  0
   46.2200  -20.9500   13.1830 N   0  0  0  0  0  0  0  0  0  0  0  0
   46.3610  -19.7660   12.5870 C   0  0  0  0  0  0  0  0  0  0  0  0
   45.7210  -19.3790   11.6240 O   0  0  0  0  0  0  0  0  0  0  0  0
   47.4180  -18.8740   13.1870 C   0  0  0  0  0  0  0  0  0  0  0  0
   47.1170  -18.6160   14.6590 C   0  0  0  0  0  0  0  0  0  0  0  0
   47.5640  -19.7390   15.5620 C   0  0  0  0  0  0  0  0  0  0  0  0
   47.0600  -20.8490   15.5380 O   0  0  0  0  0  0  0  0  0  0  0  0
   48.5600  -19.3950   16.3880 N   0  0  0  0  0  0  0  0  0  0  0  0
   49.0590  -18.2640   16.1460 C   0  0  0  0  0  0  0  0  0  0  0  0
   48.1010  -17.2790   15.2240 S   0  0  0  0  0  0  0  0  0  0  0  0
   50.2850  -17.9280   16.5010 N   0  0  0  0  0  0  0  0  0  0  0  0
   51.2040  -18.0580   15.5670 N   0  0  0  0  0  0  0  0  0  0  0  0
   52.3550  -17.6230   15.7850 C   0  0  0  0  0  0  0  0  0  0  0  0
   55.4450  -17.9800   12.9100 C   0  0  0  0  0  0  0  0  0  0  0  0
   54.6940  -17.2840   15.0790 C   0  0  0  0  0  0  0  0  0  0  0  0
   54.9490  -16.7220   16.2970 O   0  0  0  0  0  0  0  0  0  0  0  0
   56.7178  -17.0343   14.3719 H   0  0  0  0  0  0  0  0  0  0  0  0
   53.9690  -18.8981   11.6347 H   0  0  0  0  0  0  0  0  0  0  0  0
   52.1503  -18.6946   13.3189 H   0  0  0  0  0  0  0  0  0  0  0  0
   44.0253  -20.6028   11.6652 H   0  0  0  0  0  0  0  0  0  0  0  0
   42.8087  -24.7397   11.7998 H   0  0  0  0  0  0  0  0  0  0  0  0
   44.7766  -25.2745   13.2307 H   0  0  0  0  0  0  0  0  0  0  0  0
   46.3737  -23.4766   13.8652 H   0  0  0  0  0  0  0  0  0  0  0  0
   46.8319  -21.1566   13.9854 H   0  0  0  0  0  0  0  0  0  0  0  0
   48.3994  -19.3627   13.0972 H   0  0  0  0  0  0  0  0  0  0  0  0
   47.4251  -17.9146   12.6490 H   0  0  0  0  0  0  0  0  0  0  0  0
   46.0291  -18.4601   14.7053 H   0  0  0  0  0  0  0  0  0  0  0  0
   50.5083  -17.5865   17.4467 H   0  0  0  0  0  0  0  0  0  0  0  0
   52.5738  -17.1369   16.7472 H   0  0  0  0  0  0  0  0  0  0  0  0
   56.2495  -18.0739   12.1657 H   0  0  0  0  0  0  0  0  0  0  0  0
   54.7254  -17.2147   17.1261 H   0  0  0  0  0  0  0  0  0  0  0  0
  7  6  1  0
  5  6  1  0
  6  8  1  0
  6  9  1  0
 17 16  2  0
  9 10  2  0
  9 11  1  0
 10 14  1  0
 11 12  2  0
 16 15  1  0
 16 18  1  0
  2 28  1  0
  2  3  2  0
 14 15  1  0
 14 13  2  0
 12 13  1  0
 28  1  2  0
 18 19  1  0
  3  4  1  0
  1 29  1  0
 19 24  1  0
 19 20  1  0
  4 29  2  0
  4 27  1  0
 29 30  1  0
 24 23  1  0
 21 20  2  0
 20 22  1  0
 26 27  2  0
 26 25  1  0
 23 22  2  0
 23 25  1  0
  1 31  1  0
  2 32  1  0
  3 33  1  0
 10 34  1  0
 11 35  1  0
 12 36  1  0
 13 37  1  0
 15 38  1  0
 18 39  1  0
 18 40  1  0
 19 41  1  0
 25 42  1  0
 27 43  1  0
 28 44  1  0
 30 45  1  0
A    1
C2
A    2
C4
A    3
C5
A    4
C6
A    5
F28
A    6
C27
A    7
F30
A    8
F29
A    9
C25
A   10
C26
A   11
C24
A   12
C23
A   13
C22
A   14
C21
A   15
N18
A   16
C17
A   17
O19
A   18
C16
A   19
C13
A   20
C14
A   21
O20
A   22
N15
A   23
C11
A   24
S12
A   25
N10
A   26
N9
A   27
C8
A   28
C3
A   29
C1
A   30
O1
M  END
