4E4K_RRG_A_501
     RDKit          3D

 51 53  0  0  0  0  0  0  0  0999 V2000
   20.0710   13.7430   14.4240 C   0  0  0  0  0  0  0  0  0  0  0  0
   19.6290   14.8700   13.4880 C   0  0  0  0  0  0  0  0  0  0  0  0
   19.1870   14.3020   12.1380 C   0  0  0  0  0  0  0  0  0  0  0  0
   20.7700   15.8770   13.3110 C   0  0  0  0  0  0  0  0  0  0  0  0
   21.9630   15.6360   13.9850 C   0  0  0  0  0  0  0  0  0  0  0  0
   23.0480   16.4950   13.8460 C   0  0  0  0  0  0  0  0  0  0  0  0
   22.9380   17.6070   13.0220 C   0  0  0  0  0  0  0  0  0  0  0  0
   21.7460   17.8510   12.3490 C   0  0  0  0  0  0  0  0  0  0  0  0
   20.6580   16.9970   12.4890 C   0  0  0  0  0  0  0  0  0  0  0  0
   19.4680   17.3520   11.8590 C   0  0  0  0  0  0  0  0  0  0  0  0
   18.2400   17.1120   12.4660 C   0  0  0  0  0  0  0  0  0  0  0  0
   17.0630   17.5710   11.8870 C   0  0  0  0  0  0  0  0  0  0  0  0
   19.5030   18.0560   10.6590 C   0  0  0  0  0  0  0  0  0  0  0  0
   18.3280   18.5200   10.0770 C   0  0  0  0  0  0  0  0  0  0  0  0
   17.1030   18.2790   10.6910 C   0  0  0  0  0  0  0  0  0  0  0  0
   15.9220   18.6470   10.1220 O   0  0  0  0  0  0  0  0  0  0  0  0
   15.8570   20.0020    9.6490 C   0  0  0  0  0  0  0  0  0  0  0  0
   14.3790   20.2490    9.3340 C   0  0  0  0  0  0  0  0  0  0  0  0
   13.6870   19.2640    9.0010 O   0  0  0  0  0  0  0  0  0  0  0  0
   13.9390   21.4130    9.4350 O   0  0  0  0  0  0  0  0  0  0  0  0
   16.6940   20.1790    8.3800 C   0  0  0  0  0  0  0  0  0  0  0  0
   16.6780   21.6110    7.8350 C   0  0  0  0  0  0  0  0  0  0  0  0
   15.4890   22.1820    7.3900 C   0  0  0  0  0  0  0  0  0  0  0  0
   15.4870   23.4520    6.8250 C   0  0  0  0  0  0  0  0  0  0  0  0
   16.6800   24.1570    6.7100 C   0  0  0  0  0  0  0  0  0  0  0  0
   17.8700   23.5910    7.1540 C   0  0  0  0  0  0  0  0  0  0  0  0
   17.8680   22.3200    7.7190 C   0  0  0  0  0  0  0  0  0  0  0  0
   19.9453   14.0635   15.4687 H   0  0  0  0  0  0  0  0  0  0  0  0
   19.4566   12.8497   14.2381 H   0  0  0  0  0  0  0  0  0  0  0  0
   21.1289   13.5056   14.2381 H   0  0  0  0  0  0  0  0  0  0  0  0
   18.7687   15.3904   13.9342 H   0  0  0  0  0  0  0  0  0  0  0  0
   18.5190   13.4436   12.3023 H   0  0  0  0  0  0  0  0  0  0  0  0
   18.6533   15.0786   11.5705 H   0  0  0  0  0  0  0  0  0  0  0  0
   20.0709   13.9754   11.5705 H   0  0  0  0  0  0  0  0  0  0  0  0
   22.0493   14.7541   14.6367 H   0  0  0  0  0  0  0  0  0  0  0  0
   23.9860   16.2949   14.3847 H   0  0  0  0  0  0  0  0  0  0  0  0
   23.7902   18.2921   12.9021 H   0  0  0  0  0  0  0  0  0  0  0  0
   21.6627   18.7325   11.6963 H   0  0  0  0  0  0  0  0  0  0  0  0
   18.2000   16.5538   13.4130 H   0  0  0  0  0  0  0  0  0  0  0  0
   16.0976   17.3738   12.3760 H   0  0  0  0  0  0  0  0  0  0  0  0
   20.4679   18.2471   10.1667 H   0  0  0  0  0  0  0  0  0  0  0  0
   18.3673   19.0782    9.1300 H   0  0  0  0  0  0  0  0  0  0  0  0
   16.2517   20.7068   10.3956 H   0  0  0  0  0  0  0  0  0  0  0  0
   13.7891   21.8096   10.3296 H   0  0  0  0  0  0  0  0  0  0  0  0
   16.2983   19.5065    7.6047 H   0  0  0  0  0  0  0  0  0  0  0  0
   17.7358   19.9433    8.6428 H   0  0  0  0  0  0  0  0  0  0  0  0
   14.5454   21.6249    7.4861 H   0  0  0  0  0  0  0  0  0  0  0  0
   14.5458   23.8974    6.4704 H   0  0  0  0  0  0  0  0  0  0  0  0
   16.6824   25.1639    6.2672 H   0  0  0  0  0  0  0  0  0  0  0  0
   18.8133   24.1486    7.0584 H   0  0  0  0  0  0  0  0  0  0  0  0
   18.8092   21.8754    8.0745 H   0  0  0  0  0  0  0  0  0  0  0  0
 25 24  1  0
 25 26  2  0
 24 23  2  0
 26 27  1  0
 23 22  1  0
 27 22  2  0
 22 21  1  0
 21 17  1  0
 19 18  2  0
 18 20  1  0
 18 17  1  0
 17 16  1  0
 14 13  2  0
 14 15  1  0
 16 15  1  0
 13 10  1  0
 15 12  2  0
 10 11  2  0
 10  9  1  0
 12 11  1  0
  3  2  1  0
  8  9  1  0
  8  7  2  0
  9  4  2  0
  7  6  1  0
  4  2  1  0
  4  5  1  0
  2  1  1  0
  6  5  2  0
  1 28  1  0
  1 29  1  0
  1 30  1  0
  2 31  1  0
  3 32  1  0
  3 33  1  0
  3 34  1  0
  5 35  1  0
  6 36  1  0
  7 37  1  0
  8 38  1  0
 11 39  1  0
 12 40  1  0
 13 41  1  0
 14 42  1  0
 17 43  1  0
 20 44  1  0
 21 45  1  0
 21 46  1  0
 23 47  1  0
 24 48  1  0
 25 49  1  0
 26 50  1  0
 27 51  1  0
A    1
CAA
A    2
CAZ
A    3
CAB
A    4
CAY
A    5
CAM
A    6
CAI
A    7
CAH
A    8
CAL
A    9
CAX
A   10
CAW
A   11
CAQ
A   12
CAO
A   13
CAP
A   14
CAN
A   15
CAV
A   16
OAS
A   17
CBA
A   18
CAT
A   19
OAD
A   20
OAC
A   21
CAR
A   22
CAU
A   23
CAJ
A   24
CAF
A   25
CAE
A   26
CAG
A   27
CAK
M  END
