4E4L_0NH_A_1201
     RDKit          3D

 42 45  0  0  0  0  0  0  0  0999 V2000
  -14.7900   29.4150   -2.9370 C   0  0  0  0  0  0  0  0  0  0  0  0
  -14.4500   29.8380   -1.4630 C   0  0  0  0  0  0  0  0  0  0  0  0
  -13.3210   30.8720   -1.4940 C   0  0  0  0  0  0  0  0  0  0  0  0
  -13.7340   32.2480   -2.0370 C   0  0  0  0  0  0  0  0  0  0  0  0
  -15.0920   32.6590   -1.6540 N   0  0  0  0  0  0  0  0  0  0  0  0
  -16.1700   31.6770   -1.3680 C   0  0  0  0  0  0  0  0  0  0  0  0
  -15.6690   30.3740   -0.7370 C   0  0  0  0  0  0  0  0  0  0  0  0
  -15.4580   34.2610   -1.7090 S   0  0  0  0  0  0  0  0  0  0  0  0
  -16.4580   34.5080   -0.7220 O   0  0  0  0  0  0  0  0  0  0  0  0
  -14.2310   34.9970   -1.6310 O   0  0  0  0  0  0  0  0  0  0  0  0
  -16.1520   34.5190   -3.3760 C   0  0  0  0  0  0  0  0  0  0  0  0
  -13.9060   28.6540   -0.7500 N   0  0  0  0  0  0  0  0  0  0  0  0
  -12.6240   28.5700   -0.2450 C   0  0  0  0  0  0  0  0  0  0  0  0
  -12.4460   27.3780    0.2460 N   0  0  0  0  0  0  0  0  0  0  0  0
  -13.5620   26.6170    0.0930 C   0  0  0  0  0  0  0  0  0  0  0  0
  -14.5110   27.4270   -0.5570 C   0  0  0  0  0  0  0  0  0  0  0  0
  -15.7690   26.8570   -0.8470 C   0  0  0  0  0  0  0  0  0  0  0  0
  -17.0070   27.3460   -1.4840 C   0  0  0  0  0  0  0  0  0  0  0  0
  -17.8560   26.3220   -1.4920 C   0  0  0  0  0  0  0  0  0  0  0  0
  -17.2670   25.2280   -0.9140 N   0  0  0  0  0  0  0  0  0  0  0  0
  -16.0040   25.5160   -0.4990 C   0  0  0  0  0  0  0  0  0  0  0  0
  -15.0720   24.7740    0.1140 N   0  0  0  0  0  0  0  0  0  0  0  0
  -13.8910   25.3000    0.4320 C   0  0  0  0  0  0  0  0  0  0  0  0
  -15.4791   28.5577   -2.9228 H   0  0  0  0  0  0  0  0  0  0  0  0
  -15.2646   30.2582   -3.4603 H   0  0  0  0  0  0  0  0  0  0  0  0
  -13.8645   29.1329   -3.4603 H   0  0  0  0  0  0  0  0  0  0  0  0
  -12.9484   31.0051   -0.4676 H   0  0  0  0  0  0  0  0  0  0  0  0
  -12.5563   30.4806   -2.1811 H   0  0  0  0  0  0  0  0  0  0  0  0
  -13.0252   32.9975   -1.6551 H   0  0  0  0  0  0  0  0  0  0  0  0
  -13.7217   32.1737   -3.1344 H   0  0  0  0  0  0  0  0  0  0  0  0
  -16.8888   32.1425   -0.6776 H   0  0  0  0  0  0  0  0  0  0  0  0
  -16.6248   31.4108   -2.3335 H   0  0  0  0  0  0  0  0  0  0  0  0
  -16.4714   29.6229   -0.7829 H   0  0  0  0  0  0  0  0  0  0  0  0
  -15.3864   30.5816    0.3056 H   0  0  0  0  0  0  0  0  0  0  0  0
  -17.1799   34.9011   -3.2901 H   0  0  0  0  0  0  0  0  0  0  0  0
  -15.5343   35.2476   -3.9216 H   0  0  0  0  0  0  0  0  0  0  0  0
  -16.1603   33.5639   -3.9216 H   0  0  0  0  0  0  0  0  0  0  0  0
  -11.8766   29.3770   -0.2558 H   0  0  0  0  0  0  0  0  0  0  0  0
  -17.1914   28.3575   -1.8750 H   0  0  0  0  0  0  0  0  0  0  0  0
  -18.8768   26.3493   -1.9009 H   0  0  0  0  0  0  0  0  0  0  0  0
  -17.7205   24.3093   -0.8079 H   0  0  0  0  0  0  0  0  0  0  0  0
  -13.1571   24.6851    0.9736 H   0  0  0  0  0  0  0  0  0  0  0  0
  1  2  1  0
  2  3  1  0
  2  7  1  0
  2 12  1  0
  3  4  1  0
  4  5  1  0
  5  6  1  0
  5  8  1  0
  6  7  1  0
  8  9  2  0
  8 10  2  0
  8 11  1  0
 12 13  1  0
 12 16  1  0
 13 14  2  0
 14 15  1  0
 15 16  2  0
 15 23  1  0
 16 17  1  0
 17 18  1  0
 17 21  2  0
 18 19  2  0
 19 20  1  0
 20 21  1  0
 21 22  1  0
 22 23  2  0
  1 24  1  0
  1 25  1  0
  1 26  1  0
  3 27  1  0
  3 28  1  0
  4 29  1  0
  4 30  1  0
  6 31  1  0
  6 32  1  0
  7 33  1  0
  7 34  1  0
 11 35  1  0
 11 36  1  0
 11 37  1  0
 13 38  1  0
 18 39  1  0
 19 40  1  0
 20 41  1  0
 23 42  1  0
A    1
C1
A    2
C2
A    3
C3
A    4
C4
A    5
N5
A    6
C6
A    7
C7
A    8
S8
A    9
O9
A   10
O10
A   11
C11
A   12
N12
A   13
C13
A   14
N14
A   15
C15
A   16
C16
A   17
C17
A   18
C18
A   19
C19
A   20
N20
A   21
C22
A   22
N23
A   23
C24
M  END
