4E4N_0NL_A_1201
     RDKit          3D

 48 51  0  0  0  0  0  0  0  0999 V2000
    3.8640   49.8290   -0.5440 C   0  0  0  0  0  0  0  0  0  0  0  0
    4.0870   49.7010    0.9560 C   0  0  0  0  0  0  0  0  0  0  0  0
    2.7790   49.1970    1.5660 C   0  0  0  0  0  0  0  0  0  0  0  0
    5.2050   48.7000    1.2780 C   0  0  0  0  0  0  0  0  0  0  0  0
    4.3510   51.0220    1.5170 O   0  0  0  0  0  0  0  0  0  0  0  0
    5.4870   51.7330    1.3720 C   0  0  0  0  0  0  0  0  0  0  0  0
    6.3550   51.4420    0.5600 O   0  0  0  0  0  0  0  0  0  0  0  0
    5.6140   52.8240    2.1640 N   0  0  0  0  0  0  0  0  0  0  0  0
    6.8280   53.6530    2.1250 C   0  0  0  0  0  0  0  0  0  0  0  0
    6.7780   54.5890    3.3560 C   0  0  0  0  0  0  0  0  0  0  0  0
    7.0860   55.9980    2.8010 C   0  0  0  0  0  0  0  0  0  0  0  0
    6.6160   55.9510    1.3280 C   0  0  0  0  0  0  0  0  0  0  0  0
    6.9670   54.5290    0.8590 C   0  0  0  0  0  0  0  0  0  0  0  0
    7.3400   57.0570    0.6780 N   0  0  0  0  0  0  0  0  0  0  0  0
    8.5820   57.0540    0.0880 C   0  0  0  0  0  0  0  0  0  0  0  0
    8.8670   58.2640   -0.3340 N   0  0  0  0  0  0  0  0  0  0  0  0
    7.8440   59.1030   -0.0240 C   0  0  0  0  0  0  0  0  0  0  0  0
    6.8570   58.3330    0.6360 C   0  0  0  0  0  0  0  0  0  0  0  0
    5.6730   58.9630    1.0720 C   0  0  0  0  0  0  0  0  0  0  0  0
    4.4520   58.5190    1.7730 C   0  0  0  0  0  0  0  0  0  0  0  0
    3.6790   59.6060    1.8970 C   0  0  0  0  0  0  0  0  0  0  0  0
    4.3060   60.7040    1.3450 N   0  0  0  0  0  0  0  0  0  0  0  0
    5.5220   60.3420    0.8250 C   0  0  0  0  0  0  0  0  0  0  0  0
    6.4920   61.0380    0.2030 N   0  0  0  0  0  0  0  0  0  0  0  0
    7.6060   60.4750   -0.2120 C   0  0  0  0  0  0  0  0  0  0  0  0
    2.9238   50.3687   -0.7302 H   0  0  0  0  0  0  0  0  0  0  0  0
    4.7006   50.3844   -0.9930 H   0  0  0  0  0  0  0  0  0  0  0  0
    3.8064   48.8265   -0.9930 H   0  0  0  0  0  0  0  0  0  0  0  0
    2.8514   49.2249    2.6633 H   0  0  0  0  0  0  0  0  0  0  0  0
    1.9493   49.8398    1.2368 H   0  0  0  0  0  0  0  0  0  0  0  0
    2.5951   48.1636    1.2368 H   0  0  0  0  0  0  0  0  0  0  0  0
    5.3100   48.6060    2.3689 H   0  0  0  0  0  0  0  0  0  0  0  0
    4.9540   47.7192    0.8479 H   0  0  0  0  0  0  0  0  0  0  0  0
    6.1523   49.0574    0.8479 H   0  0  0  0  0  0  0  0  0  0  0  0
    4.8479   53.0773    2.8041 H   0  0  0  0  0  0  0  0  0  0  0  0
    7.6905   52.9702    2.1215 H   0  0  0  0  0  0  0  0  0  0  0  0
    5.7805   54.5656    3.8190 H   0  0  0  0  0  0  0  0  0  0  0  0
    7.4941   54.2862    4.1342 H   0  0  0  0  0  0  0  0  0  0  0  0
    6.5313   56.7653    3.3609 H   0  0  0  0  0  0  0  0  0  0  0  0
    8.1514   56.2567    2.8899 H   0  0  0  0  0  0  0  0  0  0  0  0
    5.5477   56.1007    1.1130 H   0  0  0  0  0  0  0  0  0  0  0  0
    7.9960   54.4910    0.4720 H   0  0  0  0  0  0  0  0  0  0  0  0
    6.3142   54.1870    0.0424 H   0  0  0  0  0  0  0  0  0  0  0  0
    9.2350   56.1748   -0.0144 H   0  0  0  0  0  0  0  0  0  0  0  0
    4.2232   57.5015    2.1227 H   0  0  0  0  0  0  0  0  0  0  0  0
    2.6865   59.6210    2.3710 H   0  0  0  0  0  0  0  0  0  0  0  0
    3.9170   61.6575    1.3262 H   0  0  0  0  0  0  0  0  0  0  0  0
    8.3660   61.0902   -0.7160 H   0  0  0  0  0  0  0  0  0  0  0  0
  1  2  1  0
  2  3  1  0
  2  4  1  0
  2  5  1  0
  5  6  1  0
  6  7  2  0
  6  8  1  0
  8  9  1  0
  9 10  1  0
  9 13  1  0
 10 11  1  0
 11 12  1  0
 12 13  1  0
 12 14  1  0
 14 15  1  0
 14 18  1  0
 15 16  2  0
 16 17  1  0
 17 18  2  0
 17 25  1  0
 18 19  1  0
 19 20  1  0
 19 23  2  0
 20 21  2  0
 21 22  1  0
 22 23  1  0
 23 24  1  0
 24 25  2  0
  1 26  1  0
  1 27  1  0
  1 28  1  0
  3 29  1  0
  3 30  1  0
  3 31  1  0
  4 32  1  0
  4 33  1  0
  4 34  1  0
  8 35  1  0
  9 36  1  0
 10 37  1  0
 10 38  1  0
 11 39  1  0
 11 40  1  0
 12 41  1  0
 13 42  1  0
 13 43  1  0
 15 44  1  0
 20 45  1  0
 21 46  1  0
 22 47  1  0
 25 48  1  0
A    1
C1
A    2
C2
A    3
C3
A    4
C4
A    5
O5
A    6
C6
A    7
O7
A    8
N8
A    9
C9
A   10
C11
A   11
C12
A   12
C13
A   13
C15
A   14
N16
A   15
C17
A   16
N18
A   17
C19
A   18
C20
A   19
C21
A   20
C22
A   21
C23
A   22
N24
A   23
C26
A   24
N27
A   25
C28
M  END
