4E5D_0NJ_A_601
     RDKit          3D

 28 30  0  0  0  0  0  0  0  0999 V2000
   13.2550   35.5320    9.9970 F   0  0  0  0  0  0  0  0  0  0  0  0
   12.9370   35.3730    8.7130 C   0  0  0  0  0  0  0  0  0  0  0  0
   12.7610   34.1000    8.1730 C   0  0  0  0  0  0  0  0  0  0  0  0
   12.4510   33.9520    6.8290 C   0  0  0  0  0  0  0  0  0  0  0  0
   12.2960   35.0840    6.0440 C   0  0  0  0  0  0  0  0  0  0  0  0
   12.4550   36.3520    6.5800 C   0  0  0  0  0  0  0  0  0  0  0  0
   12.7670   36.4990    7.9150 C   0  0  0  0  0  0  0  0  0  0  0  0
   13.0070   37.8590    8.4730 C   0  0  0  0  0  0  0  0  0  0  0  0
   13.2990   38.3550   10.0920 S   0  0  0  0  0  0  0  0  0  0  0  0
   13.5330   40.0440    9.7190 C   0  0  0  0  0  0  0  0  0  0  0  0
   13.1460   38.9390    7.6850 N   0  0  0  0  0  0  0  0  0  0  0  0
   13.4010   40.1560    8.3320 C   0  0  0  0  0  0  0  0  0  0  0  0
   13.5370   41.4060    7.6680 C   0  0  0  0  0  0  0  0  0  0  0  0
   13.8180   42.5620    8.3970 C   0  0  0  0  0  0  0  0  0  0  0  0
   13.9640   42.4720    9.7940 C   0  0  0  0  0  0  0  0  0  0  0  0
   13.8260   41.2190   10.4410 C   0  0  0  0  0  0  0  0  0  0  0  0
   14.2310   43.6200   10.5140 O   0  0  0  0  0  0  0  0  0  0  0  0
   14.8160   43.5540   11.7600 C   0  0  0  0  0  0  0  0  0  0  0  0
   12.8680   33.2119    8.8132 H   0  0  0  0  0  0  0  0  0  0  0  0
   12.3298   32.9498    6.3920 H   0  0  0  0  0  0  0  0  0  0  0  0
   12.0429   34.9741    4.9792 H   0  0  0  0  0  0  0  0  0  0  0  0
   12.3325   37.2395    5.9417 H   0  0  0  0  0  0  0  0  0  0  0  0
   13.4202   41.4618    6.5756 H   0  0  0  0  0  0  0  0  0  0  0  0
   13.9240   43.5307    7.8868 H   0  0  0  0  0  0  0  0  0  0  0  0
   13.9504   41.1616   11.5324 H   0  0  0  0  0  0  0  0  0  0  0  0
   14.0399   43.6416   12.5346 H   0  0  0  0  0  0  0  0  0  0  0  0
   15.3369   42.5914   11.8700 H   0  0  0  0  0  0  0  0  0  0  0  0
   15.5382   44.3764   11.8700 H   0  0  0  0  0  0  0  0  0  0  0  0
  5  6  2  0
  5  4  1  0
  6  7  1  0
  4  3  2  0
 13 12  1  0
 13 14  2  0
 11 12  1  0
 11  8  2  0
  7  8  1  0
  7  2  2  0
  3  2  1  0
 12 10  2  0
 14 15  1  0
  8  9  1  0
  2  1  1  0
 10  9  1  0
 10 16  1  0
 15 16  2  0
 15 17  1  0
 17 18  1  0
  3 19  1  0
  4 20  1  0
  5 21  1  0
  6 22  1  0
 13 23  1  0
 14 24  1  0
 16 25  1  0
 18 26  1  0
 18 27  1  0
 18 28  1  0
A    1
F16
A    2
C11
A    3
C12
A    4
C13
A    5
C14
A    6
C15
A    7
C10
A    8
C8
A    9
S7
A   10
C2
A   11
N9
A   12
C3
A   13
C4
A   14
C5
A   15
C6
A   16
C1
A   17
O17
A   18
C18
M  END
