4E5J_581_A_303
     RDKit          3D

 32 33  0  0  0  0  0  0  0  0999 V2000
  -14.5900  -19.9960  -32.5860 O   0  0  0  0  0  0  0  0  0  0  0  0
  -13.7530  -19.6930  -31.7370 C   0  0  0  0  0  0  0  0  0  0  0  0
  -12.5860  -20.6110  -31.4470 C   0  0  0  0  0  0  0  0  0  0  0  0
  -13.8660  -18.5360  -31.0520 N   0  0  0  0  0  0  0  0  0  0  0  0
  -12.9850  -18.1060  -30.1130 C   0  0  0  0  0  0  0  0  0  0  0  0
  -11.7940  -17.4670  -30.4910 C   0  0  0  0  0  0  0  0  0  0  0  0
  -10.8880  -17.0200  -29.5280 C   0  0  0  0  0  0  0  0  0  0  0  0
  -13.2700  -18.2980  -28.7600 C   0  0  0  0  0  0  0  0  0  0  0  0
  -12.3890  -17.8260  -27.7810 C   0  0  0  0  0  0  0  0  0  0  0  0
  -11.1860  -17.2140  -28.1730 C   0  0  0  0  0  0  0  0  0  0  0  0
  -12.6510  -18.0740  -26.3320 C   0  0  0  0  0  0  0  0  0  0  0  0
  -13.6110  -18.9500  -25.9990 N   0  0  0  0  0  0  0  0  0  0  0  0
  -13.8730  -19.2810  -24.7390 C   0  0  0  0  0  0  0  0  0  0  0  0
  -14.7860  -20.0810  -24.4670 O   0  0  0  0  0  0  0  0  0  0  0  0
  -13.0740  -18.6710  -23.6570 C   0  0  0  0  0  0  0  0  0  0  0  0
  -13.3370  -19.0020  -22.3850 O   0  0  0  0  0  0  0  0  0  0  0  0
  -12.0110  -17.7280  -24.0640 C   0  0  0  0  0  0  0  0  0  0  0  0
  -11.8670  -17.4860  -25.3900 N   0  0  0  0  0  0  0  0  0  0  0  0
  -11.1120  -16.9950  -23.1160 C   0  0  0  0  0  0  0  0  0  0  0  0
  -11.0890  -17.2220  -21.8790 O   0  0  0  0  0  0  0  0  0  0  0  0
  -10.4040  -16.1110  -23.6460 O   0  0  0  0  0  0  0  0  0  0  0  0
  -12.4594  -20.7106  -30.3589 H   0  0  0  0  0  0  0  0  0  0  0  0
  -12.7803  -21.6009  -31.8856 H   0  0  0  0  0  0  0  0  0  0  0  0
  -11.6697  -20.1890  -31.8856 H   0  0  0  0  0  0  0  0  0  0  0  0
  -14.6783  -17.9365  -31.2560 H   0  0  0  0  0  0  0  0  0  0  0  0
  -11.5721  -17.3168  -31.5579 H   0  0  0  0  0  0  0  0  0  0  0  0
   -9.9539  -16.5228  -29.8285 H   0  0  0  0  0  0  0  0  0  0  0  0
  -14.1903  -18.8221  -28.4626 H   0  0  0  0  0  0  0  0  0  0  0  0
  -10.4697  -16.8833  -27.4065 H   0  0  0  0  0  0  0  0  0  0  0  0
  -14.1671  -19.3833  -26.7499 H   0  0  0  0  0  0  0  0  0  0  0  0
  -12.9280  -18.4872  -21.6449 H   0  0  0  0  0  0  0  0  0  0  0  0
  -11.1649  -16.4725  -21.2367 H   0  0  0  0  0  0  0  0  0  0  0  0
  1  2  2  0
  2  3  1  0
  2  4  1  0
  4  5  1  0
  6  5  2  0
  6  7  1  0
  5  8  1  0
  7 10  2  0
  8  9  2  0
 10  9  1  0
  9 11  1  0
 11 12  1  0
 11 18  2  0
 12 13  1  0
 18 17  1  0
 13 14  2  0
 13 15  1  0
 17 15  2  0
 17 19  1  0
 15 16  1  0
 21 19  2  0
 19 20  1  0
  3 22  1  0
  3 23  1  0
  3 24  1  0
  4 25  1  0
  6 26  1  0
  7 27  1  0
  8 28  1  0
 10 29  1  0
 12 30  1  0
 16 31  1  0
 20 32  1  0
A    1
O5
A    2
C12
A    3
C13
A    4
N3
A    5
C3
A    6
C2
A    7
C1
A    8
C4
A    9
C5
A   10
C6
A   11
C7
A   12
N2
A   13
C10
A   14
O1
A   15
C9
A   16
O2
A   17
C8
A   18
N1
A   19
C11
A   20
O3
A   21
O4
M  END
