1AIQ_UMP_A_265
     RDKit          3D

 33 34  0  0  0  0  0  0  0  0999 V2000
   17.2270   19.9810   31.1770 N   0  0  0  0  0  0  0  0  0  0  0  0
   18.1210   19.8230   32.2560 C   0  0  0  0  0  0  0  0  0  0  0  0
   19.0440   18.8460   32.2030 N   0  0  0  0  0  0  0  0  0  0  0  0
   19.2290   17.9160   31.2090 C   0  0  0  0  0  0  0  0  0  0  0  0
   18.2950   18.0900   30.1380 C   0  0  0  0  0  0  0  0  0  0  0  0
   17.6080   19.2900   30.1210 C   0  0  0  0  0  0  0  0  0  0  0  0
   18.1760   20.5110   33.2720 O   0  0  0  0  0  0  0  0  0  0  0  0
   20.0750   17.0340   31.2020 O   0  0  0  0  0  0  0  0  0  0  0  0
   16.1970   20.9920   31.1040 C   0  0  0  0  0  0  0  0  0  0  0  0
   16.6380   22.4180   30.7450 C   0  0  0  0  0  0  0  0  0  0  0  0
   15.2750   22.9820   30.2910 C   0  0  0  0  0  0  0  0  0  0  0  0
   14.7730   21.9010   29.3040 C   0  0  0  0  0  0  0  0  0  0  0  0
   14.3770   23.2070   31.3640 O   0  0  0  0  0  0  0  0  0  0  0  0
   15.1200   20.6750   30.1330 O   0  0  0  0  0  0  0  0  0  0  0  0
   15.1500   21.8310   27.8780 C   0  0  0  0  0  0  0  0  0  0  0  0
   14.4510   22.4690   26.8570 O   0  0  0  0  0  0  0  0  0  0  0  0
   14.8320   23.6340   25.8260 P   0  0  0  0  0  0  0  0  0  0  0  0
   13.4510   24.2140   25.4730 O   0  0  0  0  0  0  0  0  0  0  0  0
   15.7270   24.5880   26.6170 O   0  0  0  0  0  0  0  0  0  0  0  0
   15.4970   23.1080   24.5910 O   0  0  0  0  0  0  0  0  0  0  0  0
   19.6894   18.7882   33.0036 H   0  0  0  0  0  0  0  0  0  0  0  0
   18.1335   17.3152   29.3741 H   0  0  0  0  0  0  0  0  0  0  0  0
   17.3560   19.7067   29.1346 H   0  0  0  0  0  0  0  0  0  0  0  0
   15.8545   20.9724   32.1491 H   0  0  0  0  0  0  0  0  0  0  0  0
   17.0389   22.9577   31.6156 H   0  0  0  0  0  0  0  0  0  0  0  0
   17.4509   22.4914   30.0075 H   0  0  0  0  0  0  0  0  0  0  0  0
   15.3576   23.9797   29.8352 H   0  0  0  0  0  0  0  0  0  0  0  0
   13.7287   22.1018   29.0229 H   0  0  0  0  0  0  0  0  0  0  0  0
   14.8534   23.0876   32.2236 H   0  0  0  0  0  0  0  0  0  0  0  0
   16.1786   22.2169   27.8219 H   0  0  0  0  0  0  0  0  0  0  0  0
   14.9313   20.7763   27.6547 H   0  0  0  0  0  0  0  0  0  0  0  0
   15.5898   24.4417   27.5865 H   0  0  0  0  0  0  0  0  0  0  0  0
   16.2470   22.5148   24.8472 H   0  0  0  0  0  0  0  0  0  0  0  0
  1  2  1  0
  1  6  1  0
  1  9  1  0
  2  3  1  0
  2  7  2  0
  3  4  1  0
  4  5  1  0
  4  8  2  0
  5  6  2  0
  9 10  1  0
  9 14  1  0
 10 11  1  0
 11 12  1  0
 11 13  1  0
 12 14  1  0
 12 15  1  0
 15 16  1  0
 16 17  1  0
 17 18  2  0
 17 19  1  0
 17 20  1  0
  3 21  1  0
  5 22  1  0
  6 23  1  0
  9 24  1  0
 10 25  1  0
 10 26  1  0
 11 27  1  0
 12 28  1  0
 13 29  1  0
 15 30  1  0
 15 31  1  0
 19 32  1  0
 20 33  1  0
A    1
N1
A    2
C2
A    3
N3
A    4
C4
A    5
C5
A    6
C6
A    7
O2
A    8
O4
A    9
C1'
A   10
C2'
A   11
C3'
A   12
C4'
A   13
O3'
A   14
O4'
A   15
C5'
A   16
O5'
A   17
P
A   18
OP1
A   19
OP2
A   20
OP3
M  END
