4E5W_0NT_A_1201
     RDKit          3D

 56 60  0  0  0  0  0  0  0  0999 V2000
    8.8750   51.6780    1.4840 C   0  0  0  0  0  0  0  0  0  0  0  0
    6.8010   49.4460    3.6560 C   0  0  0  0  0  0  0  0  0  0  0  0
    6.4350   52.2170    1.7150 C   0  0  0  0  0  0  0  0  0  0  0  0
    9.1870   50.2940    0.8880 C   0  0  0  0  0  0  0  0  0  0  0  0
    6.6220   47.9190    3.6350 C   0  0  0  0  0  0  0  0  0  0  0  0
    5.4180   50.0150    4.0070 C   0  0  0  0  0  0  0  0  0  0  0  0
    7.3280   49.9660    2.3570 N   0  0  0  0  0  0  0  0  0  0  0  0
    8.6590   49.3740    2.0010 C   0  0  0  0  0  0  0  0  0  0  0  0
    7.5890   51.4510    2.3400 C   0  0  0  0  0  0  0  0  0  0  0  0
    5.6610   51.5810    1.0000 O   0  0  0  0  0  0  0  0  0  0  0  0
    6.2610   53.5640    1.9000 N   0  0  0  0  0  0  0  0  0  0  0  0
    5.1470   54.2840    1.2400 C   0  0  0  0  0  0  0  0  0  0  0  0
    5.6980   55.4540    0.3810 C   0  0  0  0  0  0  0  0  0  0  0  0
    6.6340   56.3360    1.2300 C   0  0  0  0  0  0  0  0  0  0  0  0
    7.7670   55.5350    1.9210 C   0  0  0  0  0  0  0  0  0  0  0  0
    7.1400   54.4030    2.7640 C   0  0  0  0  0  0  0  0  0  0  0  0
    7.1430   57.5410    0.5520 N   0  0  0  0  0  0  0  0  0  0  0  0
    8.4000   57.7170    0.0150 C   0  0  0  0  0  0  0  0  0  0  0  0
    8.5430   58.9400   -0.4080 N   0  0  0  0  0  0  0  0  0  0  0  0
    7.4090   59.6440   -0.1600 C   0  0  0  0  0  0  0  0  0  0  0  0
    6.4980   58.7550    0.4600 C   0  0  0  0  0  0  0  0  0  0  0  0
    5.2420   59.2500    0.8600 C   0  0  0  0  0  0  0  0  0  0  0  0
    4.0660   58.6630    1.5160 C   0  0  0  0  0  0  0  0  0  0  0  0
    3.1680   59.6560    1.6340 C   0  0  0  0  0  0  0  0  0  0  0  0
    3.6770   60.8180    1.1160 N   0  0  0  0  0  0  0  0  0  0  0  0
    4.9400   60.6110    0.6160 C   0  0  0  0  0  0  0  0  0  0  0  0
    5.8390   61.4150    0.0190 N   0  0  0  0  0  0  0  0  0  0  0  0
    7.0310   60.9830   -0.3670 C   0  0  0  0  0  0  0  0  0  0  0  0
    9.7060   52.0265    2.1148 H   0  0  0  0  0  0  0  0  0  0  0  0
    8.7330   52.4459    0.7093 H   0  0  0  0  0  0  0  0  0  0  0  0
    7.5529   49.7572    4.3962 H   0  0  0  0  0  0  0  0  0  0  0  0
    8.6519   50.1314   -0.0592 H   0  0  0  0  0  0  0  0  0  0  0  0
   10.2452   50.1370    0.6317 H   0  0  0  0  0  0  0  0  0  0  0  0
    6.5777   47.5408    4.6670 H   0  0  0  0  0  0  0  0  0  0  0  0
    5.6881   47.6665    3.1115 H   0  0  0  0  0  0  0  0  0  0  0  0
    7.4722   47.4573    3.1115 H   0  0  0  0  0  0  0  0  0  0  0  0
    5.3070   50.0607    5.1004 H   0  0  0  0  0  0  0  0  0  0  0  0
    5.3200   51.0265    3.5860 H   0  0  0  0  0  0  0  0  0  0  0  0
    4.6366   49.3653    3.5860 H   0  0  0  0  0  0  0  0  0  0  0  0
    8.5435   48.3432    1.6348 H   0  0  0  0  0  0  0  0  0  0  0  0
    9.3411   49.3151    2.8620 H   0  0  0  0  0  0  0  0  0  0  0  0
    7.7074   51.8156    3.3710 H   0  0  0  0  0  0  0  0  0  0  0  0
    4.4685   54.6850    2.0074 H   0  0  0  0  0  0  0  0  0  0  0  0
    4.6046   53.5843    0.5871 H   0  0  0  0  0  0  0  0  0  0  0  0
    4.8587   56.0624    0.0130 H   0  0  0  0  0  0  0  0  0  0  0  0
    6.2620   55.0432   -0.4694 H   0  0  0  0  0  0  0  0  0  0  0  0
    5.9751   56.7170    2.0242 H   0  0  0  0  0  0  0  0  0  0  0  0
    8.4310   55.1024    1.1582 H   0  0  0  0  0  0  0  0  0  0  0  0
    8.3512   56.2028    2.5712 H   0  0  0  0  0  0  0  0  0  0  0  0
    6.5433   54.8403    3.5781 H   0  0  0  0  0  0  0  0  0  0  0  0
    7.9394   53.7777    3.1882 H   0  0  0  0  0  0  0  0  0  0  0  0
    9.1720   56.9359   -0.0473 H   0  0  0  0  0  0  0  0  0  0  0  0
    3.9447   57.6203    1.8446 H   0  0  0  0  0  0  0  0  0  0  0  0
    2.1687   59.5511    2.0817 H   0  0  0  0  0  0  0  0  0  0  0  0
    3.1817   61.7210    1.1032 H   0  0  0  0  0  0  0  0  0  0  0  0
    7.7312   61.6779   -0.8537 H   0  0  0  0  0  0  0  0  0  0  0  0
 19 20  1  0
 19 18  2  0
 28 20  2  0
 28 27  1  0
 20 21  1  0
 18 17  1  0
 27 26  2  0
 13 14  1  0
 13 12  1  0
 21 17  1  0
 21 22  2  0
 17 14  1  0
 26 22  1  0
 26 25  1  0
 22 23  1  0
  4  1  1  0
  4  8  1  0
 10  3  2  0
 25 24  1  0
 14 15  1  0
 12 11  1  0
  1  9  1  0
 23 24  2  0
  3 11  1  0
  3  9  1  0
 11 16  1  0
 15 16  1  0
  8  7  1  0
  9  7  1  0
  7  2  1  0
  5  2  1  0
  2  6  1  0
  1 29  1  0
  1 30  1  0
  2 31  1  0
  4 32  1  0
  4 33  1  0
  5 34  1  0
  5 35  1  0
  5 36  1  0
  6 37  1  0
  6 38  1  0
  6 39  1  0
  8 40  1  0
  8 41  1  0
  9 42  1  0
 12 43  1  0
 12 44  1  0
 13 45  1  0
 13 46  1  0
 14 47  1  0
 15 48  1  0
 15 49  1  0
 16 50  1  0
 16 51  1  0
 18 52  1  0
 23 53  1  0
 24 54  1  0
 25 55  1  0
 28 56  1  0
A    1
C7
A    2
C2
A    3
C10
A    4
C6
A    5
C1
A    6
C3
A    7
N4
A    8
C5
A    9
C8
A   10
O11
A   11
N12
A   12
C13
A   13
C14
A   14
C15
A   15
C16
A   16
C17
A   17
N18
A   18
C19
A   19
N20
A   20
C21
A   21
C22
A   22
C23
A   23
C24
A   24
C25
A   25
N26
A   26
C28
A   27
N29
A   28
C30
M  END
