4E6D_0NU_A_1201
     RDKit          3D

 39 42  0  0  0  0  0  0  0  0999 V2000
   -1.6080  -52.1280  -18.1330 N   0  0  0  0  0  0  0  0  0  0  0  0
   -1.2280  -51.0590  -18.3110 C   0  0  0  0  0  0  0  0  0  0  0  0
   -0.5670  -49.7800  -18.5510 C   0  0  0  0  0  0  0  0  0  0  0  0
   -0.9580  -49.2350  -19.9960 C   0  0  0  0  0  0  0  0  0  0  0  0
   -1.4190  -50.0030  -20.8340 O   0  0  0  0  0  0  0  0  0  0  0  0
   -0.8100  -47.9190  -20.2500 N   0  0  0  0  0  0  0  0  0  0  0  0
   -0.2910  -47.0010  -19.2420 C   0  0  0  0  0  0  0  0  0  0  0  0
   -1.3650  -46.0070  -18.8380 C   0  0  0  0  0  0  0  0  0  0  0  0
   -1.8990  -45.2770  -20.0700 C   0  0  0  0  0  0  0  0  0  0  0  0
   -1.1740  -47.2530  -21.5030 C   0  0  0  0  0  0  0  0  0  0  0  0
   -2.2610  -46.2620  -21.1780 C   0  0  0  0  0  0  0  0  0  0  0  0
   -2.6680  -45.5640  -22.3910 N   0  0  0  0  0  0  0  0  0  0  0  0
   -3.9360  -45.0200  -22.5340 C   0  0  0  0  0  0  0  0  0  0  0  0
   -5.0840  -44.9700  -21.7500 C   0  0  0  0  0  0  0  0  0  0  0  0
   -5.5730  -45.4640  -20.4940 C   0  0  0  0  0  0  0  0  0  0  0  0
   -1.9490  -45.2400  -23.5220 C   0  0  0  0  0  0  0  0  0  0  0  0
   -2.6280  -44.5160  -24.3810 N   0  0  0  0  0  0  0  0  0  0  0  0
   -3.8780  -44.3540  -23.7870 C   0  0  0  0  0  0  0  0  0  0  0  0
   -4.9940  -43.6380  -24.2020 C   0  0  0  0  0  0  0  0  0  0  0  0
   -6.1110  -43.5400  -23.4720 N   0  0  0  0  0  0  0  0  0  0  0  0
   -6.1420  -44.1840  -22.2920 C   0  0  0  0  0  0  0  0  0  0  0  0
   -7.1830  -44.2160  -21.4100 N   0  0  0  0  0  0  0  0  0  0  0  0
   -6.8410  -44.9970  -20.3400 C   0  0  0  0  0  0  0  0  0  0  0  0
    0.5231  -49.9157  -18.4943 H   0  0  0  0  0  0  0  0  0  0  0  0
   -0.8897  -49.0551  -17.7892 H   0  0  0  0  0  0  0  0  0  0  0  0
    0.0260  -47.5733  -18.3577 H   0  0  0  0  0  0  0  0  0  0  0  0
    0.5662  -46.4537  -19.6612 H   0  0  0  0  0  0  0  0  0  0  0  0
   -0.9370  -45.2739  -18.1384 H   0  0  0  0  0  0  0  0  0  0  0  0
   -2.1919  -46.5485  -18.3552 H   0  0  0  0  0  0  0  0  0  0  0  0
   -1.1273  -44.5865  -20.4411 H   0  0  0  0  0  0  0  0  0  0  0  0
   -2.8061  -44.7248  -19.7832 H   0  0  0  0  0  0  0  0  0  0  0  0
   -1.5420  -47.9919  -22.2300 H   0  0  0  0  0  0  0  0  0  0  0  0
   -0.3028  -46.7477  -21.9454 H   0  0  0  0  0  0  0  0  0  0  0  0
   -3.1057  -46.8419  -20.7778 H   0  0  0  0  0  0  0  0  0  0  0  0
   -5.0235  -46.1025  -19.7866 H   0  0  0  0  0  0  0  0  0  0  0  0
   -0.9088  -45.5570  -23.6881 H   0  0  0  0  0  0  0  0  0  0  0  0
   -4.9576  -43.1280  -25.1760 H   0  0  0  0  0  0  0  0  0  0  0  0
   -8.0829  -43.7296  -21.5307 H   0  0  0  0  0  0  0  0  0  0  0  0
   -7.4946  -45.2149  -19.4825 H   0  0  0  0  0  0  0  0  0  0  0  0
 17 18  1  0
 17 16  2  0
 19 18  2  0
 19 20  1  0
 18 13  1  0
 16 12  1  0
 20 21  2  0
 13 12  1  0
 13 14  2  0
 12 11  1  0
 21 14  1  0
 21 22  1  0
 14 15  1  0
 10 11  1  0
 10  6  1  0
 22 23  1  0
 11  9  1  0
  5  4  2  0
 15 23  2  0
  6  4  1  0
  6  7  1  0
  9  8  1  0
  4  3  1  0
  7  8  1  0
  3  2  1  0
  2  1  3  0
  3 24  1  0
  3 25  1  0
  7 26  1  0
  7 27  1  0
  8 28  1  0
  8 29  1  0
  9 30  1  0
  9 31  1  0
 10 32  1  0
 10 33  1  0
 11 34  1  0
 15 35  1  0
 16 36  1  0
 19 37  1  0
 22 38  1  0
 23 39  1  0
A    1
N5
A    2
C15
A    3
C14
A    4
C13
A    5
O
A    6
N4
A    7
C11
A    8
C10
A    9
C9
A   10
C12
A   11
C8
A   12
N3
A   13
C4
A   14
C3
A   15
C
A   16
C7
A   17
N2
A   18
C5
A   19
C6
A   20
N1
A   21
C2
A   22
N
A   23
C1
M  END
