3ACW_651_A_1001
     RDKit          3D

 42 45  0  0  0  0  0  0  0  0999 V2000
   54.8850   12.3290   53.3370 O   0  0  0  0  0  0  0  0  0  0  0  0
   57.7110   21.0050   53.2580 C   0  0  0  0  0  0  0  0  0  0  0  0
   57.9630   20.1180   54.3060 C   0  0  0  0  0  0  0  0  0  0  0  0
   57.1980   20.4670   52.0800 C   0  0  0  0  0  0  0  0  0  0  0  0
   57.6930   18.7580   54.1550 C   0  0  0  0  0  0  0  0  0  0  0  0
   56.9110   19.1060   51.9570 C   0  0  0  0  0  0  0  0  0  0  0  0
   56.3040   16.3200   51.7220 C   0  0  0  0  0  0  0  0  0  0  0  0
   57.1270   15.9370   53.8960 C   0  0  0  0  0  0  0  0  0  0  0  0
   56.0250   14.9650   51.5700 C   0  0  0  0  0  0  0  0  0  0  0  0
   56.8350   14.5770   53.7630 C   0  0  0  0  0  0  0  0  0  0  0  0
   58.2670   11.6770   51.8540 C   0  0  0  0  0  0  0  0  0  0  0  0
   56.7100   10.2160   52.9660 C   0  0  0  0  0  0  0  0  0  0  0  0
   57.7060   11.0780   50.5680 C   0  0  0  0  0  0  0  0  0  0  0  0
   55.9580    9.8540   51.6870 C   0  0  0  0  0  0  0  0  0  0  0  0
   55.5750   12.1650   51.0450 C   0  0  0  0  0  0  0  0  0  0  0  0
   57.1490   18.2100   52.9940 C   0  0  0  0  0  0  0  0  0  0  0  0
   56.8700   16.8530   52.8770 C   0  0  0  0  0  0  0  0  0  0  0  0
   56.2990   14.0520   52.5850 C   0  0  0  0  0  0  0  0  0  0  0  0
   57.1380   11.6770   52.8780 C   0  0  0  0  0  0  0  0  0  0  0  0
   56.2470   10.8960   50.6860 N   0  0  0  0  0  0  0  0  0  0  0  0
   55.9840   12.5840   52.4560 C   0  0  0  0  0  0  0  0  0  0  0  0
   55.1912   12.4001   54.2758 H   0  0  0  0  0  0  0  0  0  0  0  0
   57.9090   22.0824   53.3581 H   0  0  0  0  0  0  0  0  0  0  0  0
   58.3759   20.4929   55.2541 H   0  0  0  0  0  0  0  0  0  0  0  0
   57.0140   21.1323   51.2235 H   0  0  0  0  0  0  0  0  0  0  0  0
   57.9206   18.0839   54.9939 H   0  0  0  0  0  0  0  0  0  0  0  0
   56.4850   18.7322   51.0142 H   0  0  0  0  0  0  0  0  0  0  0  0
   56.0664   17.0011   50.8915 H   0  0  0  0  0  0  0  0  0  0  0  0
   57.5739   16.2963   54.8347 H   0  0  0  0  0  0  0  0  0  0  0  0
   55.5793   14.6083   50.6297 H   0  0  0  0  0  0  0  0  0  0  0  0
   57.0326   13.9019   54.6087 H   0  0  0  0  0  0  0  0  0  0  0  0
   59.1073   11.0680   52.2188 H   0  0  0  0  0  0  0  0  0  0  0  0
   58.6387   12.6977   51.6809 H   0  0  0  0  0  0  0  0  0  0  0  0
   56.0523   10.0737   53.8362 H   0  0  0  0  0  0  0  0  0  0  0  0
   57.5934    9.5704   53.0796 H   0  0  0  0  0  0  0  0  0  0  0  0
   57.9212   11.7546   49.7278 H   0  0  0  0  0  0  0  0  0  0  0  0
   58.1771   10.0997   50.3920 H   0  0  0  0  0  0  0  0  0  0  0  0
   56.2975    8.8752   51.3173 H   0  0  0  0  0  0  0  0  0  0  0  0
   54.8767    9.7951   51.8800 H   0  0  0  0  0  0  0  0  0  0  0  0
   55.8689   12.9488   50.3314 H   0  0  0  0  0  0  0  0  0  0  0  0
   54.4849   12.0223   51.0094 H   0  0  0  0  0  0  0  0  0  0  0  0
   57.4611   12.0751   53.8512 H   0  0  0  0  0  0  0  0  0  0  0  0
  1 21  1  0
  2  3  2  0
  2  4  1  0
  3  5  1  0
  4  6  2  0
  5 16  2  0
  6 16  1  0
  7  9  2  0
  7 17  1  0
  8 10  1  0
  8 17  2  0
  9 18  1  0
 10 18  2  0
 11 13  1  0
 11 19  1  0
 12 14  1  0
 12 19  1  0
 13 20  1  0
 14 20  1  0
 15 20  1  0
 15 21  1  0
 16 17  1  0
 18 21  1  0
 19 21  1  0
  1 22  1  0
  2 23  1  0
  3 24  1  0
  4 25  1  0
  5 26  1  0
  6 27  1  0
  7 28  1  0
  8 29  1  0
  9 30  1  0
 10 31  1  0
 11 32  1  0
 11 33  1  0
 12 34  1  0
 12 35  1  0
 13 36  1  0
 13 37  1  0
 14 38  1  0
 14 39  1  0
 15 40  1  0
 15 41  1  0
 19 42  1  0
A    1
OAA
A    2
CAB
A    3
CAC
A    4
CAD
A    5
CAE
A    6
CAF
A    7
CAG
A    8
CAH
A    9
CAI
A   10
CAJ
A   11
CAK
A   12
CAL
A   13
CAM
A   14
CAN
A   15
CAO
A   16
CAP
A   17
CAQ
A   18
CAR
A   19
CAS
A   20
NAT
A   21
CAU
M  END
