4EAD_0NP_A_501
     RDKit          3D

 30 31  0  0  0  0  0  0  0  0999 V2000
   30.5850  -14.5900   -3.6540 C   0  0  0  0  0  0  0  0  0  0  0  0
   29.3560  -14.5070   -3.8390 O   0  0  0  0  0  0  0  0  0  0  0  0
   32.7270  -13.5730   -3.7450 C   0  0  0  0  0  0  0  0  0  0  0  0
   29.1070   -7.5610   -3.3290 N   0  0  0  0  0  0  0  0  0  0  0  0
   29.5400   -8.5110   -4.0300 N   0  0  0  0  0  0  0  0  0  0  0  0
   29.9580   -9.4800   -4.7570 N   0  0  0  0  0  0  0  0  0  0  0  0
   31.3370   -9.9350   -4.7200 C   0  0  0  0  0  0  0  0  0  0  0  0
   31.5030  -10.6580   -6.0440 C   0  0  0  0  0  0  0  0  0  0  0  0
   32.9080  -10.4890   -6.6080 C   0  0  0  0  0  0  0  0  0  0  0  0
   33.8740  -10.6950   -5.5750 O   0  0  0  0  0  0  0  0  0  0  0  0
   31.2290  -12.0440   -5.8060 O   0  0  0  0  0  0  0  0  0  0  0  0
   31.3400  -11.0400   -3.6920 C   0  0  0  0  0  0  0  0  0  0  0  0
   30.5240  -10.7230   -2.6480 F   0  0  0  0  0  0  0  0  0  0  0  0
   30.8260  -12.2490   -4.4550 C   0  0  0  0  0  0  0  0  0  0  0  0
   31.4120  -13.4850   -3.9410 N   0  0  0  0  0  0  0  0  0  0  0  0
   31.1130  -15.7210   -3.1820 N   0  0  0  0  0  0  0  0  0  0  0  0
   33.2660  -14.7520   -3.2560 C   0  0  0  0  0  0  0  0  0  0  0  0
   32.4300  -15.8240   -2.9780 C   0  0  0  0  0  0  0  0  0  0  0  0
   32.9120  -16.8850   -2.5350 O   0  0  0  0  0  0  0  0  0  0  0  0
   33.3795  -12.7164   -3.9696 H   0  0  0  0  0  0  0  0  0  0  0  0
   29.7097   -7.1346   -2.6108 H   0  0  0  0  0  0  0  0  0  0  0  0
   32.0772   -9.1441   -4.5286 H   0  0  0  0  0  0  0  0  0  0  0  0
   30.8113  -10.2352   -6.7875 H   0  0  0  0  0  0  0  0  0  0  0  0
   33.0698  -11.2236   -7.4106 H   0  0  0  0  0  0  0  0  0  0  0  0
   33.0176   -9.4706   -7.0090 H   0  0  0  0  0  0  0  0  0  0  0  0
   33.4373  -10.6019   -4.6914 H   0  0  0  0  0  0  0  0  0  0  0  0
   32.3320  -11.2185   -3.2515 H   0  0  0  0  0  0  0  0  0  0  0  0
   29.7352  -12.3491   -4.3544 H   0  0  0  0  0  0  0  0  0  0  0  0
   30.5001  -16.5220   -2.9730 H   0  0  0  0  0  0  0  0  0  0  0  0
   34.3499  -14.8377   -3.0892 H   0  0  0  0  0  0  0  0  0  0  0  0
  9  8  1  0
  9 10  1  0
  8 11  1  0
  8  7  1  0
 11 14  1  0
  6  7  1  0
  6  5  2  3
  7 12  1  0
 14 15  1  0
 14 12  1  0
  5  4  2  3
 15  3  1  0
 15  1  1  0
  2  1  2  0
  3 17  2  0
 12 13  1  0
  1 16  1  0
 17 18  1  0
 16 18  1  0
 18 19  2  0
  3 20  1  0
  4 21  1  0
  7 22  1  0
  8 23  1  0
  9 24  1  0
  9 25  1  0
 10 26  1  0
 12 27  1  0
 14 28  1  0
 16 29  1  0
 17 30  1  0
M  CHG  1   5   1
A    1
C2
A    2
O2
A    3
C6
A    4
N19
A    5
N18
A    6
N3'
A    7
C3'
A    8
C4'
A    9
C5'
A   10
O5'
A   11
O4'
A   12
C2'
A   13
F2'
A   14
C1'
A   15
N1
A   16
N3
A   17
C5
A   18
C4
A   19
O4
M  END
