4EAW_0NQ_A_601
     RDKit          3D

 73 75  0  0  0  0  0  0  0  0999 V2000
  -24.0580   -8.5380   31.2640 O   0  0  0  0  0  0  0  0  0  0  0  0
  -25.1550   -8.0160   31.2880 C   0  0  0  0  0  0  0  0  0  0  0  0
  -25.6970   -7.4630   32.4230 N   0  0  0  0  0  0  0  0  0  0  0  0
  -25.4470   -8.0760   33.7290 C   0  0  0  0  0  0  0  0  0  0  0  0
  -26.0300   -9.4840   33.8240 C   0  0  0  0  0  0  0  0  0  0  0  0
  -25.6730  -10.2530   35.1140 C   0  0  0  0  0  0  0  0  0  0  0  0
  -24.1380  -10.4750   35.1520 C   0  0  0  0  0  0  0  0  0  0  0  0
  -26.3780  -11.6260   35.1020 C   0  0  0  0  0  0  0  0  0  0  0  0
  -26.1810   -9.4590   36.3370 C   0  0  0  0  0  0  0  0  0  0  0  0
  -27.0450   -6.9730   32.0480 C   0  0  0  0  0  0  0  0  0  0  0  0
  -27.2230   -5.4250   32.2390 C   0  0  0  0  0  0  0  0  0  0  0  0
  -26.4190   -4.5930   31.2120 C   0  0  0  0  0  0  0  0  0  0  0  0
  -26.7990   -5.0180   33.6570 C   0  0  0  0  0  0  0  0  0  0  0  0
  -28.6740   -4.9540   32.0720 C   0  0  0  0  0  0  0  0  0  0  0  0
  -27.2080   -7.3740   30.6050 C   0  0  0  0  0  0  0  0  0  0  0  0
  -28.3340   -7.1300   29.9130 O   0  0  0  0  0  0  0  0  0  0  0  0
  -26.0540   -7.8740   30.1440 C   0  0  0  0  0  0  0  0  0  0  0  0
  -25.5870   -8.0790   28.7450 C   0  0  0  0  0  0  0  0  0  0  0  0
  -26.3320   -7.6790   27.7450 N   0  0  0  0  0  0  0  0  0  0  0  0
  -25.8480   -7.8370   26.1280 P   0  0  0  0  0  0  0  0  0  0  0  0
  -26.7500   -8.7370   25.4920 O   0  0  0  0  0  0  0  0  0  0  0  0
  -25.8900   -6.3670   25.4280 O   0  0  0  0  0  0  0  0  0  0  0  0
  -25.0390   -5.3390   25.9310 C   0  0  0  0  0  0  0  0  0  0  0  0
  -23.7690   -5.1930   25.0690 C   0  0  0  0  0  0  0  0  0  0  0  0
  -24.1990   -8.5780   26.1220 C   0  0  0  0  0  0  0  0  0  0  0  0
  -23.4960   -8.8380   24.9470 C   0  0  0  0  0  0  0  0  0  0  0  0
  -22.2300   -9.4050   24.9720 C   0  0  0  0  0  0  0  0  0  0  0  0
  -21.4900   -9.6770   23.8120 N   0  0  0  0  0  0  0  0  0  0  0  0
  -21.9340   -9.4140   22.2740 S   0  0  0  0  0  0  0  0  0  0  0  0
  -21.8960   -7.6650   21.8260 C   0  0  0  0  0  0  0  0  0  0  0  0
  -23.2250   -9.9180   22.0530 O   0  0  0  0  0  0  0  0  0  0  0  0
  -20.9410  -10.1080   21.5230 O   0  0  0  0  0  0  0  0  0  0  0  0
  -21.6460   -9.7090   26.2020 C   0  0  0  0  0  0  0  0  0  0  0  0
  -22.3520   -9.4550   27.3580 C   0  0  0  0  0  0  0  0  0  0  0  0
  -23.6190   -8.8750   27.3350 C   0  0  0  0  0  0  0  0  0  0  0  0
  -24.3060   -8.6440   28.5680 N   0  0  0  0  0  0  0  0  0  0  0  0
  -24.3607   -8.1301   33.8932 H   0  0  0  0  0  0  0  0  0  0  0  0
  -25.9360   -7.4547   34.4938 H   0  0  0  0  0  0  0  0  0  0  0  0
  -27.1256   -9.4041   33.7666 H   0  0  0  0  0  0  0  0  0  0  0  0
  -25.5893  -10.0555   32.9938 H   0  0  0  0  0  0  0  0  0  0  0  0
  -23.8004  -10.5238   36.1978 H   0  0  0  0  0  0  0  0  0  0  0  0
  -23.8912  -11.4182   34.6426 H   0  0  0  0  0  0  0  0  0  0  0  0
  -23.6341   -9.6404   34.6426 H   0  0  0  0  0  0  0  0  0  0  0  0
  -26.5492  -11.9593   36.1362 H   0  0  0  0  0  0  0  0  0  0  0  0
  -27.3426  -11.5383   34.5806 H   0  0  0  0  0  0  0  0  0  0  0  0
  -25.7447  -12.3588   34.5806 H   0  0  0  0  0  0  0  0  0  0  0  0
  -25.8589   -9.9624   37.2605 H   0  0  0  0  0  0  0  0  0  0  0  0
  -25.7664   -8.4404   36.3109 H   0  0  0  0  0  0  0  0  0  0  0  0
  -27.2795   -9.4085   36.3109 H   0  0  0  0  0  0  0  0  0  0  0  0
  -27.8152   -7.4091   32.7012 H   0  0  0  0  0  0  0  0  0  0  0  0
  -25.7500   -3.9007   31.7442 H   0  0  0  0  0  0  0  0  0  0  0  0
  -25.8218   -5.2675   30.5808 H   0  0  0  0  0  0  0  0  0  0  0  0
  -27.1135   -4.0192   30.5808 H   0  0  0  0  0  0  0  0  0  0  0  0
  -27.3889   -5.5842   34.3928 H   0  0  0  0  0  0  0  0  0  0  0  0
  -25.7302   -5.2370   33.7972 H   0  0  0  0  0  0  0  0  0  0  0  0
  -26.9741   -3.9411   33.7972 H   0  0  0  0  0  0  0  0  0  0  0  0
  -29.1280   -4.8066   33.0630 H   0  0  0  0  0  0  0  0  0  0  0  0
  -28.6897   -4.0046   31.5166 H   0  0  0  0  0  0  0  0  0  0  0  0
  -29.2443   -5.7132   31.5166 H   0  0  0  0  0  0  0  0  0  0  0  0
  -29.1802   -6.9466   30.3931 H   0  0  0  0  0  0  0  0  0  0  0  0
  -24.7461   -5.5883   26.9616 H   0  0  0  0  0  0  0  0  0  0  0  0
  -25.5896   -4.3871   25.9030 H   0  0  0  0  0  0  0  0  0  0  0  0
  -22.8910   -5.0921   25.7239 H   0  0  0  0  0  0  0  0  0  0  0  0
  -23.6524   -6.0837   24.4341 H   0  0  0  0  0  0  0  0  0  0  0  0
  -23.8576   -4.2991   24.4341 H   0  0  0  0  0  0  0  0  0  0  0  0
  -23.9548   -8.5883   23.9789 H   0  0  0  0  0  0  0  0  0  0  0  0
  -20.5576  -10.0913   23.9528 H   0  0  0  0  0  0  0  0  0  0  0  0
  -21.8827   -7.0527   22.7397 H   0  0  0  0  0  0  0  0  0  0  0  0
  -20.9931   -7.4580   21.2327 H   0  0  0  0  0  0  0  0  0  0  0  0
  -22.7890   -7.4190   21.2327 H   0  0  0  0  0  0  0  0  0  0  0  0
  -20.6371  -10.1449   26.2484 H   0  0  0  0  0  0  0  0  0  0  0  0
  -21.9024   -9.7177   28.3270 H   0  0  0  0  0  0  0  0  0  0  0  0
  -23.8083   -8.9221   29.4258 H   0  0  0  0  0  0  0  0  0  0  0  0
 32 29  2  0
 30 29  1  0
 31 29  2  0
 29 28  1  0
 28 27  1  0
 26 27  2  0
 26 25  1  0
 27 33  1  0
 24 23  1  0
 22 23  1  0
 22 20  1  0
 21 20  2  0
 25 20  1  0
 25 35  2  0
 20 19  1  0
 33 34  2  0
 35 34  1  0
 35 36  1  0
 19 18  2  0
 36 18  1  0
 18 17  1  0
 16 15  1  0
 17 15  2  0
 17  2  1  0
 15 10  1  0
 12 11  1  0
  1  2  2  0
  2  3  1  0
 10 11  1  0
 10  3  1  0
 14 11  1  0
 11 13  1  0
  3  4  1  0
  4  5  1  0
  5  6  1  0
  8  6  1  0
  6  7  1  0
  6  9  1  0
  4 37  1  0
  4 38  1  0
  5 39  1  0
  5 40  1  0
  7 41  1  0
  7 42  1  0
  7 43  1  0
  8 44  1  0
  8 45  1  0
  8 46  1  0
  9 47  1  0
  9 48  1  0
  9 49  1  0
 10 50  1  0
 12 51  1  0
 12 52  1  0
 12 53  1  0
 13 54  1  0
 13 55  1  0
 13 56  1  0
 14 57  1  0
 14 58  1  0
 14 59  1  0
 16 60  1  0
 23 61  1  0
 23 62  1  0
 24 63  1  0
 24 64  1  0
 24 65  1  0
 26 66  1  0
 28 67  1  0
 30 68  1  0
 30 69  1  0
 30 70  1  0
 33 71  1  0
 34 72  1  0
 36 73  1  0
A    1
O26
A    2
C24
A    3
N23
A    4
C31
A    5
C32
A    6
C33
A    7
C36
A    8
C35
A    9
C34
A   10
C22
A   11
C27
A   12
C30
A   13
C29
A   14
C28
A   15
C21
A   16
O25
A   17
C1
A   18
C2
A   19
N5
A   20
P4
A   21
O6
A   22
O7
A   23
C19
A   24
C20
A   25
C8
A   26
C13
A   27
C12
A   28
N14
A   29
S15
A   30
C18
A   31
O17
A   32
O16
A   33
C11
A   34
C10
A   35
C9
A   36
N3
M  END
