4EBC_0OH_A_501
     RDKit          3D

 49 52  0  0  0  0  0  0  0  0999 V2000
   97.4660  -17.6740  217.4920 O   0  0  0  0  0  0  0  0  0  0  0  0
   95.9780  -17.6730  217.7350 P   0  0  0  0  0  0  0  0  0  0  0  0
   95.3820  -18.6400  216.7440 O   0  0  0  0  0  0  0  0  0  0  0  0
   95.3940  -16.3120  217.4090 O   0  0  0  0  0  0  0  0  0  0  0  0
   95.6600  -17.9610  219.2470 O   0  0  0  0  0  0  0  0  0  0  0  0
   95.7770  -19.3610  219.9550 P   0  0  0  0  0  0  0  0  0  0  0  0
   94.5690  -19.4540  220.8360 O   0  0  0  0  0  0  0  0  0  0  0  0
   97.0350  -19.4880  220.7860 O   0  0  0  0  0  0  0  0  0  0  0  0
   95.8080  -20.4430  218.8080 O   0  0  0  0  0  0  0  0  0  0  0  0
   95.3650  -21.9490  218.9020 P   0  0  0  0  0  0  0  0  0  0  0  0
   96.4310  -22.8350  218.3020 O   0  0  0  0  0  0  0  0  0  0  0  0
   94.0850  -22.1720  218.1190 O   0  0  0  0  0  0  0  0  0  0  0  0
   95.2260  -22.2720  220.4240 O   0  0  0  0  0  0  0  0  0  0  0  0
   94.0210  -22.5310  221.0680 C   0  0  0  0  0  0  0  0  0  0  0  0
   94.2010  -22.6240  222.5590 C   0  0  0  0  0  0  0  0  0  0  0  0
   94.1540  -24.0480  223.0840 C   0  0  0  0  0  0  0  0  0  0  0  0
   93.0330  -23.0760  223.4030 C   0  0  0  0  0  0  0  0  0  0  0  0
   95.3960  -21.9370  223.1820 C   0  0  0  0  0  0  0  0  0  0  0  0
   95.0400  -20.7450  223.7430 O   0  0  0  0  0  0  0  0  0  0  0  0
   95.9930  -22.8910  224.1490 C   0  0  0  0  0  0  0  0  0  0  0  0
   95.4170  -24.2270  223.8900 C   0  0  0  0  0  0  0  0  0  0  0  0
   96.3320  -25.1220  223.1810 N   0  0  0  0  0  0  0  0  0  0  0  0
   96.6370  -25.1220  221.8620 C   0  0  0  0  0  0  0  0  0  0  0  0
   97.5130  -26.1120  221.6010 N   0  0  0  0  0  0  0  0  0  0  0  0
   97.7890  -26.7710  222.7550 C   0  0  0  0  0  0  0  0  0  0  0  0
   97.0330  -26.1320  223.7570 C   0  0  0  0  0  0  0  0  0  0  0  0
   97.0900  -26.5430  225.0470 N   0  0  0  0  0  0  0  0  0  0  0  0
   97.8760  -27.5740  225.3960 C   0  0  0  0  0  0  0  0  0  0  0  0
   98.6080  -28.2100  224.4670 N   0  0  0  0  0  0  0  0  0  0  0  0
   98.6040  -27.8530  223.1660 C   0  0  0  0  0  0  0  0  0  0  0  0
   99.4340  -28.5870  222.2430 N   0  0  0  0  0  0  0  0  0  0  0  0
   97.9421  -17.6743  218.3600 H   0  0  0  0  0  0  0  0  0  0  0  0
   95.1878  -15.8314  218.2496 H   0  0  0  0  0  0  0  0  0  0  0  0
   94.8502  -19.4324  221.7850 H   0  0  0  0  0  0  0  0  0  0  0  0
   96.9490  -23.2656  219.0275 H   0  0  0  0  0  0  0  0  0  0  0  0
   93.3140  -21.7188  220.8434 H   0  0  0  0  0  0  0  0  0  0  0  0
   93.6369  -23.4961  220.7060 H   0  0  0  0  0  0  0  0  0  0  0  0
   94.0603  -25.1053  222.7953 H   0  0  0  0  0  0  0  0  0  0  0  0
   92.9136  -22.6918  224.4268 H   0  0  0  0  0  0  0  0  0  0  0  0
   91.9402  -23.0823  223.2771 H   0  0  0  0  0  0  0  0  0  0  0  0
   96.1503  -21.6769  222.4248 H   0  0  0  0  0  0  0  0  0  0  0  0
   95.0637  -20.8244  224.7295 H   0  0  0  0  0  0  0  0  0  0  0  0
   97.0844  -22.9232  224.0157 H   0  0  0  0  0  0  0  0  0  0  0  0
   95.7754  -22.5752  225.1800 H   0  0  0  0  0  0  0  0  0  0  0  0
   95.2119  -24.7004  224.8615 H   0  0  0  0  0  0  0  0  0  0  0  0
   96.2317  -24.4211  221.1174 H   0  0  0  0  0  0  0  0  0  0  0  0
   97.9205  -27.8987  226.4460 H   0  0  0  0  0  0  0  0  0  0  0  0
  100.1581  -29.2273  222.5987 H   0  0  0  0  0  0  0  0  0  0  0  0
   99.3027  -28.4709  221.2280 H   0  0  0  0  0  0  0  0  0  0  0  0
  3  2  2  0
  4  2  1  0
  1  2  1  0
  2  5  1  0
 12 10  2  0
 11 10  1  0
  9 10  1  0
  9  6  1  0
 10 13  1  0
  5  6  1  0
  6  8  2  0
  6  7  1  0
 13 14  1  0
 14 15  1  0
 24 23  2  0
 24 25  1  0
 23 22  1  0
 31 30  1  0
 15 16  1  0
 15 18  1  0
 15 17  1  0
 25 30  2  0
 25 26  1  0
 16 17  1  0
 16 21  1  0
 30 29  1  0
 18 19  1  0
 18 20  1  0
 22 26  1  0
 22 21  1  0
 26 27  2  0
 21 20  1  0
 29 28  2  0
 27 28  1  0
  1 32  1  0
  4 33  1  0
  7 34  1  0
 11 35  1  0
 14 36  1  0
 14 37  1  0
 16 38  1  0
 17 39  1  0
 17 40  1  0
 18 41  1  0
 19 42  1  0
 20 43  1  0
 20 44  1  0
 21 45  1  0
 23 46  1  0
 28 47  1  0
 31 48  1  0
 31 49  1  0
A    1
OAF
A    2
PBC
A    3
OAG
A    4
OAB
A    5
OAS
A    6
PBE
A    7
OAI
A    8
OAD
A    9
OAT
A   10
PBD
A   11
OAH
A   12
OAC
A   13
OAR
A   14
CAL
A   15
CBB
A   16
CAZ
A   17
CAN
A   18
CAX
A   19
OAE
A   20
CAM
A   21
CAY
A   22
N9
A   23
C8
A   24
N7
A   25
C5
A   26
C4
A   27
N3
A   28
C2
A   29
N1
A   30
C6
A   31
N6
M  END
