3D2D_REN_A_801
     RDKit          3D

 47 49  0  0  0  0  0  0  0  0999 V2000
   30.2720   33.3920   20.6930 C   0  0  0  0  0  0  0  0  0  0  0  0
   31.0540   32.4580   20.0220 C   0  0  0  0  0  0  0  0  0  0  0  0
   30.6720   32.0120   18.7640 C   0  0  0  0  0  0  0  0  0  0  0  0
   29.5130   32.4960   18.1740 C   0  0  0  0  0  0  0  0  0  0  0  0
   28.7260   33.4270   18.8380 C   0  0  0  0  0  0  0  0  0  0  0  0
   27.3390   33.7330   18.2800 C   0  0  0  0  0  0  0  0  0  0  0  0
   26.5910   34.7580   19.1180 C   0  0  0  0  0  0  0  0  0  0  0  0
   27.5530   35.6090   19.8020 N   0  0  0  0  0  0  0  0  0  0  0  0
   28.2760   34.8600   20.8240 C   0  0  0  0  0  0  0  0  0  0  0  0
   27.3600   34.0890   21.7700 C   0  0  0  0  0  0  0  0  0  0  0  0
   26.9250   34.9150   22.9760 C   0  0  0  0  0  0  0  0  0  0  0  0
   27.7840   35.1020   24.0570 C   0  0  0  0  0  0  0  0  0  0  0  0
   27.3720   35.8560   25.1530 C   0  0  0  0  0  0  0  0  0  0  0  0
   26.1000   36.4270   25.1720 C   0  0  0  0  0  0  0  0  0  0  0  0
   25.6930   37.1720   26.2540 O   0  0  0  0  0  0  0  0  0  0  0  0
   26.6360   37.5420   27.2580 C   0  0  0  0  0  0  0  0  0  0  0  0
   25.2430   36.2380   24.0880 C   0  0  0  0  0  0  0  0  0  0  0  0
   23.9870   36.7900   24.0840 O   0  0  0  0  0  0  0  0  0  0  0  0
   25.6560   35.4820   22.9960 C   0  0  0  0  0  0  0  0  0  0  0  0
   29.1090   33.8750   20.1010 C   0  0  0  0  0  0  0  0  0  0  0  0
   26.9110   36.8130   20.3170 C   0  0  0  0  0  0  0  0  0  0  0  0
   31.4350   31.0950   18.0950 O   0  0  0  0  0  0  0  0  0  0  0  0
   31.3580   31.0270   16.6730 C   0  0  0  0  0  0  0  0  0  0  0  0
   32.2000   31.9760   20.5940 O   0  0  0  0  0  0  0  0  0  0  0  0
   30.5722   33.7482   21.6895 H   0  0  0  0  0  0  0  0  0  0  0  0
   29.2167   32.1405   17.1761 H   0  0  0  0  0  0  0  0  0  0  0  0
   27.4478   34.1240   17.2576 H   0  0  0  0  0  0  0  0  0  0  0  0
   26.7579   32.7992   18.2943 H   0  0  0  0  0  0  0  0  0  0  0  0
   25.9542   35.3731   18.4652 H   0  0  0  0  0  0  0  0  0  0  0  0
   25.9612   34.2424   19.8580 H   0  0  0  0  0  0  0  0  0  0  0  0
   28.8502   35.5694   21.4380 H   0  0  0  0  0  0  0  0  0  0  0  0
   26.4627   33.7784   21.2147 H   0  0  0  0  0  0  0  0  0  0  0  0
   27.9261   33.2247   22.1476 H   0  0  0  0  0  0  0  0  0  0  0  0
   28.7884   34.6537   24.0447 H   0  0  0  0  0  0  0  0  0  0  0  0
   28.0516   36.0014   26.0057 H   0  0  0  0  0  0  0  0  0  0  0  0
   26.1988   37.3705   28.2527 H   0  0  0  0  0  0  0  0  0  0  0  0
   27.5463   36.9344   27.1478 H   0  0  0  0  0  0  0  0  0  0  0  0
   26.8902   38.6065   27.1478 H   0  0  0  0  0  0  0  0  0  0  0  0
   23.5315   36.9902   24.9399 H   0  0  0  0  0  0  0  0  0  0  0  0
   24.9756   35.3322   22.1447 H   0  0  0  0  0  0  0  0  0  0  0  0
   26.9219   36.7925   21.4168 H   0  0  0  0  0  0  0  0  0  0  0  0
   27.4560   37.6999   19.9613 H   0  0  0  0  0  0  0  0  0  0  0  0
   25.8709   36.8547   19.9613 H   0  0  0  0  0  0  0  0  0  0  0  0
   30.5629   30.3248   16.3820 H   0  0  0  0  0  0  0  0  0  0  0  0
   31.1313   32.0251   16.2699 H   0  0  0  0  0  0  0  0  0  0  0  0
   32.3204   30.6787   16.2699 H   0  0  0  0  0  0  0  0  0  0  0  0
   32.2842   31.9406   21.5798 H   0  0  0  0  0  0  0  0  0  0  0  0
  1  2  2  0
  1 20  1  0
  2  3  1  0
  2 24  1  0
  3  4  2  0
  3 22  1  0
  4  5  1  0
  5  6  1  0
  5 20  2  0
  6  7  1  0
  7  8  1  0
  8  9  1  0
  8 21  1  0
  9 10  1  0
  9 20  1  0
 10 11  1  0
 11 12  2  0
 11 19  1  0
 12 13  1  0
 13 14  2  0
 14 15  1  0
 14 17  1  0
 15 16  1  0
 17 18  1  0
 17 19  2  0
 22 23  1  0
  1 25  1  0
  4 26  1  0
  6 27  1  0
  6 28  1  0
  7 29  1  0
  7 30  1  0
  9 31  1  0
 10 32  1  0
 10 33  1  0
 12 34  1  0
 13 35  1  0
 16 36  1  0
 16 37  1  0
 16 38  1  0
 18 39  1  0
 19 40  1  0
 21 41  1  0
 21 42  1  0
 21 43  1  0
 23 44  1  0
 23 45  1  0
 23 46  1  0
 24 47  1  0
A    1
C2
A    2
C3
A    3
C5
A    4
C8
A    5
C9
A    6
C10
A    7
C11
A    8
N12
A    9
C14
A   10
C16
A   11
C17
A   12
C25
A   13
C24
A   14
C21
A   15
O22
A   16
C23
A   17
C19
A   18
O20
A   19
C18
A   20
C1
A   21
C13
A   22
O6
A   23
C7
A   24
O4
M  END
