1BPE_DTP_A_338
     RDKit          3D

 46 48  0  0  0  0  0  0  0  0999 V2000
   18.5490   11.8760   35.5070 P   0  0  0  0  0  0  0  0  0  0  0  0
   17.2790   11.6750   35.3820 O   0  0  0  0  0  0  0  0  0  0  0  0
   19.0490   12.3780   34.5070 O   0  0  0  0  0  0  0  0  0  0  0  0
   18.9720   10.7850   36.0400 O   0  0  0  0  0  0  0  0  0  0  0  0
   19.5830   14.2760   36.5890 P   0  0  0  0  0  0  0  0  0  0  0  0
   20.4970   14.5610   38.0040 O   0  0  0  0  0  0  0  0  0  0  0  0
   20.6240   13.9050   35.5930 O   0  0  0  0  0  0  0  0  0  0  0  0
   18.9640   12.9100   36.6150 O   0  0  0  0  0  0  0  0  0  0  0  0
   19.0300   15.5340   34.7270 P   0  0  0  0  0  0  0  0  0  0  0  0
   19.7410   15.0130   34.0710 O   0  0  0  0  0  0  0  0  0  0  0  0
   19.0370   17.1340   34.4090 O   0  0  0  0  0  0  0  0  0  0  0  0
   18.9000   15.2030   36.2140 O   0  0  0  0  0  0  0  0  0  0  0  0
   17.6920   15.0330   34.4660 O   0  0  0  0  0  0  0  0  0  0  0  0
   17.3670   13.6960   34.8020 C   0  0  0  0  0  0  0  0  0  0  0  0
   15.8610   13.5060   34.5350 C   0  0  0  0  0  0  0  0  0  0  0  0
   15.2000   14.8090   34.5370 O   0  0  0  0  0  0  0  0  0  0  0  0
   15.3770   12.7980   33.1380 C   0  0  0  0  0  0  0  0  0  0  0  0
   15.3650   11.3040   33.1160 O   0  0  0  0  0  0  0  0  0  0  0  0
   13.9720   13.4270   32.9280 C   0  0  0  0  0  0  0  0  0  0  0  0
   14.1700   14.8620   33.5200 C   0  0  0  0  0  0  0  0  0  0  0  0
   14.6060   15.7890   32.5150 N   0  0  0  0  0  0  0  0  0  0  0  0
   15.8810   16.2250   32.2970 C   0  0  0  0  0  0  0  0  0  0  0  0
   15.9700   17.0590   31.2960 N   0  0  0  0  0  0  0  0  0  0  0  0
   14.6640   17.1750   30.8280 C   0  0  0  0  0  0  0  0  0  0  0  0
   14.1010   17.9200   29.7790 C   0  0  0  0  0  0  0  0  0  0  0  0
   14.8210   18.7250   28.9800 N   0  0  0  0  0  0  0  0  0  0  0  0
   12.7680   17.8110   29.5820 N   0  0  0  0  0  0  0  0  0  0  0  0
   12.0590   17.0090   30.3860 C   0  0  0  0  0  0  0  0  0  0  0  0
   12.4820   16.2640   31.4010 N   0  0  0  0  0  0  0  0  0  0  0  0
   13.8070   16.3950   31.5700 C   0  0  0  0  0  0  0  0  0  0  0  0
   19.7211   13.0528   34.7773 H   0  0  0  0  0  0  0  0  0  0  0  0
   18.9407   10.8657   37.0262 H   0  0  0  0  0  0  0  0  0  0  0  0
   21.4435   13.6129   36.0654 H   0  0  0  0  0  0  0  0  0  0  0  0
   19.0392   17.6396   35.2601 H   0  0  0  0  0  0  0  0  0  0  0  0
   17.9496   13.0000   34.1806 H   0  0  0  0  0  0  0  0  0  0  0  0
   17.6028   13.4927   35.8570 H   0  0  0  0  0  0  0  0  0  0  0  0
   15.5875   12.8110   35.3426 H   0  0  0  0  0  0  0  0  0  0  0  0
   16.0923   12.9870   32.3240 H   0  0  0  0  0  0  0  0  0  0  0  0
   15.3622   10.9603   34.0444 H   0  0  0  0  0  0  0  0  0  0  0  0
   13.7069   13.4672   31.8612 H   0  0  0  0  0  0  0  0  0  0  0  0
   13.1558   12.8600   33.3996 H   0  0  0  0  0  0  0  0  0  0  0  0
   13.2050   15.1961   33.9289 H   0  0  0  0  0  0  0  0  0  0  0  0
   16.7434   15.9071   32.9013 H   0  0  0  0  0  0  0  0  0  0  0  0
   15.4507   19.4290   29.3908 H   0  0  0  0  0  0  0  0  0  0  0  0
   14.7433   18.6382   27.9566 H   0  0  0  0  0  0  0  0  0  0  0  0
   10.9800   16.9604   30.1778 H   0  0  0  0  0  0  0  0  0  0  0  0
  1  2  2  0
  1  3  1  0
  1  4  1  0
  1  8  1  0
  5  6  2  0
  5  7  1  0
  5  8  1  0
  5 12  1  0
  9 10  2  0
  9 11  1  0
  9 12  1  0
  9 13  1  0
 13 14  1  0
 14 15  1  0
 15 16  1  0
 15 17  1  0
 16 20  1  0
 17 18  1  0
 17 19  1  0
 19 20  1  0
 20 21  1  0
 21 22  1  0
 21 30  1  0
 22 23  2  0
 23 24  1  0
 24 25  1  0
 24 30  2  0
 25 26  1  0
 25 27  2  0
 27 28  1  0
 28 29  2  0
 29 30  1  0
  3 31  1  0
  4 32  1  0
  7 33  1  0
 11 34  1  0
 14 35  1  0
 14 36  1  0
 15 37  1  0
 17 38  1  0
 18 39  1  0
 19 40  1  0
 19 41  1  0
 20 42  1  0
 22 43  1  0
 26 44  1  0
 26 45  1  0
 28 46  1  0
A    1
PG
A    2
O1G
A    3
O2G
A    4
O3G
A    5
PB
A    6
O1B
A    7
O2B
A    8
O3B
A    9
PA
A   10
O1A
A   11
O2A
A   12
O3A
A   13
O5'
A   14
C5'
A   15
C4'
A   16
O4'
A   17
C3'
A   18
O3'
A   19
C2'
A   20
C1'
A   21
N9
A   22
C8
A   23
N7
A   24
C5
A   25
C6
A   26
N6
A   27
N1
A   28
C2
A   29
N3
A   30
C4
M  END
