4EDY_9PQ_A_203
     RDKit          3D

 55 58  0  0  0  0  0  0  0  0999 V2000
   24.0240    2.7380   17.2800 O   0  0  0  0  0  0  0  0  0  0  0  0
   23.3300    1.7870   17.6050 C   0  0  0  0  0  0  0  0  0  0  0  0
   23.8550    0.6070   17.9270 N   0  0  0  0  0  0  0  0  0  0  0  0
   25.2470    0.1910   17.9610 C   0  0  0  0  0  0  0  0  0  0  0  0
   25.9300    0.8560   19.1520 C   0  0  0  0  0  0  0  0  0  0  0  0
   27.3860    0.8440   18.9200 N   0  0  0  0  0  0  0  0  0  0  0  0
   27.9410   -0.5070   19.1250 C   0  0  0  0  0  0  0  0  0  0  0  0
   29.4350   -0.4910   18.8250 C   0  0  0  0  0  0  0  0  0  0  0  0
   30.0780    0.4560   19.6770 O   0  0  0  0  0  0  0  0  0  0  0  0
   29.5570    1.7790   19.5390 C   0  0  0  0  0  0  0  0  0  0  0  0
   28.0580    1.7870   19.8280 C   0  0  0  0  0  0  0  0  0  0  0  0
   21.8330    1.9190   17.6420 C   0  0  0  0  0  0  0  0  0  0  0  0
   21.0750    0.9600   18.3050 C   0  0  0  0  0  0  0  0  0  0  0  0
   19.6930    1.0630   18.3410 C   0  0  0  0  0  0  0  0  0  0  0  0
   21.1910    2.9810   17.0090 C   0  0  0  0  0  0  0  0  0  0  0  0
   19.7990    3.0840   17.0420 C   0  0  0  0  0  0  0  0  0  0  0  0
   19.0490    2.1170   17.7010 C   0  0  0  0  0  0  0  0  0  0  0  0
   17.5650    2.1700   17.7910 C   0  0  0  0  0  0  0  0  0  0  0  0
   16.7070    1.0870   17.2300 C   0  0  0  0  0  0  0  0  0  0  0  0
   16.8860    3.2960   18.4860 C   0  0  0  0  0  0  0  0  0  0  0  0
   17.7190    4.4130   19.0790 C   0  0  0  0  0  0  0  0  0  0  0  0
   17.0100    5.0880   20.1170 O   0  0  0  0  0  0  0  0  0  0  0  0
   15.4890    3.3210   18.5790 C   0  0  0  0  0  0  0  0  0  0  0  0
   14.6860    2.3100   18.0510 C   0  0  0  0  0  0  0  0  0  0  0  0
   15.2350    1.2140   17.3930 C   0  0  0  0  0  0  0  0  0  0  0  0
   14.4070    0.2260   16.8770 C   0  0  0  0  0  0  0  0  0  0  0  0
   14.9640   -0.8630   16.2160 C   0  0  0  0  0  0  0  0  0  0  0  0
   16.3390   -0.9850   16.0590 C   0  0  0  0  0  0  0  0  0  0  0  0
   17.2160   -0.0250   16.5590 C   0  0  0  0  0  0  0  0  0  0  0  0
   23.1737   -0.1189   18.1912 H   0  0  0  0  0  0  0  0  0  0  0  0
   25.3036   -0.9025   18.0656 H   0  0  0  0  0  0  0  0  0  0  0  0
   25.7488    0.4885   17.0284 H   0  0  0  0  0  0  0  0  0  0  0  0
   25.5780    1.8935   19.2503 H   0  0  0  0  0  0  0  0  0  0  0  0
   25.6903    0.3117   20.0774 H   0  0  0  0  0  0  0  0  0  0  0  0
   27.4388   -1.2163   18.4507 H   0  0  0  0  0  0  0  0  0  0  0  0
   27.7788   -0.8166   20.1680 H   0  0  0  0  0  0  0  0  0  0  0  0
   29.8562   -1.4913   19.0038 H   0  0  0  0  0  0  0  0  0  0  0  0
   29.5963   -0.2095   17.7739 H   0  0  0  0  0  0  0  0  0  0  0  0
   30.0676    2.4466   20.2486 H   0  0  0  0  0  0  0  0  0  0  0  0
   29.7263    2.1263   18.5091 H   0  0  0  0  0  0  0  0  0  0  0  0
   27.6579    2.7993   19.6692 H   0  0  0  0  0  0  0  0  0  0  0  0
   27.8808    1.4862   20.8711 H   0  0  0  0  0  0  0  0  0  0  0  0
   21.5743    0.1159   18.8031 H   0  0  0  0  0  0  0  0  0  0  0  0
   19.1022    0.3069   18.8788 H   0  0  0  0  0  0  0  0  0  0  0  0
   21.7837    3.7422   16.4805 H   0  0  0  0  0  0  0  0  0  0  0  0
   19.2969    3.9286   16.5475 H   0  0  0  0  0  0  0  0  0  0  0  0
   18.6453    3.9889   19.4939 H   0  0  0  0  0  0  0  0  0  0  0  0
   17.9475    5.1379   18.2839 H   0  0  0  0  0  0  0  0  0  0  0  0
   17.3378    4.7759   20.9975 H   0  0  0  0  0  0  0  0  0  0  0  0
   15.0071    4.1692   19.0872 H   0  0  0  0  0  0  0  0  0  0  0  0
   13.5935    2.3809   18.1573 H   0  0  0  0  0  0  0  0  0  0  0  0
   13.3157    0.3045   16.9906 H   0  0  0  0  0  0  0  0  0  0  0  0
   14.3033   -1.6429   15.8096 H   0  0  0  0  0  0  0  0  0  0  0  0
   16.7442   -1.8590   15.5281 H   0  0  0  0  0  0  0  0  0  0  0  0
   18.3015   -0.1430   16.4257 H   0  0  0  0  0  0  0  0  0  0  0  0
 28 27  2  0
 28 29  1  0
 27 26  1  0
 29 19  2  0
 26 25  2  0
 13 14  2  0
 13 12  1  0
 14 17  1  0
 19 25  1  0
 19 18  1  0
  1  2  2  0
 25 24  1  0
  2 12  1  0
  2  3  1  0
 12 15  2  0
 17 18  1  0
 17 16  2  0
 18 20  2  0
  3  4  1  0
  4  5  1  0
 24 23  2  0
 15 16  1  0
 20 23  1  0
 20 21  1  0
  8  7  1  0
  8  9  1  0
  6  7  1  0
  6  5  1  0
  6 11  1  0
 21 22  1  0
 10  9  1  0
 10 11  1  0
  3 30  1  0
  4 31  1  0
  4 32  1  0
  5 33  1  0
  5 34  1  0
  7 35  1  0
  7 36  1  0
  8 37  1  0
  8 38  1  0
 10 39  1  0
 10 40  1  0
 11 41  1  0
 11 42  1  0
 13 43  1  0
 14 44  1  0
 15 45  1  0
 16 46  1  0
 21 47  1  0
 21 48  1  0
 22 49  1  0
 23 50  1  0
 24 51  1  0
 26 52  1  0
 27 53  1  0
 28 54  1  0
 29 55  1  0
A    1
O24
A    2
C23
A    3
N25
A    4
C26
A    5
C27
A    6
N7
A    7
C12
A    8
C11
A    9
O10
A   10
C9
A   11
C8
A   12
C16
A   13
C15
A   14
C14
A   15
C17
A   16
C18
A   17
C13
A   18
C19
A   19
C2
A   20
C20
A   21
C28
A   22
O29
A   23
C21
A   24
C22
A   25
C1
A   26
C6
A   27
C5
A   28
C4
A   29
C3
M  END
