4EE0_0O4_A_202
     RDKit          3D

 50 53  0  0  0  0  0  0  0  0999 V2000
   23.5820    2.6570   18.1010 O   0  0  0  0  0  0  0  0  0  0  0  0
   23.1250    1.5280   18.0970 C   0  0  0  0  0  0  0  0  0  0  0  0
   23.9430    0.4690   18.1140 N   0  0  0  0  0  0  0  0  0  0  0  0
   25.4070    0.5150   18.1240 C   0  0  0  0  0  0  0  0  0  0  0  0
   25.8110    0.1090   19.5400 C   0  0  0  0  0  0  0  0  0  0  0  0
   27.1380    0.6050   19.9270 N   0  0  0  0  0  0  0  0  0  0  0  0
   27.4750    0.5120   21.3470 C   0  0  0  0  0  0  0  0  0  0  0  0
   28.6170    1.4820   21.6290 C   0  0  0  0  0  0  0  0  0  0  0  0
   29.7680    1.1560   20.8430 O   0  0  0  0  0  0  0  0  0  0  0  0
   29.4920    0.6970   19.5090 C   0  0  0  0  0  0  0  0  0  0  0  0
   28.1220    1.1520   18.9950 C   0  0  0  0  0  0  0  0  0  0  0  0
   21.6270    1.3570   18.1000 C   0  0  0  0  0  0  0  0  0  0  0  0
   20.7780    2.4670   18.0230 C   0  0  0  0  0  0  0  0  0  0  0  0
   21.0600    0.0900   18.1850 C   0  0  0  0  0  0  0  0  0  0  0  0
   19.6790   -0.0580   18.1970 C   0  0  0  0  0  0  0  0  0  0  0  0
   18.8300    1.0500   18.0740 C   0  0  0  0  0  0  0  0  0  0  0  0
   19.3880    2.3200   18.0300 C   0  0  0  0  0  0  0  0  0  0  0  0
   17.3670    0.8130   18.1510 C   0  0  0  0  0  0  0  0  0  0  0  0
   16.6780    1.5780   19.0420 N   0  0  0  0  0  0  0  0  0  0  0  0
   15.3570    1.4130   19.2480 C   0  0  0  0  0  0  0  0  0  0  0  0
   16.7060   -0.1980   17.4380 C   0  0  0  0  0  0  0  0  0  0  0  0
   17.3540   -1.0120   16.5030 C   0  0  0  0  0  0  0  0  0  0  0  0
   16.6440   -1.9860   15.8190 C   0  0  0  0  0  0  0  0  0  0  0  0
   15.3390   -0.3670   17.6420 C   0  0  0  0  0  0  0  0  0  0  0  0
   14.6660    0.4330   18.5520 C   0  0  0  0  0  0  0  0  0  0  0  0
   14.6400   -1.3490   16.9550 C   0  0  0  0  0  0  0  0  0  0  0  0
   15.2940   -2.1550   16.0440 C   0  0  0  0  0  0  0  0  0  0  0  0
   23.5035   -0.4625   18.1207 H   0  0  0  0  0  0  0  0  0  0  0  0
   25.8201   -0.1903   17.3879 H   0  0  0  0  0  0  0  0  0  0  0  0
   25.7888    1.5116   17.8574 H   0  0  0  0  0  0  0  0  0  0  0  0
   25.0681    0.5112   20.2445 H   0  0  0  0  0  0  0  0  0  0  0  0
   25.8521   -0.9899   19.5661 H   0  0  0  0  0  0  0  0  0  0  0  0
   26.5992    0.7804   21.9561 H   0  0  0  0  0  0  0  0  0  0  0  0
   27.7771   -0.5151   21.5998 H   0  0  0  0  0  0  0  0  0  0  0  0
   28.8814    1.4272   22.6953 H   0  0  0  0  0  0  0  0  0  0  0  0
   28.2883    2.4986   21.3672 H   0  0  0  0  0  0  0  0  0  0  0  0
   29.5221   -0.4026   19.5026 H   0  0  0  0  0  0  0  0  0  0  0  0
   30.2549    1.1305   18.8456 H   0  0  0  0  0  0  0  0  0  0  0  0
   28.0650    2.2504   18.9807 H   0  0  0  0  0  0  0  0  0  0  0  0
   27.9412    0.8018   17.9680 H   0  0  0  0  0  0  0  0  0  0  0  0
   21.2132    3.4750   17.9556 H   0  0  0  0  0  0  0  0  0  0  0  0
   21.7071   -0.7976   18.2429 H   0  0  0  0  0  0  0  0  0  0  0  0
   19.2441   -1.0626   18.3050 H   0  0  0  0  0  0  0  0  0  0  0  0
   18.7388    3.2075   18.0007 H   0  0  0  0  0  0  0  0  0  0  0  0
   14.8273    2.0548   19.9674 H   0  0  0  0  0  0  0  0  0  0  0  0
   18.4288   -0.8788   16.3104 H   0  0  0  0  0  0  0  0  0  0  0  0
   17.1610   -2.6289   15.0914 H   0  0  0  0  0  0  0  0  0  0  0  0
   13.5884    0.2910   18.7213 H   0  0  0  0  0  0  0  0  0  0  0  0
   13.5637   -1.4858   17.1361 H   0  0  0  0  0  0  0  0  0  0  0  0
   14.7382   -2.9316   15.4980 H   0  0  0  0  0  0  0  0  0  0  0  0
 23 27  2  0
 23 22  1  0
 27 26  1  0
 22 21  2  0
 26 24  2  0
 21 24  1  0
 21 18  1  0
 24 25  1  0
 13 17  2  0
 13 12  1  0
 17 16  1  0
  4  3  1  0
  4  5  1  0
 16 18  1  0
 16 15  2  0
  3  2  1  0
  2  1  2  0
  2 12  1  0
 12 14  2  0
 18 19  2  0
 14 15  1  0
 25 20  2  0
 11 10  1  0
 11  6  1  0
 19 20  1  0
  5  6  1  0
 10  9  1  0
  6  7  1  0
  9  8  1  0
  7  8  1  0
  3 28  1  0
  4 29  1  0
  4 30  1  0
  5 31  1  0
  5 32  1  0
  7 33  1  0
  7 34  1  0
  8 35  1  0
  8 36  1  0
 10 37  1  0
 10 38  1  0
 11 39  1  0
 11 40  1  0
 13 41  1  0
 14 42  1  0
 15 43  1  0
 17 44  1  0
 20 45  1  0
 22 46  1  0
 23 47  1  0
 25 48  1  0
 26 49  1  0
 27 50  1  0
A    1
O1
A    2
C2
A    3
N3
A    4
C4
A    5
C5
A    6
N6
A    7
C11
A    8
C10
A    9
O9
A   10
C8
A   11
C7
A   12
C12
A   13
C13
A   14
C17
A   15
C16
A   16
C15
A   17
C14
A   18
C18
A   19
N19
A   20
C20
A   21
C27
A   22
C26
A   23
C25
A   24
C22
A   25
C21
A   26
C23
A   27
C24
M  END
