4EEQ_0OX_A_404
     RDKit          3D

 30 31  0  0  0  0  0  0  0  0999 V2000
   18.6650   31.5450   49.5990 C   0  0  0  0  0  0  0  0  0  0  0  0
   18.9760   32.6700   50.5310 C   0  0  0  0  0  0  0  0  0  0  0  0
   20.3260   33.0400   50.8030 C   0  0  0  0  0  0  0  0  0  0  0  0
   21.5670   37.3530   52.1870 C   0  0  0  0  0  0  0  0  0  0  0  0
   22.7140   38.1660   52.8500 C   0  0  0  0  0  0  0  0  0  0  0  0
   22.5070   38.0140   54.3790 C   0  0  0  0  0  0  0  0  0  0  0  0
   21.4210   36.9570   54.5880 C   0  0  0  0  0  0  0  0  0  0  0  0
   19.6570   30.7340   49.1630 N   0  0  0  0  0  0  0  0  0  0  0  0
   17.5180   31.3470   49.2120 O   0  0  0  0  0  0  0  0  0  0  0  0
   20.5870   34.0550   51.6410 N   0  0  0  0  0  0  0  0  0  0  0  0
   19.5980   34.7460   52.2430 C   0  0  0  0  0  0  0  0  0  0  0  0
   19.8870   35.7800   53.0910 O   0  0  0  0  0  0  0  0  0  0  0  0
   21.2500   36.2430   53.2300 C   0  0  0  0  0  0  0  0  0  0  0  0
   18.3050   34.4400   52.0230 N   0  0  0  0  0  0  0  0  0  0  0  0
   17.9450   33.4380   51.1980 C   0  0  0  0  0  0  0  0  0  0  0  0
   16.5960   33.1640   51.0010 N   0  0  0  0  0  0  0  0  0  0  0  0
   21.1531   32.4936   50.3261 H   0  0  0  0  0  0  0  0  0  0  0  0
   20.6867   37.9887   52.0111 H   0  0  0  0  0  0  0  0  0  0  0  0
   21.8462   36.9464   51.2038 H   0  0  0  0  0  0  0  0  0  0  0  0
   23.6926   37.7605   52.5533 H   0  0  0  0  0  0  0  0  0  0  0  0
   22.6946   39.2215   52.5408 H   0  0  0  0  0  0  0  0  0  0  0  0
   23.4441   37.6902   54.8554 H   0  0  0  0  0  0  0  0  0  0  0  0
   22.2093   38.9726   54.8290 H   0  0  0  0  0  0  0  0  0  0  0  0
   20.4770   37.4343   54.8897 H   0  0  0  0  0  0  0  0  0  0  0  0
   21.6983   36.2481   55.3821 H   0  0  0  0  0  0  0  0  0  0  0  0
   20.2569   30.2435   49.8416 H   0  0  0  0  0  0  0  0  0  0  0  0
   19.8120   30.6073   48.1526 H   0  0  0  0  0  0  0  0  0  0  0  0
   21.8971   35.3611   53.1134 H   0  0  0  0  0  0  0  0  0  0  0  0
   15.9726   33.0374   51.8111 H   0  0  0  0  0  0  0  0  0  0  0  0
   16.2202   33.0877   50.0450 H   0  0  0  0  0  0  0  0  0  0  0  0
  8  1  1  0
  9  1  2  0
  1  2  1  0
  2  3  2  0
  2 15  1  0
  3 10  1  0
 16 15  1  0
 15 14  2  0
 10 11  2  0
 14 11  1  0
  4  5  1  0
  4 13  1  0
 11 12  1  0
  5  6  1  0
 12 13  1  0
 13  7  1  0
  6  7  1  0
  3 17  1  0
  4 18  1  0
  4 19  1  0
  5 20  1  0
  5 21  1  0
  6 22  1  0
  6 23  1  0
  7 24  1  0
  7 25  1  0
  8 26  1  0
  8 27  1  0
 13 28  1  0
 16 29  1  0
 16 30  1  0
A    1
C2
A    2
C4
A    3
C5
A    4
C10
A    5
C11
A    6
C12
A    7
C13
A    8
N1
A    9
O3
A   10
N6
A   11
C7
A   12
O8
A   13
C9
A   14
N14
A   15
C15
A   16
N16
M  END
