4EHG_RI9_A_801
     RDKit          3D

 49 50  0  0  0  0  0  0  0  0999 V2000
   -5.7180   17.8930    6.7030 O   0  0  0  0  0  0  0  0  0  0  0  0
   -6.7190   18.4310    7.1620 C   0  0  0  0  0  0  0  0  0  0  0  0
   -7.8300   17.7620    7.4730 N   0  0  0  0  0  0  0  0  0  0  0  0
   -9.0700   18.2120    7.9930 C   0  0  0  0  0  0  0  0  0  0  0  0
   -9.4050   19.5060    8.1520 N   0  0  0  0  0  0  0  0  0  0  0  0
  -10.6280   19.7580    8.6530 C   0  0  0  0  0  0  0  0  0  0  0  0
  -11.5590   18.8540    9.0110 N   0  0  0  0  0  0  0  0  0  0  0  0
  -11.2520   17.5510    8.8540 C   0  0  0  0  0  0  0  0  0  0  0  0
   -9.9890   17.1950    8.3350 C   0  0  0  0  0  0  0  0  0  0  0  0
  -12.1660   16.6080    9.2010 N   0  0  0  0  0  0  0  0  0  0  0  0
   -6.7970   19.7380    7.4080 N   0  0  0  0  0  0  0  0  0  0  0  0
   -5.8080   20.7320    7.1740 C   0  0  0  0  0  0  0  0  0  0  0  0
   -5.3720   20.9370    5.8500 C   0  0  0  0  0  0  0  0  0  0  0  0
   -4.3840   21.9020    5.5610 C   0  0  0  0  0  0  0  0  0  0  0  0
   -3.8850   22.7170    6.5980 C   0  0  0  0  0  0  0  0  0  0  0  0
   -4.3060   22.5170    7.9280 C   0  0  0  0  0  0  0  0  0  0  0  0
   -5.2690   21.5290    8.2060 C   0  0  0  0  0  0  0  0  0  0  0  0
   -5.6710   21.3550    9.4760 F   0  0  0  0  0  0  0  0  0  0  0  0
   -5.8950   20.1660    4.8670 F   0  0  0  0  0  0  0  0  0  0  0  0
   -4.0400   22.1240    4.2890 N   0  0  0  0  0  0  0  0  0  0  0  0
   -3.1480   23.4450    3.6280 S   0  0  0  0  0  0  0  0  0  0  0  0
   -4.1600   24.9480    3.9550 C   0  0  0  0  0  0  0  0  0  0  0  0
   -1.9000   23.4890    4.3980 O   0  0  0  0  0  0  0  0  0  0  0  0
   -3.1230   23.2620    2.1750 O   0  0  0  0  0  0  0  0  0  0  0  0
   -5.1560   25.2070    2.8210 C   0  0  0  0  0  0  0  0  0  0  0  0
   -6.6180   25.1600    3.3400 C   0  0  0  0  0  0  0  0  0  0  0  0
  -12.5040   15.3060    8.3790 C   0  0  0  0  0  0  0  0  0  0  0  0
  -12.0110   14.1060    9.5950 C   0  0  0  0  0  0  0  0  0  0  0  0
  -13.3560   13.4130    9.7560 O   0  0  0  0  0  0  0  0  0  0  0  0
   -7.7786   16.7467    7.3075 H   0  0  0  0  0  0  0  0  0  0  0  0
  -10.8960   20.8168    8.7842 H   0  0  0  0  0  0  0  0  0  0  0  0
   -9.7228   16.1365    8.1981 H   0  0  0  0  0  0  0  0  0  0  0  0
  -12.6840   16.7568   10.0787 H   0  0  0  0  0  0  0  0  0  0  0  0
   -7.6822   20.0688    7.8179 H   0  0  0  0  0  0  0  0  0  0  0  0
   -3.1626   23.5138    6.3674 H   0  0  0  0  0  0  0  0  0  0  0  0
   -3.8859   23.1273    8.7411 H   0  0  0  0  0  0  0  0  0  0  0  0
   -4.3486   21.4112    3.6125 H   0  0  0  0  0  0  0  0  0  0  0  0
   -4.7151   24.8086    4.8943 H   0  0  0  0  0  0  0  0  0  0  0  0
   -3.4837   25.8126    4.0267 H   0  0  0  0  0  0  0  0  0  0  0  0
   -4.9595   26.1998    2.3900 H   0  0  0  0  0  0  0  0  0  0  0  0
   -5.0301   24.4232    2.0595 H   0  0  0  0  0  0  0  0  0  0  0  0
   -6.6168   25.1600    4.4400 H   0  0  0  0  0  0  0  0  0  0  0  0
   -7.1655   26.0410    2.9739 H   0  0  0  0  0  0  0  0  0  0  0  0
   -7.1078   24.2456    2.9739 H   0  0  0  0  0  0  0  0  0  0  0  0
  -13.5740   15.2347    8.1339 H   0  0  0  0  0  0  0  0  0  0  0  0
  -12.0218   15.2196    7.3941 H   0  0  0  0  0  0  0  0  0  0  0  0
  -11.2328   13.4256    9.2189 H   0  0  0  0  0  0  0  0  0  0  0  0
  -11.5575   14.5049   10.5144 H   0  0  0  0  0  0  0  0  0  0  0  0
  -13.5599   13.3079   10.7191 H   0  0  0  0  0  0  0  0  0  0  0  0
  1  2  2  0
  2 11  1  0
  2  3  1  0
  3  4  1  0
  4  5  2  0
  4  9  1  0
  5  6  1  0
  6  7  2  0
  8  7  1  0
  9  8  2  0
  8 10  1  0
 27 10  1  0
 12 11  1  0
 13 12  2  0
 12 17  1  0
 19 13  1  0
 14 13  1  0
 20 14  1  0
 14 15  2  0
 15 16  1  0
 16 17  2  0
 17 18  1  0
 21 20  1  0
 24 21  2  0
 21 22  1  0
 21 23  2  0
 25 22  1  0
 25 26  1  0
 27 28  1  0
 28 29  1  0
  3 30  1  0
  6 31  1  0
  9 32  1  0
 10 33  1  0
 11 34  1  0
 15 35  1  0
 16 36  1  0
 20 37  1  0
 22 38  1  0
 22 39  1  0
 25 40  1  0
 25 41  1  0
 26 42  1  0
 26 43  1  0
 26 44  1  0
 27 45  1  0
 27 46  1  0
 28 47  1  0
 28 48  1  0
 29 49  1  0
A    1
O1
A    2
C2
A    3
N3
A    4
C4
A    5
N5
A    6
C6
A    7
N7
A    8
C8
A    9
C9
A   10
N10
A   11
N11
A   12
C12
A   13
C13
A   14
C14
A   15
C15
A   16
C16
A   17
C17
A   18
F18
A   19
F19
A   20
N20
A   21
S21
A   22
C22
A   23
O23
A   24
O24
A   25
C25
A   26
C26
A   27
C27
A   28
C28
A   29
O29
M  END
