1ZWP_NIM_A_401
     RDKit          3D

 33 34  0  0  0  0  0  0  0  0999 V2000
    8.1410   27.7780   -6.9650 O   0  0  0  0  0  0  0  0  0  0  0  0
    8.1570   26.5560   -6.8040 N   0  0  0  0  0  0  0  0  0  0  0  0
    8.0500   26.1580   -5.6500 O   0  0  0  0  0  0  0  0  0  0  0  0
    8.2710   25.6740   -7.9090 C   0  0  0  0  0  0  0  0  0  0  0  0
    8.2060   24.2770   -7.8230 C   0  0  0  0  0  0  0  0  0  0  0  0
    8.3150   23.4770   -8.9690 C   0  0  0  0  0  0  0  0  0  0  0  0
    8.5430   24.0800  -10.2140 C   0  0  0  0  0  0  0  0  0  0  0  0
    8.4920   23.4960  -11.4270 N   0  0  0  0  0  0  0  0  0  0  0  0
    7.2690   22.5120  -11.7500 S   0  0  0  0  0  0  0  0  0  0  0  0
    7.3990   21.2210  -11.1070 O   0  0  0  0  0  0  0  0  0  0  0  0
    7.2090   22.3730  -13.1820 O   0  0  0  0  0  0  0  0  0  0  0  0
    5.9130   23.3120  -11.2360 C   0  0  0  0  0  0  0  0  0  0  0  0
    8.4450   26.2430   -9.1680 C   0  0  0  0  0  0  0  0  0  0  0  0
    8.5590   25.4500  -10.3030 C   0  0  0  0  0  0  0  0  0  0  0  0
    8.7130   25.9910  -11.5540 O   0  0  0  0  0  0  0  0  0  0  0  0
    9.2750   27.2030  -11.7810 C   0  0  0  0  0  0  0  0  0  0  0  0
   10.5570   27.4740  -11.3250 C   0  0  0  0  0  0  0  0  0  0  0  0
   11.1050   28.7320  -11.5760 C   0  0  0  0  0  0  0  0  0  0  0  0
   10.3580   29.6920  -12.2730 C   0  0  0  0  0  0  0  0  0  0  0  0
    9.0760   29.3960  -12.7290 C   0  0  0  0  0  0  0  0  0  0  0  0
    8.5430   28.1400  -12.4810 C   0  0  0  0  0  0  0  0  0  0  0  0
    8.0673   23.8007   -6.8412 H   0  0  0  0  0  0  0  0  0  0  0  0
    8.2223   22.3836   -8.8919 H   0  0  0  0  0  0  0  0  0  0  0  0
    9.2221   23.6777  -12.1305 H   0  0  0  0  0  0  0  0  0  0  0  0
    5.8900   23.3256  -10.1363 H   0  0  0  0  0  0  0  0  0  0  0  0
    5.9306   24.3444  -11.6151 H   0  0  0  0  0  0  0  0  0  0  0  0
    5.0178   22.7973  -11.6151 H   0  0  0  0  0  0  0  0  0  0  0  0
    8.4929   27.3376   -9.2654 H   0  0  0  0  0  0  0  0  0  0  0  0
   11.1300   26.7119  -10.7764 H   0  0  0  0  0  0  0  0  0  0  0  0
   12.1209   28.9702  -11.2278 H   0  0  0  0  0  0  0  0  0  0  0  0
   10.7880   30.6869  -12.4611 H   0  0  0  0  0  0  0  0  0  0  0  0
    8.4931   30.1493  -13.2793 H   0  0  0  0  0  0  0  0  0  0  0  0
    7.5347   27.8903  -12.8430 H   0  0  0  0  0  0  0  0  0  0  0  0
  1  2  1  0
  2  3  2  0
  2  4  1  0
  4  5  2  0
  4 13  1  0
  5  6  1  0
  6  7  2  0
  7  8  1  0
  7 14  1  0
  8  9  1  0
  9 10  2  0
  9 11  2  0
  9 12  1  0
 13 14  2  0
 14 15  1  0
 15 16  1  0
 16 17  2  0
 16 21  1  0
 17 18  1  0
 18 19  2  0
 19 20  1  0
 20 21  2  0
  5 22  1  0
  6 23  1  0
  8 24  1  0
 12 25  1  0
 12 26  1  0
 12 27  1  0
 13 28  1  0
 17 29  1  0
 18 30  1  0
 19 31  1  0
 20 32  1  0
 21 33  1  0
M  CHG  2   1  -1   2   1
A    1
O4
A    2
N2
A    3
O3
A    4
C5
A    5
C4
A    6
C3
A    7
C2
A    8
N1
A    9
S1
A   10
O1
A   11
O2
A   12
C1
A   13
C6
A   14
C7
A   15
O5
A   16
C8
A   17
C13
A   18
C12
A   19
C11
A   20
C10
A   21
C9
M  END
