4EJ4_EJ4_A_500
     RDKit          3D

 57 64  0  0  0  0  0  0  0  0999 V2000
   61.2610   38.3910   -9.3050 C   0  0  0  0  0  0  0  0  0  0  0  0
   62.1390   39.2520   -9.8390 C   0  0  0  0  0  0  0  0  0  0  0  0
   63.3220   40.5530  -11.4250 C   0  0  0  0  0  0  0  0  0  0  0  0
   62.2800   40.9440  -12.3090 C   0  0  0  0  0  0  0  0  0  0  0  0
   61.5300   42.0630  -12.1570 C   0  0  0  0  0  0  0  0  0  0  0  0
   60.7050   42.1740  -13.1970 C   0  0  0  0  0  0  0  0  0  0  0  0
   59.7250   43.0450  -13.4530 C   0  0  0  0  0  0  0  0  0  0  0  0
   59.0480   43.0230  -14.6640 C   0  0  0  0  0  0  0  0  0  0  0  0
   59.4240   42.0680  -15.5950 C   0  0  0  0  0  0  0  0  0  0  0  0
   60.4520   41.1850  -15.2770 C   0  0  0  0  0  0  0  0  0  0  0  0
   61.0650   41.2560  -14.0940 C   0  0  0  0  0  0  0  0  0  0  0  0
   61.5070   42.6510  -10.9110 C   0  0  0  0  0  0  0  0  0  0  0  0
   62.8470   42.5110  -10.1480 C   0  0  0  0  0  0  0  0  0  0  0  0
   62.7180   43.1490   -8.7610 C   0  0  0  0  0  0  0  0  0  0  0  0
   64.0090   41.1980   -7.9410 C   0  0  0  0  0  0  0  0  0  0  0  0
   64.1800   40.6650   -9.3140 C   0  0  0  0  0  0  0  0  0  0  0  0
   62.9510   41.1370  -10.1120 C   0  0  0  0  0  0  0  0  0  0  0  0
   61.8990   40.4940   -9.5180 C   0  0  0  0  0  0  0  0  0  0  0  0
   61.2160   40.9910   -8.4720 C   0  0  0  0  0  0  0  0  0  0  0  0
   60.3350   40.1240   -7.8390 C   0  0  0  0  0  0  0  0  0  0  0  0
   60.3800   38.7950   -8.2880 C   0  0  0  0  0  0  0  0  0  0  0  0
   62.0550   40.5390  -13.5630 N   0  0  0  0  0  0  0  0  0  0  0  0
   63.9280   42.6750   -8.0230 N   0  0  0  0  0  0  0  0  0  0  0  0
   61.3200   37.1010   -9.7400 O   0  0  0  0  0  0  0  0  0  0  0  0
   62.9740   39.1800  -10.9530 O   0  0  0  0  0  0  0  0  0  0  0  0
   63.9270   43.1190  -10.8810 O   0  0  0  0  0  0  0  0  0  0  0  0
   61.3550   42.4260   -8.3130 C   0  0  0  0  0  0  0  0  0  0  0  0
   63.7660   42.9500   -6.5740 C   0  0  0  0  0  0  0  0  0  0  0  0
   63.8020   44.4350   -6.0830 C   0  0  0  0  0  0  0  0  0  0  0  0
   62.8010   45.5200   -6.5120 C   0  0  0  0  0  0  0  0  0  0  0  0
   62.6660   44.8530   -5.1490 C   0  0  0  0  0  0  0  0  0  0  0  0
   64.2984   40.7545  -11.8897 H   0  0  0  0  0  0  0  0  0  0  0  0
   59.4506   43.7908  -12.6924 H   0  0  0  0  0  0  0  0  0  0  0  0
   58.2407   43.7390  -14.8776 H   0  0  0  0  0  0  0  0  0  0  0  0
   58.9181   42.0086  -16.5700 H   0  0  0  0  0  0  0  0  0  0  0  0
   60.7615   40.4225  -16.0069 H   0  0  0  0  0  0  0  0  0  0  0  0
   61.2839   43.7212  -11.0331 H   0  0  0  0  0  0  0  0  0  0  0  0
   60.7371   42.1345  -10.3189 H   0  0  0  0  0  0  0  0  0  0  0  0
   62.6760   44.2414   -8.6386 H   0  0  0  0  0  0  0  0  0  0  0  0
   63.0841   40.7986   -7.4993 H   0  0  0  0  0  0  0  0  0  0  0  0
   64.8587   40.8992   -7.3095 H   0  0  0  0  0  0  0  0  0  0  0  0
   64.2231   39.5660   -9.2942 H   0  0  0  0  0  0  0  0  0  0  0  0
   65.1157   41.0213   -9.7695 H   0  0  0  0  0  0  0  0  0  0  0  0
   59.6514   40.4549   -7.0433 H   0  0  0  0  0  0  0  0  0  0  0  0
   59.7092   38.0517   -7.8325 H   0  0  0  0  0  0  0  0  0  0  0  0
   62.5684   39.7875  -14.0452 H   0  0  0  0  0  0  0  0  0  0  0  0
   61.3539   36.3590   -9.0855 H   0  0  0  0  0  0  0  0  0  0  0  0
   64.5886   43.4914  -10.2456 H   0  0  0  0  0  0  0  0  0  0  0  0
   61.2154   42.6433   -7.2438 H   0  0  0  0  0  0  0  0  0  0  0  0
   60.6080   42.8341   -9.0098 H   0  0  0  0  0  0  0  0  0  0  0  0
   62.7943   42.5324   -6.2718 H   0  0  0  0  0  0  0  0  0  0  0  0
   64.6558   42.4949   -6.1144 H   0  0  0  0  0  0  0  0  0  0  0  0
   64.9017   44.4117   -6.0970 H   0  0  0  0  0  0  0  0  0  0  0  0
   63.1233   46.5694   -6.5815 H   0  0  0  0  0  0  0  0  0  0  0  0
   62.1358   45.6674   -7.3756 H   0  0  0  0  0  0  0  0  0  0  0  0
   62.8888   45.4228   -4.2348 H   0  0  0  0  0  0  0  0  0  0  0  0
   61.8596   44.3209   -4.6231 H   0  0  0  0  0  0  0  0  0  0  0  0
  9 10  1  0
  9  8  2  0
 10 11  2  0
  8  7  1  0
 11 22  1  0
 11  6  1  0
 22  4  1  0
  7  6  2  0
  6  5  1  0
  4  5  2  0
  4  3  1  0
  5 12  1  0
  3 25  1  0
  3 17  1  0
 25  2  1  0
 12 13  1  0
 26 13  1  0
 13 17  1  0
 13 14  1  0
 17 18  1  0
 17 16  1  0
  2 18  1  0
  2  1  2  0
 24  1  1  0
 18 19  2  0
 16 15  1  0
  1 21  1  0
 14 27  1  0
 14 23  1  0
 19 27  1  0
 19 20  1  0
 21 20  2  0
 23 15  1  0
 23 28  1  0
 28 29  1  0
 30 29  1  0
 30 31  1  0
 29 31  1  0
  3 32  1  0
  7 33  1  0
  8 34  1  0
  9 35  1  0
 10 36  1  0
 12 37  1  0
 12 38  1  0
 14 39  1  0
 15 40  1  0
 15 41  1  0
 16 42  1  0
 16 43  1  0
 20 44  1  0
 21 45  1  0
 22 46  1  0
 24 47  1  0
 26 48  1  0
 27 49  1  0
 27 50  1  0
 28 51  1  0
 28 52  1  0
 29 53  1  0
 30 54  1  0
 30 55  1  0
 31 56  1  0
 31 57  1  0
A    1
CAB
A    2
CAC
A    3
CAE
A    4
CAF
A    5
CAG
A    6
CAH
A    7
CAI
A    8
CAJ
A    9
CAK
A   10
CAL
A   11
CAM
A   12
CAO
A   13
CAP
A   14
CAR
A   15
CAT
A   16
CAU
A   17
CAV
A   18
CAW
A   19
CAX
A   20
CAY
A   21
CAZ
A   22
NAN
A   23
NAS
A   24
OAA
A   25
OAD
A   26
OAQ
A   27
CBA
A   28
CBB
A   29
CBC
A   30
CBD
A   31
CBE
M  END
