1OL8_NCT_A_1207
     RDKit          3D

 26 27  0  0  0  0  0  0  0  0999 V2000
   31.1790   23.8160   26.6670 N   0  0  0  0  0  0  0  0  0  0  0  0
   31.9470   22.8180   27.3110 C   0  0  0  0  0  0  0  0  0  0  0  0
   32.6240   21.8560   26.5370 C   0  0  0  0  0  0  0  0  0  0  0  0
   32.5390   21.9030   25.1300 C   0  0  0  0  0  0  0  0  0  0  0  0
   31.7710   22.8970   24.4920 C   0  0  0  0  0  0  0  0  0  0  0  0
   31.0870   23.8570   25.2630 C   0  0  0  0  0  0  0  0  0  0  0  0
   34.4490   21.3560   28.2120 N   0  0  0  0  0  0  0  0  0  0  0  0
   33.4580   20.7650   27.2350 C   0  0  0  0  0  0  0  0  0  0  0  0
   32.5710   19.7980   28.0550 C   0  0  0  0  0  0  0  0  0  0  0  0
   33.4920   19.3220   29.1730 C   0  0  0  0  0  0  0  0  0  0  0  0
   34.3540   20.5630   29.4840 C   0  0  0  0  0  0  0  0  0  0  0  0
   35.8280   21.1970   27.6460 C   0  0  0  0  0  0  0  0  0  0  0  0
   32.0149   22.7935   28.4086 H   0  0  0  0  0  0  0  0  0  0  0  0
   33.0767   21.1575   24.5258 H   0  0  0  0  0  0  0  0  0  0  0  0
   31.7057   22.9233   23.3943 H   0  0  0  0  0  0  0  0  0  0  0  0
   30.4843   24.6344   24.7707 H   0  0  0  0  0  0  0  0  0  0  0  0
   33.9739   20.2322   26.4226 H   0  0  0  0  0  0  0  0  0  0  0  0
   31.6949   20.3218   28.4649 H   0  0  0  0  0  0  0  0  0  0  0  0
   32.1715   18.9703   27.4507 H   0  0  0  0  0  0  0  0  0  0  0  0
   32.9122   19.0150   30.0559 H   0  0  0  0  0  0  0  0  0  0  0  0
   34.0917   18.4446   28.8891 H   0  0  0  0  0  0  0  0  0  0  0  0
   35.3571   20.2543   29.8135 H   0  0  0  0  0  0  0  0  0  0  0  0
   33.9059   21.1626   30.2901 H   0  0  0  0  0  0  0  0  0  0  0  0
   36.5543   21.1133   28.4679 H   0  0  0  0  0  0  0  0  0  0  0  0
   35.8679   20.2883   27.0274 H   0  0  0  0  0  0  0  0  0  0  0  0
   36.0737   22.0728   27.0274 H   0  0  0  0  0  0  0  0  0  0  0  0
  1  2  2  0
  1  6  1  0
  2  3  1  0
  3  4  2  0
  3  8  1  0
  4  5  1  0
  5  6  2  0
  7  8  1  0
  7 11  1  0
  7 12  1  0
  8  9  1  0
  9 10  1  0
 10 11  1  0
  2 13  1  0
  4 14  1  0
  5 15  1  0
  6 16  1  0
  8 17  1  0
  9 18  1  0
  9 19  1  0
 10 20  1  0
 10 21  1  0
 11 22  1  0
 11 23  1  0
 12 24  1  0
 12 25  1  0
 12 26  1  0
A    1
N1
A    2
C1
A    3
C2
A    4
C3
A    5
C4
A    6
C5
A    7
N2
A    8
C6
A    9
C7
A   10
C8
A   11
C9
A   12
C10
M  END
