4EJN_0R4_A_501
     RDKit          3D

 69 74  0  0  0  0  0  0  0  0999 V2000
   37.4060   46.1000   24.7550 O   0  0  0  0  0  0  0  0  0  0  0  0
   37.6080   45.1470   25.5140 C   0  0  0  0  0  0  0  0  0  0  0  0
   37.9110   45.3590   26.9720 C   0  0  0  0  0  0  0  0  0  0  0  0
   37.5780   43.8520   25.1510 N   0  0  0  0  0  0  0  0  0  0  0  0
   37.3860   43.3700   23.8850 C   0  0  0  0  0  0  0  0  0  0  0  0
   36.7520   42.1290   23.7160 C   0  0  0  0  0  0  0  0  0  0  0  0
   36.5440   41.6320   22.4240 C   0  0  0  0  0  0  0  0  0  0  0  0
   36.9660   42.3530   21.3040 C   0  0  0  0  0  0  0  0  0  0  0  0
   37.8090   44.0840   22.7580 C   0  0  0  0  0  0  0  0  0  0  0  0
   37.6110   43.5850   21.4670 C   0  0  0  0  0  0  0  0  0  0  0  0
   38.0690   44.3530   20.2650 C   0  0  0  0  0  0  0  0  0  0  0  0
   39.2830   45.0680   20.2480 C   0  0  0  0  0  0  0  0  0  0  0  0
   39.6940   45.7840   19.1070 C   0  0  0  0  0  0  0  0  0  0  0  0
   37.2830   44.3380   19.1740 N   0  0  0  0  0  0  0  0  0  0  0  0
   37.6280   45.0110   18.0490 C   0  0  0  0  0  0  0  0  0  0  0  0
   38.8780   45.7790   17.9700 C   0  0  0  0  0  0  0  0  0  0  0  0
   38.9270   46.3140   16.7150 N   0  0  0  0  0  0  0  0  0  0  0  0
   37.8160   45.9400   16.0130 C   0  0  0  0  0  0  0  0  0  0  0  0
   37.4720   46.3210   14.6110 C   0  0  0  0  0  0  0  0  0  0  0  0
   37.7940   47.6850   14.0980 C   0  0  0  0  0  0  0  0  0  0  0  0
   38.4030   48.6180   14.8950 N   0  0  0  0  0  0  0  0  0  0  0  0
   37.4590   47.9820   12.8310 N   0  0  0  0  0  0  0  0  0  0  0  0
   36.8450   47.0960   12.0140 C   0  0  0  0  0  0  0  0  0  0  0  0
   36.5250   45.8020   12.4540 C   0  0  0  0  0  0  0  0  0  0  0  0
   36.8440   45.4090   13.7480 C   0  0  0  0  0  0  0  0  0  0  0  0
   37.1010   45.1460   16.8410 N   0  0  0  0  0  0  0  0  0  0  0  0
   35.8780   44.6160   16.6130 C   0  0  0  0  0  0  0  0  0  0  0  0
   34.8280   45.4280   16.1360 C   0  0  0  0  0  0  0  0  0  0  0  0
   33.5310   44.9580   15.9290 C   0  0  0  0  0  0  0  0  0  0  0  0
   35.5150   43.2870   16.9200 C   0  0  0  0  0  0  0  0  0  0  0  0
   34.2250   42.8060   16.7360 C   0  0  0  0  0  0  0  0  0  0  0  0
   33.2210   43.6480   16.2480 C   0  0  0  0  0  0  0  0  0  0  0  0
   31.8080   43.1450   16.0250 C   0  0  0  0  0  0  0  0  0  0  0  0
   31.4140   42.2840   17.1250 N   0  0  0  0  0  0  0  0  0  0  0  0
   30.4250   41.4270   16.9210 C   0  0  0  0  0  0  0  0  0  0  0  0
   29.6700   41.5770   15.9770 O   0  0  0  0  0  0  0  0  0  0  0  0
   30.2050   40.2530   17.8160 C   0  0  0  0  0  0  0  0  0  0  0  0
   31.2700   39.5110   18.3300 C   0  0  0  0  0  0  0  0  0  0  0  0
   28.8870   39.8870   18.1060 C   0  0  0  0  0  0  0  0  0  0  0  0
   28.6250   38.7960   18.9300 C   0  0  0  0  0  0  0  0  0  0  0  0
   29.6780   38.0520   19.4450 C   0  0  0  0  0  0  0  0  0  0  0  0
   30.9880   38.4080   19.1500 C   0  0  0  0  0  0  0  0  0  0  0  0
   31.9860   37.6690   19.6790 F   0  0  0  0  0  0  0  0  0  0  0  0
   37.1612   44.8344   27.5824 H   0  0  0  0  0  0  0  0  0  0  0  0
   38.9116   44.9629   27.1999 H   0  0  0  0  0  0  0  0  0  0  0  0
   37.8818   46.4347   27.1999 H   0  0  0  0  0  0  0  0  0  0  0  0
   37.7126   43.1561   25.8983 H   0  0  0  0  0  0  0  0  0  0  0  0
   36.4213   41.5516   24.5919 H   0  0  0  0  0  0  0  0  0  0  0  0
   36.0424   40.6624   22.2889 H   0  0  0  0  0  0  0  0  0  0  0  0
   36.7915   41.9528   20.2944 H   0  0  0  0  0  0  0  0  0  0  0  0
   38.3066   45.0560   22.8904 H   0  0  0  0  0  0  0  0  0  0  0  0
   39.9221   45.0669   21.1433 H   0  0  0  0  0  0  0  0  0  0  0  0
   40.6434   46.3396   19.1094 H   0  0  0  0  0  0  0  0  0  0  0  0
   38.3483   48.5342   15.9201 H   0  0  0  0  0  0  0  0  0  0  0  0
   38.9156   49.4033   14.4691 H   0  0  0  0  0  0  0  0  0  0  0  0
   36.5918   47.3949   10.9861 H   0  0  0  0  0  0  0  0  0  0  0  0
   36.0215   45.0989   11.7742 H   0  0  0  0  0  0  0  0  0  0  0  0
   36.6065   44.3920   14.0933 H   0  0  0  0  0  0  0  0  0  0  0  0
   35.0425   46.4843   15.9163 H   0  0  0  0  0  0  0  0  0  0  0  0
   32.7600   45.6244   15.5150 H   0  0  0  0  0  0  0  0  0  0  0  0
   36.2819   42.6072   17.3197 H   0  0  0  0  0  0  0  0  0  0  0  0
   33.9922   41.7579   16.9753 H   0  0  0  0  0  0  0  0  0  0  0  0
   31.1202   44.0015   15.9671 H   0  0  0  0  0  0  0  0  0  0  0  0
   31.7693   42.5747   15.0852 H   0  0  0  0  0  0  0  0  0  0  0  0
   31.8894   42.3379   18.0371 H   0  0  0  0  0  0  0  0  0  0  0  0
   32.3093   39.7856   18.0968 H   0  0  0  0  0  0  0  0  0  0  0  0
   28.0527   40.4642   17.6808 H   0  0  0  0  0  0  0  0  0  0  0  0
   27.5870   38.5242   19.1723 H   0  0  0  0  0  0  0  0  0  0  0  0
   29.4752   37.1814   20.0861 H   0  0  0  0  0  0  0  0  0  0  0  0
 23 24  2  0
 23 22  1  0
 24 25  1  0
 22 20  2  0
 25 19  2  0
 20 19  1  0
 20 21  1  0
 19 18  1  0
 29 28  2  0
 29 32  1  0
 36 35  2  0
 18 17  2  0
 18 26  1  0
 33 32  1  0
 33 34  1  0
 28 27  1  0
 32 31  2  0
 27 26  1  0
 27 30  2  0
 17 16  1  0
 31 30  1  0
 26 15  1  0
 35 34  1  0
 35 37  1  0
 37 39  1  0
 37 38  2  0
 16 15  2  0
 16 13  1  0
 15 14  1  0
 39 40  2  0
 38 42  1  0
 40 41  1  0
 13 12  2  0
 42 41  2  0
 42 43  1  0
 14 11  2  0
 12 11  1  0
 11 10  1  0
  8 10  2  0
  8  7  1  0
 10  9  1  0
  7  6  2  0
  9  5  2  0
  6  5  1  0
  5  4  1  0
  1  2  2  0
  4  2  1  0
  2  3  1  0
  3 44  1  0
  3 45  1  0
  3 46  1  0
  4 47  1  0
  6 48  1  0
  7 49  1  0
  8 50  1  0
  9 51  1  0
 12 52  1  0
 13 53  1  0
 21 54  1  0
 21 55  1  0
 23 56  1  0
 24 57  1  0
 25 58  1  0
 28 59  1  0
 29 60  1  0
 30 61  1  0
 31 62  1  0
 33 63  1  0
 33 64  1  0
 34 65  1  0
 38 66  1  0
 39 67  1  0
 40 68  1  0
 41 69  1  0
A    1
O1
A    2
C21
A    3
C22
A    4
N5
A    5
C17
A    6
C18
A    7
C19
A    8
C20
A    9
C16
A   10
C15
A   11
C3
A   12
C2
A   13
C1
A   14
N1
A   15
C5
A   16
C4
A   17
N2
A   18
C6
A   19
C23
A   20
C24
A   21
N7
A   22
N6
A   23
C25
A   24
C26
A   25
C27
A   26
N3
A   27
C7
A   28
C8
A   29
C9
A   30
C12
A   31
C11
A   32
C10
A   33
C13
A   34
N4
A   35
C14
A   36
O2
A   37
C28
A   38
C33
A   39
C29
A   40
C30
A   41
C31
A   42
C32
A   43
F1
M  END
