4EK9_EP4_A_501
     RDKit          3D

 39 41  0  0  0  0  0  0  0  0999 V2000
   45.8240   53.2690    9.2590 C   0  0  0  0  0  0  0  0  0  0  0  0
   44.6520   52.6310    9.8840 N   0  0  0  0  0  0  0  0  0  0  0  0
   43.5190   52.8210    8.9750 C   0  0  0  0  0  0  0  0  0  0  0  0
   44.9520   51.2040   10.1340 C   0  0  0  0  0  0  0  0  0  0  0  0
   43.9850   50.5480   11.1450 C   0  0  0  0  0  0  0  0  0  0  0  0
   44.4600   49.1890   11.2980 O   0  0  0  0  0  0  0  0  0  0  0  0
   44.0440   48.7730   12.6180 C   0  0  0  0  0  0  0  0  0  0  0  0
   44.7650   47.5500   13.0770 N   0  0  0  0  0  0  0  0  0  0  0  0
   44.2130   46.3200   13.0790 C   0  0  0  0  0  0  0  0  0  0  0  0
   42.9870   45.8890   12.7050 N   0  0  0  0  0  0  0  0  0  0  0  0
   42.6700   44.5130   12.8120 C   0  0  0  0  0  0  0  0  0  0  0  0
   43.6350   43.6230   13.3160 N   0  0  0  0  0  0  0  0  0  0  0  0
   44.8420   44.1290   13.6740 C   0  0  0  0  0  0  0  0  0  0  0  0
   45.8060   43.3100   14.1320 N   0  0  0  0  0  0  0  0  0  0  0  0
   45.1430   45.4530   13.5550 C   0  0  0  0  0  0  0  0  0  0  0  0
   46.2660   46.1750   13.8310 N   0  0  0  0  0  0  0  0  0  0  0  0
   46.0300   47.4620   13.5340 C   0  0  0  0  0  0  0  0  0  0  0  0
   44.4390   49.9320   13.4580 C   0  0  0  0  0  0  0  0  0  0  0  0
   43.6080   49.8450   14.6440 O   0  0  0  0  0  0  0  0  0  0  0  0
   44.1030   51.1420   12.5600 C   0  0  0  0  0  0  0  0  0  0  0  0
   42.8040   51.6030   12.9290 O   0  0  0  0  0  0  0  0  0  0  0  0
   46.5020   53.6381   10.0427 H   0  0  0  0  0  0  0  0  0  0  0  0
   46.3519   52.5338    8.6339 H   0  0  0  0  0  0  0  0  0  0  0  0
   45.4930   54.1114    8.6339 H   0  0  0  0  0  0  0  0  0  0  0  0
   42.6008   52.9750    9.5608 H   0  0  0  0  0  0  0  0  0  0  0  0
   43.7013   53.7011    8.3408 H   0  0  0  0  0  0  0  0  0  0  0  0
   43.4042   51.9296    8.3408 H   0  0  0  0  0  0  0  0  0  0  0  0
   44.8833   50.6598    9.1805 H   0  0  0  0  0  0  0  0  0  0  0  0
   45.9621   51.1527   10.5665 H   0  0  0  0  0  0  0  0  0  0  0  0
   42.9570   50.6759   10.7752 H   0  0  0  0  0  0  0  0  0  0  0  0
   42.9751   48.5167   12.6593 H   0  0  0  0  0  0  0  0  0  0  0  0
   41.6802   44.1446   12.5044 H   0  0  0  0  0  0  0  0  0  0  0  0
   45.9436   43.1931   15.1461 H   0  0  0  0  0  0  0  0  0  0  0  0
   46.4065   42.7999   13.4686 H   0  0  0  0  0  0  0  0  0  0  0  0
   46.7404   48.2947   13.6436 H   0  0  0  0  0  0  0  0  0  0  0  0
   45.4876   49.9883   13.7854 H   0  0  0  0  0  0  0  0  0  0  0  0
   44.1779   49.9047   15.4513 H   0  0  0  0  0  0  0  0  0  0  0  0
   44.8410   51.9541   12.6358 H   0  0  0  0  0  0  0  0  0  0  0  0
   42.7311   51.6289   13.9160 H   0  0  0  0  0  0  0  0  0  0  0  0
  3  2  1  0
  1  2  1  0
  2  4  1  0
  4  5  1  0
  5  6  1  0
  5 20  1  0
  6  7  1  0
 20 21  1  0
 20 18  1  0
  7  8  1  0
  7 18  1  0
 10 11  2  0
 10  9  1  0
 11 12  1  0
  8  9  1  0
  8 17  1  0
  9 15  2  0
 12 13  2  0
 18 19  1  0
 17 16  2  0
 15 13  1  0
 15 16  1  0
 13 14  1  0
  1 22  1  0
  1 23  1  0
  1 24  1  0
  3 25  1  0
  3 26  1  0
  3 27  1  0
  4 28  1  0
  4 29  1  0
  5 30  1  0
  7 31  1  0
 11 32  1  0
 14 33  1  0
 14 34  1  0
 17 35  1  0
 18 36  1  0
 19 37  1  0
 20 38  1  0
 21 39  1  0
A    1
CG
A    2
N2
A    3
CE
A    4
C5'
A    5
C4'
A    6
O4'
A    7
C1'
A    8
N9
A    9
C4
A   10
N3
A   11
C2
A   12
N1
A   13
C6
A   14
N6
A   15
C5
A   16
N7
A   17
C8
A   18
C2'
A   19
O2'
A   20
C3'
A   21
O3'
M  END
