4EKL_0RF_A_501
     RDKit          3D

 64 67  0  0  0  0  0  0  0  0999 V2000
   26.1470    7.5890    8.0150 N   0  0  0  0  0  0  0  0  0  0  0  0
   25.1600    7.9790    7.1710 C   0  0  0  0  0  0  0  0  0  0  0  0
   24.0210    7.2970    6.9590 N   0  0  0  0  0  0  0  0  0  0  0  0
   23.9010    6.0920    7.5630 C   0  0  0  0  0  0  0  0  0  0  0  0
   24.8660    5.6290    8.4410 C   0  0  0  0  0  0  0  0  0  0  0  0
   26.0400    6.4140    8.6620 C   0  0  0  0  0  0  0  0  0  0  0  0
   22.7300    5.1360    7.4100 C   0  0  0  0  0  0  0  0  0  0  0  0
   22.9610    4.1540    8.5900 C   0  0  0  0  0  0  0  0  0  0  0  0
   24.4760    4.2580    9.0140 C   0  0  0  0  0  0  0  0  0  0  0  0
   27.1420    6.1680    9.4410 N   0  0  0  0  0  0  0  0  0  0  0  0
   25.3100    3.1230    8.3060 C   0  0  0  0  0  0  0  0  0  0  0  0
   21.4930    5.8140    7.4390 O   0  0  0  0  0  0  0  0  0  0  0  0
   28.2950    7.0940    9.3590 C   0  0  0  0  0  0  0  0  0  0  0  0
   28.6420    7.6690   10.7190 C   0  0  0  0  0  0  0  0  0  0  0  0
   28.7460    6.5550   11.7180 N   0  0  0  0  0  0  0  0  0  0  0  0
   27.4960    5.7990   11.8070 C   0  0  0  0  0  0  0  0  0  0  0  0
   27.2910    5.0920   10.4760 C   0  0  0  0  0  0  0  0  0  0  0  0
   29.8900    6.2380   12.3930 C   0  0  0  0  0  0  0  0  0  0  0  0
   29.9500    4.9860   13.2930 C   0  0  0  0  0  0  0  0  0  0  0  0
   30.9420    6.8670   12.2480 O   0  0  0  0  0  0  0  0  0  0  0  0
   30.1590    3.7470   12.4600 C   0  0  0  0  0  0  0  0  0  0  0  0
   31.0950    5.0640   14.3390 C   0  0  0  0  0  0  0  0  0  0  0  0
   30.8550    6.2210   15.2380 N   0  0  0  0  0  0  0  0  0  0  0  0
   29.3690    2.6180   12.7260 C   0  0  0  0  0  0  0  0  0  0  0  0
   29.5950    1.4610   11.9500 C   0  0  0  0  0  0  0  0  0  0  0  0
   30.6020    1.4750   10.9550 C   0  0  0  0  0  0  0  0  0  0  0  0
   31.3930    2.6080   10.7030 C   0  0  0  0  0  0  0  0  0  0  0  0
   31.1720    3.7590   11.4620 C   0  0  0  0  0  0  0  0  0  0  0  0
   30.9000    0.0750   10.0030 Cl  0  0  0  0  0  0  0  0  0  0  0  0
   32.0110    6.7560   15.9950 C   0  0  0  0  0  0  0  0  0  0  0  0
   31.4680    7.7290   17.0900 C   0  0  0  0  0  0  0  0  0  0  0  0
   32.9040    5.6170   16.5740 C   0  0  0  0  0  0  0  0  0  0  0  0
   25.3014    8.9207    6.6204 H   0  0  0  0  0  0  0  0  0  0  0  0
   22.6831    4.6127    6.4436 H   0  0  0  0  0  0  0  0  0  0  0  0
   22.3156    4.4288    9.4373 H   0  0  0  0  0  0  0  0  0  0  0  0
   22.7165    3.1252    8.2872 H   0  0  0  0  0  0  0  0  0  0  0  0
   24.6523    4.1525   10.0946 H   0  0  0  0  0  0  0  0  0  0  0  0
   25.7798    2.4837    9.0679 H   0  0  0  0  0  0  0  0  0  0  0  0
   24.6423    2.5149    7.6780 H   0  0  0  0  0  0  0  0  0  0  0  0
   26.0898    3.5785    7.6780 H   0  0  0  0  0  0  0  0  0  0  0  0
   21.2205    5.9634    8.3790 H   0  0  0  0  0  0  0  0  0  0  0  0
   29.1661    6.5470    8.9690 H   0  0  0  0  0  0  0  0  0  0  0  0
   28.0243    7.9250    8.6911 H   0  0  0  0  0  0  0  0  0  0  0  0
   29.6039    8.1993   10.6589 H   0  0  0  0  0  0  0  0  0  0  0  0
   27.8562    8.3721   11.0325 H   0  0  0  0  0  0  0  0  0  0  0  0
   26.6569    6.4831   12.0016 H   0  0  0  0  0  0  0  0  0  0  0  0
   27.5432    5.0695   12.6289 H   0  0  0  0  0  0  0  0  0  0  0  0
   26.3841    4.4705   10.5115 H   0  0  0  0  0  0  0  0  0  0  0  0
   28.1378    4.4298   10.2426 H   0  0  0  0  0  0  0  0  0  0  0  0
   28.9879    4.9403   13.8242 H   0  0  0  0  0  0  0  0  0  0  0  0
   31.1173    4.1367   14.9303 H   0  0  0  0  0  0  0  0  0  0  0  0
   32.0590    5.1890   13.8241 H   0  0  0  0  0  0  0  0  0  0  0  0
   30.4842    6.9884   14.6596 H   0  0  0  0  0  0  0  0  0  0  0  0
   28.6000    2.6343   13.5124 H   0  0  0  0  0  0  0  0  0  0  0  0
   28.9934    0.5554   12.1170 H   0  0  0  0  0  0  0  0  0  0  0  0
   32.1699    2.5890    9.9245 H   0  0  0  0  0  0  0  0  0  0  0  0
   31.7738    4.6636   11.2901 H   0  0  0  0  0  0  0  0  0  0  0  0
   32.6758    7.3178   15.3223 H   0  0  0  0  0  0  0  0  0  0  0  0
   31.6948    7.3226   18.0867 H   0  0  0  0  0  0  0  0  0  0  0  0
   31.9477    8.7124   16.9772 H   0  0  0  0  0  0  0  0  0  0  0  0
   30.3792    7.8371   16.9772 H   0  0  0  0  0  0  0  0  0  0  0  0
   32.8764    5.6522   17.6731 H   0  0  0  0  0  0  0  0  0  0  0  0
   32.5261    4.6434   16.2287 H   0  0  0  0  0  0  0  0  0  0  0  0
   33.9397    5.7517   16.2287 H   0  0  0  0  0  0  0  0  0  0  0  0
  3  2  1  0
  3  4  2  0
  2  1  2  0
  7 12  1  0
  7  4  1  0
  7  8  1  0
  4  5  1  0
  1  6  1  0
 11  9  1  0
  5  6  2  0
  5  9  1  0
  8  9  1  0
  6 10  1  0
 13 10  1  0
 13 14  1  0
 10 17  1  0
 29 26  1  0
 17 16  1  0
 27 26  2  0
 27 28  1  0
 14 15  1  0
 26 25  1  0
 28 21  2  0
 15 16  1  0
 15 18  1  0
 25 24  2  0
 20 18  2  0
 18 19  1  0
 21 24  1  0
 21 19  1  0
 19 22  1  0
 22 23  1  0
 23 30  1  0
 30 32  1  0
 30 31  1  0
  2 33  1  0
  7 34  1  0
  8 35  1  0
  8 36  1  0
  9 37  1  0
 11 38  1  0
 11 39  1  0
 11 40  1  0
 12 41  1  0
 13 42  1  0
 13 43  1  0
 14 44  1  0
 14 45  1  0
 16 46  1  0
 16 47  1  0
 17 48  1  0
 17 49  1  0
 19 50  1  0
 22 51  1  0
 22 52  1  0
 23 53  1  0
 24 54  1  0
 25 55  1  0
 27 56  1  0
 28 57  1  0
 30 58  1  0
 31 59  1  0
 31 60  1  0
 31 61  1  0
 32 62  1  0
 32 63  1  0
 32 64  1  0
A    1
N1
A    2
C2
A    3
N3
A    4
C4
A    5
C5
A    6
C6
A    7
C7
A    8
C8
A    9
C9
A   10
N10
A   11
C11
A   12
O12
A   13
C13
A   14
C14
A   15
N15
A   16
C16
A   17
C17
A   18
C18
A   19
C19
A   20
O20
A   21
C21
A   22
C22
A   23
N23
A   24
C24
A   25
C25
A   26
C26
A   27
C27
A   28
C28
A   29
CL1
A   30
C29
A   31
C30
A   32
C31
M  END
