4ELT_0R5_A_901
     RDKit          3D

 57 59  0  0  0  0  0  0  0  0999 V2000
   18.2830  -14.2900  -14.1620 O   0  0  0  0  0  0  0  0  0  0  0  0
   17.0880  -13.6370  -13.5070 P   0  0  0  0  0  0  0  0  0  0  0  0
   17.5580  -12.3450  -12.8500 O   0  0  0  0  0  0  0  0  0  0  0  0
   16.0230  -13.3280  -14.5470 O   0  0  0  0  0  0  0  0  0  0  0  0
   16.3550  -14.6000  -12.4420 O   0  0  0  0  0  0  0  0  0  0  0  0
   16.8920  -16.0510  -12.0170 P   0  0  0  0  0  0  0  0  0  0  0  0
   15.7630  -16.7180  -11.2690 O   0  0  0  0  0  0  0  0  0  0  0  0
   17.2460  -16.9240  -13.2050 O   0  0  0  0  0  0  0  0  0  0  0  0
   18.1170  -15.8370  -11.0590 O   0  0  0  0  0  0  0  0  0  0  0  0
   19.6350  -16.2240  -11.3180 P   0  0  0  0  0  0  0  0  0  0  0  0
   20.1120  -16.1330  -12.7570 O   0  0  0  0  0  0  0  0  0  0  0  0
   20.4680  -15.2120  -10.5430 O   0  0  0  0  0  0  0  0  0  0  0  0
   19.8930  -17.6400  -10.7440 O   0  0  0  0  0  0  0  0  0  0  0  0
   19.5860  -18.7900  -11.4030 C   0  0  0  0  0  0  0  0  0  0  0  0
   18.8930  -19.8220  -10.6350 C   0  0  0  0  0  0  0  0  0  0  0  0
   17.6670  -19.2510  -10.0450 C   0  0  0  0  0  0  0  0  0  0  0  0
   16.6080  -19.2050  -10.9420 O   0  0  0  0  0  0  0  0  0  0  0  0
   17.3910  -20.1800   -8.9670 C   0  0  0  0  0  0  0  0  0  0  0  0
   19.6450  -20.2600   -9.5150 O   0  0  0  0  0  0  0  0  0  0  0  0
   18.7320  -20.4670   -8.4360 C   0  0  0  0  0  0  0  0  0  0  0  0
   18.9750  -19.5800   -7.2660 N   0  0  0  0  0  0  0  0  0  0  0  0
   18.7320  -19.9880   -5.9900 C   0  0  0  0  0  0  0  0  0  0  0  0
   18.3140  -21.1220   -5.7180 O   0  0  0  0  0  0  0  0  0  0  0  0
   18.9540  -19.1700   -4.9540 N   0  0  0  0  0  0  0  0  0  0  0  0
   19.4120  -17.9180   -5.1590 C   0  0  0  0  0  0  0  0  0  0  0  0
   19.6540  -17.0330   -4.0860 O   0  0  0  0  0  0  0  0  0  0  0  0
   19.4240  -18.3300   -7.5150 C   0  0  0  0  0  0  0  0  0  0  0  0
   19.6580  -17.4720   -6.4540 C   0  0  0  0  0  0  0  0  0  0  0  0
   20.1500  -16.0860   -6.6800 C   0  0  0  0  0  0  0  0  0  0  0  0
   20.5540  -14.9520   -6.8670 C   0  0  0  0  0  0  0  0  0  0  0  0
   21.0070  -13.5640   -7.0830 C   0  0  0  0  0  0  0  0  0  0  0  0
   21.8080  -13.3170   -8.1990 C   0  0  0  0  0  0  0  0  0  0  0  0
   22.2760  -12.0400   -8.4540 C   0  0  0  0  0  0  0  0  0  0  0  0
   21.9300  -11.0130   -7.5680 C   0  0  0  0  0  0  0  0  0  0  0  0
   22.4240   -9.6300   -7.8160 C   0  0  0  0  0  0  0  0  0  0  0  0
   22.8190   -8.5090   -8.0100 C   0  0  0  0  0  0  0  0  0  0  0  0
   21.1330  -11.2510   -6.4450 C   0  0  0  0  0  0  0  0  0  0  0  0
   20.6540  -12.5380   -6.1880 C   0  0  0  0  0  0  0  0  0  0  0  0
   18.8990  -14.6266  -13.4639 H   0  0  0  0  0  0  0  0  0  0  0  0
   17.5222  -12.4434  -11.8656 H   0  0  0  0  0  0  0  0  0  0  0  0
   15.9144  -16.6286  -10.2947 H   0  0  0  0  0  0  0  0  0  0  0  0
   20.3466  -15.3595   -9.5716 H   0  0  0  0  0  0  0  0  0  0  0  0
   18.9459  -18.5239  -12.2571 H   0  0  0  0  0  0  0  0  0  0  0  0
   20.5547  -19.2342  -11.6754 H   0  0  0  0  0  0  0  0  0  0  0  0
   18.7098  -20.6499  -11.3357 H   0  0  0  0  0  0  0  0  0  0  0  0
   17.7954  -18.2057   -9.7275 H   0  0  0  0  0  0  0  0  0  0  0  0
   15.7540  -19.1679  -10.4427 H   0  0  0  0  0  0  0  0  0  0  0  0
   16.7511  -19.7190   -8.2002 H   0  0  0  0  0  0  0  0  0  0  0  0
   16.8494  -21.0798   -9.2942 H   0  0  0  0  0  0  0  0  0  0  0  0
   18.8526  -21.4981   -8.0723 H   0  0  0  0  0  0  0  0  0  0  0  0
   18.7740  -19.4986   -3.9946 H   0  0  0  0  0  0  0  0  0  0  0  0
   19.6015  -17.9981   -8.5486 H   0  0  0  0  0  0  0  0  0  0  0  0
   22.0685  -14.1414   -8.8791 H   0  0  0  0  0  0  0  0  0  0  0  0
   22.9055  -11.8366   -9.3328 H   0  0  0  0  0  0  0  0  0  0  0  0
   23.1798   -7.4851   -8.1872 H   0  0  0  0  0  0  0  0  0  0  0  0
   20.8827  -10.4248   -5.7632 H   0  0  0  0  0  0  0  0  0  0  0  0
   20.0202  -12.7426   -5.3125 H   0  0  0  0  0  0  0  0  0  0  0  0
  4  2  2  0
  1  2  1  0
  2  3  1  0
  2  5  1  0
  8  6  2  0
 11 10  2  0
  5  6  1  0
  6  7  1  0
  6  9  1  0
 14 13  1  0
 14 15  1  0
 10  9  1  0
 10 13  1  0
 10 12  1  0
 17 16  1  0
 15 16  1  0
 15 19  1  0
 16 18  1  0
 19 20  1  0
 18 20  1  0
 33 32  2  0
 33 34  1  0
 20 21  1  0
 32 31  1  0
 36 35  3  0
 35 34  1  0
 34 37  2  0
 27 21  1  0
 27 28  2  0
 21 22  1  0
 31 30  1  0
 31 38  2  0
 30 29  3  0
 29 28  1  0
 28 25  1  0
 37 38  1  0
 22 23  2  0
 22 24  1  0
 25 24  1  0
 25 26  2  0
  1 39  1  0
  3 40  1  0
  7 41  1  0
 12 42  1  0
 14 43  1  0
 14 44  1  0
 15 45  1  0
 16 46  1  0
 17 47  1  0
 18 48  1  0
 18 49  1  0
 20 50  1  0
 24 51  1  0
 27 52  1  0
 32 53  1  0
 33 54  1  0
 36 55  1  0
 37 56  1  0
 38 57  1  0
A    1
O2G
A    2
PG
A    3
O1G
A    4
O3G
A    5
O3B
A    6
PB
A    7
O1B
A    8
O2B
A    9
O3A
A   10
PA
A   11
O1A
A   12
O2A
A   13
O5'
A   14
C5'
A   15
C4'
A   16
C3'
A   17
O3'
A   18
C2'
A   19
O4'
A   20
C1'
A   21
N1
A   22
C2
A   23
O2
A   24
N3
A   25
C4
A   26
O4
A   27
C6
A   28
C5
A   29
C5M
A   30
C30
A   31
C31
A   32
C36
A   33
C35
A   34
C34
A   35
C37
A   36
C38
A   37
C33
A   38
C32
M  END
