4ELU_0R6_A_901
     RDKit          3D

 58 60  0  0  0  0  0  0  0  0999 V2000
   18.4870  -20.7180   -5.6830 O   0  0  0  0  0  0  0  0  0  0  0  0
   18.8630  -19.5390   -5.8790 C   0  0  0  0  0  0  0  0  0  0  0  0
   19.0130  -18.6860   -4.8290 N   0  0  0  0  0  0  0  0  0  0  0  0
   19.4340  -17.4130   -5.0320 C   0  0  0  0  0  0  0  0  0  0  0  0
   19.5730  -16.5710   -3.9790 N   0  0  0  0  0  0  0  0  0  0  0  0
   19.7270  -16.9280   -6.4010 C   0  0  0  0  0  0  0  0  0  0  0  0
   20.1320  -15.6940   -6.5780 C   0  0  0  0  0  0  0  0  0  0  0  0
   20.5200  -14.5640   -6.7440 C   0  0  0  0  0  0  0  0  0  0  0  0
   20.9270  -13.3290   -6.9490 C   0  0  0  0  0  0  0  0  0  0  0  0
   20.6460  -12.3000   -6.0480 C   0  0  0  0  0  0  0  0  0  0  0  0
   21.1030  -10.9960   -6.2990 C   0  0  0  0  0  0  0  0  0  0  0  0
   21.8560  -10.7220   -7.4470 C   0  0  0  0  0  0  0  0  0  0  0  0
   22.2950   -9.5370   -7.6820 C   0  0  0  0  0  0  0  0  0  0  0  0
   22.7330   -8.3630   -7.9210 C   0  0  0  0  0  0  0  0  0  0  0  0
   22.1560  -11.7380   -8.3340 C   0  0  0  0  0  0  0  0  0  0  0  0
   21.6900  -13.0280   -8.0770 C   0  0  0  0  0  0  0  0  0  0  0  0
   19.5560  -17.8540   -7.4410 C   0  0  0  0  0  0  0  0  0  0  0  0
   19.1430  -19.1180   -7.1940 N   0  0  0  0  0  0  0  0  0  0  0  0
   18.9080  -20.1260   -8.2560 C   0  0  0  0  0  0  0  0  0  0  0  0
   17.4610  -19.8870   -8.6810 C   0  0  0  0  0  0  0  0  0  0  0  0
   17.5900  -19.0180   -9.9270 C   0  0  0  0  0  0  0  0  0  0  0  0
   16.4650  -19.1750  -10.8140 O   0  0  0  0  0  0  0  0  0  0  0  0
   19.6980  -19.9050   -9.4220 O   0  0  0  0  0  0  0  0  0  0  0  0
   18.8800  -19.5410  -10.5370 C   0  0  0  0  0  0  0  0  0  0  0  0
   19.5740  -18.5400  -11.4580 C   0  0  0  0  0  0  0  0  0  0  0  0
   19.9260  -17.3910  -10.6810 O   0  0  0  0  0  0  0  0  0  0  0  0
   19.7420  -15.9590  -11.3590 P   0  0  0  0  0  0  0  0  0  0  0  0
   20.0720  -15.9970  -12.8260 O   0  0  0  0  0  0  0  0  0  0  0  0
   20.4410  -14.9100  -10.5270 O   0  0  0  0  0  0  0  0  0  0  0  0
   18.1640  -15.7380  -11.0760 O   0  0  0  0  0  0  0  0  0  0  0  0
   16.9230  -15.8890  -12.0980 P   0  0  0  0  0  0  0  0  0  0  0  0
   17.3160  -16.6560  -13.3320 O   0  0  0  0  0  0  0  0  0  0  0  0
   15.7870  -16.4360  -11.2670 O   0  0  0  0  0  0  0  0  0  0  0  0
   16.5240  -14.3620  -12.3930 O   0  0  0  0  0  0  0  0  0  0  0  0
   17.1040  -13.4060  -13.5610 P   0  0  0  0  0  0  0  0  0  0  0  0
   18.2120  -14.1680  -14.2590 O   0  0  0  0  0  0  0  0  0  0  0  0
   15.8860  -13.1420  -14.4260 O   0  0  0  0  0  0  0  0  0  0  0  0
   17.5920  -12.1980  -12.7980 O   0  0  0  0  0  0  0  0  0  0  0  0
   19.5129  -16.9348   -3.0173 H   0  0  0  0  0  0  0  0  0  0  0  0
   19.7387  -15.5673   -4.1405 H   0  0  0  0  0  0  0  0  0  0  0  0
   20.0647  -12.5115   -5.1384 H   0  0  0  0  0  0  0  0  0  0  0  0
   20.8685  -10.1872   -5.5913 H   0  0  0  0  0  0  0  0  0  0  0  0
   23.1107   -7.3506   -8.1271 H   0  0  0  0  0  0  0  0  0  0  0  0
   22.7556  -11.5322   -9.2329 H   0  0  0  0  0  0  0  0  0  0  0  0
   21.9321  -13.8329   -8.7865 H   0  0  0  0  0  0  0  0  0  0  0  0
   19.7617  -17.5462   -8.4768 H   0  0  0  0  0  0  0  0  0  0  0  0
   19.1458  -21.1288   -7.8715 H   0  0  0  0  0  0  0  0  0  0  0  0
   16.9021  -19.3618   -7.8925 H   0  0  0  0  0  0  0  0  0  0  0  0
   16.9113  -20.8214   -8.8676 H   0  0  0  0  0  0  0  0  0  0  0  0
   17.6073  -17.9385   -9.7164 H   0  0  0  0  0  0  0  0  0  0  0  0
   15.6385  -19.2903  -10.2814 H   0  0  0  0  0  0  0  0  0  0  0  0
   18.6763  -20.3951  -11.1996 H   0  0  0  0  0  0  0  0  0  0  0  0
   18.8929  -18.2464  -12.2703 H   0  0  0  0  0  0  0  0  0  0  0  0
   20.4742  -18.9906  -11.9013 H   0  0  0  0  0  0  0  0  0  0  0  0
   20.3086  -15.1087   -9.5662 H   0  0  0  0  0  0  0  0  0  0  0  0
   16.0015  -16.3327  -10.3061 H   0  0  0  0  0  0  0  0  0  0  0  0
   18.8076  -14.5776  -13.5826 H   0  0  0  0  0  0  0  0  0  0  0  0
   17.5220  -12.3713  -11.8258 H   0  0  0  0  0  0  0  0  0  0  0  0
 37 35  2  0
 36 35  1  0
 35 38  1  0
 35 34  1  0
 32 31  2  0
 28 27  2  0
 34 31  1  0
 31 33  1  0
 31 30  1  0
 25 26  1  0
 25 24  1  0
 27 30  1  0
 27 26  1  0
 27 29  1  0
 22 21  1  0
 24 21  1  0
 24 23  1  0
 21 20  1  0
 23 19  1  0
 20 19  1  0
 15 16  2  0
 15 12  1  0
 19 18  1  0
 16  9  1  0
 14 13  3  0
 13 12  1  0
 12 11  2  0
 17 18  1  0
 17  6  2  0
 18  2  1  0
  9  8  1  0
  9 10  2  0
  8  7  3  0
  7  6  1  0
  6  4  1  0
 11 10  1  0
  2  1  2  0
  2  3  1  0
  4  3  2  0
  4  5  1  0
  5 39  1  0
  5 40  1  0
 10 41  1  0
 11 42  1  0
 14 43  1  0
 15 44  1  0
 16 45  1  0
 17 46  1  0
 19 47  1  0
 20 48  1  0
 20 49  1  0
 21 50  1  0
 22 51  1  0
 24 52  1  0
 25 53  1  0
 25 54  1  0
 29 55  1  0
 33 56  1  0
 36 57  1  0
 38 58  1  0
A    1
O2
A    2
C2
A    3
N3
A    4
C4
A    5
N4
A    6
C5
A    7
C29
A    8
C30
A    9
C31
A   10
C36
A   11
C35
A   12
C34
A   13
C37
A   14
C38
A   15
C33
A   16
C32
A   17
C6
A   18
N1
A   19
C1'
A   20
C2'
A   21
C3'
A   22
O3'
A   23
O4'
A   24
C4'
A   25
C5'
A   26
O5'
A   27
PA
A   28
O1A
A   29
O2A
A   30
O3A
A   31
PB
A   32
O1B
A   33
O2B
A   34
O3B
A   35
PG
A   36
O3G
A   37
O1G
A   38
O2G
M  END
