4EM7_0RA_A_301
     RDKit          3D

 34 36  0  0  0  0  0  0  0  0999 V2000
   12.1830   27.0230    8.3150 C   0  0  0  0  0  0  0  0  0  0  0  0
   11.6610   27.6750    9.4080 C   0  0  0  0  0  0  0  0  0  0  0  0
   11.9550   29.0040    9.6230 C   0  0  0  0  0  0  0  0  0  0  0  0
   12.7720   29.6770    8.7380 C   0  0  0  0  0  0  0  0  0  0  0  0
   13.3050   29.0350    7.6380 C   0  0  0  0  0  0  0  0  0  0  0  0
   12.9980   27.7050    7.4400 C   0  0  0  0  0  0  0  0  0  0  0  0
   14.1520   29.7240    6.6900 C   0  0  0  0  0  0  0  0  0  0  0  0
   15.1430   29.0550    6.0000 C   0  0  0  0  0  0  0  0  0  0  0  0
   15.8770   29.8020    5.0930 C   0  0  0  0  0  0  0  0  0  0  0  0
   16.9480   29.5280    4.2050 C   0  0  0  0  0  0  0  0  0  0  0  0
   17.2660   30.6980    3.5480 C   0  0  0  0  0  0  0  0  0  0  0  0
   16.4250   31.6680    4.0070 N   0  0  0  0  0  0  0  0  0  0  0  0
   15.5810   31.1410    4.9430 C   0  0  0  0  0  0  0  0  0  0  0  0
   14.6440   31.8290    5.5890 N   0  0  0  0  0  0  0  0  0  0  0  0
   13.9620   31.0650    6.4450 C   0  0  0  0  0  0  0  0  0  0  0  0
   11.3960   29.6880   10.7810 C   0  0  0  0  0  0  0  0  0  0  0  0
   10.0870   29.5430   11.0140 C   0  0  0  0  0  0  0  0  0  0  0  0
    9.6050   30.2860   12.2350 C   0  0  0  0  0  0  0  0  0  0  0  0
    9.9430   31.4990   12.3150 O   0  0  0  0  0  0  0  0  0  0  0  0
    8.9040   29.5960   13.0250 O   0  0  0  0  0  0  0  0  0  0  0  0
   11.9504   25.9620    8.1411 H   0  0  0  0  0  0  0  0  0  0  0  0
   11.0088   27.1354   10.1105 H   0  0  0  0  0  0  0  0  0  0  0  0
   13.0017   30.7387    8.9110 H   0  0  0  0  0  0  0  0  0  0  0  0
   13.4120   27.1796    6.5668 H   0  0  0  0  0  0  0  0  0  0  0  0
   15.3396   27.9849    6.1619 H   0  0  0  0  0  0  0  0  0  0  0  0
   17.4388   28.5536    4.0649 H   0  0  0  0  0  0  0  0  0  0  0  0
   18.0544   30.8254    2.7916 H   0  0  0  0  0  0  0  0  0  0  0  0
   16.4259   32.6497    3.6952 H   0  0  0  0  0  0  0  0  0  0  0  0
   13.1625   31.5601    7.0157 H   0  0  0  0  0  0  0  0  0  0  0  0
   11.9309   29.3215   11.6695 H   0  0  0  0  0  0  0  0  0  0  0  0
   11.5236   30.7583   10.5615 H   0  0  0  0  0  0  0  0  0  0  0  0
    9.5346   29.9164   10.1391 H   0  0  0  0  0  0  0  0  0  0  0  0
    9.9084   28.4730   11.1961 H   0  0  0  0  0  0  0  0  0  0  0  0
    9.0116   29.7019   14.0034 H   0  0  0  0  0  0  0  0  0  0  0  0
 11 12  1  0
 11 10  2  0
 12 13  1  0
 10  9  1  0
 13  9  1  0
 13 14  2  0
  9  8  2  0
 14 15  1  0
  8  7  1  0
 15  7  2  0
  7  5  1  0
  6  5  1  0
  6  1  2  0
  5  4  2  0
  1  2  1  0
  4  3  1  0
  2  3  2  0
  3 16  1  0
 16 17  1  0
 17 18  1  0
 18 19  2  0
 18 20  1  0
  1 21  1  0
  2 22  1  0
  4 23  1  0
  6 24  1  0
  8 25  1  0
 10 26  1  0
 11 27  1  0
 12 28  1  0
 15 29  1  0
 16 30  1  0
 16 31  1  0
 17 32  1  0
 17 33  1  0
 20 34  1  0
A    1
C1
A    2
C2
A    3
C3
A    4
C4
A    5
C5
A    6
C6
A    7
C7
A    8
C8
A    9
C9
A   10
C10
A   11
C11
A   12
N1
A   13
C12
A   14
N2
A   15
C13
A   16
C14
A   17
C15
A   18
C16
A   19
O1
A   20
O2
M  END
