4EN4_GT0_A_405
     RDKit          3D

 26 26  0  0  0  0  0  0  0  0999 V2000
   28.7310    8.1240   39.5880 C   0  0  0  0  0  0  0  0  0  0  0  0
   29.6260    8.8260   38.7490 N   0  0  0  0  0  0  0  0  0  0  0  0
   30.5670    8.1510   37.9620 C   0  0  0  0  0  0  0  0  0  0  0  0
   30.6380    6.7330   38.0080 C   0  0  0  0  0  0  0  0  0  0  0  0
   29.7430    6.0070   38.8580 C   0  0  0  0  0  0  0  0  0  0  0  0
   28.7760    6.7140   39.6590 C   0  0  0  0  0  0  0  0  0  0  0  0
   29.8430    4.4610   38.9000 C   0  0  0  0  0  0  0  0  0  0  0  0
   30.3720    4.0110   40.1770 O   0  0  0  0  0  0  0  0  0  0  0  0
   31.7940    4.2420   40.2820 C   0  0  0  0  0  0  0  0  0  0  0  0
   27.7890    5.9660   40.5820 C   0  0  0  0  0  0  0  0  0  0  0  0
   26.9230    6.8900   41.2710 O   0  0  0  0  0  0  0  0  0  0  0  0
   31.4980    8.9620   37.0800 C   0  0  0  0  0  0  0  0  0  0  0  0
   31.5700    6.0480   37.2300 O   0  0  0  0  0  0  0  0  0  0  0  0
   27.9954    8.6787   40.1889 H   0  0  0  0  0  0  0  0  0  0  0  0
   28.8412    4.0310   38.7533 H   0  0  0  0  0  0  0  0  0  0  0  0
   30.5232    4.1305   38.1012 H   0  0  0  0  0  0  0  0  0  0  0  0
   32.0805    4.2885   41.3430 H   0  0  0  0  0  0  0  0  0  0  0  0
   32.3362    3.4202   39.7915 H   0  0  0  0  0  0  0  0  0  0  0  0
   32.0482    5.1932   39.7915 H   0  0  0  0  0  0  0  0  0  0  0  0
   27.1762    5.2833   39.9751 H   0  0  0  0  0  0  0  0  0  0  0  0
   28.3670    5.4038   41.3302 H   0  0  0  0  0  0  0  0  0  0  0  0
   27.0298    6.7760   42.2486 H   0  0  0  0  0  0  0  0  0  0  0  0
   32.1775    9.5539   37.7108 H   0  0  0  0  0  0  0  0  0  0  0  0
   32.0856    8.2828   36.4449 H   0  0  0  0  0  0  0  0  0  0  0  0
   30.9058    9.6372   36.4449 H   0  0  0  0  0  0  0  0  0  0  0  0
   32.2865    5.5214   37.6651 H   0  0  0  0  0  0  0  0  0  0  0  0
 12  3  1  0
 13  4  1  0
  3  4  2  0
  3  2  1  0
  4  5  1  0
  2  1  2  0
  5  7  1  0
  5  6  2  0
  7  8  1  0
  1  6  1  0
  6 10  1  0
  8  9  1  0
 10 11  1  0
  1 14  1  0
  7 15  1  0
  7 16  1  0
  9 17  1  0
  9 18  1  0
  9 19  1  0
 10 20  1  0
 10 21  1  0
 11 22  1  0
 12 23  1  0
 12 24  1  0
 12 25  1  0
 13 26  1  0
A    1
C8
A    2
N1
A    3
C7
A    4
C4
A    5
C6
A    6
C2
A    7
C1
A    8
O3
A    9
C3
A   10
C5
A   11
O2
A   12
C9
A   13
O1
M  END
