4ENH_FVX_A_602
     RDKit          3D

 43 43  0  0  0  0  0  0  0  0999 V2000
    3.1570   27.5380  -17.5890 C   0  0  0  0  0  0  0  0  0  0  0  0
    2.2390   28.1810  -18.4710 O   0  0  0  0  0  0  0  0  0  0  0  0
    2.4160   27.6740  -19.7970 C   0  0  0  0  0  0  0  0  0  0  0  0
    2.7910   28.8170  -20.7470 C   0  0  0  0  0  0  0  0  0  0  0  0
    2.0130   30.0880  -20.4040 C   0  0  0  0  0  0  0  0  0  0  0  0
    0.5220   29.8280  -20.6140 C   0  0  0  0  0  0  0  0  0  0  0  0
    0.0130   30.8380  -21.6060 C   0  0  0  0  0  0  0  0  0  0  0  0
   -0.0440   30.6480  -22.8640 N   0  0  0  0  0  0  0  0  0  0  0  0
    0.7650   29.7740  -23.5720 O   0  0  0  0  0  0  0  0  0  0  0  0
    0.2500   28.5640  -24.1570 C   0  0  0  0  0  0  0  0  0  0  0  0
    1.3980   27.9110  -24.9040 C   0  0  0  0  0  0  0  0  0  0  0  0
    0.8670   26.7950  -25.7260 N   0  0  0  0  0  0  0  0  0  0  0  0
   -0.4280   32.1330  -21.0360 C   0  0  0  0  0  0  0  0  0  0  0  0
    0.2850   33.2840  -21.3600 C   0  0  0  0  0  0  0  0  0  0  0  0
   -0.1200   34.4950  -20.8180 C   0  0  0  0  0  0  0  0  0  0  0  0
   -1.2180   34.5230  -19.9600 C   0  0  0  0  0  0  0  0  0  0  0  0
   -1.9220   33.3670  -19.6310 C   0  0  0  0  0  0  0  0  0  0  0  0
   -1.5240   32.1540  -20.1720 C   0  0  0  0  0  0  0  0  0  0  0  0
   -1.6410   35.8420  -19.3710 C   0  0  0  0  0  0  0  0  0  0  0  0
   -0.6840   36.7690  -19.5820 F   0  0  0  0  0  0  0  0  0  0  0  0
   -2.8240   36.2330  -19.8940 F   0  0  0  0  0  0  0  0  0  0  0  0
   -1.7670   35.6580  -18.0410 F   0  0  0  0  0  0  0  0  0  0  0  0
    2.8677   27.7406  -16.5473 H   0  0  0  0  0  0  0  0  0  0  0  0
    3.1404   26.4531  -17.7697 H   0  0  0  0  0  0  0  0  0  0  0  0
    4.1709   27.9244  -17.7697 H   0  0  0  0  0  0  0  0  0  0  0  0
    1.4791   27.2091  -20.1378 H   0  0  0  0  0  0  0  0  0  0  0  0
    3.2227   26.9262  -19.7940 H   0  0  0  0  0  0  0  0  0  0  0  0
    2.5568   28.5188  -21.7796 H   0  0  0  0  0  0  0  0  0  0  0  0
    3.8663   29.0235  -20.6417 H   0  0  0  0  0  0  0  0  0  0  0  0
    2.1959   30.3608  -19.3542 H   0  0  0  0  0  0  0  0  0  0  0  0
    2.3423   30.9129  -21.0529 H   0  0  0  0  0  0  0  0  0  0  0  0
   -0.0147   29.9374  -19.6601 H   0  0  0  0  0  0  0  0  0  0  0  0
    0.3597   28.8066  -20.9887 H   0  0  0  0  0  0  0  0  0  0  0  0
   -0.5688   28.7992  -24.8529 H   0  0  0  0  0  0  0  0  0  0  0  0
   -0.1486   27.8917  -23.3830 H   0  0  0  0  0  0  0  0  0  0  0  0
    2.1326   27.5215  -24.1838 H   0  0  0  0  0  0  0  0  0  0  0  0
    1.8873   28.6513  -25.5541 H   0  0  0  0  0  0  0  0  0  0  0  0
    0.5131   26.0512  -25.1076 H   0  0  0  0  0  0  0  0  0  0  0  0
    0.1003   27.1410  -26.3204 H   0  0  0  0  0  0  0  0  0  0  0  0
    1.1534   33.2341  -22.0333 H   0  0  0  0  0  0  0  0  0  0  0  0
    0.4190   35.4222  -21.0625 H   0  0  0  0  0  0  0  0  0  0  0  0
   -2.7841   33.4159  -18.9496 H   0  0  0  0  0  0  0  0  0  0  0  0
   -2.0614   31.2265  -19.9252 H   0  0  0  0  0  0  0  0  0  0  0  0
 12 11  1  0
 11 10  1  0
 10  9  1  0
  9  8  1  0
  8  7  2  0
  7 13  1  0
  7  6  1  0
 14 13  2  0
 14 15  1  0
 13 18  1  0
 15 16  2  0
  4  5  1  0
  4  3  1  0
  6  5  1  0
 18 17  2  0
 16 17  1  0
 16 19  1  0
 21 19  1  0
  3  2  1  0
 20 19  1  0
 19 22  1  0
  2  1  1  0
  1 23  1  0
  1 24  1  0
  1 25  1  0
  3 26  1  0
  3 27  1  0
  4 28  1  0
  4 29  1  0
  5 30  1  0
  5 31  1  0
  6 32  1  0
  6 33  1  0
 10 34  1  0
 10 35  1  0
 11 36  1  0
 11 37  1  0
 12 38  1  0
 12 39  1  0
 14 40  1  0
 15 41  1  0
 17 42  1  0
 18 43  1  0
A    1
C1
A    2
O2
A    3
C3
A    4
C4
A    5
C5
A    6
C6
A    7
C7
A    8
N8
A    9
O9
A   10
C10
A   11
C11
A   12
N12
A   13
C13
A   14
C14
A   15
C15
A   16
C16
A   17
C17
A   18
C18
A   19
C19
A   20
F20
A   21
F21
A   22
F22
M  END
