4ENX_Z20_A_402
     RDKit          3D

 35 37  0  0  0  0  0  0  0  0999 V2000
  -44.4890   -1.2920    2.4760 O   0  0  0  0  0  0  0  0  0  0  0  0
  -43.4040   -1.4610    1.9490 N   0  0  0  0  0  0  0  0  0  0  0  0
  -42.3660   -1.5750    2.5730 O   0  0  0  0  0  0  0  0  0  0  0  0
  -43.3300   -1.5540    0.4400 C   0  0  0  0  0  0  0  0  0  0  0  0
  -44.4660   -1.2190   -0.3210 C   0  0  0  0  0  0  0  0  0  0  0  0
  -45.5700   -0.8250    0.3490 O   0  0  0  0  0  0  0  0  0  0  0  0
  -44.4040   -1.3140   -1.7170 C   0  0  0  0  0  0  0  0  0  0  0  0
  -43.2300   -1.7290   -2.3200 C   0  0  0  0  0  0  0  0  0  0  0  0
  -42.1490   -1.9730   -0.1720 C   0  0  0  0  0  0  0  0  0  0  0  0
  -42.0930   -2.0540   -1.5630 C   0  0  0  0  0  0  0  0  0  0  0  0
  -40.8830   -2.5040   -2.2730 C   0  0  0  0  0  0  0  0  0  0  0  0
  -39.6180   -2.6600   -1.8360 C   0  0  0  0  0  0  0  0  0  0  0  0
  -38.5390   -3.2890   -2.6490 C   0  0  0  0  0  0  0  0  0  0  0  0
  -38.6260   -3.7470   -3.7620 O   0  0  0  0  0  0  0  0  0  0  0  0
  -37.2360   -3.3190   -1.9420 N   0  0  0  0  0  0  0  0  0  0  0  0
  -38.9200   -2.1550   -0.2360 S   0  0  0  0  0  0  0  0  0  0  0  0
  -37.2650   -2.7550   -0.6440 C   0  0  0  0  0  0  0  0  0  0  0  0
  -36.3460   -2.6050    0.2550 N   0  0  0  0  0  0  0  0  0  0  0  0
  -36.4630   -2.0300    1.5730 C   0  0  0  0  0  0  0  0  0  0  0  0
  -35.9800   -0.7290    1.8320 C   0  0  0  0  0  0  0  0  0  0  0  0
  -35.3050    0.2170    0.5830 Cl  0  0  0  0  0  0  0  0  0  0  0  0
  -36.0510   -0.1640    3.0990 C   0  0  0  0  0  0  0  0  0  0  0  0
  -36.6030   -0.9090    4.1340 C   0  0  0  0  0  0  0  0  0  0  0  0
  -37.0700   -2.2030    3.8980 C   0  0  0  0  0  0  0  0  0  0  0  0
  -36.9970   -2.7770    2.6290 C   0  0  0  0  0  0  0  0  0  0  0  0
  -45.5740   -0.8236    1.3390 H   0  0  0  0  0  0  0  0  0  0  0  0
  -45.2820   -1.0606   -2.3293 H   0  0  0  0  0  0  0  0  0  0  0  0
  -43.1864   -1.8060   -3.4164 H   0  0  0  0  0  0  0  0  0  0  0  0
  -41.2711   -2.2368    0.4360 H   0  0  0  0  0  0  0  0  0  0  0  0
  -41.0376   -2.7534   -3.3331 H   0  0  0  0  0  0  0  0  0  0  0  0
  -36.3825   -3.7164   -2.3598 H   0  0  0  0  0  0  0  0  0  0  0  0
  -35.6771    0.8546    3.2797 H   0  0  0  0  0  0  0  0  0  0  0  0
  -36.6722   -0.4772    5.1433 H   0  0  0  0  0  0  0  0  0  0  0  0
  -37.5034   -2.7805    4.7278 H   0  0  0  0  0  0  0  0  0  0  0  0
  -37.3545   -3.8035    2.4604 H   0  0  0  0  0  0  0  0  0  0  0  0
 14 13  2  0
 13 15  1  0
 13 12  1  0
  8  7  2  0
  8 10  1  0
 11 12  2  0
 11 10  1  0
 15 17  1  0
 12 16  1  0
  7  5  1  0
 10  9  2  0
 17 16  1  0
 17 18  2  0
  5  6  1  0
  5  4  2  0
  9  4  1  0
 18 19  1  0
  4  2  1  0
 21 20  1  0
 19 20  2  0
 19 25  1  0
 20 22  1  0
  2  1  1  0
  2  3  2  0
 25 24  2  0
 22 23  2  0
 24 23  1  0
  6 26  1  0
  7 27  1  0
  8 28  1  0
  9 29  1  0
 11 30  1  0
 15 31  1  0
 22 32  1  0
 23 33  1  0
 24 34  1  0
 25 35  1  0
M  CHG  2   1  -1   2   1
A    1
O24
A    2
N22
A    3
O23
A    4
C18
A    5
C17
A    6
O25
A    7
C16
A    8
C15
A    9
C19
A   10
C14
A   11
C13
A   12
C11
A   13
C10
A   14
O21
A   15
N9
A   16
S12
A   17
C8
A   18
N7
A   19
C2
A   20
C3
A   21
CL1
A   22
C4
A   23
C5
A   24
C6
A   25
C1
M  END
