4ENY_J19_A_404
     RDKit          3D

 37 39  0  0  0  0  0  0  0  0999 V2000
  -68.9440  122.3670    2.6510 C   0  0  0  0  0  0  0  0  0  0  0  0
  -64.9580  119.2810    4.5850 O   0  0  0  0  0  0  0  0  0  0  0  0
  -65.2360  118.9750    3.4460 C   0  0  0  0  0  0  0  0  0  0  0  0
  -64.5180  117.8920    2.8130 N   0  0  0  0  0  0  0  0  0  0  0  0
  -66.2890  119.6300    2.5910 C   0  0  0  0  0  0  0  0  0  0  0  0
  -66.2450  118.7650    1.0160 S   0  0  0  0  0  0  0  0  0  0  0  0
  -64.9100  117.6560    1.5800 C   0  0  0  0  0  0  0  0  0  0  0  0
  -64.4210  116.6990    0.7220 N   0  0  0  0  0  0  0  0  0  0  0  0
  -64.8520  116.4750   -0.6160 C   0  0  0  0  0  0  0  0  0  0  0  0
  -64.4820  117.3120   -1.6840 C   0  0  0  0  0  0  0  0  0  0  0  0
  -64.9190  117.0480   -2.9760 C   0  0  0  0  0  0  0  0  0  0  0  0
  -65.6750  115.3790   -0.9380 C   0  0  0  0  0  0  0  0  0  0  0  0
  -66.2010  114.2840    0.2770 Cl  0  0  0  0  0  0  0  0  0  0  0  0
  -66.1130  115.1130   -2.2290 C   0  0  0  0  0  0  0  0  0  0  0  0
  -65.7320  115.9580   -3.2590 C   0  0  0  0  0  0  0  0  0  0  0  0
  -67.1270  120.6580    2.8910 C   0  0  0  0  0  0  0  0  0  0  0  0
  -68.0440  121.4690    2.0510 C   0  0  0  0  0  0  0  0  0  0  0  0
  -69.8150  123.1440    1.8870 C   0  0  0  0  0  0  0  0  0  0  0  0
  -69.7980  123.0430    0.4850 C   0  0  0  0  0  0  0  0  0  0  0  0
  -70.6430  123.8000   -0.2800 O   0  0  0  0  0  0  0  0  0  0  0  0
  -68.9010  122.1500   -0.1220 C   0  0  0  0  0  0  0  0  0  0  0  0
  -68.0440  121.3840    0.6540 C   0  0  0  0  0  0  0  0  0  0  0  0
  -68.8680  122.0360   -1.4900 O   0  0  0  0  0  0  0  0  0  0  0  0
  -68.0870  120.9670   -2.0060 C   0  0  0  0  0  0  0  0  0  0  0  0
  -68.9618  122.4590    3.7470 H   0  0  0  0  0  0  0  0  0  0  0  0
  -63.7725  117.3575    3.2816 H   0  0  0  0  0  0  0  0  0  0  0  0
  -63.8399  118.1848   -1.4943 H   0  0  0  0  0  0  0  0  0  0  0  0
  -64.6141  117.7176   -3.7937 H   0  0  0  0  0  0  0  0  0  0  0  0
  -66.7543  114.2425   -2.4312 H   0  0  0  0  0  0  0  0  0  0  0  0
  -66.0694  115.7678   -4.2886 H   0  0  0  0  0  0  0  0  0  0  0  0
  -67.1251  120.9415    3.9538 H   0  0  0  0  0  0  0  0  0  0  0  0
  -70.5142  123.8348    2.3810 H   0  0  0  0  0  0  0  0  0  0  0  0
  -71.3057  124.3937    0.1541 H   0  0  0  0  0  0  0  0  0  0  0  0
  -67.3466  120.6921    0.1590 H   0  0  0  0  0  0  0  0  0  0  0  0
  -67.6633  120.3870   -1.1729 H   0  0  0  0  0  0  0  0  0  0  0  0
  -68.7218  120.3134   -2.6223 H   0  0  0  0  0  0  0  0  0  0  0  0
  -67.2713  121.3730   -2.6223 H   0  0  0  0  0  0  0  0  0  0  0  0
 15 11  1  0
 15 14  2  0
 11 10  2  0
 14 12  1  0
 24 23  1  0
 10  9  1  0
 23 21  1  0
 12  9  2  0
 12 13  1  0
  9  8  1  0
 20 19  1  0
 21 19  2  0
 21 22  1  0
 19 18  1  0
 22 17  2  0
  8  7  2  0
  6  7  1  0
  6  5  1  0
  7  4  1  0
 18  1  2  0
 17  1  1  0
 17 16  1  0
  5 16  2  0
  5  3  1  0
  4  3  1  0
  3  2  2  0
  1 25  1  0
  4 26  1  0
 10 27  1  0
 11 28  1  0
 14 29  1  0
 15 30  1  0
 16 31  1  0
 18 32  1  0
 20 33  1  0
 22 34  1  0
 24 35  1  0
 24 36  1  0
 24 37  1  0
A    1
C21
A    2
O14
A    3
C11
A    4
N10
A    5
C12
A    6
S13
A    7
C9
A    8
N8
A    9
C4
A   10
C3
A   11
C2
A   12
C5
A   13
CL7
A   14
C6
A   15
C1
A   16
C15
A   17
C16
A   18
C20
A   19
C19
A   20
O22
A   21
C18
A   22
C17
A   23
O23
A   24
C24
M  END
