4EO8_0S3_A_600
     RDKit          3D

 57 58  0  0  0  0  0  0  0  0999 V2000
    9.1710   33.0920   73.7980 C   0  0  0  0  0  0  0  0  0  0  0  0
    7.8110   33.4780   74.0990 C   0  0  0  0  0  0  0  0  0  0  0  0
    6.9690   33.0800   73.0560 C   0  0  0  0  0  0  0  0  0  0  0  0
    7.8080   32.3070   71.7900 S   0  0  0  0  0  0  0  0  0  0  0  0
    9.2980   32.4590   72.5770 C   0  0  0  0  0  0  0  0  0  0  0  0
   10.4950   31.9650   71.9860 C   0  0  0  0  0  0  0  0  0  0  0  0
   11.4630   31.5280   71.4320 C   0  0  0  0  0  0  0  0  0  0  0  0
   12.6420   30.9940   70.7220 C   0  0  0  0  0  0  0  0  0  0  0  0
   13.8990   31.6210   71.3470 C   0  0  0  0  0  0  0  0  0  0  0  0
   12.6960   29.4610   70.8310 C   0  0  0  0  0  0  0  0  0  0  0  0
   12.5650   31.3960   69.2370 C   0  0  0  0  0  0  0  0  0  0  0  0
    7.3570   34.1290   75.2730 N   0  0  0  0  0  0  0  0  0  0  0  0
    7.3070   35.5270   75.3800 C   0  0  0  0  0  0  0  0  0  0  0  0
    6.9220   33.3750   76.3820 N   0  0  0  0  0  0  0  0  0  0  0  0
    7.8130   36.3140   74.1640 C   0  0  0  0  0  0  0  0  0  0  0  0
    6.9170   36.1230   76.3890 O   0  0  0  0  0  0  0  0  0  0  0  0
    6.9490   37.5450   73.8440 C   0  0  0  0  0  0  0  0  0  0  0  0
    7.5600   38.3450   72.6870 C   0  0  0  0  0  0  0  0  0  0  0  0
    8.9910   38.7940   73.0310 C   0  0  0  0  0  0  0  0  0  0  0  0
    9.8670   37.5910   73.3920 C   0  0  0  0  0  0  0  0  0  0  0  0
    9.2450   36.7420   74.5010 C   0  0  0  0  0  0  0  0  0  0  0  0
    9.6290   39.5800   71.8800 C   0  0  0  0  0  0  0  0  0  0  0  0
    5.5810   32.8100   76.2900 C   0  0  0  0  0  0  0  0  0  0  0  0
    7.9490   32.4790   76.9020 C   0  0  0  0  0  0  0  0  0  0  0  0
    5.5510   33.2080   72.8130 C   0  0  0  0  0  0  0  0  0  0  0  0
    4.9040   32.5770   71.9880 O   0  0  0  0  0  0  0  0  0  0  0  0
    4.9950   34.1710   73.5890 O   0  0  0  0  0  0  0  0  0  0  0  0
   10.0186   33.2829   74.4727 H   0  0  0  0  0  0  0  0  0  0  0  0
   13.8215   31.5823   72.4436 H   0  0  0  0  0  0  0  0  0  0  0  0
   14.7883   31.0609   71.0223 H   0  0  0  0  0  0  0  0  0  0  0  0
   13.9865   32.6683   71.0223 H   0  0  0  0  0  0  0  0  0  0  0  0
   12.7063   29.1689   71.8915 H   0  0  0  0  0  0  0  0  0  0  0  0
   11.8126   29.0271   70.3397 H   0  0  0  0  0  0  0  0  0  0  0  0
   13.6078   29.0904   70.3397 H   0  0  0  0  0  0  0  0  0  0  0  0
   12.3586   32.4736   69.1591 H   0  0  0  0  0  0  0  0  0  0  0  0
   13.5228   31.1697   68.7457 H   0  0  0  0  0  0  0  0  0  0  0  0
   11.7586   30.8318   68.7457 H   0  0  0  0  0  0  0  0  0  0  0  0
    7.7650   35.6808   73.2658 H   0  0  0  0  0  0  0  0  0  0  0  0
    6.8889   38.1866   74.7355 H   0  0  0  0  0  0  0  0  0  0  0  0
    5.9440   37.2073   73.5509 H   0  0  0  0  0  0  0  0  0  0  0  0
    6.9396   39.2328   72.4948 H   0  0  0  0  0  0  0  0  0  0  0  0
    7.5961   37.7034   71.7942 H   0  0  0  0  0  0  0  0  0  0  0  0
    8.9222   39.4607   73.9032 H   0  0  0  0  0  0  0  0  0  0  0  0
    9.9977   36.9654   72.4967 H   0  0  0  0  0  0  0  0  0  0  0  0
   10.8329   37.9711   73.7562 H   0  0  0  0  0  0  0  0  0  0  0  0
    9.8598   35.8414   74.6454 H   0  0  0  0  0  0  0  0  0  0  0  0
    9.2101   37.3520   75.4157 H   0  0  0  0  0  0  0  0  0  0  0  0
   10.2724   40.3726   72.2896 H   0  0  0  0  0  0  0  0  0  0  0  0
   10.2336   38.8997   71.2622 H   0  0  0  0  0  0  0  0  0  0  0  0
    8.8389   40.0317   71.2622 H   0  0  0  0  0  0  0  0  0  0  0  0
    5.1835   32.6425   77.3019 H   0  0  0  0  0  0  0  0  0  0  0  0
    4.9252   33.5083   75.7494 H   0  0  0  0  0  0  0  0  0  0  0  0
    5.6226   31.8529   75.7494 H   0  0  0  0  0  0  0  0  0  0  0  0
    7.9286   32.4968   78.0017 H   0  0  0  0  0  0  0  0  0  0  0  0
    7.7560   31.4555   76.5482 H   0  0  0  0  0  0  0  0  0  0  0  0
    8.9369   32.8090   76.5482 H   0  0  0  0  0  0  0  0  0  0  0  0
    5.0374   34.0976   74.5754 H   0  0  0  0  0  0  0  0  0  0  0  0
 11  8  1  0
  8 10  1  0
  8  9  1  0
  8  7  1  0
  7  6  3  0
  4  5  1  0
  4  3  1  0
 22 19  1  0
  6  5  1  0
 26 25  2  0
  5  1  2  0
 18 19  1  0
 18 17  1  0
 25  3  1  0
 25 27  1  0
 19 20  1  0
  3  2  2  0
 20 21  1  0
  1  2  1  0
 17 15  1  0
  2 12  1  0
 15 21  1  0
 15 13  1  0
 12 13  1  0
 12 14  1  0
 13 16  2  0
 23 14  1  0
 14 24  1  0
  1 28  1  0
  9 29  1  0
  9 30  1  0
  9 31  1  0
 10 32  1  0
 10 33  1  0
 10 34  1  0
 11 35  1  0
 11 36  1  0
 11 37  1  0
 15 38  1  0
 17 39  1  0
 17 40  1  0
 18 41  1  0
 18 42  1  0
 19 43  1  0
 20 44  1  0
 20 45  1  0
 21 46  1  0
 21 47  1  0
 22 48  1  0
 22 49  1  0
 22 50  1  0
 23 51  1  0
 23 52  1  0
 23 53  1  0
 24 54  1  0
 24 55  1  0
 24 56  1  0
 27 57  1  0
A    1
C01
A    2
C02
A    3
C03
A    4
S04
A    5
C05
A    6
C06
A    7
C07
A    8
C08
A    9
C09
A   10
C10
A   11
C11
A   12
N12
A   13
C13
A   14
N14
A   15
C15
A   16
O16
A   17
C17
A   18
C18
A   19
C19
A   20
C20
A   21
C21
A   22
C22
A   23
C23
A   24
C24
A   25
C25
A   26
O26
A   27
O27
M  END
