4EPH_0RK_A_701
     RDKit          3D

 55 58  0  0  0  0  0  0  0  0999 V2000
  -22.8040  -20.3310   55.7990 Cl  0  0  0  0  0  0  0  0  0  0  0  0
  -22.5650  -21.6380   54.5840 C   0  0  0  0  0  0  0  0  0  0  0  0
  -21.2760  -22.0270   54.2080 C   0  0  0  0  0  0  0  0  0  0  0  0
  -23.6770  -22.2640   54.0170 C   0  0  0  0  0  0  0  0  0  0  0  0
  -23.4900  -23.2740   53.0730 C   0  0  0  0  0  0  0  0  0  0  0  0
  -22.1980  -23.6770   52.6880 C   0  0  0  0  0  0  0  0  0  0  0  0
  -22.0900  -24.6910   51.7480 O   0  0  0  0  0  0  0  0  0  0  0  0
  -23.2150  -25.1350   50.9730 C   0  0  0  0  0  0  0  0  0  0  0  0
  -21.0690  -23.0420   53.2610 C   0  0  0  0  0  0  0  0  0  0  0  0
  -19.5300  -23.4020   52.9160 S   0  0  0  0  0  0  0  0  0  0  0  0
  -18.7680  -22.3840   53.5820 O   0  0  0  0  0  0  0  0  0  0  0  0
  -19.2910  -23.2820   51.4960 O   0  0  0  0  0  0  0  0  0  0  0  0
  -19.1340  -24.9440   53.4170 N   0  0  0  0  0  0  0  0  0  0  0  0
  -18.9290  -26.0100   52.3970 C   0  0  0  0  0  0  0  0  0  0  0  0
  -18.4510  -27.2380   53.1940 C   0  0  0  0  0  0  0  0  0  0  0  0
  -17.7610  -26.5630   54.3580 C   0  0  0  0  0  0  0  0  0  0  0  0
  -18.1420  -25.2330   54.4170 C   0  0  0  0  0  0  0  0  0  0  0  0
  -16.8440  -27.1090   55.2700 C   0  0  0  0  0  0  0  0  0  0  0  0
  -16.3680  -28.5290   55.2450 C   0  0  0  0  0  0  0  0  0  0  0  0
  -16.3230  -26.2960   56.2620 C   0  0  0  0  0  0  0  0  0  0  0  0
  -16.7170  -24.9590   56.3520 C   0  0  0  0  0  0  0  0  0  0  0  0
  -17.6310  -24.4110   55.4330 C   0  0  0  0  0  0  0  0  0  0  0  0
  -16.1180  -24.1020   57.4230 C   0  0  0  0  0  0  0  0  0  0  0  0
  -16.2870  -24.3730   58.6010 O   0  0  0  0  0  0  0  0  0  0  0  0
  -15.4070  -23.0730   56.9550 N   0  0  0  0  0  0  0  0  0  0  0  0
  -14.6090  -22.2220   57.6300 C   0  0  0  0  0  0  0  0  0  0  0  0
  -14.9900  -21.7370   58.8820 C   0  0  0  0  0  0  0  0  0  0  0  0
  -14.1780  -20.8430   59.5860 C   0  0  0  0  0  0  0  0  0  0  0  0
  -14.7960  -20.3090   61.1920 Cl  0  0  0  0  0  0  0  0  0  0  0  0
  -13.4080  -21.7890   57.0450 C   0  0  0  0  0  0  0  0  0  0  0  0
  -12.5980  -20.8970   57.7480 C   0  0  0  0  0  0  0  0  0  0  0  0
  -12.9620  -20.4080   59.0170 C   0  0  0  0  0  0  0  0  0  0  0  0
  -12.0120  -19.4380   59.7060 C   0  0  0  0  0  0  0  0  0  0  0  0
  -12.2060  -18.9180   60.8180 O   0  0  0  0  0  0  0  0  0  0  0  0
  -10.9640  -19.1390   59.1360 O   0  0  0  0  0  0  0  0  0  0  0  0
  -20.4075  -21.5282   54.6629 H   0  0  0  0  0  0  0  0  0  0  0  0
  -24.6929  -21.9630   54.3125 H   0  0  0  0  0  0  0  0  0  0  0  0
  -24.3663  -23.7630   52.6226 H   0  0  0  0  0  0  0  0  0  0  0  0
  -24.0226  -25.4537   51.6484 H   0  0  0  0  0  0  0  0  0  0  0  0
  -23.5717  -24.3102   50.3386 H   0  0  0  0  0  0  0  0  0  0  0  0
  -22.9122  -25.9811   50.3386 H   0  0  0  0  0  0  0  0  0  0  0  0
  -18.1670  -25.7035   51.6653 H   0  0  0  0  0  0  0  0  0  0  0  0
  -19.8467  -26.2188   51.8275 H   0  0  0  0  0  0  0  0  0  0  0  0
  -19.2955  -27.8589   53.5277 H   0  0  0  0  0  0  0  0  0  0  0  0
  -17.8151  -27.9328   52.6258 H   0  0  0  0  0  0  0  0  0  0  0  0
  -16.2460  -28.8930   56.2758 H   0  0  0  0  0  0  0  0  0  0  0  0
  -17.1058  -29.1539   54.7204 H   0  0  0  0  0  0  0  0  0  0  0  0
  -15.4027  -28.5829   54.7204 H   0  0  0  0  0  0  0  0  0  0  0  0
  -15.5972  -26.7038   56.9809 H   0  0  0  0  0  0  0  0  0  0  0  0
  -17.9392  -23.3578   55.5097 H   0  0  0  0  0  0  0  0  0  0  0  0
  -15.4781  -22.9072   55.9409 H   0  0  0  0  0  0  0  0  0  0  0  0
  -15.9441  -22.0633   59.3216 H   0  0  0  0  0  0  0  0  0  0  0  0
  -13.1108  -22.1475   56.0484 H   0  0  0  0  0  0  0  0  0  0  0  0
  -11.6497  -20.5669   57.2989 H   0  0  0  0  0  0  0  0  0  0  0  0
  -12.0151  -19.4296   61.6438 H   0  0  0  0  0  0  0  0  0  0  0  0
  8  7  1  0
 12 10  2  0
  7  6  1  0
 14 15  1  0
 14 13  1  0
  6  5  2  0
  6  9  1  0
 10  9  1  0
 10 13  1  0
 10 11  2  0
  5  4  1  0
 15 16  1  0
  9  3  2  0
 13 17  1  0
  4  2  2  0
  3  2  1  0
 16 17  2  0
 16 18  1  0
 17 22  1  0
  2  1  1  0
 19 18  1  0
 18 20  2  0
 22 21  2  0
 20 21  1  0
 21 23  1  0
 25 23  1  0
 25 26  1  0
 30 26  1  0
 30 31  2  0
 23 24  2  0
 26 27  2  0
 31 32  1  0
 27 28  1  0
 32 28  2  0
 32 33  1  0
 35 33  2  0
 28 29  1  0
 33 34  1  0
  3 36  1  0
  4 37  1  0
  5 38  1  0
  8 39  1  0
  8 40  1  0
  8 41  1  0
 14 42  1  0
 14 43  1  0
 15 44  1  0
 15 45  1  0
 19 46  1  0
 19 47  1  0
 19 48  1  0
 20 49  1  0
 22 50  1  0
 25 51  1  0
 27 52  1  0
 30 53  1  0
 31 54  1  0
 34 55  1  0
A    1
CL2
A    2
C27
A    3
C14
A    4
C31
A    5
C26
A    6
C21
A    7
O33
A    8
C35
A    9
C3
A   10
S1
A   11
O16
A   12
O17
A   13
N2
A   14
C12
A   15
C19
A   16
C6
A   17
C4
A   18
C13
A   19
C34
A   20
C18
A   21
C9
A   22
C8
A   23
C7
A   24
O24
A   25
N15
A   26
C23
A   27
C20
A   28
C10
A   29
CL1
A   30
C29
A   31
C22
A   32
C5
A   33
C11
A   34
O25
A   35
O30
M  END
