4EPL_JAI_A_601
     RDKit          3D

 52 52  0  0  0  0  0  0  0  0999 V2000
   41.0340  -22.3460  -19.5600 C   0  0  0  0  0  0  0  0  0  0  0  0
   39.4460  -21.6460  -17.8690 N   0  0  0  0  0  0  0  0  0  0  0  0
   41.5310  -21.7300  -20.5370 O   0  0  0  0  0  0  0  0  0  0  0  0
   40.6800  -23.5500  -19.5570 O   0  0  0  0  0  0  0  0  0  0  0  0
   34.8340  -17.8830  -16.4100 O   0  0  0  0  0  0  0  0  0  0  0  0
   40.8460  -21.5700  -18.2750 C   0  0  0  0  0  0  0  0  0  0  0  0
   41.8670  -21.8810  -17.1640 C   0  0  0  0  0  0  0  0  0  0  0  0
   35.7920  -14.4570  -21.9540 C   0  0  0  0  0  0  0  0  0  0  0  0
   35.9040  -15.7780  -21.2380 C   0  0  0  0  0  0  0  0  0  0  0  0
   35.9170  -15.5830  -19.7390 C   0  0  0  0  0  0  0  0  0  0  0  0
   35.8990  -16.5720  -18.8450 C   0  0  0  0  0  0  0  0  0  0  0  0
   35.8620  -18.0180  -19.2930 C   0  0  0  0  0  0  0  0  0  0  0  0
   36.0590  -18.9520  -18.1000 C   0  0  0  0  0  0  0  0  0  0  0  0
   34.9230  -18.8640  -17.1310 C   0  0  0  0  0  0  0  0  0  0  0  0
   33.9480  -20.0150  -17.1080 C   0  0  0  0  0  0  0  0  0  0  0  0
   34.5720  -21.0620  -18.0360 C   0  0  0  0  0  0  0  0  0  0  0  0
   35.9760  -20.4730  -18.2590 C   0  0  0  0  0  0  0  0  0  0  0  0
   37.0980  -21.2220  -17.5280 C   0  0  0  0  0  0  0  0  0  0  0  0
   38.4350  -20.8060  -18.1260 C   0  0  0  0  0  0  0  0  0  0  0  0
   38.5680  -19.7820  -18.7880 O   0  0  0  0  0  0  0  0  0  0  0  0
   41.0630  -19.7810  -15.9840 C   0  0  0  0  0  0  0  0  0  0  0  0
   41.4570  -21.2520  -15.8230 C   0  0  0  0  0  0  0  0  0  0  0  0
   43.3130  -21.7130  -17.6950 C   0  0  0  0  0  0  0  0  0  0  0  0
   39.1987  -22.4682  -17.3000 H   0  0  0  0  0  0  0  0  0  0  0  0
   40.5409  -24.0229  -18.6985 H   0  0  0  0  0  0  0  0  0  0  0  0
   41.0826  -20.5157  -18.4811 H   0  0  0  0  0  0  0  0  0  0  0  0
   41.8616  -22.9441  -16.8814 H   0  0  0  0  0  0  0  0  0  0  0  0
   35.7231  -13.6445  -21.2157 H   0  0  0  0  0  0  0  0  0  0  0  0
   36.6805  -14.3052  -22.5845 H   0  0  0  0  0  0  0  0  0  0  0  0
   34.8906  -14.4569  -22.5845 H   0  0  0  0  0  0  0  0  0  0  0  0
   35.0454  -16.4090  -21.5111 H   0  0  0  0  0  0  0  0  0  0  0  0
   36.8469  -16.2594  -21.5367 H   0  0  0  0  0  0  0  0  0  0  0  0
   35.9432  -14.5512  -19.3585 H   0  0  0  0  0  0  0  0  0  0  0  0
   35.9112  -16.3351  -17.7709 H   0  0  0  0  0  0  0  0  0  0  0  0
   34.8884  -18.2276  -19.7602 H   0  0  0  0  0  0  0  0  0  0  0  0
   36.6734  -18.1877  -20.0160 H   0  0  0  0  0  0  0  0  0  0  0  0
   37.0714  -18.6051  -17.8457 H   0  0  0  0  0  0  0  0  0  0  0  0
   33.8403  -20.4135  -16.0884 H   0  0  0  0  0  0  0  0  0  0  0  0
   32.9396  -19.7166  -17.4308 H   0  0  0  0  0  0  0  0  0  0  0  0
   34.6220  -22.0489  -17.5528 H   0  0  0  0  0  0  0  0  0  0  0  0
   34.0053  -21.2360  -18.9626 H   0  0  0  0  0  0  0  0  0  0  0  0
   36.1631  -20.6531  -19.3279 H   0  0  0  0  0  0  0  0  0  0  0  0
   37.0763  -20.9679  -16.4580 H   0  0  0  0  0  0  0  0  0  0  0  0
   36.9589  -22.3073  -17.6413 H   0  0  0  0  0  0  0  0  0  0  0  0
   40.9405  -19.3235  -14.9912 H   0  0  0  0  0  0  0  0  0  0  0  0
   41.8503  -19.2491  -16.5382 H   0  0  0  0  0  0  0  0  0  0  0  0
   40.1152  -19.7138  -16.5382 H   0  0  0  0  0  0  0  0  0  0  0  0
   40.5997  -21.8081  -15.4158 H   0  0  0  0  0  0  0  0  0  0  0  0
   42.3196  -21.3033  -15.1423 H   0  0  0  0  0  0  0  0  0  0  0  0
   44.0082  -21.6322  -16.8464 H   0  0  0  0  0  0  0  0  0  0  0  0
   43.5823  -22.5859  -18.3078 H   0  0  0  0  0  0  0  0  0  0  0  0
   43.3750  -20.8016  -18.3078 H   0  0  0  0  0  0  0  0  0  0  0  0
  3  1  2  0
  1  4  1  0
  1  6  1  0
  6  2  1  0
 19  2  1  0
 14  5  2  0
  6  7  1  0
 23  7  1  0
  7 22  1  0
  8  9  1  0
  9 10  1  0
 10 11  2  0
 12 11  1  0
 12 13  1  0
 17 13  1  0
 13 14  1  0
 14 15  1  0
 16 15  1  0
 17 16  1  0
 17 18  1  0
 19 18  1  0
 20 19  2  0
 21 22  1  0
  2 24  1  0
  4 25  1  0
  6 26  1  0
  7 27  1  0
  8 28  1  0
  8 29  1  0
  8 30  1  0
  9 31  1  0
  9 32  1  0
 10 33  1  0
 11 34  1  0
 12 35  1  0
 12 36  1  0
 13 37  1  0
 15 38  1  0
 15 39  1  0
 16 40  1  0
 16 41  1  0
 17 42  1  0
 18 43  1  0
 18 44  1  0
 21 45  1  0
 21 46  1  0
 21 47  1  0
 22 48  1  0
 22 49  1  0
 23 50  1  0
 23 51  1  0
 23 52  1  0
A    1
C
A    2
N
A    3
O1
A    4
O2
A    5
O3
A    6
CA
A    7
CB
A    8
C01
A    9
C02
A   10
C03
A   11
C04
A   12
C05
A   13
C06
A   14
C07
A   15
C09
A   16
C10
A   17
C11
A   18
C12
A   19
C13
A   20
O14
A   21
CD1
A   22
CG1
A   23
CG2
M  END
