4EPV_0QX_A_203
     RDKit          3D

 31 34  0  0  0  0  0  0  0  0999 V2000
   43.4300   20.3050    9.0060 C   0  0  0  0  0  0  0  0  0  0  0  0
   43.3080   21.3390    9.9920 C   0  0  0  0  0  0  0  0  0  0  0  0
   42.2360   22.3090    9.9940 C   0  0  0  0  0  0  0  0  0  0  0  0
   41.3110   22.1270    8.8740 C   0  0  0  0  0  0  0  0  0  0  0  0
   41.3810   21.1410    7.8820 C   0  0  0  0  0  0  0  0  0  0  0  0
   42.4770   20.2340    7.9390 C   0  0  0  0  0  0  0  0  0  0  0  0
   42.8090   19.1430    7.1630 N   0  0  0  0  0  0  0  0  0  0  0  0
   43.9640   18.5990    7.6690 C   0  0  0  0  0  0  0  0  0  0  0  0
   44.4100   19.2760    8.7680 C   0  0  0  0  0  0  0  0  0  0  0  0
   45.6410   18.9990    9.7250 C   0  0  0  0  0  0  0  0  0  0  0  0
   45.2060   18.0760   10.8190 C   0  0  0  0  0  0  0  0  0  0  0  0
   44.9530   16.7740   10.6650 N   0  0  0  0  0  0  0  0  0  0  0  0
   44.5560   16.2990   11.8210 C   0  0  0  0  0  0  0  0  0  0  0  0
   44.1650   14.9710   12.1970 C   0  0  0  0  0  0  0  0  0  0  0  0
   43.7680   14.7820   13.5150 C   0  0  0  0  0  0  0  0  0  0  0  0
   43.7810   15.7950   14.4250 N   0  0  0  0  0  0  0  0  0  0  0  0
   44.1680   17.0690   14.0780 C   0  0  0  0  0  0  0  0  0  0  0  0
   44.5390   17.3430   12.7290 C   0  0  0  0  0  0  0  0  0  0  0  0
   44.9180   18.4570   12.0600 N   0  0  0  0  0  0  0  0  0  0  0  0
   44.0673   21.3970   10.7858 H   0  0  0  0  0  0  0  0  0  0  0  0
   42.1273   23.0972   10.7536 H   0  0  0  0  0  0  0  0  0  0  0  0
   40.4747   22.8381    8.8045 H   0  0  0  0  0  0  0  0  0  0  0  0
   40.6201   21.0701    7.0908 H   0  0  0  0  0  0  0  0  0  0  0  0
   42.2832   18.7972    6.3476 H   0  0  0  0  0  0  0  0  0  0  0  0
   44.4701   17.7217    7.2398 H   0  0  0  0  0  0  0  0  0  0  0  0
   46.4568   18.5340    9.1521 H   0  0  0  0  0  0  0  0  0  0  0  0
   45.9984   19.9458   10.1562 H   0  0  0  0  0  0  0  0  0  0  0  0
   45.0522   16.2371    9.7916 H   0  0  0  0  0  0  0  0  0  0  0  0
   44.1788   14.1409   11.4754 H   0  0  0  0  0  0  0  0  0  0  0  0
   43.4330   13.7837   13.8331 H   0  0  0  0  0  0  0  0  0  0  0  0
   44.1909   17.8679   14.8337 H   0  0  0  0  0  0  0  0  0  0  0  0
  7  8  1  0
  7  6  1  0
  8  9  2  0
  5  6  2  0
  5  4  1  0
  6  1  1  0
  9  1  1  0
  9 10  1  0
  4  3  2  0
  1  2  2  0
 10 11  1  0
  2  3  1  0
 12 11  1  0
 12 13  1  0
 11 19  2  0
 13 14  2  0
 13 18  1  0
 19 18  1  0
 14 15  1  0
 18 17  2  0
 15 16  2  0
 17 16  1  0
  2 20  1  0
  3 21  1  0
  4 22  1  0
  5 23  1  0
  7 24  1  0
  8 25  1  0
 10 26  1  0
 10 27  1  0
 12 28  1  0
 14 29  1  0
 15 30  1  0
 17 31  1  0
A    1
CAS
A    2
CAE
A    3
CAB
A    4
CAA
A    5
CAD
A    6
CAQ
A    7
NAL
A    8
CAH
A    9
CAN
A   10
CAI
A   11
CAO
A   12
NAM
A   13
CAR
A   14
CAF
A   15
CAC
A   16
NAJ
A   17
CAG
A   18
CAP
A   19
NAK
M  END
