4EQZ_AW0_A_501
     RDKit          3D

 70 73  0  0  0  0  0  0  0  0999 V2000
   15.1660   59.7090   -9.9390 N   0  0  0  0  0  0  0  0  0  0  0  0
   16.3830   59.0770   -9.6680 C   0  0  0  0  0  0  0  0  0  0  0  0
   17.5300   59.8600   -9.5890 N   0  0  0  0  0  0  0  0  0  0  0  0
   17.4530   61.1880   -9.7200 C   0  0  0  0  0  0  0  0  0  0  0  0
   16.2700   61.7730   -9.9750 C   0  0  0  0  0  0  0  0  0  0  0  0
   15.1620   61.0310  -10.0940 C   0  0  0  0  0  0  0  0  0  0  0  0
   14.0300   61.6650  -10.3490 N   0  0  0  0  0  0  0  0  0  0  0  0
   16.4820   63.0870  -10.0580 N   0  0  0  0  0  0  0  0  0  0  0  0
   17.7870   63.3130   -9.8910 C   0  0  0  0  0  0  0  0  0  0  0  0
   18.3950   62.1310   -9.6530 N   0  0  0  0  0  0  0  0  0  0  0  0
   20.5070   65.7330    3.4570 C   0  0  0  0  0  0  0  0  0  0  0  0
   21.4370   65.8660   -5.4760 C   0  0  0  0  0  0  0  0  0  0  0  0
   19.4570   64.4600   -5.9790 C   0  0  0  0  0  0  0  0  0  0  0  0
   23.7620   63.4710   -1.6200 O   0  0  0  0  0  0  0  0  0  0  0  0
   22.9220   61.4000   -9.9600 O   0  0  0  0  0  0  0  0  0  0  0  0
   20.8850   61.8600  -11.5200 O   0  0  0  0  0  0  0  0  0  0  0  0
   20.0720   63.9040    1.8520 C   0  0  0  0  0  0  0  0  0  0  0  0
   22.2810   64.7910    2.0580 C   0  0  0  0  0  0  0  0  0  0  0  0
   20.5460   63.0500    0.8700 C   0  0  0  0  0  0  0  0  0  0  0  0
   22.7520   63.9320    1.0620 C   0  0  0  0  0  0  0  0  0  0  0  0
   23.5370   61.9430   -4.8230 C   0  0  0  0  0  0  0  0  0  0  0  0
   24.3120   61.6700   -3.5430 C   0  0  0  0  0  0  0  0  0  0  0  0
   22.8250   63.3000   -4.7590 C   0  0  0  0  0  0  0  0  0  0  0  0
   21.9640   63.6210   -7.1430 C   0  0  0  0  0  0  0  0  0  0  0  0
   23.3820   61.4430   -2.4250 N   0  0  0  0  0  0  0  0  0  0  0  0
   22.2420   62.1500   -0.5050 N   0  0  0  0  0  0  0  0  0  0  0  0
   20.2400   62.2960   -8.0870 O   0  0  0  0  0  0  0  0  0  0  0  0
   23.1270   62.4220   -1.5240 C   0  0  0  0  0  0  0  0  0  0  0  0
   20.9460   64.8010    2.4650 C   0  0  0  0  0  0  0  0  0  0  0  0
   21.8880   63.0300    0.4560 C   0  0  0  0  0  0  0  0  0  0  0  0
   20.7810   64.4720   -5.2720 C   0  0  0  0  0  0  0  0  0  0  0  0
   22.1210   62.5780   -9.5420 C   0  0  0  0  0  0  0  0  0  0  0  0
   20.8030   62.5990  -10.3020 C   0  0  0  0  0  0  0  0  0  0  0  0
   21.7040   62.4020   -8.0610 C   0  0  0  0  0  0  0  0  0  0  0  0
   19.8530   61.8490   -9.3830 C   0  0  0  0  0  0  0  0  0  0  0  0
   21.6570   63.3440   -5.7140 N   0  0  0  0  0  0  0  0  0  0  0  0
   16.4324   57.9880   -9.5209 H   0  0  0  0  0  0  0  0  0  0  0  0
   13.4390   61.9960   -9.5731 H   0  0  0  0  0  0  0  0  0  0  0  0
   13.7392   61.8279  -11.3236 H   0  0  0  0  0  0  0  0  0  0  0  0
   18.2822   64.2940   -9.9390 H   0  0  0  0  0  0  0  0  0  0  0  0
   20.7010   65.3212    4.4584 H   0  0  0  0  0  0  0  0  0  0  0  0
   21.0537   66.6801    3.3378 H   0  0  0  0  0  0  0  0  0  0  0  0
   19.4287   65.9146    3.3378 H   0  0  0  0  0  0  0  0  0  0  0  0
   21.6497   66.3181   -4.4960 H   0  0  0  0  0  0  0  0  0  0  0  0
   22.3755   65.7509   -6.0382 H   0  0  0  0  0  0  0  0  0  0  0  0
   20.7501   66.5157   -6.0382 H   0  0  0  0  0  0  0  0  0  0  0  0
   18.6451   64.4526   -5.2369 H   0  0  0  0  0  0  0  0  0  0  0  0
   19.3697   65.3574   -6.6091 H   0  0  0  0  0  0  0  0  0  0  0  0
   19.3859   63.5612   -6.6091 H   0  0  0  0  0  0  0  0  0  0  0  0
   23.2478   60.9208   -9.1573 H   0  0  0  0  0  0  0  0  0  0  0  0
   20.9918   60.8973  -11.3153 H   0  0  0  0  0  0  0  0  0  0  0  0
   19.0126   63.8748    2.1465 H   0  0  0  0  0  0  0  0  0  0  0  0
   22.9873   65.4840    2.5385 H   0  0  0  0  0  0  0  0  0  0  0  0
   19.8391   62.3556    0.3924 H   0  0  0  0  0  0  0  0  0  0  0  0
   23.8084   63.9704    0.7577 H   0  0  0  0  0  0  0  0  0  0  0  0
   22.7875   61.1505   -4.9651 H   0  0  0  0  0  0  0  0  0  0  0  0
   24.2461   61.9600   -5.6637 H   0  0  0  0  0  0  0  0  0  0  0  0
   24.9390   60.7769   -3.6812 H   0  0  0  0  0  0  0  0  0  0  0  0
   24.9441   62.5404   -3.3133 H   0  0  0  0  0  0  0  0  0  0  0  0
   22.4588   63.4661   -3.7351 H   0  0  0  0  0  0  0  0  0  0  0  0
   23.5408   64.0849   -5.0446 H   0  0  0  0  0  0  0  0  0  0  0  0
   23.0238   63.9036   -7.2262 H   0  0  0  0  0  0  0  0  0  0  0  0
   21.2977   64.4316   -7.4732 H   0  0  0  0  0  0  0  0  0  0  0  0
   22.9192   60.5281   -2.3264 H   0  0  0  0  0  0  0  0  0  0  0  0
   21.8209   61.2105   -0.4736 H   0  0  0  0  0  0  0  0  0  0  0  0
   20.6298   64.3106   -4.1945 H   0  0  0  0  0  0  0  0  0  0  0  0
   22.7235   63.4811   -9.7192 H   0  0  0  0  0  0  0  0  0  0  0  0
   20.5036   63.6272  -10.5534 H   0  0  0  0  0  0  0  0  0  0  0  0
   22.2795   61.5502   -7.6695 H   0  0  0  0  0  0  0  0  0  0  0  0
   19.9288   60.7603   -9.5212 H   0  0  0  0  0  0  0  0  0  0  0  0
  6  1  2  0
  1  2  1  0
  2  3  2  0
  4  3  1  0
  5  4  2  0
  4 10  1  0
  6  5  1  0
  8  5  1  0
  7  6  1  0
  8  9  2  0
  9 10  1  0
 10 35  1  0
 29 11  1  0
 12 31  1  0
 13 31  1  0
 14 28  2  0
 15 32  1  0
 16 33  1  0
 19 17  2  0
 17 29  1  0
 20 18  1  0
 18 29  2  0
 30 19  1  0
 30 20  2  0
 21 23  1  0
 21 22  1  0
 22 25  1  0
 36 23  1  0
 34 24  1  0
 24 36  1  0
 25 28  1  0
 28 26  1  0
 26 30  1  0
 35 27  1  0
 27 34  1  0
 36 31  1  0
 33 32  1  0
 32 34  1  0
 33 35  1  0
  2 37  1  0
  7 38  1  0
  7 39  1  0
  9 40  1  0
 11 41  1  0
 11 42  1  0
 11 43  1  0
 12 44  1  0
 12 45  1  0
 12 46  1  0
 13 47  1  0
 13 48  1  0
 13 49  1  0
 15 50  1  0
 16 51  1  0
 17 52  1  0
 18 53  1  0
 19 54  1  0
 20 55  1  0
 21 56  1  0
 21 57  1  0
 22 58  1  0
 22 59  1  0
 23 60  1  0
 23 61  1  0
 24 62  1  0
 24 63  1  0
 25 64  1  0
 26 65  1  0
 31 66  1  0
 32 67  1  0
 33 68  1  0
 34 69  1  0
 35 70  1  0
A    1
N1
A    2
C2
A    3
N3
A    4
C4
A    5
C5
A    6
C6
A    7
N6
A    8
N7
A    9
C8
A   10
N9
A   11
CAA
A   12
CAB
A   13
CAC
A   14
OAE
A   15
OAF
A   16
OAG
A   17
CAI
A   18
CAJ
A   19
CAK
A   20
CAL
A   21
CAN
A   22
CAO
A   23
CAP
A   24
CAQ
A   25
NAU
A   26
NAV
A   27
OAW
A   28
CAX
A   29
CAY
A   30
CBA
A   31
CBD
A   32
CBE
A   33
CBF
A   34
CBG
A   35
CBH
A   36
NBI
M  END
