4ER0_AW1_A_501
     RDKit          3D

 79 82  0  0  0  0  0  0  0  0999 V2000
   15.1540   60.1400   -9.9610 N   0  0  0  0  0  0  0  0  0  0  0  0
   16.3620   59.4370   -9.6940 C   0  0  0  0  0  0  0  0  0  0  0  0
   17.5680   60.1600   -9.5660 N   0  0  0  0  0  0  0  0  0  0  0  0
   17.5410   61.4910   -9.7210 C   0  0  0  0  0  0  0  0  0  0  0  0
   16.3840   62.1330   -9.9680 C   0  0  0  0  0  0  0  0  0  0  0  0
   15.2300   61.4690  -10.0930 C   0  0  0  0  0  0  0  0  0  0  0  0
   14.1630   62.2090  -10.3490 N   0  0  0  0  0  0  0  0  0  0  0  0
   16.6540   63.4350  -10.0610 N   0  0  0  0  0  0  0  0  0  0  0  0
   17.9600   63.6050   -9.8860 C   0  0  0  0  0  0  0  0  0  0  0  0
   18.5020   62.4060   -9.6630 N   0  0  0  0  0  0  0  0  0  0  0  0
   22.1680   66.3190   -5.8020 C   0  0  0  0  0  0  0  0  0  0  0  0
   20.0230   65.1620   -5.7120 C   0  0  0  0  0  0  0  0  0  0  0  0
   23.1230   66.7820    3.8570 C   0  0  0  0  0  0  0  0  0  0  0  0
   20.7120   66.7080    3.1920 C   0  0  0  0  0  0  0  0  0  0  0  0
   21.6140   65.0260    4.7920 C   0  0  0  0  0  0  0  0  0  0  0  0
   24.3030   63.8910   -1.7860 O   0  0  0  0  0  0  0  0  0  0  0  0
   22.8940   61.6910  -10.1940 O   0  0  0  0  0  0  0  0  0  0  0  0
   20.9240   62.0610  -11.6600 O   0  0  0  0  0  0  0  0  0  0  0  0
   21.4840   63.2480    0.9240 C   0  0  0  0  0  0  0  0  0  0  0  0
   23.7020   64.1780    0.7090 C   0  0  0  0  0  0  0  0  0  0  0  0
   21.2330   64.0920    2.0020 C   0  0  0  0  0  0  0  0  0  0  0  0
   23.4430   65.0280    1.7850 C   0  0  0  0  0  0  0  0  0  0  0  0
   23.8890   63.5600   -4.5240 C   0  0  0  0  0  0  0  0  0  0  0  0
   24.6510   62.3120   -3.9630 C   0  0  0  0  0  0  0  0  0  0  0  0
   23.4110   63.2730   -5.8970 C   0  0  0  0  0  0  0  0  0  0  0  0
   21.9820   64.1560   -7.6270 C   0  0  0  0  0  0  0  0  0  0  0  0
   23.9140   61.9300   -2.7840 N   0  0  0  0  0  0  0  0  0  0  0  0
   22.9160   62.4170   -0.7840 N   0  0  0  0  0  0  0  0  0  0  0  0
   20.3550   62.6000   -8.2130 O   0  0  0  0  0  0  0  0  0  0  0  0
   23.7250   62.8000   -1.7880 C   0  0  0  0  0  0  0  0  0  0  0  0
   22.7170   63.2710    0.2680 C   0  0  0  0  0  0  0  0  0  0  0  0
   22.2110   64.9820    2.4480 C   0  0  0  0  0  0  0  0  0  0  0  0
   21.5100   65.0140   -5.4320 C   0  0  0  0  0  0  0  0  0  0  0  0
   22.1610   62.8950   -9.8120 C   0  0  0  0  0  0  0  0  0  0  0  0
   20.8190   62.8500  -10.4830 C   0  0  0  0  0  0  0  0  0  0  0  0
   21.8360   62.8240   -8.3470 C   0  0  0  0  0  0  0  0  0  0  0  0
   19.9180   62.1200   -9.4390 C   0  0  0  0  0  0  0  0  0  0  0  0
   22.0450   63.8470   -6.2000 N   0  0  0  0  0  0  0  0  0  0  0  0
   21.9300   65.8510    3.5470 C   0  0  0  0  0  0  0  0  0  0  0  0
   16.3563   58.3421   -9.5885 H   0  0  0  0  0  0  0  0  0  0  0  0
   13.6060   62.5953   -9.5735 H   0  0  0  0  0  0  0  0  0  0  0  0
   13.8896   62.3986  -11.3238 H   0  0  0  0  0  0  0  0  0  0  0  0
   18.4987   64.5635   -9.9190 H   0  0  0  0  0  0  0  0  0  0  0  0
   22.4426   66.8637   -4.8866 H   0  0  0  0  0  0  0  0  0  0  0  0
   23.0727   66.1184   -6.3947 H   0  0  0  0  0  0  0  0  0  0  0  0
   21.4688   66.9271   -6.3947 H   0  0  0  0  0  0  0  0  0  0  0  0
   19.4743   65.2166   -4.7602 H   0  0  0  0  0  0  0  0  0  0  0  0
   19.8484   66.0820   -6.2892 H   0  0  0  0  0  0  0  0  0  0  0  0
   19.6705   64.2945   -6.2892 H   0  0  0  0  0  0  0  0  0  0  0  0
   23.2421   66.8749    4.9466 H   0  0  0  0  0  0  0  0  0  0  0  0
   24.0408   66.3590    3.4226 H   0  0  0  0  0  0  0  0  0  0  0  0
   22.9357   67.7751    3.4226 H   0  0  0  0  0  0  0  0  0  0  0  0
   20.2236   67.0516    4.1158 H   0  0  0  0  0  0  0  0  0  0  0  0
   21.0355   67.5786    2.6026 H   0  0  0  0  0  0  0  0  0  0  0  0
   20.0018   66.1095    2.6026 H   0  0  0  0  0  0  0  0  0  0  0  0
   21.8406   65.6177    5.6912 H   0  0  0  0  0  0  0  0  0  0  0  0
   20.5481   64.7542    4.7909 H   0  0  0  0  0  0  0  0  0  0  0  0
   22.2256   64.1117    4.7909 H   0  0  0  0  0  0  0  0  0  0  0  0
   23.1866   61.2104   -9.3794 H   0  0  0  0  0  0  0  0  0  0  0  0
   21.0504   61.1113  -11.4105 H   0  0  0  0  0  0  0  0  0  0  0  0
   20.7012   62.5539    0.5843 H   0  0  0  0  0  0  0  0  0  0  0  0
   24.6781   64.2158    0.2032 H   0  0  0  0  0  0  0  0  0  0  0  0
   20.2561   64.0572    2.5063 H   0  0  0  0  0  0  0  0  0  0  0  0
   24.2136   65.7403    2.1150 H   0  0  0  0  0  0  0  0  0  0  0  0
   24.5685   64.4248   -4.5459 H   0  0  0  0  0  0  0  0  0  0  0  0
   23.0286   63.7849   -3.8766 H   0  0  0  0  0  0  0  0  0  0  0  0
   24.6531   61.4956   -4.7002 H   0  0  0  0  0  0  0  0  0  0  0  0
   25.7049   62.5346   -3.7400 H   0  0  0  0  0  0  0  0  0  0  0  0
   24.1319   63.6977   -6.6111 H   0  0  0  0  0  0  0  0  0  0  0  0
   23.3259   62.1798   -5.9847 H   0  0  0  0  0  0  0  0  0  0  0  0
   22.9039   64.6632   -7.9478 H   0  0  0  0  0  0  0  0  0  0  0  0
   21.1404   64.8270   -7.8537 H   0  0  0  0  0  0  0  0  0  0  0  0
   23.5296   60.9773   -2.7090 H   0  0  0  0  0  0  0  0  0  0  0  0
   22.4539   61.4968   -0.8060 H   0  0  0  0  0  0  0  0  0  0  0  0
   21.7169   64.8083   -4.3714 H   0  0  0  0  0  0  0  0  0  0  0  0
   22.7586   63.7806  -10.0738 H   0  0  0  0  0  0  0  0  0  0  0  0
   20.4304   63.8384  -10.7694 H   0  0  0  0  0  0  0  0  0  0  0  0
   22.5053   62.0537   -7.9362 H   0  0  0  0  0  0  0  0  0  0  0  0
   20.0006   61.0251   -9.5056 H   0  0  0  0  0  0  0  0  0  0  0  0
  6  1  2  0
  1  2  1  0
  2  3  2  0
  4  3  1  0
  5  4  2  0
  4 10  1  0
  6  5  1  0
  8  5  1  0
  7  6  1  0
  8  9  2  0
  9 10  1  0
 10 37  1  0
 11 33  1  0
 12 33  1  0
 39 13  1  0
 14 39  1  0
 39 15  1  0
 30 16  2  0
 17 34  1  0
 18 35  1  0
 31 19  2  0
 19 21  1  0
 31 20  1  0
 20 22  2  0
 21 32  2  0
 22 32  1  0
 25 23  1  0
 23 24  1  0
 24 27  1  0
 38 25  1  0
 36 26  1  0
 26 38  1  0
 27 30  1  0
 30 28  1  0
 28 31  1  0
 37 29  1  0
 36 29  1  0
 32 39  1  0
 38 33  1  0
 35 34  1  0
 34 36  1  0
 35 37  1  0
  2 40  1  0
  7 41  1  0
  7 42  1  0
  9 43  1  0
 11 44  1  0
 11 45  1  0
 11 46  1  0
 12 47  1  0
 12 48  1  0
 12 49  1  0
 13 50  1  0
 13 51  1  0
 13 52  1  0
 14 53  1  0
 14 54  1  0
 14 55  1  0
 15 56  1  0
 15 57  1  0
 15 58  1  0
 17 59  1  0
 18 60  1  0
 19 61  1  0
 20 62  1  0
 21 63  1  0
 22 64  1  0
 23 65  1  0
 23 66  1  0
 24 67  1  0
 24 68  1  0
 25 69  1  0
 25 70  1  0
 26 71  1  0
 26 72  1  0
 27 73  1  0
 28 74  1  0
 33 75  1  0
 34 76  1  0
 35 77  1  0
 36 78  1  0
 37 79  1  0
A    1
N1
A    2
C2
A    3
N3
A    4
C4
A    5
C5
A    6
C6
A    7
N6
A    8
N7
A    9
C8
A   10
N9
A   11
CAA
A   12
CAB
A   13
CAC
A   14
CAD
A   15
CAE
A   16
OAG
A   17
OAH
A   18
OAI
A   19
CAK
A   20
CAL
A   21
CAM
A   22
CAN
A   23
CAP
A   24
CAQ
A   25
CAR
A   26
CAS
A   27
NAW
A   28
NAX
A   29
OAY
A   30
CAZ
A   31
CBB
A   32
CBC
A   33
CBF
A   34
CBG
A   35
CBH
A   36
CBI
A   37
CBJ
A   38
NBK
A   39
CBM
M  END
