4ER6_AW2_A_502
     RDKit          3D

 80 83  0  0  0  0  0  0  0  0999 V2000
   15.0900   64.9800  -10.6170 Br  0  0  0  0  0  0  0  0  0  0  0  0
   13.7990   61.8480  -10.5650 N   0  0  0  0  0  0  0  0  0  0  0  0
   15.0200   61.4130  -10.2550 C   0  0  0  0  0  0  0  0  0  0  0  0
   15.1970   60.0850  -10.0720 N   0  0  0  0  0  0  0  0  0  0  0  0
   16.4200   59.6430   -9.7590 C   0  0  0  0  0  0  0  0  0  0  0  0
   17.5480   60.3440   -9.5960 N   0  0  0  0  0  0  0  0  0  0  0  0
   17.3590   61.6630   -9.7810 C   0  0  0  0  0  0  0  0  0  0  0  0
   16.1360   62.2720  -10.1090 C   0  0  0  0  0  0  0  0  0  0  0  0
   16.4050   63.6740  -10.1990 C   0  0  0  0  0  0  0  0  0  0  0  0
   17.7250   63.8700   -9.9400 C   0  0  0  0  0  0  0  0  0  0  0  0
   18.3160   62.6460   -9.6700 N   0  0  0  0  0  0  0  0  0  0  0  0
   19.7360   62.4280   -9.3720 C   0  0  0  0  0  0  0  0  0  0  0  0
   20.0680   63.0090   -8.1420 O   0  0  0  0  0  0  0  0  0  0  0  0
   21.5140   63.0090   -8.0860 C   0  0  0  0  0  0  0  0  0  0  0  0
   21.9610   64.1050   -7.1850 C   0  0  0  0  0  0  0  0  0  0  0  0
   21.9150   63.9040   -5.7330 N   0  0  0  0  0  0  0  0  0  0  0  0
   23.2600   63.7820   -5.1440 C   0  0  0  0  0  0  0  0  0  0  0  0
   23.9630   62.4680   -5.4460 C   0  0  0  0  0  0  0  0  0  0  0  0
   24.6370   61.8170   -4.2580 C   0  0  0  0  0  0  0  0  0  0  0  0
   23.7080   61.6060   -3.1540 N   0  0  0  0  0  0  0  0  0  0  0  0
   23.6480   62.4460   -2.1100 C   0  0  0  0  0  0  0  0  0  0  0  0
   22.7160   62.1150   -1.1720 N   0  0  0  0  0  0  0  0  0  0  0  0
   22.4640   62.8340    0.0200 C   0  0  0  0  0  0  0  0  0  0  0  0
   23.3850   63.7890    0.4350 C   0  0  0  0  0  0  0  0  0  0  0  0
   23.1720   64.5020    1.5930 C   0  0  0  0  0  0  0  0  0  0  0  0
   22.0430   64.2890    2.3710 C   0  0  0  0  0  0  0  0  0  0  0  0
   21.8180   65.0980    3.6540 C   0  0  0  0  0  0  0  0  0  0  0  0
   20.5380   65.9250    3.5210 C   0  0  0  0  0  0  0  0  0  0  0  0
   21.6870   64.1790    4.8660 C   0  0  0  0  0  0  0  0  0  0  0  0
   23.0170   66.0290    3.9140 C   0  0  0  0  0  0  0  0  0  0  0  0
   21.1280   63.3320    1.9450 C   0  0  0  0  0  0  0  0  0  0  0  0
   21.3310   62.6130    0.7840 C   0  0  0  0  0  0  0  0  0  0  0  0
   24.3730   63.4360   -2.0110 O   0  0  0  0  0  0  0  0  0  0  0  0
   21.1040   64.9840   -5.1580 C   0  0  0  0  0  0  0  0  0  0  0  0
   19.6250   64.6880   -5.3120 C   0  0  0  0  0  0  0  0  0  0  0  0
   21.4910   66.3440   -5.7230 C   0  0  0  0  0  0  0  0  0  0  0  0
   22.0000   63.1630   -9.5300 C   0  0  0  0  0  0  0  0  0  0  0  0
   22.9650   62.1530   -9.8030 O   0  0  0  0  0  0  0  0  0  0  0  0
   20.7030   63.0590  -10.3690 C   0  0  0  0  0  0  0  0  0  0  0  0
   20.8420   62.2180  -11.5000 O   0  0  0  0  0  0  0  0  0  0  0  0
   13.1317   62.0857   -9.8173 H   0  0  0  0  0  0  0  0  0  0  0  0
   13.5226   61.9465  -11.5523 H   0  0  0  0  0  0  0  0  0  0  0  0
   16.5107   58.5561   -9.6163 H   0  0  0  0  0  0  0  0  0  0  0  0
   18.2401   64.8419   -9.9441 H   0  0  0  0  0  0  0  0  0  0  0  0
   19.8445   61.3336   -9.3964 H   0  0  0  0  0  0  0  0  0  0  0  0
   21.9361   62.0823   -7.6699 H   0  0  0  0  0  0  0  0  0  0  0  0
   23.0062   64.3282   -7.4451 H   0  0  0  0  0  0  0  0  0  0  0  0
   21.2251   64.9035   -7.3610 H   0  0  0  0  0  0  0  0  0  0  0  0
   23.8815   64.6018   -5.5336 H   0  0  0  0  0  0  0  0  0  0  0  0
   23.1289   63.8234   -4.0526 H   0  0  0  0  0  0  0  0  0  0  0  0
   23.2162   61.7645   -5.8427 H   0  0  0  0  0  0  0  0  0  0  0  0
   24.7633   62.7045   -6.1627 H   0  0  0  0  0  0  0  0  0  0  0  0
   25.0456   60.8444   -4.5698 H   0  0  0  0  0  0  0  0  0  0  0  0
   25.4349   62.4887   -3.9085 H   0  0  0  0  0  0  0  0  0  0  0  0
   23.0806   60.7894   -3.1765 H   0  0  0  0  0  0  0  0  0  0  0  0
   22.1490   61.2727   -1.3452 H   0  0  0  0  0  0  0  0  0  0  0  0
   24.2880   63.9757   -0.1647 H   0  0  0  0  0  0  0  0  0  0  0  0
   23.9103   65.2544    1.9074 H   0  0  0  0  0  0  0  0  0  0  0  0
   20.1555   66.1722    4.5223 H   0  0  0  0  0  0  0  0  0  0  0  0
   20.7565   66.8532    2.9725 H   0  0  0  0  0  0  0  0  0  0  0  0
   19.7816   65.3444    2.9725 H   0  0  0  0  0  0  0  0  0  0  0  0
   21.7717   64.7734    5.7877 H   0  0  0  0  0  0  0  0  0  0  0  0
   20.7083   63.6775    4.8418 H   0  0  0  0  0  0  0  0  0  0  0  0
   22.4866   63.4240    4.8418 H   0  0  0  0  0  0  0  0  0  0  0  0
   23.1642   66.1433    4.9981 H   0  0  0  0  0  0  0  0  0  0  0  0
   23.9224   65.5949    3.4648 H   0  0  0  0  0  0  0  0  0  0  0  0
   22.8208   67.0137    3.4648 H   0  0  0  0  0  0  0  0  0  0  0  0
   20.2252   63.1444    2.5447 H   0  0  0  0  0  0  0  0  0  0  0  0
   20.5914   61.8635    0.4657 H   0  0  0  0  0  0  0  0  0  0  0  0
   21.3147   65.0312   -4.0794 H   0  0  0  0  0  0  0  0  0  0  0  0
   19.1640   64.5957   -4.3175 H   0  0  0  0  0  0  0  0  0  0  0  0
   19.1427   65.5074   -5.8651 H   0  0  0  0  0  0  0  0  0  0  0  0
   19.4952   63.7461   -5.8651 H   0  0  0  0  0  0  0  0  0  0  0  0
   21.6895   67.0416   -4.8960 H   0  0  0  0  0  0  0  0  0  0  0  0
   22.3954   66.2406   -6.3406 H   0  0  0  0  0  0  0  0  0  0  0  0
   20.6677   66.7322   -6.3406 H   0  0  0  0  0  0  0  0  0  0  0  0
   22.5144   64.1088   -9.7556 H   0  0  0  0  0  0  0  0  0  0  0  0
   23.3124   61.7894   -8.9502 H   0  0  0  0  0  0  0  0  0  0  0  0
   20.3909   64.0308  -10.7792 H   0  0  0  0  0  0  0  0  0  0  0  0
   20.9959   61.2866  -11.2017 H   0  0  0  0  0  0  0  0  0  0  0  0
  1  9  1  0
  2  3  1  0
  3  8  2  0
  3  4  1  0
  4  5  2  0
  5  6  1  0
  7  6  2  0
  8  7  1  0
  7 11  1  0
  9  8  1  0
  9 10  2  0
 10 11  1  0
 11 12  1  0
 39 12  1  0
 12 13  1  0
 13 14  1  0
 37 14  1  0
 14 15  1  0
 15 16  1  0
 16 34  1  0
 16 17  1  0
 18 17  1  0
 18 19  1  0
 19 20  1  0
 20 21  1  0
 21 33  2  0
 21 22  1  0
 22 23  1  0
 23 24  2  0
 23 32  1  0
 24 25  1  0
 25 26  2  0
 31 26  1  0
 26 27  1  0
 28 27  1  0
 27 30  1  0
 27 29  1  0
 32 31  2  0
 36 34  1  0
 35 34  1  0
 39 37  1  0
 38 37  1  0
 40 39  1  0
  2 41  1  0
  2 42  1  0
  5 43  1  0
 10 44  1  0
 12 45  1  0
 14 46  1  0
 15 47  1  0
 15 48  1  0
 17 49  1  0
 17 50  1  0
 18 51  1  0
 18 52  1  0
 19 53  1  0
 19 54  1  0
 20 55  1  0
 22 56  1  0
 24 57  1  0
 25 58  1  0
 28 59  1  0
 28 60  1  0
 28 61  1  0
 29 62  1  0
 29 63  1  0
 29 64  1  0
 30 65  1  0
 30 66  1  0
 30 67  1  0
 31 68  1  0
 32 69  1  0
 34 70  1  0
 35 71  1  0
 35 72  1  0
 35 73  1  0
 36 74  1  0
 36 75  1  0
 36 76  1  0
 37 77  1  0
 38 78  1  0
 39 79  1  0
 40 80  1  0
A    1
BR9
A    2
N01
A    3
C02
A    4
N03
A    5
C04
A    6
N05
A    7
C06
A    8
C07
A    9
C08
A   10
C10
A   11
N11
A   12
C12
A   13
O13
A   14
C14
A   15
C15
A   16
N16
A   17
C17
A   18
C18
A   19
C19
A   20
N20
A   21
C21
A   22
N22
A   23
C23
A   24
C24
A   25
C25
A   26
C26
A   27
C27
A   28
C28
A   29
C29
A   30
C30
A   31
C31
A   32
C32
A   33
O33
A   34
C34
A   35
C35
A   36
C36
A   37
C37
A   38
O38
A   39
C39
A   40
O40
M  END
