4EWQ_MWL_A_402
     RDKit          3D

 51 55  0  0  0  0  0  0  0  0999 V2000
    2.8150    7.7580   25.7760 C   0  0  0  0  0  0  0  0  0  0  0  0
    2.0380    6.8160   25.2140 N   0  0  0  0  0  0  0  0  0  0  0  0
    3.6960    8.4950   24.9860 C   0  0  0  0  0  0  0  0  0  0  0  0
    3.7540    8.2360   23.6180 C   0  0  0  0  0  0  0  0  0  0  0  0
    2.9640    7.2800   23.0960 N   0  0  0  0  0  0  0  0  0  0  0  0
    2.0970    6.5640   23.8790 C   0  0  0  0  0  0  0  0  0  0  0  0
    1.2720    5.5700   23.2740 N   0  0  0  0  0  0  0  0  0  0  0  0
    0.1420    5.1650   24.1480 C   0  0  0  0  0  0  0  0  0  0  0  0
   -0.8210    4.1730   23.4740 C   0  0  0  0  0  0  0  0  0  0  0  0
    0.7900    6.1450   22.0130 C   0  0  0  0  0  0  0  0  0  0  0  0
   -0.3850    5.3850   21.4200 C   0  0  0  0  0  0  0  0  0  0  0  0
   -0.5280    4.0520   22.0340 N   0  0  0  0  0  0  0  0  0  0  0  0
   -1.4780    3.3010   21.2860 C   0  0  0  0  0  0  0  0  0  0  0  0
   -1.8260    1.9940   21.6070 C   0  0  0  0  0  0  0  0  0  0  0  0
   -2.0340    3.8550   20.1990 N   0  0  0  0  0  0  0  0  0  0  0  0
   -2.9430    3.1560   19.4100 N   0  0  0  0  0  0  0  0  0  0  0  0
   -3.2920    1.8980   19.7090 C   0  0  0  0  0  0  0  0  0  0  0  0
   -4.2580    1.3420   18.7670 C   0  0  0  0  0  0  0  0  0  0  0  0
   -3.9530    1.4410   17.4160 C   0  0  0  0  0  0  0  0  0  0  0  0
   -4.8420    0.9570   16.4890 C   0  0  0  0  0  0  0  0  0  0  0  0
   -6.0430    0.3900   16.9050 C   0  0  0  0  0  0  0  0  0  0  0  0
   -6.3460    0.3060   18.2600 C   0  0  0  0  0  0  0  0  0  0  0  0
   -5.4620    0.7950   19.1890 C   0  0  0  0  0  0  0  0  0  0  0  0
   -2.7530    1.2790   20.8420 C   0  0  0  0  0  0  0  0  0  0  0  0
   -2.9830   -0.1290   21.2910 C   0  0  0  0  0  0  0  0  0  0  0  0
   -2.8720   -1.1740   20.3880 C   0  0  0  0  0  0  0  0  0  0  0  0
   -3.1960   -0.4390   22.6280 C   0  0  0  0  0  0  0  0  0  0  0  0
   -3.3440   -1.7610   23.0230 C   0  0  0  0  0  0  0  0  0  0  0  0
   -3.2570   -2.7470   22.1340 N   0  0  0  0  0  0  0  0  0  0  0  0
   -3.0210   -2.4770   20.8370 C   0  0  0  0  0  0  0  0  0  0  0  0
    2.7557    7.9471   26.8580 H   0  0  0  0  0  0  0  0  0  0  0  0
    4.3354    9.2690   25.4355 H   0  0  0  0  0  0  0  0  0  0  0  0
    4.4378    8.8065   22.9723 H   0  0  0  0  0  0  0  0  0  0  0  0
    0.5520    4.6937   25.0534 H   0  0  0  0  0  0  0  0  0  0  0  0
   -0.4339    6.0733   24.3791 H   0  0  0  0  0  0  0  0  0  0  0  0
   -1.8537    4.5294   23.6028 H   0  0  0  0  0  0  0  0  0  0  0  0
   -0.6942    3.1860   23.9428 H   0  0  0  0  0  0  0  0  0  0  0  0
    1.6155    6.1354   21.2861 H   0  0  0  0  0  0  0  0  0  0  0  0
    0.4433    7.1661   22.2303 H   0  0  0  0  0  0  0  0  0  0  0  0
   -1.3069    5.9596   21.5929 H   0  0  0  0  0  0  0  0  0  0  0  0
   -0.2040    5.2527   20.3431 H   0  0  0  0  0  0  0  0  0  0  0  0
   -1.3627    1.5123   22.4807 H   0  0  0  0  0  0  0  0  0  0  0  0
   -3.0086    1.9026   17.0920 H   0  0  0  0  0  0  0  0  0  0  0  0
   -4.6051    1.0173   15.4165 H   0  0  0  0  0  0  0  0  0  0  0  0
   -6.7553    0.0068   16.1595 H   0  0  0  0  0  0  0  0  0  0  0  0
   -7.2918   -0.1512   18.5862 H   0  0  0  0  0  0  0  0  0  0  0  0
   -5.7059    0.7537   20.2608 H   0  0  0  0  0  0  0  0  0  0  0  0
   -2.6678   -0.9718   19.3262 H   0  0  0  0  0  0  0  0  0  0  0  0
   -3.2475    0.3659   23.3760 H   0  0  0  0  0  0  0  0  0  0  0  0
   -3.5349   -1.9958   24.0805 H   0  0  0  0  0  0  0  0  0  0  0  0
   -2.9448   -3.3067   20.1188 H   0  0  0  0  0  0  0  0  0  0  0  0
 20 21  1  0
 20 19  2  0
 21 22  2  0
 19 18  1  0
 22 23  1  0
 18 23  2  0
 18 17  1  0
 16 17  2  0
 16 15  1  0
 17 24  1  0
 15 13  2  0
 26 30  2  0
 26 25  1  0
 30 29  1  0
 24 25  1  0
 24 14  2  0
 13 14  1  0
 13 12  1  0
 25 27  2  0
 11 10  1  0
 11 12  1  0
 10  7  1  0
 12  9  1  0
 29 28  2  0
 27 28  1  0
  5  4  2  0
  5  6  1  0
  7  6  1  0
  7  8  1  0
  9  8  1  0
  4  3  1  0
  6  2  2  0
  3  1  2  0
  2  1  1  0
  1 31  1  0
  3 32  1  0
  4 33  1  0
  8 34  1  0
  8 35  1  0
  9 36  1  0
  9 37  1  0
 10 38  1  0
 10 39  1  0
 11 40  1  0
 11 41  1  0
 14 42  1  0
 19 43  1  0
 20 44  1  0
 21 45  1  0
 22 46  1  0
 23 47  1  0
 26 48  1  0
 27 49  1  0
 28 50  1  0
 30 51  1  0
A    1
C1
A    2
N2
A    3
C6
A    4
C5
A    5
N4
A    6
C3
A    7
N7
A    8
C8
A    9
C9
A   10
C12
A   11
C11
A   12
N10
A   13
C13
A   14
C14
A   15
N18
A   16
N17
A   17
C16
A   18
C20
A   19
C21
A   20
C22
A   21
C23
A   22
C24
A   23
C25
A   24
C15
A   25
C19
A   26
C30
A   27
C26
A   28
C27
A   29
N28
A   30
C29
M  END
