1J37_X8Z_A_801
     RDKit          3D

 29 29  0  0  0  0  0  0  0  0999 V2000
   11.8780   -2.6990   17.1680 O   0  0  0  0  0  0  0  0  0  0  0  0
   11.9240   -3.5900   18.0660 C   0  0  0  0  0  0  0  0  0  0  0  0
   10.8730   -4.6980   18.1030 C   0  0  0  0  0  0  0  0  0  0  0  0
    9.5000   -4.0100   18.1130 C   0  0  0  0  0  0  0  0  0  0  0  0
    8.1180   -5.1660   18.1620 S   0  0  0  0  0  0  0  0  0  0  0  0
   11.0970   -5.6510   16.9240 C   0  0  0  0  0  0  0  0  0  0  0  0
   12.8860   -3.5530   18.9960 N   0  0  0  0  0  0  0  0  0  0  0  0
   13.9290   -2.4840   19.0320 C   0  0  0  0  0  0  0  0  0  0  0  0
   14.7460   -2.4090   17.7410 C   0  0  0  0  0  0  0  0  0  0  0  0
   14.8540   -3.3400   16.9830 O   0  0  0  0  0  0  0  0  0  0  0  0
   15.3030   -1.2610   17.5100 O   0  0  0  0  0  0  0  0  0  0  0  0
   13.0810   -4.5230   20.1270 C   0  0  0  0  0  0  0  0  0  0  0  0
   14.2390   -4.0250   20.9000 C   0  0  0  0  0  0  0  0  0  0  0  0
   14.7850   -2.7970   20.2280 C   0  0  0  0  0  0  0  0  0  0  0  0
   10.9414   -5.3280   19.0022 H   0  0  0  0  0  0  0  0  0  0  0  0
    9.4423   -3.3604   18.9988 H   0  0  0  0  0  0  0  0  0  0  0  0
    9.4149   -3.4431   17.1742 H   0  0  0  0  0  0  0  0  0  0  0  0
    7.7948   -5.4364   19.4656 H   0  0  0  0  0  0  0  0  0  0  0  0
   11.3332   -6.6557   17.3044 H   0  0  0  0  0  0  0  0  0  0  0  0
   10.1850   -5.6962   16.3106 H   0  0  0  0  0  0  0  0  0  0  0  0
   11.9336   -5.2852   16.3106 H   0  0  0  0  0  0  0  0  0  0  0  0
   13.4679   -1.4887   19.1147 H   0  0  0  0  0  0  0  0  0  0  0  0
   15.5823   -0.6854   18.2655 H   0  0  0  0  0  0  0  0  0  0  0  0
   12.1833   -4.5544   20.7619 H   0  0  0  0  0  0  0  0  0  0  0  0
   13.2551   -5.5436   19.7553 H   0  0  0  0  0  0  0  0  0  0  0  0
   13.9196   -3.7746   21.9224 H   0  0  0  0  0  0  0  0  0  0  0  0
   15.0173   -4.8011   20.9444 H   0  0  0  0  0  0  0  0  0  0  0  0
   15.8203   -2.9807   19.9049 H   0  0  0  0  0  0  0  0  0  0  0  0
   14.7757   -1.9494   20.9290 H   0  0  0  0  0  0  0  0  0  0  0  0
  1  2  2  0
  2  3  1  0
  2  7  1  0
  3  4  1  0
  3  6  1  0
  4  5  1  0
  7  8  1  0
  7 12  1  0
  8  9  1  0
  8 14  1  0
  9 10  2  0
  9 11  1  0
 12 13  1  0
 13 14  1  0
  3 15  1  0
  4 16  1  0
  4 17  1  0
  5 18  1  0
  6 19  1  0
  6 20  1  0
  6 21  1  0
  8 22  1  0
 11 23  1  0
 12 24  1  0
 12 25  1  0
 13 26  1  0
 13 27  1  0
 14 28  1  0
 14 29  1  0
A    1
O1
A    2
C4
A    3
C2
A    4
C1
A    5
S
A    6
C3
A    7
N
A    8
C8
A    9
C9
A   10
O3
A   11
O2
A   12
C5
A   13
C6
A   14
C7
M  END
