1DX6_GNT_A_602
     RDKit          3D

 42 45  0  0  0  0  0  0  0  0999 V2000
    2.4700   67.5340   63.2010 C   0  0  0  0  0  0  0  0  0  0  0  0
    2.5980   67.9070   61.9410 C   0  0  0  0  0  0  0  0  0  0  0  0
    3.9180   68.1530   61.2660 C   0  0  0  0  0  0  0  0  0  0  0  0
    5.1610   68.1640   62.2440 C   0  0  0  0  0  0  0  0  0  0  0  0
    5.0120   67.1520   63.4030 C   0  0  0  0  0  0  0  0  0  0  0  0
    3.6480   67.2060   64.1640 C   0  0  0  0  0  0  0  0  0  0  0  0
    5.1710   65.7760   62.8850 O   0  0  0  0  0  0  0  0  0  0  0  0
    4.5400   63.5580   63.7920 C   0  0  0  0  0  0  0  0  0  0  0  0
    3.6820   62.9140   64.7140 C   0  0  0  0  0  0  0  0  0  0  0  0
    2.8010   63.6430   65.5070 C   0  0  0  0  0  0  0  0  0  0  0  0
    1.7460   65.7880   66.3260 C   0  0  0  0  0  0  0  0  0  0  0  0
    2.3820   66.8880   67.1060 N   0  0  0  0  0  0  0  0  0  0  0  0
    2.5160   68.1600   66.3430 C   0  0  0  0  0  0  0  0  0  0  0  0
    3.7030   68.1500   65.3760 C   0  0  0  0  0  0  0  0  0  0  0  0
    4.4440   64.9750   63.7330 C   0  0  0  0  0  0  0  0  0  0  0  0
    3.5440   65.7100   64.5470 C   0  0  0  0  0  0  0  0  0  0  0  0
    2.7020   65.0540   65.4510 C   0  0  0  0  0  0  0  0  0  0  0  0
    5.4060   61.8070   62.3790 C   0  0  0  0  0  0  0  0  0  0  0  0
    5.6070   62.9560   63.1470 O   0  0  0  0  0  0  0  0  0  0  0  0
    4.1130   67.1290   60.3230 O   0  0  0  0  0  0  0  0  0  0  0  0
    1.6470   67.0900   68.4040 C   0  0  0  0  0  0  0  0  0  0  0  0
    1.4494   67.4482   63.6022 H   0  0  0  0  0  0  0  0  0  0  0  0
    1.6817   68.0463   61.3486 H   0  0  0  0  0  0  0  0  0  0  0  0
    3.8656   69.1557   60.8167 H   0  0  0  0  0  0  0  0  0  0  0  0
    6.0642   67.9114   61.6692 H   0  0  0  0  0  0  0  0  0  0  0  0
    5.2300   69.1693   62.6852 H   0  0  0  0  0  0  0  0  0  0  0  0
    5.7957   67.4347   64.1213 H   0  0  0  0  0  0  0  0  0  0  0  0
    3.7117   61.8182   64.8057 H   0  0  0  0  0  0  0  0  0  0  0  0
    2.1524   63.0983   66.2089 H   0  0  0  0  0  0  0  0  0  0  0  0
    1.2999   65.0724   67.0324 H   0  0  0  0  0  0  0  0  0  0  0  0
    0.9930   66.2486   65.6696 H   0  0  0  0  0  0  0  0  0  0  0  0
    1.5938   68.3223   65.7657 H   0  0  0  0  0  0  0  0  0  0  0  0
    2.6890   68.9661   67.0712 H   0  0  0  0  0  0  0  0  0  0  0  0
    4.5957   67.8797   65.9591 H   0  0  0  0  0  0  0  0  0  0  0  0
    3.7024   69.1578   64.9352 H   0  0  0  0  0  0  0  0  0  0  0  0
    5.2550   60.9436   63.0436 H   0  0  0  0  0  0  0  0  0  0  0  0
    4.5177   61.9410   61.7443 H   0  0  0  0  0  0  0  0  0  0  0  0
    6.2871   61.6315   61.7443 H   0  0  0  0  0  0  0  0  0  0  0  0
    4.2759   66.2735   60.7938 H   0  0  0  0  0  0  0  0  0  0  0  0
    2.3303   66.9022   69.2453 H   0  0  0  0  0  0  0  0  0  0  0  0
    1.2748   68.1237   68.4576 H   0  0  0  0  0  0  0  0  0  0  0  0
    0.7988   66.3917   68.4576 H   0  0  0  0  0  0  0  0  0  0  0  0
  1  2  2  0
  1  6  1  0
  2  3  1  0
  3  4  1  0
  3 20  1  0
  4  5  1  0
  5  6  1  0
  5  7  1  0
  6 14  1  0
  6 16  1  0
  7 15  1  0
  8  9  2  0
  8 15  1  0
  8 19  1  0
  9 10  1  0
 10 17  2  0
 11 12  1  0
 11 17  1  0
 12 13  1  0
 12 21  1  0
 13 14  1  0
 15 16  2  0
 16 17  1  0
 18 19  1  0
  1 22  1  0
  2 23  1  0
  3 24  1  0
  4 25  1  0
  4 26  1  0
  5 27  1  0
  9 28  1  0
 10 29  1  0
 11 30  1  0
 11 31  1  0
 13 32  1  0
 13 33  1  0
 14 34  1  0
 14 35  1  0
 18 36  1  0
 18 37  1  0
 18 38  1  0
 20 39  1  0
 21 40  1  0
 21 41  1  0
 21 42  1  0
A    1
C1
A    2
C2
A    3
C3
A    4
C4
A    5
C41
A    6
C42
A    7
O5
A    8
C6
A    9
C7
A   10
C8
A   11
C9
A   12
N10
A   13
C11
A   14
C12
A   15
C13
A   16
C14
A   17
C15
A   18
C16
A   19
O17
A   20
O18
A   21
C19
M  END
