1EVE_E20_A_2001
     RDKit          3D

 57 60  0  0  0  0  0  0  0  0999 V2000
    1.0570   60.0560   71.2400 C   0  0  0  0  0  0  0  0  0  0  0  0
    0.1880   61.0790   71.6280 C   0  0  0  0  0  0  0  0  0  0  0  0
    0.3470   62.4150   71.1710 C   0  0  0  0  0  0  0  0  0  0  0  0
    1.4470   62.7200   70.2700 C   0  0  0  0  0  0  0  0  0  0  0  0
    2.3060   61.6650   69.8810 C   0  0  0  0  0  0  0  0  0  0  0  0
    2.1400   60.3710   70.3620 C   0  0  0  0  0  0  0  0  0  0  0  0
    3.3650   62.0940   69.0160 C   0  0  0  0  0  0  0  0  0  0  0  0
    3.0860   63.5900   68.7400 C   0  0  0  0  0  0  0  0  0  0  0  0
    1.8390   63.9920   69.5580 C   0  0  0  0  0  0  0  0  0  0  0  0
    4.1050   64.5760   69.2450 C   0  0  0  0  0  0  0  0  0  0  0  0
    4.3070   65.8480   68.5330 C   0  0  0  0  0  0  0  0  0  0  0  0
    5.0060   65.6370   67.1950 C   0  0  0  0  0  0  0  0  0  0  0  0
    5.1610   66.9190   66.4250 C   0  0  0  0  0  0  0  0  0  0  0  0
    3.8540   67.6350   66.2370 N   0  0  0  0  0  0  0  0  0  0  0  0
    3.1770   67.9970   67.5350 C   0  0  0  0  0  0  0  0  0  0  0  0
    3.0040   66.7080   68.3900 C   0  0  0  0  0  0  0  0  0  0  0  0
    3.7430   68.9430   65.4830 C   0  0  0  0  0  0  0  0  0  0  0  0
    3.9920   68.8470   63.9880 C   0  0  0  0  0  0  0  0  0  0  0  0
    2.8640   68.6750   63.1260 C   0  0  0  0  0  0  0  0  0  0  0  0
    3.0520   68.4320   61.7230 C   0  0  0  0  0  0  0  0  0  0  0  0
    4.3450   68.3900   61.1950 C   0  0  0  0  0  0  0  0  0  0  0  0
    5.4790   68.5980   62.0460 C   0  0  0  0  0  0  0  0  0  0  0  0
    5.3100   68.8690   63.4400 C   0  0  0  0  0  0  0  0  0  0  0  0
    4.3250   61.3750   68.6150 O   0  0  0  0  0  0  0  0  0  0  0  0
    0.8900   58.7620   71.6440 O   0  0  0  0  0  0  0  0  0  0  0  0
    1.8420   57.6470   71.2650 C   0  0  0  0  0  0  0  0  0  0  0  0
   -0.9250   61.0250   72.3210 O   0  0  0  0  0  0  0  0  0  0  0  0
   -1.4340   59.8620   72.9280 C   0  0  0  0  0  0  0  0  0  0  0  0
   -0.3489   63.2038   71.4927 H   0  0  0  0  0  0  0  0  0  0  0  0
    2.8479   59.5834   70.0644 H   0  0  0  0  0  0  0  0  0  0  0  0
    3.0334   63.6446   67.6426 H   0  0  0  0  0  0  0  0  0  0  0  0
    1.0304   64.3351   68.8959 H   0  0  0  0  0  0  0  0  0  0  0  0
    2.0359   64.8230   70.2512 H   0  0  0  0  0  0  0  0  0  0  0  0
    3.8186   64.8301   70.2762 H   0  0  0  0  0  0  0  0  0  0  0  0
    5.0607   64.0500   69.1039 H   0  0  0  0  0  0  0  0  0  0  0  0
    4.9765   66.4445   69.1702 H   0  0  0  0  0  0  0  0  0  0  0  0
    6.0037   65.2124   67.3800 H   0  0  0  0  0  0  0  0  0  0  0  0
    4.3853   64.9560   66.5942 H   0  0  0  0  0  0  0  0  0  0  0  0
    5.8499   67.5790   66.9726 H   0  0  0  0  0  0  0  0  0  0  0  0
    5.5519   66.6667   65.4282 H   0  0  0  0  0  0  0  0  0  0  0  0
    3.7944   68.7237   68.0833 H   0  0  0  0  0  0  0  0  0  0  0  0
    2.1927   68.4432   67.3301 H   0  0  0  0  0  0  0  0  0  0  0  0
    2.2296   66.0842   67.9197 H   0  0  0  0  0  0  0  0  0  0  0  0
    2.7313   67.0370   69.4036 H   0  0  0  0  0  0  0  0  0  0  0  0
    2.7280   69.3390   65.6348 H   0  0  0  0  0  0  0  0  0  0  0  0
    4.5321   69.5961   65.8840 H   0  0  0  0  0  0  0  0  0  0  0  0
    1.8463   68.7291   63.5399 H   0  0  0  0  0  0  0  0  0  0  0  0
    2.1821   68.2797   61.0672 H   0  0  0  0  0  0  0  0  0  0  0  0
    4.4929   68.1966   60.1223 H   0  0  0  0  0  0  0  0  0  0  0  0
    6.4926   68.5486   61.6215 H   0  0  0  0  0  0  0  0  0  0  0  0
    6.1787   69.0901   64.0776 H   0  0  0  0  0  0  0  0  0  0  0  0
    2.2410   57.1796   72.1773 H   0  0  0  0  0  0  0  0  0  0  0  0
    1.3052   56.8925   70.6712 H   0  0  0  0  0  0  0  0  0  0  0  0
    2.6713   58.0589   70.6712 H   0  0  0  0  0  0  0  0  0  0  0  0
   -1.3873   59.9688   74.0218 H   0  0  0  0  0  0  0  0  0  0  0  0
   -2.4791   59.7141   72.6183 H   0  0  0  0  0  0  0  0  0  0  0  0
   -0.8335   58.9939   72.6183 H   0  0  0  0  0  0  0  0  0  0  0  0
  1  2  2  0
  1  6  1  0
  1 25  1  0
  2  3  1  0
  2 27  1  0
  3  4  2  0
  4  5  1  0
  4  9  1  0
  5  6  2  0
  5  7  1  0
  7  8  1  0
  7 24  2  0
  8  9  1  0
  8 10  1  0
 10 11  1  0
 11 12  1  0
 11 16  1  0
 12 13  1  0
 13 14  1  0
 14 15  1  0
 14 17  1  0
 15 16  1  0
 17 18  1  0
 18 19  2  0
 18 23  1  0
 19 20  1  0
 20 21  2  0
 21 22  1  0
 22 23  2  0
 25 26  1  0
 27 28  1  0
  3 29  1  0
  6 30  1  0
  8 31  1  0
  9 32  1  0
  9 33  1  0
 10 34  1  0
 10 35  1  0
 11 36  1  0
 12 37  1  0
 12 38  1  0
 13 39  1  0
 13 40  1  0
 15 41  1  0
 15 42  1  0
 16 43  1  0
 16 44  1  0
 17 45  1  0
 17 46  1  0
 19 47  1  0
 20 48  1  0
 21 49  1  0
 22 50  1  0
 23 51  1  0
 26 52  1  0
 26 53  1  0
 26 54  1  0
 28 55  1  0
 28 56  1  0
 28 57  1  0
A    1
C1
A    2
C2
A    3
C3
A    4
C4
A    5
C5
A    6
C6
A    7
C7
A    8
C8
A    9
C9
A   10
C10
A   11
C11
A   12
C12
A   13
C13
A   14
N14
A   15
C15
A   16
C16
A   17
C17
A   18
C18
A   19
C19
A   20
C20
A   21
C21
A   22
C22
A   23
C23
A   24
O24
A   25
O25
A   26
C26
A   27
O27
A   28
C28
M  END
