4EYB_0WO_A_303
     RDKit          3D

 50 52  0  0  0  0  0  0  0  0999 V2000
   -2.5480    7.0790   26.2550 C   0  0  0  0  0  0  0  0  0  0  0  0
   -3.8440    9.0590   26.7680 N   0  0  0  0  0  0  0  0  0  0  0  0
   -1.7540    6.4540   25.5380 O   0  0  0  0  0  0  0  0  0  0  0  0
   -2.8330    8.5120   25.8790 C   0  0  0  0  0  0  0  0  0  0  0  0
   -1.5740    9.4750   25.9170 C   0  0  0  0  0  0  0  0  0  0  0  0
   -4.1420   11.6610   28.6270 C   0  0  0  0  0  0  0  0  0  0  0  0
    1.3600    9.2330   28.6630 C   0  0  0  0  0  0  0  0  0  0  0  0
    1.2930   10.9250   26.7910 C   0  0  0  0  0  0  0  0  0  0  0  0
    2.6350    7.3880   26.3210 O   0  0  0  0  0  0  0  0  0  0  0  0
   -5.2880    9.6590   25.1340 O   0  0  0  0  0  0  0  0  0  0  0  0
    2.0820    8.4300   24.4590 O   0  0  0  0  0  0  0  0  0  0  0  0
   -8.9700    6.6780   25.1990 C   0  0  0  0  0  0  0  0  0  0  0  0
   -7.6850    6.5490   25.7190 C   0  0  0  0  0  0  0  0  0  0  0  0
   -9.7510    7.8030   25.4280 C   0  0  0  0  0  0  0  0  0  0  0  0
   -7.1670    7.5840   26.4730 C   0  0  0  0  0  0  0  0  0  0  0  0
   -9.2210    8.8920   26.1400 C   0  0  0  0  0  0  0  0  0  0  0  0
   -7.6920   10.5270   28.5750 N   0  0  0  0  0  0  0  0  0  0  0  0
   -0.3970    8.8630   25.2620 N   0  0  0  0  0  0  0  0  0  0  0  0
   -6.5950   11.2710   29.1320 O   0  0  0  0  0  0  0  0  0  0  0  0
   -1.1310    9.8860   27.6390 S   0  0  0  0  0  0  0  0  0  0  0  0
    1.8600    8.0770   25.6550 C   0  0  0  0  0  0  0  0  0  0  0  0
   -4.9860    9.5660   26.3290 C   0  0  0  0  0  0  0  0  0  0  0  0
   -5.4760   11.0220   28.3820 C   0  0  0  0  0  0  0  0  0  0  0  0
   -7.9220    8.7610   26.6690 C   0  0  0  0  0  0  0  0  0  0  0  0
   -7.2250    9.7810   27.4930 C   0  0  0  0  0  0  0  0  0  0  0  0
   -5.8740   10.0720   27.3730 C   0  0  0  0  0  0  0  0  0  0  0  0
    0.5800    8.5290   26.3150 C   0  0  0  0  0  0  0  0  0  0  0  0
    0.6240    9.6620   27.3860 C   0  0  0  0  0  0  0  0  0  0  0  0
   -3.0680    6.5000   27.2340 O   0  0  0  0  0  0  0  0  0  0  0  0
   -3.6649    9.0521   27.7823 H   0  0  0  0  0  0  0  0  0  0  0  0
   -1.0469    5.8974   25.9508 H   0  0  0  0  0  0  0  0  0  0  0  0
   -3.1724    8.4719   24.8334 H   0  0  0  0  0  0  0  0  0  0  0  0
   -1.8540   10.3875   25.3702 H   0  0  0  0  0  0  0  0  0  0  0  0
   -3.9686   11.7441   29.7101 H   0  0  0  0  0  0  0  0  0  0  0  0
   -3.3513   11.0439   28.1753 H   0  0  0  0  0  0  0  0  0  0  0  0
   -4.1273   12.6639   28.1753 H   0  0  0  0  0  0  0  0  0  0  0  0
    0.7904    9.5650   29.5436 H   0  0  0  0  0  0  0  0  0  0  0  0
    1.4562    8.1373   28.6803 H   0  0  0  0  0  0  0  0  0  0  0  0
    2.3608    9.6893   28.6803 H   0  0  0  0  0  0  0  0  0  0  0  0
    1.6380   11.5764   27.6075 H   0  0  0  0  0  0  0  0  0  0  0  0
    2.1518   10.6276   26.1714 H   0  0  0  0  0  0  0  0  0  0  0  0
    0.5645   11.4684   26.1714 H   0  0  0  0  0  0  0  0  0  0  0  0
    2.5997    9.2533   24.2739 H   0  0  0  0  0  0  0  0  0  0  0  0
   -9.3802    5.8616   24.5864 H   0  0  0  0  0  0  0  0  0  0  0  0
   -7.0936    5.6404   25.5330 H   0  0  0  0  0  0  0  0  0  0  0  0
  -10.7841    7.8416   25.0522 H   0  0  0  0  0  0  0  0  0  0  0  0
   -6.1665    7.4913   26.9207 H   0  0  0  0  0  0  0  0  0  0  0  0
   -9.8010    9.8161   26.2797 H   0  0  0  0  0  0  0  0  0  0  0  0
   -0.6792    8.0081   24.7616 H   0  0  0  0  0  0  0  0  0  0  0  0
    0.2967    7.6628   26.9309 H   0  0  0  0  0  0  0  0  0  0  0  0
 29  1  2  0
  1  3  1  0
  1  4  1  0
  4  2  1  0
  2 22  1  0
  4  5  1  0
  5 18  1  0
  5 20  1  0
  6 23  1  0
 28  7  1  0
  8 28  1  0
  9 21  2  0
 22 10  2  0
 21 11  1  0
 13 12  2  0
 12 14  1  0
 15 13  1  0
 16 14  2  0
 15 24  2  0
 24 16  1  0
 19 17  1  0
 25 17  2  0
 18 27  1  0
 23 19  1  0
 20 28  1  0
 21 27  1  0
 22 26  1  0
 23 26  2  0
 25 24  1  0
 26 25  1  0
 27 28  1  0
  2 30  1  0
  3 31  1  0
  4 32  1  0
  5 33  1  0
  6 34  1  0
  6 35  1  0
  6 36  1  0
  7 37  1  0
  7 38  1  0
  7 39  1  0
  8 40  1  0
  8 41  1  0
  8 42  1  0
 11 43  1  0
 12 44  1  0
 13 45  1  0
 14 46  1  0
 15 47  1  0
 16 48  1  0
 18 49  1  0
 27 50  1  0
A    1
C
A    2
N
A    3
O
A    4
CA
A    5
CB
A    6
CAA
A    7
CAB
A    8
CAC
A    9
OAE
A   10
OAF
A   11
OAH
A   12
CAI
A   13
CAJ
A   14
CAK
A   15
CAL
A   16
CAM
A   17
NAN
A   18
NAP
A   19
OAQ
A   20
SAR
A   21
CAT
A   22
CAU
A   23
CAV
A   24
CAW
A   25
CAX
A   26
CAY
A   27
CBB
A   28
CBC
A   29
OXT
M  END
