4EYL_0RV_A_301
     RDKit          3D

 52 53  0  0  0  0  0  0  0  0999 V2000
   -3.0960  -40.8650    1.9020 O   0  0  0  0  0  0  0  0  0  0  0  0
   -2.5740  -39.7530    1.8350 C   0  0  0  0  0  0  0  0  0  0  0  0
   -3.2960  -38.6170    1.8720 N   0  0  0  0  0  0  0  0  0  0  0  0
   -2.6440  -37.3040    1.7840 C   0  0  0  0  0  0  0  0  0  0  0  0
   -4.7380  -38.7420    2.0040 C   0  0  0  0  0  0  0  0  0  0  0  0
   -1.0250  -39.6400    1.6910 C   0  0  0  0  0  0  0  0  0  0  0  0
   -0.3180  -41.0770    1.5650 C   0  0  0  0  0  0  0  0  0  0  0  0
    0.0980  -38.5980    2.0050 N   0  0  0  0  0  0  0  0  0  0  0  0
    1.4030  -39.2680    1.6630 C   0  0  0  0  0  0  0  0  0  0  0  0
    1.2100  -40.8280    1.9060 C   0  0  0  0  0  0  0  0  0  0  0  0
    2.1840  -41.8490    3.0230 S   0  0  0  0  0  0  0  0  0  0  0  0
    3.7990  -41.4010    2.5190 C   0  0  0  0  0  0  0  0  0  0  0  0
    4.4030  -41.7570    1.2990 C   0  0  0  0  0  0  0  0  0  0  0  0
    4.0760  -43.2100    0.9090 C   0  0  0  0  0  0  0  0  0  0  0  0
    4.6490  -40.6100    3.2160 C   0  0  0  0  0  0  0  0  0  0  0  0
    4.3250  -40.1300    4.4130 C   0  0  0  0  0  0  0  0  0  0  0  0
    5.1400  -39.4220    5.0440 O   0  0  0  0  0  0  0  0  0  0  0  0
    3.2020  -40.3780    4.9030 O   0  0  0  0  0  0  0  0  0  0  0  0
    5.7650  -40.4680    2.5820 N   0  0  0  0  0  0  0  0  0  0  0  0
    5.9220  -41.4680    1.5400 C   0  0  0  0  0  0  0  0  0  0  0  0
    6.7240  -42.6830    2.0270 C   0  0  0  0  0  0  0  0  0  0  0  0
    7.3690  -42.1540    3.3600 C   0  0  0  0  0  0  0  0  0  0  0  0
    7.3330  -42.9170    4.3500 O   0  0  0  0  0  0  0  0  0  0  0  0
    7.8710  -41.0090    3.3330 O   0  0  0  0  0  0  0  0  0  0  0  0
    7.7970  -43.0930    1.0220 C   0  0  0  0  0  0  0  0  0  0  0  0
    8.2380  -44.4210    1.3160 O   0  0  0  0  0  0  0  0  0  0  0  0
    8.9840  -42.1320    1.1180 C   0  0  0  0  0  0  0  0  0  0  0  0
   -2.4536  -36.9205    2.7973 H   0  0  0  0  0  0  0  0  0  0  0  0
   -1.6906  -37.4035    1.2444 H   0  0  0  0  0  0  0  0  0  0  0  0
   -3.2995  -36.6046    1.2444 H   0  0  0  0  0  0  0  0  0  0  0  0
   -5.0079  -38.7654    3.0701 H   0  0  0  0  0  0  0  0  0  0  0  0
   -5.2263  -37.8828    1.5209 H   0  0  0  0  0  0  0  0  0  0  0  0
   -5.0711  -39.6724    1.5209 H   0  0  0  0  0  0  0  0  0  0  0  0
   -1.4739  -38.8227    1.1074 H   0  0  0  0  0  0  0  0  0  0  0  0
   -0.7605  -41.7872    2.2790 H   0  0  0  0  0  0  0  0  0  0  0  0
   -0.4473  -41.5091    0.5617 H   0  0  0  0  0  0  0  0  0  0  0  0
   -0.0298  -37.7521    1.4315 H   0  0  0  0  0  0  0  0  0  0  0  0
    2.2051  -38.8825    2.3095 H   0  0  0  0  0  0  0  0  0  0  0  0
    1.6822  -39.0677    0.6181 H   0  0  0  0  0  0  0  0  0  0  0  0
    1.9160  -41.4287    1.3137 H   0  0  0  0  0  0  0  0  0  0  0  0
    3.9404  -43.8124    1.8194 H   0  0  0  0  0  0  0  0  0  0  0  0
    3.1507  -43.2307    0.3145 H   0  0  0  0  0  0  0  0  0  0  0  0
    4.9032  -43.6251    0.3145 H   0  0  0  0  0  0  0  0  0  0  0  0
    5.1360  -39.4255    6.0340 H   0  0  0  0  0  0  0  0  0  0  0  0
    6.4883  -41.1750    0.6436 H   0  0  0  0  0  0  0  0  0  0  0  0
    6.1054  -43.5827    2.1610 H   0  0  0  0  0  0  0  0  0  0  0  0
    8.0771  -40.5388    4.1795 H   0  0  0  0  0  0  0  0  0  0  0  0
    7.3789  -43.0577    0.0052 H   0  0  0  0  0  0  0  0  0  0  0  0
    8.2793  -44.5454    2.2973 H   0  0  0  0  0  0  0  0  0  0  0  0
    9.2178  -41.9427    2.1761 H   0  0  0  0  0  0  0  0  0  0  0  0
    9.8588  -42.5793    0.6235 H   0  0  0  0  0  0  0  0  0  0  0  0
    8.7286  -41.1832    0.6235 H   0  0  0  0  0  0  0  0  0  0  0  0
 14 13  1  0
 27 25  1  0
 25 26  1  0
 25 21  1  0
  6  7  1  0
  6  8  1  0
  6  2  1  0
  7 10  1  0
 20 13  1  0
 20 21  1  0
 20 19  1  0
 13 12  2  0
 10  9  1  0
 10 11  1  0
  8  9  1  0
  2  1  2  0
  2  3  1  0
  5  3  1  0
  3  4  1  0
 21 22  1  0
 19 15  2  0
 12 11  1  0
 12 15  1  0
 15 16  1  0
 22 23  2  0
 22 24  1  0
 16 18  2  0
 16 17  1  0
  4 28  1  0
  4 29  1  0
  4 30  1  0
  5 31  1  0
  5 32  1  0
  5 33  1  0
  6 34  1  0
  7 35  1  0
  7 36  1  0
  8 37  1  0
  9 38  1  0
  9 39  1  0
 10 40  1  0
 14 41  1  0
 14 42  1  0
 14 43  1  0
 17 44  1  0
 20 45  1  0
 21 46  1  0
 24 47  1  0
 25 48  1  0
 26 49  1  0
 27 50  1  0
 27 51  1  0
 27 52  1  0
A    1
O
A    2
C
A    3
NAY
A    4
CAC
A    5
CAD
A    6
CA
A    7
CB
A    8
N
A    9
CD
A   10
CG
A   11
SAO
A   12
CAT
A   13
CAV
A   14
CAB
A   15
CAS
A   16
CAP
A   17
OAE
A   18
OAH
A   19
NAN
A   20
CAZ
A   21
CBA
A   22
CAQ
A   23
OAF
A   24
OAI
A   25
CAU
A   26
OAJ
A   27
CAA
M  END
