4EYM_0RX_A_401
     RDKit          3D

 48 51  0  0  0  0  0  0  0  0999 V2000
  -13.3930   12.3820  -26.5740 O   0  0  0  0  0  0  0  0  0  0  0  0
  -14.2360   11.5210  -26.4060 C   0  0  0  0  0  0  0  0  0  0  0  0
  -14.9400   11.4950  -25.0830 C   0  0  0  0  0  0  0  0  0  0  0  0
  -15.2410   10.2920  -24.4700 C   0  0  0  0  0  0  0  0  0  0  0  0
  -15.8890   10.3030  -23.2410 C   0  0  0  0  0  0  0  0  0  0  0  0
  -16.1680    9.0870  -22.6130 N   0  0  0  0  0  0  0  0  0  0  0  0
  -16.4390    9.0650  -21.1810 C   0  0  0  0  0  0  0  0  0  0  0  0
  -17.4310    7.9360  -20.9340 C   0  0  0  0  0  0  0  0  0  0  0  0
  -16.9610    6.6850  -21.4430 O   0  0  0  0  0  0  0  0  0  0  0  0
  -15.8660    6.7730  -22.3540 C   0  0  0  0  0  0  0  0  0  0  0  0
  -16.1500    7.8560  -23.3860 C   0  0  0  0  0  0  0  0  0  0  0  0
  -16.2240   11.4670  -22.6440 N   0  0  0  0  0  0  0  0  0  0  0  0
  -15.9480   12.6380  -23.2250 C   0  0  0  0  0  0  0  0  0  0  0  0
  -15.2990   12.6790  -24.4560 C   0  0  0  0  0  0  0  0  0  0  0  0
  -14.5590   10.6180  -27.3330 N   0  0  0  0  0  0  0  0  0  0  0  0
  -13.8530   10.4180  -28.4740 C   0  0  0  0  0  0  0  0  0  0  0  0
  -14.4200    9.6530  -29.4810 C   0  0  0  0  0  0  0  0  0  0  0  0
  -13.7300    9.4190  -30.6650 C   0  0  0  0  0  0  0  0  0  0  0  0
  -12.4650    9.9570  -30.8570 C   0  0  0  0  0  0  0  0  0  0  0  0
  -11.8830   10.7140  -29.8490 C   0  0  0  0  0  0  0  0  0  0  0  0
  -12.5780   10.9450  -28.6620 C   0  0  0  0  0  0  0  0  0  0  0  0
  -11.8040    9.7060  -32.0340 O   0  0  0  0  0  0  0  0  0  0  0  0
  -11.3200   10.7100  -32.8340 C   0  0  0  0  0  0  0  0  0  0  0  0
  -11.8910   11.9800  -32.8140 C   0  0  0  0  0  0  0  0  0  0  0  0
  -11.3790   12.9720  -33.6450 C   0  0  0  0  0  0  0  0  0  0  0  0
  -10.3580   12.7070  -34.4720 N   0  0  0  0  0  0  0  0  0  0  0  0
   -9.8020   11.4900  -34.5180 C   0  0  0  0  0  0  0  0  0  0  0  0
  -10.2650   10.4620  -33.7020 C   0  0  0  0  0  0  0  0  0  0  0  0
  -14.9709    9.3394  -24.9492 H   0  0  0  0  0  0  0  0  0  0  0  0
  -15.5092    8.8799  -20.6232 H   0  0  0  0  0  0  0  0  0  0  0  0
  -16.8483   10.0287  -20.8436 H   0  0  0  0  0  0  0  0  0  0  0  0
  -18.3818    8.1851  -21.4279 H   0  0  0  0  0  0  0  0  0  0  0  0
  -17.5610    7.8316  -19.8467 H   0  0  0  0  0  0  0  0  0  0  0  0
  -15.7341    5.8069  -22.8632 H   0  0  0  0  0  0  0  0  0  0  0  0
  -14.9487    7.0246  -21.8015 H   0  0  0  0  0  0  0  0  0  0  0  0
  -17.1218    7.6863  -23.8726 H   0  0  0  0  0  0  0  0  0  0  0  0
  -15.4033    7.8757  -24.1935 H   0  0  0  0  0  0  0  0  0  0  0  0
  -16.2355   13.5760  -22.7274 H   0  0  0  0  0  0  0  0  0  0  0  0
  -15.0720   13.6458  -24.9291 H   0  0  0  0  0  0  0  0  0  0  0  0
  -15.3947   10.0376  -27.1729 H   0  0  0  0  0  0  0  0  0  0  0  0
  -15.4247    9.2273  -29.3422 H   0  0  0  0  0  0  0  0  0  0  0  0
  -14.1888    8.8045  -31.4536 H   0  0  0  0  0  0  0  0  0  0  0  0
  -10.8745   11.1312  -29.9865 H   0  0  0  0  0  0  0  0  0  0  0  0
  -12.1149   11.5487  -27.8676 H   0  0  0  0  0  0  0  0  0  0  0  0
  -12.7388   12.1970  -32.1476 H   0  0  0  0  0  0  0  0  0  0  0  0
  -11.8156   13.9814  -33.6230 H   0  0  0  0  0  0  0  0  0  0  0  0
   -8.9682   11.3000  -35.2099 H   0  0  0  0  0  0  0  0  0  0  0  0
   -9.8010    9.4656  -33.7442 H   0  0  0  0  0  0  0  0  0  0  0  0
 27 26  2  0
 27 28  1  0
 26 25  1  0
 28 23  2  0
 25 24  2  0
 23 24  1  0
 23 22  1  0
 22 19  1  0
 19 18  1  0
 19 20  2  0
 18 17  2  0
 20 21  1  0
 17 16  1  0
 21 16  2  0
 16 15  1  0
 15  2  1  0
  1  2  2  0
  2  3  1  0
  3  4  2  0
  3 14  1  0
  4  5  1  0
 14 13  2  0
 11  6  1  0
 11 10  1  0
  5 12  2  0
  5  6  1  0
 13 12  1  0
  6  7  1  0
 10  9  1  0
  9  8  1  0
  7  8  1  0
  4 29  1  0
  7 30  1  0
  7 31  1  0
  8 32  1  0
  8 33  1  0
 10 34  1  0
 10 35  1  0
 11 36  1  0
 11 37  1  0
 13 38  1  0
 14 39  1  0
 15 40  1  0
 17 41  1  0
 18 42  1  0
 20 43  1  0
 21 44  1  0
 24 45  1  0
 25 46  1  0
 27 47  1  0
 28 48  1  0
A    1
O1
A    2
C1
A    3
C13
A    4
C21
A    5
C16
A    6
N4
A    7
C20
A    8
C19
A    9
O3
A   10
C18
A   11
C17
A   12
N3
A   13
C15
A   14
C14
A   15
N1
A   16
C2
A   17
C12
A   18
C11
A   19
C5
A   20
C4
A   21
C3
A   22
O2
A   23
C6
A   24
C10
A   25
C9
A   26
N2
A   27
C8
A   28
C7
M  END
