4EYW_L0R_A_701
     RDKit          3D

 54 57  0  0  0  0  0  0  0  0999 V2000
   38.4440   74.6500   59.9080 C   0  0  0  0  0  0  0  0  0  0  0  0
   39.2170   74.0920   61.0490 C   0  0  0  0  0  0  0  0  0  0  0  0
   39.1810   75.0100   62.2110 N   0  0  0  0  0  0  0  0  0  0  0  0
   39.0690   76.4780   62.0650 C   0  0  0  0  0  0  0  0  0  0  0  0
   38.4910   76.9300   60.7310 C   0  0  0  0  0  0  0  0  0  0  0  0
   38.9510   76.0190   59.6070 C   0  0  0  0  0  0  0  0  0  0  0  0
   40.4070   77.0970   62.3640 C   0  0  0  0  0  0  0  0  0  0  0  0
   41.3670   76.7840   61.6990 O   0  0  0  0  0  0  0  0  0  0  0  0
   40.5550   78.0720   63.4610 N   0  0  0  0  0  0  0  0  0  0  0  0
   43.4810   78.0170   67.1480 C   0  0  0  0  0  0  0  0  0  0  0  0
   39.2460   74.3990   63.5540 C   0  0  0  0  0  0  0  0  0  0  0  0
   39.2180   75.1090   64.5660 O   0  0  0  0  0  0  0  0  0  0  0  0
   39.3500   72.9280   63.7100 C   0  0  0  0  0  0  0  0  0  0  0  0
   38.9000   72.6310   65.0320 O   0  0  0  0  0  0  0  0  0  0  0  0
   38.7610   71.2870   65.4540 C   0  0  0  0  0  0  0  0  0  0  0  0
   38.6630   71.0100   66.8140 C   0  0  0  0  0  0  0  0  0  0  0  0
   38.4960   68.6530   66.2820 C   0  0  0  0  0  0  0  0  0  0  0  0
   38.5930   68.9350   64.9180 C   0  0  0  0  0  0  0  0  0  0  0  0
   38.5290   69.6930   67.2350 C   0  0  0  0  0  0  0  0  0  0  0  0
   38.7290   70.2440   64.4950 C   0  0  0  0  0  0  0  0  0  0  0  0
   43.3290   78.1130   65.7620 C   0  0  0  0  0  0  0  0  0  0  0  0
   41.2280   78.7520   67.4720 C   0  0  0  0  0  0  0  0  0  0  0  0
   42.4420   78.3320   67.9870 C   0  0  0  0  0  0  0  0  0  0  0  0
   41.0770   78.8410   66.0670 C   0  0  0  0  0  0  0  0  0  0  0  0
   42.0980   78.5460   65.2450 C   0  0  0  0  0  0  0  0  0  0  0  0
   41.8960   78.6490   63.7360 C   0  0  0  0  0  0  0  0  0  0  0  0
   39.4170   78.4440   64.2810 C   0  0  0  0  0  0  0  0  0  0  0  0
   39.8130   79.2850   65.5010 C   0  0  0  0  0  0  0  0  0  0  0  0
   37.3778   74.7009   60.1737 H   0  0  0  0  0  0  0  0  0  0  0  0
   38.5636   74.0050   59.0250 H   0  0  0  0  0  0  0  0  0  0  0  0
   38.7815   73.1249   61.3404 H   0  0  0  0  0  0  0  0  0  0  0  0
   40.2634   73.9631   60.7351 H   0  0  0  0  0  0  0  0  0  0  0  0
   38.3294   76.8365   62.7960 H   0  0  0  0  0  0  0  0  0  0  0  0
   38.8256   77.9569   60.5225 H   0  0  0  0  0  0  0  0  0  0  0  0
   37.3934   76.8892   60.7907 H   0  0  0  0  0  0  0  0  0  0  0  0
   40.0498   76.0103   59.5557 H   0  0  0  0  0  0  0  0  0  0  0  0
   38.5664   76.3717   58.6387 H   0  0  0  0  0  0  0  0  0  0  0  0
   44.4416   77.6862   67.5697 H   0  0  0  0  0  0  0  0  0  0  0  0
   38.7149   72.4208   62.9688 H   0  0  0  0  0  0  0  0  0  0  0  0
   40.3822   72.5818   63.5525 H   0  0  0  0  0  0  0  0  0  0  0  0
   38.6914   71.8272   67.5498 H   0  0  0  0  0  0  0  0  0  0  0  0
   38.3929   67.6103   66.6168 H   0  0  0  0  0  0  0  0  0  0  0  0
   38.5613   68.1180   64.1822 H   0  0  0  0  0  0  0  0  0  0  0  0
   38.4489   69.4617   68.3074 H   0  0  0  0  0  0  0  0  0  0  0  0
   38.8117   70.4743   63.4226 H   0  0  0  0  0  0  0  0  0  0  0  0
   44.1592   77.8539   65.0884 H   0  0  0  0  0  0  0  0  0  0  0  0
   40.3954   79.0120   68.1422 H   0  0  0  0  0  0  0  0  0  0  0  0
   42.5748   78.2502   69.0759 H   0  0  0  0  0  0  0  0  0  0  0  0
   42.6733   78.0783   63.2067 H   0  0  0  0  0  0  0  0  0  0  0  0
   41.9641   79.6913   63.3910 H   0  0  0  0  0  0  0  0  0  0  0  0
   38.7156   79.0263   63.6654 H   0  0  0  0  0  0  0  0  0  0  0  0
   38.9594   77.5155   64.6532 H   0  0  0  0  0  0  0  0  0  0  0  0
   39.9087   80.3370   65.1941 H   0  0  0  0  0  0  0  0  0  0  0  0
   39.0324   79.1701   66.2674 H   0  0  0  0  0  0  0  0  0  0  0  0
  6  1  1  0
  6  5  1  0
  1  2  1  0
  5  4  1  0
  2  3  1  0
  8  7  2  0
  4  3  1  0
  4  7  1  0
  3 11  1  0
  7  9  1  0
  9 26  1  0
  9 27  1  0
 11 13  1  0
 11 12  2  0
 13 14  1  0
 26 25  1  0
 27 28  1  0
 20 18  2  0
 20 15  1  0
 18 17  1  0
 14 15  1  0
 25 21  1  0
 25 24  2  0
 15 16  2  0
 28 24  1  0
 21 10  2  0
 24 22  1  0
 17 19  2  0
 16 19  1  0
 10 23  1  0
 22 23  2  0
  1 29  1  0
  1 30  1  0
  2 31  1  0
  2 32  1  0
  4 33  1  0
  5 34  1  0
  5 35  1  0
  6 36  1  0
  6 37  1  0
 10 38  1  0
 13 39  1  0
 13 40  1  0
 16 41  1  0
 17 42  1  0
 18 43  1  0
 19 44  1  0
 20 45  1  0
 21 46  1  0
 22 47  1  0
 23 48  1  0
 26 49  1  0
 26 50  1  0
 27 51  1  0
 27 52  1  0
 28 53  1  0
 28 54  1  0
A    1
C01
A    2
C02
A    3
N03
A    4
C04
A    5
C05
A    6
C06
A    7
C07
A    8
O08
A    9
N09
A   10
C10
A   11
C11
A   12
O12
A   13
C13
A   14
O14
A   15
C15
A   16
C16
A   17
C17
A   18
C18
A   19
C19
A   20
C20
A   21
C21
A   22
C22
A   23
C23
A   24
C24
A   25
C25
A   26
C26
A   27
C27
A   28
C28
M  END
