4EZ5_0RS_A_900
     RDKit          3D

 63 68  0  0  0  0  0  0  0  0999 V2000
   41.1560   20.3810   17.2800 C   0  0  0  0  0  0  0  0  0  0  0  0
   41.6200   21.8690   15.4620 C   0  0  0  0  0  0  0  0  0  0  0  0
   39.3490   20.9040   15.7450 C   0  0  0  0  0  0  0  0  0  0  0  0
   33.3950   26.1640    9.6520 O   0  0  0  0  0  0  0  0  0  0  0  0
   36.1570   22.6180   10.0100 C   0  0  0  0  0  0  0  0  0  0  0  0
   34.9170   24.3260    9.6360 C   0  0  0  0  0  0  0  0  0  0  0  0
   35.8010   23.1340   11.2820 C   0  0  0  0  0  0  0  0  0  0  0  0
   34.1080   25.4330    8.9760 C   0  0  0  0  0  0  0  0  0  0  0  0
   34.1850   25.6330    7.4990 C   0  0  0  0  0  0  0  0  0  0  0  0
   33.1390   26.2870    6.8280 C   0  0  0  0  0  0  0  0  0  0  0  0
   33.2480   26.4550    5.4430 C   0  0  0  0  0  0  0  0  0  0  0  0
   35.3040   25.3900    5.3320 C   0  0  0  0  0  0  0  0  0  0  0  0
   35.2800   25.2010    6.7190 C   0  0  0  0  0  0  0  0  0  0  0  0
   36.4310   24.9540    4.4830 C   0  0  0  0  0  0  0  0  0  0  0  0
   36.8560   25.8340    3.4560 C   0  0  0  0  0  0  0  0  0  0  0  0
   38.5250   24.4280    2.7500 C   0  0  0  0  0  0  0  0  0  0  0  0
   38.2080   23.4610    3.7200 C   0  0  0  0  0  0  0  0  0  0  0  0
   38.9340   22.2570    3.8020 C   0  0  0  0  0  0  0  0  0  0  0  0
   38.6020   21.3030    4.7860 C   0  0  0  0  0  0  0  0  0  0  0  0
   37.5490   21.5310    5.6910 C   0  0  0  0  0  0  0  0  0  0  0  0
   36.8240   22.7320    5.5900 C   0  0  0  0  0  0  0  0  0  0  0  0
   37.1380   23.7220    4.6130 C   0  0  0  0  0  0  0  0  0  0  0  0
   40.5880   21.3840   16.3830 N   0  0  0  0  0  0  0  0  0  0  0  0
   38.2970   22.0300   15.6330 C   0  0  0  0  0  0  0  0  0  0  0  0
   37.0100   21.5330   14.9500 C   0  0  0  0  0  0  0  0  0  0  0  0
   37.3580   21.0040   13.6330 N   0  0  0  0  0  0  0  0  0  0  0  0
   38.2170   19.8270   13.7520 C   0  0  0  0  0  0  0  0  0  0  0  0
   39.5660   20.2000   14.3860 C   0  0  0  0  0  0  0  0  0  0  0  0
   36.9640   21.5460   12.4530 C   0  0  0  0  0  0  0  0  0  0  0  0
   37.3860   20.9460   11.2420 C   0  0  0  0  0  0  0  0  0  0  0  0
   36.9810   21.4780   10.0020 C   0  0  0  0  0  0  0  0  0  0  0  0
   35.6040   23.3670    8.9930 N   0  0  0  0  0  0  0  0  0  0  0  0
   35.0050   24.2260   10.9870 N   0  0  0  0  0  0  0  0  0  0  0  0
   36.1690   22.6470   12.5000 N   0  0  0  0  0  0  0  0  0  0  0  0
   34.3000   26.0250    4.7140 N   0  0  0  0  0  0  0  0  0  0  0  0
   37.8730   25.5940    2.6090 N   0  0  0  0  0  0  0  0  0  0  0  0
   40.9847   20.6834   18.3236 H   0  0  0  0  0  0  0  0  0  0  0  0
   40.6740   19.4095   17.0960 H   0  0  0  0  0  0  0  0  0  0  0  0
   42.2371   20.2947   17.0960 H   0  0  0  0  0  0  0  0  0  0  0  0
   42.4679   22.2675   16.0384 H   0  0  0  0  0  0  0  0  0  0  0  0
   41.9653   21.0389   14.8282 H   0  0  0  0  0  0  0  0  0  0  0  0
   41.2013   22.6646   14.8282 H   0  0  0  0  0  0  0  0  0  0  0  0
   38.9595   20.1264   16.4185 H   0  0  0  0  0  0  0  0  0  0  0  0
   32.2593   26.6566    7.3753 H   0  0  0  0  0  0  0  0  0  0  0  0
   32.4287   26.9674    4.9175 H   0  0  0  0  0  0  0  0  0  0  0  0
   36.1306   24.7064    7.2107 H   0  0  0  0  0  0  0  0  0  0  0  0
   36.3135   26.7842    3.3433 H   0  0  0  0  0  0  0  0  0  0  0  0
   39.3585   24.2167    2.0640 H   0  0  0  0  0  0  0  0  0  0  0  0
   39.7581   22.0612    3.1002 H   0  0  0  0  0  0  0  0  0  0  0  0
   39.1751   20.3661    4.8470 H   0  0  0  0  0  0  0  0  0  0  0  0
   37.2983   20.7862    6.4607 H   0  0  0  0  0  0  0  0  0  0  0  0
   35.9906   22.9128    6.2848 H   0  0  0  0  0  0  0  0  0  0  0  0
   38.7192   22.8562   15.0421 H   0  0  0  0  0  0  0  0  0  0  0  0
   38.0413   22.3660   16.6487 H   0  0  0  0  0  0  0  0  0  0  0  0
   36.3026   22.3680   14.8393 H   0  0  0  0  0  0  0  0  0  0  0  0
   36.5395   20.7472   15.5593 H   0  0  0  0  0  0  0  0  0  0  0  0
   37.7168   19.0773   14.3827 H   0  0  0  0  0  0  0  0  0  0  0  0
   38.3997   19.4198   12.7466 H   0  0  0  0  0  0  0  0  0  0  0  0
   40.1577   19.2859   14.5422 H   0  0  0  0  0  0  0  0  0  0  0  0
   40.0989   20.8859   13.7110 H   0  0  0  0  0  0  0  0  0  0  0  0
   38.0347   20.0581   11.2696 H   0  0  0  0  0  0  0  0  0  0  0  0
   37.2996   21.0158    9.0560 H   0  0  0  0  0  0  0  0  0  0  0  0
   35.6961   23.2245    7.9771 H   0  0  0  0  0  0  0  0  0  0  0  0
 36 16  1  0
 36 15  2  0
 16 17  2  0
 15 14  1  0
 17 18  1  0
 17 22  1  0
 18 19  2  0
 14 22  2  0
 14 12  1  0
 22 21  1  0
 35 12  2  0
 35 11  1  0
 19 20  1  0
 12 13  1  0
 11 10  2  0
 21 20  2  0
 13  9  2  0
 10  9  1  0
  9  8  1  0
  8  6  1  0
  8  4  2  0
 32  6  1  0
 32  5  1  0
  6 33  2  0
 31  5  1  0
 31 30  2  0
  5  7  2  0
 33  7  1  0
 30 29  1  0
  7 34  1  0
 29 34  2  0
 29 26  1  0
 26 27  1  0
 26 25  1  0
 27 28  1  0
 28  3  1  0
 25 24  1  0
  2 23  1  0
 24  3  1  0
  3 23  1  0
 23  1  1  0
  1 37  1  0
  1 38  1  0
  1 39  1  0
  2 40  1  0
  2 41  1  0
  2 42  1  0
  3 43  1  0
 10 44  1  0
 11 45  1  0
 13 46  1  0
 15 47  1  0
 16 48  1  0
 18 49  1  0
 19 50  1  0
 20 51  1  0
 21 52  1  0
 24 53  1  0
 24 54  1  0
 25 55  1  0
 25 56  1  0
 27 57  1  0
 27 58  1  0
 28 59  1  0
 28 60  1  0
 30 61  1  0
 31 62  1  0
 32 63  1  0
A    1
C1
A    2
C2
A    3
C3
A    4
O1
A    5
C11
A    6
C12
A    7
C13
A    8
C14
A    9
C15
A   10
C16
A   11
C17
A   12
C18
A   13
C19
A   14
C20
A   15
C21
A   16
C22
A   17
C23
A   18
C24
A   19
C25
A   20
C26
A   21
C27
A   22
C28
A   23
N1
A   24
C4
A   25
C5
A   26
N2
A   27
C6
A   28
C7
A   29
C8
A   30
C9
A   31
C10
A   32
N3
A   33
N4
A   34
N5
A   35
N6
A   36
N7
M  END
