4EZL_0SE_A_1201
     RDKit          3D

 66 70  0  0  0  0  0  0  0  0999 V2000
   15.5400    2.7060   17.1270 C   0  0  0  0  0  0  0  0  0  0  0  0
   14.9250    1.3210   16.9080 C   0  0  0  0  0  0  0  0  0  0  0  0
   15.6120    0.6580   15.7090 C   0  0  0  0  0  0  0  0  0  0  0  0
   15.1210    0.4450   18.1510 C   0  0  0  0  0  0  0  0  0  0  0  0
   16.5780   -0.0020   18.2120 C   0  0  0  0  0  0  0  0  0  0  0  0
   16.6150   -0.9740   19.3780 C   0  0  0  0  0  0  0  0  0  0  0  0
   16.5400   -0.1260   20.5610 N   0  0  0  0  0  0  0  0  0  0  0  0
   15.1610    0.3680   20.7070 C   0  0  0  0  0  0  0  0  0  0  0  0
   14.7440    1.1720   19.4580 C   0  0  0  0  0  0  0  0  0  0  0  0
   17.0950   -0.7990   21.7460 C   0  0  0  0  0  0  0  0  0  0  0  0
   18.4680   -1.3940   21.4830 C   0  0  0  0  0  0  0  0  0  0  0  0
   19.4650   -0.6680   20.8230 C   0  0  0  0  0  0  0  0  0  0  0  0
   20.6930   -1.2250   20.5890 C   0  0  0  0  0  0  0  0  0  0  0  0
   20.9270   -2.5300   21.0550 C   0  0  0  0  0  0  0  0  0  0  0  0
   19.8840   -3.2070   21.7290 C   0  0  0  0  0  0  0  0  0  0  0  0
   18.7090   -2.6110   21.9100 N   0  0  0  0  0  0  0  0  0  0  0  0
   20.1500   -4.5680   22.2040 C   0  0  0  0  0  0  0  0  0  0  0  0
   21.3620   -5.0680   21.9820 N   0  0  0  0  0  0  0  0  0  0  0  0
   22.2950   -4.3720   21.3300 C   0  0  0  0  0  0  0  0  0  0  0  0
   22.0990   -3.1480   20.8840 N   0  0  0  0  0  0  0  0  0  0  0  0
   23.6360   -4.9660   21.0960 C   0  0  0  0  0  0  0  0  0  0  0  0
   24.3970   -4.5580   19.9940 C   0  0  0  0  0  0  0  0  0  0  0  0
   25.5900   -5.0930   19.8040 N   0  0  0  0  0  0  0  0  0  0  0  0
   26.0690   -6.0040   20.6420 C   0  0  0  0  0  0  0  0  0  0  0  0
   25.3800   -6.4150   21.7010 N   0  0  0  0  0  0  0  0  0  0  0  0
   24.1760   -5.9280   21.9590 C   0  0  0  0  0  0  0  0  0  0  0  0
   27.3230   -6.5370   20.4040 N   0  0  0  0  0  0  0  0  0  0  0  0
   19.1890   -5.2880   22.8940 N   0  0  0  0  0  0  0  0  0  0  0  0
   19.7610   -6.4180   23.6370 C   0  0  0  0  0  0  0  0  0  0  0  0
   18.6300   -7.2810   24.2040 C   0  0  0  0  0  0  0  0  0  0  0  0
   17.4340   -6.5110   24.3620 O   0  0  0  0  0  0  0  0  0  0  0  0
   16.8820   -5.9750   23.1520 C   0  0  0  0  0  0  0  0  0  0  0  0
   17.9900   -5.6750   22.1380 C   0  0  0  0  0  0  0  0  0  0  0  0
   13.5280    1.4410   16.6360 O   0  0  0  0  0  0  0  0  0  0  0  0
   15.6271    2.9021   18.2059 H   0  0  0  0  0  0  0  0  0  0  0  0
   16.5382    2.7410   16.6662 H   0  0  0  0  0  0  0  0  0  0  0  0
   14.8965    3.4700   16.6662 H   0  0  0  0  0  0  0  0  0  0  0  0
   16.3601   -0.0640   16.0682 H   0  0  0  0  0  0  0  0  0  0  0  0
   14.8608    0.1348   15.0991 H   0  0  0  0  0  0  0  0  0  0  0  0
   16.1082    1.4274   15.0991 H   0  0  0  0  0  0  0  0  0  0  0  0
   14.4479   -0.4205   18.0625 H   0  0  0  0  0  0  0  0  0  0  0  0
   16.8734   -0.5011   17.2773 H   0  0  0  0  0  0  0  0  0  0  0  0
   17.2743    0.8399   18.3401 H   0  0  0  0  0  0  0  0  0  0  0  0
   15.7580   -1.6625   19.3379 H   0  0  0  0  0  0  0  0  0  0  0  0
   17.5173   -1.6031   19.3703 H   0  0  0  0  0  0  0  0  0  0  0  0
   15.1001    1.0170   21.5931 H   0  0  0  0  0  0  0  0  0  0  0  0
   14.4838   -0.4913   20.8214 H   0  0  0  0  0  0  0  0  0  0  0  0
   15.2491    2.1489   19.4795 H   0  0  0  0  0  0  0  0  0  0  0  0
   13.6505    1.2892   19.4786 H   0  0  0  0  0  0  0  0  0  0  0  0
   17.1778   -0.0663   22.5622 H   0  0  0  0  0  0  0  0  0  0  0  0
   16.4171   -1.6234   22.0123 H   0  0  0  0  0  0  0  0  0  0  0  0
   19.2602    0.3599   20.4891 H   0  0  0  0  0  0  0  0  0  0  0  0
   21.4743   -0.6674   20.0517 H   0  0  0  0  0  0  0  0  0  0  0  0
   24.0071   -3.8025   19.2960 H   0  0  0  0  0  0  0  0  0  0  0  0
   23.6094   -6.2732   22.8364 H   0  0  0  0  0  0  0  0  0  0  0  0
   27.9311   -6.7955   21.1941 H   0  0  0  0  0  0  0  0  0  0  0  0
   27.6486   -6.6754   19.4367 H   0  0  0  0  0  0  0  0  0  0  0  0
   20.3816   -7.0247   22.9612 H   0  0  0  0  0  0  0  0  0  0  0  0
   20.3812   -6.0380   24.4622 H   0  0  0  0  0  0  0  0  0  0  0  0
   18.4332   -8.1158   23.5152 H   0  0  0  0  0  0  0  0  0  0  0  0
   18.9370   -7.6620   25.1892 H   0  0  0  0  0  0  0  0  0  0  0  0
   16.3419   -5.0448   23.3825 H   0  0  0  0  0  0  0  0  0  0  0  0
   16.1960   -6.7169   22.7172 H   0  0  0  0  0  0  0  0  0  0  0  0
   17.6811   -4.8518   21.4770 H   0  0  0  0  0  0  0  0  0  0  0  0
   18.1938   -6.5582   21.5148 H   0  0  0  0  0  0  0  0  0  0  0  0
   13.0281    1.4839   17.4895 H   0  0  0  0  0  0  0  0  0  0  0  0
  3  2  1  0
 34  2  1  0
  2  1  1  0
  2  4  1  0
  4  5  1  0
  4  9  1  0
  5  6  1  0
  6  7  1  0
  9  8  1  0
 23 22  2  0
 23 24  1  0
 22 21  1  0
 27 24  1  0
  7  8  1  0
  7 10  1  0
 13 12  2  0
 13 14  1  0
 24 25  2  0
 12 11  1  0
 20 14  2  0
 20 19  1  0
 14 15  1  0
 21 19  1  0
 21 26  2  0
 19 18  2  0
 11 10  1  0
 11 16  2  0
 25 26  1  0
 15 16  1  0
 15 17  2  0
 18 17  1  0
 33 28  1  0
 33 32  1  0
 17 28  1  0
 28 29  1  0
 32 31  1  0
 29 30  1  0
 30 31  1  0
  1 35  1  0
  1 36  1  0
  1 37  1  0
  3 38  1  0
  3 39  1  0
  3 40  1  0
  4 41  1  0
  5 42  1  0
  5 43  1  0
  6 44  1  0
  6 45  1  0
  8 46  1  0
  8 47  1  0
  9 48  1  0
  9 49  1  0
 10 50  1  0
 10 51  1  0
 12 52  1  0
 13 53  1  0
 22 54  1  0
 26 55  1  0
 27 56  1  0
 27 57  1  0
 29 58  1  0
 29 59  1  0
 30 60  1  0
 30 61  1  0
 32 62  1  0
 32 63  1  0
 33 64  1  0
 33 65  1  0
 34 66  1  0
A    1
C1
A    2
C2
A    3
C3
A    4
C4
A    5
C5
A    6
C6
A    7
N7
A    8
C8
A    9
C9
A   10
C10
A   11
C11
A   12
C12
A   13
C13
A   14
C14
A   15
C15
A   16
N16
A   17
C17
A   18
N18
A   19
C19
A   20
N20
A   21
C21
A   22
C22
A   23
N23
A   24
C24
A   25
N25
A   26
C26
A   27
N27
A   28
N28
A   29
C29
A   30
C30
A   31
O31
A   32
C32
A   33
C33
A   34
O34
M  END
