4F0X_0OR_B_501
     RDKit          3D

 43 42  0  0  0  0  0  0  0  0999 V2000
  -42.5480   60.5280   74.4030 O   0  0  0  0  0  0  0  0  0  0  0  0
  -41.5430   59.4910   73.9580 P   0  0  0  0  0  0  0  0  0  0  0  0
  -40.7600   59.8860   72.7310 O   0  0  0  0  0  0  0  0  0  0  0  0
  -40.7270   58.8950   75.0860 O   0  0  0  0  0  0  0  0  0  0  0  0
  -42.4380   58.2800   73.3950 O   0  0  0  0  0  0  0  0  0  0  0  0
  -42.8730   57.0600   74.3460 P   0  0  0  0  0  0  0  0  0  0  0  0
  -41.6590   56.1860   74.5720 O   0  0  0  0  0  0  0  0  0  0  0  0
  -43.6350   57.6280   75.5220 O   0  0  0  0  0  0  0  0  0  0  0  0
  -43.8790   56.2430   73.3980 O   0  0  0  0  0  0  0  0  0  0  0  0
  -45.2780   56.1790   73.6760 C   0  0  0  0  0  0  0  0  0  0  0  0
  -46.0440   55.5240   72.5350 C   0  0  0  0  0  0  0  0  0  0  0  0
  -46.4650   54.1460   73.0320 C   0  0  0  0  0  0  0  0  0  0  0  0
  -45.0980   55.3160   71.3500 C   0  0  0  0  0  0  0  0  0  0  0  0
  -47.2950   56.3720   72.2100 C   0  0  0  0  0  0  0  0  0  0  0  0
  -47.1710   57.7640   72.5480 O   0  0  0  0  0  0  0  0  0  0  0  0
  -47.7120   56.2840   70.7730 C   0  0  0  0  0  0  0  0  0  0  0  0
  -47.2790   57.1030   69.9700 O   0  0  0  0  0  0  0  0  0  0  0  0
  -48.5190   55.2540   70.4950 N   0  0  0  0  0  0  0  0  0  0  0  0
  -49.1780   54.7770   69.2810 C   0  0  0  0  0  0  0  0  0  0  0  0
  -48.3750   55.1550   68.0420 C   0  0  0  0  0  0  0  0  0  0  0  0
  -48.7080   54.2650   66.8650 C   0  0  0  0  0  0  0  0  0  0  0  0
  -48.2470   54.5380   65.7740 O   0  0  0  0  0  0  0  0  0  0  0  0
  -49.4600   53.1830   67.0610 N   0  0  0  0  0  0  0  0  0  0  0  0
  -42.5762   60.5571   75.3922 H   0  0  0  0  0  0  0  0  0  0  0  0
  -41.1106   59.1752   75.9546 H   0  0  0  0  0  0  0  0  0  0  0  0
  -43.2193   57.3181   76.3653 H   0  0  0  0  0  0  0  0  0  0  0  0
  -45.6602   57.1999   73.8235 H   0  0  0  0  0  0  0  0  0  0  0  0
  -45.4225   55.5721   74.5820 H   0  0  0  0  0  0  0  0  0  0  0  0
  -46.4675   54.1379   74.1320 H   0  0  0  0  0  0  0  0  0  0  0  0
  -47.4746   53.9152   72.6614 H   0  0  0  0  0  0  0  0  0  0  0  0
  -45.7567   53.3904   72.6614 H   0  0  0  0  0  0  0  0  0  0  0  0
  -44.0871   55.0937   71.7224 H   0  0  0  0  0  0  0  0  0  0  0  0
  -45.4564   54.4752   70.7379 H   0  0  0  0  0  0  0  0  0  0  0  0
  -45.0706   56.2296   70.7379 H   0  0  0  0  0  0  0  0  0  0  0  0
  -48.0664   55.9210   72.8516 H   0  0  0  0  0  0  0  0  0  0  0  0
  -47.1620   57.8649   73.5328 H   0  0  0  0  0  0  0  0  0  0  0  0
  -48.7202   54.6680   71.3178 H   0  0  0  0  0  0  0  0  0  0  0  0
  -50.1787   55.2286   69.2132 H   0  0  0  0  0  0  0  0  0  0  0  0
  -49.2538   53.6807   69.3298 H   0  0  0  0  0  0  0  0  0  0  0  0
  -47.3030   55.0590   68.2692 H   0  0  0  0  0  0  0  0  0  0  0  0
  -48.6300   56.1903   67.7714 H   0  0  0  0  0  0  0  0  0  0  0  0
  -49.6758   52.8725   68.0191 H   0  0  0  0  0  0  0  0  0  0  0  0
  -49.8256   52.6569   66.2545 H   0  0  0  0  0  0  0  0  0  0  0  0
 22 21  2  0
 21 23  1  0
 21 20  1  0
 20 19  1  0
 19 18  1  0
 17 16  2  0
 18 16  1  0
 16 14  1  0
 13 11  1  0
 14 11  1  0
 14 15  1  0
 11 12  1  0
 11 10  1  0
  3  2  2  0
  5  2  1  0
  5  6  1  0
  9 10  1  0
  9  6  1  0
  2  1  1  0
  2  4  1  0
  6  7  2  0
  6  8  1  0
  1 24  1  0
  4 25  1  0
  8 26  1  0
 10 27  1  0
 10 28  1  0
 12 29  1  0
 12 30  1  0
 12 31  1  0
 13 32  1  0
 13 33  1  0
 13 34  1  0
 14 35  1  0
 15 36  1  0
 18 37  1  0
 19 38  1  0
 19 39  1  0
 20 40  1  0
 20 41  1  0
 23 42  1  0
 23 43  1  0
A    1
O19
A    2
P20
A    3
O21
A    4
O22
A    5
O23
A    6
P24
A    7
O25
A    8
O26
A    9
O27
A   10
C28
A   11
C29
A   12
C30
A   13
C31
A   14
C32
A   15
O33
A   16
C34
A   17
O35
A   18
N36
A   19
C37
A   20
C38
A   21
C39
A   22
O40
A   23
N41
M  END
