4F1Q_0RZ_A_1801
     RDKit          3D

 27 27  0  0  0  0  0  0  0  0999 V2000
   38.9190   22.0640  -25.8630 O   0  0  0  0  0  0  0  0  0  0  0  0
   39.4130   21.1480  -25.1630 C   0  0  0  0  0  0  0  0  0  0  0  0
   40.3740   20.4540  -25.5860 O   0  0  0  0  0  0  0  0  0  0  0  0
   38.8280   20.8900  -23.7850 C   0  0  0  0  0  0  0  0  0  0  0  0
   39.3790   19.7620  -22.8790 C   0  0  0  0  0  0  0  0  0  0  0  0
   38.7670   19.5150  -21.4860 C   0  0  0  0  0  0  0  0  0  0  0  0
   39.2040   18.6350  -20.7400 O   0  0  0  0  0  0  0  0  0  0  0  0
   37.7890   20.3870  -21.1940 N   0  0  0  0  0  0  0  0  0  0  0  0
   37.0220   20.3120  -20.1160 C   0  0  0  0  0  0  0  0  0  0  0  0
   36.3220   21.4760  -19.8160 C   0  0  0  0  0  0  0  0  0  0  0  0
   36.7800   19.1510  -19.3710 C   0  0  0  0  0  0  0  0  0  0  0  0
   35.8790   19.1920  -18.3070 C   0  0  0  0  0  0  0  0  0  0  0  0
   35.2100   20.3730  -17.9930 C   0  0  0  0  0  0  0  0  0  0  0  0
   35.4320   21.5170  -18.7540 C   0  0  0  0  0  0  0  0  0  0  0  0
   34.7790   22.6880  -18.4550 C   0  0  0  0  0  0  0  0  0  0  0  0
   34.3950   22.9130  -17.3100 O   0  0  0  0  0  0  0  0  0  0  0  0
   34.5620   23.5020  -19.4810 N   0  0  0  0  0  0  0  0  0  0  0  0
   40.9856   20.0124  -24.9449 H   0  0  0  0  0  0  0  0  0  0  0  0
   37.9982   21.5157  -23.4245 H   0  0  0  0  0  0  0  0  0  0  0  0
   40.2108   19.1341  -23.2309 H   0  0  0  0  0  0  0  0  0  0  0  0
   37.6243   21.1640  -21.8498 H   0  0  0  0  0  0  0  0  0  0  0  0
   36.4767   22.3758  -20.4296 H   0  0  0  0  0  0  0  0  0  0  0  0
   37.2969   18.2133  -19.6232 H   0  0  0  0  0  0  0  0  0  0  0  0
   35.6954   18.2855  -17.7116 H   0  0  0  0  0  0  0  0  0  0  0  0
   34.5085   20.4012  -17.1462 H   0  0  0  0  0  0  0  0  0  0  0  0
   34.3002   24.4839  -19.3130 H   0  0  0  0  0  0  0  0  0  0  0  0
   34.6554   23.1516  -20.4451 H   0  0  0  0  0  0  0  0  0  0  0  0
  1  2  2  0
  3  2  1  0
  2  4  1  0
  4  5  2  0
  5  6  1  0
  6  8  1  0
  6  7  2  0
  8  9  1  0
  9 10  2  0
  9 11  1  0
 10 14  1  0
 17 15  1  0
 11 12  2  0
 14 15  1  0
 14 13  2  0
 15 16  2  0
 12 13  1  0
  3 18  1  0
  4 19  1  0
  5 20  1  0
  8 21  1  0
 10 22  1  0
 11 23  1  0
 12 24  1  0
 13 25  1  0
 17 26  1  0
 17 27  1  0
A    1
OAB
A    2
CAM
A    3
OAE
A    4
CAF
A    5
CAG
A    6
CAO
A    7
OAD
A    8
NAL
A    9
CAP
A   10
CAK
A   11
CAI
A   12
CAH
A   13
CAJ
A   14
CAQ
A   15
CAN
A   16
OAC
A   17
NAA
M  END
