4F2D_RB0_A_602
     RDKit          3D

 22 21  0  0  0  0  0  0  0  0999 V2000
   35.3560    6.3710    6.5530 C   0  0  0  0  0  0  0  0  0  0  0  0
   35.0440    7.3490    7.5520 O   0  0  0  0  0  0  0  0  0  0  0  0
   36.7530    6.6420    6.0500 C   0  0  0  0  0  0  0  0  0  0  0  0
   36.7840    7.9640    5.5210 O   0  0  0  0  0  0  0  0  0  0  0  0
   37.1930    5.6730    4.9530 C   0  0  0  0  0  0  0  0  0  0  0  0
   36.8190    4.3150    5.2410 O   0  0  0  0  0  0  0  0  0  0  0  0
   38.7020    5.7910    4.8050 C   0  0  0  0  0  0  0  0  0  0  0  0
   39.1400    5.1650    3.6020 O   0  0  0  0  0  0  0  0  0  0  0  0
   39.4360    5.1400    5.9620 C   0  0  0  0  0  0  0  0  0  0  0  0
   40.7970    5.5350    5.8690 O   0  0  0  0  0  0  0  0  0  0  0  0
   35.3064    5.3628    6.9902 H   0  0  0  0  0  0  0  0  0  0  0  0
   34.6350    6.4300    5.7243 H   0  0  0  0  0  0  0  0  0  0  0  0
   35.1700    6.9541    8.4511 H   0  0  0  0  0  0  0  0  0  0  0  0
   37.4431    6.5135    6.8969 H   0  0  0  0  0  0  0  0  0  0  0  0
   36.7993    8.6169    6.2650 H   0  0  0  0  0  0  0  0  0  0  0  0
   36.6850    5.9394    4.0144 H   0  0  0  0  0  0  0  0  0  0  0  0
   36.7828    4.1836    6.2216 H   0  0  0  0  0  0  0  0  0  0  0  0
   38.9306    6.8668    4.7870 H   0  0  0  0  0  0  0  0  0  0  0  0
   39.6931    4.3745    3.8238 H   0  0  0  0  0  0  0  0  0  0  0  0
   39.0094    5.4786    6.9177 H   0  0  0  0  0  0  0  0  0  0  0  0
   39.3425    4.0449    5.9181 H   0  0  0  0  0  0  0  0  0  0  0  0
   41.1719    5.6438    6.7788 H   0  0  0  0  0  0  0  0  0  0  0  0
  1  2  1  0
  1  3  1  0
  3  4  1  0
  3  5  1  0
  5  6  1  0
  5  7  1  0
  7  8  1  0
  7  9  1  0
  9 10  1  0
  1 11  1  0
  1 12  1  0
  2 13  1  0
  3 14  1  0
  4 15  1  0
  5 16  1  0
  6 17  1  0
  7 18  1  0
  8 19  1  0
  9 20  1  0
  9 21  1  0
 10 22  1  0
A    1
C1
A    2
O1
A    3
C2
A    4
O2
A    5
C3
A    6
O3
A    7
C4
A    8
O4
A    9
C5
A   10
O5
M  END
