4F3I_0S6_A_203
     RDKit          3D

 47 50  0  0  0  0  0  0  0  0999 V2000
   30.0780   48.6070   -6.8350 Cl  0  0  0  0  0  0  0  0  0  0  0  0
   29.0620   49.3100   -5.5850 C   0  0  0  0  0  0  0  0  0  0  0  0
   29.2980   48.9730   -4.2560 C   0  0  0  0  0  0  0  0  0  0  0  0
   28.4950   49.5700   -3.2990 C   0  0  0  0  0  0  0  0  0  0  0  0
   28.0650   50.1620   -5.9820 C   0  0  0  0  0  0  0  0  0  0  0  0
   27.2380   50.7460   -4.9910 C   0  0  0  0  0  0  0  0  0  0  0  0
   27.4570   50.4280   -3.6580 C   0  0  0  0  0  0  0  0  0  0  0  0
   26.5330   50.9910   -2.6140 C   0  0  0  0  0  0  0  0  0  0  0  0
   27.0840   51.0760   -1.2410 C   0  0  0  0  0  0  0  0  0  0  0  0
   28.3570   51.6390   -0.9240 C   0  0  0  0  0  0  0  0  0  0  0  0
   29.2960   52.3370   -1.8280 C   0  0  0  0  0  0  0  0  0  0  0  0
   28.6690   51.5130    0.4560 C   0  0  0  0  0  0  0  0  0  0  0  0
   29.9260   51.8780    1.2240 C   0  0  0  0  0  0  0  0  0  0  0  0
   27.3520   50.7640    1.3280 S   0  0  0  0  0  0  0  0  0  0  0  0
   26.5040   50.5950   -0.1490 C   0  0  0  0  0  0  0  0  0  0  0  0
   25.1640   50.0220   -0.1550 N   0  0  0  0  0  0  0  0  0  0  0  0
   24.6130   48.9560    0.6150 C   0  0  0  0  0  0  0  0  0  0  0  0
   25.3670   48.1070    1.5930 C   0  0  0  0  0  0  0  0  0  0  0  0
   23.2960   48.8830    0.3010 N   0  0  0  0  0  0  0  0  0  0  0  0
   22.9960   49.8580   -0.6460 N   0  0  0  0  0  0  0  0  0  0  0  0
   24.1120   50.5510   -0.8840 C   0  0  0  0  0  0  0  0  0  0  0  0
   25.2590   51.0700   -2.8930 N   0  0  0  0  0  0  0  0  0  0  0  0
   24.3770   51.6530   -1.8660 C   0  0  0  0  0  0  0  0  0  0  0  0
   23.0760   52.0490   -2.4700 C   0  0  0  0  0  0  0  0  0  0  0  0
   23.3210   53.2020   -3.4120 C   0  0  0  0  0  0  0  0  0  0  0  0
   24.2910   53.9370   -3.4370 O   0  0  0  0  0  0  0  0  0  0  0  0
   22.2190   53.4940   -4.2050 O   0  0  0  0  0  0  0  0  0  0  0  0
   22.3100   54.6030   -5.1170 C   0  0  0  0  0  0  0  0  0  0  0  0
   30.0896   48.2619   -3.9771 H   0  0  0  0  0  0  0  0  0  0  0  0
   28.6799   49.3631   -2.2346 H   0  0  0  0  0  0  0  0  0  0  0  0
   27.9101   50.3877   -7.0474 H   0  0  0  0  0  0  0  0  0  0  0  0
   26.4340   51.4414   -5.2740 H   0  0  0  0  0  0  0  0  0  0  0  0
   30.0377   52.8884   -1.2315 H   0  0  0  0  0  0  0  0  0  0  0  0
   29.8102   51.6001   -2.4625 H   0  0  0  0  0  0  0  0  0  0  0  0
   28.7386   53.0418   -2.4625 H   0  0  0  0  0  0  0  0  0  0  0  0
   29.7257   51.8198    2.3040 H   0  0  0  0  0  0  0  0  0  0  0  0
   30.7322   51.1768    0.9623 H   0  0  0  0  0  0  0  0  0  0  0  0
   30.2313   52.9019    0.9623 H   0  0  0  0  0  0  0  0  0  0  0  0
   25.1021   48.4053    2.6181 H   0  0  0  0  0  0  0  0  0  0  0  0
   25.1047   47.0498    1.4394 H   0  0  0  0  0  0  0  0  0  0  0  0
   26.4477   48.2426    1.4394 H   0  0  0  0  0  0  0  0  0  0  0  0
   24.8408   52.5386   -1.4071 H   0  0  0  0  0  0  0  0  0  0  0  0
   22.3773   52.3577   -1.6785 H   0  0  0  0  0  0  0  0  0  0  0  0
   22.6384   51.2004   -3.0162 H   0  0  0  0  0  0  0  0  0  0  0  0
   22.3870   55.5408   -4.5473 H   0  0  0  0  0  0  0  0  0  0  0  0
   23.2014   54.4846   -5.7505 H   0  0  0  0  0  0  0  0  0  0  0  0
   21.4112   54.6315   -5.7505 H   0  0  0  0  0  0  0  0  0  0  0  0
  1  2  1  0
  5  2  2  0
  5  6  1  0
  2  3  1  0
 28 27  1  0
  6  7  2  0
  3  4  2  0
 27 25  1  0
  7  4  1  0
  7  8  1  0
 26 25  2  0
 25 24  1  0
 22  8  2  0
 22 23  1  0
  8  9  1  0
 24 23  1  0
 23 21  1  0
 11 10  1  0
  9 10  1  0
  9 15  2  0
 10 12  2  0
 21 20  2  0
 21 16  1  0
 20 19  1  0
 16 15  1  0
 16 17  1  0
 15 14  1  0
 19 17  2  0
 12 13  1  0
 12 14  1  0
 17 18  1  0
  3 29  1  0
  4 30  1  0
  5 31  1  0
  6 32  1  0
 11 33  1  0
 11 34  1  0
 11 35  1  0
 13 36  1  0
 13 37  1  0
 13 38  1  0
 18 39  1  0
 18 40  1  0
 18 41  1  0
 23 42  1  0
 24 43  1  0
 24 44  1  0
 28 45  1  0
 28 46  1  0
 28 47  1  0
A    1
CL1
A    2
C15
A    3
C16
A    4
C17
A    5
C13
A    6
C14
A    7
C12
A    8
C8
A    9
C5
A   10
C4
A   11
C7
A   12
C2
A   13
C6
A   14
S1
A   15
C3
A   16
N9
A   17
C11
A   18
C28
A   19
N27
A   20
N21
A   21
C19
A   22
N10
A   23
C20
A   24
C22
A   25
C23
A   26
O24
A   27
O25
A   28
C26
M  END
