3WIE_DN4_A_1003
     RDKit          3D

 75 79  0  0  0  0  0  0  0  0999 V2000
   40.2790  -28.8310   33.8340 P   0  0  0  0  0  0  0  0  0  0  0  0
   41.7200  -28.5510   33.7260 O   0  0  0  0  0  0  0  0  0  0  0  0
   39.7200  -30.1970   33.9390 O   0  0  0  0  0  0  0  0  0  0  0  0
   39.8750  -28.0590   35.1980 O   0  0  0  0  0  0  0  0  0  0  0  0
   38.9000  -28.5330   36.1380 C   0  0  0  0  0  0  0  0  0  0  0  0
   39.3840  -28.0970   37.5220 C   0  0  0  0  0  0  0  0  0  0  0  0
   38.3290  -28.3850   38.4400 O   0  0  0  0  0  0  0  0  0  0  0  0
   40.6030  -28.9360   37.9380 C   0  0  0  0  0  0  0  0  0  0  0  0
   41.5120  -28.1570   38.7060 O   0  0  0  0  0  0  0  0  0  0  0  0
   39.9610  -29.9880   38.7770 C   0  0  0  0  0  0  0  0  0  0  0  0
   40.9470  -30.5410   39.6660 O   0  0  0  0  0  0  0  0  0  0  0  0
   38.9620  -29.1040   39.5050 C   0  0  0  0  0  0  0  0  0  0  0  0
   37.9020  -29.8090   40.2030 N   0  0  0  0  0  0  0  0  0  0  0  0
   37.1410  -30.8580   39.8620 C   0  0  0  0  0  0  0  0  0  0  0  0
   36.3160  -31.1150   40.8890 N   0  0  0  0  0  0  0  0  0  0  0  0
   36.5810  -30.2190   41.8610 C   0  0  0  0  0  0  0  0  0  0  0  0
   36.0260  -30.0190   43.0430 C   0  0  0  0  0  0  0  0  0  0  0  0
   35.0570  -30.8410   43.4110 N   0  0  0  0  0  0  0  0  0  0  0  0
   36.4600  -29.0760   43.8640 N   0  0  0  0  0  0  0  0  0  0  0  0
   37.4730  -28.2320   43.3980 C   0  0  0  0  0  0  0  0  0  0  0  0
   38.0410  -28.4190   42.1490 N   0  0  0  0  0  0  0  0  0  0  0  0
   37.5720  -29.4230   41.4240 C   0  0  0  0  0  0  0  0  0  0  0  0
   39.5520  -28.0810   32.5470 O   0  0  0  0  0  0  0  0  0  0  0  0
   39.5090  -26.3980   32.2210 P   0  0  0  0  0  0  0  0  0  0  0  0
   39.8200  -26.1710   30.7590 O   0  0  0  0  0  0  0  0  0  0  0  0
   40.3270  -25.6860   33.2540 O   0  0  0  0  0  0  0  0  0  0  0  0
   37.9120  -26.1370   32.4660 O   0  0  0  0  0  0  0  0  0  0  0  0
   37.1410  -26.9000   33.4320 C   0  0  0  0  0  0  0  0  0  0  0  0
   35.6840  -26.7440   33.0470 C   0  0  0  0  0  0  0  0  0  0  0  0
   35.4430  -25.5750   32.1990 O   0  0  0  0  0  0  0  0  0  0  0  0
   35.1730  -27.9450   32.2580 C   0  0  0  0  0  0  0  0  0  0  0  0
   33.9810  -28.3940   32.8840 O   0  0  0  0  0  0  0  0  0  0  0  0
   34.8330  -27.3770   30.8850 C   0  0  0  0  0  0  0  0  0  0  0  0
   33.6680  -27.9610   30.3220 O   0  0  0  0  0  0  0  0  0  0  0  0
   34.4370  -26.0030   31.2460 C   0  0  0  0  0  0  0  0  0  0  0  0
   34.4850  -25.0410   30.1380 N   0  0  0  0  0  0  0  0  0  0  0  0
   33.4350  -24.1140   30.0580 C   0  0  0  0  0  0  0  0  0  0  0  0
   33.4190  -23.1400   29.0670 C   0  0  0  0  0  0  0  0  0  0  0  0
   32.3830  -22.1980   28.9640 C   0  0  0  0  0  0  0  0  0  0  0  0
   31.3560  -22.2250   29.7530 O   0  0  0  0  0  0  0  0  0  0  0  0
   34.4960  -23.1000   28.1670 C   0  0  0  0  0  0  0  0  0  0  0  0
   35.5550  -24.0140   28.2600 C   0  0  0  0  0  0  0  0  0  0  0  0
   35.5630  -24.9940   29.2410 C   0  0  0  0  0  0  0  0  0  0  0  0
   41.5930  -32.0620   39.4190 P   0  0  0  0  0  0  0  0  0  0  0  0
   42.2680  -32.0920   38.1190 O   0  0  0  0  0  0  0  0  0  0  0  0
   42.5780  -32.1480   40.6950 O   0  0  0  0  0  0  0  0  0  0  0  0
   40.3090  -33.0920   39.5430 O   0  0  0  0  0  0  0  0  0  0  0  0
   32.5320  -21.3230   28.0630 O   0  0  0  0  0  0  0  0  0  0  0  0
   39.6204  -30.4403   34.8934 H   0  0  0  0  0  0  0  0  0  0  0  0
   37.9168  -28.0895   35.9220 H   0  0  0  0  0  0  0  0  0  0  0  0
   38.7904  -29.6260   36.0808 H   0  0  0  0  0  0  0  0  0  0  0  0
   39.6548  -27.0309   37.5129 H   0  0  0  0  0  0  0  0  0  0  0  0
   41.1938  -29.3280   37.0970 H   0  0  0  0  0  0  0  0  0  0  0  0
   41.3402  -28.3042   39.6698 H   0  0  0  0  0  0  0  0  0  0  0  0
   39.5202  -30.8553   38.2636 H   0  0  0  0  0  0  0  0  0  0  0  0
   39.4934  -28.5202   40.2710 H   0  0  0  0  0  0  0  0  0  0  0  0
   37.1846  -31.4094   38.9112 H   0  0  0  0  0  0  0  0  0  0  0  0
   34.8690  -31.0005   44.4111 H   0  0  0  0  0  0  0  0  0  0  0  0
   34.4905  -31.3215   42.6975 H   0  0  0  0  0  0  0  0  0  0  0  0
   37.8243  -27.4061   44.0340 H   0  0  0  0  0  0  0  0  0  0  0  0
   37.3093  -26.5080   34.4459 H   0  0  0  0  0  0  0  0  0  0  0  0
   37.4398  -27.9586   33.4292 H   0  0  0  0  0  0  0  0  0  0  0  0
   35.1574  -26.6391   34.0071 H   0  0  0  0  0  0  0  0  0  0  0  0
   35.8906  -28.7768   32.2012 H   0  0  0  0  0  0  0  0  0  0  0  0
   34.0891  -28.3533   33.8672 H   0  0  0  0  0  0  0  0  0  0  0  0
   35.6582  -27.5177   30.1714 H   0  0  0  0  0  0  0  0  0  0  0  0
   33.0663  -28.2626   31.0480 H   0  0  0  0  0  0  0  0  0  0  0  0
   33.3970  -26.0226   31.6039 H   0  0  0  0  0  0  0  0  0  0  0  0
   32.6141  -24.1587   30.7889 H   0  0  0  0  0  0  0  0  0  0  0  0
   34.5091  -22.3374   27.3743 H   0  0  0  0  0  0  0  0  0  0  0  0
   36.3897  -23.9530   27.5461 H   0  0  0  0  0  0  0  0  0  0  0  0
   36.3911  -25.7143   29.3140 H   0  0  0  0  0  0  0  0  0  0  0  0
   42.0444  -32.1014   41.5276 H   0  0  0  0  0  0  0  0  0  0  0  0
   40.1070  -33.2540   40.4985 H   0  0  0  0  0  0  0  0  0  0  0  0
   32.6928  -20.3784   28.3121 H   0  0  0  0  0  0  0  0  0  0  0  0
 32 31  1  0
 34 33  1  0
 31 33  1  0
 31 29  1  0
 33 35  1  0
 29 30  1  0
 29 28  1  0
 30 35  1  0
 35 36  1  0
 28 27  1  0
 27 24  1  0
 26 24  2  0
 36 37  2  0
 36 43  1  0
 37 38  1  0
 40 39  2  0
 24 23  1  0
 24 25  1  0
 23  1  1  0
 43 42  2  0
 38 39  1  0
 38 41  2  0
 39 48  1  0
 42 41  1  0
  1  2  2  0
  1  4  1  0
  1  3  1  0
  5  4  1  0
  5  6  1  0
  6  7  1  0
  6  8  1  0
  7 12  1  0
 14 15  2  0
 14 13  1  0
 15 16  1  0
  8 10  1  0
  8  9  1  0
 13 12  1  0
 13 22  1  0
 12 10  1  0
 16 22  2  0
 16 17  1  0
 10 11  1  0
 22 21  1  0
 18 17  1  0
 17 19  2  0
 21 20  2  0
 11 44  1  0
 19 20  1  0
 45 44  2  0
 44 46  1  0
 44 47  1  0
  3 49  1  0
  5 50  1  0
  5 51  1  0
  6 52  1  0
  8 53  1  0
  9 54  1  0
 10 55  1  0
 12 56  1  0
 14 57  1  0
 18 58  1  0
 18 59  1  0
 20 60  1  0
 28 61  1  0
 28 62  1  0
 29 63  1  0
 31 64  1  0
 32 65  1  0
 33 66  1  0
 34 67  1  0
 35 68  1  0
 37 69  1  0
 41 70  1  0
 42 71  1  0
 43 72  1  0
 46 73  1  0
 47 74  1  0
 48 75  1  0
M  CHG  2  25  -1  36   1
A    1
PA
A    2
O1A
A    3
O2A
A    4
O5B
A    5
C5B
A    6
C4B
A    7
O4B
A    8
C3B
A    9
O3B
A   10
C2B
A   11
O2B
A   12
C1B
A   13
N9A
A   14
C8A
A   15
N7A
A   16
C5A
A   17
C6A
A   18
N6A
A   19
N1A
A   20
C2A
A   21
N3A
A   22
C4A
A   23
O3
A   24
PN
A   25
O1N
A   26
O2N
A   27
O5D
A   28
C5D
A   29
C4D
A   30
O4D
A   31
C3D
A   32
O3D
A   33
C2D
A   34
O2D
A   35
C1D
A   36
N1N
A   37
C2N
A   38
C3N
A   39
C7N
A   40
O7N
A   41
C4N
A   42
C5N
A   43
C6N
A   44
P2B
A   45
O1X
A   46
O2X
A   47
O3X
A   48
O8N
M  END
