4F46_DVN_A_401
     RDKit          3D

 64 67  0  0  0  0  0  0  0  0999 V2000
 -402.5000 -933.5450   -2.7000 O   0  0  0  0  0  0  0  0  0  0  0  0
 -401.6810 -933.4970   -1.4630 C   0  0  0  0  0  0  0  0  0  0  0  0
 -401.3650 -932.0740   -0.9770 C   0  0  0  0  0  0  0  0  0  0  0  0
 -401.2180 -931.1720   -2.0850 O   0  0  0  0  0  0  0  0  0  0  0  0
 -402.5880 -931.7330   -0.1090 C   0  0  0  0  0  0  0  0  0  0  0  0
 -403.6410 -931.1590   -0.8810 O   0  0  0  0  0  0  0  0  0  0  0  0
 -403.1080 -932.9850    0.3890 O   0  0  0  0  0  0  0  0  0  0  0  0
 -402.3880 -934.0960   -0.2440 C   0  0  0  0  0  0  0  0  0  0  0  0
 -401.3590 -934.5860    0.7580 C   0  0  0  0  0  0  0  0  0  0  0  0
 -402.1580 -934.9220    1.9220 O   0  0  0  0  0  0  0  0  0  0  0  0
 -402.3450 -936.4380    2.5300 P   0  0  0  0  0  0  0  0  0  0  0  0
 -400.8780 -937.1100    2.6290 O   0  0  0  0  0  0  0  0  0  0  0  0
 -403.2780 -937.2220    1.6670 O   0  0  0  0  0  0  0  0  0  0  0  0
 -402.9960 -936.3130    3.9960 O   0  0  0  0  0  0  0  0  0  0  0  0
 -402.4390 -935.4320    5.2400 P   0  0  0  0  0  0  0  0  0  0  0  0
 -401.5500 -936.4780    6.1060 O   0  0  0  0  0  0  0  0  0  0  0  0
 -403.6220 -934.9280    5.9810 O   0  0  0  0  0  0  0  0  0  0  0  0
 -401.4820 -934.2430    4.7000 O   0  0  0  0  0  0  0  0  0  0  0  0
 -401.9640 -932.9250    4.3380 C   0  0  0  0  0  0  0  0  0  0  0  0
 -400.8650 -931.9000    4.6340 C   0  0  0  0  0  0  0  0  0  0  0  0
 -400.7690 -931.8770    6.0740 O   0  0  0  0  0  0  0  0  0  0  0  0
 -399.4940 -932.3480    4.1190 C   0  0  0  0  0  0  0  0  0  0  0  0
 -398.6960 -931.2190    3.7770 O   0  0  0  0  0  0  0  0  0  0  0  0
 -398.8560 -933.0360    5.3240 C   0  0  0  0  0  0  0  0  0  0  0  0
 -397.4030 -933.0060    5.2400 O   0  0  0  0  0  0  0  0  0  0  0  0
 -396.5720 -934.3830    5.4880 P   0  0  0  0  0  0  0  0  0  0  0  0
 -395.0160 -933.9260    5.5490 O   0  0  0  0  0  0  0  0  0  0  0  0
 -396.7670 -935.2740    4.1400 O   0  0  0  0  0  0  0  0  0  0  0  0
 -397.0380 -935.1050    6.7080 O   0  0  0  0  0  0  0  0  0  0  0  0
 -399.3900 -932.1480    6.4470 C   0  0  0  0  0  0  0  0  0  0  0  0
 -399.4950 -932.8200    7.7710 N   0  0  0  0  0  0  0  0  0  0  0  0
 -399.9480 -934.0460    8.0410 C   0  0  0  0  0  0  0  0  0  0  0  0
 -399.9000 -934.2330    9.3640 N   0  0  0  0  0  0  0  0  0  0  0  0
 -399.4150 -933.1170    9.9180 C   0  0  0  0  0  0  0  0  0  0  0  0
 -399.1770 -932.2340    8.9260 C   0  0  0  0  0  0  0  0  0  0  0  0
 -398.6880 -931.0020    9.1800 N   0  0  0  0  0  0  0  0  0  0  0  0
 -398.4260 -930.6390   10.4980 C   0  0  0  0  0  0  0  0  0  0  0  0
 -398.6930 -931.5760   11.5080 N   0  0  0  0  0  0  0  0  0  0  0  0
 -399.1770 -932.7870   11.1950 C   0  0  0  0  0  0  0  0  0  0  0  0
 -399.4430 -933.7100   12.1380 N   0  0  0  0  0  0  0  0  0  0  0  0
 -403.4586 -933.6012   -2.4591 H   0  0  0  0  0  0  0  0  0  0  0  0
 -400.7847 -934.0546   -1.7726 H   0  0  0  0  0  0  0  0  0  0  0  0
 -400.4170 -931.9934   -0.4248 H   0  0  0  0  0  0  0  0  0  0  0  0
 -401.0684 -930.2541   -1.7457 H   0  0  0  0  0  0  0  0  0  0  0  0
 -402.2759 -931.0266    0.6743 H   0  0  0  0  0  0  0  0  0  0  0  0
 -404.3282 -930.7844   -0.2748 H   0  0  0  0  0  0  0  0  0  0  0  0
 -403.0426 -934.9283   -0.5420 H   0  0  0  0  0  0  0  0  0  0  0  0
 -400.8278 -935.4704    0.3764 H   0  0  0  0  0  0  0  0  0  0  0  0
 -400.5790 -933.8406    0.9726 H   0  0  0  0  0  0  0  0  0  0  0  0
 -400.6305 -937.2234    3.5808 H   0  0  0  0  0  0  0  0  0  0  0  0
 -401.6918 -936.3112    7.0715 H   0  0  0  0  0  0  0  0  0  0  0  0
 -402.8618 -932.6850    4.9265 H   0  0  0  0  0  0  0  0  0  0  0  0
 -402.2198 -932.9009    3.2684 H   0  0  0  0  0  0  0  0  0  0  0  0
 -401.1130 -930.9395    4.1586 H   0  0  0  0  0  0  0  0  0  0  0  0
 -399.5775 -932.9872    3.2277 H   0  0  0  0  0  0  0  0  0  0  0  0
 -398.3817 -930.7744    4.6038 H   0  0  0  0  0  0  0  0  0  0  0  0
 -399.0905 -934.1047    5.4375 H   0  0  0  0  0  0  0  0  0  0  0  0
 -394.7333 -933.8430    6.4941 H   0  0  0  0  0  0  0  0  0  0  0  0
 -396.7272 -934.6235    7.5153 H   0  0  0  0  0  0  0  0  0  0  0  0
 -398.7105 -931.2891    6.5505 H   0  0  0  0  0  0  0  0  0  0  0  0
 -400.3011 -934.7787    7.3004 H   0  0  0  0  0  0  0  0  0  0  0  0
 -398.0210 -929.6456   10.7411 H   0  0  0  0  0  0  0  0  0  0  0  0
 -399.3717 -933.4627   13.1353 H   0  0  0  0  0  0  0  0  0  0  0  0
 -399.7178 -934.6636   11.8622 H   0  0  0  0  0  0  0  0  0  0  0  0
  1  2  1  0
  4  3  1  0
  2  3  1  0
  2  8  1  0
  3  5  1  0
  6  5  1  0
  8  7  1  0
  8  9  1  0
  5  7  1  0
  9 10  1  0
 13 11  2  0
 10 11  1  0
 11 12  1  0
 11 14  1  0
 23 22  1  0
 14 15  1  0
 22 20  1  0
 22 24  1  0
 28 26  2  0
 19 20  1  0
 19 18  1  0
 20 21  1  0
 18 15  1  0
 15 17  2  0
 15 16  1  0
 25 24  1  0
 25 26  1  0
 24 30  1  0
 26 27  1  0
 26 29  1  0
 21 30  1  0
 30 31  1  0
 31 32  1  0
 31 35  1  0
 32 33  2  0
 35 36  2  0
 35 34  1  0
 36 37  1  0
 33 34  1  0
 34 39  2  0
 37 38  2  0
 39 38  1  0
 39 40  1  0
  1 41  1  0
  2 42  1  0
  3 43  1  0
  4 44  1  0
  5 45  1  0
  6 46  1  0
  8 47  1  0
  9 48  1  0
  9 49  1  0
 12 50  1  0
 16 51  1  0
 19 52  1  0
 19 53  1  0
 20 54  1  0
 22 55  1  0
 23 56  1  0
 24 57  1  0
 27 58  1  0
 29 59  1  0
 30 60  1  0
 32 61  1  0
 37 62  1  0
 40 63  1  0
 40 64  1  0
A    1
O3'
A    2
C3'
A    3
C2'
A    4
O2'
A    5
C1'
A    6
O1'
A    7
O4'
A    8
C4'
A    9
C5'
A   10
O5'
A   11
PBM
A   12
OAK
A   13
OAC
A   14
OAY
A   15
PBN
A   16
OAL
A   17
OAD
A   18
OAU
A   19
CAP
A   20
CBH
A   21
OAW
A   22
CBF
A   23
OAH
A   24
CBI
A   25
OAX
A   26
PBL
A   27
OAI
A   28
OAJ
A   29
OAB
A   30
CBJ
A   31
N9
A   32
C8
A   33
N7
A   34
C5
A   35
C4
A   36
N3
A   37
C2
A   38
N1
A   39
C6
A   40
N6
M  END
