4F4P_0SB_A_701
     RDKit          3D

 49 52  0  0  0  0  0  0  0  0999 V2000
   -0.1400    2.6730   12.3210 C   0  0  0  0  0  0  0  0  0  0  0  0
    0.1300    1.5660   13.1000 C   0  0  0  0  0  0  0  0  0  0  0  0
   -1.1800    2.5980   11.3950 C   0  0  0  0  0  0  0  0  0  0  0  0
   -0.5810    0.3910   12.9650 C   0  0  0  0  0  0  0  0  0  0  0  0
   -1.9190    1.4310   11.2650 C   0  0  0  0  0  0  0  0  0  0  0  0
   -1.6340    0.3320   12.0580 C   0  0  0  0  0  0  0  0  0  0  0  0
   -0.2130   -0.6830   13.9070 C   0  0  0  0  0  0  0  0  0  0  0  0
   -0.7800   -2.5740   15.2650 C   0  0  0  0  0  0  0  0  0  0  0  0
    0.4980   -2.5900   15.7980 C   0  0  0  0  0  0  0  0  0  0  0  0
    2.7330   -1.7120   15.9030 N   0  0  0  0  0  0  0  0  0  0  0  0
    3.8770   -0.0780   14.4380 C   0  0  0  0  0  0  0  0  0  0  0  0
    5.0510    0.6190   14.1700 C   0  0  0  0  0  0  0  0  0  0  0  0
    6.1420   -0.4400   16.0050 C   0  0  0  0  0  0  0  0  0  0  0  0
    6.1720    0.4530   14.9570 C   0  0  0  0  0  0  0  0  0  0  0  0
    0.7480    6.3520   12.8730 C   0  0  0  0  0  0  0  0  0  0  0  0
    4.9890    2.8400   13.6140 F   0  0  0  0  0  0  0  0  0  0  0  0
    5.1330    1.6190   13.0540 C   0  0  0  0  0  0  0  0  0  0  0  0
    6.3610    1.5480   12.4750 F   0  0  0  0  0  0  0  0  0  0  0  0
    4.1690    1.4370   12.1040 F   0  0  0  0  0  0  0  0  0  0  0  0
    4.9860   -1.1460   16.2790 N   0  0  0  0  0  0  0  0  0  0  0  0
    3.8530   -0.9710   15.5030 C   0  0  0  0  0  0  0  0  0  0  0  0
    1.4220   -1.6360   15.3910 C   0  0  0  0  0  0  0  0  0  0  0  0
    1.0590   -0.6860   14.4680 N   0  0  0  0  0  0  0  0  0  0  0  0
   -1.1470   -1.6190   14.3330 C   0  0  0  0  0  0  0  0  0  0  0  0
    0.6400    3.8480   12.5240 N   0  0  0  0  0  0  0  0  0  0  0  0
    2.0780    3.7960   12.8500 C   0  0  0  0  0  0  0  0  0  0  0  0
    2.3930    4.8600   13.9110 C   0  0  0  0  0  0  0  0  0  0  0  0
    2.1410    6.1800   13.3320 N   0  0  0  0  0  0  0  0  0  0  0  0
    0.2720    5.1860   11.9840 C   0  0  0  0  0  0  0  0  0  0  0  0
    0.9338    1.6219   13.8488 H   0  0  0  0  0  0  0  0  0  0  0  0
   -1.4155    3.4682   10.7647 H   0  0  0  0  0  0  0  0  0  0  0  0
   -2.7347    1.3785   10.5289 H   0  0  0  0  0  0  0  0  0  0  0  0
   -2.2376   -0.5835   11.9710 H   0  0  0  0  0  0  0  0  0  0  0  0
   -1.5122   -3.3294   15.5862 H   0  0  0  0  0  0  0  0  0  0  0  0
    0.7796   -3.3530   16.5387 H   0  0  0  0  0  0  0  0  0  0  0  0
    2.8858   -2.3927   16.6608 H   0  0  0  0  0  0  0  0  0  0  0  0
    2.9821    0.0752   13.8170 H   0  0  0  0  0  0  0  0  0  0  0  0
    7.0385   -0.5914   16.6242 H   0  0  0  0  0  0  0  0  0  0  0  0
    7.0846    1.0307   14.7486 H   0  0  0  0  0  0  0  0  0  0  0  0
    0.6792    7.2863   12.2964 H   0  0  0  0  0  0  0  0  0  0  0  0
    0.1031    6.3785   13.7637 H   0  0  0  0  0  0  0  0  0  0  0  0
   -2.1713   -1.6012   13.9323 H   0  0  0  0  0  0  0  0  0  0  0  0
    2.3308    2.7996   13.2415 H   0  0  0  0  0  0  0  0  0  0  0  0
    2.6701    3.9908   11.9436 H   0  0  0  0  0  0  0  0  0  0  0  0
    1.7481    4.7106   14.7895 H   0  0  0  0  0  0  0  0  0  0  0  0
    3.4441    4.7801   14.2253 H   0  0  0  0  0  0  0  0  0  0  0  0
    2.7704    6.3111   12.5273 H   0  0  0  0  0  0  0  0  0  0  0  0
    0.7257    5.2979   10.9882 H   0  0  0  0  0  0  0  0  0  0  0  0
   -0.8264    5.2319   11.9454 H   0  0  0  0  0  0  0  0  0  0  0  0
  5  3  2  0
  5  6  1  0
  3  1  1  0
 29 25  1  0
 29 15  1  0
  6  4  2  0
 19 17  1  0
  1 25  1  0
  1  2  2  0
 18 17  1  0
 25 26  1  0
 26 27  1  0
 15 28  1  0
  4  2  1  0
  4  7  1  0
 17 16  1  0
 17 12  1  0
 28 27  1  0
  7 24  1  0
  7 23  2  0
 12 11  2  0
 12 14  1  0
 24  8  2  0
 11 21  1  0
 23 22  1  0
 14 13  2  0
  8  9  1  0
 22  9  2  0
 22 10  1  0
 21 10  1  0
 21 20  2  0
 13 20  1  0
  2 30  1  0
  3 31  1  0
  5 32  1  0
  6 33  1  0
  8 34  1  0
  9 35  1  0
 10 36  1  0
 11 37  1  0
 13 38  1  0
 14 39  1  0
 15 40  1  0
 15 41  1  0
 24 42  1  0
 26 43  1  0
 26 44  1  0
 27 45  1  0
 27 46  1  0
 28 47  1  0
 29 48  1  0
 29 49  1  0
A    1
C1
A    2
C2
A    3
C3
A    4
C4
A    5
C5
A    6
C6
A    7
C7
A    8
C11
A    9
C12
A   10
N13
A   11
C15
A   12
C17
A   13
C18
A   14
C19
A   15
C27
A   16
F23
A   17
C20
A   18
F21
A   19
F22
A   20
N16
A   21
C14
A   22
C10
A   23
N8
A   24
C9
A   25
N24
A   26
C26
A   27
C28
A   28
N29
A   29
C25
M  END
