4F65_0S9_A_808
     RDKit          3D

 49 52  0  0  0  0  0  0  0  0999 V2000
   11.2720   -3.6250   -9.9110 C   0  0  0  0  0  0  0  0  0  0  0  0
   12.2920   -3.0990   -9.1420 C   0  0  0  0  0  0  0  0  0  0  0  0
   11.4960   -3.9650  -11.2320 C   0  0  0  0  0  0  0  0  0  0  0  0
   13.5430   -2.9170   -9.7000 C   0  0  0  0  0  0  0  0  0  0  0  0
   12.7520   -3.7800  -11.7820 C   0  0  0  0  0  0  0  0  0  0  0  0
   19.5660   -4.3290   -9.9030 C   0  0  0  0  0  0  0  0  0  0  0  0
   17.6610   -1.9580  -13.1690 C   0  0  0  0  0  0  0  0  0  0  0  0
   22.6390   -3.3840  -14.4490 C   0  0  0  0  0  0  0  0  0  0  0  0
   13.7760   -3.2460  -11.0210 C   0  0  0  0  0  0  0  0  0  0  0  0
   21.8120   -2.3270  -14.7390 C   0  0  0  0  0  0  0  0  0  0  0  0
   18.6630   -4.0630   -8.8470 C   0  0  0  0  0  0  0  0  0  0  0  0
   16.4100   -1.3960  -13.0620 C   0  0  0  0  0  0  0  0  0  0  0  0
   18.8230   -5.0240  -10.8300 C   0  0  0  0  0  0  0  0  0  0  0  0
   18.3730   -1.1110  -14.0550 C   0  0  0  0  0  0  0  0  0  0  0  0
   20.5310   -2.3500  -14.1890 C   0  0  0  0  0  0  0  0  0  0  0  0
   20.9550   -4.4070  -13.2540 C   0  0  0  0  0  0  0  0  0  0  0  0
   18.9410   -3.3420   -7.5910 C   0  0  0  0  0  0  0  0  0  0  0  0
   15.1350   -3.0420  -11.6110 C   0  0  0  0  0  0  0  0  0  0  0  0
   15.1780   -1.7050  -12.3060 C   0  0  0  0  0  0  0  0  0  0  0  0
   19.1480   -5.6040  -12.1550 C   0  0  0  0  0  0  0  0  0  0  0  0
   22.2220   -4.4230  -13.7080 N   0  0  0  0  0  0  0  0  0  0  0  0
   17.4430   -4.5540   -9.1080 N   0  0  0  0  0  0  0  0  0  0  0  0
   20.0970   -3.3930  -13.4640 N   0  0  0  0  0  0  0  0  0  0  0  0
   17.6080   -0.0820  -14.4460 N   0  0  0  0  0  0  0  0  0  0  0  0
   16.4280   -0.3020  -13.8640 N   0  0  0  0  0  0  0  0  0  0  0  0
   19.6790   -1.2610  -14.4190 N   0  0  0  0  0  0  0  0  0  0  0  0
   20.5690   -5.5360  -12.5060 N   0  0  0  0  0  0  0  0  0  0  0  0
   17.5560   -5.1680  -10.3520 O   0  0  0  0  0  0  0  0  0  0  0  0
   22.4870   -0.9310  -15.8330 Br  0  0  0  0  0  0  0  0  0  0  0  0
   10.2756   -3.7742   -9.4695 H   0  0  0  0  0  0  0  0  0  0  0  0
   12.1095   -2.8267   -8.0920 H   0  0  0  0  0  0  0  0  0  0  0  0
   10.6805   -4.3802  -11.8423 H   0  0  0  0  0  0  0  0  0  0  0  0
   14.3595   -2.5070   -9.0874 H   0  0  0  0  0  0  0  0  0  0  0  0
   12.9371   -4.0590  -12.8298 H   0  0  0  0  0  0  0  0  0  0  0  0
   20.6263   -4.0438   -9.9687 H   0  0  0  0  0  0  0  0  0  0  0  0
   18.0294   -2.8685  -12.6737 H   0  0  0  0  0  0  0  0  0  0  0  0
   23.6696   -3.3794  -14.8336 H   0  0  0  0  0  0  0  0  0  0  0  0
   18.6923   -3.9869   -6.7353 H   0  0  0  0  0  0  0  0  0  0  0  0
   20.0070   -3.0738   -7.5504 H   0  0  0  0  0  0  0  0  0  0  0  0
   18.3310   -2.4275   -7.5504 H   0  0  0  0  0  0  0  0  0  0  0  0
   15.3445   -3.8411  -12.3373 H   0  0  0  0  0  0  0  0  0  0  0  0
   15.8920   -3.0684  -10.8133 H   0  0  0  0  0  0  0  0  0  0  0  0
   15.0511   -0.9256  -11.5402 H   0  0  0  0  0  0  0  0  0  0  0  0
   14.3755   -1.7407  -13.0575 H   0  0  0  0  0  0  0  0  0  0  0  0
   18.5767   -5.0583  -12.9204 H   0  0  0  0  0  0  0  0  0  0  0  0
   18.8839   -6.6708  -12.1075 H   0  0  0  0  0  0  0  0  0  0  0  0
   17.8721    0.7028  -15.0586 H   0  0  0  0  0  0  0  0  0  0  0  0
   20.0940   -0.4692  -14.9306 H   0  0  0  0  0  0  0  0  0  0  0  0
   21.2403   -6.2648  -12.2246 H   0  0  0  0  0  0  0  0  0  0  0  0
 29 10  1  0
 10  8  2  0
 10 15  1  0
  8 21  1  0
 24 14  1  0
 24 25  1  0
 26 15  1  0
 26 14  1  0
 15 23  2  0
 14  7  2  0
 25 12  2  0
 21 16  2  0
 23 16  1  0
 16 27  1  0
  7 12  1  0
 12 19  1  0
 27 20  1  0
 19 18  1  0
 20 13  1  0
  5  3  1  0
  5  9  2  0
 18  9  1  0
  3  1  2  0
  9  4  1  0
 13 28  1  0
 13  6  2  0
 28 22  1  0
  1  2  1  0
  6 11  1  0
  4  2  2  0
 22 11  2  0
 11 17  1  0
  1 30  1  0
  2 31  1  0
  3 32  1  0
  4 33  1  0
  5 34  1  0
  6 35  1  0
  7 36  1  0
  8 37  1  0
 17 38  1  0
 17 39  1  0
 17 40  1  0
 18 41  1  0
 18 42  1  0
 19 43  1  0
 19 44  1  0
 20 45  1  0
 20 46  1  0
 24 47  1  0
 26 48  1  0
 27 49  1  0
A    1
C26
A    2
C25
A    3
C27
A    4
C24
A    5
C28
A    6
C3
A    7
C17
A    8
C11
A    9
C23
A   10
C12
A   11
C2
A   12
C18
A   13
C4
A   14
C16
A   15
C13
A   16
C9
A   17
C1
A   18
C22
A   19
C21
A   20
C7
A   21
N10
A   22
N6
A   23
N14
A   24
N20
A   25
N19
A   26
N15
A   27
N8
A   28
O5
A   29
BR1
M  END
