4F6V_FJP_A_303
     RDKit          3D

 47 46  0  0  0  0  0  0  0  0999 V2000
   23.5240  -21.3690    7.5600 C   0  0  0  0  0  0  0  0  0  0  0  0
   21.9820  -20.6710    9.4070 C   0  0  0  0  0  0  0  0  0  0  0  0
   22.9480  -16.7740    8.3650 C   0  0  0  0  0  0  0  0  0  0  0  0
   25.4240  -11.4600    6.6330 C   0  0  0  0  0  0  0  0  0  0  0  0
   22.5140   -8.8150   10.1570 O   0  0  0  0  0  0  0  0  0  0  0  0
   24.1310  -10.6160   10.7440 O   0  0  0  0  0  0  0  0  0  0  0  0
   24.9610   -8.2960   10.6550 O   0  0  0  0  0  0  0  0  0  0  0  0
   22.8920  -19.0070    7.8800 C   0  0  0  0  0  0  0  0  0  0  0  0
   23.9490  -15.1390    7.0610 C   0  0  0  0  0  0  0  0  0  0  0  0
   23.0500  -11.0410    7.0310 C   0  0  0  0  0  0  0  0  0  0  0  0
   23.7350  -18.6810    6.6870 C   0  0  0  0  0  0  0  0  0  0  0  0
   24.7050  -14.2570    6.1620 C   0  0  0  0  0  0  0  0  0  0  0  0
   23.2980   -9.6610    7.6150 C   0  0  0  0  0  0  0  0  0  0  0  0
   24.7300  -17.5270    6.8140 C   0  0  0  0  0  0  0  0  0  0  0  0
   23.6430  -13.1950    6.0130 C   0  0  0  0  0  0  0  0  0  0  0  0
   24.2700   -9.5820    8.6380 O   0  0  0  0  0  0  0  0  0  0  0  0
   22.8100  -20.2760    8.2560 C   0  0  0  0  0  0  0  0  0  0  0  0
   23.9280  -16.4180    7.3470 C   0  0  0  0  0  0  0  0  0  0  0  0
   23.9950  -11.8650    6.5900 C   0  0  0  0  0  0  0  0  0  0  0  0
   23.9420   -9.2710   10.1810 P   0  0  0  0  0  0  0  0  0  0  0  0
   23.9678  -22.0483    8.3027 H   0  0  0  0  0  0  0  0  0  0  0  0
   22.8156  -21.9269    6.9299 H   0  0  0  0  0  0  0  0  0  0  0  0
   24.3195  -20.9445    6.9299 H   0  0  0  0  0  0  0  0  0  0  0  0
   22.5077  -20.4202   10.3401 H   0  0  0  0  0  0  0  0  0  0  0  0
   21.0230  -20.1334    9.3705 H   0  0  0  0  0  0  0  0  0  0  0  0
   21.7965  -21.7546    9.3705 H   0  0  0  0  0  0  0  0  0  0  0  0
   23.3824  -16.6162    9.3632 H   0  0  0  0  0  0  0  0  0  0  0  0
   22.0543  -16.1431    8.2501 H   0  0  0  0  0  0  0  0  0  0  0  0
   22.6676  -17.8314    8.2501 H   0  0  0  0  0  0  0  0  0  0  0  0
   25.7477  -11.3682    7.6803 H   0  0  0  0  0  0  0  0  0  0  0  0
   26.0360  -12.2201    6.1253 H   0  0  0  0  0  0  0  0  0  0  0  0
   25.5462  -10.4919    6.1253 H   0  0  0  0  0  0  0  0  0  0  0  0
   24.1237  -10.5639   11.7326 H   0  0  0  0  0  0  0  0  0  0  0  0
   24.9722   -8.2853   11.6449 H   0  0  0  0  0  0  0  0  0  0  0  0
   22.3567  -18.2178    8.4283 H   0  0  0  0  0  0  0  0  0  0  0  0
   23.2057  -14.5796    7.6480 H   0  0  0  0  0  0  0  0  0  0  0  0
   22.0071  -11.3852    6.9682 H   0  0  0  0  0  0  0  0  0  0  0  0
   24.3098  -19.5841    6.4342 H   0  0  0  0  0  0  0  0  0  0  0  0
   23.0179  -18.3471    5.9226 H   0  0  0  0  0  0  0  0  0  0  0  0
   25.6245  -13.8708    6.6261 H   0  0  0  0  0  0  0  0  0  0  0  0
   25.0847  -14.7081    5.2334 H   0  0  0  0  0  0  0  0  0  0  0  0
   23.6196   -9.0023    6.7948 H   0  0  0  0  0  0  0  0  0  0  0  0
   22.3492   -9.3661    8.0870 H   0  0  0  0  0  0  0  0  0  0  0  0
   25.5440  -17.7879    7.5063 H   0  0  0  0  0  0  0  0  0  0  0  0
   25.2110  -17.2776    5.8567 H   0  0  0  0  0  0  0  0  0  0  0  0
   23.4445  -13.0594    4.9396 H   0  0  0  0  0  0  0  0  0  0  0  0
   22.7693  -13.5531    6.5773 H   0  0  0  0  0  0  0  0  0  0  0  0
  1 17  1  0
 17  2  1  0
 18  3  1  0
 19  4  1  0
  5 20  2  0
 20  6  1  0
 20  7  1  0
 11  8  1  0
  8 17  2  0
 12  9  1  0
  9 18  2  0
 19 10  2  0
 10 13  1  0
 11 14  1  0
 15 12  1  0
 13 16  1  0
 14 18  1  0
 15 19  1  0
 16 20  1  0
  1 21  1  0
  1 22  1  0
  1 23  1  0
  2 24  1  0
  2 25  1  0
  2 26  1  0
  3 27  1  0
  3 28  1  0
  3 29  1  0
  4 30  1  0
  4 31  1  0
  4 32  1  0
  6 33  1  0
  7 34  1  0
  8 35  1  0
  9 36  1  0
 10 37  1  0
 11 38  1  0
 11 39  1  0
 12 40  1  0
 12 41  1  0
 13 42  1  0
 13 43  1  0
 14 44  1  0
 14 45  1  0
 15 46  1  0
 15 47  1  0
A    1
CAA
A    2
CAB
A    3
CAC
A    4
CAD
A    5
OAE
A    6
OAF
A    7
OAG
A    8
CAH
A    9
CAI
A   10
CAJ
A   11
CAK
A   12
CAL
A   13
CAM
A   14
CAN
A   15
CAO
A   16
OAP
A   17
CAQ
A   18
CAR
A   19
CAS
A   20
PAT
M  END
