4F6W_0SS_A_501
     RDKit          3D

 96100  0  0  0  0  0  0  0  0999 V2000
   40.6560   57.8560  145.5950 O   0  0  0  0  0  0  0  0  0  0  0  0
   39.6520   58.5020  145.8070 C   0  0  0  0  0  0  0  0  0  0  0  0
   38.9210   58.3580  146.9570 N   0  0  0  0  0  0  0  0  0  0  0  0
   39.2970   57.4400  147.9780 C   0  0  0  0  0  0  0  0  0  0  0  0
   38.4570   56.8500  148.8440 N   0  0  0  0  0  0  0  0  0  0  0  0
   36.9940   56.9830  148.9460 C   0  0  0  0  0  0  0  0  0  0  0  0
   36.2320   56.9800  147.7720 C   0  0  0  0  0  0  0  0  0  0  0  0
   34.8450   57.0530  147.8090 C   0  0  0  0  0  0  0  0  0  0  0  0
   34.1810   57.0890  149.0330 C   0  0  0  0  0  0  0  0  0  0  0  0
   32.6690   57.1500  149.0650 C   0  0  0  0  0  0  0  0  0  0  0  0
   34.9300   57.0710  150.2090 C   0  0  0  0  0  0  0  0  0  0  0  0
   36.3300   56.9990  150.1690 C   0  0  0  0  0  0  0  0  0  0  0  0
   39.0810   56.0170  149.5700 N   0  0  0  0  0  0  0  0  0  0  0  0
   40.3850   56.0060  149.2630 C   0  0  0  0  0  0  0  0  0  0  0  0
   41.4640   55.1760  149.9510 C   0  0  0  0  0  0  0  0  0  0  0  0
   42.4690   54.5230  148.9980 C   0  0  0  0  0  0  0  0  0  0  0  0
   40.8530   54.0930  150.8220 C   0  0  0  0  0  0  0  0  0  0  0  0
   42.2300   56.1270  150.8730 C   0  0  0  0  0  0  0  0  0  0  0  0
   40.5580   56.9190  148.2530 C   0  0  0  0  0  0  0  0  0  0  0  0
   39.2440   59.4470  144.9020 N   0  0  0  0  0  0  0  0  0  0  0  0
   40.1640   60.0640  143.9270 C   0  0  0  0  0  0  0  0  0  0  0  0
   39.5130   60.2770  142.5700 C   0  0  0  0  0  0  0  0  0  0  0  0
   38.6810   59.1450  142.1320 N   0  0  0  0  0  0  0  0  0  0  0  0
   37.9020   59.5470  140.9350 C   0  0  0  0  0  0  0  0  0  0  0  0
   37.2360   58.4050  140.1500 C   0  0  0  0  0  0  0  0  0  0  0  0
   39.4970   57.9510  141.8270 C   0  0  0  0  0  0  0  0  0  0  0  0
   38.5640   56.8350  141.3310 C   0  0  0  0  0  0  0  0  0  0  0  0
   38.1040   57.2170  139.9730 N   0  0  0  0  0  0  0  0  0  0  0  0
   38.3810   56.6040  138.7450 C   0  0  0  0  0  0  0  0  0  0  0  0
   37.8940   57.0790  137.7510 O   0  0  0  0  0  0  0  0  0  0  0  0
   39.2710   55.5210  138.6650 N   0  0  0  0  0  0  0  0  0  0  0  0
   39.4560   54.9160  137.4030 C   0  0  0  0  0  0  0  0  0  0  0  0
   39.0290   53.6930  136.9410 C   0  0  0  0  0  0  0  0  0  0  0  0
   39.2870   53.7270  135.5870 C   0  0  0  0  0  0  0  0  0  0  0  0
   39.0540   52.6170  134.5730 C   0  0  0  0  0  0  0  0  0  0  0  0
   40.4320   52.0020  134.3390 C   0  0  0  0  0  0  0  0  0  0  0  0
   38.5480   53.2140  133.2440 C   0  0  0  0  0  0  0  0  0  0  0  0
   38.1090   51.5190  135.0890 C   0  0  0  0  0  0  0  0  0  0  0  0
   39.8170   54.9330  135.2830 N   0  0  0  0  0  0  0  0  0  0  0  0
   39.9030   55.6140  136.3360 N   0  0  0  0  0  0  0  0  0  0  0  0
   40.4340   56.9840  136.3860 C   0  0  0  0  0  0  0  0  0  0  0  0
   41.4520   57.2400  137.3070 C   0  0  0  0  0  0  0  0  0  0  0  0
   39.9650   58.0220  135.5890 C   0  0  0  0  0  0  0  0  0  0  0  0
   40.5250   59.2870  135.7040 C   0  0  0  0  0  0  0  0  0  0  0  0
   41.5430   59.5360  136.6230 C   0  0  0  0  0  0  0  0  0  0  0  0
   42.1400   60.9080  136.7400 C   0  0  0  0  0  0  0  0  0  0  0  0
   42.0070   58.5090  137.4250 C   0  0  0  0  0  0  0  0  0  0  0  0
   38.0747   58.9307  147.0865 H   0  0  0  0  0  0  0  0  0  0  0  0
   36.7421   56.9185  146.7993 H   0  0  0  0  0  0  0  0  0  0  0  0
   34.2709   57.0824  146.8712 H   0  0  0  0  0  0  0  0  0  0  0  0
   32.3246   57.1639  150.1096 H   0  0  0  0  0  0  0  0  0  0  0  0
   32.3280   58.0626  148.5543 H   0  0  0  0  0  0  0  0  0  0  0  0
   32.2556   56.2678  148.5543 H   0  0  0  0  0  0  0  0  0  0  0  0
   34.4161   57.1138  151.1807 H   0  0  0  0  0  0  0  0  0  0  0  0
   36.9044   56.9551  151.1061 H   0  0  0  0  0  0  0  0  0  0  0  0
   43.2509   54.0150  149.5815 H   0  0  0  0  0  0  0  0  0  0  0  0
   41.9497   53.7893  148.3639 H   0  0  0  0  0  0  0  0  0  0  0  0
   42.9284   55.2956  148.3639 H   0  0  0  0  0  0  0  0  0  0  0  0
   40.9978   54.3497  151.8818 H   0  0  0  0  0  0  0  0  0  0  0  0
   39.7770   54.0136  150.6076 H   0  0  0  0  0  0  0  0  0  0  0  0
   41.3415   53.1310  150.6076 H   0  0  0  0  0  0  0  0  0  0  0  0
   42.0216   55.8682  151.9216 H   0  0  0  0  0  0  0  0  0  0  0  0
   43.3090   56.0348  150.6801 H   0  0  0  0  0  0  0  0  0  0  0  0
   41.9101   57.1616  150.6801 H   0  0  0  0  0  0  0  0  0  0  0  0
   41.5042   57.1857  147.7595 H   0  0  0  0  0  0  0  0  0  0  0  0
   38.2560   59.7381  144.9024 H   0  0  0  0  0  0  0  0  0  0  0  0
   41.0372   59.4071  143.8006 H   0  0  0  0  0  0  0  0  0  0  0  0
   40.4546   61.0503  144.3179 H   0  0  0  0  0  0  0  0  0  0  0  0
   40.3064   60.4345  141.8245 H   0  0  0  0  0  0  0  0  0  0  0  0
   38.8485   61.1486  142.6640 H   0  0  0  0  0  0  0  0  0  0  0  0
   38.5839   60.0730  140.2506 H   0  0  0  0  0  0  0  0  0  0  0  0
   37.0765   60.1681  141.3130 H   0  0  0  0  0  0  0  0  0  0  0  0
   36.9585   58.7834  139.1551 H   0  0  0  0  0  0  0  0  0  0  0  0
   36.3627   58.0802  140.7347 H   0  0  0  0  0  0  0  0  0  0  0  0
   40.0223   57.6191  142.7347 H   0  0  0  0  0  0  0  0  0  0  0  0
   40.2411   58.1912  141.0533 H   0  0  0  0  0  0  0  0  0  0  0  0
   37.7018   56.7368  142.0069 H   0  0  0  0  0  0  0  0  0  0  0  0
   39.0898   55.8691  141.3072 H   0  0  0  0  0  0  0  0  0  0  0  0
   39.7715   55.1798  139.4981 H   0  0  0  0  0  0  0  0  0  0  0  0
   38.5821   52.8723  137.5212 H   0  0  0  0  0  0  0  0  0  0  0  0
   40.9080   51.7896  135.3077 H   0  0  0  0  0  0  0  0  0  0  0  0
   40.3243   51.0665  133.7704 H   0  0  0  0  0  0  0  0  0  0  0  0
   41.0564   52.7069  133.7704 H   0  0  0  0  0  0  0  0  0  0  0  0
   37.8499   54.0377  133.4543 H   0  0  0  0  0  0  0  0  0  0  0  0
   39.4018   53.5958  132.6649 H   0  0  0  0  0  0  0  0  0  0  0  0
   38.0315   52.4343  132.6649 H   0  0  0  0  0  0  0  0  0  0  0  0
   38.1107   51.5210  136.1890 H   0  0  0  0  0  0  0  0  0  0  0  0
   37.0894   51.7112  134.7235 H   0  0  0  0  0  0  0  0  0  0  0  0
   38.4509   50.5394  134.7235 H   0  0  0  0  0  0  0  0  0  0  0  0
   41.8200   56.4257  137.9484 H   0  0  0  0  0  0  0  0  0  0  0  0
   39.1527   57.8415  134.8695 H   0  0  0  0  0  0  0  0  0  0  0  0
   40.1610   60.1028  135.0621 H   0  0  0  0  0  0  0  0  0  0  0  0
   42.2536   61.1691  137.8025 H   0  0  0  0  0  0  0  0  0  0  0  0
   43.1255   60.9219  136.2516 H   0  0  0  0  0  0  0  0  0  0  0  0
   41.4784   61.6386  136.2516 H   0  0  0  0  0  0  0  0  0  0  0  0
   42.8109   58.6955  138.1523 H   0  0  0  0  0  0  0  0  0  0  0  0
 37 35  1  0
 36 35  1  0
 35 38  1  0
 35 34  1  0
 39 34  2  0
 39 40  1  0
 34 33  1  0
 43 44  2  0
 43 41  1  0
 44 45  1  0
 40 41  1  0
 40 32  1  0
 41 42  2  0
 45 46  1  0
 45 47  2  0
 33 32  2  0
 42 47  1  0
 32 31  1  0
 30 29  2  0
 31 29  1  0
 29 28  1  0
 28 25  1  0
 28 27  1  0
 25 24  1  0
 24 23  1  0
 27 26  1  0
 26 23  1  0
 23 22  1  0
 22 21  1  0
 21 20  1  0
 20  2  1  0
  1  2  2  0
  2  3  1  0
  3  4  1  0
  7  8  2  0
  7  6  1  0
  8  9  1  0
  4 19  2  0
  4  5  1  0
 19 14  1  0
  5  6  1  0
  5 13  1  0
  6 12  2  0
 16 15  1  0
  9 10  1  0
  9 11  2  0
 14 13  2  0
 14 15  1  0
 15 17  1  0
 15 18  1  0
 12 11  1  0
  3 48  1  0
  7 49  1  0
  8 50  1  0
 10 51  1  0
 10 52  1  0
 10 53  1  0
 11 54  1  0
 12 55  1  0
 16 56  1  0
 16 57  1  0
 16 58  1  0
 17 59  1  0
 17 60  1  0
 17 61  1  0
 18 62  1  0
 18 63  1  0
 18 64  1  0
 19 65  1  0
 20 66  1  0
 21 67  1  0
 21 68  1  0
 22 69  1  0
 22 70  1  0
 24 71  1  0
 24 72  1  0
 25 73  1  0
 25 74  1  0
 26 75  1  0
 26 76  1  0
 27 77  1  0
 27 78  1  0
 31 79  1  0
 33 80  1  0
 36 81  1  0
 36 82  1  0
 36 83  1  0
 37 84  1  0
 37 85  1  0
 37 86  1  0
 38 87  1  0
 38 88  1  0
 38 89  1  0
 42 90  1  0
 43 91  1  0
 44 92  1  0
 46 93  1  0
 46 94  1  0
 46 95  1  0
 47 96  1  0
A    1
O31
A    2
C29
A    3
N30
A    4
C32
A    5
N35
A    6
C41
A    7
C46
A    8
C45
A    9
C44
A   10
C47
A   11
C43
A   12
C42
A   13
N36
A   14
C34
A   15
C37
A   16
C40
A   17
C39
A   18
C38
A   19
C33
A   20
N28
A   21
C27
A   22
C26
A   23
N24
A   24
C23
A   25
C21
A   26
C25
A   27
C22
A   28
N19
A   29
C18
A   30
O20
A   31
N17
A   32
C10
A   33
C12
A   34
C11
A   35
C13
A   36
C16
A   37
C15
A   38
C14
A   39
N9
A   40
N8
A   41
C4
A   42
C2
A   43
C6
A   44
C5
A   45
C3
A   46
C7
A   47
C1
M  END
