4F6X_ZYL_A_301
     RDKit          3D

 48 49  0  0  0  0  0  0  0  0999 V2000
  -23.3210   22.7610    7.7520 C   0  0  0  0  0  0  0  0  0  0  0  0
  -25.0520    6.0660    7.1780 O   0  0  0  0  0  0  0  0  0  0  0  0
  -24.3330    9.3130    5.0440 O   0  0  0  0  0  0  0  0  0  0  0  0
  -25.0550    6.9200    5.1390 O   0  0  0  0  0  0  0  0  0  0  0  0
  -23.0040    6.6910    8.6430 O   0  0  0  0  0  0  0  0  0  0  0  0
  -26.0150   13.1780    6.0640 C   0  0  0  0  0  0  0  0  0  0  0  0
  -25.0530   12.2530    5.6860 C   0  0  0  0  0  0  0  0  0  0  0  0
  -25.6540   14.3030    6.7910 C   0  0  0  0  0  0  0  0  0  0  0  0
  -22.0500    8.8460    8.3030 C   0  0  0  0  0  0  0  0  0  0  0  0
  -21.9630   10.0220    7.5640 C   0  0  0  0  0  0  0  0  0  0  0  0
  -23.3650   13.5740    6.7660 C   0  0  0  0  0  0  0  0  0  0  0  0
  -23.7200   21.3360    8.1380 C   0  0  0  0  0  0  0  0  0  0  0  0
  -22.6650   20.3320    7.6770 C   0  0  0  0  0  0  0  0  0  0  0  0
  -23.3000   19.1700    6.9160 C   0  0  0  0  0  0  0  0  0  0  0  0
  -23.3100   17.9010    7.7620 C   0  0  0  0  0  0  0  0  0  0  0  0
  -23.9580   16.7470    7.0030 C   0  0  0  0  0  0  0  0  0  0  0  0
  -22.6650   11.4360    5.6260 C   0  0  0  0  0  0  0  0  0  0  0  0
  -23.9710   15.6010    7.8560 O   0  0  0  0  0  0  0  0  0  0  0  0
  -24.6860    6.9090    6.3340 C   0  0  0  0  0  0  0  0  0  0  0  0
  -23.7280   12.4490    6.0410 C   0  0  0  0  0  0  0  0  0  0  0  0
  -24.3280   14.5020    7.1420 C   0  0  0  0  0  0  0  0  0  0  0  0
  -22.9270    7.8370    7.9140 C   0  0  0  0  0  0  0  0  0  0  0  0
  -23.7190    8.0040    6.7830 C   0  0  0  0  0  0  0  0  0  0  0  0
  -23.6310    9.1750    6.0410 C   0  0  0  0  0  0  0  0  0  0  0  0
  -22.7590   10.1940    6.4280 N   0  0  0  0  0  0  0  0  0  0  0  0
  -23.1548   23.3547    8.6630 H   0  0  0  0  0  0  0  0  0  0  0  0
  -22.3957   22.7345    7.1577 H   0  0  0  0  0  0  0  0  0  0  0  0
  -24.1255   23.2188    7.1577 H   0  0  0  0  0  0  0  0  0  0  0  0
  -24.9662    6.2635    8.1443 H   0  0  0  0  0  0  0  0  0  0  0  0
  -23.0012    6.7324    9.6321 H   0  0  0  0  0  0  0  0  0  0  0  0
  -27.0675   13.0190    5.7864 H   0  0  0  0  0  0  0  0  0  0  0  0
  -25.3417   11.3647    5.1050 H   0  0  0  0  0  0  0  0  0  0  0  0
  -26.4187   15.0357    7.0883 H   0  0  0  0  0  0  0  0  0  0  0  0
  -21.4238    8.7132    9.1975 H   0  0  0  0  0  0  0  0  0  0  0  0
  -21.2678   10.8162    7.8739 H   0  0  0  0  0  0  0  0  0  0  0  0
  -22.3125   13.7319    7.0439 H   0  0  0  0  0  0  0  0  0  0  0  0
  -24.6822   21.0905    7.6648 H   0  0  0  0  0  0  0  0  0  0  0  0
  -23.8054   21.2789    9.2332 H   0  0  0  0  0  0  0  0  0  0  0  0
  -22.1367   19.9376    8.5575 H   0  0  0  0  0  0  0  0  0  0  0  0
  -21.9658   20.8480    7.0025 H   0  0  0  0  0  0  0  0  0  0  0  0
  -24.3348   19.4351    6.6534 H   0  0  0  0  0  0  0  0  0  0  0  0
  -22.7077   18.9808    6.0086 H   0  0  0  0  0  0  0  0  0  0  0  0
  -22.2748   17.6291    8.0160 H   0  0  0  0  0  0  0  0  0  0  0  0
  -23.8918   18.0919    8.6758 H   0  0  0  0  0  0  0  0  0  0  0  0
  -24.9879   17.0159    6.7255 H   0  0  0  0  0  0  0  0  0  0  0  0
  -23.3909   16.5305    6.0856 H   0  0  0  0  0  0  0  0  0  0  0  0
  -22.8033   11.1872    4.5635 H   0  0  0  0  0  0  0  0  0  0  0  0
  -21.6749   11.8839    5.7965 H   0  0  0  0  0  0  0  0  0  0  0  0
  3 24  2  0
  4 19  2  0
 17 20  1  0
 17 25  1  0
  7 20  1  0
  7  6  2  0
 24 25  1  0
 24 23  1  0
 20 11  2  0
  6  8  1  0
 19 23  1  0
 19  2  1  0
 25 10  1  0
 11 21  1  0
 23 22  2  0
  8 21  2  0
 14 13  1  0
 14 15  1  0
 16 15  1  0
 16 18  1  0
 21 18  1  0
 10  9  2  0
 13 12  1  0
  1 12  1  0
 22  9  1  0
 22  5  1  0
  1 26  1  0
  1 27  1  0
  1 28  1  0
  2 29  1  0
  5 30  1  0
  6 31  1  0
  7 32  1  0
  8 33  1  0
  9 34  1  0
 10 35  1  0
 11 36  1  0
 12 37  1  0
 12 38  1  0
 13 39  1  0
 13 40  1  0
 14 41  1  0
 14 42  1  0
 15 43  1  0
 15 44  1  0
 16 45  1  0
 16 46  1  0
 17 47  1  0
 17 48  1  0
A    1
CAA
A    2
OAB
A    3
OAC
A    4
OAD
A    5
OAE
A    6
CAF
A    7
CAG
A    8
CAH
A    9
CAI
A   10
CAJ
A   11
CAK
A   12
CAL
A   13
CAM
A   14
CAN
A   15
CAO
A   16
CAP
A   17
CAQ
A   18
OAR
A   19
CAS
A   20
CAT
A   21
CAU
A   22
CAV
A   23
CAW
A   24
CAX
A   25
NAY
M  END
