4F70_0ST_A_501
     RDKit          3D

 59 61  0  0  0  0  0  0  0  0999 V2000
   40.3670  -23.2770  102.2170 O   0  0  0  0  0  0  0  0  0  0  0  0
   40.7510  -22.1470  102.3700 C   0  0  0  0  0  0  0  0  0  0  0  0
   40.4270  -21.4030  103.5100 N   0  0  0  0  0  0  0  0  0  0  0  0
   39.5450  -21.8350  104.5590 C   0  0  0  0  0  0  0  0  0  0  0  0
   39.0660  -23.1090  104.8110 C   0  0  0  0  0  0  0  0  0  0  0  0
   38.1870  -23.0130  105.8690 C   0  0  0  0  0  0  0  0  0  0  0  0
   37.3620  -24.0890  106.5910 C   0  0  0  0  0  0  0  0  0  0  0  0
   35.9550  -23.4910  106.8900 C   0  0  0  0  0  0  0  0  0  0  0  0
   38.0900  -24.4400  107.9120 C   0  0  0  0  0  0  0  0  0  0  0  0
   37.2010  -25.3550  105.7120 C   0  0  0  0  0  0  0  0  0  0  0  0
   38.1650  -21.7210  106.2200 N   0  0  0  0  0  0  0  0  0  0  0  0
   38.9340  -21.0510  105.4850 N   0  0  0  0  0  0  0  0  0  0  0  0
   39.0020  -19.5940  105.6970 C   0  0  0  0  0  0  0  0  0  0  0  0
   39.0950  -19.0160  106.9670 C   0  0  0  0  0  0  0  0  0  0  0  0
   38.8820  -18.7790  104.5740 C   0  0  0  0  0  0  0  0  0  0  0  0
   38.9070  -17.4010  104.6940 C   0  0  0  0  0  0  0  0  0  0  0  0
   39.0190  -16.8240  105.9480 C   0  0  0  0  0  0  0  0  0  0  0  0
   39.0380  -15.3240  106.0410 C   0  0  0  0  0  0  0  0  0  0  0  0
   39.1130  -17.6300  107.0920 C   0  0  0  0  0  0  0  0  0  0  0  0
   41.5670  -21.6090  101.3850 N   0  0  0  0  0  0  0  0  0  0  0  0
   42.0220  -22.2980  100.1570 C   0  0  0  0  0  0  0  0  0  0  0  0
   41.7900  -21.4670   98.8910 C   0  0  0  0  0  0  0  0  0  0  0  0
   40.6950  -21.9870   98.0350 N   0  0  0  0  0  0  0  0  0  0  0  0
   39.3380  -21.8570   98.6110 C   0  0  0  0  0  0  0  0  0  0  0  0
   38.2920  -22.3660   97.6030 C   0  0  0  0  0  0  0  0  0  0  0  0
   38.3700  -21.6380   96.3710 O   0  0  0  0  0  0  0  0  0  0  0  0
   39.6350  -21.7540   95.7320 C   0  0  0  0  0  0  0  0  0  0  0  0
   40.7740  -21.3630   96.6950 C   0  0  0  0  0  0  0  0  0  0  0  0
   40.8550  -20.4710  103.6048 H   0  0  0  0  0  0  0  0  0  0  0  0
   39.3362  -24.0269  104.2684 H   0  0  0  0  0  0  0  0  0  0  0  0
   35.8070  -23.4281  107.9782 H   0  0  0  0  0  0  0  0  0  0  0  0
   35.8835  -22.4847  106.4515 H   0  0  0  0  0  0  0  0  0  0  0  0
   35.1809  -24.1379  106.4515 H   0  0  0  0  0  0  0  0  0  0  0  0
   37.4655  -24.1389  108.7660 H   0  0  0  0  0  0  0  0  0  0  0  0
   38.2707  -25.5242  107.9542 H   0  0  0  0  0  0  0  0  0  0  0  0
   39.0509  -23.9062  107.9542 H   0  0  0  0  0  0  0  0  0  0  0  0
   37.0887  -26.2381  106.3581 H   0  0  0  0  0  0  0  0  0  0  0  0
   36.3090  -25.2495  105.0770 H   0  0  0  0  0  0  0  0  0  0  0  0
   38.0910  -25.4761  105.0770 H   0  0  0  0  0  0  0  0  0  0  0  0
   39.1536  -19.6530  107.8619 H   0  0  0  0  0  0  0  0  0  0  0  0
   38.7660  -19.2362  103.5803 H   0  0  0  0  0  0  0  0  0  0  0  0
   38.8383  -16.7668  103.7979 H   0  0  0  0  0  0  0  0  0  0  0  0
   39.0418  -15.0222  107.0988 H   0  0  0  0  0  0  0  0  0  0  0  0
   39.9411  -14.9374  105.5461 H   0  0  0  0  0  0  0  0  0  0  0  0
   38.1450  -14.9146  105.5461 H   0  0  0  0  0  0  0  0  0  0  0  0
   39.2008  -17.1675  108.0862 H   0  0  0  0  0  0  0  0  0  0  0  0
   41.8859  -20.6392  101.5214 H   0  0  0  0  0  0  0  0  0  0  0  0
   41.4721  -23.2458  100.0612 H   0  0  0  0  0  0  0  0  0  0  0  0
   43.1054  -22.4634  100.2514 H   0  0  0  0  0  0  0  0  0  0  0  0
   42.7194  -21.4616   98.3027 H   0  0  0  0  0  0  0  0  0  0  0  0
   41.4962  -20.4578   99.2153 H   0  0  0  0  0  0  0  0  0  0  0  0
   39.1389  -20.8000   98.8413 H   0  0  0  0  0  0  0  0  0  0  0  0
   39.2758  -22.4554   99.5319 H   0  0  0  0  0  0  0  0  0  0  0  0
   37.2872  -22.2398   98.0325 H   0  0  0  0  0  0  0  0  0  0  0  0
   38.4919  -23.4277   97.3962 H   0  0  0  0  0  0  0  0  0  0  0  0
   39.7800  -22.7945   95.4058 H   0  0  0  0  0  0  0  0  0  0  0  0
   39.6563  -21.0746   94.8672 H   0  0  0  0  0  0  0  0  0  0  0  0
   41.7281  -21.6597   96.2350 H   0  0  0  0  0  0  0  0  0  0  0  0
   40.6875  -20.2778   96.8529 H   0  0  0  0  0  0  0  0  0  0  0  0
 27 26  1  0
 27 28  1  0
 26 25  1  0
 28 23  1  0
 25 24  1  0
 23 24  1  0
 23 22  1  0
 22 21  1  0
 21 20  1  0
 20  2  1  0
  1  2  2  0
  2  3  1  0
  3  4  1  0
  4  5  2  0
  4 12  1  0
 15 16  2  0
 15 13  1  0
 16 17  1  0
  5  6  1  0
 12 13  1  0
 12 11  1  0
 13 14  2  0
 10  7  1  0
  6 11  2  0
  6  7  1  0
 17 18  1  0
 17 19  2  0
  7  8  1  0
  7  9  1  0
 14 19  1  0
  3 29  1  0
  5 30  1  0
  8 31  1  0
  8 32  1  0
  8 33  1  0
  9 34  1  0
  9 35  1  0
  9 36  1  0
 10 37  1  0
 10 38  1  0
 10 39  1  0
 14 40  1  0
 15 41  1  0
 16 42  1  0
 18 43  1  0
 18 44  1  0
 18 45  1  0
 19 46  1  0
 20 47  1  0
 21 48  1  0
 21 49  1  0
 22 50  1  0
 22 51  1  0
 24 52  1  0
 24 53  1  0
 25 54  1  0
 25 55  1  0
 27 56  1  0
 27 57  1  0
 28 58  1  0
 28 59  1  0
A    1
O21
A    2
C18
A    3
N17
A    4
C11
A    5
C12
A    6
C10
A    7
C13
A    8
C16
A    9
C15
A   10
C14
A   11
N9
A   12
N8
A   13
C4
A   14
C2
A   15
C6
A   16
C5
A   17
C3
A   18
C7
A   19
C1
A   20
N19
A   21
C20
A   22
C22
A   23
N23
A   24
C28
A   25
C27
A   26
O25
A   27
C24
A   28
C26
M  END
