4F7S_0SW_A_501
     RDKit          3D

 34 36  0  0  0  0  0  0  0  0999 V2000
    5.8200   58.3690   51.6010 N   0  0  0  0  0  0  0  0  0  0  0  0
    6.9140   59.2780   51.6660 C   0  0  0  0  0  0  0  0  0  0  0  0
    7.2890   59.8920   52.8680 C   0  0  0  0  0  0  0  0  0  0  0  0
    6.6300   59.6720   54.0910 C   0  0  0  0  0  0  0  0  0  0  0  0
    7.0540   60.3110   55.2520 C   0  0  0  0  0  0  0  0  0  0  0  0
    8.1370   61.1710   55.2120 C   0  0  0  0  0  0  0  0  0  0  0  0
    8.7990   61.3960   54.0140 C   0  0  0  0  0  0  0  0  0  0  0  0
    7.6370   59.5680   50.5140 N   0  0  0  0  0  0  0  0  0  0  0  0
    8.7100   60.4410   50.5140 C   0  0  0  0  0  0  0  0  0  0  0  0
    9.0970   61.0470   51.6900 N   0  0  0  0  0  0  0  0  0  0  0  0
    8.3880   60.7720   52.8500 C   0  0  0  0  0  0  0  0  0  0  0  0
    5.5450   57.7010   50.3110 C   0  0  0  0  0  0  0  0  0  0  0  0
    6.5270   56.5400   50.1020 C   0  0  0  0  0  0  0  0  0  0  0  0
    6.0300   55.4730   49.1370 C   0  0  0  0  0  0  0  0  0  0  0  0
    5.1760   55.7640   48.0570 C   0  0  0  0  0  0  0  0  0  0  0  0
    4.7540   54.7500   47.1940 C   0  0  0  0  0  0  0  0  0  0  0  0
    5.1820   53.4420   47.4040 C   0  0  0  0  0  0  0  0  0  0  0  0
    6.0370   53.1500   48.4660 C   0  0  0  0  0  0  0  0  0  0  0  0
    6.4560   54.1570   49.3280 C   0  0  0  0  0  0  0  0  0  0  0  0
    5.2368   58.1821   52.4291 H   0  0  0  0  0  0  0  0  0  0  0  0
    5.7700   58.9873   54.1300 H   0  0  0  0  0  0  0  0  0  0  0  0
    6.5282   60.1324   56.2015 H   0  0  0  0  0  0  0  0  0  0  0  0
    8.4729   61.6760   56.1297 H   0  0  0  0  0  0  0  0  0  0  0  0
    9.6611   62.0788   53.9894 H   0  0  0  0  0  0  0  0  0  0  0  0
    9.2519   60.6506   49.5799 H   0  0  0  0  0  0  0  0  0  0  0  0
    5.6599   58.4272   49.4928 H   0  0  0  0  0  0  0  0  0  0  0  0
    4.5175   57.3082   50.3192 H   0  0  0  0  0  0  0  0  0  0  0  0
    6.7130   56.0650   51.0766 H   0  0  0  0  0  0  0  0  0  0  0  0
    7.4374   56.9699   49.6588 H   0  0  0  0  0  0  0  0  0  0  0  0
    4.8383   56.7977   47.8912 H   0  0  0  0  0  0  0  0  0  0  0  0
    4.0862   54.9840   46.3518 H   0  0  0  0  0  0  0  0  0  0  0  0
    4.8456   52.6387   46.7320 H   0  0  0  0  0  0  0  0  0  0  0  0
    6.3819   52.1173   48.6226 H   0  0  0  0  0  0  0  0  0  0  0  0
    7.1271   53.9157   50.1655 H   0  0  0  0  0  0  0  0  0  0  0  0
 16 17  1  0
 16 15  2  0
 17 18  2  0
 15 14  1  0
 18 19  1  0
 14 19  2  0
 14 13  1  0
 13 12  1  0
 12  1  1  0
  8  9  1  0
  8  2  2  0
  9 10  2  0
  1  2  1  0
  2  3  1  0
 10 11  1  0
 11  3  1  0
 11  7  2  0
  3  4  2  0
  7  6  1  0
  4  5  1  0
  6  5  2  0
  1 20  1  0
  4 21  1  0
  5 22  1  0
  6 23  1  0
  7 24  1  0
  9 25  1  0
 12 26  1  0
 12 27  1  0
 13 28  1  0
 13 29  1  0
 15 30  1  0
 16 31  1  0
 17 32  1  0
 18 33  1  0
 19 34  1  0
A    1
N11
A    2
C10
A    3
C2
A    4
C4
A    5
C6
A    6
C5
A    7
C3
A    8
N8
A    9
C7
A   10
N9
A   11
C1
A   12
C12
A   13
C13
A   14
C14
A   15
C19
A   16
C18
A   17
C16
A   18
C15
A   19
C17
M  END
