4F7W_PN4_A_1402
     RDKit          3D

 48 47  0  0  0  0  0  0  0  0999 V2000
  -22.2960   45.5440  -53.1080 C   0  0  0  0  0  0  0  0  0  0  0  0
  -23.0260   46.2890  -52.4460 O   0  0  0  0  0  0  0  0  0  0  0  0
  -22.7810   44.1430  -53.5110 C   0  0  0  0  0  0  0  0  0  0  0  0
  -24.2010   44.1800  -53.7430 O   0  0  0  0  0  0  0  0  0  0  0  0
  -22.4070   43.0960  -52.4430 C   0  0  0  0  0  0  0  0  0  0  0  0
  -23.1670   43.3380  -51.1480 C   0  0  0  0  0  0  0  0  0  0  0  0
  -20.9080   43.1840  -52.1250 C   0  0  0  0  0  0  0  0  0  0  0  0
  -22.6650   41.6740  -53.0040 C   0  0  0  0  0  0  0  0  0  0  0  0
  -24.0470   41.2920  -53.0260 O   0  0  0  0  0  0  0  0  0  0  0  0
  -21.0670   45.8690  -53.5010 N   0  0  0  0  0  0  0  0  0  0  0  0
  -20.4890   47.1770  -53.1600 C   0  0  0  0  0  0  0  0  0  0  0  0
  -20.5470   48.1020  -54.3540 C   0  0  0  0  0  0  0  0  0  0  0  0
  -21.9950   48.4070  -54.7580 C   0  0  0  0  0  0  0  0  0  0  0  0
  -22.4990   47.9030  -55.7590 O   0  0  0  0  0  0  0  0  0  0  0  0
  -25.1290   53.4420  -52.3590 C   0  0  0  0  0  0  0  0  0  0  0  0
  -26.1220   52.2770  -52.3600 C   0  0  0  0  0  0  0  0  0  0  0  0
  -25.7830   51.3080  -53.5100 C   0  0  0  0  0  0  0  0  0  0  0  0
  -24.2770   51.0740  -53.6150 C   0  0  0  0  0  0  0  0  0  0  0  0
  -24.0200   49.6880  -54.2300 C   0  0  0  0  0  0  0  0  0  0  0  0
  -22.6260   49.2720  -53.9670 N   0  0  0  0  0  0  0  0  0  0  0  0
  -22.2789   43.8400  -54.4416 H   0  0  0  0  0  0  0  0  0  0  0  0
  -24.6770   44.1924  -52.8750 H   0  0  0  0  0  0  0  0  0  0  0  0
  -22.5088   43.1284  -50.2919 H   0  0  0  0  0  0  0  0  0  0  0  0
  -23.4984   44.3861  -51.1077 H   0  0  0  0  0  0  0  0  0  0  0  0
  -24.0434   42.6745  -51.1077 H   0  0  0  0  0  0  0  0  0  0  0  0
  -20.7644   43.1924  -51.0344 H   0  0  0  0  0  0  0  0  0  0  0  0
  -20.3900   42.3147  -52.5563 H   0  0  0  0  0  0  0  0  0  0  0  0
  -20.4953   44.1079  -52.5563 H   0  0  0  0  0  0  0  0  0  0  0  0
  -22.2798   41.6343  -54.0336 H   0  0  0  0  0  0  0  0  0  0  0  0
  -22.1537   40.9710  -52.3300 H   0  0  0  0  0  0  0  0  0  0  0  0
  -24.3788   41.2003  -52.0978 H   0  0  0  0  0  0  0  0  0  0  0  0
  -20.5140   45.1961  -54.0507 H   0  0  0  0  0  0  0  0  0  0  0  0
  -19.4406   47.0424  -52.8555 H   0  0  0  0  0  0  0  0  0  0  0  0
  -21.0664   47.6199  -52.3351 H   0  0  0  0  0  0  0  0  0  0  0  0
  -20.0402   49.0449  -54.1008 H   0  0  0  0  0  0  0  0  0  0  0  0
  -20.0495   47.6055  -55.2002 H   0  0  0  0  0  0  0  0  0  0  0  0
  -24.8916   53.7205  -51.3217 H   0  0  0  0  0  0  0  0  0  0  0  0
  -24.2074   53.1387  -52.8773 H   0  0  0  0  0  0  0  0  0  0  0  0
  -25.5745   54.3039  -52.8773 H   0  0  0  0  0  0  0  0  0  0  0  0
  -26.0597   51.7423  -51.4007 H   0  0  0  0  0  0  0  0  0  0  0  0
  -27.1412   52.6665  -52.4996 H   0  0  0  0  0  0  0  0  0  0  0  0
  -26.2829   50.3455  -53.3263 H   0  0  0  0  0  0  0  0  0  0  0  0
  -26.1309   51.7544  -54.4532 H   0  0  0  0  0  0  0  0  0  0  0  0
  -23.8284   51.8486  -54.2543 H   0  0  0  0  0  0  0  0  0  0  0  0
  -23.8257   51.1221  -52.6130 H   0  0  0  0  0  0  0  0  0  0  0  0
  -24.7095   48.9569  -53.7827 H   0  0  0  0  0  0  0  0  0  0  0  0
  -24.1845   49.7375  -55.3165 H   0  0  0  0  0  0  0  0  0  0  0  0
  -22.1309   49.6609  -53.1518 H   0  0  0  0  0  0  0  0  0  0  0  0
 16 15  1  0
  7  5  1  0
  5  6  1  0
 14 13  2  0
  1  2  2  0
  3  4  1  0
 16 17  1  0
 18 17  1  0
 18 19  1  0
 19 20  1  0
 12 11  1  0
 10 11  1  0
 13 12  1  0
  8  5  1  0
  8  9  1  0
 13 20  1  0
 10  1  1  0
  3  1  1  0
  3  5  1  0
  3 21  1  0
  4 22  1  0
  6 23  1  0
  6 24  1  0
  6 25  1  0
  7 26  1  0
  7 27  1  0
  7 28  1  0
  8 29  1  0
  8 30  1  0
  9 31  1  0
 10 32  1  0
 11 33  1  0
 11 34  1  0
 12 35  1  0
 12 36  1  0
 15 37  1  0
 15 38  1  0
 15 39  1  0
 16 40  1  0
 16 41  1  0
 17 42  1  0
 17 43  1  0
 18 44  1  0
 18 45  1  0
 19 46  1  0
 19 47  1  0
 20 48  1  0
A    1
CAU
A    2
OAE
A    3
CAV
A    4
OAG
A    5
CAW
A    6
CAC
A    7
CAB
A    8
CAP
A    9
OAS
A   10
NAR
A   11
CAN
A   12
CAO
A   13
CAT
A   14
OAD
A   15
CAA
A   16
CAJ
A   17
CAK
A   18
CAL
A   19
CAM
A   20
NAQ
M  END
