1AJ0_SAN_A_561
     RDKit          3D

 19 19  0  0  0  0  0  0  0  0999 V2000
   43.2220    7.0140    2.3340 C   0  0  0  0  0  0  0  0  0  0  0  0
   44.2960    6.1460    2.5490 N   0  0  0  0  0  0  0  0  0  0  0  0
   43.0800    7.7190    1.1380 C   0  0  0  0  0  0  0  0  0  0  0  0
   41.9860    8.5740    0.9920 C   0  0  0  0  0  0  0  0  0  0  0  0
   41.1100    8.6700    2.0950 C   0  0  0  0  0  0  0  0  0  0  0  0
   41.2110    7.9590    3.2830 C   0  0  0  0  0  0  0  0  0  0  0  0
   42.3100    7.1490    3.3980 C   0  0  0  0  0  0  0  0  0  0  0  0
   39.7490    9.7160    1.9990 S   0  0  0  0  0  0  0  0  0  0  0  0
   38.6150    8.7020    1.9710 N   0  0  0  0  0  0  0  0  0  0  0  0
   39.7780   10.7560    3.1830 O   0  0  0  0  0  0  0  0  0  0  0  0
   39.6720   10.5370    0.6910 O   0  0  0  0  0  0  0  0  0  0  0  0
   44.5850    5.9124    3.5096 H   0  0  0  0  0  0  0  0  0  0  0  0
   44.7985    5.7399    1.7468 H   0  0  0  0  0  0  0  0  0  0  0  0
   43.8146    7.6035    0.3274 H   0  0  0  0  0  0  0  0  0  0  0  0
   41.8155    9.1430    0.0662 H   0  0  0  0  0  0  0  0  0  0  0  0
   40.4576    8.0406    4.0803 H   0  0  0  0  0  0  0  0  0  0  0  0
   42.4820    6.5970    4.3338 H   0  0  0  0  0  0  0  0  0  0  0  0
   38.3458    8.4613    2.9356 H   0  0  0  0  0  0  0  0  0  0  0  0
   37.8052    9.1061    1.4792 H   0  0  0  0  0  0  0  0  0  0  0  0
  1  2  1  0
  1  3  2  0
  1  7  1  0
  3  4  1  0
  4  5  2  0
  5  6  1  0
  5  8  1  0
  6  7  2  0
  8  9  1  0
  8 10  2  0
  8 11  2  0
  2 12  1  0
  2 13  1  0
  3 14  1  0
  4 15  1  0
  6 16  1  0
  7 17  1  0
  9 18  1  0
  9 19  1  0
A    1
C1
A    2
N1
A    3
C2
A    4
C3
A    5
C4
A    6
C5
A    7
C6
A    8
S
A    9
N2
A   10
O1
A   11
O2
M  END
