4F9B_0SY_A_601
     RDKit          3D

 27 29  0  0  0  0  0  0  0  0999 V2000
    7.6460   12.0950   30.2480 C   0  0  0  0  0  0  0  0  0  0  0  0
    8.1720   13.2370   29.7890 C   0  0  0  0  0  0  0  0  0  0  0  0
    7.6700   14.4700   29.7100 C   0  0  0  0  0  0  0  0  0  0  0  0
    6.5360   14.6870   30.1060 O   0  0  0  0  0  0  0  0  0  0  0  0
    8.3980   15.5510   29.1650 N   0  0  0  0  0  0  0  0  0  0  0  0
    9.7790   15.3290   28.6390 C   0  0  0  0  0  0  0  0  0  0  0  0
   10.2450   13.8600   28.6860 C   0  0  0  0  0  0  0  0  0  0  0  0
    9.3890   12.9240   29.3240 C   0  0  0  0  0  0  0  0  0  0  0  0
    9.6300   11.6190   29.4850 N   0  0  0  0  0  0  0  0  0  0  0  0
    8.5560   11.1160   30.1010 C   0  0  0  0  0  0  0  0  0  0  0  0
    8.3490    9.8160   30.4260 C   0  0  0  0  0  0  0  0  0  0  0  0
    7.1050    9.3610   30.8630 C   0  0  0  0  0  0  0  0  0  0  0  0
    6.8840    8.0120   31.1700 C   0  0  0  0  0  0  0  0  0  0  0  0
    7.9140    7.0670   31.0180 N   0  0  0  0  0  0  0  0  0  0  0  0
    9.1820    7.5300   30.5840 C   0  0  0  0  0  0  0  0  0  0  0  0
    9.3830    8.8850   30.3000 C   0  0  0  0  0  0  0  0  0  0  0  0
    6.6387   11.9771   30.6739 H   0  0  0  0  0  0  0  0  0  0  0  0
    7.9776   16.4907   29.1302 H   0  0  0  0  0  0  0  0  0  0  0  0
    9.8079   15.6667   27.5925 H   0  0  0  0  0  0  0  0  0  0  0  0
   10.4600   15.8975   29.2894 H   0  0  0  0  0  0  0  0  0  0  0  0
   11.2105   13.8366   29.2125 H   0  0  0  0  0  0  0  0  0  0  0  0
   10.2771   13.5408   27.6338 H   0  0  0  0  0  0  0  0  0  0  0  0
   10.4734   11.1048   29.1931 H   0  0  0  0  0  0  0  0  0  0  0  0
    6.2778   10.0783   30.9691 H   0  0  0  0  0  0  0  0  0  0  0  0
    5.8969    7.6896   31.5328 H   0  0  0  0  0  0  0  0  0  0  0  0
   10.0134    6.8188   30.4698 H   0  0  0  0  0  0  0  0  0  0  0  0
   10.3761    9.2245   29.9706 H   0  0  0  0  0  0  0  0  0  0  0  0
 13 14  1  0
 13 12  2  0
 14 15  2  0
 12 11  1  0
 15 16  1  0
 11 16  2  0
 11 10  1  0
  1 10  2  0
  1  2  1  0
 10  9  1  0
  4  3  2  0
  2  3  1  0
  2  8  2  0
  3  5  1  0
  9  8  1  0
  8  7  1  0
  5  6  1  0
  7  6  1  0
  1 17  1  0
  5 18  1  0
  6 19  1  0
  6 20  1  0
  7 21  1  0
  7 22  1  0
  9 23  1  0
 12 24  1  0
 13 25  1  0
 15 26  1  0
 16 27  1  0
A    1
CAF
A    2
CAO
A    3
CAL
A    4
OAA
A    5
NAJ
A    6
CAG
A    7
CAH
A    8
CAP
A    9
NAK
A   10
CAN
A   11
CAM
A   12
CAD
A   13
CAB
A   14
NAI
A   15
CAC
A   16
CAE
M  END
