4FA2_SB0_A_402
     RDKit          3D

 48 51  0  0  0  0  0  0  0  0999 V2000
   -6.1000   -0.2290   15.6350 F   0  0  0  0  0  0  0  0  0  0  0  0
   -5.4070    0.1980   16.7160 C   0  0  0  0  0  0  0  0  0  0  0  0
   -4.2120    0.8920   16.4950 C   0  0  0  0  0  0  0  0  0  0  0  0
   -3.4500    1.3540   17.5540 C   0  0  0  0  0  0  0  0  0  0  0  0
   -3.8420    1.0800   18.8540 C   0  0  0  0  0  0  0  0  0  0  0  0
   -5.0450    0.4040   19.0910 C   0  0  0  0  0  0  0  0  0  0  0  0
   -5.8270   -0.0390   18.0170 C   0  0  0  0  0  0  0  0  0  0  0  0
   -3.0450    1.5660   19.9840 C   0  0  0  0  0  0  0  0  0  0  0  0
   -2.6320    2.8480   20.1330 N   0  0  0  0  0  0  0  0  0  0  0  0
   -1.9670    2.9390   21.2950 C   0  0  0  0  0  0  0  0  0  0  0  0
   -1.9660    1.7240   21.8950 N   0  0  0  0  0  0  0  0  0  0  0  0
   -1.2950    1.4550   23.1980 C   0  0  0  0  0  0  0  0  0  0  0  0
   -2.0650    2.1290   24.3330 C   0  0  0  0  0  0  0  0  0  0  0  0
   -1.3530    1.9320   25.6830 C   0  0  0  0  0  0  0  0  0  0  0  0
    0.1170    2.3390   25.6210 C   0  0  0  0  0  0  0  0  0  0  0  0
    0.7920    1.9630   26.8200 O   0  0  0  0  0  0  0  0  0  0  0  0
    0.8290    1.6360   24.4780 C   0  0  0  0  0  0  0  0  0  0  0  0
    0.1370    1.9660   23.1710 C   0  0  0  0  0  0  0  0  0  0  0  0
   -2.6400    0.8440   21.1190 C   0  0  0  0  0  0  0  0  0  0  0  0
   -2.7620   -0.6300   21.4190 C   0  0  0  0  0  0  0  0  0  0  0  0
   -2.9670   -1.0810   22.6770 N   0  0  0  0  0  0  0  0  0  0  0  0
   -2.9930   -2.4160   22.9510 C   0  0  0  0  0  0  0  0  0  0  0  0
   -3.2210   -2.7970   24.2460 O   0  0  0  0  0  0  0  0  0  0  0  0
   -3.5100   -1.7910   25.2270 C   0  0  0  0  0  0  0  0  0  0  0  0
   -2.7900   -3.3450   21.9960 N   0  0  0  0  0  0  0  0  0  0  0  0
   -2.5620   -2.9450   20.7280 C   0  0  0  0  0  0  0  0  0  0  0  0
   -2.5270   -1.5790   20.4250 C   0  0  0  0  0  0  0  0  0  0  0  0
   -3.8733    1.0730   15.4642 H   0  0  0  0  0  0  0  0  0  0  0  0
   -2.5365    1.9366   17.3640 H   0  0  0  0  0  0  0  0  0  0  0  0
   -5.3768    0.2204   20.1236 H   0  0  0  0  0  0  0  0  0  0  0  0
   -6.7705   -0.5727   18.2041 H   0  0  0  0  0  0  0  0  0  0  0  0
   -1.4992    3.8507   21.6950 H   0  0  0  0  0  0  0  0  0  0  0  0
   -1.2808    0.3683   23.3676 H   0  0  0  0  0  0  0  0  0  0  0  0
   -2.1440    3.2059   24.1229 H   0  0  0  0  0  0  0  0  0  0  0  0
   -3.0634    1.6716   24.3960 H   0  0  0  0  0  0  0  0  0  0  0  0
   -1.8590    2.5446   26.4437 H   0  0  0  0  0  0  0  0  0  0  0  0
   -1.3983    0.8628   25.9373 H   0  0  0  0  0  0  0  0  0  0  0  0
    0.1401    3.4296   25.4796 H   0  0  0  0  0  0  0  0  0  0  0  0
    0.2627    2.2578   27.6030 H   0  0  0  0  0  0  0  0  0  0  0  0
    0.8018    0.5487   24.6427 H   0  0  0  0  0  0  0  0  0  0  0  0
    1.8746    1.9748   24.4344 H   0  0  0  0  0  0  0  0  0  0  0  0
    0.6787    1.4885   22.3412 H   0  0  0  0  0  0  0  0  0  0  0  0
    0.1288    3.0571   23.0319 H   0  0  0  0  0  0  0  0  0  0  0  0
   -3.3880   -2.2155   26.2344 H   0  0  0  0  0  0  0  0  0  0  0  0
   -2.8185   -0.9451   25.0994 H   0  0  0  0  0  0  0  0  0  0  0  0
   -4.5450   -1.4410   25.0994 H   0  0  0  0  0  0  0  0  0  0  0  0
   -2.4040   -3.6902   19.9345 H   0  0  0  0  0  0  0  0  0  0  0  0
   -2.3129   -1.2523   19.3967 H   0  0  0  0  0  0  0  0  0  0  0  0
  1  2  1  0
  3  2  2  0
  3  4  1  0
  2  7  1  0
  4  5  2  0
  7  6  2  0
  5  6  1  0
  5  8  1  0
  8  9  1  0
  8 19  2  0
  9 10  2  0
 27 26  2  0
 27 20  1  0
 26 25  1  0
 19 20  1  0
 19 11  1  0
 10 11  1  0
 20 21  2  0
 11 12  1  0
 25 22  2  0
 21 22  1  0
 22 23  1  0
 18 12  1  0
 18 17  1  0
 12 13  1  0
 23 24  1  0
 13 14  1  0
 17 15  1  0
 15 14  1  0
 15 16  1  0
  3 28  1  0
  4 29  1  0
  6 30  1  0
  7 31  1  0
 10 32  1  0
 12 33  1  0
 13 34  1  0
 13 35  1  0
 14 36  1  0
 14 37  1  0
 15 38  1  0
 16 39  1  0
 17 40  1  0
 17 41  1  0
 18 42  1  0
 18 43  1  0
 24 44  1  0
 24 45  1  0
 24 46  1  0
 26 47  1  0
 27 48  1  0
A    1
F8
A    2
C2
A    3
C1
A    4
C6
A    5
C5
A    6
C4
A    7
C3
A    8
C7
A    9
N9
A   10
C10
A   11
N11
A   12
C19
A   13
C20
A   14
C21
A   15
C22
A   16
O25
A   17
C23
A   18
C24
A   19
C12
A   20
C13
A   21
N14
A   22
C15
A   23
O26
A   24
C27
A   25
N16
A   26
C17
A   27
C18
M  END
