4FA3_0SL_A_402
     RDKit          3D

 39 41  0  0  0  0  0  0  0  0999 V2000
   -2.9650    6.8480   15.2530 C   0  0  0  0  0  0  0  0  0  0  0  0
   -3.3930    8.1460   14.9070 C   0  0  0  0  0  0  0  0  0  0  0  0
   -2.4750    9.1550   14.7280 C   0  0  0  0  0  0  0  0  0  0  0  0
   -2.9320   10.4410   14.3750 C   0  0  0  0  0  0  0  0  0  0  0  0
   -4.2870   10.7410   14.1720 C   0  0  0  0  0  0  0  0  0  0  0  0
   -5.2220    9.7230   14.3430 C   0  0  0  0  0  0  0  0  0  0  0  0
   -4.7600    8.4430   14.7070 C   0  0  0  0  0  0  0  0  0  0  0  0
   -5.7090    7.4530   14.8560 C   0  0  0  0  0  0  0  0  0  0  0  0
   -5.3000    6.1800   15.2190 C   0  0  0  0  0  0  0  0  0  0  0  0
   -3.9500    5.9000   15.4370 C   0  0  0  0  0  0  0  0  0  0  0  0
   -3.6390    4.3160   15.8300 S   0  0  0  0  0  0  0  0  0  0  0  0
   -4.9290    3.8020   16.3440 O   0  0  0  0  0  0  0  0  0  0  0  0
   -2.4940    4.3390   16.8000 O   0  0  0  0  0  0  0  0  0  0  0  0
   -3.4000    3.6510   14.2770 N   0  0  0  0  0  0  0  0  0  0  0  0
   -1.9610    3.3510   14.0480 C   0  0  0  0  0  0  0  0  0  0  0  0
   -4.4330    2.6500   13.9330 C   0  0  0  0  0  0  0  0  0  0  0  0
   -4.2490    2.0270   12.5270 C   0  0  0  0  0  0  0  0  0  0  0  0
   -2.8420    2.1290   12.0000 C   0  0  0  0  0  0  0  0  0  0  0  0
   -1.8030    2.1700   13.1280 C   0  0  0  0  0  0  0  0  0  0  0  0
   -0.3740    2.1780   12.5640 C   0  0  0  0  0  0  0  0  0  0  0  0
   -0.2450    1.7140   11.4060 O   0  0  0  0  0  0  0  0  0  0  0  0
    0.5580    2.5430   13.3560 O   0  0  0  0  0  0  0  0  0  0  0  0
   -1.8990    6.6035   15.3704 H   0  0  0  0  0  0  0  0  0  0  0  0
   -1.4001    8.9611   14.8584 H   0  0  0  0  0  0  0  0  0  0  0  0
   -2.1922   11.2459   14.2532 H   0  0  0  0  0  0  0  0  0  0  0  0
   -4.6032   11.7547   13.8850 H   0  0  0  0  0  0  0  0  0  0  0  0
   -6.2955    9.9139   14.1973 H   0  0  0  0  0  0  0  0  0  0  0  0
   -6.7742    7.6709   14.6892 H   0  0  0  0  0  0  0  0  0  0  0  0
   -6.0472    5.3813   15.3367 H   0  0  0  0  0  0  0  0  0  0  0  0
   -1.4816    3.1245   15.0118 H   0  0  0  0  0  0  0  0  0  0  0  0
   -1.4870    4.2276   13.5824 H   0  0  0  0  0  0  0  0  0  0  0  0
   -5.4175    3.1393   13.9704 H   0  0  0  0  0  0  0  0  0  0  0  0
   -4.3446    1.8315   14.6625 H   0  0  0  0  0  0  0  0  0  0  0  0
   -4.9207    2.5452   11.8268 H   0  0  0  0  0  0  0  0  0  0  0  0
   -4.4822    0.9558   12.6166 H   0  0  0  0  0  0  0  0  0  0  0  0
   -2.6383    1.2563   11.3622 H   0  0  0  0  0  0  0  0  0  0  0  0
   -2.7611    3.0673   11.4317 H   0  0  0  0  0  0  0  0  0  0  0  0
   -1.9800    1.2572   13.7157 H   0  0  0  0  0  0  0  0  0  0  0  0
    0.4241    2.4906   14.3355 H   0  0  0  0  0  0  0  0  0  0  0  0
 21 20  2  0
 18 17  1  0
 18 19  1  0
 17 16  1  0
 20 19  1  0
 20 22  1  0
 19 15  1  0
 16 14  1  0
 15 14  1  0
  5  6  2  0
  5  4  1  0
 14 11  1  0
  6  7  1  0
  4  3  2  0
  7  8  2  0
  7  2  1  0
  3  2  1  0
  8  9  1  0
  2  1  2  0
  9 10  2  0
  1 10  1  0
 10 11  1  0
 11 12  2  0
 11 13  2  0
  1 23  1  0
  3 24  1  0
  4 25  1  0
  5 26  1  0
  6 27  1  0
  8 28  1  0
  9 29  1  0
 15 30  1  0
 15 31  1  0
 16 32  1  0
 16 33  1  0
 17 34  1  0
 17 35  1  0
 18 36  1  0
 18 37  1  0
 19 38  1  0
 22 39  1  0
A    1
CAK
A    2
CAS
A    3
CAI
A    4
CAF
A    5
CAE
A    6
CAH
A    7
CAR
A    8
CAJ
A    9
CAG
A   10
CAQ
A   11
SAV
A   12
OAB
A   13
OAC
A   14
NAU
A   15
CAO
A   16
CAN
A   17
CAL
A   18
CAM
A   19
CAT
A   20
CAP
A   21
OAD
A   22
OAA
M  END
