4FAD_0TB_A_1201
     RDKit          3D

 46 49  0  0  0  0  0  0  0  0999 V2000
   47.7750   13.1390   28.4680 N   0  0  0  0  0  0  0  0  0  0  0  0
   47.7810   15.1000   29.8260 N   0  0  0  0  0  0  0  0  0  0  0  0
   46.5210   14.8390   30.2280 C   0  0  0  0  0  0  0  0  0  0  0  0
   45.8420   13.7380   29.7420 C   0  0  0  0  0  0  0  0  0  0  0  0
   46.5190   12.9070   28.8740 C   0  0  0  0  0  0  0  0  0  0  0  0
   45.8770   11.6960   28.3240 C   0  0  0  0  0  0  0  0  0  0  0  0
   43.8520   14.2050   31.0650 C   0  0  0  0  0  0  0  0  0  0  0  0
   42.5310   13.8210   31.5790 C   0  0  0  0  0  0  0  0  0  0  0  0
   41.0420   13.6630   33.4020 C   0  0  0  0  0  0  0  0  0  0  0  0
   41.5250   13.2850   30.8060 C   0  0  0  0  0  0  0  0  0  0  0  0
   38.2620   11.8220   32.5240 C   0  0  0  0  0  0  0  0  0  0  0  0
   45.6180   19.0020   32.0910 C   0  0  0  0  0  0  0  0  0  0  0  0
   46.7340   17.0500   32.9690 C   0  0  0  0  0  0  0  0  0  0  0  0
   48.3600   14.2420   28.9630 C   0  0  0  0  0  0  0  0  0  0  0  0
   49.6620   14.5170   28.5380 N   0  0  0  0  0  0  0  0  0  0  0  0
   45.8450   15.7170   31.1360 N   0  0  0  0  0  0  0  0  0  0  0  0
   46.5360   16.8830   31.5350 N   0  0  0  0  0  0  0  0  0  0  0  0
   44.4960   13.4190   30.2000 C   0  0  0  0  0  0  0  0  0  0  0  0
   44.5200   15.4620   31.5490 C   0  0  0  0  0  0  0  0  0  0  0  0
   43.8780   16.2050   32.2860 O   0  0  0  0  0  0  0  0  0  0  0  0
   42.2830   13.9930   32.9220 C   0  0  0  0  0  0  0  0  0  0  0  0
   40.1070   13.1380   32.5500 C   0  0  0  0  0  0  0  0  0  0  0  0
   40.3110   12.9360   31.2410 N   0  0  0  0  0  0  0  0  0  0  0  0
   38.9080   12.8770   33.2000 O   0  0  0  0  0  0  0  0  0  0  0  0
   46.0120   18.1150   30.9510 C   0  0  0  0  0  0  0  0  0  0  0  0
   46.1850   18.3940   33.3300 C   0  0  0  0  0  0  0  0  0  0  0  0
   40.7330   13.7890   34.7060 F   0  0  0  0  0  0  0  0  0  0  0  0
   45.5367   11.0541   29.1499 H   0  0  0  0  0  0  0  0  0  0  0  0
   45.0145   11.9866   27.7062 H   0  0  0  0  0  0  0  0  0  0  0  0
   46.6016   11.1453   27.7062 H   0  0  0  0  0  0  0  0  0  0  0  0
   41.7396   13.1310   29.7382 H   0  0  0  0  0  0  0  0  0  0  0  0
   37.8343   11.1235   33.2583 H   0  0  0  0  0  0  0  0  0  0  0  0
   37.4579   12.2287   31.8931 H   0  0  0  0  0  0  0  0  0  0  0  0
   38.9898   11.2906   31.8931 H   0  0  0  0  0  0  0  0  0  0  0  0
   46.0281   20.0120   31.9435 H   0  0  0  0  0  0  0  0  0  0  0  0
   44.5238   19.0900   32.1611 H   0  0  0  0  0  0  0  0  0  0  0  0
   46.1982   16.2624   33.5191 H   0  0  0  0  0  0  0  0  0  0  0  0
   47.8000   16.9770   33.2304 H   0  0  0  0  0  0  0  0  0  0  0  0
   50.4075   14.6745   29.2310 H   0  0  0  0  0  0  0  0  0  0  0  0
   49.8765   14.5623   27.5316 H   0  0  0  0  0  0  0  0  0  0  0  0
   44.0004   12.5114   29.8249 H   0  0  0  0  0  0  0  0  0  0  0  0
   43.0611   14.3854   33.5933 H   0  0  0  0  0  0  0  0  0  0  0  0
   46.7860   18.6038   30.3411 H   0  0  0  0  0  0  0  0  0  0  0  0
   45.1517   17.9069   30.2979 H   0  0  0  0  0  0  0  0  0  0  0  0
   46.9883   19.0324   33.7264 H   0  0  0  0  0  0  0  0  0  0  0  0
   45.4070   18.2970   34.1015 H   0  0  0  0  0  0  0  0  0  0  0  0
  6  5  1  0
  1  5  2  0
  1 14  1  0
 15 14  1  0
  5  4  1  0
 14  2  2  0
  4 18  1  0
  4  3  2  0
  2  3  1  0
 18  7  2  0
  3 16  1  0
 10 23  2  0
 10  8  1  0
 25 17  1  0
 25 12  1  0
  7 19  1  0
  7  8  1  0
 16 17  1  0
 16 19  1  0
 23 22  1  0
 17 13  1  0
 19 20  2  0
  8 21  2  0
 12 26  1  0
 11 24  1  0
 22 24  1  0
 22  9  2  0
 21  9  1  0
 13 26  1  0
  9 27  1  0
  6 28  1  0
  6 29  1  0
  6 30  1  0
 10 31  1  0
 11 32  1  0
 11 33  1  0
 11 34  1  0
 12 35  1  0
 12 36  1  0
 13 37  1  0
 13 38  1  0
 15 39  1  0
 15 40  1  0
 18 41  1  0
 21 42  1  0
 25 43  1  0
 25 44  1  0
 26 45  1  0
 26 46  1  0
A    1
N1
A    2
N3
A    3
C4
A    4
C5
A    5
C6
A    6
C8
A    7
C13
A    8
C15
A    9
C17
A   10
C20
A   11
C22
A   12
C24
A   13
C26
A   14
C2
A   15
N7
A   16
N9
A   17
N10
A   18
C11
A   19
C12
A   20
O14
A   21
C16
A   22
C18
A   23
N19
A   24
O21
A   25
C23
A   26
C25
A   27
F27
M  END
