4FAL_0T0_A_402
     RDKit          3D

 41 43  0  0  0  0  0  0  0  0999 V2000
   -1.6800    9.0750   14.7370 C   0  0  0  0  0  0  0  0  0  0  0  0
   -1.8150   10.6110   14.6420 C   0  0  0  0  0  0  0  0  0  0  0  0
   -3.2090   11.0430   14.5710 C   0  0  0  0  0  0  0  0  0  0  0  0
   -3.4240   12.2990   14.0850 C   0  0  0  0  0  0  0  0  0  0  0  0
   -4.7620   12.7170   14.0030 C   0  0  0  0  0  0  0  0  0  0  0  0
   -5.8510   11.9410   14.4190 C   0  0  0  0  0  0  0  0  0  0  0  0
   -5.6210   10.6650   14.9360 C   0  0  0  0  0  0  0  0  0  0  0  0
   -4.2730   10.2460   15.0040 C   0  0  0  0  0  0  0  0  0  0  0  0
   -4.0640    8.8630   15.6000 C   0  0  0  0  0  0  0  0  0  0  0  0
   -2.7460    8.2720   15.3580 N   0  0  0  0  0  0  0  0  0  0  0  0
   -2.3070    7.0900   16.6470 S   0  0  0  0  0  0  0  0  0  0  0  0
   -0.8640    7.1130   16.9840 O   0  0  0  0  0  0  0  0  0  0  0  0
   -3.1150    7.1690   17.8940 O   0  0  0  0  0  0  0  0  0  0  0  0
   -2.7130    5.6450   15.7540 C   0  0  0  0  0  0  0  0  0  0  0  0
   -1.6920    5.0660   14.9720 C   0  0  0  0  0  0  0  0  0  0  0  0
   -4.0300    5.1890   15.7660 C   0  0  0  0  0  0  0  0  0  0  0  0
   -4.2980    4.0670   14.9880 C   0  0  0  0  0  0  0  0  0  0  0  0
   -3.2960    3.4500   14.2240 C   0  0  0  0  0  0  0  0  0  0  0  0
   -1.9660    3.9340   14.1950 C   0  0  0  0  0  0  0  0  0  0  0  0
   -0.8710    3.2810   13.3500 C   0  0  0  0  0  0  0  0  0  0  0  0
    0.3600    3.3020   13.6680 O   0  0  0  0  0  0  0  0  0  0  0  0
   -1.3410    2.6370   12.2580 N   0  0  0  0  0  0  0  0  0  0  0  0
   -0.2380    2.0600   11.4230 C   0  0  0  0  0  0  0  0  0  0  0  0
   -1.5635    8.7038   13.7081 H   0  0  0  0  0  0  0  0  0  0  0  0
   -0.8335    8.9414   15.4267 H   0  0  0  0  0  0  0  0  0  0  0  0
   -1.2913   10.9567   13.7385 H   0  0  0  0  0  0  0  0  0  0  0  0
   -1.3751   11.0439   15.5525 H   0  0  0  0  0  0  0  0  0  0  0  0
   -2.5936   12.9498   13.7739 H   0  0  0  0  0  0  0  0  0  0  0  0
   -4.9672   13.7143   13.5868 H   0  0  0  0  0  0  0  0  0  0  0  0
   -6.8759   12.3325   14.3393 H   0  0  0  0  0  0  0  0  0  0  0  0
   -6.4456   10.0195   15.2728 H   0  0  0  0  0  0  0  0  0  0  0  0
   -4.2097    8.9358   16.6879 H   0  0  0  0  0  0  0  0  0  0  0  0
   -4.7902    8.2034   15.1024 H   0  0  0  0  0  0  0  0  0  0  0  0
   -0.6825    5.5029   14.9726 H   0  0  0  0  0  0  0  0  0  0  0  0
   -4.8127    5.6875   16.3567 H   0  0  0  0  0  0  0  0  0  0  0  0
   -5.3177    3.6547   14.9716 H   0  0  0  0  0  0  0  0  0  0  0  0
   -3.5521    2.5615   13.6283 H   0  0  0  0  0  0  0  0  0  0  0  0
   -2.3411    2.5527   12.0267 H   0  0  0  0  0  0  0  0  0  0  0  0
    0.5437    1.6511   12.0800 H   0  0  0  0  0  0  0  0  0  0  0  0
   -0.6405    1.2569   10.7881 H   0  0  0  0  0  0  0  0  0  0  0  0
    0.1922    2.8486   10.7881 H   0  0  0  0  0  0  0  0  0  0  0  0
 23 22  1  0
 22 20  1  0
 20 21  2  0
 20 19  1  0
  5  4  2  0
  5  6  1  0
  4  3  1  0
 19 18  1  0
 19 15  2  0
 18 17  2  0
  6  7  2  0
  3  2  1  0
  3  8  2  0
  2  1  1  0
  1 10  1  0
  7  8  1  0
 15 14  1  0
 17 16  1  0
  8  9  1  0
 10  9  1  0
 10 11  1  0
 14 16  2  0
 14 11  1  0
 11 12  2  0
 11 13  2  0
  1 24  1  0
  1 25  1  0
  2 26  1  0
  2 27  1  0
  4 28  1  0
  5 29  1  0
  6 30  1  0
  7 31  1  0
  9 32  1  0
  9 33  1  0
 15 34  1  0
 16 35  1  0
 17 36  1  0
 18 37  1  0
 22 38  1  0
 23 39  1  0
 23 40  1  0
 23 41  1  0
A    1
CAN
A    2
CAM
A    3
CAT
A    4
CAJ
A    5
CAE
A    6
CAF
A    7
CAK
A    8
CAU
A    9
CAO
A   10
NAV
A   11
SAW
A   12
OAC
A   13
OAD
A   14
CAS
A   15
CAL
A   16
CAI
A   17
CAG
A   18
CAH
A   19
CAR
A   20
CAQ
A   21
OAB
A   22
NAP
A   23
CAA
M  END
