3FAP_ARD_A_402
     RDKit          3D

150154  0  0  0  0  0  0  0  0999 V2000
   -7.3240   26.3160   38.9430 O   0  0  0  0  0  0  0  0  0  0  0  0
   -6.3050   25.7940   39.8490 C   0  0  0  0  0  0  0  0  0  0  0  0
   -5.1260   25.5300   39.5770 O   0  0  0  0  0  0  0  0  0  0  0  0
   -6.8870   25.1890   41.1000 C   0  0  0  0  0  0  0  0  0  0  0  0
   -6.2620   23.8050   41.4450 C   0  0  0  0  0  0  0  0  0  0  0  0
   -7.0240   22.7750   40.5710 C   0  0  0  0  0  0  0  0  0  0  0  0
   -8.5930   22.8670   40.8480 C   0  0  0  0  0  0  0  0  0  0  0  0
   -9.1640   24.2270   40.4570 C   0  0  0  0  0  0  0  0  0  0  0  0
   -8.3010   25.1880   41.2680 N   0  0  0  0  0  0  0  0  0  0  0  0
   -8.8370   26.1170   42.0160 C   0  0  0  0  0  0  0  0  0  0  0  0
   -8.0240   26.9320   42.5780 O   0  0  0  0  0  0  0  0  0  0  0  0
  -10.2390   26.2140   42.4520 C   0  0  0  0  0  0  0  0  0  0  0  0
  -10.8050   25.3600   43.2380 O   0  0  0  0  0  0  0  0  0  0  0  0
  -11.1470   27.1800   41.7680 C   0  0  0  0  0  0  0  0  0  0  0  0
  -10.6760   28.5890   41.9510 C   0  0  0  0  0  0  0  0  0  0  0  0
  -11.7210   29.5980   41.2160 C   0  0  0  0  0  0  0  0  0  0  0  0
  -11.7830   29.1680   39.7310 C   0  0  0  0  0  0  0  0  0  0  0  0
  -12.1950   27.6810   39.6000 C   0  0  0  0  0  0  0  0  0  0  0  0
  -11.1480   26.8600   40.2720 O   0  0  0  0  0  0  0  0  0  0  0  0
  -12.4720   26.9360   42.2730 O   0  0  0  0  0  0  0  0  0  0  0  0
  -10.7510   28.8370   43.5270 C   0  0  0  0  0  0  0  0  0  0  0  0
  -12.0030   27.2810   38.0160 C   0  0  0  0  0  0  0  0  0  0  0  0
  -12.4270   25.7690   37.9310 C   0  0  0  0  0  0  0  0  0  0  0  0
  -13.7680   25.5490   38.3270 C   0  0  0  0  0  0  0  0  0  0  0  0
  -12.2540   25.2580   36.4240 C   0  0  0  0  0  0  0  0  0  0  0  0
  -12.1930   23.7980   36.4460 C   0  0  0  0  0  0  0  0  0  0  0  0
  -11.9570   26.0710   35.4520 C   0  0  0  0  0  0  0  0  0  0  0  0
  -11.5900   25.4840   34.0640 C   0  0  0  0  0  0  0  0  0  0  0  0
  -11.3840   26.3060   33.0680 C   0  0  0  0  0  0  0  0  0  0  0  0
  -11.0370   25.5120   31.8630 C   0  0  0  0  0  0  0  0  0  0  0  0
  -10.6860   26.2380   30.7690 C   0  0  0  0  0  0  0  0  0  0  0  0
  -10.2240   25.5540   29.4530 C   0  0  0  0  0  0  0  0  0  0  0  0
  -10.8980   26.0990   28.1360 C   0  0  0  0  0  0  0  0  0  0  0  0
   -8.7390   25.7840   29.2820 C   0  0  0  0  0  0  0  0  0  0  0  0
   -7.7270   25.2770   30.3440 C   0  0  0  0  0  0  0  0  0  0  0  0
   -7.6410   23.7590   30.1940 C   0  0  0  0  0  0  0  0  0  0  0  0
   -6.3920   25.9520   30.1900 C   0  0  0  0  0  0  0  0  0  0  0  0
   -5.3910   25.3870   29.6920 O   0  0  0  0  0  0  0  0  0  0  0  0
   -6.1740   27.3250   30.9810 C   0  0  0  0  0  0  0  0  0  0  0  0
   -4.8990   27.9330   30.4840 O   0  0  0  0  0  0  0  0  0  0  0  0
   -4.8810   28.4960   29.2200 C   0  0  0  0  0  0  0  0  0  0  0  0
   -5.8370   27.1090   32.4520 C   0  0  0  0  0  0  0  0  0  0  0  0
   -4.7410   26.1730   32.5510 O   0  0  0  0  0  0  0  0  0  0  0  0
   -7.0890   26.6630   33.2690 C   0  0  0  0  0  0  0  0  0  0  0  0
   -8.1640   27.7170   33.2710 C   0  0  0  0  0  0  0  0  0  0  0  0
   -7.0940   25.4270   33.8440 C   0  0  0  0  0  0  0  0  0  0  0  0
   -8.3930   24.9930   34.6200 C   0  0  0  0  0  0  0  0  0  0  0  0
   -8.6350   23.5100   34.2890 C   0  0  0  0  0  0  0  0  0  0  0  0
   -7.9700   25.1210   36.0760 C   0  0  0  0  0  0  0  0  0  0  0  0
   -7.4640   24.2170   36.7480 O   0  0  0  0  0  0  0  0  0  0  0  0
   -8.0450   26.5900   36.6040 C   0  0  0  0  0  0  0  0  0  0  0  0
   -6.8300   26.7150   37.6900 C   0  0  0  0  0  0  0  0  0  0  0  0
   -6.6700   28.2260   38.0620 C   0  0  0  0  0  0  0  0  0  0  0  0
   -8.0830   28.8210   38.4960 C   0  0  0  0  0  0  0  0  0  0  0  0
   -6.2450   29.1300   36.8610 C   0  0  0  0  0  0  0  0  0  0  0  0
   -5.0380   28.5850   36.1230 C   0  0  0  0  0  0  0  0  0  0  0  0
   -4.5410   29.7540   35.0790 C   0  0  0  0  0  0  0  0  0  0  0  0
   -3.2220   29.3740   34.3590 C   0  0  0  0  0  0  0  0  0  0  0  0
   -2.8460   30.5050   33.5960 O   0  0  0  0  0  0  0  0  0  0  0  0
   -3.7400   30.7770   32.3990 C   0  0  0  0  0  0  0  0  0  0  0  0
   -2.0840   29.2830   35.4370 C   0  0  0  0  0  0  0  0  0  0  0  0
   -0.8600   28.9230   34.6430 O   0  0  0  0  0  0  0  0  0  0  0  0
   -2.4670   28.1370   36.3800 C   0  0  0  0  0  0  0  0  0  0  0  0
   -3.8490   28.4230   37.0210 C   0  0  0  0  0  0  0  0  0  0  0  0
  -16.1910   25.3750   38.8990 C   0  0  0  0  0  0  0  0  0  0  0  0
  -15.3560   24.6590   39.8630 C   0  0  0  0  0  0  0  0  0  0  0  0
  -14.0280   24.8060   39.5470 C   0  0  0  0  0  0  0  0  0  0  0  0
  -17.6050   25.3620   38.9820 C   0  0  0  0  0  0  0  0  0  0  0  0
  -15.3040   26.0580   37.6970 S   0  0  0  0  0  0  0  0  0  0  0  0
   -6.5741   25.9324   41.8479 H   0  0  0  0  0  0  0  0  0  0  0  0
   -5.1893   23.7965   41.2015 H   0  0  0  0  0  0  0  0  0  0  0  0
   -6.3499   23.5740   42.5169 H   0  0  0  0  0  0  0  0  0  0  0  0
   -6.8300   22.9861   39.5090 H   0  0  0  0  0  0  0  0  0  0  0  0
   -6.6747   21.7631   40.8239 H   0  0  0  0  0  0  0  0  0  0  0  0
   -9.1030   22.0866   40.2642 H   0  0  0  0  0  0  0  0  0  0  0  0
   -8.7562   22.7276   41.9269 H   0  0  0  0  0  0  0  0  0  0  0  0
   -9.0559   24.4089   39.3775 H   0  0  0  0  0  0  0  0  0  0  0  0
  -10.2410   24.3264   40.6575 H   0  0  0  0  0  0  0  0  0  0  0  0
   -9.6705   28.7556   41.5372 H   0  0  0  0  0  0  0  0  0  0  0  0
  -12.7163   29.5147   41.6768 H   0  0  0  0  0  0  0  0  0  0  0  0
  -11.3953   30.6443   41.3121 H   0  0  0  0  0  0  0  0  0  0  0  0
  -12.5204   29.7931   39.2061 H   0  0  0  0  0  0  0  0  0  0  0  0
  -10.7844   29.2951   39.2876 H   0  0  0  0  0  0  0  0  0  0  0  0
  -13.2082   27.5257   39.9992 H   0  0  0  0  0  0  0  0  0  0  0  0
  -12.4537   26.9394   43.2628 H   0  0  0  0  0  0  0  0  0  0  0  0
  -10.4720   27.9144   44.0570 H   0  0  0  0  0  0  0  0  0  0  0  0
  -10.0566   29.6437   43.8047 H   0  0  0  0  0  0  0  0  0  0  0  0
  -11.7760   29.1237   43.8047 H   0  0  0  0  0  0  0  0  0  0  0  0
  -12.6497   27.9015   37.3782 H   0  0  0  0  0  0  0  0  0  0  0  0
  -10.9724   27.4441   37.6679 H   0  0  0  0  0  0  0  0  0  0  0  0
  -11.7774   25.2140   38.6238 H   0  0  0  0  0  0  0  0  0  0  0  0
  -12.1783   23.4473   37.4885 H   0  0  0  0  0  0  0  0  0  0  0  0
  -13.0747   23.3864   35.9330 H   0  0  0  0  0  0  0  0  0  0  0  0
  -11.2800   23.4614   35.9330 H   0  0  0  0  0  0  0  0  0  0  0  0
  -11.9661   27.1592   35.6126 H   0  0  0  0  0  0  0  0  0  0  0  0
  -11.5046   24.3968   33.9202 H   0  0  0  0  0  0  0  0  0  0  0  0
  -11.4559   27.4026   33.1154 H   0  0  0  0  0  0  0  0  0  0  0  0
  -11.0622   24.4123   31.8559 H   0  0  0  0  0  0  0  0  0  0  0  0
  -10.7301   27.3361   30.8166 H   0  0  0  0  0  0  0  0  0  0  0  0
  -10.5131   24.4988   29.5669 H   0  0  0  0  0  0  0  0  0  0  0  0
  -11.7284   26.7704   28.3999 H   0  0  0  0  0  0  0  0  0  0  0  0
  -10.1532   26.6518   27.5446 H   0  0  0  0  0  0  0  0  0  0  0  0
  -11.2827   25.2550   27.5446 H   0  0  0  0  0  0  0  0  0  0  0  0
   -8.4565   25.3119   28.3295 H   0  0  0  0  0  0  0  0  0  0  0  0
   -8.6511   26.8774   29.3647 H   0  0  0  0  0  0  0  0  0  0  0  0
   -8.0627   25.5277   31.3611 H   0  0  0  0  0  0  0  0  0  0  0  0
   -7.6146   23.2930   31.1901 H   0  0  0  0  0  0  0  0  0  0  0  0
   -8.5199   23.3947   29.6420 H   0  0  0  0  0  0  0  0  0  0  0  0
   -6.7265   23.4963   29.6420 H   0  0  0  0  0  0  0  0  0  0  0  0
   -7.0956   27.9098   30.8447 H   0  0  0  0  0  0  0  0  0  0  0  0
   -4.8460   29.5920   29.3072 H   0  0  0  0  0  0  0  0  0  0  0  0
   -3.9937   28.1431   28.6740 H   0  0  0  0  0  0  0  0  0  0  0  0
   -5.7891   28.2005   28.6740 H   0  0  0  0  0  0  0  0  0  0  0  0
   -5.5184   28.0617   32.9003 H   0  0  0  0  0  0  0  0  0  0  0  0
   -4.5393   26.0007   33.5048 H   0  0  0  0  0  0  0  0  0  0  0  0
   -8.4248   27.9727   34.3086 H   0  0  0  0  0  0  0  0  0  0  0  0
   -7.7975   28.6155   32.7529 H   0  0  0  0  0  0  0  0  0  0  0  0
   -9.0551   27.3329   32.7529 H   0  0  0  0  0  0  0  0  0  0  0  0
   -6.2237   24.7585   33.7686 H   0  0  0  0  0  0  0  0  0  0  0  0
   -9.2981   25.5710   34.3819 H   0  0  0  0  0  0  0  0  0  0  0  0
   -8.7286   22.9364   35.2229 H   0  0  0  0  0  0  0  0  0  0  0  0
   -9.5611   23.4113   33.7037 H   0  0  0  0  0  0  0  0  0  0  0  0
   -7.7883   23.1220   33.7037 H   0  0  0  0  0  0  0  0  0  0  0  0
   -7.9013   27.3043   35.7799 H   0  0  0  0  0  0  0  0  0  0  0  0
   -9.0234   26.8172   37.0524 H   0  0  0  0  0  0  0  0  0  0  0  0
   -5.9581   26.1833   37.2813 H   0  0  0  0  0  0  0  0  0  0  0  0
   -5.9016   28.2408   38.8489 H   0  0  0  0  0  0  0  0  0  0  0  0
   -8.1478   28.8483   39.5937 H   0  0  0  0  0  0  0  0  0  0  0  0
   -8.1898   29.8405   38.0969 H   0  0  0  0  0  0  0  0  0  0  0  0
   -8.8869   28.1850   38.0969 H   0  0  0  0  0  0  0  0  0  0  0  0
   -7.0871   29.2000   36.1568 H   0  0  0  0  0  0  0  0  0  0  0  0
   -5.9726   30.1163   37.2649 H   0  0  0  0  0  0  0  0  0  0  0  0
   -5.3363   27.6263   35.6737 H   0  0  0  0  0  0  0  0  0  0  0  0
   -5.3248   29.9104   34.3232 H   0  0  0  0  0  0  0  0  0  0  0  0
   -4.3567   30.6696   35.6602 H   0  0  0  0  0  0  0  0  0  0  0  0
   -3.3533   28.4459   33.7833 H   0  0  0  0  0  0  0  0  0  0  0  0
   -4.7379   31.0806   32.7482 H   0  0  0  0  0  0  0  0  0  0  0  0
   -3.3034   31.5830   31.7909 H   0  0  0  0  0  0  0  0  0  0  0  0
   -3.8262   29.8644   31.7909 H   0  0  0  0  0  0  0  0  0  0  0  0
   -1.9264   30.1977   36.0273 H   0  0  0  0  0  0  0  0  0  0  0  0
   -0.1181   28.7048   35.2611 H   0  0  0  0  0  0  0  0  0  0  0  0
   -2.5161   27.1969   35.8109 H   0  0  0  0  0  0  0  0  0  0  0  0
   -1.7098   28.0514   37.1733 H   0  0  0  0  0  0  0  0  0  0  0  0
   -3.7513   29.3531   37.6002 H   0  0  0  0  0  0  0  0  0  0  0  0
   -4.0706   27.5123   37.5967 H   0  0  0  0  0  0  0  0  0  0  0  0
  -15.7378   24.0843   40.7197 H   0  0  0  0  0  0  0  0  0  0  0  0
  -13.2221   24.3922   40.1709 H   0  0  0  0  0  0  0  0  0  0  0  0
  -17.9103   25.3592   40.0388 H   0  0  0  0  0  0  0  0  0  0  0  0
  -18.0097   26.2565   38.4858 H   0  0  0  0  0  0  0  0  0  0  0  0
  -17.9931   24.4602   38.4858 H   0  0  0  0  0  0  0  0  0  0  0  0
  1  2  1  0
  1 52  1  0
  2  3  2  0
  2  4  1  0
  4  5  1  0
  4  9  1  0
  5  6  1  0
  6  7  1  0
  7  8  1  0
  8  9  1  0
  9 10  1  0
 10 11  2  0
 10 12  1  0
 12 13  2  0
 12 14  1  0
 14 15  1  0
 14 19  1  0
 14 20  1  0
 15 16  1  0
 15 21  1  0
 16 17  1  0
 17 18  1  0
 18 19  1  0
 18 22  1  0
 22 23  1  0
 23 24  1  0
 23 25  1  0
 24 67  2  0
 24 69  1  0
 25 26  1  0
 25 27  2  0
 27 28  1  0
 28 29  2  0
 29 30  1  0
 30 31  2  0
 31 32  1  0
 32 33  1  0
 32 34  1  0
 34 35  1  0
 35 36  1  0
 35 37  1  0
 37 38  2  0
 37 39  1  0
 39 40  1  0
 39 42  1  0
 40 41  1  0
 42 43  1  0
 42 44  1  0
 44 45  1  0
 44 46  2  0
 46 47  1  0
 47 48  1  0
 47 49  1  0
 49 50  2  0
 49 51  1  0
 51 52  1  0
 52 53  1  0
 53 54  1  0
 53 55  1  0
 55 56  1  0
 56 57  1  0
 56 64  1  0
 57 58  1  0
 58 59  1  0
 58 61  1  0
 59 60  1  0
 61 62  1  0
 61 63  1  0
 63 64  1  0
 65 66  2  0
 65 68  1  0
 65 69  1  0
 66 67  1  0
  4 70  1  0
  5 71  1  0
  5 72  1  0
  6 73  1  0
  6 74  1  0
  7 75  1  0
  7 76  1  0
  8 77  1  0
  8 78  1  0
 15 79  1  0
 16 80  1  0
 16 81  1  0
 17 82  1  0
 17 83  1  0
 18 84  1  0
 20 85  1  0
 21 86  1  0
 21 87  1  0
 21 88  1  0
 22 89  1  0
 22 90  1  0
 23 91  1  0
 26 92  1  0
 26 93  1  0
 26 94  1  0
 27 95  1  0
 28 96  1  0
 29 97  1  0
 30 98  1  0
 31 99  1  0
 32100  1  0
 33101  1  0
 33102  1  0
 33103  1  0
 34104  1  0
 34105  1  0
 35106  1  0
 36107  1  0
 36108  1  0
 36109  1  0
 39110  1  0
 41111  1  0
 41112  1  0
 41113  1  0
 42114  1  0
 43115  1  0
 45116  1  0
 45117  1  0
 45118  1  0
 46119  1  0
 47120  1  0
 48121  1  0
 48122  1  0
 48123  1  0
 51124  1  0
 51125  1  0
 52126  1  0
 53127  1  0
 54128  1  0
 54129  1  0
 54130  1  0
 55131  1  0
 55132  1  0
 56133  1  0
 57134  1  0
 57135  1  0
 58136  1  0
 60137  1  0
 60138  1  0
 60139  1  0
 61140  1  0
 62141  1  0
 63142  1  0
 63143  1  0
 64144  1  0
 64145  1  0
 66146  1  0
 67147  1  0
 68148  1  0
 68149  1  0
 68150  1  0
A    1
O1
A    2
C1
A    3
O2
A    4
C2
A    5
C3
A    6
C4
A    7
C5
A    8
C6
A    9
N1
A   10
C7
A   11
O3
A   12
C8
A   13
O4
A   14
C9
A   15
C10
A   16
C11
A   17
C12
A   18
C13
A   19
O5
A   20
O6
A   21
C42
A   22
C14
A   23
C15
A   24
C49
A   25
C16
A   26
C43
A   27
C17
A   28
C18
A   29
C19
A   30
C20
A   31
C21
A   32
C22
A   33
C44
A   34
C23
A   35
C24
A   36
C45
A   37
C25
A   38
O8
A   39
C26
A   40
O9
A   41
C50
A   42
C27
A   43
O10
A   44
C28
A   45
C46
A   46
C29
A   47
C30
A   48
C47
A   49
C31
A   50
O11
A   51
C32
A   52
C33
A   53
C34
A   54
C48
A   55
C35
A   56
C36
A   57
C37
A   58
C38
A   59
O12
A   60
C51
A   61
C39
A   62
O13
A   63
C40
A   64
C41
A   65
C52
A   66
C53
A   67
C54
A   68
C55
A   69
S1
M  END
