4FCD_0T6_A_803
     RDKit          3D

 40 43  0  0  0  0  0  0  0  0999 V2000
   21.2100  -12.7090  -30.8710 C   0  0  0  0  0  0  0  0  0  0  0  0
   20.9560  -12.0520  -32.1650 C   0  0  0  0  0  0  0  0  0  0  0  0
   21.3450  -12.4640  -33.4220 C   0  0  0  0  0  0  0  0  0  0  0  0
   22.0390  -13.5480  -33.8570 N   0  0  0  0  0  0  0  0  0  0  0  0
   22.2950  -13.7470  -35.0730 N   0  0  0  0  0  0  0  0  0  0  0  0
   21.8440  -12.8130  -36.0430 C   0  0  0  0  0  0  0  0  0  0  0  0
   21.1110  -11.6600  -35.6720 C   0  0  0  0  0  0  0  0  0  0  0  0
   20.8670  -11.5040  -34.2900 N   0  0  0  0  0  0  0  0  0  0  0  0
   20.2100  -10.5450  -33.5220 C   0  0  0  0  0  0  0  0  0  0  0  0
   20.2600  -10.8740  -32.2410 N   0  0  0  0  0  0  0  0  0  0  0  0
   19.5330   -9.3360  -33.9910 C   0  0  0  0  0  0  0  0  0  0  0  0
   20.0210   -8.0580  -33.6560 C   0  0  0  0  0  0  0  0  0  0  0  0
   19.3590   -6.9090  -34.1100 C   0  0  0  0  0  0  0  0  0  0  0  0
   18.2040   -7.0200  -34.8930 C   0  0  0  0  0  0  0  0  0  0  0  0
   17.7040   -8.2840  -35.2250 C   0  0  0  0  0  0  0  0  0  0  0  0
   18.3680   -9.4360  -34.7710 C   0  0  0  0  0  0  0  0  0  0  0  0
   17.7450  -10.9990  -35.1970 Cl  0  0  0  0  0  0  0  0  0  0  0  0
   20.6810  -10.7560  -36.6380 C   0  0  0  0  0  0  0  0  0  0  0  0
   20.9660  -10.9680  -37.9870 C   0  0  0  0  0  0  0  0  0  0  0  0
   21.6890  -12.1130  -38.3750 C   0  0  0  0  0  0  0  0  0  0  0  0
   22.1360  -13.0410  -37.4070 C   0  0  0  0  0  0  0  0  0  0  0  0
   22.8560  -14.1960  -37.6620 O   0  0  0  0  0  0  0  0  0  0  0  0
   23.5150  -14.3730  -38.9160 C   0  0  0  0  0  0  0  0  0  0  0  0
   20.4520   -9.9620  -38.7680 O   0  0  0  0  0  0  0  0  0  0  0  0
   20.7630   -9.9050  -40.1540 C   0  0  0  0  0  0  0  0  0  0  0  0
   20.9448  -12.0229  -30.0531 H   0  0  0  0  0  0  0  0  0  0  0  0
   20.5997  -13.6212  -30.7969 H   0  0  0  0  0  0  0  0  0  0  0  0
   22.2752  -12.9734  -30.7969 H   0  0  0  0  0  0  0  0  0  0  0  0
   20.9245   -7.9613  -33.0361 H   0  0  0  0  0  0  0  0  0  0  0  0
   19.7494   -5.9142  -33.8495 H   0  0  0  0  0  0  0  0  0  0  0  0
   17.6898   -6.1143  -35.2470 H   0  0  0  0  0  0  0  0  0  0  0  0
   16.7955   -8.3753  -35.8384 H   0  0  0  0  0  0  0  0  0  0  0  0
   20.1108   -9.8654  -36.3352 H   0  0  0  0  0  0  0  0  0  0  0  0
   21.9073  -12.2862  -39.4391 H   0  0  0  0  0  0  0  0  0  0  0  0
   24.5640  -14.6548  -38.7424 H   0  0  0  0  0  0  0  0  0  0  0  0
   23.0114  -15.1677  -39.4859 H   0  0  0  0  0  0  0  0  0  0  0  0
   23.4773  -13.4329  -39.4859 H   0  0  0  0  0  0  0  0  0  0  0  0
   21.8378   -9.7080  -40.2808 H   0  0  0  0  0  0  0  0  0  0  0  0
   20.5079  -10.8649  -40.6268 H   0  0  0  0  0  0  0  0  0  0  0  0
   20.1840   -9.0980  -40.6268 H   0  0  0  0  0  0  0  0  0  0  0  0
 25 24  1  0
 23 22  1  0
 24 19  1  0
 20 19  2  0
 20 21  1  0
 19 18  1  0
 22 21  1  0
 21  6  2  0
 18  7  2  0
  6  7  1  0
  6  5  1  0
  7  8  1  0
 15 14  2  0
 15 16  1  0
 17 16  1  0
  5  4  2  0
 14 13  1  0
 16 11  2  0
  8  9  1  0
  8  3  1  0
 13 12  2  0
 11 12  1  0
 11  9  1  0
  4  3  1  0
  9 10  2  0
  3  2  2  0
 10  2  1  0
  2  1  1  0
  1 26  1  0
  1 27  1  0
  1 28  1  0
 12 29  1  0
 13 30  1  0
 14 31  1  0
 15 32  1  0
 18 33  1  0
 20 34  1  0
 23 35  1  0
 23 36  1  0
 23 37  1  0
 25 38  1  0
 25 39  1  0
 25 40  1  0
A    1
C1
A    2
C2
A    3
C3
A    4
N1
A    5
N2
A    6
C4
A    7
C5
A    8
N3
A    9
C6
A   10
N4
A   11
C7
A   12
C8
A   13
C9
A   14
C10
A   15
C11
A   16
C12
A   17
CL1
A   18
C13
A   19
C14
A   20
C15
A   21
C16
A   22
O1
A   23
C17
A   24
O2
A   25
C18
M  END
