1GQW_TAU_A_351
     RDKit          3D

 14 13  0  0  0  0  0  0  0  0999 V2000
   22.2590   33.4900   50.4320 C   0  0  0  0  0  0  0  0  0  0  0  0
   22.2200   32.6940   49.1040 C   0  0  0  0  0  0  0  0  0  0  0  0
   21.2060   34.3190   50.5130 N   0  0  0  0  0  0  0  0  0  0  0  0
   23.0810   31.1030   49.2120 S   0  0  0  0  0  0  0  0  0  0  0  0
   24.5270   31.3510   49.5450 O   0  0  0  0  0  0  0  0  0  0  0  0
   22.4210   30.2710   50.2820 O   0  0  0  0  0  0  0  0  0  0  0  0
   23.0140   30.3970   47.8860 O   0  0  0  0  0  0  0  0  0  0  0  0
   22.2319   32.7863   51.2770 H   0  0  0  0  0  0  0  0  0  0  0  0
   23.1839   34.0846   50.4640 H   0  0  0  0  0  0  0  0  0  0  0  0
   21.1693   32.5074   48.8370 H   0  0  0  0  0  0  0  0  0  0  0  0
   22.7343   33.2974   48.3415 H   0  0  0  0  0  0  0  0  0  0  0  0
   20.9828   34.4947   51.5030 H   0  0  0  0  0  0  0  0  0  0  0  0
   21.4339   35.2099   50.0491 H   0  0  0  0  0  0  0  0  0  0  0  0
   22.6882   30.6079   51.1737 H   0  0  0  0  0  0  0  0  0  0  0  0
  1  2  1  0
  1  3  1  0
  2  4  1  0
  4  5  2  0
  4  6  1  0
  4  7  2  0
  1  8  1  0
  1  9  1  0
  2 10  1  0
  2 11  1  0
  3 12  1  0
  3 13  1  0
  6 14  1  0
A    1
C1
A    2
C2
A    3
N1
A    4
S
A    5
O1
A    6
O2
A    7
O3
M  END
