4FCI_GPA_A_403
     RDKit          3D

 20 19  0  0  0  0  0  0  0  0999 V2000
   20.6610  -18.1170    4.1310 N   0  0  0  0  0  0  0  0  0  0  0  0
   21.1210  -17.7990    5.5160 C   0  0  0  0  0  0  0  0  0  0  0  0
   20.3240  -16.6100    5.9870 C   0  0  0  0  0  0  0  0  0  0  0  0
   20.0570  -16.2100    7.1270 O   0  0  0  0  0  0  0  0  0  0  0  0
   19.8450  -15.8960    4.7900 O   0  0  0  0  0  0  0  0  0  0  0  0
   22.6340  -17.4680    5.4430 C   0  0  0  0  0  0  0  0  0  0  0  0
   23.0110  -16.1050    4.9910 N   0  0  0  0  0  0  0  0  0  0  0  0
   24.0470  -15.3560    5.5630 C   0  0  0  0  0  0  0  0  0  0  0  0
   24.8470  -15.8090    6.5290 N   0  0  0  0  0  0  0  0  0  0  0  0
   24.2500  -14.0500    5.0850 N   0  0  0  0  0  0  0  0  0  0  0  0
   19.8146  -18.7021    4.1762 H   0  0  0  0  0  0  0  0  0  0  0  0
   20.4474  -17.2423    3.6308 H   0  0  0  0  0  0  0  0  0  0  0  0
   20.9740  -18.6345    6.2162 H   0  0  0  0  0  0  0  0  0  0  0  0
   20.3887  -16.7070    7.9163 H   0  0  0  0  0  0  0  0  0  0  0  0
   23.0524  -17.6097    6.4504 H   0  0  0  0  0  0  0  0  0  0  0  0
   23.0341  -18.1425    4.6716 H   0  0  0  0  0  0  0  0  0  0  0  0
   22.4809  -15.6868    4.2132 H   0  0  0  0  0  0  0  0  0  0  0  0
   24.5937  -15.6656    7.5170 H   0  0  0  0  0  0  0  0  0  0  0  0
   25.7182  -16.3023    6.2871 H   0  0  0  0  0  0  0  0  0  0  0  0
   25.0020  -13.4679    5.4806 H   0  0  0  0  0  0  0  0  0  0  0  0
  1  2  1  0
  2  3  1  0
  2  6  1  0
  3  4  1  0
  3  5  2  0
  6  7  1  0
  7  8  1  0
  8  9  1  0
  8 10  2  3
  1 11  1  0
  1 12  1  0
  2 13  1  0
  4 14  1  0
  6 15  1  0
  6 16  1  0
  7 17  1  0
  9 18  1  0
  9 19  1  0
 10 20  1  0
A    1
N
A    2
CA
A    3
C
A    4
OA1
A    5
OA2
A    6
CD
A    7
NE
A    8
CZ
A    9
NH1
A   10
NH2
M  END
