4FCR_0TM_A_301
     RDKit          3D

 47 49  0  0  0  0  0  0  0  0999 V2000
   33.7080    6.8120   23.3140 C   0  0  0  0  0  0  0  0  0  0  0  0
   34.5290    8.0390   23.4290 O   0  0  0  0  0  0  0  0  0  0  0  0
   33.9090    9.2400   23.6870 C   0  0  0  0  0  0  0  0  0  0  0  0
   32.5500    9.3130   24.1570 C   0  0  0  0  0  0  0  0  0  0  0  0
   34.6450   10.3860   23.5940 C   0  0  0  0  0  0  0  0  0  0  0  0
   35.9770   10.2050   23.1870 O   0  0  0  0  0  0  0  0  0  0  0  0
   36.8800   11.3040   23.5660 C   0  0  0  0  0  0  0  0  0  0  0  0
   34.0560   11.6540   23.8290 C   0  0  0  0  0  0  0  0  0  0  0  0
   32.7260   11.7650   24.2920 C   0  0  0  0  0  0  0  0  0  0  0  0
   32.0790   13.3370   24.5680 Cl  0  0  0  0  0  0  0  0  0  0  0  0
   31.9540   10.5820   24.3950 C   0  0  0  0  0  0  0  0  0  0  0  0
   30.6010   10.6430   24.8550 C   0  0  0  0  0  0  0  0  0  0  0  0
   30.3680   10.0530   26.0640 N   0  0  0  0  0  0  0  0  0  0  0  0
   29.4930   11.2190   24.1580 C   0  0  0  0  0  0  0  0  0  0  0  0
   29.2700   11.8060   22.9640 C   0  0  0  0  0  0  0  0  0  0  0  0
   30.2750   12.1150   21.9420 C   0  0  0  0  0  0  0  0  0  0  0  0
   31.0660   12.3440   21.1290 N   0  0  0  0  0  0  0  0  0  0  0  0
   27.9580   12.1200   22.8970 C   0  0  0  0  0  0  0  0  0  0  0  0
   27.2600   11.7010   23.9620 N   0  0  0  0  0  0  0  0  0  0  0  0
   28.2070   11.1480   24.7550 C   0  0  0  0  0  0  0  0  0  0  0  0
   28.0580   10.5280   25.8990 N   0  0  0  0  0  0  0  0  0  0  0  0
   29.1330   10.0330   26.6150 C   0  0  0  0  0  0  0  0  0  0  0  0
   28.6680    9.3340   28.1170 S   0  0  0  0  0  0  0  0  0  0  0  0
   30.1300    8.3530   28.6000 C   0  0  0  0  0  0  0  0  0  0  0  0
   30.4430    7.1670   27.6730 C   0  0  0  0  0  0  0  0  0  0  0  0
   29.6090    6.8190   26.8410 O   0  0  0  0  0  0  0  0  0  0  0  0
   31.6430    6.5510   27.8330 N   0  0  0  0  0  0  0  0  0  0  0  0
   32.6120    6.9750   28.8670 C   0  0  0  0  0  0  0  0  0  0  0  0
   31.9860    5.4220   26.9630 C   0  0  0  0  0  0  0  0  0  0  0  0
   33.4599    6.4412   24.3195 H   0  0  0  0  0  0  0  0  0  0  0  0
   32.7806    7.0411   22.7685 H   0  0  0  0  0  0  0  0  0  0  0  0
   34.2736    6.0422   22.7685 H   0  0  0  0  0  0  0  0  0  0  0  0
   31.9754    8.3913   24.3312 H   0  0  0  0  0  0  0  0  0  0  0  0
   36.9354   11.3714   24.6625 H   0  0  0  0  0  0  0  0  0  0  0  0
   37.8836   11.1107   23.1593 H   0  0  0  0  0  0  0  0  0  0  0  0
   36.4957   12.2511   23.1593 H   0  0  0  0  0  0  0  0  0  0  0  0
   34.6440   12.5659   23.6479 H   0  0  0  0  0  0  0  0  0  0  0  0
   27.5078   12.6645   22.0538 H   0  0  0  0  0  0  0  0  0  0  0  0
   26.2478   11.7807   24.1349 H   0  0  0  0  0  0  0  0  0  0  0  0
   29.9595    7.9602   29.6132 H   0  0  0  0  0  0  0  0  0  0  0  0
   30.9935    9.0316   28.5384 H   0  0  0  0  0  0  0  0  0  0  0  0
   32.1880    6.7895   29.8649 H   0  0  0  0  0  0  0  0  0  0  0  0
   33.5443    6.4026   28.7525 H   0  0  0  0  0  0  0  0  0  0  0  0
   32.8243    8.0482   28.7525 H   0  0  0  0  0  0  0  0  0  0  0  0
   32.2507    4.5507   27.5801 H   0  0  0  0  0  0  0  0  0  0  0  0
   31.1230    5.1730   26.3280 H   0  0  0  0  0  0  0  0  0  0  0  0
   32.8417    5.6951   26.3280 H   0  0  0  0  0  0  0  0  0  0  0  0
 17 16  3  0
 16 15  1  0
 18 15  2  0
 18 19  1  0
 15 14  1  0
  6  7  1  0
  6  5  1  0
  1  2  1  0
  2  3  1  0
  5  3  2  0
  5  8  1  0
  3  4  1  0
  8  9  2  0
 19 20  1  0
  4 11  2  0
 14 20  2  0
 14 12  1  0
  9 11  1  0
  9 10  1  0
 11 12  1  0
 20 21  1  0
 12 13  2  0
 21 22  2  0
 13 22  1  0
 22 23  1  0
 26 25  2  0
 29 27  1  0
 25 27  1  0
 25 24  1  0
 27 28  1  0
 23 24  1  0
  1 30  1  0
  1 31  1  0
  1 32  1  0
  4 33  1  0
  7 34  1  0
  7 35  1  0
  7 36  1  0
  8 37  1  0
 18 38  1  0
 19 39  1  0
 24 40  1  0
 24 41  1  0
 28 42  1  0
 28 43  1  0
 28 44  1  0
 29 45  1  0
 29 46  1  0
 29 47  1  0
A    1
C14
A    2
O1
A    3
C5
A    4
C4
A    5
C6
A    6
O2
A    7
C17
A    8
C1
A    9
C2
A   10
CL
A   11
C3
A   12
C7
A   13
N1
A   14
C9
A   15
C12
A   16
C13
A   17
N4
A   18
C11
A   19
N3
A   20
C10
A   21
N2
A   22
C8
A   23
S
A   24
C15
A   25
C16
A   26
O3
A   27
N5
A   28
C18
A   29
C19
M  END
