4FDO_0T5_A_901
     RDKit          3D

 37 38  0  0  0  0  0  0  0  0999 V2000
   36.2040   15.4720    9.4390 O   0  0  0  0  0  0  0  0  0  0  0  0
   37.3320   15.0520    8.7580 N   0  0  0  0  0  0  0  0  0  0  0  0
   37.3600   15.0660    7.3690 O   0  0  0  0  0  0  0  0  0  0  0  0
   38.4400   14.5980    9.4680 C   0  0  0  0  0  0  0  0  0  0  0  0
   39.7020   15.1390    9.2270 C   0  0  0  0  0  0  0  0  0  0  0  0
   40.8050   14.6760    9.9390 C   0  0  0  0  0  0  0  0  0  0  0  0
   42.1620   15.2790    9.6590 C   0  0  0  0  0  0  0  0  0  0  0  0
   42.0720   15.9630    8.5290 F   0  0  0  0  0  0  0  0  0  0  0  0
   42.5260   16.0990   10.6360 F   0  0  0  0  0  0  0  0  0  0  0  0
   43.0740   14.3210    9.5250 F   0  0  0  0  0  0  0  0  0  0  0  0
   40.6260   13.6700   10.8950 C   0  0  0  0  0  0  0  0  0  0  0  0
   38.2600   13.5950   10.4080 C   0  0  0  0  0  0  0  0  0  0  0  0
   39.3540   13.1290   11.1250 C   0  0  0  0  0  0  0  0  0  0  0  0
   39.1270   12.0350   12.1310 C   0  0  0  0  0  0  0  0  0  0  0  0
   40.0080   11.7290   12.9140 O   0  0  0  0  0  0  0  0  0  0  0  0
   37.9500   11.4100   12.1250 N   0  0  0  0  0  0  0  0  0  0  0  0
   37.5980   10.4130   13.1270 C   0  0  0  0  0  0  0  0  0  0  0  0
   36.3160    9.6650   12.7370 C   0  0  0  0  0  0  0  0  0  0  0  0
   37.4540   11.0520   14.4580 C   0  0  0  0  0  0  0  0  0  0  0  0
   36.5690   12.1150   14.6330 C   0  0  0  0  0  0  0  0  0  0  0  0
   36.4500   12.7030   15.8880 C   0  0  0  0  0  0  0  0  0  0  0  0
   37.2070   12.2380   16.9650 C   0  0  0  0  0  0  0  0  0  0  0  0
   38.0910   11.1720   16.7890 C   0  0  0  0  0  0  0  0  0  0  0  0
   38.2150   10.5810   15.5320 C   0  0  0  0  0  0  0  0  0  0  0  0
   39.8262   15.9316    8.4744 H   0  0  0  0  0  0  0  0  0  0  0  0
   41.4888   13.3017   11.4693 H   0  0  0  0  0  0  0  0  0  0  0  0
   37.2599   13.1723   10.5842 H   0  0  0  0  0  0  0  0  0  0  0  0
   37.2675   11.6392   11.3884 H   0  0  0  0  0  0  0  0  0  0  0  0
   38.4111    9.6741   13.1797 H   0  0  0  0  0  0  0  0  0  0  0  0
   35.7821    9.3535   13.6469 H   0  0  0  0  0  0  0  0  0  0  0  0
   35.6709   10.3284   12.1423 H   0  0  0  0  0  0  0  0  0  0  0  0
   36.5761    8.7769   12.1423 H   0  0  0  0  0  0  0  0  0  0  0  0
   35.9709   12.4850   13.7872 H   0  0  0  0  0  0  0  0  0  0  0  0
   35.7533   13.5418   16.0332 H   0  0  0  0  0  0  0  0  0  0  0  0
   37.1068   12.7118   17.9527 H   0  0  0  0  0  0  0  0  0  0  0  0
   38.6859   10.8006   17.6364 H   0  0  0  0  0  0  0  0  0  0  0  0
   38.9125    9.7431   15.3853 H   0  0  0  0  0  0  0  0  0  0  0  0
  2  1  1  0
  2  4  1  0
  3  2  2  0
  4 12  2  0
  5  4  1  0
  5  6  2  0
  6 11  1  0
  7  6  1  0
  7  9  1  0
  8  7  1  0
 10  7  1  0
 11 13  2  0
 12 13  1  0
 13 14  1  0
 14 15  2  0
 16 14  1  0
 16 17  1  0
 17 19  1  0
 18 17  1  0
 19 20  2  0
 19 24  1  0
 20 21  1  0
 21 22  2  0
 23 22  1  0
 24 23  2  0
  5 25  1  0
 11 26  1  0
 12 27  1  0
 16 28  1  0
 17 29  1  0
 18 30  1  0
 18 31  1  0
 18 32  1  0
 20 33  1  0
 21 34  1  0
 22 35  1  0
 23 36  1  0
 24 37  1  0
M  CHG  2   1  -1   2   1
A    1
O38
A    2
N8
A    3
O10
A    4
C2
A    5
C1
A    6
C6
A    7
C7
A    8
F28
A    9
F27
A   10
F29
A   11
C5
A   12
C3
A   13
C4
A   14
C14
A   15
O15
A   16
N13
A   17
C12
A   18
C13
A   19
C20
A   20
C25
A   21
C24
A   22
C23
A   23
C22
A   24
C21
M  END
