4FF8_14S_A_901
     RDKit          3D

 68 71  0  0  0  0  0  0  0  0999 V2000
   35.8690    9.1900   20.3290 O   0  0  0  0  0  0  0  0  0  0  0  0
   34.7980    9.6000   20.7550 C   0  0  0  0  0  0  0  0  0  0  0  0
   34.4990    9.7590   22.2260 C   0  0  0  0  0  0  0  0  0  0  0  0
   33.0160   10.2070   22.2400 C   0  0  0  0  0  0  0  0  0  0  0  0
   32.6200   10.5440   20.7790 C   0  0  0  0  0  0  0  0  0  0  0  0
   33.7420    9.9760   20.0350 N   0  0  0  0  0  0  0  0  0  0  0  0
   33.6080    9.8540   18.5830 C   0  0  0  0  0  0  0  0  0  0  0  0
   34.3110   11.0750   17.9900 C   0  0  0  0  0  0  0  0  0  0  0  0
   34.7320   10.8580   16.5400 C   0  0  0  0  0  0  0  0  0  0  0  0
   34.8870   12.1140   15.8290 N   0  0  0  0  0  0  0  0  0  0  0  0
   33.8640   12.8130   15.3380 C   0  0  0  0  0  0  0  0  0  0  0  0
   32.7120   12.4430   15.4660 O   0  0  0  0  0  0  0  0  0  0  0  0
   34.1400   14.1030   14.6220 C   0  0  0  0  0  0  0  0  0  0  0  0
   33.1970   15.1250   14.5370 C   0  0  0  0  0  0  0  0  0  0  0  0
   31.9770   14.9720   15.1130 N   0  0  0  0  0  0  0  0  0  0  0  0
   30.9140   15.9690   15.0740 C   0  0  0  0  0  0  0  0  0  0  0  0
   31.0800   17.0280   16.1550 C   0  0  0  0  0  0  0  0  0  0  0  0
   29.9590   16.8790   17.1730 C   0  0  0  0  0  0  0  0  0  0  0  0
   29.1130   15.6880   16.7480 C   0  0  0  0  0  0  0  0  0  0  0  0
   29.5780   15.2850   15.3510 C   0  0  0  0  0  0  0  0  0  0  0  0
   35.3770   14.2890   14.0270 C   0  0  0  0  0  0  0  0  0  0  0  0
   35.6540   15.4280   13.3900 N   0  0  0  0  0  0  0  0  0  0  0  0
   34.7450   16.4170   13.3050 C   0  0  0  0  0  0  0  0  0  0  0  0
   33.5260   16.2670   13.8770 N   0  0  0  0  0  0  0  0  0  0  0  0
   35.0860   17.5510   12.6510 N   0  0  0  0  0  0  0  0  0  0  0  0
   34.1420   18.6450   12.5110 C   0  0  0  0  0  0  0  0  0  0  0  0
   34.5600   19.8950   13.2490 C   0  0  0  0  0  0  0  0  0  0  0  0
   35.9100   20.1630   13.4810 C   0  0  0  0  0  0  0  0  0  0  0  0
   36.2890   21.3210   14.1530 C   0  0  0  0  0  0  0  0  0  0  0  0
   35.3130   22.2100   14.5930 C   0  0  0  0  0  0  0  0  0  0  0  0
   33.9650   21.9460   14.3640 C   0  0  0  0  0  0  0  0  0  0  0  0
   33.5840   20.7830   13.6960 C   0  0  0  0  0  0  0  0  0  0  0  0
   32.2530   20.5320   13.4600 O   0  0  0  0  0  0  0  0  0  0  0  0
   31.3210   20.3950   14.5290 C   0  0  0  0  0  0  0  0  0  0  0  0
   34.6281    8.8060   22.7599 H   0  0  0  0  0  0  0  0  0  0  0  0
   35.1696   10.4722   22.7276 H   0  0  0  0  0  0  0  0  0  0  0  0
   32.8978   11.0964   22.8763 H   0  0  0  0  0  0  0  0  0  0  0  0
   32.3732    9.4104   22.6429 H   0  0  0  0  0  0  0  0  0  0  0  0
   32.5436   11.6303   20.6237 H   0  0  0  0  0  0  0  0  0  0  0  0
   31.6375   10.1510   20.4785 H   0  0  0  0  0  0  0  0  0  0  0  0
   32.5460    9.8480   18.2965 H   0  0  0  0  0  0  0  0  0  0  0  0
   34.0507    8.9166   18.2153 H   0  0  0  0  0  0  0  0  0  0  0  0
   35.2076   11.2918   18.5893 H   0  0  0  0  0  0  0  0  0  0  0  0
   33.5995   11.9136   18.0101 H   0  0  0  0  0  0  0  0  0  0  0  0
   33.9646   10.2545   16.0331 H   0  0  0  0  0  0  0  0  0  0  0  0
   35.7042   10.3434   16.5400 H   0  0  0  0  0  0  0  0  0  0  0  0
   35.8388   12.4849   15.6969 H   0  0  0  0  0  0  0  0  0  0  0  0
   31.7896   14.0906   15.6120 H   0  0  0  0  0  0  0  0  0  0  0  0
   30.9542   16.4408   14.0811 H   0  0  0  0  0  0  0  0  0  0  0  0
   32.0512   16.8958   16.6543 H   0  0  0  0  0  0  0  0  0  0  0  0
   31.0393   18.0297   15.7023 H   0  0  0  0  0  0  0  0  0  0  0  0
   30.3808   16.7025   18.1735 H   0  0  0  0  0  0  0  0  0  0  0  0
   29.3488   17.7933   17.2150 H   0  0  0  0  0  0  0  0  0  0  0  0
   28.0497   15.9689   16.7257 H   0  0  0  0  0  0  0  0  0  0  0  0
   29.2273   14.8534   17.4554 H   0  0  0  0  0  0  0  0  0  0  0  0
   28.8351   15.6044   14.6053 H   0  0  0  0  0  0  0  0  0  0  0  0
   29.6920   14.1926   15.2903 H   0  0  0  0  0  0  0  0  0  0  0  0
   36.1348   13.4935   14.0800 H   0  0  0  0  0  0  0  0  0  0  0  0
   36.0291   17.6395   12.2465 H   0  0  0  0  0  0  0  0  0  0  0  0
   34.0444   18.8870   11.4424 H   0  0  0  0  0  0  0  0  0  0  0  0
   33.1901   18.3113   12.9499 H   0  0  0  0  0  0  0  0  0  0  0  0
   36.6770   19.4563   13.1314 H   0  0  0  0  0  0  0  0  0  0  0  0
   37.3530   21.5323   14.3352 H   0  0  0  0  0  0  0  0  0  0  0  0
   35.6080   23.1266   15.1248 H   0  0  0  0  0  0  0  0  0  0  0  0
   33.1997   22.6560   14.7106 H   0  0  0  0  0  0  0  0  0  0  0  0
   31.8510   20.4729   15.4898 H   0  0  0  0  0  0  0  0  0  0  0  0
   30.5656   21.1918   14.4613 H   0  0  0  0  0  0  0  0  0  0  0  0
   30.8269   19.4146   14.4613 H   0  0  0  0  0  0  0  0  0  0  0  0
 26 25  1  0
 26 27  1  0
 25 23  1  0
 27 28  2  0
 27 32  1  0
 23 22  1  0
 23 24  2  0
 22 21  2  0
 33 32  1  0
 33 34  1  0
 28 29  1  0
 32 31  2  0
 24 14  1  0
 21 13  1  0
 29 30  2  0
 31 30  1  0
 14 13  2  0
 14 15  1  0
 13 11  1  0
 16 15  1  0
 16 20  1  0
 16 17  1  0
 11 12  2  0
 11 10  1  0
 20 19  1  0
 10  9  1  0
 17 18  1  0
  9  8  1  0
 19 18  1  0
  8  7  1  0
  7  6  1  0
  6  2  1  0
  6  5  1  0
  1  2  2  0
  2  3  1  0
  5  4  1  0
  3  4  1  0
  3 35  1  0
  3 36  1  0
  4 37  1  0
  4 38  1  0
  5 39  1  0
  5 40  1  0
  7 41  1  0
  7 42  1  0
  8 43  1  0
  8 44  1  0
  9 45  1  0
  9 46  1  0
 10 47  1  0
 15 48  1  0
 16 49  1  0
 17 50  1  0
 17 51  1  0
 18 52  1  0
 18 53  1  0
 19 54  1  0
 19 55  1  0
 20 56  1  0
 20 57  1  0
 21 58  1  0
 25 59  1  0
 26 60  1  0
 26 61  1  0
 28 62  1  0
 29 63  1  0
 30 64  1  0
 31 65  1  0
 34 66  1  0
 34 67  1  0
 34 68  1  0
A    1
O33
A    2
C28
A    3
C32
A    4
C34
A    5
C29
A    6
N24
A    7
C21
A    8
C19
A    9
C15
A   10
N10
A   11
C6
A   12
O11
A   13
C2
A   14
C1
A   15
N4
A   16
C8
A   17
C14
A   18
C18
A   19
C17
A   20
C13
A   21
C5
A   22
N9
A   23
C7
A   24
N3
A   25
N12
A   26
C16
A   27
C20
A   28
C23
A   29
C27
A   30
C30
A   31
C25
A   32
C22
A   33
O26
A   34
C31
M  END
