4FGG_0U5_A_200
     RDKit          3D

 76 79  0  0  0  0  0  0  0  0999 V2000
   -3.3500   28.6590   -3.0040 N   0  0  0  0  0  0  0  0  0  0  0  0
   -4.5490   28.6720   -3.8260 C   0  0  0  0  0  0  0  0  0  0  0  0
   -4.8370   29.7350   -4.7360 C   0  0  0  0  0  0  0  0  0  0  0  0
   -3.8080   30.8840   -4.7960 C   0  0  0  0  0  0  0  0  0  0  0  0
   -4.1730   32.0860   -5.6860 C   0  0  0  0  0  0  0  0  0  0  0  0
   -3.4390   32.3470   -6.8600 C   0  0  0  0  0  0  0  0  0  0  0  0
   -3.7800   33.4440   -7.6650 C   0  0  0  0  0  0  0  0  0  0  0  0
   -3.0530   33.6790   -8.8280 O   0  0  0  0  0  0  0  0  0  0  0  0
   -1.7440   33.2070   -8.9420 C   0  0  0  0  0  0  0  0  0  0  0  0
   -4.8420   34.2760   -7.2810 C   0  0  0  0  0  0  0  0  0  0  0  0
   -5.2270   35.3680   -8.0420 O   0  0  0  0  0  0  0  0  0  0  0  0
   -6.3480   35.2370   -8.8760 C   0  0  0  0  0  0  0  0  0  0  0  0
   -5.5670   34.0180   -6.0980 C   0  0  0  0  0  0  0  0  0  0  0  0
   -6.7330   34.9510   -5.7260 C   0  0  0  0  0  0  0  0  0  0  0  0
   -6.8550   35.6080   -4.4980 C   0  0  0  0  0  0  0  0  0  0  0  0
   -8.1290   36.4520   -4.2750 C   0  0  0  0  0  0  0  0  0  0  0  0
   -8.8020   36.4250   -3.0030 N   0  0  0  0  0  0  0  0  0  0  0  0
   -8.2460   35.6410   -2.0310 N   0  0  0  0  0  0  0  0  0  0  0  0
   -8.9180   35.5520   -0.7680 C   0  0  0  0  0  0  0  0  0  0  0  0
  -10.0050   37.2120   -2.7720 C   0  0  0  0  0  0  0  0  0  0  0  0
  -11.3030   36.4500   -3.1410 C   0  0  0  0  0  0  0  0  0  0  0  0
  -12.4690   37.2410   -3.7530 C   0  0  0  0  0  0  0  0  0  0  0  0
  -12.4920   37.9190   -5.0460 C   0  0  0  0  0  0  0  0  0  0  0  0
  -10.1310   37.6440   -1.3400 C   0  0  0  0  0  0  0  0  0  0  0  0
   -9.5930   36.8300   -0.3600 C   0  0  0  0  0  0  0  0  0  0  0  0
   -9.6880   37.2060    1.0250 C   0  0  0  0  0  0  0  0  0  0  0  0
  -10.3310   38.4060    1.3710 C   0  0  0  0  0  0  0  0  0  0  0  0
  -10.8800   39.2370    0.3670 C   0  0  0  0  0  0  0  0  0  0  0  0
  -10.7850   38.8680   -0.9890 C   0  0  0  0  0  0  0  0  0  0  0  0
   -8.5570   37.1230   -5.1920 O   0  0  0  0  0  0  0  0  0  0  0  0
   -5.2320   32.9240   -5.3030 C   0  0  0  0  0  0  0  0  0  0  0  0
   -6.0500   29.5970   -5.5010 C   0  0  0  0  0  0  0  0  0  0  0  0
   -6.8310   28.5020   -5.2980 N   0  0  0  0  0  0  0  0  0  0  0  0
   -6.5150   27.5420   -4.4180 C   0  0  0  0  0  0  0  0  0  0  0  0
   -7.3880   26.4020   -4.2470 N   0  0  0  0  0  0  0  0  0  0  0  0
   -5.3800   27.6270   -3.6970 N   0  0  0  0  0  0  0  0  0  0  0  0
  -13.8530   36.9130   -3.1360 C   0  0  0  0  0  0  0  0  0  0  0  0
   -6.6300   30.5840   -6.5290 C   0  0  0  0  0  0  0  0  0  0  0  0
   -8.0650   31.0010   -6.2540 C   0  0  0  0  0  0  0  0  0  0  0  0
   -8.7100   32.0720   -7.0920 C   0  0  0  0  0  0  0  0  0  0  0  0
   -3.4296   28.6599   -1.9771 H   0  0  0  0  0  0  0  0  0  0  0  0
   -2.4209   28.6489   -3.4485 H   0  0  0  0  0  0  0  0  0  0  0  0
   -3.6642   31.2579   -3.7715 H   0  0  0  0  0  0  0  0  0  0  0  0
   -2.9081   30.4459   -5.2524 H   0  0  0  0  0  0  0  0  0  0  0  0
   -2.6016   31.6929   -7.1443 H   0  0  0  0  0  0  0  0  0  0  0  0
   -1.3206   33.0543   -7.9383 H   0  0  0  0  0  0  0  0  0  0  0  0
   -1.7447   32.2525   -9.4888 H   0  0  0  0  0  0  0  0  0  0  0  0
   -1.1354   33.9423   -9.4888 H   0  0  0  0  0  0  0  0  0  0  0  0
   -7.2531   35.1312   -8.2598 H   0  0  0  0  0  0  0  0  0  0  0  0
   -6.4391   36.1306   -9.5109 H   0  0  0  0  0  0  0  0  0  0  0  0
   -6.2306   34.3465   -9.5109 H   0  0  0  0  0  0  0  0  0  0  0  0
   -7.5221   35.1114   -6.4754 H   0  0  0  0  0  0  0  0  0  0  0  0
   -6.0773   35.5273   -3.7242 H   0  0  0  0  0  0  0  0  0  0  0  0
   -8.9374   34.6372   -0.1574 H   0  0  0  0  0  0  0  0  0  0  0  0
   -9.8929   38.0880   -3.4278 H   0  0  0  0  0  0  0  0  0  0  0  0
  -11.3875   35.3669   -2.9685 H   0  0  0  0  0  0  0  0  0  0  0  0
  -12.5289   39.0071   -4.8889 H   0  0  0  0  0  0  0  0  0  0  0  0
  -11.5846   37.6608   -5.6116 H   0  0  0  0  0  0  0  0  0  0  0  0
  -13.3798   37.5999   -5.6116 H   0  0  0  0  0  0  0  0  0  0  0  0
   -9.2611   36.5598    1.8061 H   0  0  0  0  0  0  0  0  0  0  0  0
  -10.4079   38.7008    2.4280 H   0  0  0  0  0  0  0  0  0  0  0  0
  -11.3829   40.1747    0.6460 H   0  0  0  0  0  0  0  0  0  0  0  0
  -11.2095   39.5145   -1.7712 H   0  0  0  0  0  0  0  0  0  0  0  0
   -5.7943   32.7181   -4.3803 H   0  0  0  0  0  0  0  0  0  0  0  0
   -7.6348   26.0797   -3.3004 H   0  0  0  0  0  0  0  0  0  0  0  0
   -7.7631   25.9122   -5.0718 H   0  0  0  0  0  0  0  0  0  0  0  0
  -13.7787   36.9306   -2.0387 H   0  0  0  0  0  0  0  0  0  0  0  0
  -14.5882   37.6618   -3.4658 H   0  0  0  0  0  0  0  0  0  0  0  0
  -14.1740   35.9139   -3.4658 H   0  0  0  0  0  0  0  0  0  0  0  0
   -6.0029   31.4877   -6.5309 H   0  0  0  0  0  0  0  0  0  0  0  0
   -6.6330   30.0640   -7.4984 H   0  0  0  0  0  0  0  0  0  0  0  0
   -8.6843   30.0981   -6.3605 H   0  0  0  0  0  0  0  0  0  0  0  0
   -8.0087   31.4598   -5.2559 H   0  0  0  0  0  0  0  0  0  0  0  0
   -9.1650   32.8276   -6.4347 H   0  0  0  0  0  0  0  0  0  0  0  0
   -7.9488   32.5489   -7.7269 H   0  0  0  0  0  0  0  0  0  0  0  0
   -9.4876   31.6222   -7.7269 H   0  0  0  0  0  0  0  0  0  0  0  0
  2  1  1  0
  2 36  2  0
  3  2  1  0
  4  3  1  0
  5  4  1  0
  5 31  1  0
  6  5  2  0
  7  6  1  0
  7 10  2  0
  8  7  1  0
  9  8  1  0
 10 13  1  0
 11 10  1  0
 12 11  1  0
 13 14  1  0
 13 31  2  0
 14 15  2  0
 15 16  1  0
 16 17  1  0
 17 20  1  0
 17 18  1  0
 18 19  2  0
 19 25  1  0
 20 24  1  0
 21 20  1  0
 22 21  2  0
 22 37  1  0
 23 22  1  0
 24 29  1  0
 24 25  2  0
 25 26  1  0
 26 27  2  0
 28 27  1  0
 29 28  2  0
 30 16  2  0
 32  3  2  0
 32 33  1  0
 33 34  2  0
 34 35  1  0
 34 36  1  0
 38 32  1  0
 38 39  1  0
 40 39  1  0
  1 41  1  0
  1 42  1  0
  4 43  1  0
  4 44  1  0
  6 45  1  0
  9 46  1  0
  9 47  1  0
  9 48  1  0
 12 49  1  0
 12 50  1  0
 12 51  1  0
 14 52  1  0
 15 53  1  0
 19 54  1  0
 20 55  1  0
 21 56  1  0
 23 57  1  0
 23 58  1  0
 23 59  1  0
 26 60  1  0
 27 61  1  0
 28 62  1  0
 29 63  1  0
 31 64  1  0
 35 65  1  0
 35 66  1  0
 37 67  1  0
 37 68  1  0
 37 69  1  0
 38 70  1  0
 38 71  1  0
 39 72  1  0
 39 73  1  0
 40 74  1  0
 40 75  1  0
 40 76  1  0
A    1
N01
A    2
C02
A    3
C03
A    4
C04
A    5
C05
A    6
C06
A    7
C07
A    8
O08
A    9
C09
A   10
C10
A   11
O11
A   12
C12
A   13
C13
A   14
C14
A   15
C15
A   16
C16
A   17
N17
A   18
N18
A   19
C19
A   20
C20
A   21
C21
A   22
C22
A   23
C23
A   24
C24
A   25
C25
A   26
C26
A   27
C27
A   28
C28
A   29
C29
A   30
O30
A   31
C31
A   32
C32
A   33
N33
A   34
C34
A   35
N35
A   36
N36
A   37
C37
A   38
C38
A   39
C39
A   40
C40
M  END
