4FGH_0U6_A_202
     RDKit          3D

 73 76  0  0  0  0  0  0  0  0999 V2000
   -3.3230   28.6040   -2.8470 N   0  0  0  0  0  0  0  0  0  0  0  0
   -4.4680   28.6250   -3.7000 C   0  0  0  0  0  0  0  0  0  0  0  0
   -4.6770   29.6450   -4.6470 C   0  0  0  0  0  0  0  0  0  0  0  0
   -3.6470   30.7550   -4.7470 C   0  0  0  0  0  0  0  0  0  0  0  0
   -4.0580   31.9500   -5.5610 C   0  0  0  0  0  0  0  0  0  0  0  0
   -3.3150   32.2560   -6.6600 C   0  0  0  0  0  0  0  0  0  0  0  0
   -3.6590   33.3620   -7.4540 C   0  0  0  0  0  0  0  0  0  0  0  0
   -2.9110   33.6920   -8.6130 O   0  0  0  0  0  0  0  0  0  0  0  0
   -1.6690   33.0520   -8.8840 C   0  0  0  0  0  0  0  0  0  0  0  0
   -4.7790   34.1490   -7.0930 C   0  0  0  0  0  0  0  0  0  0  0  0
   -5.1470   35.2770   -7.9010 O   0  0  0  0  0  0  0  0  0  0  0  0
   -6.2700   35.1950   -8.7190 C   0  0  0  0  0  0  0  0  0  0  0  0
   -5.5290   33.8480   -5.9850 C   0  0  0  0  0  0  0  0  0  0  0  0
   -6.7780   34.7900   -5.6580 C   0  0  0  0  0  0  0  0  0  0  0  0
   -7.1290   35.1470   -4.3880 C   0  0  0  0  0  0  0  0  0  0  0  0
   -8.3940   35.9970   -4.2120 C   0  0  0  0  0  0  0  0  0  0  0  0
   -9.2410   35.8610   -3.0640 N   0  0  0  0  0  0  0  0  0  0  0  0
   -8.9590   34.9840   -2.0540 N   0  0  0  0  0  0  0  0  0  0  0  0
   -8.9480   35.5600   -0.7370 C   0  0  0  0  0  0  0  0  0  0  0  0
  -10.4190   36.6890   -2.9610 C   0  0  0  0  0  0  0  0  0  0  0  0
  -11.6660   35.8570   -3.2850 C   0  0  0  0  0  0  0  0  0  0  0  0
  -12.9060   36.5100   -3.9950 C   0  0  0  0  0  0  0  0  0  0  0  0
  -12.8130   37.1680   -5.3040 C   0  0  0  0  0  0  0  0  0  0  0  0
  -10.5520   37.3140   -1.6130 C   0  0  0  0  0  0  0  0  0  0  0  0
   -9.8440   36.7760   -0.5420 C   0  0  0  0  0  0  0  0  0  0  0  0
   -9.9630   37.3990    0.7950 C   0  0  0  0  0  0  0  0  0  0  0  0
  -10.7680   38.5000    0.9790 C   0  0  0  0  0  0  0  0  0  0  0  0
  -11.4930   39.0510   -0.1230 C   0  0  0  0  0  0  0  0  0  0  0  0
  -11.3820   38.4570   -1.4230 C   0  0  0  0  0  0  0  0  0  0  0  0
   -8.6750   36.7790   -5.0700 O   0  0  0  0  0  0  0  0  0  0  0  0
   -5.1960   32.7540   -5.1880 C   0  0  0  0  0  0  0  0  0  0  0  0
   -5.9040   29.5100   -5.4690 C   0  0  0  0  0  0  0  0  0  0  0  0
   -6.7420   28.4710   -5.2600 N   0  0  0  0  0  0  0  0  0  0  0  0
   -6.4920   27.5470   -4.3450 C   0  0  0  0  0  0  0  0  0  0  0  0
   -7.4210   26.4800   -4.1790 N   0  0  0  0  0  0  0  0  0  0  0  0
   -5.3570   27.6060   -3.5570 N   0  0  0  0  0  0  0  0  0  0  0  0
  -14.1870   36.1850   -3.3500 C   0  0  0  0  0  0  0  0  0  0  0  0
   -6.3770   30.4600   -6.5360 C   0  0  0  0  0  0  0  0  0  0  0  0
   -7.8670   30.9800   -6.3290 C   0  0  0  0  0  0  0  0  0  0  0  0
   -3.4428   28.6062   -1.8240 H   0  0  0  0  0  0  0  0  0  0  0  0
   -2.3773   28.5867   -3.2547 H   0  0  0  0  0  0  0  0  0  0  0  0
   -3.4221   31.1010   -3.7274 H   0  0  0  0  0  0  0  0  0  0  0  0
   -2.7828   30.3179   -5.2687 H   0  0  0  0  0  0  0  0  0  0  0  0
   -2.4454   31.6370   -6.9259 H   0  0  0  0  0  0  0  0  0  0  0  0
   -1.1735   32.7967   -7.9357 H   0  0  0  0  0  0  0  0  0  0  0  0
   -1.8482   32.1340   -9.4629 H   0  0  0  0  0  0  0  0  0  0  0  0
   -1.0254   33.7307   -9.4629 H   0  0  0  0  0  0  0  0  0  0  0  0
   -7.1738   35.1290   -8.0955 H   0  0  0  0  0  0  0  0  0  0  0  0
   -6.3273   36.0914   -9.3540 H   0  0  0  0  0  0  0  0  0  0  0  0
   -6.1965   34.2998   -9.3540 H   0  0  0  0  0  0  0  0  0  0  0  0
   -7.3829   35.1683   -6.4952 H   0  0  0  0  0  0  0  0  0  0  0  0
   -6.5264   34.8363   -3.5218 H   0  0  0  0  0  0  0  0  0  0  0  0
   -8.3325   35.1493    0.0769 H   0  0  0  0  0  0  0  0  0  0  0  0
  -10.3179   37.5069   -3.6896 H   0  0  0  0  0  0  0  0  0  0  0  0
  -11.6925   34.7905   -3.0171 H   0  0  0  0  0  0  0  0  0  0  0  0
  -12.6604   38.2480   -5.1615 H   0  0  0  0  0  0  0  0  0  0  0  0
  -11.9652   36.7488   -5.8657 H   0  0  0  0  0  0  0  0  0  0  0  0
  -13.7438   37.0002   -5.8657 H   0  0  0  0  0  0  0  0  0  0  0  0
   -9.4055   36.9802    1.6457 H   0  0  0  0  0  0  0  0  0  0  0  0
  -10.8537   38.9569    1.9759 H   0  0  0  0  0  0  0  0  0  0  0  0
  -12.1361   39.9308    0.0266 H   0  0  0  0  0  0  0  0  0  0  0  0
  -11.9364   38.8826   -2.2724 H   0  0  0  0  0  0  0  0  0  0  0  0
   -5.7882   32.5091   -4.2940 H   0  0  0  0  0  0  0  0  0  0  0  0
   -7.6886   26.1726   -3.2331 H   0  0  0  0  0  0  0  0  0  0  0  0
   -7.8251   26.0158   -5.0049 H   0  0  0  0  0  0  0  0  0  0  0  0
  -14.0655   36.2158   -2.2572 H   0  0  0  0  0  0  0  0  0  0  0  0
  -14.9477   36.9186   -3.6552 H   0  0  0  0  0  0  0  0  0  0  0  0
  -14.5060   35.1775   -3.6552 H   0  0  0  0  0  0  0  0  0  0  0  0
   -5.7053   31.3311   -6.5454 H   0  0  0  0  0  0  0  0  0  0  0  0
   -6.3642   29.9034   -7.4847 H   0  0  0  0  0  0  0  0  0  0  0  0
   -8.0829   31.0553   -5.2530 H   0  0  0  0  0  0  0  0  0  0  0  0
   -7.9780   31.9700   -6.7955 H   0  0  0  0  0  0  0  0  0  0  0  0
   -8.5699   30.2740   -6.7955 H   0  0  0  0  0  0  0  0  0  0  0  0
  2  1  1  0
  2 36  2  0
  3  2  1  0
  4  3  1  0
  5  4  1  0
  5 31  1  0
  6  5  2  0
  7  6  1  0
  7 10  2  0
  8  7  1  0
  9  8  1  0
 10 13  1  0
 11 10  1  0
 12 11  1  0
 13 14  1  0
 13 31  2  0
 14 15  2  0
 15 16  1  0
 16 17  1  0
 17 20  1  0
 17 18  1  0
 18 19  2  0
 19 25  1  0
 20 24  1  0
 21 20  1  0
 22 21  2  0
 22 37  1  0
 23 22  1  0
 24 29  1  0
 24 25  2  0
 25 26  1  0
 26 27  2  0
 28 27  1  0
 29 28  2  0
 30 16  2  0
 32  3  2  0
 32 33  1  0
 33 34  2  0
 34 35  1  0
 34 36  1  0
 38 32  1  0
 38 39  1  0
  1 40  1  0
  1 41  1  0
  4 42  1  0
  4 43  1  0
  6 44  1  0
  9 45  1  0
  9 46  1  0
  9 47  1  0
 12 48  1  0
 12 49  1  0
 12 50  1  0
 14 51  1  0
 15 52  1  0
 19 53  1  0
 20 54  1  0
 21 55  1  0
 23 56  1  0
 23 57  1  0
 23 58  1  0
 26 59  1  0
 27 60  1  0
 28 61  1  0
 29 62  1  0
 31 63  1  0
 35 64  1  0
 35 65  1  0
 37 66  1  0
 37 67  1  0
 37 68  1  0
 38 69  1  0
 38 70  1  0
 39 71  1  0
 39 72  1  0
 39 73  1  0
A    1
N01
A    2
C02
A    3
C03
A    4
C04
A    5
C05
A    6
C06
A    7
C07
A    8
O08
A    9
C09
A   10
C10
A   11
O11
A   12
C12
A   13
C13
A   14
C14
A   15
C15
A   16
C16
A   17
N17
A   18
N18
A   19
C19
A   20
C20
A   21
C21
A   22
C22
A   23
C23
A   24
C24
A   25
C25
A   26
C26
A   27
C27
A   28
C28
A   29
C29
A   30
O30
A   31
C31
A   32
C32
A   33
N33
A   34
C34
A   35
N35
A   36
N36
A   37
C37
A   38
C38
A   39
C39
M  END
