4FHH_0U3_A_501
     RDKit          3D

 72 73  0  0  0  0  0  0  0  0999 V2000
    2.4420   37.4690   37.5710 C   0  0  0  0  0  0  0  0  0  0  0  0
    1.5220   38.5270   37.8510 C   0  0  0  0  0  0  0  0  0  0  0  0
    0.1520   38.2090   38.4600 C   0  0  0  0  0  0  0  0  0  0  0  0
   -0.1620   36.8480   38.7340 C   0  0  0  0  0  0  0  0  0  0  0  0
    0.7720   35.7310   38.4550 C   0  0  0  0  0  0  0  0  0  0  0  0
    2.0770   36.1060   37.8660 C   0  0  0  0  0  0  0  0  0  0  0  0
    0.3310   34.2240   38.8030 C   0  0  0  0  0  0  0  0  0  0  0  0
    0.8590   32.9690   37.9550 C   0  0  0  0  0  0  0  0  0  0  0  0
   -1.2950   34.0020   38.7560 C   0  0  0  0  0  0  0  0  0  0  0  0
    0.7250   34.0950   40.3900 C   0  0  0  0  0  0  0  0  0  0  0  0
    2.2050   34.2430   40.9270 C   0  0  0  0  0  0  0  0  0  0  0  0
   -2.1550   34.0500   37.4330 C   0  0  0  0  0  0  0  0  0  0  0  0
    1.1940   31.6450   38.6000 C   0  0  0  0  0  0  0  0  0  0  0  0
    1.6460   30.5300   37.8420 C   0  0  0  0  0  0  0  0  0  0  0  0
    1.7740   30.7340   36.3080 C   0  0  0  0  0  0  0  0  0  0  0  0
    1.9770   29.2150   38.5190 C   0  0  0  0  0  0  0  0  0  0  0  0
    1.4410   32.0410   35.7270 C   0  0  0  0  0  0  0  0  0  0  0  0
    1.0130   33.0830   36.5090 C   0  0  0  0  0  0  0  0  0  0  0  0
    1.8540   39.7890   37.5830 O   0  0  0  0  0  0  0  0  0  0  0  0
    4.9900   42.0940   36.6310 O   0  0  0  0  0  0  0  0  0  0  0  0
    2.4610   40.4630   38.7050 C   0  0  0  0  0  0  0  0  0  0  0  0
    3.5280   41.4430   38.2240 C   0  0  0  0  0  0  0  0  0  0  0  0
    4.0330   41.2050   37.0390 N   0  0  0  0  0  0  0  0  0  0  0  0
    3.8990   42.3960   38.9000 O   0  0  0  0  0  0  0  0  0  0  0  0
    4.6560   29.5660   32.5910 C   0  0  0  0  0  0  0  0  0  0  0  0
    4.7700   28.1320   32.0150 C   0  0  0  0  0  0  0  0  0  0  0  0
    3.6030   30.2140   31.6080 C   0  0  0  0  0  0  0  0  0  0  0  0
    5.9990   30.1910   32.4830 C   0  0  0  0  0  0  0  0  0  0  0  0
    3.1260   30.1730   34.4570 C   0  0  0  0  0  0  0  0  0  0  0  0
    2.2490   29.5330   35.4950 O   0  0  0  0  0  0  0  0  0  0  0  0
    4.4440   29.5550   34.1310 C   0  0  0  0  0  0  0  0  0  0  0  0
    4.4090   28.2680   34.7550 O   0  0  0  0  0  0  0  0  0  0  0  0
   -0.9240   39.2520   38.8070 C   0  0  0  0  0  0  0  0  0  0  0  0
    3.4251   37.6943   37.1319 H   0  0  0  0  0  0  0  0  0  0  0  0
   -1.1431   36.6142   39.1731 H   0  0  0  0  0  0  0  0  0  0  0  0
    2.8012   35.3085   37.6433 H   0  0  0  0  0  0  0  0  0  0  0  0
   -1.7202   34.7724   39.4161 H   0  0  0  0  0  0  0  0  0  0  0  0
   -1.3678   32.9351   39.0139 H   0  0  0  0  0  0  0  0  0  0  0  0
    0.1356   34.8635   40.9115 H   0  0  0  0  0  0  0  0  0  0  0  0
    0.5293   33.0291   40.5783 H   0  0  0  0  0  0  0  0  0  0  0  0
    2.1977   34.2423   42.0270 H   0  0  0  0  0  0  0  0  0  0  0  0
    2.8128   33.4012   40.5638 H   0  0  0  0  0  0  0  0  0  0  0  0
    2.6340   35.1885   40.5638 H   0  0  0  0  0  0  0  0  0  0  0  0
   -3.2225   34.1096   37.6916 H   0  0  0  0  0  0  0  0  0  0  0  0
   -1.8708   34.9337   36.8428 H   0  0  0  0  0  0  0  0  0  0  0  0
   -1.9709   33.1402   36.8428 H   0  0  0  0  0  0  0  0  0  0  0  0
    1.0850   31.5400   39.6895 H   0  0  0  0  0  0  0  0  0  0  0  0
    1.9440   29.3461   39.6107 H   0  0  0  0  0  0  0  0  0  0  0  0
    1.2426   28.4530   38.2188 H   0  0  0  0  0  0  0  0  0  0  0  0
    2.9846   28.8915   38.2188 H   0  0  0  0  0  0  0  0  0  0  0  0
    1.5370   32.1873   34.6410 H   0  0  0  0  0  0  0  0  0  0  0  0
    0.7764   34.0429   36.0267 H   0  0  0  0  0  0  0  0  0  0  0  0
    5.4247   42.4978   37.4235 H   0  0  0  0  0  0  0  0  0  0  0  0
    1.6866   41.0137   39.2591 H   0  0  0  0  0  0  0  0  0  0  0  0
    2.9330   39.7142   39.3580 H   0  0  0  0  0  0  0  0  0  0  0  0
    3.7326   40.4091   36.4584 H   0  0  0  0  0  0  0  0  0  0  0  0
    4.8275   27.4084   32.8415 H   0  0  0  0  0  0  0  0  0  0  0  0
    3.8864   27.9136   31.3973 H   0  0  0  0  0  0  0  0  0  0  0  0
    5.6770   28.0560   31.3973 H   0  0  0  0  0  0  0  0  0  0  0  0
    2.8089   30.7027   32.1916 H   0  0  0  0  0  0  0  0  0  0  0  0
    4.1041   30.9602   30.9739 H   0  0  0  0  0  0  0  0  0  0  0  0
    3.1627   29.4304   30.9739 H   0  0  0  0  0  0  0  0  0  0  0  0
    6.3989   30.3771   33.4907 H   0  0  0  0  0  0  0  0  0  0  0  0
    6.6753   29.5151   31.9392 H   0  0  0  0  0  0  0  0  0  0  0  0
    5.9174   31.1437   31.9392 H   0  0  0  0  0  0  0  0  0  0  0  0
    3.3285   31.1994   34.7970 H   0  0  0  0  0  0  0  0  0  0  0  0
    2.5500   30.0626   33.5264 H   0  0  0  0  0  0  0  0  0  0  0  0
    5.3209   30.0984   34.5128 H   0  0  0  0  0  0  0  0  0  0  0  0
    4.4120   28.3781   35.7389 H   0  0  0  0  0  0  0  0  0  0  0  0
   -1.0125   39.3378   39.9001 H   0  0  0  0  0  0  0  0  0  0  0  0
   -0.6394   40.2269   38.3845 H   0  0  0  0  0  0  0  0  0  0  0  0
   -1.8896   38.9371   38.3845 H   0  0  0  0  0  0  0  0  0  0  0  0
 27 25  1  0
 26 25  1  0
 28 25  1  0
 25 31  1  0
 31 29  1  0
 31 32  1  0
 29 30  1  0
 30 15  1  0
 17 15  2  0
 17 18  1  0
 15 14  1  0
 18  8  2  0
 20 23  1  0
 23 22  1  0
 12  9  1  0
  1  2  2  0
  1  6  1  0
 19  2  1  0
 19 21  1  0
 14 16  1  0
 14 13  2  0
  2  3  1  0
  6  5  2  0
  8 13  1  0
  8  7  1  0
 22 21  1  0
 22 24  2  0
  5  4  1  0
  5  7  1  0
  3  4  2  0
  3 33  1  0
  9  7  1  0
  7 10  1  0
 10 11  1  0
  1 34  1  0
  4 35  1  0
  6 36  1  0
  9 37  1  0
  9 38  1  0
 10 39  1  0
 10 40  1  0
 11 41  1  0
 11 42  1  0
 11 43  1  0
 12 44  1  0
 12 45  1  0
 12 46  1  0
 13 47  1  0
 16 48  1  0
 16 49  1  0
 16 50  1  0
 17 51  1  0
 18 52  1  0
 20 53  1  0
 21 54  1  0
 21 55  1  0
 23 56  1  0
 26 57  1  0
 26 58  1  0
 26 59  1  0
 27 60  1  0
 27 61  1  0
 27 62  1  0
 28 63  1  0
 28 64  1  0
 28 65  1  0
 29 66  1  0
 29 67  1  0
 31 68  1  0
 32 69  1  0
 33 70  1  0
 33 71  1  0
 33 72  1  0
A    1
C1
A    2
C2
A    3
C3
A    4
C4
A    5
C5
A    6
C6
A    7
C7
A    8
C8
A    9
C9
A   10
C10
A   11
C11
A   12
C12
A   13
C13
A   14
C14
A   15
C15
A   16
C16
A   17
C17
A   18
C18
A   19
O19
A   20
O22
A   21
C20
A   22
C21
A   23
N23
A   24
O24
A   25
C25
A   26
C26
A   27
C27
A   28
C28
A   29
C29
A   30
O30
A   31
C31
A   32
O32
A   33
C33
M  END
