3C4D_325_A_1
     RDKit          3D

 47 50  0  0  0  0  0  0  0  0999 V2000
   -2.0960   50.0560   22.0240 O   0  0  0  0  0  0  0  0  0  0  0  0
   -1.7040   50.5340   20.9870 C   0  0  0  0  0  0  0  0  0  0  0  0
   -0.2460   50.7880   20.8790 C   0  0  0  0  0  0  0  0  0  0  0  0
    0.6670   49.6820   20.6460 C   0  0  0  0  0  0  0  0  0  0  0  0
    0.1060   48.4930   20.5540 F   0  0  0  0  0  0  0  0  0  0  0  0
    2.1260   49.9210   20.5100 C   0  0  0  0  0  0  0  0  0  0  0  0
    2.9980   48.9060   20.2880 N   0  0  0  0  0  0  0  0  0  0  0  0
    4.5880   49.0890   20.0810 S   0  0  0  0  0  0  0  0  0  0  0  0
    4.6590   49.9890   18.6610 C   0  0  0  0  0  0  0  0  0  0  0  0
    5.0710   49.1910   17.4370 C   0  0  0  0  0  0  0  0  0  0  0  0
    5.3510   47.8840   19.9340 O   0  0  0  0  0  0  0  0  0  0  0  0
    5.1830   49.6800   21.2400 O   0  0  0  0  0  0  0  0  0  0  0  0
    2.5830   51.2330   20.6220 C   0  0  0  0  0  0  0  0  0  0  0  0
    1.7140   52.2950   20.8430 C   0  0  0  0  0  0  0  0  0  0  0  0
    0.3570   52.1210   20.9740 C   0  0  0  0  0  0  0  0  0  0  0  0
   -0.3530   53.1970   21.1970 F   0  0  0  0  0  0  0  0  0  0  0  0
   -2.5650   50.8760   19.7980 C   0  0  0  0  0  0  0  0  0  0  0  0
   -4.0090   50.7160   19.6120 C   0  0  0  0  0  0  0  0  0  0  0  0
   -5.0690   50.1870   20.4180 C   0  0  0  0  0  0  0  0  0  0  0  0
   -4.2780   51.2060   18.2980 C   0  0  0  0  0  0  0  0  0  0  0  0
   -3.1880   51.6410   17.7040 N   0  0  0  0  0  0  0  0  0  0  0  0
   -2.1710   51.4260   18.5760 C   0  0  0  0  0  0  0  0  0  0  0  0
   -5.6030   51.1880   17.7980 N   0  0  0  0  0  0  0  0  0  0  0  0
   -6.5700   50.7050   18.5710 C   0  0  0  0  0  0  0  0  0  0  0  0
   -6.3710   50.2040   19.8630 C   0  0  0  0  0  0  0  0  0  0  0  0
   -7.5940   49.6670   20.5710 C   0  0  0  0  0  0  0  0  0  0  0  0
   -8.8130   50.3510   20.6080 C   0  0  0  0  0  0  0  0  0  0  0  0
   -9.9050   49.8380   21.2350 N   0  0  0  0  0  0  0  0  0  0  0  0
   -9.8760   48.6350   21.8260 C   0  0  0  0  0  0  0  0  0  0  0  0
   -8.6860   47.8980   21.8030 C   0  0  0  0  0  0  0  0  0  0  0  0
   -7.5590   48.4060   21.1600 C   0  0  0  0  0  0  0  0  0  0  0  0
    2.6180   47.9495   20.2487 H   0  0  0  0  0  0  0  0  0  0  0  0
    3.6632   50.4173   18.4742 H   0  0  0  0  0  0  0  0  0  0  0  0
    5.4323   50.7566   18.8122 H   0  0  0  0  0  0  0  0  0  0  0  0
    5.5541   48.2553   17.7549 H   0  0  0  0  0  0  0  0  0  0  0  0
    4.1807   48.9577   16.8346 H   0  0  0  0  0  0  0  0  0  0  0  0
    5.7768   49.7818   16.8346 H   0  0  0  0  0  0  0  0  0  0  0  0
    3.6609   51.4334   20.5331 H   0  0  0  0  0  0  0  0  0  0  0  0
    2.1274   53.3118   20.9157 H   0  0  0  0  0  0  0  0  0  0  0  0
   -4.8792   49.7852   21.4242 H   0  0  0  0  0  0  0  0  0  0  0  0
   -3.1202   52.0604   16.7657 H   0  0  0  0  0  0  0  0  0  0  0  0
   -1.1235   51.6649   18.3402 H   0  0  0  0  0  0  0  0  0  0  0  0
   -7.5940   50.6984   18.1693 H   0  0  0  0  0  0  0  0  0  0  0  0
   -8.8907   51.3318   20.1160 H   0  0  0  0  0  0  0  0  0  0  0  0
  -10.7726   48.2336   22.3209 H   0  0  0  0  0  0  0  0  0  0  0  0
   -8.6405   46.9148   22.2941 H   0  0  0  0  0  0  0  0  0  0  0  0
   -6.6370   47.8076   21.1176 H   0  0  0  0  0  0  0  0  0  0  0  0
  1  2  2  0
  2  3  1  0
  2 17  1  0
  3  4  2  0
  3 15  1  0
  4  5  1  0
  4  6  1  0
  6  7  1  0
  6 13  2  0
  7  8  1  0
  8  9  1  0
  8 11  2  0
  8 12  2  0
  9 10  1  0
 13 14  1  0
 14 15  2  0
 15 16  1  0
 17 18  1  0
 17 22  2  0
 18 19  2  0
 18 20  1  0
 19 25  1  0
 20 21  1  0
 20 23  2  0
 21 22  1  0
 23 24  1  0
 24 25  2  0
 25 26  1  0
 26 27  2  0
 26 31  1  0
 27 28  1  0
 28 29  2  0
 29 30  1  0
 30 31  2  0
  7 32  1  0
  9 33  1  0
  9 34  1  0
 10 35  1  0
 10 36  1  0
 10 37  1  0
 13 38  1  0
 14 39  1  0
 19 40  1  0
 21 41  1  0
 22 42  1  0
 24 43  1  0
 27 44  1  0
 29 45  1  0
 30 46  1  0
 31 47  1  0
A    1
O30
A    2
C16
A    3
C17
A    4
C22
A    5
F28
A    6
C21
A    7
N23
A    8
S24
A    9
C26
A   10
C31
A   11
O27
A   12
O25
A   13
C20
A   14
C19
A   15
C18
A   16
F29
A   17
C13
A   18
C11
A   19
C12
A   20
C10
A   21
N15
A   22
C14
A   23
N9
A   24
C8
A   25
C7
A   26
C6
A   27
C5
A   28
N4
A   29
C3
A   30
C2
A   31
C1
M  END
