4FKJ_11K_A_301
     RDKit          3D

 52 55  0  0  0  0  0  0  0  0999 V2000
    0.6590   -3.6170  -28.8130 N   0  0  0  0  0  0  0  0  0  0  0  0
    1.7340   -4.1290  -29.2170 N   0  0  0  0  0  0  0  0  0  0  0  0
    2.9370   -6.1200  -29.0170 N   0  0  0  0  0  0  0  0  0  0  0  0
    4.7460  -14.3330  -34.0550 N   0  0  0  0  0  0  0  0  0  0  0  0
    2.4890   -7.9310  -27.6810 O   0  0  0  0  0  0  0  0  0  0  0  0
    4.8000   -8.6040  -31.1320 C   0  0  0  0  0  0  0  0  0  0  0  0
    4.4180  -10.2420  -29.4010 C   0  0  0  0  0  0  0  0  0  0  0  0
    4.7660   -9.5920  -32.1120 C   0  0  0  0  0  0  0  0  0  0  0  0
    4.4030  -11.2370  -30.3790 C   0  0  0  0  0  0  0  0  0  0  0  0
    0.7140   -5.6790  -28.0560 C   0  0  0  0  0  0  0  0  0  0  0  0
    5.6360  -15.6790  -35.7810 C   0  0  0  0  0  0  0  0  0  0  0  0
    6.8050  -15.1460  -34.9410 C   0  0  0  0  0  0  0  0  0  0  0  0
    3.6880  -12.9860  -32.2370 C   0  0  0  0  0  0  0  0  0  0  0  0
   -1.7420   -4.6020  -26.0740 C   0  0  0  0  0  0  0  0  0  0  0  0
   -2.4500   -5.2220  -27.2830 C   0  0  0  0  0  0  0  0  0  0  0  0
    4.4050  -15.4920  -34.8920 C   0  0  0  0  0  0  0  0  0  0  0  0
    6.1500  -14.5670  -33.6810 C   0  0  0  0  0  0  0  0  0  0  0  0
    3.9310  -14.3900  -32.8240 C   0  0  0  0  0  0  0  0  0  0  0  0
    4.6390   -7.8410  -28.7200 C   0  0  0  0  0  0  0  0  0  0  0  0
    4.5690  -11.8990  -32.6790 O   0  0  0  0  0  0  0  0  0  0  0  0
    3.2320   -7.3030  -28.4360 C   0  0  0  0  0  0  0  0  0  0  0  0
    4.6000   -8.9190  -29.7890 C   0  0  0  0  0  0  0  0  0  0  0  0
    4.5800  -10.9190  -31.7280 C   0  0  0  0  0  0  0  0  0  0  0  0
    1.7990   -5.4040  -28.8240 C   0  0  0  0  0  0  0  0  0  0  0  0
   -0.0170   -4.5470  -28.1180 C   0  0  0  0  0  0  0  0  0  0  0  0
   -1.3820   -4.1580  -27.5120 C   0  0  0  0  0  0  0  0  0  0  0  0
    0.3495   -2.6498  -28.9854 H   0  0  0  0  0  0  0  0  0  0  0  0
    3.6361   -5.7263  -29.6629 H   0  0  0  0  0  0  0  0  0  0  0  0
    4.9874   -7.5595  -31.4216 H   0  0  0  0  0  0  0  0  0  0  0  0
    4.2879  -10.5000  -28.3396 H   0  0  0  0  0  0  0  0  0  0  0  0
    4.8842   -9.3294  -33.1737 H   0  0  0  0  0  0  0  0  0  0  0  0
    4.2498  -12.2856  -30.0841 H   0  0  0  0  0  0  0  0  0  0  0  0
    0.4848   -6.6067  -27.5112 H   0  0  0  0  0  0  0  0  0  0  0  0
    5.5332  -15.1034  -36.7127 H   0  0  0  0  0  0  0  0  0  0  0  0
    5.7803  -16.7282  -36.0783 H   0  0  0  0  0  0  0  0  0  0  0  0
    7.4967  -15.9602  -34.6789 H   0  0  0  0  0  0  0  0  0  0  0  0
    7.3976  -14.3947  -35.4836 H   0  0  0  0  0  0  0  0  0  0  0  0
    2.6575  -12.6975  -32.4916 H   0  0  0  0  0  0  0  0  0  0  0  0
    3.8982  -13.0942  -31.1627 H   0  0  0  0  0  0  0  0  0  0  0  0
   -1.0292   -5.1989  -25.4861 H   0  0  0  0  0  0  0  0  0  0  0  0
   -2.0665   -4.0900  -25.1561 H   0  0  0  0  0  0  0  0  0  0  0  0
   -2.2491   -6.2679  -27.5584 H   0  0  0  0  0  0  0  0  0  0  0  0
   -3.5006   -5.3405  -27.5865 H   0  0  0  0  0  0  0  0  0  0  0  0
    4.2304  -16.3841  -34.2727 H   0  0  0  0  0  0  0  0  0  0  0  0
    3.4825  -15.3399  -35.4715 H   0  0  0  0  0  0  0  0  0  0  0  0
    6.6355  -13.6233  -33.3917 H   0  0  0  0  0  0  0  0  0  0  0  0
    6.2407  -15.2448  -32.8194 H   0  0  0  0  0  0  0  0  0  0  0  0
    2.9604  -14.8509  -33.0598 H   0  0  0  0  0  0  0  0  0  0  0  0
    4.4780  -14.9844  -32.0773 H   0  0  0  0  0  0  0  0  0  0  0  0
    5.0560   -8.2657  -27.7949 H   0  0  0  0  0  0  0  0  0  0  0  0
    5.2670   -7.0122  -29.0786 H   0  0  0  0  0  0  0  0  0  0  0  0
   -1.3443   -3.1969  -28.0457 H   0  0  0  0  0  0  0  0  0  0  0  0
  2  1  1  0
  1 25  1  0
  2 24  2  0
  3 24  1  0
  3 21  1  0
 16  4  1  0
  4 17  1  0
  4 18  1  0
 21  5  2  0
  8  6  2  0
  6 22  1  0
  9  7  1  0
 22  7  2  0
  8 23  1  0
 23  9  2  0
 24 10  1  0
 25 10  2  0
 11 12  1  0
 11 16  1  0
 12 17  1  0
 18 13  1  0
 20 13  1  0
 26 14  1  0
 15 14  1  0
 26 15  1  0
 22 19  1  0
 19 21  1  0
 20 23  1  0
 25 26  1  0
  1 27  1  0
  3 28  1  0
  6 29  1  0
  7 30  1  0
  8 31  1  0
  9 32  1  0
 10 33  1  0
 11 34  1  0
 11 35  1  0
 12 36  1  0
 12 37  1  0
 13 38  1  0
 13 39  1  0
 14 40  1  0
 14 41  1  0
 15 42  1  0
 15 43  1  0
 16 44  1  0
 16 45  1  0
 17 46  1  0
 17 47  1  0
 18 48  1  0
 18 49  1  0
 19 50  1  0
 19 51  1  0
 26 52  1  0
A    1
N1
A    2
N2
A    3
N3
A    4
N4
A    5
OAA
A    6
CAB
A    7
CAC
A    8
CAD
A    9
CAE
A   10
CAF
A   11
CAG
A   12
CAH
A   13
CAI
A   14
CAJ
A   15
CAK
A   16
CAL
A   17
CAM
A   18
CAN
A   19
CAO
A   20
OAS
A   21
CAT
A   22
CAU
A   23
CAV
A   24
CAW
A   25
CAX
A   26
CAY
M  END
