4FKW_62K_A_301
     RDKit          3D

 49 51  0  0  0  0  0  0  0  0999 V2000
  -11.9350   -9.8030  -11.6780 N   0  0  0  0  0  0  0  0  0  0  0  0
   -6.7440  -10.2850   -7.4560 S   0  0  0  0  0  0  0  0  0  0  0  0
  -10.8710  -10.4720  -11.6620 N   0  0  0  0  0  0  0  0  0  0  0  0
   -7.2360   -9.4050   -6.1950 N   0  0  0  0  0  0  0  0  0  0  0  0
  -13.4880   -9.9870  -14.8450 N   0  0  0  0  0  0  0  0  0  0  0  0
  -14.4850   -4.7840   -8.4640 C   0  0  0  0  0  0  0  0  0  0  0  0
  -15.6400   -6.8310   -7.5790 C   0  0  0  0  0  0  0  0  0  0  0  0
  -17.6110   -6.0230  -11.9340 O   0  0  0  0  0  0  0  0  0  0  0  0
  -11.6420  -11.1770  -14.2000 O   0  0  0  0  0  0  0  0  0  0  0  0
   -6.3540  -11.6550   -7.0260 O   0  0  0  0  0  0  0  0  0  0  0  0
   -5.5760   -9.6530   -8.0970 O   0  0  0  0  0  0  0  0  0  0  0  0
   -8.9860  -11.4370  -10.5970 C   0  0  0  0  0  0  0  0  0  0  0  0
   -9.9420   -9.4000   -9.7330 C   0  0  0  0  0  0  0  0  0  0  0  0
   -8.0090  -11.4120   -9.5840 C   0  0  0  0  0  0  0  0  0  0  0  0
   -8.9790   -9.3630   -8.7220 C   0  0  0  0  0  0  0  0  0  0  0  0
  -16.1680   -7.5730  -13.8790 C   0  0  0  0  0  0  0  0  0  0  0  0
  -15.4810   -8.4760  -14.7030 C   0  0  0  0  0  0  0  0  0  0  0  0
  -14.5860   -8.0490  -12.0730 C   0  0  0  0  0  0  0  0  0  0  0  0
  -16.7370   -5.4960   -9.4090 C   0  0  0  0  0  0  0  0  0  0  0  0
  -16.0060   -6.3210  -10.3630 O   0  0  0  0  0  0  0  0  0  0  0  0
  -16.5210   -6.4910  -11.6040 C   0  0  0  0  0  0  0  0  0  0  0  0
   -9.9920  -10.4790  -10.6390 C   0  0  0  0  0  0  0  0  0  0  0  0
  -15.7360   -7.4000  -12.5530 C   0  0  0  0  0  0  0  0  0  0  0  0
   -8.0090  -10.3660   -8.6550 C   0  0  0  0  0  0  0  0  0  0  0  0
  -12.5690  -10.3970  -13.9600 C   0  0  0  0  0  0  0  0  0  0  0  0
  -12.7610   -9.7480  -12.7440 C   0  0  0  0  0  0  0  0  0  0  0  0
  -14.3260   -9.1240  -14.2290 C   0  0  0  0  0  0  0  0  0  0  0  0
  -13.8750   -8.9130  -12.9240 C   0  0  0  0  0  0  0  0  0  0  0  0
  -15.8540   -5.4330   -8.1520 C   0  0  0  0  0  0  0  0  0  0  0  0
  -10.6561  -11.0534  -12.4846 H   0  0  0  0  0  0  0  0  0  0  0  0
   -6.9705   -9.8799   -5.3204 H   0  0  0  0  0  0  0  0  0  0  0  0
   -6.7916   -8.4764   -6.2300 H   0  0  0  0  0  0  0  0  0  0  0  0
  -13.5460  -10.2807  -15.8305 H   0  0  0  0  0  0  0  0  0  0  0  0
  -13.9715   -4.5406   -7.5222 H   0  0  0  0  0  0  0  0  0  0  0  0
  -13.8703   -5.4865   -9.0458 H   0  0  0  0  0  0  0  0  0  0  0  0
  -14.6397   -3.8634   -9.0458 H   0  0  0  0  0  0  0  0  0  0  0  0
  -15.6475   -6.7820   -6.4801 H   0  0  0  0  0  0  0  0  0  0  0  0
  -16.4469   -7.4953   -7.9219 H   0  0  0  0  0  0  0  0  0  0  0  0
  -14.6713   -7.2235   -7.9219 H   0  0  0  0  0  0  0  0  0  0  0  0
   -8.9529  -12.2242  -11.3646 H   0  0  0  0  0  0  0  0  0  0  0  0
  -10.6686   -8.5791   -9.8232 H   0  0  0  0  0  0  0  0  0  0  0  0
   -7.2521  -12.2079   -9.5234 H   0  0  0  0  0  0  0  0  0  0  0  0
   -8.9844   -8.5486   -7.9826 H   0  0  0  0  0  0  0  0  0  0  0  0
  -17.0306   -7.0095  -14.2641 H   0  0  0  0  0  0  0  0  0  0  0  0
  -15.8456   -8.6778  -15.7210 H   0  0  0  0  0  0  0  0  0  0  0  0
  -14.2450   -7.8825  -11.0405 H   0  0  0  0  0  0  0  0  0  0  0  0
  -16.8959   -4.4870   -9.8172 H   0  0  0  0  0  0  0  0  0  0  0  0
  -17.7299   -5.9143   -9.1874 H   0  0  0  0  0  0  0  0  0  0  0  0
  -16.3749   -4.8120   -7.4083 H   0  0  0  0  0  0  0  0  0  0  0  0
 26  1  2  0
  1  3  1  0
 24  2  1  0
 11  2  2  0
  2 10  2  0
  2  4  1  0
  3 22  1  0
  5 27  1  0
  5 25  1  0
  6 29  1  0
 29  7  1  0
  8 21  2  0
  9 25  2  0
 22 12  2  0
 12 14  1  0
 22 13  1  0
 13 15  2  0
 14 24  2  0
 15 24  1  0
 17 16  1  0
 16 23  2  0
 17 27  2  0
 28 18  2  0
 23 18  1  0
 20 19  1  0
 19 29  1  0
 21 20  1  0
 23 21  1  0
 25 26  1  0
 28 26  1  0
 27 28  1  0
  3 30  1  0
  4 31  1  0
  4 32  1  0
  5 33  1  0
  6 34  1  0
  6 35  1  0
  6 36  1  0
  7 37  1  0
  7 38  1  0
  7 39  1  0
 12 40  1  0
 13 41  1  0
 14 42  1  0
 15 43  1  0
 16 44  1  0
 17 45  1  0
 18 46  1  0
 19 47  1  0
 19 48  1  0
 29 49  1  0
A    1
N1
A    2
S1
A    3
N2
A    4
N3
A    5
N5
A    6
CAA
A    7
CAB
A    8
OAD
A    9
OAE
A   10
OAF
A   11
OAG
A   12
CAH
A   13
CAI
A   14
CAJ
A   15
CAK
A   16
CAL
A   17
CAM
A   18
CAN
A   19
CAO
A   20
OAS
A   21
CAT
A   22
CAU
A   23
CAV
A   24
CAW
A   25
CAX
A   26
CAY
A   27
CAZ
A   28
CBA
A   29
CBB
M  END
