3EV5_TMO_A_905
     RDKit          3D

 14 13  0  0  0  0  0  0  0  0999 V2000
  -81.4120   -3.0860    6.2680 C   0  0  0  0  0  0  0  0  0  0  0  0
  -80.4850   -3.2900    5.1470 N   0  0  0  0  0  0  0  0  0  0  0  0
  -79.2720   -3.9640    5.6310 C   0  0  0  0  0  0  0  0  0  0  0  0
  -81.1320   -4.1240    4.1220 C   0  0  0  0  0  0  0  0  0  0  0  0
  -80.1300   -1.9970    4.5690 O   0  0  0  0  0  0  0  0  0  0  0  0
  -80.8704   -3.2052    7.2180 H   0  0  0  0  0  0  0  0  0  0  0  0
  -81.8369   -2.0729    6.2127 H   0  0  0  0  0  0  0  0  0  0  0  0
  -82.2229   -3.8272    6.2127 H   0  0  0  0  0  0  0  0  0  0  0  0
  -79.2679   -3.9663    6.7310 H   0  0  0  0  0  0  0  0  0  0  0  0
  -79.2563   -5.0002    5.2621 H   0  0  0  0  0  0  0  0  0  0  0  0
  -78.3839   -3.4300    5.2621 H   0  0  0  0  0  0  0  0  0  0  0  0
  -81.7361   -4.9027    4.6106 H   0  0  0  0  0  0  0  0  0  0  0  0
  -81.7815   -3.4959    3.4946 H   0  0  0  0  0  0  0  0  0  0  0  0
  -80.3622   -4.5969    3.4946 H   0  0  0  0  0  0  0  0  0  0  0  0
  1  2  1  0
  2  3  1  0
  2  4  1  0
  2  5  1  0
  1  6  1  0
  1  7  1  0
  1  8  1  0
  3  9  1  0
  3 10  1  0
  3 11  1  0
  4 12  1  0
  4 13  1  0
  4 14  1  0
M  CHG  2   2   1   5  -1
A    1
CAA
A    2
NAC
A    3
CAD
A    4
CAB
A    5
OAE
M  END
