4FM7_0UP_A_501
     RDKit          3D

 65 68  0  0  0  0  0  0  0  0999 V2000
   26.9070   36.8440   45.1420 C   0  0  0  0  0  0  0  0  0  0  0  0
   26.0280   38.5330   41.2850 C   0  0  0  0  0  0  0  0  0  0  0  0
   25.6480   36.2860   45.0580 C   0  0  0  0  0  0  0  0  0  0  0  0
   27.2880   38.6560   41.8310 C   0  0  0  0  0  0  0  0  0  0  0  0
   27.0400   38.2020   45.3200 C   0  0  0  0  0  0  0  0  0  0  0  0
   26.3790   36.2050   40.9090 C   0  0  0  0  0  0  0  0  0  0  0  0
   24.6450   38.4260   45.4100 C   0  0  0  0  0  0  0  0  0  0  0  0
   25.5550   37.3150   40.8480 C   0  0  0  0  0  0  0  0  0  0  0  0
   24.5190   37.0720   45.1610 C   0  0  0  0  0  0  0  0  0  0  0  0
   28.0910   37.5390   41.8990 C   0  0  0  0  0  0  0  0  0  0  0  0
   27.6460   36.3250   41.4120 C   0  0  0  0  0  0  0  0  0  0  0  0
   25.9100   38.9830   45.4520 C   0  0  0  0  0  0  0  0  0  0  0  0
   22.3450   35.3040   43.1560 C   0  0  0  0  0  0  0  0  0  0  0  0
   21.9140   37.7160   43.4530 C   0  0  0  0  0  0  0  0  0  0  0  0
   20.8880   36.1120   44.9670 C   0  0  0  0  0  0  0  0  0  0  0  0
   23.4550   35.5890   42.1630 C   0  0  0  0  0  0  0  0  0  0  0  0
   22.9520   37.9970   42.3860 C   0  0  0  0  0  0  0  0  0  0  0  0
   22.1490   36.4110   44.1600 C   0  0  0  0  0  0  0  0  0  0  0  0
   22.4430   39.1720   41.5810 C   0  0  0  0  0  0  0  0  0  0  0  0
   28.5170   34.2740   39.2890 C   0  0  0  0  0  0  0  0  0  0  0  0
   29.0570   32.9920   41.3310 C   0  0  0  0  0  0  0  0  0  0  0  0
   20.2170   35.0950   47.1330 C   0  0  0  0  0  0  0  0  0  0  0  0
   24.1540   37.1500   40.3330 C   0  0  0  0  0  0  0  0  0  0  0  0
   28.1920   34.0990   40.7610 C   0  0  0  0  0  0  0  0  0  0  0  0
   23.2460   36.4180   45.1710 N   0  0  0  0  0  0  0  0  0  0  0  0
   21.2770   35.2710   46.1150 N   0  0  0  0  0  0  0  0  0  0  0  0
   23.1560   36.8480   41.4360 N   0  0  0  0  0  0  0  0  0  0  0  0
   23.6490   34.5040   46.8140 O   0  0  0  0  0  0  0  0  0  0  0  0
   22.7190   36.6490   47.7190 O   0  0  0  0  0  0  0  0  0  0  0  0
   29.3830   37.5960   42.4020 O   0  0  0  0  0  0  0  0  0  0  0  0
   28.5390   35.2700   41.5190 O   0  0  0  0  0  0  0  0  0  0  0  0
   26.0540   40.3110   45.6380 F   0  0  0  0  0  0  0  0  0  0  0  0
   22.8200   35.6820   46.6560 S   0  0  0  0  0  0  0  0  0  0  0  0
   27.8002   36.2064   45.0670 H   0  0  0  0  0  0  0  0  0  0  0  0
   25.3886   39.4237   41.1966 H   0  0  0  0  0  0  0  0  0  0  0  0
   25.5432   35.2015   44.9071 H   0  0  0  0  0  0  0  0  0  0  0  0
   27.6449   39.6270   42.2049 H   0  0  0  0  0  0  0  0  0  0  0  0
   28.0389   38.6612   45.3568 H   0  0  0  0  0  0  0  0  0  0  0  0
   26.0166   35.2289   40.5542 H   0  0  0  0  0  0  0  0  0  0  0  0
   23.7537   39.0500   45.5720 H   0  0  0  0  0  0  0  0  0  0  0  0
   21.4058   35.1653   42.6004 H   0  0  0  0  0  0  0  0  0  0  0  0
   22.6305   34.4012   43.7158 H   0  0  0  0  0  0  0  0  0  0  0  0
   21.9424   38.5282   44.1943 H   0  0  0  0  0  0  0  0  0  0  0  0
   20.9346   37.6535   42.9561 H   0  0  0  0  0  0  0  0  0  0  0  0
   20.4414   37.0512   45.3253 H   0  0  0  0  0  0  0  0  0  0  0  0
   20.1464   35.5917   44.3430 H   0  0  0  0  0  0  0  0  0  0  0  0
   23.5268   34.7589   41.4448 H   0  0  0  0  0  0  0  0  0  0  0  0
   24.4097   35.6928   42.6994 H   0  0  0  0  0  0  0  0  0  0  0  0
   23.9144   38.1840   42.8847 H   0  0  0  0  0  0  0  0  0  0  0  0
   22.1002   39.9633   42.2639 H   0  0  0  0  0  0  0  0  0  0  0  0
   23.2535   39.5606   40.9468 H   0  0  0  0  0  0  0  0  0  0  0  0
   21.6052   38.8466   40.9468 H   0  0  0  0  0  0  0  0  0  0  0  0
   29.4812   34.7932   39.1856 H   0  0  0  0  0  0  0  0  0  0  0  0
   28.5785   33.2870   38.8072 H   0  0  0  0  0  0  0  0  0  0  0  0
   27.7269   34.8686   38.8072 H   0  0  0  0  0  0  0  0  0  0  0  0
   29.0261   33.0315   42.4299 H   0  0  0  0  0  0  0  0  0  0  0  0
   28.6785   32.0177   40.9884 H   0  0  0  0  0  0  0  0  0  0  0  0
   30.0939   33.1237   40.9884 H   0  0  0  0  0  0  0  0  0  0  0  0
   20.6581   35.1682   48.1380 H   0  0  0  0  0  0  0  0  0  0  0  0
   19.4555   35.8790   47.0087 H   0  0  0  0  0  0  0  0  0  0  0  0
   19.7497   34.1070   47.0087 H   0  0  0  0  0  0  0  0  0  0  0  0
   23.8520   38.0807   39.8303 H   0  0  0  0  0  0  0  0  0  0  0  0
   24.1530   36.2950   39.6410 H   0  0  0  0  0  0  0  0  0  0  0  0
   27.1145   33.8892   40.8310 H   0  0  0  0  0  0  0  0  0  0  0  0
   29.5334   37.6026   43.3805 H   0  0  0  0  0  0  0  0  0  0  0  0
 20 24  1  0
 23  8  1  0
 23 27  1  0
 24 21  1  0
 24 31  1  0
  8  6  1  0
  8  2  2  0
  6 11  2  0
  2  4  1  0
 11 31  1  0
 11 10  1  0
 27 16  1  0
 27 17  1  0
 19 17  1  0
  4 10  2  0
 10 30  1  0
 16 13  1  0
 17 14  1  0
 13 18  1  0
 14 18  1  0
 18 15  1  0
 18 25  1  0
 15 26  1  0
  3  1  2  0
  3  9  1  0
  1  5  1  0
  9 25  1  0
  9  7  2  0
 25 33  1  0
  5 12  2  0
  7 12  1  0
 12 32  1  0
 26 33  1  0
 26 22  1  0
 33 28  2  0
 33 29  2  0
  1 34  1  0
  2 35  1  0
  3 36  1  0
  4 37  1  0
  5 38  1  0
  6 39  1  0
  7 40  1  0
 13 41  1  0
 13 42  1  0
 14 43  1  0
 14 44  1  0
 15 45  1  0
 15 46  1  0
 16 47  1  0
 16 48  1  0
 17 49  1  0
 19 50  1  0
 19 51  1  0
 19 52  1  0
 20 53  1  0
 20 54  1  0
 20 55  1  0
 21 56  1  0
 21 57  1  0
 21 58  1  0
 22 59  1  0
 22 60  1  0
 22 61  1  0
 23 62  1  0
 23 63  1  0
 24 64  1  0
 30 65  1  0
A    1
C1
A    2
C2
A    3
C3
A    4
C4
A    5
C5
A    6
C6
A    7
C7
A    8
C8
A    9
C9
A   10
C10
A   11
C11
A   12
C12
A   13
C13
A   14
C14
A   15
C15
A   16
C16
A   17
C17
A   18
C18
A   19
C19
A   20
C20
A   21
C21
A   22
C22
A   23
C23
A   24
C24
A   25
N25
A   26
N26
A   27
N27
A   28
O28
A   29
O29
A   30
O30
A   31
O31
A   32
F32
A   33
S33
M  END
