1B02_UFP_A_280
     RDKit          3D

 33 34  0  0  0  0  0  0  0  0999 V2000
   -5.9030   48.0480    8.0110 N   0  0  0  0  0  0  0  0  0  0  0  0
   -5.1300   46.8760    8.1950 C   0  0  0  0  0  0  0  0  0  0  0  0
   -3.7590   46.8270    7.7860 N   0  0  0  0  0  0  0  0  0  0  0  0
   -3.0640   47.8500    7.0310 C   0  0  0  0  0  0  0  0  0  0  0  0
   -3.9120   49.0970    6.3660 C   0  0  0  0  0  0  0  0  0  0  0  0
   -5.1350   49.3790    7.4860 C   0  0  0  0  0  0  0  0  0  0  0  0
   -5.6230   45.7740    8.4600 O   0  0  0  0  0  0  0  0  0  0  0  0
   -1.8260   47.9050    6.9790 O   0  0  0  0  0  0  0  0  0  0  0  0
   -3.2030   50.1800    6.0920 F   0  0  0  0  0  0  0  0  0  0  0  0
   -7.3790   48.1240    8.2780 C   0  0  0  0  0  0  0  0  0  0  0  0
   -7.8380   48.0460    9.7210 C   0  0  0  0  0  0  0  0  0  0  0  0
   -9.1780   48.7540    9.5530 C   0  0  0  0  0  0  0  0  0  0  0  0
   -9.0120   49.7790    8.4730 C   0  0  0  0  0  0  0  0  0  0  0  0
  -10.1540   47.7990    9.1830 O   0  0  0  0  0  0  0  0  0  0  0  0
   -7.9610   49.2920    7.6490 O   0  0  0  0  0  0  0  0  0  0  0  0
   -8.6620   51.2510    8.7970 C   0  0  0  0  0  0  0  0  0  0  0  0
   -9.8110   51.8170    9.5040 O   0  0  0  0  0  0  0  0  0  0  0  0
   -9.5960   52.4620   10.9290 P   0  0  0  0  0  0  0  0  0  0  0  0
   -8.7220   53.6330   10.7430 O   0  0  0  0  0  0  0  0  0  0  0  0
   -9.1760   51.4290   11.8500 O   0  0  0  0  0  0  0  0  0  0  0  0
  -11.1140   52.7660   11.2780 O   0  0  0  0  0  0  0  0  0  0  0  0
   -3.2191   45.9911    8.0518 H   0  0  0  0  0  0  0  0  0  0  0  0
   -5.3949   50.3888    7.8363 H   0  0  0  0  0  0  0  0  0  0  0  0
   -7.7479   47.1906    7.8277 H   0  0  0  0  0  0  0  0  0  0  0  0
   -7.9550   47.0081   10.0660 H   0  0  0  0  0  0  0  0  0  0  0  0
   -7.1552   48.4741   10.4697 H   0  0  0  0  0  0  0  0  0  0  0  0
   -9.4986   49.2408   10.4859 H   0  0  0  0  0  0  0  0  0  0  0  0
  -10.0263   49.8685    8.0569 H   0  0  0  0  0  0  0  0  0  0  0  0
  -10.5561   47.4055    9.9976 H   0  0  0  0  0  0  0  0  0  0  0  0
   -7.7667   51.2951    9.4346 H   0  0  0  0  0  0  0  0  0  0  0  0
   -8.4491   51.8159    7.8775 H   0  0  0  0  0  0  0  0  0  0  0  0
   -9.3040   51.7439   12.7798 H   0  0  0  0  0  0  0  0  0  0  0  0
  -11.2284   52.7889   12.2611 H   0  0  0  0  0  0  0  0  0  0  0  0
  1  2  1  0
  1  6  1  0
  1 10  1  0
  2  3  1  0
  2  7  2  0
  3  4  1  0
  4  5  1  0
  4  8  2  0
  5  6  2  0
  5  9  1  0
 10 11  1  0
 10 15  1  0
 11 12  1  0
 12 13  1  0
 12 14  1  0
 13 15  1  0
 13 16  1  0
 16 17  1  0
 17 18  1  0
 18 19  2  0
 18 20  1  0
 18 21  1  0
  3 22  1  0
  6 23  1  0
 10 24  1  0
 11 25  1  0
 11 26  1  0
 12 27  1  0
 13 28  1  0
 14 29  1  0
 16 30  1  0
 16 31  1  0
 20 32  1  0
 21 33  1  0
A    1
N1
A    2
C2
A    3
N3
A    4
C4
A    5
C5
A    6
C6
A    7
O2
A    8
O4
A    9
F5
A   10
C1'
A   11
C2'
A   12
C3'
A   13
C4'
A   14
O3'
A   15
O4'
A   16
C5'
A   17
O5'
A   18
P
A   19
O1P
A   20
O2P
A   21
O3P
M  END
