4FOC_0UU_A_1501
     RDKit          3D

 69 73  0  0  0  0  0  0  0  0999 V2000
   16.8190   12.0180    9.6340 C   0  0  0  0  0  0  0  0  0  0  0  0
   17.2510   10.9690    8.7260 O   0  0  0  0  0  0  0  0  0  0  0  0
   17.6060   11.3970    7.4700 C   0  0  0  0  0  0  0  0  0  0  0  0
   17.7600   12.5930    7.2240 O   0  0  0  0  0  0  0  0  0  0  0  0
   17.8310   10.3520    6.3690 C   0  0  0  0  0  0  0  0  0  0  0  0
   18.3630    9.0650    7.0150 C   0  0  0  0  0  0  0  0  0  0  0  0
   19.7980    9.2080    7.5170 C   0  0  0  0  0  0  0  0  0  0  0  0
   18.8310   10.8690    5.3210 C   0  0  0  0  0  0  0  0  0  0  0  0
   20.2490   11.0010    5.8700 C   0  0  0  0  0  0  0  0  0  0  0  0
   20.7310    9.6470    6.3830 C   0  0  0  0  0  0  0  0  0  0  0  0
   22.1010    9.6300    6.9200 N   0  0  0  0  0  0  0  0  0  0  0  0
   22.9680    8.6500    6.6480 C   0  0  0  0  0  0  0  0  0  0  0  0
   22.8950    7.4980    5.8480 C   0  0  0  0  0  0  0  0  0  0  0  0
   24.0050    6.6560    5.7520 C   0  0  0  0  0  0  0  0  0  0  0  0
   23.9400    5.3820    4.8780 C   0  0  0  0  0  0  0  0  0  0  0  0
   24.6400    5.5450    3.5930 N   0  0  0  0  0  0  0  0  0  0  0  0
   24.0380    6.5960    2.7660 C   0  0  0  0  0  0  0  0  0  0  0  0
   24.9460    6.8330    1.5480 C   0  0  0  0  0  0  0  0  0  0  0  0
   25.1460    5.5440    0.7330 C   0  0  0  0  0  0  0  0  0  0  0  0
   25.4420    4.3240    1.6140 C   0  0  0  0  0  0  0  0  0  0  0  0
   24.5250    4.2770    2.8440 C   0  0  0  0  0  0  0  0  0  0  0  0
   25.1620    6.9600    6.4590 C   0  0  0  0  0  0  0  0  0  0  0  0
   25.2240    8.0980    7.2730 C   0  0  0  0  0  0  0  0  0  0  0  0
   24.1240    8.9480    7.3530 C   0  0  0  0  0  0  0  0  0  0  0  0
   23.9200   10.0900    8.0330 N   0  0  0  0  0  0  0  0  0  0  0  0
   22.6820   10.4940    7.7570 C   0  0  0  0  0  0  0  0  0  0  0  0
   22.1060   11.5800    8.2920 N   0  0  0  0  0  0  0  0  0  0  0  0
   22.7520   12.3760    9.1550 C   0  0  0  0  0  0  0  0  0  0  0  0
   23.9220   12.2560    9.5220 O   0  0  0  0  0  0  0  0  0  0  0  0
   21.8790   13.4670    9.7910 C   0  0  0  0  0  0  0  0  0  0  0  0
   20.5450   13.6390    9.4170 C   0  0  0  0  0  0  0  0  0  0  0  0
   19.7510   14.6380   10.0050 C   0  0  0  0  0  0  0  0  0  0  0  0
   20.3180   15.4340   11.0000 C   0  0  0  0  0  0  0  0  0  0  0  0
   21.6460   15.2380   11.3840 C   0  0  0  0  0  0  0  0  0  0  0  0
   22.4290   14.2660   10.7920 C   0  0  0  0  0  0  0  0  0  0  0  0
   16.9568   11.6835   10.6728 H   0  0  0  0  0  0  0  0  0  0  0  0
   17.4171   12.9243    9.4583 H   0  0  0  0  0  0  0  0  0  0  0  0
   15.7561   12.2403    9.4583 H   0  0  0  0  0  0  0  0  0  0  0  0
   16.8783   10.1516    5.8570 H   0  0  0  0  0  0  0  0  0  0  0  0
   17.7165    8.8051    7.8662 H   0  0  0  0  0  0  0  0  0  0  0  0
   18.3568    8.2793    6.2451 H   0  0  0  0  0  0  0  0  0  0  0  0
   20.1403    8.2397    7.9110 H   0  0  0  0  0  0  0  0  0  0  0  0
   19.8201    9.9728    8.3073 H   0  0  0  0  0  0  0  0  0  0  0  0
   18.4957   11.8571    4.9729 H   0  0  0  0  0  0  0  0  0  0  0  0
   18.8604   10.1356    4.5017 H   0  0  0  0  0  0  0  0  0  0  0  0
   20.9196   11.3487    5.0704 H   0  0  0  0  0  0  0  0  0  0  0  0
   20.2529   11.7260    6.6973 H   0  0  0  0  0  0  0  0  0  0  0  0
   20.7237    8.9777    5.5101 H   0  0  0  0  0  0  0  0  0  0  0  0
   21.9705    7.2607    5.3012 H   0  0  0  0  0  0  0  0  0  0  0  0
   22.8847    5.1449    4.6775 H   0  0  0  0  0  0  0  0  0  0  0  0
   24.4381    4.5714    5.4301 H   0  0  0  0  0  0  0  0  0  0  0  0
   23.9499    7.5239    3.3501 H   0  0  0  0  0  0  0  0  0  0  0  0
   23.0344    6.2897    2.4360 H   0  0  0  0  0  0  0  0  0  0  0  0
   25.9259    7.1905    1.8972 H   0  0  0  0  0  0  0  0  0  0  0  0
   24.4645    7.5796    0.8993 H   0  0  0  0  0  0  0  0  0  0  0  0
   24.2303    5.3472    0.1562 H   0  0  0  0  0  0  0  0  0  0  0  0
   26.0158    5.6981    0.0775 H   0  0  0  0  0  0  0  0  0  0  0  0
   25.2899    3.4103    1.0207 H   0  0  0  0  0  0  0  0  0  0  0  0
   26.4822    4.3977    1.9640 H   0  0  0  0  0  0  0  0  0  0  0  0
   23.4834    4.1360    2.5196 H   0  0  0  0  0  0  0  0  0  0  0  0
   24.8238    3.4400    3.4922 H   0  0  0  0  0  0  0  0  0  0  0  0
   26.0383    6.3000    6.3785 H   0  0  0  0  0  0  0  0  0  0  0  0
   26.1366    8.3191    7.8459 H   0  0  0  0  0  0  0  0  0  0  0  0
   21.1363   11.8098    8.0315 H   0  0  0  0  0  0  0  0  0  0  0  0
   20.1087   12.9822    8.6500 H   0  0  0  0  0  0  0  0  0  0  0  0
   18.7083   14.7885    9.6885 H   0  0  0  0  0  0  0  0  0  0  0  0
   19.7173   16.2184   11.4836 H   0  0  0  0  0  0  0  0  0  0  0  0
   22.0775   15.8704   12.1739 H   0  0  0  0  0  0  0  0  0  0  0  0
   23.4735   14.1243   11.1066 H   0  0  0  0  0  0  0  0  0  0  0  0
 19 18  1  0
 19 20  1  0
 18 17  1  0
 20 21  1  0
 17 16  1  0
 21 16  1  0
 16 15  1  0
 15 14  1  0
  8  9  1  0
  8  5  1  0
 14 13  2  0
 14 22  1  0
 13 12  1  0
  9 10  1  0
  5  6  1  0
  5  3  1  0
 10 11  1  0
 10  7  1  0
 22 23  2  0
 12 11  1  0
 12 24  2  0
 11 26  1  0
  6  7  1  0
  4  3  2  0
 23 24  1  0
 24 25  1  0
  3  2  1  0
 26 25  2  0
 26 27  1  0
 27 28  1  0
  2  1  1  0
 28 29  2  0
 28 30  1  0
 31 30  2  0
 31 32  1  0
 30 35  1  0
 32 33  2  0
 35 34  2  0
 33 34  1  0
  1 36  1  0
  1 37  1  0
  1 38  1  0
  5 39  1  0
  6 40  1  0
  6 41  1  0
  7 42  1  0
  7 43  1  0
  8 44  1  0
  8 45  1  0
  9 46  1  0
  9 47  1  0
 10 48  1  0
 13 49  1  0
 15 50  1  0
 15 51  1  0
 17 52  1  0
 17 53  1  0
 18 54  1  0
 18 55  1  0
 19 56  1  0
 19 57  1  0
 20 58  1  0
 20 59  1  0
 21 60  1  0
 21 61  1  0
 22 62  1  0
 23 63  1  0
 27 64  1  0
 31 65  1  0
 32 66  1  0
 33 67  1  0
 34 68  1  0
 35 69  1  0
A    1
C28
A    2
O2
A    3
C27
A    4
O3
A    5
C15
A    6
C16
A    7
C17
A    8
C14
A    9
C13
A   10
C12
A   11
N2
A   12
C3
A   13
C5
A   14
C6
A   15
C18
A   16
N3
A   17
C7
A   18
C8
A   19
C9
A   20
C10
A   21
C11
A   22
C4
A   23
C2
A   24
C1
A   25
N1
A   26
C19
A   27
N4
A   28
C20
A   29
O1
A   30
C21
A   31
C22
A   32
C23
A   33
C24
A   34
C25
A   35
C26
M  END
