4FOD_0UV_A_1501
     RDKit          3D

 86 90  0  0  0  0  0  0  0  0999 V2000
   14.6190   11.9760    9.0930 C   0  0  0  0  0  0  0  0  0  0  0  0
   16.1270   11.8150    9.3280 C   0  0  0  0  0  0  0  0  0  0  0  0
   16.4060   11.3540   10.7510 C   0  0  0  0  0  0  0  0  0  0  0  0
   16.6650   10.8250    8.3620 N   0  0  0  0  0  0  0  0  0  0  0  0
   17.5280   11.1660    7.4000 C   0  0  0  0  0  0  0  0  0  0  0  0
   17.9350   12.3100    7.2210 O   0  0  0  0  0  0  0  0  0  0  0  0
   17.9770   10.0200    6.4760 C   0  0  0  0  0  0  0  0  0  0  0  0
   19.0060   10.5160    5.4330 C   0  0  0  0  0  0  0  0  0  0  0  0
   20.4390   10.6480    5.9780 C   0  0  0  0  0  0  0  0  0  0  0  0
   18.5120    8.8580    7.3200 C   0  0  0  0  0  0  0  0  0  0  0  0
   19.9360    9.1120    7.8310 C   0  0  0  0  0  0  0  0  0  0  0  0
   20.8910    9.3650    6.6600 C   0  0  0  0  0  0  0  0  0  0  0  0
   22.2830    9.4600    7.1760 N   0  0  0  0  0  0  0  0  0  0  0  0
   23.2470    8.5550    6.9690 C   0  0  0  0  0  0  0  0  0  0  0  0
   23.3000    7.3460    6.2640 C   0  0  0  0  0  0  0  0  0  0  0  0
   24.4800    6.6020    6.2280 C   0  0  0  0  0  0  0  0  0  0  0  0
   24.5480    5.2730    5.4500 C   0  0  0  0  0  0  0  0  0  0  0  0
   24.4330    4.1140    6.3520 N   0  0  0  0  0  0  0  0  0  0  0  0
   25.4840    4.1440    7.3870 C   0  0  0  0  0  0  0  0  0  0  0  0
   25.3250    2.9490    8.3330 C   0  0  0  0  0  0  0  0  0  0  0  0
   24.5460    2.8760    5.5510 C   0  0  0  0  0  0  0  0  0  0  0  0
   24.4130    1.6290    6.4330 C   0  0  0  0  0  0  0  0  0  0  0  0
   25.4480    1.6410    7.5540 C   0  0  0  0  0  0  0  0  0  0  0  0
   25.3060    0.4140    8.4560 C   0  0  0  0  0  0  0  0  0  0  0  0
   23.9010    0.3630    9.0590 C   0  0  0  0  0  0  0  0  0  0  0  0
   26.3400    0.4670    9.5700 C   0  0  0  0  0  0  0  0  0  0  0  0
   25.5440   -0.7500    7.6370 O   0  0  0  0  0  0  0  0  0  0  0  0
   25.6080    7.0740    6.8950 C   0  0  0  0  0  0  0  0  0  0  0  0
   25.5500    8.2800    7.5920 C   0  0  0  0  0  0  0  0  0  0  0  0
   24.3720    9.0220    7.6370 C   0  0  0  0  0  0  0  0  0  0  0  0
   24.0540   10.1890    8.2260 N   0  0  0  0  0  0  0  0  0  0  0  0
   22.7810   10.4460    7.9250 C   0  0  0  0  0  0  0  0  0  0  0  0
   22.1000   11.5010    8.3620 N   0  0  0  0  0  0  0  0  0  0  0  0
   22.6930   12.3480    9.2130 C   0  0  0  0  0  0  0  0  0  0  0  0
   23.8690   12.2670    9.5720 O   0  0  0  0  0  0  0  0  0  0  0  0
   21.7920   13.4450    9.7610 C   0  0  0  0  0  0  0  0  0  0  0  0
   20.4870   13.5880    9.2990 C   0  0  0  0  0  0  0  0  0  0  0  0
   19.6770   14.5830    9.8330 C   0  0  0  0  0  0  0  0  0  0  0  0
   20.1670   15.4150   10.8300 C   0  0  0  0  0  0  0  0  0  0  0  0
   19.3870   16.3740   11.3570 F   0  0  0  0  0  0  0  0  0  0  0  0
   21.4630   15.2630   11.2980 C   0  0  0  0  0  0  0  0  0  0  0  0
   22.2730   14.2700   10.7710 C   0  0  0  0  0  0  0  0  0  0  0  0
   14.1008   12.0313   10.0617 H   0  0  0  0  0  0  0  0  0  0  0  0
   14.4330   12.8991    8.5244 H   0  0  0  0  0  0  0  0  0  0  0  0
   14.2423   11.1130    8.5244 H   0  0  0  0  0  0  0  0  0  0  0  0
   16.6183   12.7881    9.1804 H   0  0  0  0  0  0  0  0  0  0  0  0
   15.9711   12.0727   11.4612 H   0  0  0  0  0  0  0  0  0  0  0  0
   15.9559   10.3630   10.9103 H   0  0  0  0  0  0  0  0  0  0  0  0
   17.4927   11.2931   10.9103 H   0  0  0  0  0  0  0  0  0  0  0  0
   16.3634    9.8429    8.4353 H   0  0  0  0  0  0  0  0  0  0  0  0
   17.1117    9.6523    5.9050 H   0  0  0  0  0  0  0  0  0  0  0  0
   18.6821   11.5027    5.0703 H   0  0  0  0  0  0  0  0  0  0  0  0
   19.0385    9.7597    4.6349 H   0  0  0  0  0  0  0  0  0  0  0  0
   21.1207   10.8698    5.1437 H   0  0  0  0  0  0  0  0  0  0  0  0
   20.4551   11.4600    6.7198 H   0  0  0  0  0  0  0  0  0  0  0  0
   17.8471    8.7141    8.1844 H   0  0  0  0  0  0  0  0  0  0  0  0
   18.5405    7.9642    6.6795 H   0  0  0  0  0  0  0  0  0  0  0  0
   20.2802    8.2325    8.3949 H   0  0  0  0  0  0  0  0  0  0  0  0
   19.9271   10.0000    8.4801 H   0  0  0  0  0  0  0  0  0  0  0  0
   20.8740    8.5449    5.9271 H   0  0  0  0  0  0  0  0  0  0  0  0
   22.4068    6.9810    5.7359 H   0  0  0  0  0  0  0  0  0  0  0  0
   23.7242    5.2424    4.7216 H   0  0  0  0  0  0  0  0  0  0  0  0
   25.5219    5.2198    4.9414 H   0  0  0  0  0  0  0  0  0  0  0  0
   26.4714    4.0973    6.9044 H   0  0  0  0  0  0  0  0  0  0  0  0
   25.3939    5.0755    7.9650 H   0  0  0  0  0  0  0  0  0  0  0  0
   26.1091    2.9884    9.1035 H   0  0  0  0  0  0  0  0  0  0  0  0
   24.3326    2.9941    8.8053 H   0  0  0  0  0  0  0  0  0  0  0  0
   23.7491    2.8655    4.7928 H   0  0  0  0  0  0  0  0  0  0  0  0
   25.5369    2.8601    5.0736 H   0  0  0  0  0  0  0  0  0  0  0  0
   23.4054    1.6055    6.8736 H   0  0  0  0  0  0  0  0  0  0  0  0
   24.5810    0.7385    5.8095 H   0  0  0  0  0  0  0  0  0  0  0  0
   26.4578    1.5861    7.1212 H   0  0  0  0  0  0  0  0  0  0  0  0
   23.9728    0.3656   10.1567 H   0  0  0  0  0  0  0  0  0  0  0  0
   23.3274    1.2409    8.7270 H   0  0  0  0  0  0  0  0  0  0  0  0
   23.3926   -0.5542    8.7270 H   0  0  0  0  0  0  0  0  0  0  0  0
   25.8306    0.4409   10.5446 H   0  0  0  0  0  0  0  0  0  0  0  0
   27.0146   -0.3977    9.4856 H   0  0  0  0  0  0  0  0  0  0  0  0
   26.9226    1.3962    9.4856 H   0  0  0  0  0  0  0  0  0  0  0  0
   25.7045   -1.5352    8.2182 H   0  0  0  0  0  0  0  0  0  0  0  0
   26.5435    6.4959    6.8718 H   0  0  0  0  0  0  0  0  0  0  0  0
   26.4454    8.6501    8.1128 H   0  0  0  0  0  0  0  0  0  0  0  0
   24.6769   10.7738    8.8012 H   0  0  0  0  0  0  0  0  0  0  0  0
   20.0996   12.9184    8.5170 H   0  0  0  0  0  0  0  0  0  0  0  0
   18.6481   14.7111    9.4657 H   0  0  0  0  0  0  0  0  0  0  0  0
   21.8471   15.9285   12.0851 H   0  0  0  0  0  0  0  0  0  0  0  0
   23.2961   14.1346   11.1517 H   0  0  0  0  0  0  0  0  0  0  0  0
  8  9  1  0
  8  7  1  0
 17 16  1  0
 17 18  1  0
 21 18  1  0
 21 22  1  0
  9 12  1  0
 16 15  2  0
 16 28  1  0
 15 14  1  0
 18 19  1  0
 22 23  1  0
  7 10  1  0
  7  5  1  0
 12 13  1  0
 12 11  1  0
 28 29  2  0
 14 13  1  0
 14 30  2  0
 13 32  1  0
  6  5  2  0
 10 11  1  0
 19 20  1  0
  5  4  1  0
 23 20  1  0
 23 24  1  0
 29 30  1  0
 30 31  1  0
 27 24  1  0
 32 31  1  0
 32 33  2  0
  4  2  1  0
 33 34  1  0
 24 25  1  0
 24 26  1  0
  1  2  1  0
 34 35  2  0
 34 36  1  0
 37 36  2  0
 37 38  1  0
  2  3  1  0
 36 42  1  0
 38 39  2  0
 42 41  2  0
 39 41  1  0
 39 40  1  0
  1 43  1  0
  1 44  1  0
  1 45  1  0
  2 46  1  0
  3 47  1  0
  3 48  1  0
  3 49  1  0
  4 50  1  0
  7 51  1  0
  8 52  1  0
  8 53  1  0
  9 54  1  0
  9 55  1  0
 10 56  1  0
 10 57  1  0
 11 58  1  0
 11 59  1  0
 12 60  1  0
 15 61  1  0
 17 62  1  0
 17 63  1  0
 19 64  1  0
 19 65  1  0
 20 66  1  0
 20 67  1  0
 21 68  1  0
 21 69  1  0
 22 70  1  0
 22 71  1  0
 23 72  1  0
 25 73  1  0
 25 74  1  0
 25 75  1  0
 26 76  1  0
 26 77  1  0
 26 78  1  0
 27 79  1  0
 28 80  1  0
 29 81  1  0
 31 82  1  0
 37 83  1  0
 38 84  1  0
 41 85  1  0
 42 86  1  0
A    1
C24
A    2
C23
A    3
C25
A    4
N5
A    5
C22
A    6
O2
A    7
C19
A    8
C20
A    9
C21
A   10
C18
A   11
C17
A   12
C16
A   13
N1
A   14
C4
A   15
C3
A   16
C2
A   17
C15
A   18
N4
A   19
C30
A   20
C29
A   21
C26
A   22
C27
A   23
C28
A   24
C31
A   25
C32
A   26
C33
A   27
O3
A   28
C1
A   29
C6
A   30
C5
A   31
N2
A   32
C7
A   33
N3
A   34
C8
A   35
O1
A   36
C9
A   37
C10
A   38
C11
A   39
C12
A   40
F1
A   41
C13
A   42
C14
M  END
