1CQE_FLP_A_1650
     RDKit          3D

 31 32  0  0  0  0  0  0  0  0999 V2000
   26.5930   37.4520  204.8850 C   0  0  0  0  0  0  0  0  0  0  0  0
   26.8680   36.8160  206.1230 C   0  0  0  0  0  0  0  0  0  0  0  0
   26.3510   35.5540  206.3960 C   0  0  0  0  0  0  0  0  0  0  0  0
   25.5580   34.9190  205.4630 C   0  0  0  0  0  0  0  0  0  0  0  0
   25.2860   35.4990  204.2820 C   0  0  0  0  0  0  0  0  0  0  0  0
   25.7840   36.7670  203.9680 C   0  0  0  0  0  0  0  0  0  0  0  0
   26.7030   34.9000  207.6130 C   0  0  0  0  0  0  0  0  0  0  0  0
   28.0470   34.8390  208.0340 C   0  0  0  0  0  0  0  0  0  0  0  0
   28.3870   34.1790  209.2420 C   0  0  0  0  0  0  0  0  0  0  0  0
   27.4150   33.5920  210.0270 C   0  0  0  0  0  0  0  0  0  0  0  0
   26.1140   33.6500  209.6430 C   0  0  0  0  0  0  0  0  0  0  0  0
   25.7280   34.2870  208.4610 C   0  0  0  0  0  0  0  0  0  0  0  0
   27.7120   32.8970  211.3730 C   0  0  0  0  0  0  0  0  0  0  0  0
   28.9600   33.4470  212.1140 C   0  0  0  0  0  0  0  0  0  0  0  0
   27.7420   31.4000  211.2210 C   0  0  0  0  0  0  0  0  0  0  0  0
   26.7570   30.7870  211.6650 O   0  0  0  0  0  0  0  0  0  0  0  0
   28.6790   30.8490  210.5580 O   0  0  0  0  0  0  0  0  0  0  0  0
   24.4250   34.2780  208.1970 F   0  0  0  0  0  0  0  0  0  0  0  0
   27.0002   38.4472  204.6531 H   0  0  0  0  0  0  0  0  0  0  0  0
   27.4939   37.3240  206.8715 H   0  0  0  0  0  0  0  0  0  0  0  0
   25.1432   33.9255  205.6886 H   0  0  0  0  0  0  0  0  0  0  0  0
   24.6608   34.9671  203.5497 H   0  0  0  0  0  0  0  0  0  0  0  0
   25.5405   37.2280  202.9994 H   0  0  0  0  0  0  0  0  0  0  0  0
   28.8345   35.3049  207.4234 H   0  0  0  0  0  0  0  0  0  0  0  0
   29.4397   34.1341  209.5579 H   0  0  0  0  0  0  0  0  0  0  0  0
   25.3456   33.1844  210.2776 H   0  0  0  0  0  0  0  0  0  0  0  0
   26.8699   33.1505  212.0337 H   0  0  0  0  0  0  0  0  0  0  0  0
   28.8017   33.3773  213.2003 H   0  0  0  0  0  0  0  0  0  0  0  0
   29.8436   32.8549  211.8334 H   0  0  0  0  0  0  0  0  0  0  0  0
   29.1192   34.4986  211.8334 H   0  0  0  0  0  0  0  0  0  0  0  0
   29.4281   30.4085  211.0322 H   0  0  0  0  0  0  0  0  0  0  0  0
  1  2  2  0
  1  6  1  0
  2  3  1  0
  3  4  2  0
  3  7  1  0
  4  5  1  0
  5  6  2  0
  7  8  2  0
  7 12  1  0
  8  9  1  0
  9 10  2  0
 10 11  1  0
 10 13  1  0
 11 12  2  0
 12 18  1  0
 13 14  1  0
 13 15  1  0
 15 16  2  0
 15 17  1  0
  1 19  1  0
  2 20  1  0
  4 21  1  0
  5 22  1  0
  6 23  1  0
  8 24  1  0
  9 25  1  0
 11 26  1  0
 13 27  1  0
 14 28  1  0
 14 29  1  0
 14 30  1  0
 17 31  1  0
A    1
C
A    2
C1
A    3
C2
A    4
C3
A    5
C4
A    6
C5
A    7
C6
A    8
C7
A    9
C8
A   10
C9
A   11
C10
A   12
C11
A   13
C12
A   14
C13
A   15
C14
A   16
O
A   17
O1
A   18
F
M  END
