4FQO_AZ3_A_103
     RDKit          3D

 55 56  0  0  0  0  0  0  0  0999 V2000
   14.8020    4.8010   25.7680 N   0  0  0  0  0  0  0  0  0  0  0  0
   13.9230    4.8990   24.8670 C   0  0  0  0  0  0  0  0  0  0  0  0
   14.2340    4.6250   23.5920 N   0  0  0  0  0  0  0  0  0  0  0  0
   12.5170    5.3300   25.2070 C   0  0  0  0  0  0  0  0  0  0  0  0
   11.7230    5.9250   24.2220 C   0  0  0  0  0  0  0  0  0  0  0  0
   10.4230    6.3290   24.5120 C   0  0  0  0  0  0  0  0  0  0  0  0
   12.0000    5.1300   26.4890 C   0  0  0  0  0  0  0  0  0  0  0  0
   10.6940    5.5290   26.7760 C   0  0  0  0  0  0  0  0  0  0  0  0
    9.9040    6.1300   25.7930 C   0  0  0  0  0  0  0  0  0  0  0  0
    8.6260    6.5100   26.1360 O   0  0  0  0  0  0  0  0  0  0  0  0
    7.6980    7.1580   25.2630 C   0  0  0  0  0  0  0  0  0  0  0  0
    7.1920    6.1800   24.2070 C   0  0  0  0  0  0  0  0  0  0  0  0
    5.8340    5.5770   24.5330 C   0  0  0  0  0  0  0  0  0  0  0  0
    5.6980    4.2160   23.8530 C   0  0  0  0  0  0  0  0  0  0  0  0
    4.5340    3.4130   24.4230 C   0  0  0  0  0  0  0  0  0  0  0  0
    3.6620    2.8320   23.3050 C   0  0  0  0  0  0  0  0  0  0  0  0
    3.3560    1.3260   23.3960 C   0  0  0  0  0  0  0  0  0  0  0  0
    3.7370    0.8490   24.6790 O   0  0  0  0  0  0  0  0  0  0  0  0
    3.3620   -0.3550   25.2340 C   0  0  0  0  0  0  0  0  0  0  0  0
    2.0760   -0.9330   25.1240 C   0  0  0  0  0  0  0  0  0  0  0  0
    1.7940   -2.1510   25.7550 C   0  0  0  0  0  0  0  0  0  0  0  0
    4.3650   -0.9700   25.9540 C   0  0  0  0  0  0  0  0  0  0  0  0
    4.0890   -2.1720   26.5680 C   0  0  0  0  0  0  0  0  0  0  0  0
    2.8270   -2.7520   26.4890 C   0  0  0  0  0  0  0  0  0  0  0  0
    2.6970   -4.0610   27.1950 C   0  0  0  0  0  0  0  0  0  0  0  0
    3.7480   -4.8930   27.2120 N   0  0  0  0  0  0  0  0  0  0  0  0
    1.6250   -4.3810   27.7660 N   0  0  0  0  0  0  0  0  0  0  0  0
   14.5279    4.8316   26.7604 H   0  0  0  0  0  0  0  0  0  0  0  0
   15.7932    4.6905   25.5107 H   0  0  0  0  0  0  0  0  0  0  0  0
   15.1899    4.3299   23.3471 H   0  0  0  0  0  0  0  0  0  0  0  0
   12.1286    6.0749   23.2106 H   0  0  0  0  0  0  0  0  0  0  0  0
    9.8064    6.8036   23.7345 H   0  0  0  0  0  0  0  0  0  0  0  0
   12.6188    4.6606   27.2680 H   0  0  0  0  0  0  0  0  0  0  0  0
   10.2834    5.3691   27.7839 H   0  0  0  0  0  0  0  0  0  0  0  0
    8.1970    8.0028   24.7656 H   0  0  0  0  0  0  0  0  0  0  0  0
    6.8437    7.5196   25.8541 H   0  0  0  0  0  0  0  0  0  0  0  0
    7.9216    5.3622   24.1130 H   0  0  0  0  0  0  0  0  0  0  0  0
    7.0756    6.7480   23.2722 H   0  0  0  0  0  0  0  0  0  0  0  0
    5.0401    6.2472   24.1716 H   0  0  0  0  0  0  0  0  0  0  0  0
    5.7436    5.4506   25.6220 H   0  0  0  0  0  0  0  0  0  0  0  0
    6.6287    3.6489   24.0018 H   0  0  0  0  0  0  0  0  0  0  0  0
    5.5056    4.3855   22.7833 H   0  0  0  0  0  0  0  0  0  0  0  0
    3.9181    4.0716   25.0530 H   0  0  0  0  0  0  0  0  0  0  0  0
    4.9418    2.5805   25.0151 H   0  0  0  0  0  0  0  0  0  0  0  0
    4.1763    3.0130   22.3496 H   0  0  0  0  0  0  0  0  0  0  0  0
    2.6890    3.3366   23.3977 H   0  0  0  0  0  0  0  0  0  0  0  0
    2.2790    1.1596   23.2464 H   0  0  0  0  0  0  0  0  0  0  0  0
    3.9180    0.7869   22.6192 H   0  0  0  0  0  0  0  0  0  0  0  0
    1.2945   -0.4241   24.5407 H   0  0  0  0  0  0  0  0  0  0  0  0
    0.8011   -2.6181   25.6780 H   0  0  0  0  0  0  0  0  0  0  0  0
    5.3616   -0.5116   26.0360 H   0  0  0  0  0  0  0  0  0  0  0  0
    4.8827   -2.6836   27.1322 H   0  0  0  0  0  0  0  0  0  0  0  0
    3.6785   -5.8008   27.6937 H   0  0  0  0  0  0  0  0  0  0  0  0
    1.5740   -4.3962   28.7946 H   0  0  0  0  0  0  0  0  0  0  0  0
    0.7969   -4.6282   27.2056 H   0  0  0  0  0  0  0  0  0  0  0  0
 16 17  1  0
 16 15  1  0
 17 18  1  0
  3  2  2  3
 14 15  1  0
 14 13  1  0
 12 13  1  0
 12 11  1  0
  5  6  1  0
  5  4  2  0
  6  9  2  0
 18 19  1  0
  2  4  1  0
  2  1  1  0
 20 19  2  0
 20 21  1  0
  4  7  1  0
 19 22  1  0
 11 10  1  0
 21 24  2  0
  9 10  1  0
  9  8  1  0
 22 23  2  0
  7  8  2  0
 24 23  1  0
 24 25  1  0
 25 26  2  3
 25 27  1  0
  1 28  1  0
  1 29  1  0
  3 30  1  0
  5 31  1  0
  6 32  1  0
  7 33  1  0
  8 34  1  0
 11 35  1  0
 11 36  1  0
 12 37  1  0
 12 38  1  0
 13 39  1  0
 13 40  1  0
 14 41  1  0
 14 42  1  0
 15 43  1  0
 15 44  1  0
 16 45  1  0
 16 46  1  0
 17 47  1  0
 17 48  1  0
 20 49  1  0
 21 50  1  0
 22 51  1  0
 23 52  1  0
 26 53  1  0
 27 54  1  0
 27 55  1  0
A    1
N2
A    2
C7
A    3
N1
A    4
C3
A    5
C2
A    6
C1
A    7
C4
A    8
C5
A    9
C6
A   10
O1
A   11
C8
A   12
C9
A   13
C10
A   14
C11
A   15
C12
A   16
C13
A   17
C14
A   18
O2
A   19
C15
A   20
C16
A   21
C17
A   22
C20
A   23
C19
A   24
C18
A   25
C21
A   26
N3
A   27
N4
M  END
