4FR6_0V3_A_402
     RDKit          3D

 56 59  0  0  0  0  0  0  0  0999 V2000
   15.1370   16.7760   22.5530 N   0  0  0  0  0  0  0  0  0  0  0  0
   16.1080   17.1190   21.6410 C   0  0  0  0  0  0  0  0  0  0  0  0
   17.3660   17.5630   22.0760 C   0  0  0  0  0  0  0  0  0  0  0  0
   18.3720   18.0210   21.1900 C   0  0  0  0  0  0  0  0  0  0  0  0
   17.9940   17.9880   19.8530 C   0  0  0  0  0  0  0  0  0  0  0  0
   18.6570   18.3240   18.7160 N   0  0  0  0  0  0  0  0  0  0  0  0
   17.8810   18.1540   17.6910 C   0  0  0  0  0  0  0  0  0  0  0  0
   18.2740   18.6440   16.5200 N   0  0  0  0  0  0  0  0  0  0  0  0
   17.4320   18.6200   15.3280 C   0  0  0  0  0  0  0  0  0  0  0  0
   16.6740   17.7760   18.0360 N   0  0  0  0  0  0  0  0  0  0  0  0
   16.7760   17.5500   19.3820 C   0  0  0  0  0  0  0  0  0  0  0  0
   15.7670   17.1010   20.2800 C   0  0  0  0  0  0  0  0  0  0  0  0
   14.4350   16.6540   19.6900 C   0  0  0  0  0  0  0  0  0  0  0  0
   14.5140   15.2410   19.0630 C   0  0  0  0  0  0  0  0  0  0  0  0
   13.4550   15.0270   18.0280 N   0  0  0  0  0  0  0  0  0  0  0  0
   12.0580   15.0270   18.5850 C   0  0  0  0  0  0  0  0  0  0  0  0
   11.0420   14.9350   17.3930 C   0  0  0  0  0  0  0  0  0  0  0  0
   11.1270   16.2150   16.5270 C   0  0  0  0  0  0  0  0  0  0  0  0
   10.0790   16.2340   15.3960 C   0  0  0  0  0  0  0  0  0  0  0  0
    8.6540   15.9780   15.9290 C   0  0  0  0  0  0  0  0  0  0  0  0
    7.7290   15.7940   14.7990 C   0  0  0  0  0  0  0  0  0  0  0  0
    6.9720   15.6430   13.8770 C   0  0  0  0  0  0  0  0  0  0  0  0
    8.6160   14.7020   16.7980 C   0  0  0  0  0  0  0  0  0  0  0  0
    9.5990   14.8070   17.9910 C   0  0  0  0  0  0  0  0  0  0  0  0
   17.6000   17.5730   23.4550 C   0  0  0  0  0  0  0  0  0  0  0  0
   18.7440   18.0680   23.9810 O   0  0  0  0  0  0  0  0  0  0  0  0
   16.6100   17.2920   24.3000 N   0  0  0  0  0  0  0  0  0  0  0  0
   15.4190   16.8310   23.8710 C   0  0  0  0  0  0  0  0  0  0  0  0
   14.4880   16.5500   24.8030 N   0  0  0  0  0  0  0  0  0  0  0  0
   19.3589   18.3697   21.5282 H   0  0  0  0  0  0  0  0  0  0  0  0
   19.6289   18.6625   18.6743 H   0  0  0  0  0  0  0  0  0  0  0  0
   19.2141   19.0590   16.4504 H   0  0  0  0  0  0  0  0  0  0  0  0
   16.3739   18.5898   15.6271 H   0  0  0  0  0  0  0  0  0  0  0  0
   17.6182   19.5238   14.7293 H   0  0  0  0  0  0  0  0  0  0  0  0
   17.6694   17.7283   14.7293 H   0  0  0  0  0  0  0  0  0  0  0  0
   14.1352   17.3703   18.9109 H   0  0  0  0  0  0  0  0  0  0  0  0
   13.7001   16.6183   20.5077 H   0  0  0  0  0  0  0  0  0  0  0  0
   14.3893   14.4919   19.8588 H   0  0  0  0  0  0  0  0  0  0  0  0
   15.4935   15.1413   18.5725 H   0  0  0  0  0  0  0  0  0  0  0  0
   13.6238   14.1186   17.5728 H   0  0  0  0  0  0  0  0  0  0  0  0
   11.8842   15.9554   19.1489 H   0  0  0  0  0  0  0  0  0  0  0  0
   11.9232   14.1688   19.2598 H   0  0  0  0  0  0  0  0  0  0  0  0
   11.2783   14.0647   16.7632 H   0  0  0  0  0  0  0  0  0  0  0  0
   12.1301   16.2719   16.0793 H   0  0  0  0  0  0  0  0  0  0  0  0
   10.9269   17.0755   17.1823 H   0  0  0  0  0  0  0  0  0  0  0  0
   10.3310   15.4522   14.6643 H   0  0  0  0  0  0  0  0  0  0  0  0
   10.0958   17.2312   14.9319 H   0  0  0  0  0  0  0  0  0  0  0  0
    8.3553   16.8449   16.5367 H   0  0  0  0  0  0  0  0  0  0  0  0
    6.2795   15.5049   13.0336 H   0  0  0  0  0  0  0  0  0  0  0  0
    7.5959   14.5617   17.1849 H   0  0  0  0  0  0  0  0  0  0  0  0
    8.9154   13.8468   16.1743 H   0  0  0  0  0  0  0  0  0  0  0  0
    9.3623   15.6938   18.5973 H   0  0  0  0  0  0  0  0  0  0  0  0
    9.5222   13.9216   18.6392 H   0  0  0  0  0  0  0  0  0  0  0  0
   16.7589   17.4309   25.3097 H   0  0  0  0  0  0  0  0  0  0  0  0
   14.7229   16.6209   25.8033 H   0  0  0  0  0  0  0  0  0  0  0  0
   13.5412   16.2642   24.5153 H   0  0  0  0  0  0  0  0  0  0  0  0
 22 21  3  0
 21 20  1  0
  9  8  1  0
 19 20  1  0
 19 18  1  0
 20 23  1  0
  8  7  1  0
 18 17  1  0
 23 24  1  0
 17 24  1  0
 17 16  1  0
  7 10  2  0
  7  6  1  0
 15 16  1  0
 15 14  1  0
 10 11  1  0
  6  5  1  0
 14 13  1  0
 11  5  2  0
 11 12  1  0
 13 12  1  0
  5  4  1  0
 12  2  2  0
  4  3  2  0
  2  3  1  0
  2  1  1  0
  3 25  1  0
  1 28  2  0
 25 26  2  0
 25 27  1  0
 28 27  1  0
 28 29  1  0
  4 30  1  0
  6 31  1  0
  8 32  1  0
  9 33  1  0
  9 34  1  0
  9 35  1  0
 13 36  1  0
 13 37  1  0
 14 38  1  0
 14 39  1  0
 15 40  1  0
 16 41  1  0
 16 42  1  0
 17 43  1  0
 18 44  1  0
 18 45  1  0
 19 46  1  0
 19 47  1  0
 20 48  1  0
 22 49  1  0
 23 50  1  0
 23 51  1  0
 24 52  1  0
 24 53  1  0
 27 54  1  0
 29 55  1  0
 29 56  1  0
A    1
N2
A    2
C1
A    3
C2
A    4
C3
A    5
C4
A    6
N3
A    7
C5
A    8
N4
A    9
C6
A   10
N5
A   11
C7
A   12
C8
A   13
C9
A   14
C10
A   15
N6
A   16
C11
A   17
C12
A   18
C13
A   19
C14
A   20
C15
A   21
C16
A   22
C17
A   23
C23
A   24
C24
A   25
C25
A   26
O1
A   27
N8
A   28
C26
A   29
N9
M  END
