4FS3_0WE_A_302
     RDKit          3D

 51 54  0  0  0  0  0  0  0  0999 V2000
  112.2380   64.8150   35.4650 O   0  0  0  0  0  0  0  0  0  0  0  0
  111.2650   65.5680   35.4960 C   0  0  0  0  0  0  0  0  0  0  0  0
  110.7310   66.0540   36.8440 C   0  0  0  0  0  0  0  0  0  0  0  0
  111.6690   65.6640   37.9540 C   0  0  0  0  0  0  0  0  0  0  0  0
  111.3040   66.2730   39.2900 C   0  0  0  0  0  0  0  0  0  0  0  0
  110.1770   67.0850   39.4630 C   0  0  0  0  0  0  0  0  0  0  0  0
  109.8960   67.5950   40.7290 C   0  0  0  0  0  0  0  0  0  0  0  0
  108.6900   68.4930   41.0070 C   0  0  0  0  0  0  0  0  0  0  0  0
  108.2460   68.2660   42.4560 C   0  0  0  0  0  0  0  0  0  0  0  0
  112.1370   65.9860   40.3640 C   0  0  0  0  0  0  0  0  0  0  0  0
  111.9010   66.4710   41.5940 N   0  0  0  0  0  0  0  0  0  0  0  0
  110.8210   67.2630   41.8390 C   0  0  0  0  0  0  0  0  0  0  0  0
  110.5910   67.7480   43.0920 N   0  0  0  0  0  0  0  0  0  0  0  0
  109.4060   68.2560   43.4570 C   0  0  0  0  0  0  0  0  0  0  0  0
  109.2490   68.6820   44.5990 O   0  0  0  0  0  0  0  0  0  0  0  0
  110.6520   65.9860   34.3900 N   0  0  0  0  0  0  0  0  0  0  0  0
  111.2400   65.6720   33.0850 C   0  0  0  0  0  0  0  0  0  0  0  0
  109.4120   66.8140   34.3380 C   0  0  0  0  0  0  0  0  0  0  0  0
  109.9780   68.2020   34.3610 C   0  0  0  0  0  0  0  0  0  0  0  0
  110.4240   68.8590   35.4850 O   0  0  0  0  0  0  0  0  0  0  0  0
  110.9520   70.1220   35.1320 C   0  0  0  0  0  0  0  0  0  0  0  0
  110.8850   70.3380   33.6850 C   0  0  0  0  0  0  0  0  0  0  0  0
  110.2450   69.0900   33.2030 C   0  0  0  0  0  0  0  0  0  0  0  0
  109.9830   68.9260   31.7330 C   0  0  0  0  0  0  0  0  0  0  0  0
  111.4940   71.0700   36.0000 C   0  0  0  0  0  0  0  0  0  0  0  0
  111.9510   72.2480   35.3970 C   0  0  0  0  0  0  0  0  0  0  0  0
  111.8840   72.4560   34.0060 C   0  0  0  0  0  0  0  0  0  0  0  0
  111.3430   71.5260   33.1110 C   0  0  0  0  0  0  0  0  0  0  0  0
  110.6331   67.1494   36.8209 H   0  0  0  0  0  0  0  0  0  0  0  0
  109.7508   65.5894   37.0268 H   0  0  0  0  0  0  0  0  0  0  0  0
  111.6544   64.5687   38.0543 H   0  0  0  0  0  0  0  0  0  0  0  0
  112.6660   66.0433   37.6854 H   0  0  0  0  0  0  0  0  0  0  0  0
  109.5217   67.3175   38.6106 H   0  0  0  0  0  0  0  0  0  0  0  0
  108.9703   69.5471   40.8645 H   0  0  0  0  0  0  0  0  0  0  0  0
  107.8691   68.2503   40.3162 H   0  0  0  0  0  0  0  0  0  0  0  0
  107.5507   69.0707   42.7371 H   0  0  0  0  0  0  0  0  0  0  0  0
  107.7744   67.2731   42.4978 H   0  0  0  0  0  0  0  0  0  0  0  0
  113.0149   65.3432   40.2024 H   0  0  0  0  0  0  0  0  0  0  0  0
  111.3549   67.7231   43.7825 H   0  0  0  0  0  0  0  0  0  0  0  0
  112.2018   65.1584   33.2302 H   0  0  0  0  0  0  0  0  0  0  0  0
  110.5567   65.0187   32.5226 H   0  0  0  0  0  0  0  0  0  0  0  0
  111.4029   66.6032   32.5226 H   0  0  0  0  0  0  0  0  0  0  0  0
  108.7679   66.6282   35.2102 H   0  0  0  0  0  0  0  0  0  0  0  0
  108.7700   66.6059   33.4694 H   0  0  0  0  0  0  0  0  0  0  0  0
  109.0588   68.3475   31.5876 H   0  0  0  0  0  0  0  0  0  0  0  0
  109.8726   69.9165   31.2675 H   0  0  0  0  0  0  0  0  0  0  0  0
  110.8257   68.3939   31.2675 H   0  0  0  0  0  0  0  0  0  0  0  0
  111.5580   70.9032   37.0854 H   0  0  0  0  0  0  0  0  0  0  0  0
  112.3773   73.0386   36.0320 H   0  0  0  0  0  0  0  0  0  0  0  0
  112.2779   73.3999   33.6012 H   0  0  0  0  0  0  0  0  0  0  0  0
  111.2826   71.7176   32.0295 H   0  0  0  0  0  0  0  0  0  0  0  0
 24 23  1  0
 17 16  1  0
 28 22  1  0
 28 27  2  0
 23 22  1  0
 23 19  2  0
 22 21  2  0
 27 26  1  0
 18 19  1  0
 18 16  1  0
 19 20  1  0
 16  2  1  0
 21 20  1  0
 21 25  1  0
 26 25  2  0
  1  2  2  0
  2  3  1  0
  3  4  1  0
  4  5  1  0
  5  6  2  0
  5 10  1  0
  6  7  1  0
 10 11  2  0
  7  8  1  0
  7 12  2  0
  8  9  1  0
 11 12  1  0
 12 13  1  0
  9 14  1  0
 13 14  1  0
 14 15  2  0
  3 29  1  0
  3 30  1  0
  4 31  1  0
  4 32  1  0
  6 33  1  0
  8 34  1  0
  8 35  1  0
  9 36  1  0
  9 37  1  0
 10 38  1  0
 13 39  1  0
 17 40  1  0
 17 41  1  0
 17 42  1  0
 18 43  1  0
 18 44  1  0
 24 45  1  0
 24 46  1  0
 24 47  1  0
 25 48  1  0
 26 49  1  0
 27 50  1  0
 28 51  1  0
A    1
O2
A    2
C1
A    3
C17
A    4
C18
A    5
C19
A    6
C24
A    7
C23
A    8
C26
A    9
C25
A   10
C20
A   11
N21
A   12
C22
A   13
N36
A   14
C37
A   15
O28
A   16
N3
A   17
C4
A   18
C5
A   19
C6
A   20
O10
A   21
C9
A   22
C8
A   23
C7
A   24
C38
A   25
C14
A   26
C13
A   27
C12
A   28
C11
M  END
