4FSL_0VB_A_501
     RDKit          3D

 57 59  0  0  0  0  0  0  0  0999 V2000
   -4.7720   17.7340   28.8060 C   0  0  0  0  0  0  0  0  0  0  0  0
   -3.1750   16.8450   30.6260 C   0  0  0  0  0  0  0  0  0  0  0  0
   -3.8700   17.0690   27.7530 C   0  0  0  0  0  0  0  0  0  0  0  0
   -2.2580   16.1780   29.6150 C   0  0  0  0  0  0  0  0  0  0  0  0
   -3.2260   11.4000   34.9980 C   0  0  0  0  0  0  0  0  0  0  0  0
   -5.0910   11.2340   33.2520 C   0  0  0  0  0  0  0  0  0  0  0  0
   -4.4200   17.6590   30.2920 C   0  0  0  0  0  0  0  0  0  0  0  0
   -5.9540   17.9050   32.6240 C   0  0  0  0  0  0  0  0  0  0  0  0
   -4.6440   11.7990   34.5930 C   0  0  0  0  0  0  0  0  0  0  0  0
   -2.3080   10.4630   34.2200 C   0  0  0  0  0  0  0  0  0  0  0  0
   -2.7880    9.8610   32.8960 C   0  0  0  0  0  0  0  0  0  0  0  0
   -2.6080   16.2830   28.1320 C   0  0  0  0  0  0  0  0  0  0  0  0
   -4.1820   10.3030   32.4710 C   0  0  0  0  0  0  0  0  0  0  0  0
   -5.3350   18.2810   31.3230 C   0  0  0  0  0  0  0  0  0  0  0  0
   -6.8100   18.9730   33.2510 C   0  0  0  0  0  0  0  0  0  0  0  0
   -5.8540   16.6390   33.4100 C   0  0  0  0  0  0  0  0  0  0  0  0
   -0.9820    9.4770   31.0730 C   0  0  0  0  0  0  0  0  0  0  0  0
   -5.2710   15.3170   35.5230 C   0  0  0  0  0  0  0  0  0  0  0  0
   -0.9390   10.1680   34.8270 C   0  0  0  0  0  0  0  0  0  0  0  0
   -7.6180   19.0020   34.5450 C   0  0  0  0  0  0  0  0  0  0  0  0
   -0.0050    8.7230   30.1700 C   0  0  0  0  0  0  0  0  0  0  0  0
   -0.4290   15.0020   27.5800 C   0  0  0  0  0  0  0  0  0  0  0  0
   -5.7020   12.7190   35.1310 C   0  0  0  0  0  0  0  0  0  0  0  0
   -5.7330   19.6700   30.9710 N   0  0  0  0  0  0  0  0  0  0  0  0
   -5.3640   16.5790   34.7980 N   0  0  0  0  0  0  0  0  0  0  0  0
   -4.8280   15.1340   36.9220 N   0  0  0  0  0  0  0  0  0  0  0  0
   -1.9100    8.9770   32.1110 N   0  0  0  0  0  0  0  0  0  0  0  0
   -5.7160   14.1370   34.7630 N   0  0  0  0  0  0  0  0  0  0  0  0
   -6.2250   15.4950   32.6400 O   0  0  0  0  0  0  0  0  0  0  0  0
   -0.9920   10.8940   30.8660 O   0  0  0  0  0  0  0  0  0  0  0  0
   -1.6830   15.6230   27.2690 O   0  0  0  0  0  0  0  0  0  0  0  0
   -6.7140   20.3290   32.1050 S   0  0  0  0  0  0  0  0  0  0  0  0
   -5.0270    9.7940   31.0020 Cl  0  0  0  0  0  0  0  0  0  0  0  0
   -5.6789   18.2686   28.4872 H   0  0  0  0  0  0  0  0  0  0  0  0
   -2.9188   16.7309   31.6897 H   0  0  0  0  0  0  0  0  0  0  0  0
   -4.1391   17.1600   26.6903 H   0  0  0  0  0  0  0  0  0  0  0  0
   -1.3618   15.6315   29.9438 H   0  0  0  0  0  0  0  0  0  0  0  0
   -2.8326   11.8259   35.9328 H   0  0  0  0  0  0  0  0  0  0  0  0
   -6.0780   11.5019   32.8470 H   0  0  0  0  0  0  0  0  0  0  0  0
   -1.0133   10.1840   35.9244 H   0  0  0  0  0  0  0  0  0  0  0  0
   -0.5977    9.1757   34.4970 H   0  0  0  0  0  0  0  0  0  0  0  0
   -0.2193   10.9317   34.4970 H   0  0  0  0  0  0  0  0  0  0  0  0
   -6.9332   18.9774   35.4055 H   0  0  0  0  0  0  0  0  0  0  0  0
   -8.2194   19.9223   34.5812 H   0  0  0  0  0  0  0  0  0  0  0  0
   -8.2839   18.1272   34.5812 H   0  0  0  0  0  0  0  0  0  0  0  0
    0.7141    8.1681   30.7905 H   0  0  0  0  0  0  0  0  0  0  0  0
   -0.5619    8.0183   29.5350 H   0  0  0  0  0  0  0  0  0  0  0  0
    0.5356    9.4403   29.5350 H   0  0  0  0  0  0  0  0  0  0  0  0
   -0.3099   14.9430   28.6719 H   0  0  0  0  0  0  0  0  0  0  0  0
   -0.4060   13.9884   27.1534 H   0  0  0  0  0  0  0  0  0  0  0  0
    0.3912   15.5981   27.1534 H   0  0  0  0  0  0  0  0  0  0  0  0
   -6.6703   12.3028   34.8161 H   0  0  0  0  0  0  0  0  0  0  0  0
   -5.4792   12.7467   36.2078 H   0  0  0  0  0  0  0  0  0  0  0  0
   -5.0799   17.4503   35.2682 H   0  0  0  0  0  0  0  0  0  0  0  0
   -4.5126   15.9453   37.4726 H   0  0  0  0  0  0  0  0  0  0  0  0
   -1.9435    7.9638   32.2930 H   0  0  0  0  0  0  0  0  0  0  0  0
   -6.0961   14.3400   33.8275 H   0  0  0  0  0  0  0  0  0  0  0  0
 31 22  1  0
 31 12  1  0
  3 12  1  0
  3  1  2  0
 12  4  2  0
  1  7  1  0
  4  2  1  0
 21 17  1  0
  7  2  2  0
  7 14  1  0
 30 17  2  0
 24 14  2  0
 24 32  1  0
 33 13  1  0
 17 27  1  0
 14  8  1  0
 32 15  1  0
 27 11  1  0
 13 11  2  0
 13  6  1  0
  8 15  2  0
  8 16  1  0
 29 16  2  0
 11 10  1  0
 15 20  1  0
  6  9  2  0
 16 25  1  0
 10 19  1  0
 10  5  2  0
  9  5  1  0
  9 23  1  0
 28 23  1  0
 28 18  1  0
 25 18  1  0
 18 26  2  3
  1 34  1  0
  2 35  1  0
  3 36  1  0
  4 37  1  0
  5 38  1  0
  6 39  1  0
 19 40  1  0
 19 41  1  0
 19 42  1  0
 20 43  1  0
 20 44  1  0
 20 45  1  0
 21 46  1  0
 21 47  1  0
 21 48  1  0
 22 49  1  0
 22 50  1  0
 22 51  1  0
 23 52  1  0
 23 53  1  0
 25 54  1  0
 26 55  1  0
 27 56  1  0
 28 57  1  0
A    1
C01
A    2
C02
A    3
C03
A    4
C04
A    5
C05
A    6
C06
A    7
C07
A    8
C08
A    9
C09
A   10
C10
A   11
C11
A   12
C12
A   13
C13
A   14
C14
A   15
C15
A   16
C16
A   17
C17
A   18
C18
A   19
C19
A   20
C20
A   21
C21
A   22
C22
A   23
C23
A   24
N24
A   25
N25
A   26
N26
A   27
N27
A   28
N28
A   29
O29
A   30
O30
A   31
O31
A   32
S32
A   33
CL1
M  END
