4FST_HK4_A_301
     RDKit          3D

 45 48  0  0  0  0  0  0  0  0999 V2000
    7.5360   -4.3480   14.6220 O   0  0  0  0  0  0  0  0  0  0  0  0
    8.6360   -4.1410   13.8530 C   0  0  0  0  0  0  0  0  0  0  0  0
    9.0760   -2.8400   13.5820 C   0  0  0  0  0  0  0  0  0  0  0  0
    8.3030   -1.8520   14.1360 O   0  0  0  0  0  0  0  0  0  0  0  0
    8.6830   -0.4910   13.9100 C   0  0  0  0  0  0  0  0  0  0  0  0
   10.2160   -2.6340   12.8210 C   0  0  0  0  0  0  0  0  0  0  0  0
   10.9210   -3.7280   12.3210 C   0  0  0  0  0  0  0  0  0  0  0  0
   10.4980   -5.0260   12.6090 C   0  0  0  0  0  0  0  0  0  0  0  0
    9.3580   -5.2290   13.3620 C   0  0  0  0  0  0  0  0  0  0  0  0
   12.0620   -3.5020   11.4760 C   0  0  0  0  0  0  0  0  0  0  0  0
   13.0260   -3.2870   10.8070 C   0  0  0  0  0  0  0  0  0  0  0  0
   14.2290   -3.1320   10.1290 C   0  0  0  0  0  0  0  0  0  0  0  0
   15.3820   -3.8850   10.1930 C   0  0  0  0  0  0  0  0  0  0  0  0
   16.0050   -5.0690   10.8170 C   0  0  0  0  0  0  0  0  0  0  0  0
   17.4340   -4.9860   10.3600 C   0  0  0  0  0  0  0  0  0  0  0  0
   17.5920   -3.9070    9.5010 C   0  0  0  0  0  0  0  0  0  0  0  0
   16.3400   -3.1830    9.3730 C   0  0  0  0  0  0  0  0  0  0  0  0
   15.8220   -2.0760    8.8280 N   0  0  0  0  0  0  0  0  0  0  0  0
   14.5370   -2.0460    9.2920 N   0  0  0  0  0  0  0  0  0  0  0  0
   18.8340   -3.6250    8.9350 C   0  0  0  0  0  0  0  0  0  0  0  0
   19.9290   -4.4210    9.2490 C   0  0  0  0  0  0  0  0  0  0  0  0
   21.1960   -4.2540    8.7490 O   0  0  0  0  0  0  0  0  0  0  0  0
   21.4160   -3.2260    7.7810 C   0  0  0  0  0  0  0  0  0  0  0  0
   19.7730   -5.5120   10.1310 C   0  0  0  0  0  0  0  0  0  0  0  0
   18.5250   -5.7890   10.6750 C   0  0  0  0  0  0  0  0  0  0  0  0
   20.9160   -6.2290   10.3710 O   0  0  0  0  0  0  0  0  0  0  0  0
   20.8330   -7.3800   11.2140 C   0  0  0  0  0  0  0  0  0  0  0  0
    7.6122   -4.3337   15.6090 H   0  0  0  0  0  0  0  0  0  0  0  0
    8.8244    0.0155   14.8762 H   0  0  0  0  0  0  0  0  0  0  0  0
    9.6234   -0.4627   13.3401 H   0  0  0  0  0  0  0  0  0  0  0  0
    7.8933    0.0204   13.3401 H   0  0  0  0  0  0  0  0  0  0  0  0
   10.5632   -1.6113   12.6123 H   0  0  0  0  0  0  0  0  0  0  0  0
   11.0721   -5.8872   12.2366 H   0  0  0  0  0  0  0  0  0  0  0  0
    9.0179   -6.2531   13.5755 H   0  0  0  0  0  0  0  0  0  0  0  0
   15.9380   -5.0180   11.9138 H   0  0  0  0  0  0  0  0  0  0  0  0
   15.5159   -6.0130   10.5347 H   0  0  0  0  0  0  0  0  0  0  0  0
   13.8638   -1.3041    9.0529 H   0  0  0  0  0  0  0  0  0  0  0  0
   18.9469   -2.7770    8.2435 H   0  0  0  0  0  0  0  0  0  0  0  0
   21.6195   -2.2753    8.2956 H   0  0  0  0  0  0  0  0  0  0  0  0
   22.2772   -3.4937    7.1512 H   0  0  0  0  0  0  0  0  0  0  0  0
   20.5207   -3.1178    7.1512 H   0  0  0  0  0  0  0  0  0  0  0  0
   18.3997   -6.6442   11.3554 H   0  0  0  0  0  0  0  0  0  0  0  0
   20.8557   -7.0651   12.2677 H   0  0  0  0  0  0  0  0  0  0  0  0
   19.8939   -7.9158   11.0116 H   0  0  0  0  0  0  0  0  0  0  0  0
   21.6855   -8.0450   11.0116 H   0  0  0  0  0  0  0  0  0  0  0  0
 23 22  1  0
 22 21  1  0
 18 19  1  0
 18 17  2  0
 20 21  1  0
 20 16  2  0
 21 24  2  0
 19 12  1  0
 17 16  1  0
 17 13  1  0
 16 15  1  0
 12 13  2  0
 12 11  1  0
 24 26  1  0
 24 25  1  0
 13 14  1  0
 15 25  2  0
 15 14  1  0
 26 27  1  0
 11 10  3  0
 10  7  1  0
  7  8  2  0
  7  6  1  0
  8  9  1  0
  6  3  2  0
  9  2  2  0
  3  2  1  0
  3  4  1  0
  2  1  1  0
  5  4  1  0
  1 28  1  0
  5 29  1  0
  5 30  1  0
  5 31  1  0
  6 32  1  0
  8 33  1  0
  9 34  1  0
 14 35  1  0
 14 36  1  0
 19 37  1  0
 20 38  1  0
 23 39  1  0
 23 40  1  0
 23 41  1  0
 25 42  1  0
 27 43  1  0
 27 44  1  0
 27 45  1  0
A    1
O1
A    2
C1
A    3
C6
A    4
O2
A    5
C7
A    6
C5
A    7
C4
A    8
C3
A    9
C2
A   10
C8
A   11
C9
A   12
C10
A   13
C12
A   14
C13
A   15
C14
A   16
C21
A   17
C11
A   18
N2
A   19
N1
A   20
C20
A   21
C18
A   22
O4
A   23
C19
A   24
C16
A   25
C15
A   26
O3
A   27
C17
M  END
