4FT5_H2K_A_300
     RDKit          3D

 40 42  0  0  0  0  0  0  0  0999 V2000
   10.3060   -5.6030   13.5550 N   0  0  0  0  0  0  0  0  0  0  0  0
   11.0530   -5.0080   12.9350 C   0  0  0  0  0  0  0  0  0  0  0  0
   12.0270   -4.3530   12.1490 C   0  0  0  0  0  0  0  0  0  0  0  0
   13.1620   -5.0350   11.9260 N   0  0  0  0  0  0  0  0  0  0  0  0
   14.0730   -4.4770   11.1210 C   0  0  0  0  0  0  0  0  0  0  0  0
   11.8040   -3.0680   11.5520 C   0  0  0  0  0  0  0  0  0  0  0  0
   12.7240   -2.5200   10.7430 N   0  0  0  0  0  0  0  0  0  0  0  0
   13.8460   -3.2270   10.5070 C   0  0  0  0  0  0  0  0  0  0  0  0
   14.6970   -2.5450    9.6110 N   0  0  0  0  0  0  0  0  0  0  0  0
   15.9570   -2.7590    9.0970 C   0  0  0  0  0  0  0  0  0  0  0  0
   16.4880   -1.9620    8.3280 O   0  0  0  0  0  0  0  0  0  0  0  0
   16.5610   -3.9270    9.5030 N   0  0  0  0  0  0  0  0  0  0  0  0
   17.9590   -4.2060    9.5620 C   0  0  0  0  0  0  0  0  0  0  0  0
   18.9080   -3.5630    8.7720 C   0  0  0  0  0  0  0  0  0  0  0  0
   20.2210   -4.0020    8.7910 C   0  0  0  0  0  0  0  0  0  0  0  0
   21.4060   -3.1620    7.8430 Cl  0  0  0  0  0  0  0  0  0  0  0  0
   18.3700   -5.2940   10.3730 C   0  0  0  0  0  0  0  0  0  0  0  0
   19.6850   -5.7320   10.3410 C   0  0  0  0  0  0  0  0  0  0  0  0
   20.6120   -5.0780    9.5570 C   0  0  0  0  0  0  0  0  0  0  0  0
   17.4100   -5.8570   11.1890 O   0  0  0  0  0  0  0  0  0  0  0  0
   17.8490   -6.4500   12.4370 C   0  0  0  0  0  0  0  0  0  0  0  0
   16.7780   -6.1820   13.5310 C   0  0  0  0  0  0  0  0  0  0  0  0
   15.9640   -7.4060   13.5420 N   0  0  0  0  0  0  0  0  0  0  0  0
   16.8640   -8.5240   13.2370 C   0  0  0  0  0  0  0  0  0  0  0  0
   17.8810   -7.9550   12.2380 C   0  0  0  0  0  0  0  0  0  0  0  0
   15.0200   -5.0042   10.9335 H   0  0  0  0  0  0  0  0  0  0  0  0
   10.8694   -2.5262   11.7593 H   0  0  0  0  0  0  0  0  0  0  0  0
   14.2730   -1.6764    9.2551 H   0  0  0  0  0  0  0  0  0  0  0  0
   15.9316   -4.6870    9.7982 H   0  0  0  0  0  0  0  0  0  0  0  0
   18.6170   -2.7128    8.1376 H   0  0  0  0  0  0  0  0  0  0  0  0
   19.9892   -6.6020   10.9415 H   0  0  0  0  0  0  0  0  0  0  0  0
   21.6593   -5.4142    9.5434 H   0  0  0  0  0  0  0  0  0  0  0  0
   18.8266   -6.0374   12.7270 H   0  0  0  0  0  0  0  0  0  0  0  0
   17.2520   -6.0193   14.5102 H   0  0  0  0  0  0  0  0  0  0  0  0
   16.1822   -5.2801   13.3271 H   0  0  0  0  0  0  0  0  0  0  0  0
   15.2230   -7.3442   12.8293 H   0  0  0  0  0  0  0  0  0  0  0  0
   16.3055   -9.3581   12.7872 H   0  0  0  0  0  0  0  0  0  0  0  0
   17.3502   -8.9210   14.1403 H   0  0  0  0  0  0  0  0  0  0  0  0
   17.5932   -8.2125   11.2080 H   0  0  0  0  0  0  0  0  0  0  0  0
   18.8878   -8.3665   12.4025 H   0  0  0  0  0  0  0  0  0  0  0  0
 16 15  1  0
 11 10  2  0
 14 15  2  0
 14 13  1  0
 15 19  1  0
 10 12  1  0
 10  9  1  0
 12 13  1  0
 19 18  2  0
 13 17  2  0
  9  8  1  0
 18 17  1  0
 17 20  1  0
  8  7  2  0
  8  5  1  0
  7  6  1  0
  5  4  2  0
 20 21  1  0
  6  3  2  0
  4  3  1  0
  3  2  1  0
 25 21  1  0
 25 24  1  0
 21 22  1  0
  2  1  3  0
 24 23  1  0
 22 23  1  0
  5 26  1  0
  6 27  1  0
  9 28  1  0
 12 29  1  0
 14 30  1  0
 18 31  1  0
 19 32  1  0
 21 33  1  0
 22 34  1  0
 22 35  1  0
 23 36  1  0
 24 37  1  0
 24 38  1  0
 25 39  1  0
 25 40  1  0
A    1
N6
A    2
C15
A    3
C13
A    4
N4
A    5
C12
A    6
C14
A    7
N5
A    8
C11
A    9
N3
A   10
C10
A   11
O2
A   12
N2
A   13
C9
A   14
C16
A   15
C1
A   16
CL
A   17
C4
A   18
C3
A   19
C2
A   20
O1
A   21
C5
A   22
C8
A   23
N1
A   24
C7
A   25
C6
M  END
