4FT7_H3K_A_301
     RDKit          3D

 43 45  0  0  0  0  0  0  0  0999 V2000
   10.9830   -5.5530   13.7150 N   0  0  0  0  0  0  0  0  0  0  0  0
   11.7600   -5.0370   13.0610 C   0  0  0  0  0  0  0  0  0  0  0  0
   12.7160   -4.4060   12.2290 C   0  0  0  0  0  0  0  0  0  0  0  0
   12.4220   -3.1820   11.7550 N   0  0  0  0  0  0  0  0  0  0  0  0
   13.2830   -2.6470   10.8840 C   0  0  0  0  0  0  0  0  0  0  0  0
   13.9150   -5.0830   11.8480 C   0  0  0  0  0  0  0  0  0  0  0  0
   14.7780   -4.5150   10.9980 N   0  0  0  0  0  0  0  0  0  0  0  0
   14.4670   -3.3060   10.5000 C   0  0  0  0  0  0  0  0  0  0  0  0
   15.3440   -2.6910    9.5940 N   0  0  0  0  0  0  0  0  0  0  0  0
   16.6180   -2.9900    9.1710 C   0  0  0  0  0  0  0  0  0  0  0  0
   17.1730   -2.3370    8.2910 O   0  0  0  0  0  0  0  0  0  0  0  0
   17.2110   -4.0530    9.8240 N   0  0  0  0  0  0  0  0  0  0  0  0
   18.5710   -4.5030    9.6930 C   0  0  0  0  0  0  0  0  0  0  0  0
   19.4950   -3.8000    8.9120 C   0  0  0  0  0  0  0  0  0  0  0  0
   20.7780   -4.2930    8.7690 C   0  0  0  0  0  0  0  0  0  0  0  0
   22.0130   -3.3390    7.6840 Br  0  0  0  0  0  0  0  0  0  0  0  0
   21.1800   -5.4580    9.3740 C   0  0  0  0  0  0  0  0  0  0  0  0
   20.2790   -6.1560   10.1540 C   0  0  0  0  0  0  0  0  0  0  0  0
   18.9800   -5.6900   10.3400 C   0  0  0  0  0  0  0  0  0  0  0  0
   18.1480   -6.3740   11.2600 N   0  0  0  0  0  0  0  0  0  0  0  0
   17.5890   -7.6540   10.8130 C   0  0  0  0  0  0  0  0  0  0  0  0
   16.4810   -8.1970   11.7130 C   0  0  0  0  0  0  0  0  0  0  0  0
   16.8390   -8.0410   13.1880 C   0  0  0  0  0  0  0  0  0  0  0  0
   18.0370   -5.8760   12.6300 C   0  0  0  0  0  0  0  0  0  0  0  0
   17.0570   -6.5880   13.5390 C   0  0  0  0  0  0  0  0  0  0  0  0
   17.4960   -6.4480   14.8910 O   0  0  0  0  0  0  0  0  0  0  0  0
   13.0597   -1.6599   10.4530 H   0  0  0  0  0  0  0  0  0  0  0  0
   14.1307   -6.0809   12.2575 H   0  0  0  0  0  0  0  0  0  0  0  0
   14.9547   -1.8435    9.1569 H   0  0  0  0  0  0  0  0  0  0  0  0
   16.6140   -4.5813   10.4762 H   0  0  0  0  0  0  0  0  0  0  0  0
   19.2025   -2.8627    8.4160 H   0  0  0  0  0  0  0  0  0  0  0  0
   22.2062   -5.8306    9.2393 H   0  0  0  0  0  0  0  0  0  0  0  0
   20.5922   -7.0941   10.6355 H   0  0  0  0  0  0  0  0  0  0  0  0
   17.1775   -7.5174    9.8021 H   0  0  0  0  0  0  0  0  0  0  0  0
   18.4092   -8.3864   10.8415 H   0  0  0  0  0  0  0  0  0  0  0  0
   15.5514   -7.6453   11.5095 H   0  0  0  0  0  0  0  0  0  0  0  0
   16.3526   -9.2681   11.4981 H   0  0  0  0  0  0  0  0  0  0  0  0
   16.0184   -8.4406   13.8020 H   0  0  0  0  0  0  0  0  0  0  0  0
   17.7698   -8.5934   13.3841 H   0  0  0  0  0  0  0  0  0  0  0  0
   19.0326   -5.9489   13.0921 H   0  0  0  0  0  0  0  0  0  0  0  0
   17.6472   -4.8520   12.5329 H   0  0  0  0  0  0  0  0  0  0  0  0
   16.0755   -6.1110   13.4009 H   0  0  0  0  0  0  0  0  0  0  0  0
   16.7557   -6.6841   15.5045 H   0  0  0  0  0  0  0  0  0  0  0  0
 16 15  1  0
 11 10  2  0
 15 14  2  0
 15 17  1  0
 14 13  1  0
 10  9  1  0
 10 12  1  0
 17 18  2  0
  9  8  1  0
 13 12  1  0
 13 19  2  0
 18 19  1  0
 19 20  1  0
  8  5  2  0
  8  7  1  0
 21 20  1  0
 21 22  1  0
  5  4  1  0
  7  6  2  0
 20 24  1  0
 22 23  1  0
  4  3  2  0
  6  3  1  0
  3  2  1  0
 24 25  1  0
  2  1  3  0
 23 25  1  0
 25 26  1  0
  5 27  1  0
  6 28  1  0
  9 29  1  0
 12 30  1  0
 14 31  1  0
 17 32  1  0
 18 33  1  0
 21 34  1  0
 21 35  1  0
 22 36  1  0
 22 37  1  0
 23 38  1  0
 23 39  1  0
 24 40  1  0
 24 41  1  0
 25 42  1  0
 26 43  1  0
A    1
N6
A    2
C17
A    3
C15
A    4
N4
A    5
C14
A    6
C16
A    7
N5
A    8
C13
A    9
N3
A   10
C12
A   11
O2
A   12
N2
A   13
C11
A   14
C10
A   15
C9
A   16
BR
A   17
C8
A   18
C7
A   19
C6
A   20
N1
A   21
C4
A   22
C3
A   23
C2
A   24
C5
A   25
C1
A   26
O1
M  END
