4FTM_1HK_A_301
     RDKit          3D

 41 44  0  0  0  0  0  0  0  0999 V2000
    7.3960   -4.2630   14.4740 O   0  0  0  0  0  0  0  0  0  0  0  0
    8.5810   -4.1820   13.8090 C   0  0  0  0  0  0  0  0  0  0  0  0
    9.1210   -2.9290   13.4920 C   0  0  0  0  0  0  0  0  0  0  0  0
    8.3530   -1.8680   13.9020 O   0  0  0  0  0  0  0  0  0  0  0  0
    8.8240   -0.5460   13.6590 C   0  0  0  0  0  0  0  0  0  0  0  0
   10.3480   -2.8460   12.8380 C   0  0  0  0  0  0  0  0  0  0  0  0
   11.0610   -4.0100   12.5140 C   0  0  0  0  0  0  0  0  0  0  0  0
   10.5320   -5.2470   12.8860 C   0  0  0  0  0  0  0  0  0  0  0  0
    9.2990   -5.3350   13.5030 C   0  0  0  0  0  0  0  0  0  0  0  0
   12.2300   -4.0100   11.6140 C   0  0  0  0  0  0  0  0  0  0  0  0
   12.6480   -3.0360   10.8100 C   0  0  0  0  0  0  0  0  0  0  0  0
   13.9140   -2.9320   10.1760 C   0  0  0  0  0  0  0  0  0  0  0  0
   15.0460   -3.7810   10.2880 C   0  0  0  0  0  0  0  0  0  0  0  0
   15.6110   -5.0040   10.8750 C   0  0  0  0  0  0  0  0  0  0  0  0
   17.0740   -4.9080   10.5620 C   0  0  0  0  0  0  0  0  0  0  0  0
   17.3190   -3.8440    9.6970 C   0  0  0  0  0  0  0  0  0  0  0  0
   16.0640   -3.1320    9.5340 C   0  0  0  0  0  0  0  0  0  0  0  0
   15.6070   -2.0060    8.9810 N   0  0  0  0  0  0  0  0  0  0  0  0
   14.3030   -1.8990    9.3830 N   0  0  0  0  0  0  0  0  0  0  0  0
   18.6120   -3.6030    9.2350 C   0  0  0  0  0  0  0  0  0  0  0  0
   19.6590   -4.4050    9.6700 C   0  0  0  0  0  0  0  0  0  0  0  0
   19.4200   -5.4450   10.5520 C   0  0  0  0  0  0  0  0  0  0  0  0
   18.1310   -5.7020   10.9910 C   0  0  0  0  0  0  0  0  0  0  0  0
    7.3830   -4.2639   15.4639 H   0  0  0  0  0  0  0  0  0  0  0  0
    9.0046   -0.0390   14.6183 H   0  0  0  0  0  0  0  0  0  0  0  0
    9.7616   -0.5904   13.0855 H   0  0  0  0  0  0  0  0  0  0  0  0
    8.0695    0.0124   13.0855 H   0  0  0  0  0  0  0  0  0  0  0  0
   10.7607   -1.8612   12.5738 H   0  0  0  0  0  0  0  0  0  0  0  0
   11.1047   -6.1644   12.6851 H   0  0  0  0  0  0  0  0  0  0  0  0
    8.8822   -6.3216   13.7539 H   0  0  0  0  0  0  0  0  0  0  0  0
   12.0672   -4.8697   10.9474 H   0  0  0  0  0  0  0  0  0  0  0  0
   13.0227   -3.9475   12.3741 H   0  0  0  0  0  0  0  0  0  0  0  0
   12.5545   -2.1169   11.4071 H   0  0  0  0  0  0  0  0  0  0  0  0
   12.0284   -3.2583    9.9287 H   0  0  0  0  0  0  0  0  0  0  0  0
   15.4437   -5.0305   11.9619 H   0  0  0  0  0  0  0  0  0  0  0  0
   15.1498   -5.9196   10.4762 H   0  0  0  0  0  0  0  0  0  0  0  0
   13.6842   -1.1208    9.1140 H   0  0  0  0  0  0  0  0  0  0  0  0
   18.8021   -2.7812    8.5290 H   0  0  0  0  0  0  0  0  0  0  0  0
   20.6815   -4.2133    9.3126 H   0  0  0  0  0  0  0  0  0  0  0  0
   20.2547   -6.0684   10.9049 H   0  0  0  0  0  0  0  0  0  0  0  0
   17.9437   -6.5375   11.6816 H   0  0  0  0  0  0  0  0  0  0  0  0
 18 19  1  0
 18 17  2  0
 20 21  1  0
 20 16  2  0
 19 12  1  0
 17 16  1  0
 17 13  1  0
 21 22  2  0
 16 15  1  0
 12 13  2  0
 12 11  1  0
 13 14  1  0
 22 23  1  0
 15 14  1  0
 15 23  2  0
 11 10  1  0
 10  7  1  0
  7  6  2  0
  7  8  1  0
  6  3  1  0
  8  9  2  0
  3  2  2  0
  3  4  1  0
  9  2  1  0
  5  4  1  0
  2  1  1  0
  1 24  1  0
  5 25  1  0
  5 26  1  0
  5 27  1  0
  6 28  1  0
  8 29  1  0
  9 30  1  0
 10 31  1  0
 10 32  1  0
 11 33  1  0
 11 34  1  0
 14 35  1  0
 14 36  1  0
 19 37  1  0
 20 38  1  0
 21 39  1  0
 22 40  1  0
 23 41  1  0
A    1
O1
A    2
C1
A    3
C18
A    4
O2
A    5
C19
A    6
C17
A    7
C4
A    8
C3
A    9
C2
A   10
C5
A   11
C6
A   12
C7
A   13
C9
A   14
C10
A   15
C11
A   16
C16
A   17
C8
A   18
N2
A   19
N1
A   20
C15
A   21
C14
A   22
C13
A   23
C12
M  END
