4FTO_3HK_A_301
     RDKit          3D

 58 62  0  0  0  0  0  0  0  0999 V2000
    9.4350   -5.3930   13.2880 N   0  0  0  0  0  0  0  0  0  0  0  0
   10.3620   -5.0480   12.7130 C   0  0  0  0  0  0  0  0  0  0  0  0
   11.5120   -4.6400   12.0000 C   0  0  0  0  0  0  0  0  0  0  0  0
   11.4980   -3.4610   11.2270 C   0  0  0  0  0  0  0  0  0  0  0  0
   12.6520   -3.0880   10.5150 C   0  0  0  0  0  0  0  0  0  0  0  0
   12.6490   -5.4420   12.0740 C   0  0  0  0  0  0  0  0  0  0  0  0
   13.7960   -5.0720   11.3710 C   0  0  0  0  0  0  0  0  0  0  0  0
   13.8160   -3.8880   10.5850 C   0  0  0  0  0  0  0  0  0  0  0  0
   15.0490   -3.5210    9.8590 C   0  0  0  0  0  0  0  0  0  0  0  0
   16.3280   -4.1340    9.8600 C   0  0  0  0  0  0  0  0  0  0  0  0
   17.1440   -5.2360   10.4320 C   0  0  0  0  0  0  0  0  0  0  0  0
   15.1210   -2.4020    9.0350 N   0  0  0  0  0  0  0  0  0  0  0  0
   16.3800   -2.3240    8.5500 N   0  0  0  0  0  0  0  0  0  0  0  0
   17.1470   -3.3270    9.0240 C   0  0  0  0  0  0  0  0  0  0  0  0
   18.4890   -3.7950    9.0040 C   0  0  0  0  0  0  0  0  0  0  0  0
   18.5190   -4.9190    9.8760 C   0  0  0  0  0  0  0  0  0  0  0  0
   19.6940   -5.6080   10.0910 C   0  0  0  0  0  0  0  0  0  0  0  0
   19.6080   -3.3500    8.3190 C   0  0  0  0  0  0  0  0  0  0  0  0
   20.8330   -4.0670    8.5160 C   0  0  0  0  0  0  0  0  0  0  0  0
   22.0250   -3.7440    7.8690 O   0  0  0  0  0  0  0  0  0  0  0  0
   22.1330   -2.5020    7.1800 C   0  0  0  0  0  0  0  0  0  0  0  0
   20.8580   -5.1760    9.3950 C   0  0  0  0  0  0  0  0  0  0  0  0
   22.0740   -5.8190    9.6020 O   0  0  0  0  0  0  0  0  0  0  0  0
   22.1580   -7.2250    9.3440 C   0  0  0  0  0  0  0  0  0  0  0  0
   23.1500   -7.7750   10.3930 C   0  0  0  0  0  0  0  0  0  0  0  0
   24.5770   -7.8920    9.8250 C   0  0  0  0  0  0  0  0  0  0  0  0
   25.6310   -8.0580   10.9530 N   0  0  0  0  0  0  0  0  0  0  0  0
   27.0600   -7.9570   10.3750 C   0  0  0  0  0  0  0  0  0  0  0  0
   28.1050   -8.1070   11.5030 C   0  0  0  0  0  0  0  0  0  0  0  0
   25.4120   -9.3910   11.7330 C   0  0  0  0  0  0  0  0  0  0  0  0
   26.7640  -10.0060   12.1800 C   0  0  0  0  0  0  0  0  0  0  0  0
   27.7130   -9.0160   12.5190 O   0  0  0  0  0  0  0  0  0  0  0  0
   10.5924   -2.8383   11.1812 H   0  0  0  0  0  0  0  0  0  0  0  0
   12.6492   -2.1737    9.9034 H   0  0  0  0  0  0  0  0  0  0  0  0
   12.6424   -6.3590   12.6815 H   0  0  0  0  0  0  0  0  0  0  0  0
   14.6949   -5.7037   11.4257 H   0  0  0  0  0  0  0  0  0  0  0  0
   17.1399   -5.2092   11.5317 H   0  0  0  0  0  0  0  0  0  0  0  0
   16.7792   -6.2417   10.1761 H   0  0  0  0  0  0  0  0  0  0  0  0
   16.7106   -1.5940    7.9029 H   0  0  0  0  0  0  0  0  0  0  0  0
   19.7306   -6.4652   10.7793 H   0  0  0  0  0  0  0  0  0  0  0  0
   19.5580   -2.4790    7.6490 H   0  0  0  0  0  0  0  0  0  0  0  0
   22.2043   -1.6825    7.9103 H   0  0  0  0  0  0  0  0  0  0  0  0
   23.0338   -2.5100    6.5488 H   0  0  0  0  0  0  0  0  0  0  0  0
   21.2443   -2.3544    6.5488 H   0  0  0  0  0  0  0  0  0  0  0  0
   21.1717   -7.6977    9.4618 H   0  0  0  0  0  0  0  0  0  0  0  0
   22.4910   -7.4336    8.3166 H   0  0  0  0  0  0  0  0  0  0  0  0
   23.1658   -7.0961   11.2583 H   0  0  0  0  0  0  0  0  0  0  0  0
   22.8151   -8.7810   10.6857 H   0  0  0  0  0  0  0  0  0  0  0  0
   24.6256   -8.7668    9.1599 H   0  0  0  0  0  0  0  0  0  0  0  0
   24.8049   -6.9667    9.2756 H   0  0  0  0  0  0  0  0  0  0  0  0
   27.2090   -8.7556    9.6334 H   0  0  0  0  0  0  0  0  0  0  0  0
   27.1853   -6.9733    9.8988 H   0  0  0  0  0  0  0  0  0  0  0  0
   29.0466   -8.4641   11.0604 H   0  0  0  0  0  0  0  0  0  0  0  0
   28.2150   -7.1200   11.9761 H   0  0  0  0  0  0  0  0  0  0  0  0
   24.7974   -9.1896   12.6228 H   0  0  0  0  0  0  0  0  0  0  0  0
   24.9065  -10.1060   11.0672 H   0  0  0  0  0  0  0  0  0  0  0  0
   26.5896  -10.6453   13.0580 H   0  0  0  0  0  0  0  0  0  0  0  0
   27.1669  -10.5862   11.3368 H   0  0  0  0  0  0  0  0  0  0  0  0
 21 20  1  0
 20 19  1  0
 18 19  1  0
 18 15  2  0
 19 22  2  0
 13 14  1  0
 13 12  1  0
 15 14  1  0
 15 16  1  0
 14 10  2  0
 12  9  2  0
 24 23  1  0
 24 25  1  0
 22 23  1  0
 22 17  1  0
 26 25  1  0
 26 27  1  0
  9 10  1  0
  9  8  1  0
 10 11  1  0
 16 17  2  0
 16 11  1  0
 28 27  1  0
 28 29  1  0
  5  8  2  0
  5  4  1  0
  8  7  1  0
 27 30  1  0
  4  3  2  0
  7  6  2  0
 29 32  1  0
 30 31  1  0
  3  6  1  0
  3  2  1  0
 31 32  1  0
  2  1  3  0
  4 33  1  0
  5 34  1  0
  6 35  1  0
  7 36  1  0
 11 37  1  0
 11 38  1  0
 13 39  1  0
 17 40  1  0
 18 41  1  0
 21 42  1  0
 21 43  1  0
 21 44  1  0
 24 45  1  0
 24 46  1  0
 25 47  1  0
 25 48  1  0
 26 49  1  0
 26 50  1  0
 28 51  1  0
 28 52  1  0
 29 53  1  0
 29 54  1  0
 30 55  1  0
 30 56  1  0
 31 57  1  0
 31 58  1  0
A    1
N4
A    2
C21
A    3
C18
A    4
C17
A    5
C16
A    6
C19
A    7
C20
A    8
C15
A    9
C14
A   10
C12
A   11
C11
A   12
N3
A   13
N2
A   14
C13
A   15
C22
A   16
C10
A   17
C9
A   18
C23
A   19
C24
A   20
O3
A   21
C25
A   22
C8
A   23
O2
A   24
C7
A   25
C6
A   26
C5
A   27
N1
A   28
C2
A   29
C1
A   30
C3
A   31
C4
A   32
O1
M  END
