4FTQ_4HK_A_301
     RDKit          3D

 48 52  0  0  0  0  0  0  0  0999 V2000
   10.1890   -5.4370   13.4160 N   0  0  0  0  0  0  0  0  0  0  0  0
   11.0960   -5.0780   12.8280 C   0  0  0  0  0  0  0  0  0  0  0  0
   12.2410   -4.6630   12.0990 C   0  0  0  0  0  0  0  0  0  0  0  0
   12.2020   -3.4990   11.4210 N   0  0  0  0  0  0  0  0  0  0  0  0
   13.2670   -3.1710   10.6780 C   0  0  0  0  0  0  0  0  0  0  0  0
   14.4250   -3.9400   10.6090 C   0  0  0  0  0  0  0  0  0  0  0  0
   14.4290   -5.1380   11.3180 C   0  0  0  0  0  0  0  0  0  0  0  0
   13.3380   -5.5170   12.0740 C   0  0  0  0  0  0  0  0  0  0  0  0
   15.6190   -3.5100    9.8600 C   0  0  0  0  0  0  0  0  0  0  0  0
   16.8680   -4.1020    9.7920 C   0  0  0  0  0  0  0  0  0  0  0  0
   17.7090   -5.1840   10.3150 C   0  0  0  0  0  0  0  0  0  0  0  0
   19.0640   -4.8830    9.7470 C   0  0  0  0  0  0  0  0  0  0  0  0
   18.9870   -3.7990    8.8830 C   0  0  0  0  0  0  0  0  0  0  0  0
   17.6270   -3.2590    8.9050 C   0  0  0  0  0  0  0  0  0  0  0  0
   16.8750   -2.2430    8.4650 N   0  0  0  0  0  0  0  0  0  0  0  0
   15.6580   -2.4180    9.0670 N   0  0  0  0  0  0  0  0  0  0  0  0
   20.1180   -3.4070    8.1680 C   0  0  0  0  0  0  0  0  0  0  0  0
   21.3370   -4.0670    8.3190 C   0  0  0  0  0  0  0  0  0  0  0  0
   22.5160   -3.5640    7.5130 C   0  0  0  0  0  0  0  0  0  0  0  0
   22.5630   -4.0820    6.0960 C   0  0  0  0  0  0  0  0  0  0  0  0
   21.3930   -5.1500    9.2060 C   0  0  0  0  0  0  0  0  0  0  0  0
   20.2740   -5.5440    9.9230 C   0  0  0  0  0  0  0  0  0  0  0  0
   22.5920   -5.8180    9.2750 O   0  0  0  0  0  0  0  0  0  0  0  0
   22.7490   -6.9540    8.4270 C   0  0  0  0  0  0  0  0  0  0  0  0
   22.3710   -8.1550    9.2740 C   0  0  0  0  0  0  0  0  0  0  0  0
   23.5820   -8.8190    9.6200 O   0  0  0  0  0  0  0  0  0  0  0  0
   24.5460   -8.5280    8.6210 C   0  0  0  0  0  0  0  0  0  0  0  0
   24.2070   -7.1730    8.0500 C   0  0  0  0  0  0  0  0  0  0  0  0
   13.2241   -2.2425   10.0898 H   0  0  0  0  0  0  0  0  0  0  0  0
   15.3131   -5.7911   11.2752 H   0  0  0  0  0  0  0  0  0  0  0  0
   13.3365   -6.4619   12.6372 H   0  0  0  0  0  0  0  0  0  0  0  0
   17.3475   -6.1641    9.9704 H   0  0  0  0  0  0  0  0  0  0  0  0
   17.7074   -5.2337   11.4139 H   0  0  0  0  0  0  0  0  0  0  0  0
   14.8577   -1.7843    8.9296 H   0  0  0  0  0  0  0  0  0  0  0  0
   20.0472   -2.5595    7.4703 H   0  0  0  0  0  0  0  0  0  0  0  0
   23.4400   -3.8726    8.0239 H   0  0  0  0  0  0  0  0  0  0  0  0
   22.4103   -2.4711    7.4467 H   0  0  0  0  0  0  0  0  0  0  0  0
   22.6624   -5.1774    6.1092 H   0  0  0  0  0  0  0  0  0  0  0  0
   21.6360   -3.8042    5.5731 H   0  0  0  0  0  0  0  0  0  0  0  0
   23.4249   -3.6419    5.5731 H   0  0  0  0  0  0  0  0  0  0  0  0
   20.3437   -6.3815   10.6327 H   0  0  0  0  0  0  0  0  0  0  0  0
   22.1468   -6.8144    7.5171 H   0  0  0  0  0  0  0  0  0  0  0  0
   21.8476   -7.8258   10.1838 H   0  0  0  0  0  0  0  0  0  0  0  0
   21.6984   -8.8281    8.7221 H   0  0  0  0  0  0  0  0  0  0  0  0
   24.5087   -9.2902    7.8287 H   0  0  0  0  0  0  0  0  0  0  0  0
   25.5601   -8.5279    9.0472 H   0  0  0  0  0  0  0  0  0  0  0  0
   24.3306   -7.1698    6.9570 H   0  0  0  0  0  0  0  0  0  0  0  0
   24.8629   -6.3798    8.4381 H   0  0  0  0  0  0  0  0  0  0  0  0
 20 19  1  0
 19 18  1  0
 28 24  1  0
 28 27  1  0
 17 18  2  0
 17 13  1  0
 18 21  1  0
 24 25  1  0
 24 23  1  0
 15 14  2  0
 15 16  1  0
 27 26  1  0
 13 14  1  0
 13 12  2  0
 14 10  1  0
 16  9  1  0
 21 23  1  0
 21 22  2  0
 25 26  1  0
 12 22  1  0
 12 11  1  0
 10  9  2  0
 10 11  1  0
  9  6  1  0
  6  5  2  0
  6  7  1  0
  5  4  1  0
  7  8  2  0
  4  3  2  0
  8  3  1  0
  3  2  1  0
  2  1  3  0
  5 29  1  0
  7 30  1  0
  8 31  1  0
 11 32  1  0
 11 33  1  0
 16 34  1  0
 17 35  1  0
 19 36  1  0
 19 37  1  0
 20 38  1  0
 20 39  1  0
 20 40  1  0
 22 41  1  0
 24 42  1  0
 25 43  1  0
 25 44  1  0
 27 45  1  0
 27 46  1  0
 28 47  1  0
 28 48  1  0
A    1
N1
A    2
C1
A    3
C2
A    4
N2
A    5
C6
A    6
C5
A    7
C4
A    8
C3
A    9
C7
A   10
C9
A   11
C10
A   12
C11
A   13
C22
A   14
C8
A   15
N4
A   16
N3
A   17
C21
A   18
C18
A   19
C19
A   20
C20
A   21
C13
A   22
C12
A   23
O1
A   24
C14
A   25
C17
A   26
O2
A   27
C16
A   28
C15
M  END
