4FTT_6HK_A_301
     RDKit          3D

 45 48  0  0  0  0  0  0  0  0999 V2000
   16.3580   -1.8670    8.9940 O   0  0  0  0  0  0  0  0  0  0  0  0
   17.0130   -2.8510    9.3350 C   0  0  0  0  0  0  0  0  0  0  0  0
   18.3470   -2.8850    9.1240 N   0  0  0  0  0  0  0  0  0  0  0  0
   19.4010   -3.8160    9.2770 C   0  0  0  0  0  0  0  0  0  0  0  0
   19.3610   -4.8650   10.2020 C   0  0  0  0  0  0  0  0  0  0  0  0
   20.4250   -5.7650   10.2610 C   0  0  0  0  0  0  0  0  0  0  0  0
   21.5230   -5.6030    9.4340 C   0  0  0  0  0  0  0  0  0  0  0  0
   20.5240   -3.6680    8.4590 C   0  0  0  0  0  0  0  0  0  0  0  0
   21.5950   -4.5520    8.5310 C   0  0  0  0  0  0  0  0  0  0  0  0
   22.7960   -4.3830    7.6240 C   0  0  0  0  0  0  0  0  0  0  0  0
   24.0000   -3.8010    8.3140 C   0  0  0  0  0  0  0  0  0  0  0  0
   24.4510   -4.6180    9.2690 O   0  0  0  0  0  0  0  0  0  0  0  0
   25.5610   -4.1540   10.0820 C   0  0  0  0  0  0  0  0  0  0  0  0
   24.5150   -2.7460    8.0450 O   0  0  0  0  0  0  0  0  0  0  0  0
   16.3210   -3.9990   10.0020 C   0  0  0  0  0  0  0  0  0  0  0  0
   16.9420   -4.9510   10.8380 C   0  0  0  0  0  0  0  0  0  0  0  0
   18.3220   -4.9920   11.1450 N   0  0  0  0  0  0  0  0  0  0  0  0
   14.9250   -3.9950    9.9350 C   0  0  0  0  0  0  0  0  0  0  0  0
   14.1620   -4.8580   10.7030 C   0  0  0  0  0  0  0  0  0  0  0  0
   14.7710   -5.8030   11.5220 C   0  0  0  0  0  0  0  0  0  0  0  0
   16.1620   -5.8450   11.5690 C   0  0  0  0  0  0  0  0  0  0  0  0
   14.0090   -6.6680   12.4590 C   0  0  0  0  0  0  0  0  0  0  0  0
   12.6510   -6.6510   13.0120 N   0  0  0  0  0  0  0  0  0  0  0  0
   11.5500   -5.7230   12.7590 C   0  0  0  0  0  0  0  0  0  0  0  0
   12.5940   -7.6550   13.9150 C   0  0  0  0  0  0  0  0  0  0  0  0
   13.7110   -8.3240   14.0630 N   0  0  0  0  0  0  0  0  0  0  0  0
   14.6000   -7.7400   13.1900 C   0  0  0  0  0  0  0  0  0  0  0  0
   18.6901   -1.9888    8.7497 H   0  0  0  0  0  0  0  0  0  0  0  0
   20.3913   -6.6072   10.9678 H   0  0  0  0  0  0  0  0  0  0  0  0
   22.3542   -6.3210    9.4938 H   0  0  0  0  0  0  0  0  0  0  0  0
   20.5617   -2.8342    7.7425 H   0  0  0  0  0  0  0  0  0  0  0  0
   22.5144   -3.7158    6.7960 H   0  0  0  0  0  0  0  0  0  0  0  0
   23.0796   -5.3875    7.2768 H   0  0  0  0  0  0  0  0  0  0  0  0
   25.3055   -4.2608   11.1466 H   0  0  0  0  0  0  0  0  0  0  0  0
   26.4556   -4.7535    9.8577 H   0  0  0  0  0  0  0  0  0  0  0  0
   25.7628   -3.0962    9.8577 H   0  0  0  0  0  0  0  0  0  0  0  0
   18.5871   -5.1246   12.1314 H   0  0  0  0  0  0  0  0  0  0  0  0
   14.4212   -3.2904    9.2569 H   0  0  0  0  0  0  0  0  0  0  0  0
   13.0644   -4.7958   10.6652 H   0  0  0  0  0  0  0  0  0  0  0  0
   16.6562   -6.6007   12.1972 H   0  0  0  0  0  0  0  0  0  0  0  0
   11.1366   -5.3746   13.7170 H   0  0  0  0  0  0  0  0  0  0  0  0
   11.9213   -4.8613   12.1848 H   0  0  0  0  0  0  0  0  0  0  0  0
   10.7636   -6.2348   12.1848 H   0  0  0  0  0  0  0  0  0  0  0  0
   11.6813   -7.8920   14.4814 H   0  0  0  0  0  0  0  0  0  0  0  0
   15.6448   -8.0626   13.0701 H   0  0  0  0  0  0  0  0  0  0  0  0
 10 11  1  0
 10  9  1  0
 14 11  2  0
 11 12  1  0
  8  9  1  0
  8  4  2  0
  9  7  2  0
  1  2  2  0
  3  4  1  0
  3  2  1  0
 12 13  1  0
  4  5  1  0
  2 15  1  0
  7  6  1  0
 18 15  1  0
 18 19  2  0
 15 16  2  0
  5  6  2  0
  5 17  1  0
 19 20  1  0
 16 17  1  0
 16 21  1  0
 20 21  2  0
 20 22  1  0
 22 23  1  0
 22 27  2  0
 24 23  1  0
 23 25  1  0
 27 26  1  0
 25 26  2  0
  3 28  1  0
  6 29  1  0
  7 30  1  0
  8 31  1  0
 10 32  1  0
 10 33  1  0
 13 34  1  0
 13 35  1  0
 13 36  1  0
 17 37  1  0
 18 38  1  0
 19 39  1  0
 21 40  1  0
 24 41  1  0
 24 42  1  0
 24 43  1  0
 25 44  1  0
 27 45  1  0
A    1
O2
A    2
C13
A    3
N2
A    4
C14
A    5
C6
A    6
C5
A    7
C4
A    8
C15
A    9
C3
A   10
C2
A   11
C1
A   12
O3
A   13
C20
A   14
O1
A   15
C12
A   16
C7
A   17
N1
A   18
C11
A   19
C10
A   20
C9
A   21
C8
A   22
C16
A   23
N4
A   24
C19
A   25
C18
A   26
N3
A   27
C17
M  END
