4FU7_1UP_A_305
     RDKit          3D

 35 36  0  0  0  0  0  0  0  0999 V2000
   25.5480  -20.4210    5.8190 O   0  0  0  0  0  0  0  0  0  0  0  0
   25.0660  -19.2700    5.8350 C   0  0  0  0  0  0  0  0  0  0  0  0
   25.8700  -18.1600    5.6000 N   0  0  0  0  0  0  0  0  0  0  0  0
   23.5760  -19.0620    6.1680 C   0  0  0  0  0  0  0  0  0  0  0  0
   23.0430  -17.8650    5.5890 O   0  0  0  0  0  0  0  0  0  0  0  0
   22.5130  -16.9950    6.5250 C   0  0  0  0  0  0  0  0  0  0  0  0
   23.2810  -15.9050    6.9730 C   0  0  0  0  0  0  0  0  0  0  0  0
   24.5190  -15.7580    6.3660 O   0  0  0  0  0  0  0  0  0  0  0  0
   25.5550  -15.0590    7.0650 C   0  0  0  0  0  0  0  0  0  0  0  0
   21.1760  -17.2420    7.1190 C   0  0  0  0  0  0  0  0  0  0  0  0
   20.7220  -16.3390    8.1520 C   0  0  0  0  0  0  0  0  0  0  0  0
   21.5370  -15.2510    8.5790 C   0  0  0  0  0  0  0  0  0  0  0  0
   22.7650  -15.0190    8.0180 C   0  0  0  0  0  0  0  0  0  0  0  0
   20.3210  -18.3470    6.7510 C   0  0  0  0  0  0  0  0  0  0  0  0
   19.0830  -18.5130    7.3660 C   0  0  0  0  0  0  0  0  0  0  0  0
   18.1210  -19.6110    6.9290 C   0  0  0  0  0  0  0  0  0  0  0  0
   16.8870  -19.3950    7.1020 N   0  0  0  0  0  0  0  0  0  0  0  0
   18.6390  -20.7520    6.3880 N   0  0  0  0  0  0  0  0  0  0  0  0
   18.6440  -17.5820    8.3970 C   0  0  0  0  0  0  0  0  0  0  0  0
   19.4380  -16.5320    8.7750 C   0  0  0  0  0  0  0  0  0  0  0  0
   26.2562  -17.6268    6.3921 H   0  0  0  0  0  0  0  0  0  0  0  0
   26.0793  -17.8710    4.6338 H   0  0  0  0  0  0  0  0  0  0  0  0
   23.4641  -19.0046    7.2608 H   0  0  0  0  0  0  0  0  0  0  0  0
   23.0191  -19.9119    5.7467 H   0  0  0  0  0  0  0  0  0  0  0  0
   25.4006  -15.1632    8.1491 H   0  0  0  0  0  0  0  0  0  0  0  0
   26.5324  -15.4830    6.7914 H   0  0  0  0  0  0  0  0  0  0  0  0
   25.5278  -13.9939    6.7914 H   0  0  0  0  0  0  0  0  0  0  0  0
   21.1730  -14.5844    9.3747 H   0  0  0  0  0  0  0  0  0  0  0  0
   23.3669  -14.1620    8.3547 H   0  0  0  0  0  0  0  0  0  0  0  0
   20.6498  -19.0606    5.9812 H   0  0  0  0  0  0  0  0  0  0  0  0
   16.5047  -19.3281    8.0561 H   0  0  0  0  0  0  0  0  0  0  0  0
   16.2643  -19.2860    6.2888 H   0  0  0  0  0  0  0  0  0  0  0  0
   19.6582  -20.8538    6.2793 H   0  0  0  0  0  0  0  0  0  0  0  0
   17.6644  -17.7239    8.8770 H   0  0  0  0  0  0  0  0  0  0  0  0
   19.0949  -15.8360    9.5546 H   0  0  0  0  0  0  0  0  0  0  0  0
  5  4  1  0
  5  6  1  0
  3  2  1  0
  1  2  2  0
  2  4  1  0
  8  7  1  0
  8  9  1  0
 18 16  2  3
  6  7  2  0
  6 10  1  0
 14 10  2  0
 14 15  1  0
 16 17  1  0
 16 15  1  0
  7 13  1  0
 10 11  1  0
 15 19  2  0
 13 12  2  0
 11 12  1  0
 11 20  2  0
 19 20  1  0
  3 21  1  0
  3 22  1  0
  4 23  1  0
  4 24  1  0
  9 25  1  0
  9 26  1  0
  9 27  1  0
 12 28  1  0
 13 29  1  0
 14 30  1  0
 17 31  1  0
 17 32  1  0
 18 33  1  0
 19 34  1  0
 20 35  1  0
A    1
O3
A    2
C13
A    3
N1
A    4
C12
A    5
O2
A    6
C11
A    7
C2
A    8
O1
A    9
C1
A   10
C10
A   11
C5
A   12
C4
A   13
C3
A   14
C9
A   15
C8
A   16
C14
A   17
N3
A   18
N2
A   19
C7
A   20
C6
M  END
