4FUE_7UP_A_301
     RDKit          3D

 44 47  0  0  0  0  0  0  0  0999 V2000
   -8.8350  -21.1440    6.5210 N   0  0  0  0  0  0  0  0  0  0  0  0
   -9.2700  -19.9210    7.0160 C   0  0  0  0  0  0  0  0  0  0  0  0
  -10.4720  -19.6210    7.2440 N   0  0  0  0  0  0  0  0  0  0  0  0
   -8.2550  -18.8350    7.3270 C   0  0  0  0  0  0  0  0  0  0  0  0
   -7.0130  -18.8150    6.7220 C   0  0  0  0  0  0  0  0  0  0  0  0
   -6.1020  -17.7450    6.9540 C   0  0  0  0  0  0  0  0  0  0  0  0
   -6.4740  -16.6830    7.8380 C   0  0  0  0  0  0  0  0  0  0  0  0
   -7.7750  -16.7070    8.4550 C   0  0  0  0  0  0  0  0  0  0  0  0
   -8.6490  -17.7510    8.2200 C   0  0  0  0  0  0  0  0  0  0  0  0
   -4.7970  -17.7540    6.3390 C   0  0  0  0  0  0  0  0  0  0  0  0
   -3.8940  -16.7490    6.6110 C   0  0  0  0  0  0  0  0  0  0  0  0
   -4.2480  -15.6960    7.5340 C   0  0  0  0  0  0  0  0  0  0  0  0
   -5.5140  -15.6600    8.1380 C   0  0  0  0  0  0  0  0  0  0  0  0
   -3.2580  -14.7210    7.8640 C   0  0  0  0  0  0  0  0  0  0  0  0
   -2.4410  -13.9240    8.1770 C   0  0  0  0  0  0  0  0  0  0  0  0
   -1.4780  -12.9850    8.6330 C   0  0  0  0  0  0  0  0  0  0  0  0
   -1.4060  -12.7530   10.0050 C   0  0  0  0  0  0  0  0  0  0  0  0
   -0.4660  -11.8530   10.5300 C   0  0  0  0  0  0  0  0  0  0  0  0
    0.4120  -11.1530    9.6330 C   0  0  0  0  0  0  0  0  0  0  0  0
    0.3190  -11.3870    8.2500 C   0  0  0  0  0  0  0  0  0  0  0  0
   -0.6200  -12.3070    7.7450 C   0  0  0  0  0  0  0  0  0  0  0  0
   -0.3760  -11.6980   12.0370 C   0  0  0  0  0  0  0  0  0  0  0  0
    0.8030  -10.8200   12.5510 C   0  0  0  0  0  0  0  0  0  0  0  0
    1.8960  -10.5960   11.5720 N   0  0  0  0  0  0  0  0  0  0  0  0
    1.4510  -10.2020   10.2060 C   0  0  0  0  0  0  0  0  0  0  0  0
   -8.5672  -21.8968    7.1710 H   0  0  0  0  0  0  0  0  0  0  0  0
   -8.7803  -21.2979    5.5040 H   0  0  0  0  0  0  0  0  0  0  0  0
  -10.7092  -18.6887    7.6121 H   0  0  0  0  0  0  0  0  0  0  0  0
   -6.7235  -19.6375    6.0514 H   0  0  0  0  0  0  0  0  0  0  0  0
   -8.0763  -15.8849    9.1209 H   0  0  0  0  0  0  0  0  0  0  0  0
   -9.6368  -17.7646    8.7038 H   0  0  0  0  0  0  0  0  0  0  0  0
   -4.5216  -18.5663    5.6502 H   0  0  0  0  0  0  0  0  0  0  0  0
   -2.9064  -16.7488    6.1265 H   0  0  0  0  0  0  0  0  0  0  0  0
   -5.7692  -14.8511    8.8383 H   0  0  0  0  0  0  0  0  0  0  0  0
   -2.0928  -13.2805   10.6833 H   0  0  0  0  0  0  0  0  0  0  0  0
    0.9835  -10.8484    7.5583 H   0  0  0  0  0  0  0  0  0  0  0  0
   -0.6831  -12.4952    6.6631 H   0  0  0  0  0  0  0  0  0  0  0  0
   -1.3146  -11.2442   12.3877 H   0  0  0  0  0  0  0  0  0  0  0  0
   -0.1964  -12.7078   12.4344 H   0  0  0  0  0  0  0  0  0  0  0  0
    1.2336  -11.3121   13.4356 H   0  0  0  0  0  0  0  0  0  0  0  0
    0.3759   -9.8291   12.7647 H   0  0  0  0  0  0  0  0  0  0  0  0
    2.4364  -11.4692   11.4919 H   0  0  0  0  0  0  0  0  0  0  0  0
    2.3259  -10.1927    9.5393 H   0  0  0  0  0  0  0  0  0  0  0  0
    0.9874   -9.2072   10.2804 H   0  0  0  0  0  0  0  0  0  0  0  0
 10 11  1  0
 10  6  2  0
  3  2  2  3
 11 12  2  0
  5  6  1  0
  5  4  2  0
  6  7  1  0
  2  1  1  0
  2  4  1  0
  4  9  1  0
 12 14  1  0
 12 13  1  0
 21 20  2  0
 21 16  1  0
  7 13  2  0
  7  8  1  0
 14 15  3  0
 15 16  1  0
  9  8  2  0
 20 19  1  0
 16 17  2  0
 19 25  1  0
 19 18  2  0
 17 18  1  0
 25 24  1  0
 18 22  1  0
 24 23  1  0
 22 23  1  0
  1 26  1  0
  1 27  1  0
  3 28  1  0
  5 29  1  0
  8 30  1  0
  9 31  1  0
 10 32  1  0
 11 33  1  0
 13 34  1  0
 17 35  1  0
 20 36  1  0
 21 37  1  0
 22 38  1  0
 22 39  1  0
 23 40  1  0
 23 41  1  0
 24 42  1  0
 25 43  1  0
 25 44  1  0
A    1
N2
A    2
C1
A    3
N1
A    4
C2
A    5
C11
A    6
C10
A    7
C5
A    8
C4
A    9
C3
A   10
C9
A   11
C8
A   12
C7
A   13
C6
A   14
C12
A   15
C13
A   16
C14
A   17
C22
A   18
C21
A   19
C17
A   20
C16
A   21
C15
A   22
C20
A   23
C19
A   24
N3
A   25
C18
M  END
