4FUJ_1U9_A_301
     RDKit          3D

 44 46  0  0  0  0  0  0  0  0999 V2000
    0.3680   -9.8220    4.4190 O   0  0  0  0  0  0  0  0  0  0  0  0
    1.0130   -9.5030    5.6390 C   0  0  0  0  0  0  0  0  0  0  0  0
    1.4950  -10.8610    6.2590 C   0  0  0  0  0  0  0  0  0  0  0  0
    0.4840  -11.3510    7.2510 C   0  0  0  0  0  0  0  0  0  0  0  0
    0.3490  -10.7050    8.4980 C   0  0  0  0  0  0  0  0  0  0  0  0
   -0.5760  -11.1820    9.4220 C   0  0  0  0  0  0  0  0  0  0  0  0
   -1.3910  -12.2830    9.1120 C   0  0  0  0  0  0  0  0  0  0  0  0
   -0.3300  -12.4780    6.9290 C   0  0  0  0  0  0  0  0  0  0  0  0
   -1.2890  -12.9470    7.8550 C   0  0  0  0  0  0  0  0  0  0  0  0
   -2.2200  -13.9920    7.3920 C   0  0  0  0  0  0  0  0  0  0  0  0
   -3.4180  -14.2810    7.9630 C   0  0  0  0  0  0  0  0  0  0  0  0
   -4.3620  -15.3630    7.5640 C   0  0  0  0  0  0  0  0  0  0  0  0
   -5.5880  -15.4520    8.2110 C   0  0  0  0  0  0  0  0  0  0  0  0
   -3.9920  -16.3890    6.5850 C   0  0  0  0  0  0  0  0  0  0  0  0
   -4.8540  -17.4270    6.3090 C   0  0  0  0  0  0  0  0  0  0  0  0
   -6.1530  -17.4890    6.9660 C   0  0  0  0  0  0  0  0  0  0  0  0
   -6.5130  -16.4770    7.9100 C   0  0  0  0  0  0  0  0  0  0  0  0
   -7.8050  -16.5370    8.5730 C   0  0  0  0  0  0  0  0  0  0  0  0
   -8.6560  -17.5800    8.3250 C   0  0  0  0  0  0  0  0  0  0  0  0
   -7.0660  -18.5490    6.6980 C   0  0  0  0  0  0  0  0  0  0  0  0
   -8.2820  -18.6100    7.3520 C   0  0  0  0  0  0  0  0  0  0  0  0
   -9.2940  -19.6900    7.0180 C   0  0  0  0  0  0  0  0  0  0  0  0
   -8.8730  -20.9590    6.6200 N   0  0  0  0  0  0  0  0  0  0  0  0
  -10.4820  -19.3520    7.1860 N   0  0  0  0  0  0  0  0  0  0  0  0
   -0.5029  -10.2527    4.6089 H   0  0  0  0  0  0  0  0  0  0  0  0
    1.8739   -8.8441    5.4523 H   0  0  0  0  0  0  0  0  0  0  0  0
    0.3315   -8.9746    6.3219 H   0  0  0  0  0  0  0  0  0  0  0  0
    1.6133  -11.6066    5.4589 H   0  0  0  0  0  0  0  0  0  0  0  0
    2.4587  -10.7077    6.7668 H   0  0  0  0  0  0  0  0  0  0  0  0
    0.9708   -9.8300    8.7384 H   0  0  0  0  0  0  0  0  0  0  0  0
   -0.6695  -10.6928   10.4028 H   0  0  0  0  0  0  0  0  0  0  0  0
   -2.1216  -12.6395    9.8531 H   0  0  0  0  0  0  0  0  0  0  0  0
   -0.2108  -12.9823    5.9587 H   0  0  0  0  0  0  0  0  0  0  0  0
   -1.9208  -14.5845    6.5148 H   0  0  0  0  0  0  0  0  0  0  0  0
   -3.7240  -13.6493    8.8100 H   0  0  0  0  0  0  0  0  0  0  0  0
   -5.8453  -14.7057    8.9770 H   0  0  0  0  0  0  0  0  0  0  0  0
   -3.0224  -16.3298    6.0689 H   0  0  0  0  0  0  0  0  0  0  0  0
   -4.5619  -18.2091    5.5927 H   0  0  0  0  0  0  0  0  0  0  0  0
   -8.0994  -15.7430    9.2751 H   0  0  0  0  0  0  0  0  0  0  0  0
   -9.6179  -17.6449    8.8546 H   0  0  0  0  0  0  0  0  0  0  0  0
   -6.8012  -19.3251    5.9648 H   0  0  0  0  0  0  0  0  0  0  0  0
   -8.6374  -21.6690    7.3280 H   0  0  0  0  0  0  0  0  0  0  0  0
   -8.7977  -21.1859    5.6181 H   0  0  0  0  0  0  0  0  0  0  0  0
  -10.7072  -18.3915    7.4819 H   0  0  0  0  0  0  0  0  0  0  0  0
  1  2  1  0
  2  3  1  0
  3  4  1  0
 15 14  2  0
 15 16  1  0
 14 12  1  0
 24 22  2  3
 20 16  1  0
 20 21  2  0
  8  4  2  0
  8  9  1  0
 16 17  2  0
 22 23  1  0
 22 21  1  0
  4  5  1  0
 21 19  1  0
 10  9  1  0
 10 11  2  0
 12 11  1  0
 12 13  2  0
  9  7  2  0
 17 13  1  0
 17 18  1  0
 19 18  2  0
  5  6  2  0
  7  6  1  0
  1 25  1  0
  2 26  1  0
  2 27  1  0
  3 28  1  0
  3 29  1  0
  5 30  1  0
  6 31  1  0
  7 32  1  0
  8 33  1  0
 10 34  1  0
 11 35  1  0
 13 36  1  0
 14 37  1  0
 15 38  1  0
 18 39  1  0
 19 40  1  0
 20 41  1  0
 23 42  1  0
 23 43  1  0
 24 44  1  0
A    1
O
A    2
C16
A    3
C15
A    4
C14
A    5
C13
A    6
C12
A    7
C11
A    8
C17
A    9
C10
A   10
C9
A   11
C8
A   12
C7
A   13
C6
A   14
C18
A   15
C19
A   16
C20
A   17
C5
A   18
C4
A   19
C3
A   20
C21
A   21
C2
A   22
C1
A   23
N2
A   24
N1
M  END
