4FUX_E75_A_401
     RDKit          3D

 48 51  0  0  0  0  0  0  0  0999 V2000
   22.5340   10.0000   11.1940 O   0  0  0  0  0  0  0  0  0  0  0  0
   23.6450    9.6190   12.0110 C   0  0  0  0  0  0  0  0  0  0  0  0
   24.1270    8.2520   11.5850 C   0  0  0  0  0  0  0  0  0  0  0  0
   23.0930    7.1740   11.9030 C   0  0  0  0  0  0  0  0  0  0  0  0
   23.2530    9.6290   13.4730 C   0  0  0  0  0  0  0  0  0  0  0  0
   23.4360    8.2580   14.1270 C   0  0  0  0  0  0  0  0  0  0  0  0
   22.7080    7.1670   13.3700 C   0  0  0  0  0  0  0  0  0  0  0  0
   22.9760    5.8610   13.9750 N   0  0  0  0  0  0  0  0  0  0  0  0
   22.1820    5.2800   14.8880 C   0  0  0  0  0  0  0  0  0  0  0  0
   21.1230    5.9940   15.2840 N   0  0  0  0  0  0  0  0  0  0  0  0
   22.4040    3.9930   15.1920 N   0  0  0  0  0  0  0  0  0  0  0  0
   21.4270    3.3850   15.8860 C   0  0  0  0  0  0  0  0  0  0  0  0
   20.2630    4.0050   16.3000 C   0  0  0  0  0  0  0  0  0  0  0  0
   20.1670    5.3480   15.9630 C   0  0  0  0  0  0  0  0  0  0  0  0
   18.9850    6.2080   16.2370 C   0  0  0  0  0  0  0  0  0  0  0  0
   18.5090    7.2280   15.4760 C   0  0  0  0  0  0  0  0  0  0  0  0
   18.9440    7.8610   14.2070 C   0  0  0  0  0  0  0  0  0  0  0  0
   17.4120    7.7540   16.0550 O   0  0  0  0  0  0  0  0  0  0  0  0
   18.0840    6.1560   17.3560 C   0  0  0  0  0  0  0  0  0  0  0  0
   17.1490    7.0550   17.2620 N   0  0  0  0  0  0  0  0  0  0  0  0
   18.1040    5.2600   18.5270 C   0  0  0  0  0  0  0  0  0  0  0  0
   16.9650    4.5510   18.8950 C   0  0  0  0  0  0  0  0  0  0  0  0
   17.0110    3.6510   19.9460 C   0  0  0  0  0  0  0  0  0  0  0  0
   18.1880    3.4410   20.6290 C   0  0  0  0  0  0  0  0  0  0  0  0
   19.3170    4.1440   20.2790 C   0  0  0  0  0  0  0  0  0  0  0  0
   19.2790    5.0560   19.2390 C   0  0  0  0  0  0  0  0  0  0  0  0
   21.7736   10.2608   11.7718 H   0  0  0  0  0  0  0  0  0  0  0  0
   24.4643   10.3416   11.8820 H   0  0  0  0  0  0  0  0  0  0  0  0
   25.0615    8.0199   12.1169 H   0  0  0  0  0  0  0  0  0  0  0  0
   24.2907    8.2654   10.4973 H   0  0  0  0  0  0  0  0  0  0  0  0
   22.1913    7.3588   11.3006 H   0  0  0  0  0  0  0  0  0  0  0  0
   23.5387    6.1968   11.6653 H   0  0  0  0  0  0  0  0  0  0  0  0
   23.8794   10.3614   14.0032 H   0  0  0  0  0  0  0  0  0  0  0  0
   22.1876    9.8952   13.5364 H   0  0  0  0  0  0  0  0  0  0  0  0
   23.0447    8.2994   15.1542 H   0  0  0  0  0  0  0  0  0  0  0  0
   24.5096    8.0185   14.1197 H   0  0  0  0  0  0  0  0  0  0  0  0
   21.6276    7.3636   13.4337 H   0  0  0  0  0  0  0  0  0  0  0  0
   23.8255    5.3574   13.6822 H   0  0  0  0  0  0  0  0  0  0  0  0
   21.5625    2.3237   16.1415 H   0  0  0  0  0  0  0  0  0  0  0  0
   19.4739    3.4751   16.8536 H   0  0  0  0  0  0  0  0  0  0  0  0
   19.5540    8.7487   14.4303 H   0  0  0  0  0  0  0  0  0  0  0  0
   19.5405    7.1432   13.6248 H   0  0  0  0  0  0  0  0  0  0  0  0
   18.0601    8.1605   13.6248 H   0  0  0  0  0  0  0  0  0  0  0  0
   16.0232    4.7062   18.3482 H   0  0  0  0  0  0  0  0  0  0  0  0
   16.1035    3.1014   20.2366 H   0  0  0  0  0  0  0  0  0  0  0  0
   18.2252    2.7127   21.4526 H   0  0  0  0  0  0  0  0  0  0  0  0
   20.2555    3.9804   20.8289 H   0  0  0  0  0  0  0  0  0  0  0  0
   20.1842    5.6224   18.9747 H   0  0  0  0  0  0  0  0  0  0  0  0
  1  2  1  0
  3  4  1  0
  3  2  1  0
  4  7  1  0
  2  5  1  0
  7  8  1  0
  7  6  1  0
  5  6  1  0
  8  9  1  0
 17 16  1  0
  9 11  1  0
  9 10  2  0
 11 12  2  0
 10 14  1  0
 16 18  1  0
 16 15  2  0
 12 13  1  0
 14 15  1  0
 14 13  2  0
 18 20  1  0
 15 19  1  0
 20 19  2  0
 19 21  1  0
 21 22  2  0
 21 26  1  0
 22 23  1  0
 26 25  2  0
 23 24  2  0
 25 24  1  0
  1 27  1  0
  2 28  1  0
  3 29  1  0
  3 30  1  0
  4 31  1  0
  4 32  1  0
  5 33  1  0
  5 34  1  0
  6 35  1  0
  6 36  1  0
  7 37  1  0
  8 38  1  0
 12 39  1  0
 13 40  1  0
 17 41  1  0
 17 42  1  0
 17 43  1  0
 22 44  1  0
 23 45  1  0
 24 46  1  0
 25 47  1  0
 26 48  1  0
A    1
O2
A    2
C10
A    3
C9
A    4
C8
A    5
C11
A    6
C12
A    7
C7
A    8
N4
A    9
C4
A   10
N2
A   11
N3
A   12
C5
A   13
C6
A   14
C3
A   15
C2
A   16
C13
A   17
C14
A   18
O1
A   19
C1
A   20
N1
A   21
C15
A   22
C20
A   23
C19
A   24
C18
A   25
C17
A   26
C16
M  END
