4FV2_EK5_A_401
     RDKit          3D

 49 53  0  0  0  0  0  0  0  0999 V2000
   15.0970    3.7310   17.9030 O   0  0  0  0  0  0  0  0  0  0  0  0
   15.7910    4.3180   17.0730 C   0  0  0  0  0  0  0  0  0  0  0  0
   15.2830    5.1670   16.1770 N   0  0  0  0  0  0  0  0  0  0  0  0
   13.9150    5.6590   16.2420 C   0  0  0  0  0  0  0  0  0  0  0  0
   13.6820    6.6870   17.3210 C   0  0  0  0  0  0  0  0  0  0  0  0
   14.6710    7.6150   17.6690 C   0  0  0  0  0  0  0  0  0  0  0  0
   14.4520    8.5770   18.6440 C   0  0  0  0  0  0  0  0  0  0  0  0
   13.2140    8.6120   19.2680 C   0  0  0  0  0  0  0  0  0  0  0  0
   12.7640    9.4970   20.2200 O   0  0  0  0  0  0  0  0  0  0  0  0
   11.3970    9.1600   20.5920 C   0  0  0  0  0  0  0  0  0  0  0  0
   10.9580    7.9820   19.7310 C   0  0  0  0  0  0  0  0  0  0  0  0
   12.2170    7.7090   18.9510 C   0  0  0  0  0  0  0  0  0  0  0  0
   12.4590    6.7450   17.9850 C   0  0  0  0  0  0  0  0  0  0  0  0
   17.2460    4.0790   16.9950 C   0  0  0  0  0  0  0  0  0  0  0  0
   18.1990    4.5710   16.1390 C   0  0  0  0  0  0  0  0  0  0  0  0
   17.8380    3.1890   17.8590 N   0  0  0  0  0  0  0  0  0  0  0  0
   19.1590    3.1190   17.5550 C   0  0  0  0  0  0  0  0  0  0  0  0
   19.4330    3.9350   16.4740 C   0  0  0  0  0  0  0  0  0  0  0  0
   20.6340    4.2150   15.8720 C   0  0  0  0  0  0  0  0  0  0  0  0
   21.7410    3.4580   16.0270 N   0  0  0  0  0  0  0  0  0  0  0  0
   22.8470    3.9440   15.3910 N   0  0  0  0  0  0  0  0  0  0  0  0
   22.4590    5.0950   14.8550 C   0  0  0  0  0  0  0  0  0  0  0  0
   21.1010    5.3710   15.0940 C   0  0  0  0  0  0  0  0  0  0  0  0
   20.4320    6.6340   14.6840 C   0  0  0  0  0  0  0  0  0  0  0  0
   19.6390    7.3310   15.5930 C   0  0  0  0  0  0  0  0  0  0  0  0
   20.5610    7.1230   13.3880 C   0  0  0  0  0  0  0  0  0  0  0  0
   19.9040    8.2850   13.0100 C   0  0  0  0  0  0  0  0  0  0  0  0
   19.0950    8.9660   13.9110 C   0  0  0  0  0  0  0  0  0  0  0  0
   18.9720    8.4670   15.1890 C   0  0  0  0  0  0  0  0  0  0  0  0
   17.9000    9.2610   16.3110 Cl  0  0  0  0  0  0  0  0  0  0  0  0
   15.8856    5.4880   15.4058 H   0  0  0  0  0  0  0  0  0  0  0  0
   13.6646    6.1132   15.2720 H   0  0  0  0  0  0  0  0  0  0  0  0
   13.2779    4.7953   16.4832 H   0  0  0  0  0  0  0  0  0  0  0  0
   15.6442    7.5804   17.1574 H   0  0  0  0  0  0  0  0  0  0  0  0
   15.2406    9.2942   18.9155 H   0  0  0  0  0  0  0  0  0  0  0  0
   10.7370   10.0215   20.4125 H   0  0  0  0  0  0  0  0  0  0  0  0
   11.3422    8.8981   21.6590 H   0  0  0  0  0  0  0  0  0  0  0  0
   10.1237    8.2552   19.0682 H   0  0  0  0  0  0  0  0  0  0  0  0
   10.5826    7.1195   20.3012 H   0  0  0  0  0  0  0  0  0  0  0  0
   11.6737    6.0150   17.7391 H   0  0  0  0  0  0  0  0  0  0  0  0
   18.0420    5.3152   15.3443 H   0  0  0  0  0  0  0  0  0  0  0  0
   17.3617    2.6658   18.6075 H   0  0  0  0  0  0  0  0  0  0  0  0
   19.8997    2.5053   18.0886 H   0  0  0  0  0  0  0  0  0  0  0  0
   21.7504    2.5879   16.5781 H   0  0  0  0  0  0  0  0  0  0  0  0
   23.1263    5.7595   14.2866 H   0  0  0  0  0  0  0  0  0  0  0  0
   19.5457    6.9756   16.6298 H   0  0  0  0  0  0  0  0  0  0  0  0
   21.1866    6.5860   12.6598 H   0  0  0  0  0  0  0  0  0  0  0  0
   20.0248    8.6708   11.9870 H   0  0  0  0  0  0  0  0  0  0  0  0
   18.5652    9.8821   13.6109 H   0  0  0  0  0  0  0  0  0  0  0  0
 27 26  2  0
 27 28  1  0
 26 24  1  0
 28 29  2  0
 24 23  1  0
 24 25  2  0
 22 23  1  0
 22 21  2  0
 23 19  2  0
 29 25  1  0
 29 30  1  0
 21 20  1  0
 19 20  1  0
 19 18  1  0
 15 18  1  0
 15 14  2  0
  3  4  1  0
  3  2  1  0
  4  5  1  0
 18 17  2  0
 14  2  1  0
 14 16  1  0
  2  1  2  0
  5  6  2  0
  5 13  1  0
 17 16  1  0
  6  7  1  0
 13 12  2  0
  7  8  2  0
 12  8  1  0
 12 11  1  0
  8  9  1  0
 11 10  1  0
  9 10  1  0
  3 31  1  0
  4 32  1  0
  4 33  1  0
  6 34  1  0
  7 35  1  0
 10 36  1  0
 10 37  1  0
 11 38  1  0
 11 39  1  0
 13 40  1  0
 15 41  1  0
 16 42  1  0
 17 43  1  0
 20 44  1  0
 22 45  1  0
 25 46  1  0
 26 47  1  0
 27 48  1  0
 28 49  1  0
A    1
O1
A    2
C14
A    3
N4
A    4
C15
A    5
C16
A    6
C23
A    7
C22
A    8
C21
A    9
O2
A   10
C20
A   11
C19
A   12
C18
A   13
C17
A   14
C12
A   15
C11
A   16
N3
A   17
C13
A   18
C10
A   19
C9
A   20
N2
A   21
N1
A   22
C8
A   23
C7
A   24
C3
A   25
C2
A   26
C4
A   27
C5
A   28
C6
A   29
C1
A   30
CL
M  END
