4FV4_EK7_A_401
     RDKit          3D

 43 46  0  0  0  0  0  0  0  0999 V2000
  -10.3640    2.1630   14.4870 N   0  0  0  0  0  0  0  0  0  0  0  0
  -11.4270    2.4610   14.7790 C   0  0  0  0  0  0  0  0  0  0  0  0
  -12.7760    2.7900   15.1180 C   0  0  0  0  0  0  0  0  0  0  0  0
  -13.9020    2.2080   14.6370 C   0  0  0  0  0  0  0  0  0  0  0  0
  -13.9410    1.1160   13.6000 C   0  0  0  0  0  0  0  0  0  0  0  0
  -15.2540    1.0990   12.8360 C   0  0  0  0  0  0  0  0  0  0  0  0
  -16.4510    1.3060   13.7310 C   0  0  0  0  0  0  0  0  0  0  0  0
  -16.4030    2.1660   14.8330 C   0  0  0  0  0  0  0  0  0  0  0  0
  -15.1100    2.7340   15.2450 C   0  0  0  0  0  0  0  0  0  0  0  0
  -14.8220    3.7100   16.1760 C   0  0  0  0  0  0  0  0  0  0  0  0
  -15.6180    4.4060   17.0360 N   0  0  0  0  0  0  0  0  0  0  0  0
  -15.7950    4.0100   18.4310 C   0  0  0  0  0  0  0  0  0  0  0  0
  -16.3260    5.6050   16.6060 C   0  0  0  0  0  0  0  0  0  0  0  0
  -13.1150    4.0040   16.3060 S   0  0  0  0  0  0  0  0  0  0  0  0
  -17.6700    0.7190   13.4880 C   0  0  0  0  0  0  0  0  0  0  0  0
  -18.7820    0.9590   14.1930 N   0  0  0  0  0  0  0  0  0  0  0  0
  -18.6580    1.8290   15.2060 C   0  0  0  0  0  0  0  0  0  0  0  0
  -17.5050    2.4280   15.5600 N   0  0  0  0  0  0  0  0  0  0  0  0
  -19.8000    2.1260   15.8780 N   0  0  0  0  0  0  0  0  0  0  0  0
  -20.1200    2.8310   17.0580 C   0  0  0  0  0  0  0  0  0  0  0  0
  -19.1770    3.1160   18.0380 C   0  0  0  0  0  0  0  0  0  0  0  0
  -19.4910    3.9890   19.0690 C   0  0  0  0  0  0  0  0  0  0  0  0
  -20.7430    4.5850   19.1370 C   0  0  0  0  0  0  0  0  0  0  0  0
  -21.6930    4.2780   18.1730 C   0  0  0  0  0  0  0  0  0  0  0  0
  -22.9420    4.8420   18.1990 O   0  0  0  0  0  0  0  0  0  0  0  0
  -21.3880    3.4030   17.1440 C   0  0  0  0  0  0  0  0  0  0  0  0
  -13.8101    0.1458   14.1016 H   0  0  0  0  0  0  0  0  0  0  0  0
  -13.1323    1.3052   12.8788 H   0  0  0  0  0  0  0  0  0  0  0  0
  -15.2340    1.9014   12.0839 H   0  0  0  0  0  0  0  0  0  0  0  0
  -15.3547    0.1075   12.3703 H   0  0  0  0  0  0  0  0  0  0  0  0
  -15.4353    4.8147   19.0891 H   0  0  0  0  0  0  0  0  0  0  0  0
  -16.8614    3.8250   18.6272 H   0  0  0  0  0  0  0  0  0  0  0  0
  -15.2215    3.0920   18.6272 H   0  0  0  0  0  0  0  0  0  0  0  0
  -16.6597    6.1702   17.4887 H   0  0  0  0  0  0  0  0  0  0  0  0
  -15.6530    6.2316   16.0024 H   0  0  0  0  0  0  0  0  0  0  0  0
  -17.1997    5.3183   16.0024 H   0  0  0  0  0  0  0  0  0  0  0  0
  -17.7361    0.0022   12.6563 H   0  0  0  0  0  0  0  0  0  0  0  0
  -20.6361    1.7438   15.4135 H   0  0  0  0  0  0  0  0  0  0  0  0
  -18.1818    2.6494   17.9961 H   0  0  0  0  0  0  0  0  0  0  0  0
  -18.7399    4.2116   19.8412 H   0  0  0  0  0  0  0  0  0  0  0  0
  -20.9793    5.2924   19.9456 H   0  0  0  0  0  0  0  0  0  0  0  0
  -23.3782    5.0390   19.0656 H   0  0  0  0  0  0  0  0  0  0  0  0
  -22.1508    3.1580   16.3902 H   0  0  0  0  0  0  0  0  0  0  0  0
  6  5  1  0
  6  7  1  0
 15  7  1  0
 15 16  2  0
  5  4  1  0
  7  8  2  0
 16 17  1  0
  1  2  3  0
  4  3  2  0
  4  9  1  0
  2  3  1  0
  8  9  1  0
  8 18  1  0
  3 14  1  0
 17 18  2  0
 17 19  1  0
  9 10  2  0
 19 20  1  0
 10 14  1  0
 10 11  1  0
 13 11  1  0
 11 12  1  0
 20 26  1  0
 20 21  2  0
 26 24  2  0
 21 22  1  0
 24 25  1  0
 24 23  1  0
 22 23  2  0
  5 27  1  0
  5 28  1  0
  6 29  1  0
  6 30  1  0
 12 31  1  0
 12 32  1  0
 12 33  1  0
 13 34  1  0
 13 35  1  0
 13 36  1  0
 15 37  1  0
 19 38  1  0
 21 39  1  0
 22 40  1  0
 23 41  1  0
 25 42  1  0
 26 43  1  0
A    1
N5
A    2
C19
A    3
C1
A    4
C2
A    5
C9
A    6
C8
A    7
C7
A    8
C4
A    9
C3
A   10
C16
A   11
N4
A   12
C18
A   13
C17
A   14
S
A   15
C6
A   16
N2
A   17
C5
A   18
N1
A   19
N3
A   20
C10
A   21
C15
A   22
C14
A   23
C13
A   24
C12
A   25
O
A   26
C11
M  END
