4FV5_EK9_A_401
     RDKit          3D

 52 55  0  0  0  0  0  0  0  0999 V2000
   -9.7500    2.7520   12.6860 O   0  0  0  0  0  0  0  0  0  0  0  0
  -10.3940    3.1850   13.6560 C   0  0  0  0  0  0  0  0  0  0  0  0
   -9.8250    4.1070   14.5720 N   0  0  0  0  0  0  0  0  0  0  0  0
   -8.4190    4.4710   14.5440 C   0  0  0  0  0  0  0  0  0  0  0  0
   -8.1060    5.6170   13.6090 C   0  0  0  0  0  0  0  0  0  0  0  0
   -6.7550    5.8210   13.2670 C   0  0  0  0  0  0  0  0  0  0  0  0
   -6.3930    6.8910   12.4520 C   0  0  0  0  0  0  0  0  0  0  0  0
   -7.3680    7.7630   11.9530 C   0  0  0  0  0  0  0  0  0  0  0  0
   -8.7190    7.5640   12.2690 C   0  0  0  0  0  0  0  0  0  0  0  0
   -9.0910    6.5010   13.0980 C   0  0  0  0  0  0  0  0  0  0  0  0
   -8.0260    4.9530   15.9700 C   0  0  0  0  0  0  0  0  0  0  0  0
   -8.3400    3.9960   16.9340 O   0  0  0  0  0  0  0  0  0  0  0  0
  -11.7510    2.7700   13.9460 C   0  0  0  0  0  0  0  0  0  0  0  0
  -12.6910    2.1250   13.1320 C   0  0  0  0  0  0  0  0  0  0  0  0
  -13.9390    2.1320   13.7970 C   0  0  0  0  0  0  0  0  0  0  0  0
  -13.7090    2.7740   15.0370 C   0  0  0  0  0  0  0  0  0  0  0  0
  -12.4090    3.1420   15.1250 N   0  0  0  0  0  0  0  0  0  0  0  0
  -15.2850    1.6900   13.3780 C   0  0  0  0  0  0  0  0  0  0  0  0
  -15.6330    1.0100   12.1570 C   0  0  0  0  0  0  0  0  0  0  0  0
  -14.7450    0.5040   11.1130 C   0  0  0  0  0  0  0  0  0  0  0  0
  -17.0510    0.8280   12.0220 C   0  0  0  0  0  0  0  0  0  0  0  0
  -18.0110    1.2200   12.8460 N   0  0  0  0  0  0  0  0  0  0  0  0
  -17.5750    1.8960   14.0410 C   0  0  0  0  0  0  0  0  0  0  0  0
  -16.1960    2.0840   14.2720 N   0  0  0  0  0  0  0  0  0  0  0  0
  -18.4750    2.3480   15.0190 C   0  0  0  0  0  0  0  0  0  0  0  0
  -18.0410    2.8420   16.3260 C   0  0  0  0  0  0  0  0  0  0  0  0
  -18.9450    3.2240   17.2900 C   0  0  0  0  0  0  0  0  0  0  0  0
  -20.3380    3.1700   17.0730 C   0  0  0  0  0  0  0  0  0  0  0  0
  -20.7850    2.6910   15.8290 C   0  0  0  0  0  0  0  0  0  0  0  0
  -19.9080    2.2890   14.8430 C   0  0  0  0  0  0  0  0  0  0  0  0
  -10.4328    4.5351   15.2849 H   0  0  0  0  0  0  0  0  0  0  0  0
   -7.8673    3.5839   14.1995 H   0  0  0  0  0  0  0  0  0  0  0  0
   -5.9837    5.1335   13.6445 H   0  0  0  0  0  0  0  0  0  0  0  0
   -5.3347    7.0518   12.1989 H   0  0  0  0  0  0  0  0  0  0  0  0
   -7.0731    8.6064   11.3114 H   0  0  0  0  0  0  0  0  0  0  0  0
   -9.4851    8.2426   11.8657 H   0  0  0  0  0  0  0  0  0  0  0  0
  -10.1499    6.3499   13.3545 H   0  0  0  0  0  0  0  0  0  0  0  0
   -6.9435    5.1466   15.9969 H   0  0  0  0  0  0  0  0  0  0  0  0
   -8.5916    5.8694   16.1943 H   0  0  0  0  0  0  0  0  0  0  0  0
   -8.2131    4.3827   17.8365 H   0  0  0  0  0  0  0  0  0  0  0  0
  -12.4920    1.6871   12.1427 H   0  0  0  0  0  0  0  0  0  0  0  0
  -14.4705    2.9476   15.8115 H   0  0  0  0  0  0  0  0  0  0  0  0
  -11.9746    3.6181   15.9284 H   0  0  0  0  0  0  0  0  0  0  0  0
  -13.8783    0.0101   11.5765 H   0  0  0  0  0  0  0  0  0  0  0  0
  -15.2887   -0.2199   10.4882 H   0  0  0  0  0  0  0  0  0  0  0  0
  -14.3994    1.3408   10.4882 H   0  0  0  0  0  0  0  0  0  0  0  0
  -17.3823    0.2948   11.1187 H   0  0  0  0  0  0  0  0  0  0  0  0
  -16.9648    2.9097   16.5433 H   0  0  0  0  0  0  0  0  0  0  0  0
  -18.5702    3.5826   18.2600 H   0  0  0  0  0  0  0  0  0  0  0  0
  -21.0486    3.4910   17.8489 H   0  0  0  0  0  0  0  0  0  0  0  0
  -21.8665    2.6351   15.6362 H   0  0  0  0  0  0  0  0  0  0  0  0
  -20.3125    1.9114   13.8923 H   0  0  0  0  0  0  0  0  0  0  0  0
 20 19  1  0
  8  9  2  0
  8  7  1  0
 21 19  2  0
 21 22  1  0
 19 18  1  0
  9 10  1  0
  7  6  2  0
  1  2  2  0
 22 23  2  0
 10  5  2  0
 14 15  1  0
 14 13  2  0
  6  5  1  0
 18 15  1  0
 18 24  2  0
  5  4  1  0
  2 13  1  0
  2  3  1  0
 15 16  2  0
 13 17  1  0
 23 24  1  0
 23 25  1  0
  4  3  1  0
  4 11  1  0
 30 25  1  0
 30 29  2  0
 25 26  2  0
 16 17  1  0
 29 28  1  0
 11 12  1  0
 26 27  1  0
 28 27  2  0
  3 31  1  0
  4 32  1  0
  6 33  1  0
  7 34  1  0
  8 35  1  0
  9 36  1  0
 10 37  1  0
 11 38  1  0
 11 39  1  0
 12 40  1  0
 14 41  1  0
 16 42  1  0
 17 43  1  0
 20 44  1  0
 20 45  1  0
 20 46  1  0
 21 47  1  0
 26 48  1  0
 27 49  1  0
 28 50  1  0
 29 51  1  0
 30 52  1  0
A    1
O2
A    2
C3
A    3
N1
A    4
C2
A    5
C19
A    6
C24
A    7
C23
A    8
C22
A    9
C21
A   10
C20
A   11
C1
A   12
O1
A   13
C4
A   14
C7
A   15
C6
A   16
C5
A   17
N2
A   18
C8
A   19
C11
A   20
C12
A   21
C10
A   22
N4
A   23
C9
A   24
N3
A   25
C13
A   26
C18
A   27
C17
A   28
C16
A   29
C15
A   30
C14
M  END
