4FV7_E94_A_401
     RDKit          3D

 64 68  0  0  0  0  0  0  0  0999 V2000
   13.0230    5.1630   17.1880 N   0  0  0  0  0  0  0  0  0  0  0  0
   14.0980    5.2760   16.8170 C   0  0  0  0  0  0  0  0  0  0  0  0
   15.4250    5.4130   16.2970 C   0  0  0  0  0  0  0  0  0  0  0  0
   16.6160    4.8290   16.8470 C   0  0  0  0  0  0  0  0  0  0  0  0
   16.6300    4.2120   18.2040 C   0  0  0  0  0  0  0  0  0  0  0  0
   15.6100    3.3500   18.5980 C   0  0  0  0  0  0  0  0  0  0  0  0
   17.6820    4.4650   19.0830 C   0  0  0  0  0  0  0  0  0  0  0  0
   17.7160    3.8530   20.3270 C   0  0  0  0  0  0  0  0  0  0  0  0
   16.6930    3.0060   20.7220 C   0  0  0  0  0  0  0  0  0  0  0  0
   15.6410    2.7830   19.8550 C   0  0  0  0  0  0  0  0  0  0  0  0
   14.3180    1.7700   20.3600 Cl  0  0  0  0  0  0  0  0  0  0  0  0
   15.6430    6.1190   15.0920 C   0  0  0  0  0  0  0  0  0  0  0  0
   14.6910    6.7560   14.3030 N   0  0  0  0  0  0  0  0  0  0  0  0
   15.0850    7.5980   13.1800 C   0  0  0  0  0  0  0  0  0  0  0  0
   15.7000    8.9230   13.6040 C   0  0  0  0  0  0  0  0  0  0  0  0
   16.3360    9.6810   12.4680 N   0  0  0  0  0  0  0  0  0  0  0  0
   17.3230   10.6980   12.9590 C   0  0  0  0  0  0  0  0  0  0  0  0
   18.0220   11.3800   11.8020 C   0  0  0  0  0  0  0  0  0  0  0  0
   17.0250   12.0340   10.8620 C   0  0  0  0  0  0  0  0  0  0  0  0
   15.9690   11.0360   10.4110 C   0  0  0  0  0  0  0  0  0  0  0  0
   15.3150   10.3390   11.5890 C   0  0  0  0  0  0  0  0  0  0  0  0
   17.3180    6.0200   14.6690 S   0  0  0  0  0  0  0  0  0  0  0  0
   17.7090    5.0350   16.0420 C   0  0  0  0  0  0  0  0  0  0  0  0
   19.0990    4.5560   15.9820 C   0  0  0  0  0  0  0  0  0  0  0  0
   19.4340    3.3330   16.5430 C   0  0  0  0  0  0  0  0  0  0  0  0
   20.7390    2.9300   16.3160 C   0  0  0  0  0  0  0  0  0  0  0  0
   21.6460    3.6470   15.6290 N   0  0  0  0  0  0  0  0  0  0  0  0
   21.2150    4.8180   15.1430 C   0  0  0  0  0  0  0  0  0  0  0  0
   19.9730    5.3040   15.2930 N   0  0  0  0  0  0  0  0  0  0  0  0
   22.0870    5.5820   14.4350 N   0  0  0  0  0  0  0  0  0  0  0  0
   21.9590    6.7260   13.6170 C   0  0  0  0  0  0  0  0  0  0  0  0
   20.7640    7.0690   12.9920 C   0  0  0  0  0  0  0  0  0  0  0  0
   20.6230    8.3210   12.4020 C   0  0  0  0  0  0  0  0  0  0  0  0
   21.6570    9.2460   12.4520 C   0  0  0  0  0  0  0  0  0  0  0  0
   22.8450    8.9080   13.0850 C   0  0  0  0  0  0  0  0  0  0  0  0
   23.8370    9.8350   13.2700 O   0  0  0  0  0  0  0  0  0  0  0  0
   23.0050    7.6440   13.6380 C   0  0  0  0  0  0  0  0  0  0  0  0
   14.7828    3.1221   17.9096 H   0  0  0  0  0  0  0  0  0  0  0  0
   18.4884    5.1528   18.7887 H   0  0  0  0  0  0  0  0  0  0  0  0
   18.5613    4.0414   21.0052 H   0  0  0  0  0  0  0  0  0  0  0  0
   16.7182    2.5198   21.7084 H   0  0  0  0  0  0  0  0  0  0  0  0
   13.6910    6.6307   14.5157 H   0  0  0  0  0  0  0  0  0  0  0  0
   14.1930    7.8068   12.5711 H   0  0  0  0  0  0  0  0  0  0  0  0
   15.8540    7.0488   12.6170 H   0  0  0  0  0  0  0  0  0  0  0  0
   16.4704    8.7222   14.3631 H   0  0  0  0  0  0  0  0  0  0  0  0
   14.8835    9.5488   13.9936 H   0  0  0  0  0  0  0  0  0  0  0  0
   18.0737   10.1963   13.5873 H   0  0  0  0  0  0  0  0  0  0  0  0
   16.7814   11.4599   13.5388 H   0  0  0  0  0  0  0  0  0  0  0  0
   18.6032   10.6316   11.2433 H   0  0  0  0  0  0  0  0  0  0  0  0
   18.6810   12.1620   12.2073 H   0  0  0  0  0  0  0  0  0  0  0  0
   17.5592   12.4165    9.9798 H   0  0  0  0  0  0  0  0  0  0  0  0
   16.5262   12.8565   11.3955 H   0  0  0  0  0  0  0  0  0  0  0  0
   15.1959   11.5695    9.8386 H   0  0  0  0  0  0  0  0  0  0  0  0
   16.4619   10.2722    9.7917 H   0  0  0  0  0  0  0  0  0  0  0  0
   14.7580   11.0808   12.1801 H   0  0  0  0  0  0  0  0  0  0  0  0
   14.6386    9.5629   11.2014 H   0  0  0  0  0  0  0  0  0  0  0  0
   18.7193    2.7304   17.1227 H   0  0  0  0  0  0  0  0  0  0  0  0
   21.0549    1.9589   16.7247 H   0  0  0  0  0  0  0  0  0  0  0  0
   23.0600    5.2530   14.5121 H   0  0  0  0  0  0  0  0  0  0  0  0
   19.9314    6.3507   12.9644 H   0  0  0  0  0  0  0  0  0  0  0  0
   19.6839    8.5803   11.8913 H   0  0  0  0  0  0  0  0  0  0  0  0
   21.5357   10.2386   11.9937 H   0  0  0  0  0  0  0  0  0  0  0  0
   24.1108   10.0908   14.1863 H   0  0  0  0  0  0  0  0  0  0  0  0
   23.9658    7.3663   14.0961 H   0  0  0  0  0  0  0  0  0  0  0  0
 20 19  1  0
 20 21  1  0
 19 18  1  0
 21 16  1  0
 18 17  1  0
 33 34  1  0
 33 32  2  0
 34 35  2  0
 16 17  1  0
 16 15  1  0
 32 31  1  0
 35 36  1  0
 35 37  1  0
 14 15  1  0
 14 13  1  0
 31 37  2  0
 31 30  1  0
 13 12  1  0
 30 28  1  0
 22 12  1  0
 22 23  1  0
 12  3  2  0
 28 29  2  0
 28 27  1  0
 29 24  1  0
 27 26  2  0
 24 23  1  0
 24 25  2  0
 23  4  2  0
  3  2  1  0
  3  4  1  0
 26 25  1  0
  2  1  3  0
  4  5  1  0
  5  6  2  0
  5  7  1  0
  6 10  1  0
  7  8  2  0
 10 11  1  0
 10  9  2  0
  8  9  1  0
  6 38  1  0
  7 39  1  0
  8 40  1  0
  9 41  1  0
 13 42  1  0
 14 43  1  0
 14 44  1  0
 15 45  1  0
 15 46  1  0
 17 47  1  0
 17 48  1  0
 18 49  1  0
 18 50  1  0
 19 51  1  0
 19 52  1  0
 20 53  1  0
 20 54  1  0
 21 55  1  0
 21 56  1  0
 25 57  1  0
 26 58  1  0
 30 59  1  0
 32 60  1  0
 33 61  1  0
 34 62  1  0
 36 63  1  0
 37 64  1  0
A    1
N3
A    2
C18
A    3
C17
A    4
C7
A    5
C3
A    6
C2
A    7
C4
A    8
C5
A    9
C6
A   10
C1
A   11
CL
A   12
C9
A   13
N1
A   14
C10
A   15
C11
A   16
N2
A   17
C16
A   18
C15
A   19
C14
A   20
C13
A   21
C12
A   22
S
A   23
C8
A   24
C19
A   25
C22
A   26
C21
A   27
N5
A   28
C20
A   29
N4
A   30
N6
A   31
C23
A   32
C28
A   33
C27
A   34
C26
A   35
C25
A   36
O
A   37
C24
M  END
