4FW5_L58_A_302
     RDKit          3D

 41 42  0  0  0  0  0  0  0  0999 V2000
    0.0070  -23.4460   30.4800 O   0  0  0  0  0  0  0  0  0  0  0  0
    1.1400  -23.6660   30.9250 C   0  0  0  0  0  0  0  0  0  0  0  0
    2.0040  -22.6150   31.1870 N   0  0  0  0  0  0  0  0  0  0  0  0
    1.5260  -21.4290   30.8270 O   0  0  0  0  0  0  0  0  0  0  0  0
    1.7060  -25.0320   31.3210 C   0  0  0  0  0  0  0  0  0  0  0  0
    1.9480  -25.9980   30.1190 C   0  0  0  0  0  0  0  0  0  0  0  0
    2.9740  -25.3650   29.3980 O   0  0  0  0  0  0  0  0  0  0  0  0
    0.7060  -26.2250   29.2520 C   0  0  0  0  0  0  0  0  0  0  0  0
    0.7570  -25.6420   32.2390 N   0  0  0  0  0  0  0  0  0  0  0  0
    1.1870  -26.4720   33.3150 C   0  0  0  0  0  0  0  0  0  0  0  0
    2.4070  -26.6550   33.5510 O   0  0  0  0  0  0  0  0  0  0  0  0
    0.1360  -27.0820   34.1680 C   0  0  0  0  0  0  0  0  0  0  0  0
   -1.2230  -27.0770   33.7850 C   0  0  0  0  0  0  0  0  0  0  0  0
   -2.1800  -27.6900   34.5670 C   0  0  0  0  0  0  0  0  0  0  0  0
   -1.8440  -28.3810   35.7660 C   0  0  0  0  0  0  0  0  0  0  0  0
   -0.4750  -28.3660   36.1310 C   0  0  0  0  0  0  0  0  0  0  0  0
    0.4990  -27.7260   35.3560 C   0  0  0  0  0  0  0  0  0  0  0  0
   -2.8940  -29.0050   36.6180 C   0  0  0  0  0  0  0  0  0  0  0  0
   -4.2200  -29.2380   36.0980 C   0  0  0  0  0  0  0  0  0  0  0  0
   -5.2070  -29.8560   36.8410 C   0  0  0  0  0  0  0  0  0  0  0  0
   -4.8800  -30.3150   38.0840 C   0  0  0  0  0  0  0  0  0  0  0  0
   -6.2080  -31.3950   38.9930 Br  0  0  0  0  0  0  0  0  0  0  0  0
   -3.6440  -30.1350   38.6650 C   0  0  0  0  0  0  0  0  0  0  0  0
   -2.6420  -29.4780   37.9390 C   0  0  0  0  0  0  0  0  0  0  0  0
    2.9299  -22.7414   31.6202 H   0  0  0  0  0  0  0  0  0  0  0  0
    1.3127  -20.8998   31.6360 H   0  0  0  0  0  0  0  0  0  0  0  0
    2.6944  -24.8657   31.7742 H   0  0  0  0  0  0  0  0  0  0  0  0
    2.2071  -27.0115   30.4592 H   0  0  0  0  0  0  0  0  0  0  0  0
    3.6228  -24.9647   30.0297 H   0  0  0  0  0  0  0  0  0  0  0  0
   -0.1688  -26.3849   29.8994 H   0  0  0  0  0  0  0  0  0  0  0  0
    0.5359  -25.3431   28.6170 H   0  0  0  0  0  0  0  0  0  0  0  0
    0.8589  -27.1101   28.6170 H   0  0  0  0  0  0  0  0  0  0  0  0
   -0.2501  -25.4700   32.1084 H   0  0  0  0  0  0  0  0  0  0  0  0
   -1.5224  -26.5781   32.8515 H   0  0  0  0  0  0  0  0  0  0  0  0
   -3.2339  -27.6437   34.2551 H   0  0  0  0  0  0  0  0  0  0  0  0
   -0.1668  -28.8753   37.0560 H   0  0  0  0  0  0  0  0  0  0  0  0
    1.5499  -27.7293   35.6809 H   0  0  0  0  0  0  0  0  0  0  0  0
   -4.4529  -28.9119   35.0736 H   0  0  0  0  0  0  0  0  0  0  0  0
   -6.2256  -29.9746   36.4429 H   0  0  0  0  0  0  0  0  0  0  0  0
   -3.4468  -30.5015   39.6832 H   0  0  0  0  0  0  0  0  0  0  0  0
   -1.6515  -29.3257   38.3925 H   0  0  0  0  0  0  0  0  0  0  0  0
  8  6  1  0
  7  6  1  0
  6  5  1  0
  1  2  2  0
  4  3  1  0
  2  3  1  0
  2  5  1  0
  5  9  1  0
  9 10  1  0
 10 11  2  0
 10 12  1  0
 13 12  2  0
 13 14  1  0
 12 17  1  0
 14 15  2  0
 17 16  2  0
 15 16  1  0
 15 18  1  0
 19 18  2  0
 19 20  1  0
 18 24  1  0
 20 21  2  0
 24 23  2  0
 21 23  1  0
 21 22  1  0
  3 25  1  0
  4 26  1  0
  5 27  1  0
  6 28  1  0
  7 29  1  0
  8 30  1  0
  8 31  1  0
  8 32  1  0
  9 33  1  0
 13 34  1  0
 14 35  1  0
 16 36  1  0
 17 37  1  0
 19 38  1  0
 20 39  1  0
 23 40  1  0
 24 41  1  0
A    1
O2
A    2
C15
A    3
N2
A    4
O3
A    5
C14
A    6
C16
A    7
O4
A    8
C17
A    9
N1
A   10
C1
A   11
O1
A   12
C2
A   13
C7
A   14
C6
A   15
C5
A   16
C4
A   17
C3
A   18
C8
A   19
C13
A   20
C12
A   21
C11
A   22
BR
A   23
C10
A   24
C9
M  END
