4FW6_L59_A_302
     RDKit          3D

 43 44  0  0  0  0  0  0  0  0999 V2000
   17.8100   23.8270   30.5630 O   0  0  0  0  0  0  0  0  0  0  0  0
   16.6970   24.0450   31.0620 C   0  0  0  0  0  0  0  0  0  0  0  0
   15.8550   22.9600   31.2570 N   0  0  0  0  0  0  0  0  0  0  0  0
   16.3920   21.7590   31.0160 O   0  0  0  0  0  0  0  0  0  0  0  0
   16.2630   25.4170   31.4710 C   0  0  0  0  0  0  0  0  0  0  0  0
   15.9520   26.3310   30.2300 C   0  0  0  0  0  0  0  0  0  0  0  0
   14.9420   25.6330   29.5280 O   0  0  0  0  0  0  0  0  0  0  0  0
   17.1120   26.5630   29.2930 C   0  0  0  0  0  0  0  0  0  0  0  0
   17.2310   26.0000   32.3930 N   0  0  0  0  0  0  0  0  0  0  0  0
   16.8200   26.7860   33.4640 C   0  0  0  0  0  0  0  0  0  0  0  0
   15.6030   26.8860   33.7330 O   0  0  0  0  0  0  0  0  0  0  0  0
   17.8980   27.3840   34.3110 C   0  0  0  0  0  0  0  0  0  0  0  0
   17.5740   27.7390   35.6260 C   0  0  0  0  0  0  0  0  0  0  0  0
   18.5760   28.2730   36.4740 C   0  0  0  0  0  0  0  0  0  0  0  0
   19.8760   28.4490   36.0010 C   0  0  0  0  0  0  0  0  0  0  0  0
   20.2020   28.0950   34.6950 C   0  0  0  0  0  0  0  0  0  0  0  0
   19.2210   27.5710   33.8490 C   0  0  0  0  0  0  0  0  0  0  0  0
   20.8450   29.0660   36.8110 C   0  0  0  0  0  0  0  0  0  0  0  0
   21.6560   29.5990   37.4450 C   0  0  0  0  0  0  0  0  0  0  0  0
   22.6550   30.2750   38.1720 C   0  0  0  0  0  0  0  0  0  0  0  0
   23.7420   30.7680   37.4650 C   0  0  0  0  0  0  0  0  0  0  0  0
   24.6980   31.5320   38.1400 C   0  0  0  0  0  0  0  0  0  0  0  0
   24.5600   31.7790   39.5310 C   0  0  0  0  0  0  0  0  0  0  0  0
   23.4800   31.2680   40.2300 C   0  0  0  0  0  0  0  0  0  0  0  0
   22.5110   30.5050   39.5650 C   0  0  0  0  0  0  0  0  0  0  0  0
   14.8793   23.0720   31.5673 H   0  0  0  0  0  0  0  0  0  0  0  0
   16.5931   21.3091   31.8746 H   0  0  0  0  0  0  0  0  0  0  0  0
   15.3097   25.3364   32.0138 H   0  0  0  0  0  0  0  0  0  0  0  0
   15.6772   27.3344   30.5873 H   0  0  0  0  0  0  0  0  0  0  0  0
   14.3252   25.2067   30.1745 H   0  0  0  0  0  0  0  0  0  0  0  0
   18.0253   26.7457   29.8783 H   0  0  0  0  0  0  0  0  0  0  0  0
   17.2543   25.6755   28.6589 H   0  0  0  0  0  0  0  0  0  0  0  0
   16.9020   27.4369   28.6589 H   0  0  0  0  0  0  0  0  0  0  0  0
   18.2360   25.8266   32.2484 H   0  0  0  0  0  0  0  0  0  0  0  0
   16.5479   27.6042   35.9987 H   0  0  0  0  0  0  0  0  0  0  0  0
   18.3274   28.5497   37.5092 H   0  0  0  0  0  0  0  0  0  0  0  0
   21.2309   28.2276   34.3292 H   0  0  0  0  0  0  0  0  0  0  0  0
   19.4804   27.3017   32.8145 H   0  0  0  0  0  0  0  0  0  0  0  0
   23.8498   30.5609   36.3901 H   0  0  0  0  0  0  0  0  0  0  0  0
   25.5590   31.9427   37.5923 H   0  0  0  0  0  0  0  0  0  0  0  0
   25.3162   32.3804   40.0569 H   0  0  0  0  0  0  0  0  0  0  0  0
   23.3824   31.4611   41.3085 H   0  0  0  0  0  0  0  0  0  0  0  0
   21.6524   30.0909   40.1139 H   0  0  0  0  0  0  0  0  0  0  0  0
  8  6  1  0
  7  6  1  0
  6  5  1  0
  1  2  2  0
  4  3  1  0
  2  3  1  0
  2  5  1  0
  5  9  1  0
  9 10  1  0
 10 11  2  0
 10 12  1  0
 17 12  2  0
 17 16  1  0
 12 13  1  0
 16 15  2  0
 13 14  2  0
 15 14  1  0
 15 18  1  0
 18 19  3  0
 19 20  1  0
 21 22  2  0
 21 20  1  0
 22 23  1  0
 20 25  2  0
 23 24  2  0
 25 24  1  0
  3 26  1  0
  4 27  1  0
  5 28  1  0
  6 29  1  0
  7 30  1  0
  8 31  1  0
  8 32  1  0
  8 33  1  0
  9 34  1  0
 13 35  1  0
 14 36  1  0
 16 37  1  0
 17 38  1  0
 21 39  1  0
 22 40  1  0
 23 41  1  0
 24 42  1  0
 25 43  1  0
A    1
O2
A    2
C17
A    3
N2
A    4
O3
A    5
C16
A    6
C18
A    7
O4
A    8
C19
A    9
N1
A   10
C1
A   11
O1
A   12
C2
A   13
C7
A   14
C6
A   15
C5
A   16
C4
A   17
C3
A   18
C8
A   19
C9
A   20
C10
A   21
C15
A   22
C14
A   23
C13
A   24
C12
A   25
C11
M  END
