4FYN_0VE_A_701
     RDKit          3D

 52 55  0  0  0  0  0  0  0  0999 V2000
    4.6280    0.3090   14.7250 N   0  0  0  0  0  0  0  0  0  0  0  0
    3.8040   -0.5830   15.3860 C   0  0  0  0  0  0  0  0  0  0  0  0
    2.4630   -0.7490   14.9620 C   0  0  0  0  0  0  0  0  0  0  0  0
    4.1350    1.0480   13.6590 C   0  0  0  0  0  0  0  0  0  0  0  0
    2.0500   -0.0340   13.9220 N   0  0  0  0  0  0  0  0  0  0  0  0
    2.8360    0.8410   13.2870 C   0  0  0  0  0  0  0  0  0  0  0  0
    4.4950   -1.1460   16.3510 N   0  0  0  0  0  0  0  0  0  0  0  0
    4.9560    2.0700   12.9470 C   0  0  0  0  0  0  0  0  0  0  0  0
    1.6420   -1.6570   15.6460 N   0  0  0  0  0  0  0  0  0  0  0  0
    5.8360    0.2520   15.3360 C   0  0  0  0  0  0  0  0  0  0  0  0
    5.7340   -0.6600   16.3240 C   0  0  0  0  0  0  0  0  0  0  0  0
   -2.4660   -2.3270   14.9010 C   0  0  0  0  0  0  0  0  0  0  0  0
    5.7920    2.9340   13.6790 C   0  0  0  0  0  0  0  0  0  0  0  0
   -3.8330   -2.5280   14.6300 N   0  0  0  0  0  0  0  0  0  0  0  0
    0.2670   -1.8730   15.3950 C   0  0  0  0  0  0  0  0  0  0  0  0
   -1.7680   -1.3630   14.1760 C   0  0  0  0  0  0  0  0  0  0  0  0
   -1.7890   -3.0650   15.8880 C   0  0  0  0  0  0  0  0  0  0  0  0
    6.5370    3.9080   13.0110 C   0  0  0  0  0  0  0  0  0  0  0  0
   -0.4210   -1.1470   14.4170 C   0  0  0  0  0  0  0  0  0  0  0  0
   -0.4360   -2.8430   16.1280 C   0  0  0  0  0  0  0  0  0  0  0  0
    7.3730    4.7170   13.7210 O   0  0  0  0  0  0  0  0  0  0  0  0
    4.8860    2.2190   11.5390 C   0  0  0  0  0  0  0  0  0  0  0  0
   -6.1160   -4.8840   16.2590 O   0  0  0  0  0  0  0  0  0  0  0  0
    5.6320    3.1960   10.8850 C   0  0  0  0  0  0  0  0  0  0  0  0
   -4.7380   -3.0200   15.6800 C   0  0  0  0  0  0  0  0  0  0  0  0
   -4.3860   -2.2220   13.2930 C   0  0  0  0  0  0  0  0  0  0  0  0
    6.4620    4.0400   11.6200 C   0  0  0  0  0  0  0  0  0  0  0  0
   -4.9240   -4.5330   15.5600 C   0  0  0  0  0  0  0  0  0  0  0  0
   -4.6670   -3.4860   12.4670 C   0  0  0  0  0  0  0  0  0  0  0  0
    2.4256    1.4111   12.4405 H   0  0  0  0  0  0  0  0  0  0  0  0
    2.0774   -2.2141   16.3950 H   0  0  0  0  0  0  0  0  0  0  0  0
    6.7297    0.8381   15.0757 H   0  0  0  0  0  0  0  0  0  0  0  0
    6.5479   -0.9562   17.0021 H   0  0  0  0  0  0  0  0  0  0  0  0
    5.8582    2.8423   14.7732 H   0  0  0  0  0  0  0  0  0  0  0  0
   -2.2889   -0.7710   13.4090 H   0  0  0  0  0  0  0  0  0  0  0  0
   -2.3315   -3.8218   16.4736 H   0  0  0  0  0  0  0  0  0  0  0  0
    0.1179   -0.3902   13.8281 H   0  0  0  0  0  0  0  0  0  0  0  0
    0.0861   -3.4313   16.8970 H   0  0  0  0  0  0  0  0  0  0  0  0
    7.3557    4.7002   14.7107 H   0  0  0  0  0  0  0  0  0  0  0  0
    4.2333    1.5535   10.9550 H   0  0  0  0  0  0  0  0  0  0  0  0
   -5.9529   -4.8360   17.2343 H   0  0  0  0  0  0  0  0  0  0  0  0
    5.5663    3.3012    9.7920 H   0  0  0  0  0  0  0  0  0  0  0  0
   -4.3106   -2.7848   16.6659 H   0  0  0  0  0  0  0  0  0  0  0  0
   -5.7164   -2.5307   15.5647 H   0  0  0  0  0  0  0  0  0  0  0  0
   -3.6632   -1.5978   12.7471 H   0  0  0  0  0  0  0  0  0  0  0  0
   -5.3431   -1.7001   13.4397 H   0  0  0  0  0  0  0  0  0  0  0  0
    7.0578    4.8094   11.1072 H   0  0  0  0  0  0  0  0  0  0  0  0
   -5.0147   -4.8157   14.5008 H   0  0  0  0  0  0  0  0  0  0  0  0
   -4.0590   -5.0609   15.9879 H   0  0  0  0  0  0  0  0  0  0  0  0
   -4.8551   -4.3322   13.1442 H   0  0  0  0  0  0  0  0  0  0  0  0
   -5.5503   -3.3206   11.8326 H   0  0  0  0  0  0  0  0  0  0  0  0
   -3.7968   -3.7104   11.8326 H   0  0  0  0  0  0  0  0  0  0  0  0
 24 22  2  0
 24 27  1  0
 22  8  1  0
 27 18  2  0
 29 26  1  0
  8  4  1  0
  8 13  2  0
 18 13  1  0
 18 21  1  0
  6  4  2  0
  6  5  1  0
 26 14  1  0
  4  1  1  0
  5  3  2  0
 16 19  1  0
 16 12  2  0
 19 15  2  0
 14 12  1  0
 14 25  1  0
  1 10  1  0
  1  2  1  0
 12 17  1  0
  3  2  1  0
  3  9  1  0
 10 11  2  0
  2  7  2  0
 15  9  1  0
 15 20  1  0
 28 25  1  0
 28 23  1  0
 17 20  2  0
 11  7  1  0
  6 30  1  0
  9 31  1  0
 10 32  1  0
 11 33  1  0
 13 34  1  0
 16 35  1  0
 17 36  1  0
 19 37  1  0
 20 38  1  0
 21 39  1  0
 22 40  1  0
 23 41  1  0
 24 42  1  0
 25 43  1  0
 25 44  1  0
 26 45  1  0
 26 46  1  0
 27 47  1  0
 28 48  1  0
 28 49  1  0
 29 50  1  0
 29 51  1  0
 29 52  1  0
A    1
N1
A    2
C2
A    3
C3
A    4
C4
A    5
N5
A    6
C6
A    7
N7
A    8
C8
A    9
N9
A   10
C10
A   11
C11
A   12
C12
A   13
C13
A   14
N14
A   15
C15
A   16
C16
A   17
C17
A   18
C18
A   19
C19
A   20
C20
A   21
O21
A   22
C22
A   23
O23
A   24
C24
A   25
C25
A   26
C26
A   27
C27
A   28
C28
A   29
C29
M  END
