4G0W_AKE_D_101
     RDKit          3D

 58 60  0  0  0  0  0  0  0  0999 V2000
   25.4160  102.4980   34.5830 O   0  0  0  0  0  0  0  0  0  0  0  0
   26.4740  102.9120   35.0700 C   0  0  0  0  0  0  0  0  0  0  0  0
   26.4740  104.1390   35.8210 C   0  0  0  0  0  0  0  0  0  0  0  0
   25.2010  104.8780   35.9990 C   0  0  0  0  0  0  0  0  0  0  0  0
   25.1710  106.0600   36.7240 C   0  0  0  0  0  0  0  0  0  0  0  0
   26.3850  106.5540   37.2800 C   0  0  0  0  0  0  0  0  0  0  0  0
   27.6160  105.8260   37.1040 C   0  0  0  0  0  0  0  0  0  0  0  0
   27.6540  104.6120   36.3680 C   0  0  0  0  0  0  0  0  0  0  0  0
   28.9210  103.8630   36.1840 C   0  0  0  0  0  0  0  0  0  0  0  0
   29.9700  104.2500   36.6560 O   0  0  0  0  0  0  0  0  0  0  0  0
   28.9240  102.6650   35.4320 C   0  0  0  0  0  0  0  0  0  0  0  0
   30.1720  101.9410   35.2340 C   0  0  0  0  0  0  0  0  0  0  0  0
   31.4120  102.4600   35.8190 N   0  0  0  0  0  0  0  0  0  0  0  0
   32.7150  102.0940   35.3450 C   0  0  0  0  0  0  0  0  0  0  0  0
   33.7330  103.2060   35.3790 C   0  0  0  0  0  0  0  0  0  0  0  0
   33.7690  104.1290   34.2230 N   0  0  0  0  0  0  0  0  0  0  0  0
   33.7880  105.5070   34.6880 C   0  0  0  0  0  0  0  0  0  0  0  0
   32.5190  106.1540   34.9990 C   0  0  0  0  0  0  0  0  0  0  0  0
   32.1020  106.2330   36.3210 O   0  0  0  0  0  0  0  0  0  0  0  0
   30.1660  100.7860   34.4990 C   0  0  0  0  0  0  0  0  0  0  0  0
   28.9060  100.2720   33.9310 C   0  0  0  0  0  0  0  0  0  0  0  0
   27.7210  100.9740   34.1140 C   0  0  0  0  0  0  0  0  0  0  0  0
   26.4220  100.4930   33.5350 N   0  0  0  0  0  0  0  0  0  0  0  0
   26.3630   99.2940   32.7300 C   0  0  0  0  0  0  0  0  0  0  0  0
   25.3720   99.3280   31.5540 C   0  0  0  0  0  0  0  0  0  0  0  0
   25.7680  100.1000   30.3810 N   0  0  0  0  0  0  0  0  0  0  0  0
   25.8100   99.2080   29.2640 C   0  0  0  0  0  0  0  0  0  0  0  0
   25.5470   99.7950   27.9020 C   0  0  0  0  0  0  0  0  0  0  0  0
   24.7530   99.0580   27.0590 O   0  0  0  0  0  0  0  0  0  0  0  0
   27.7250  102.1830   34.8760 C   0  0  0  0  0  0  0  0  0  0  0  0
   24.2747  104.4864   35.5533 H   0  0  0  0  0  0  0  0  0  0  0  0
   24.2266  106.6057   36.8668 H   0  0  0  0  0  0  0  0  0  0  0  0
   26.3832  107.4966   37.8470 H   0  0  0  0  0  0  0  0  0  0  0  0
   28.5432  106.2177   37.5478 H   0  0  0  0  0  0  0  0  0  0  0  0
   31.3441  103.1188   36.6079 H   0  0  0  0  0  0  0  0  0  0  0  0
   32.6172  101.7506   34.3045 H   0  0  0  0  0  0  0  0  0  0  0  0
   33.0851  101.3129   36.0254 H   0  0  0  0  0  0  0  0  0  0  0  0
   34.7268  102.7417   35.4621 H   0  0  0  0  0  0  0  0  0  0  0  0
   33.4369  103.8338   36.2324 H   0  0  0  0  0  0  0  0  0  0  0  0
   32.9341  103.9774   33.6392 H   0  0  0  0  0  0  0  0  0  0  0  0
   34.3983  105.5326   35.6028 H   0  0  0  0  0  0  0  0  0  0  0  0
   34.1767  106.0753   33.8301 H   0  0  0  0  0  0  0  0  0  0  0  0
   32.5834  107.1849   34.6208 H   0  0  0  0  0  0  0  0  0  0  0  0
   31.7708  105.4989   34.5288 H   0  0  0  0  0  0  0  0  0  0  0  0
   32.8761  106.0864   36.9205 H   0  0  0  0  0  0  0  0  0  0  0  0
   31.1054  100.2389   34.3314 H   0  0  0  0  0  0  0  0  0  0  0  0
   28.9042   99.3310   33.3613 H   0  0  0  0  0  0  0  0  0  0  0  0
   25.5590  101.0260   33.7143 H   0  0  0  0  0  0  0  0  0  0  0  0
   26.0787   98.4592   33.3875 H   0  0  0  0  0  0  0  0  0  0  0  0
   27.3603   99.1867   32.2785 H   0  0  0  0  0  0  0  0  0  0  0  0
   24.4275   99.7508   31.9271 H   0  0  0  0  0  0  0  0  0  0  0  0
   25.3054   98.2873   31.2041 H   0  0  0  0  0  0  0  0  0  0  0  0
   26.6982  100.5155   30.5327 H   0  0  0  0  0  0  0  0  0  0  0  0
   25.0570   98.4251   29.4376 H   0  0  0  0  0  0  0  0  0  0  0  0
   26.8509   98.8545   29.2234 H   0  0  0  0  0  0  0  0  0  0  0  0
   26.5187   99.9371   27.4063 H   0  0  0  0  0  0  0  0  0  0  0  0
   24.9884  100.7240   28.0890 H   0  0  0  0  0  0  0  0  0  0  0  0
   24.1420   98.4909   27.5930 H   0  0  0  0  0  0  0  0  0  0  0  0
 29 28  1  0
 28 27  1  0
 27 26  1  0
 26 25  1  0
 25 24  1  0
 24 23  1  0
 23 22  1  0
 21 22  2  0
 21 20  1  0
 22 30  1  0
 16 17  1  0
 16 15  1  0
 20 12  2  0
  1  2  2  0
 17 18  1  0
 30  2  1  0
 30 11  2  0
 18 19  1  0
  2  3  1  0
 12 11  1  0
 12 13  1  0
 14 15  1  0
 14 13  1  0
 11  9  1  0
  3  4  2  0
  3  8  1  0
  4  5  1  0
  9  8  1  0
  9 10  2  0
  8  7  2  0
  5  6  2  0
  7  6  1  0
  4 31  1  0
  5 32  1  0
  6 33  1  0
  7 34  1  0
 13 35  1  0
 14 36  1  0
 14 37  1  0
 15 38  1  0
 15 39  1  0
 16 40  1  0
 17 41  1  0
 17 42  1  0
 18 43  1  0
 18 44  1  0
 19 45  1  0
 20 46  1  0
 21 47  1  0
 23 48  1  0
 24 49  1  0
 24 50  1  0
 25 51  1  0
 25 52  1  0
 26 53  1  0
 27 54  1  0
 27 55  1  0
 28 56  1  0
 28 57  1  0
 29 58  1  0
A    1
O01
A    2
C02
A    3
C03
A    4
C04
A    5
C05
A    6
C06
A    7
C07
A    8
C08
A    9
C09
A   10
O10
A   11
C11
A   12
C12
A   13
N13
A   14
C14
A   15
C15
A   16
N16
A   17
C17
A   18
C18
A   19
O19
A   20
C20
A   21
C21
A   22
C22
A   23
N23
A   24
C24
A   25
C25
A   26
N26
A   27
C27
A   28
C28
A   29
O29
A   30
C30
M  END
