4G1N_NZT_A_603
     RDKit          3D

 56 60  0  0  0  0  0  0  0  0999 V2000
   -0.7690  -16.4540   45.3780 C   0  0  0  0  0  0  0  0  0  0  0  0
   -0.9640  -16.1780   44.0380 C   0  0  0  0  0  0  0  0  0  0  0  0
    0.0580  -16.3690   43.1110 C   0  0  0  0  0  0  0  0  0  0  0  0
    1.2780  -16.8400   43.5660 C   0  0  0  0  0  0  0  0  0  0  0  0
    2.3050  -17.0320   42.6470 C   0  0  0  0  0  0  0  0  0  0  0  0
    3.5170  -17.5130   43.1090 C   0  0  0  0  0  0  0  0  0  0  0  0
    3.6850  -17.7870   44.4740 C   0  0  0  0  0  0  0  0  0  0  0  0
    2.6360  -17.5870   45.3860 N   0  0  0  0  0  0  0  0  0  0  0  0
    1.4690  -17.1210   44.9360 C   0  0  0  0  0  0  0  0  0  0  0  0
    0.4470  -16.9220   45.8360 C   0  0  0  0  0  0  0  0  0  0  0  0
    0.6770  -17.3190   47.5500 S   0  0  0  0  0  0  0  0  0  0  0  0
   -0.5730  -16.9650   48.3590 O   0  0  0  0  0  0  0  0  0  0  0  0
    0.9110  -18.8060   47.5810 O   0  0  0  0  0  0  0  0  0  0  0  0
    1.9860  -16.5380   48.2250 N   0  0  0  0  0  0  0  0  0  0  0  0
    1.9590  -15.2530   48.6560 C   0  0  0  0  0  0  0  0  0  0  0  0
    1.0850  -14.7970   49.6620 C   0  0  0  0  0  0  0  0  0  0  0  0
    1.1310  -13.4640   50.1070 C   0  0  0  0  0  0  0  0  0  0  0  0
    2.8960  -14.3650   48.1210 C   0  0  0  0  0  0  0  0  0  0  0  0
    2.9430  -13.0380   48.5580 C   0  0  0  0  0  0  0  0  0  0  0  0
    2.0520  -12.5630   49.5390 C   0  0  0  0  0  0  0  0  0  0  0  0
    2.1480  -11.2050   49.9540 C   0  0  0  0  0  0  0  0  0  0  0  0
    2.5750  -10.9970   51.0930 O   0  0  0  0  0  0  0  0  0  0  0  0
    1.8680  -10.1670   49.1010 N   0  0  0  0  0  0  0  0  0  0  0  0
    1.3330  -10.4480   47.7260 C   0  0  0  0  0  0  0  0  0  0  0  0
    0.1890   -9.4800   47.3740 C   0  0  0  0  0  0  0  0  0  0  0  0
    2.0570   -8.7340   49.5610 C   0  0  0  0  0  0  0  0  0  0  0  0
    1.1030   -7.6660   48.9290 C   0  0  0  0  0  0  0  0  0  0  0  0
    0.6970   -8.0770   47.5520 N   0  0  0  0  0  0  0  0  0  0  0  0
    0.9040   -7.3730   46.4140 C   0  0  0  0  0  0  0  0  0  0  0  0
   -0.1310   -7.2730   45.5530 N   0  0  0  0  0  0  0  0  0  0  0  0
    0.0100   -6.6400   44.3200 C   0  0  0  0  0  0  0  0  0  0  0  0
    1.2390   -6.0970   43.9820 C   0  0  0  0  0  0  0  0  0  0  0  0
    2.3460   -6.1690   44.8350 N   0  0  0  0  0  0  0  0  0  0  0  0
    2.1630   -6.8400   46.0670 C   0  0  0  0  0  0  0  0  0  0  0  0
   -1.5935  -16.2988   46.0895 H   0  0  0  0  0  0  0  0  0  0  0  0
   -1.9404  -15.8020   43.6985 H   0  0  0  0  0  0  0  0  0  0  0  0
   -0.1001  -16.1512   42.0444 H   0  0  0  0  0  0  0  0  0  0  0  0
    2.1570  -16.8071   41.5805 H   0  0  0  0  0  0  0  0  0  0  0  0
    4.3473  -17.6802   42.4071 H   0  0  0  0  0  0  0  0  0  0  0  0
    4.6529  -18.1642   44.8358 H   0  0  0  0  0  0  0  0  0  0  0  0
    2.8672  -17.0627   48.3202 H   0  0  0  0  0  0  0  0  0  0  0  0
    0.3572  -15.4926   50.1052 H   0  0  0  0  0  0  0  0  0  0  0  0
    0.4472  -13.1249   50.8991 H   0  0  0  0  0  0  0  0  0  0  0  0
    3.6009  -14.7123   47.3513 H   0  0  0  0  0  0  0  0  0  0  0  0
    3.6889  -12.3533   48.1280 H   0  0  0  0  0  0  0  0  0  0  0  0
    0.9551  -11.4804   47.6905 H   0  0  0  0  0  0  0  0  0  0  0  0
    2.1459  -10.3115   46.9976 H   0  0  0  0  0  0  0  0  0  0  0  0
   -0.6669   -9.6548   48.0424 H   0  0  0  0  0  0  0  0  0  0  0  0
   -0.1403   -9.6386   46.3365 H   0  0  0  0  0  0  0  0  0  0  0  0
    3.0904   -8.4406   49.3245 H   0  0  0  0  0  0  0  0  0  0  0  0
    1.8178   -8.7390   50.6347 H   0  0  0  0  0  0  0  0  0  0  0  0
    1.6248   -6.6989   48.8791 H   0  0  0  0  0  0  0  0  0  0  0  0
    0.2023   -7.5791   49.5544 H   0  0  0  0  0  0  0  0  0  0  0  0
   -0.8407   -6.5724   43.6260 H   0  0  0  0  0  0  0  0  0  0  0  0
    1.3482   -5.5924   43.0107 H   0  0  0  0  0  0  0  0  0  0  0  0
    3.0101   -6.9470   46.7605 H   0  0  0  0  0  0  0  0  0  0  0  0
  5  6  2  0
  5  4  1  0
  6  7  1  0
  3  4  2  0
  3  2  1  0
  4  9  1  0
 32 31  1  0
 32 33  2  0
  2  1  2  0
 31 30  2  0
  7  8  2  0
 33 34  1  0
  9  8  1  0
  9 10  2  0
  1 10  1  0
 30 29  1  0
 34 29  2  0
 29 28  1  0
 25 28  1  0
 25 24  1  0
 11 13  2  0
 11 14  1  0
 11 12  2  0
 28 27  1  0
 24 23  1  0
 18 19  2  0
 18 15  1  0
 14 15  1  0
 19 20  1  0
 15 16  2  0
 27 26  1  0
 23 26  1  0
 23 21  1  0
 20 21  1  0
 20 17  2  0
 16 17  1  0
 21 22  2  0
 11 10  1  0
  1 35  1  0
  2 36  1  0
  3 37  1  0
  5 38  1  0
  6 39  1  0
  7 40  1  0
 14 41  1  0
 16 42  1  0
 17 43  1  0
 18 44  1  0
 19 45  1  0
 24 46  1  0
 24 47  1  0
 25 48  1  0
 25 49  1  0
 26 50  1  0
 26 51  1  0
 27 52  1  0
 27 53  1  0
 31 54  1  0
 32 55  1  0
 34 56  1  0
A    1
CAI
A    2
CAE
A    3
CAO
A    4
CBD
A    5
CAN
A    6
CAD
A    7
CAF
A    8
NAW
A    9
CBE
A   10
CBC
A   11
S1
A   12
OAB
A   13
OAC
A   14
NAX
A   15
CAZ
A   16
CAJ
A   17
CAL
A   18
CAK
A   19
CAM
A   20
CBA
A   21
CAY
A   22
OAA
A   23
NBF
A   24
CAQ
A   25
CAS
A   26
CAR
A   27
CAT
A   28
NBG
A   29
CBB
A   30
NAV
A   31
CAH
A   32
CAG
A   33
NAU
A   34
CAP
M  END
