4G1Y_0VO_A_501
     RDKit          3D

 64 65  0  0  0  0  0  0  0  0999 V2000
    2.4390   37.5410   37.9750 C   0  0  0  0  0  0  0  0  0  0  0  0
    0.1260   36.5070   38.0810 C   0  0  0  0  0  0  0  0  0  0  0  0
    1.5900   36.4540   37.8170 C   0  0  0  0  0  0  0  0  0  0  0  0
    2.8440   30.1100   37.7740 C   0  0  0  0  0  0  0  0  0  0  0  0
    3.4400   30.1000   39.1370 C   0  0  0  0  0  0  0  0  0  0  0  0
    0.0450   35.1700   38.9980 C   0  0  0  0  0  0  0  0  0  0  0  0
    3.7440   29.7270   36.5530 C   0  0  0  0  0  0  0  0  0  0  0  0
    3.1620   29.1090   35.4190 C   0  0  0  0  0  0  0  0  0  0  0  0
    3.5910   29.3850   34.0360 C   0  0  0  0  0  0  0  0  0  0  0  0
    1.4460   30.5160   37.5490 C   0  0  0  0  0  0  0  0  0  0  0  0
    0.6190   29.8180   38.5920 C   0  0  0  0  0  0  0  0  0  0  0  0
    4.6890   28.4990   33.3670 C   0  0  0  0  0  0  0  0  0  0  0  0
    5.8880   29.3550   32.7710 C   0  0  0  0  0  0  0  0  0  0  0  0
    1.9560   38.8210   38.4110 C   0  0  0  0  0  0  0  0  0  0  0  0
    0.4560   38.9830   38.7130 C   0  0  0  0  0  0  0  0  0  0  0  0
   -0.4440   37.7940   38.5370 C   0  0  0  0  0  0  0  0  0  0  0  0
   -0.1440   40.2800   39.1790 C   0  0  0  0  0  0  0  0  0  0  0  0
    0.2130   40.5350   40.5530 O   0  0  0  0  0  0  0  0  0  0  0  0
    3.0100   39.9190   38.5360 C   0  0  0  0  0  0  0  0  0  0  0  0
    4.3460   39.4550   38.1820 O   0  0  0  0  0  0  0  0  0  0  0  0
    0.2530   34.0970   37.9270 O   0  0  0  0  0  0  0  0  0  0  0  0
    0.3030   32.7390   38.2040 C   0  0  0  0  0  0  0  0  0  0  0  0
    1.2840   31.9920   37.3590 C   0  0  0  0  0  0  0  0  0  0  0  0
   -0.3330   30.6050   39.4000 C   0  0  0  0  0  0  0  0  0  0  0  0
   -0.4850   32.0400   39.2050 C   0  0  0  0  0  0  0  0  0  0  0  0
    4.0300   27.6080   32.2270 C   0  0  0  0  0  0  0  0  0  0  0  0
    5.2170   27.5910   34.3590 O   0  0  0  0  0  0  0  0  0  0  0  0
    3.2190   26.4050   32.6950 C   0  0  0  0  0  0  0  0  0  0  0  0
    5.5840   30.2240   31.5230 C   0  0  0  0  0  0  0  0  0  0  0  0
    3.8110   28.6660   39.5600 C   0  0  0  0  0  0  0  0  0  0  0  0
    3.5109   37.4184   37.7603 H   0  0  0  0  0  0  0  0  0  0  0  0
    2.0229   35.5012   37.4781 H   0  0  0  0  0  0  0  0  0  0  0  0
    4.3467   30.7228   39.1389 H   0  0  0  0  0  0  0  0  0  0  0  0
    2.7013   30.4980   39.8483 H   0  0  0  0  0  0  0  0  0  0  0  0
   -0.9342   35.0713   39.4894 H   0  0  0  0  0  0  0  0  0  0  0  0
    0.7624   35.1367   39.8312 H   0  0  0  0  0  0  0  0  0  0  0  0
    4.8236   29.9366   36.5750 H   0  0  0  0  0  0  0  0  0  0  0  0
    2.3483   28.3862   35.5786 H   0  0  0  0  0  0  0  0  0  0  0  0
    3.1375   30.2154   33.4750 H   0  0  0  0  0  0  0  0  0  0  0  0
    0.7219   28.7344   38.7511 H   0  0  0  0  0  0  0  0  0  0  0  0
    6.6919   28.6550   32.4994 H   0  0  0  0  0  0  0  0  0  0  0  0
    6.1450   30.0742   33.5626 H   0  0  0  0  0  0  0  0  0  0  0  0
   -1.5206   37.8793   38.7458 H   0  0  0  0  0  0  0  0  0  0  0  0
    0.2313   41.0999   38.5490 H   0  0  0  0  0  0  0  0  0  0  0  0
   -1.2393   40.2143   39.1016 H   0  0  0  0  0  0  0  0  0  0  0  0
   -0.4289   40.0765   41.1513 H   0  0  0  0  0  0  0  0  0  0  0  0
    3.0251   40.2764   39.5762 H   0  0  0  0  0  0  0  0  0  0  0  0
    2.7393   40.7227   37.8354 H   0  0  0  0  0  0  0  0  0  0  0  0
    4.8625   39.2756   39.0073 H   0  0  0  0  0  0  0  0  0  0  0  0
    1.8821   32.5227   36.6036 H   0  0  0  0  0  0  0  0  0  0  0  0
   -0.9396   30.0975   40.1645 H   0  0  0  0  0  0  0  0  0  0  0  0
   -1.2033   32.6003   39.8214 H   0  0  0  0  0  0  0  0  0  0  0  0
    4.8397   27.2361   31.5820 H   0  0  0  0  0  0  0  0  0  0  0  0
    3.3109   28.2669   31.7182 H   0  0  0  0  0  0  0  0  0  0  0  0
    5.0154   27.9376   35.2642 H   0  0  0  0  0  0  0  0  0  0  0  0
    3.2019   26.3796   33.7946 H   0  0  0  0  0  0  0  0  0  0  0  0
    2.1902   26.4857   32.3141 H   0  0  0  0  0  0  0  0  0  0  0  0
    3.6797   25.4816   32.3141 H   0  0  0  0  0  0  0  0  0  0  0  0
    5.2365   31.2172   31.8436 H   0  0  0  0  0  0  0  0  0  0  0  0
    6.4977   30.3322   30.9201 H   0  0  0  0  0  0  0  0  0  0  0  0
    4.8021   29.7390   30.9201 H   0  0  0  0  0  0  0  0  0  0  0  0
    3.8280   28.6004   40.6579 H   0  0  0  0  0  0  0  0  0  0  0  0
    3.0655   27.9619   39.1621 H   0  0  0  0  0  0  0  0  0  0  0  0
    4.8045   28.4118   39.1621 H   0  0  0  0  0  0  0  0  0  0  0  0
 29 13  1  0
 26 28  1  0
 26 12  1  0
 13 12  1  0
 12  9  1  0
 12 27  1  0
  9  8  2  0
  8  7  1  0
  7  4  2  0
 23 10  2  0
 23 22  1  0
 10  4  1  0
 10 11  1  0
  4  5  1  0
  3  1  2  0
  3  2  1  0
 21 22  1  0
 21  6  1  0
  1 14  1  0
  2 16  2  0
  2  6  1  0
 20 19  1  0
 22 25  2  0
 14 19  1  0
 14 15  2  0
 16 15  1  0
 11 24  2  0
 15 17  1  0
  5 30  1  0
 17 18  1  0
 25 24  1  0
  1 31  1  0
  3 32  1  0
  5 33  1  0
  5 34  1  0
  6 35  1  0
  6 36  1  0
  7 37  1  0
  8 38  1  0
  9 39  1  0
 11 40  1  0
 13 41  1  0
 13 42  1  0
 16 43  1  0
 17 44  1  0
 17 45  1  0
 18 46  1  0
 19 47  1  0
 19 48  1  0
 20 49  1  0
 23 50  1  0
 24 51  1  0
 25 52  1  0
 26 53  1  0
 26 54  1  0
 27 55  1  0
 28 56  1  0
 28 57  1  0
 28 58  1  0
 29 59  1  0
 29 60  1  0
 29 61  1  0
 30 62  1  0
 30 63  1  0
 30 64  1  0
A    1
C1
A    2
C5
A    3
C6
A    4
C7
A    5
C9
A    6
C10
A    7
C11
A    8
C12
A    9
C16
A   10
C18
A   11
C19
A   12
C24
A   13
C25
A   14
C2
A   15
C3
A   16
C4
A   17
C48
A   18
O49
A   19
C52
A   20
O53
A   21
O1
A   22
C14
A   23
C17
A   24
C20
A   25
C21
A   26
C26
A   27
O2
A   28
C28
A   29
C29
A   30
C8
M  END
