4G1Z_0VP_A_501
     RDKit          3D

 75 77  0  0  0  0  0  0  0  0999 V2000
   -0.3730   35.9630   37.4440 O   0  0  0  0  0  0  0  0  0  0  0  0
    5.2530   28.6680   34.2170 O   0  0  0  0  0  0  0  0  0  0  0  0
    1.0390   31.1470   34.6230 C   0  0  0  0  0  0  0  0  0  0  0  0
   -0.3810   36.9370   38.6510 C   0  0  0  0  0  0  0  0  0  0  0  0
    2.9790   31.5330   36.3510 C   0  0  0  0  0  0  0  0  0  0  0  0
    3.8560   30.8300   35.4760 C   0  0  0  0  0  0  0  0  0  0  0  0
    1.9590   30.4470   33.7660 C   0  0  0  0  0  0  0  0  0  0  0  0
   -0.4380   34.5830   37.5830 C   0  0  0  0  0  0  0  0  0  0  0  0
    3.6250   32.0630   37.6760 C   0  0  0  0  0  0  0  0  0  0  0  0
    3.4270   30.2560   34.1750 C   0  0  0  0  0  0  0  0  0  0  0  0
    0.5150   33.8520   36.6910 C   0  0  0  0  0  0  0  0  0  0  0  0
    0.5650   32.3670   36.7660 C   0  0  0  0  0  0  0  0  0  0  0  0
   -0.3340   31.6370   37.7300 C   0  0  0  0  0  0  0  0  0  0  0  0
   -1.2510   32.4150   38.5730 C   0  0  0  0  0  0  0  0  0  0  0  0
   -1.2980   33.8580   38.4980 C   0  0  0  0  0  0  0  0  0  0  0  0
    3.2890   31.1590   38.8490 C   0  0  0  0  0  0  0  0  0  0  0  0
    3.9350   31.7310   40.1050 C   0  0  0  0  0  0  0  0  0  0  0  0
    4.4960   29.5040   33.3270 C   0  0  0  0  0  0  0  0  0  0  0  0
    5.4860   30.4920   32.5540 C   0  0  0  0  0  0  0  0  0  0  0  0
    3.7600   28.4970   32.3240 C   0  0  0  0  0  0  0  0  0  0  0  0
   -1.1180   29.2700   36.8430 C   0  0  0  0  0  0  0  0  0  0  0  0
    4.6630   27.6580   31.4220 C   0  0  0  0  0  0  0  0  0  0  0  0
    4.8600   31.4930   31.5420 C   0  0  0  0  0  0  0  0  0  0  0  0
    2.2050   39.1200   37.7030 C   0  0  0  0  0  0  0  0  0  0  0  0
    1.8850   40.4100   38.2260 C   0  0  0  0  0  0  0  0  0  0  0  0
    0.4220   40.7230   38.6070 C   0  0  0  0  0  0  0  0  0  0  0  0
   -0.6190   39.6490   38.4100 C   0  0  0  0  0  0  0  0  0  0  0  0
   -0.2050   38.3400   37.8550 C   0  0  0  0  0  0  0  0  0  0  0  0
    1.2380   38.1470   37.5250 C   0  0  0  0  0  0  0  0  0  0  0  0
   -0.0040   42.0600   39.1690 C   0  0  0  0  0  0  0  0  0  0  0  0
    0.2760   42.1390   40.5890 O   0  0  0  0  0  0  0  0  0  0  0  0
    3.0600   41.3700   38.3550 C   0  0  0  0  0  0  0  0  0  0  0  0
    4.3100   40.7800   37.9110 O   0  0  0  0  0  0  0  0  0  0  0  0
   -0.3140   30.0320   37.8740 C   0  0  0  0  0  0  0  0  0  0  0  0
    1.4940   31.6960   35.9090 C   0  0  0  0  0  0  0  0  0  0  0  0
    5.0388   28.9046   35.1541 H   0  0  0  0  0  0  0  0  0  0  0  0
   -0.0095   31.2720   34.3146 H   0  0  0  0  0  0  0  0  0  0  0  0
   -1.3293   36.8955   39.2069 H   0  0  0  0  0  0  0  0  0  0  0  0
    0.3761   36.7358   39.4232 H   0  0  0  0  0  0  0  0  0  0  0  0
    4.9059   30.7057   35.7797 H   0  0  0  0  0  0  0  0  0  0  0  0
    1.6062   30.0435   32.8054 H   0  0  0  0  0  0  0  0  0  0  0  0
    4.7175   32.1004   37.5529 H   0  0  0  0  0  0  0  0  0  0  0  0
    3.2241   33.0663   37.8827 H   0  0  0  0  0  0  0  0  0  0  0  0
    1.1653   34.4011   35.9941 H   0  0  0  0  0  0  0  0  0  0  0  0
   -1.9150   31.8896   39.2751 H   0  0  0  0  0  0  0  0  0  0  0  0
   -1.9950   34.4129   39.1432 H   0  0  0  0  0  0  0  0  0  0  0  0
    2.1979   31.1138   38.9813 H   0  0  0  0  0  0  0  0  0  0  0  0
    3.6677   30.1435   38.6611 H   0  0  0  0  0  0  0  0  0  0  0  0
    3.4505   31.3020   40.9945 H   0  0  0  0  0  0  0  0  0  0  0  0
    5.0058   31.4795   40.1136 H   0  0  0  0  0  0  0  0  0  0  0  0
    3.8150   32.8244   40.1136 H   0  0  0  0  0  0  0  0  0  0  0  0
    6.2048   29.8704   32.0000 H   0  0  0  0  0  0  0  0  0  0  0  0
    5.9190   31.1259   33.3419 H   0  0  0  0  0  0  0  0  0  0  0  0
    3.0997   29.0924   31.6763 H   0  0  0  0  0  0  0  0  0  0  0  0
    3.2357   27.7746   32.9668 H   0  0  0  0  0  0  0  0  0  0  0  0
   -1.8256   28.5993   37.3523 H   0  0  0  0  0  0  0  0  0  0  0  0
   -1.6742   29.9803   36.2136 H   0  0  0  0  0  0  0  0  0  0  0  0
   -0.4386   28.6765   36.2136 H   0  0  0  0  0  0  0  0  0  0  0  0
    5.3284   27.0397   32.0424 H   0  0  0  0  0  0  0  0  0  0  0  0
    4.0441   27.0071   30.7870 H   0  0  0  0  0  0  0  0  0  0  0  0
    5.2668   28.3230   30.7870 H   0  0  0  0  0  0  0  0  0  0  0  0
    4.3545   32.3013   32.0908 H   0  0  0  0  0  0  0  0  0  0  0  0
    5.6528   31.9191   30.9097 H   0  0  0  0  0  0  0  0  0  0  0  0
    4.1298   30.9667   30.9097 H   0  0  0  0  0  0  0  0  0  0  0  0
    3.2477   38.8943   37.4347 H   0  0  0  0  0  0  0  0  0  0  0  0
   -1.6702   39.8355   38.6748 H   0  0  0  0  0  0  0  0  0  0  0  0
    1.5505   37.1746   37.1166 H   0  0  0  0  0  0  0  0  0  0  0  0
    0.5438   42.8598   38.6492 H   0  0  0  0  0  0  0  0  0  0  0  0
   -1.0876   42.1746   39.0183 H   0  0  0  0  0  0  0  0  0  0  0  0
   -0.5403   41.9087   41.0996 H   0  0  0  0  0  0  0  0  0  0  0  0
    3.1629   41.6621   39.4105 H   0  0  0  0  0  0  0  0  0  0  0  0
    2.8538   42.2395   37.7135 H   0  0  0  0  0  0  0  0  0  0  0  0
    4.8523   40.5240   38.6987 H   0  0  0  0  0  0  0  0  0  0  0  0
   -0.7108   29.7770   38.8678 H   0  0  0  0  0  0  0  0  0  0  0  0
    0.7326   29.7305   37.7204 H   0  0  0  0  0  0  0  0  0  0  0  0
 22 20  1  0
 23 19  1  0
 20 18  1  0
 19 18  1  0
 18 10  1  0
 18  2  1  0
  7 10  1  0
  7  3  2  0
 10  6  2  0
  3 35  1  0
  6  5  1  0
 35  5  2  0
 35 12  1  0
  5  9  1  0
 11 12  2  0
 11  8  1  0
 12 13  1  0
 21 34  1  0
  1  8  1  0
  1  4  1  0
 29 24  2  0
 29 28  1  0
  8 15  2  0
 24 25  1  0
  9 16  1  0
 13 34  1  0
 13 14  2  0
 28 27  2  0
 28  4  1  0
 33 32  1  0
 25 32  1  0
 25 26  2  0
 27 26  1  0
 15 14  1  0
 26 30  1  0
 16 17  1  0
 30 31  1  0
  2 36  1  0
  3 37  1  0
  4 38  1  0
  4 39  1  0
  6 40  1  0
  7 41  1  0
  9 42  1  0
  9 43  1  0
 11 44  1  0
 14 45  1  0
 15 46  1  0
 16 47  1  0
 16 48  1  0
 17 49  1  0
 17 50  1  0
 17 51  1  0
 19 52  1  0
 19 53  1  0
 20 54  1  0
 20 55  1  0
 21 56  1  0
 21 57  1  0
 21 58  1  0
 22 59  1  0
 22 60  1  0
 22 61  1  0
 23 62  1  0
 23 63  1  0
 23 64  1  0
 24 65  1  0
 27 66  1  0
 29 67  1  0
 30 68  1  0
 30 69  1  0
 31 70  1  0
 32 71  1  0
 32 72  1  0
 33 73  1  0
 34 74  1  0
 34 75  1  0
A    1
O1
A    2
O2
A    3
C9
A    4
C10
A    5
C11
A    6
C12
A    7
C13
A    8
C14
A    9
C15
A   10
C16
A   11
C17
A   12
C18
A   13
C19
A   14
C20
A   15
C21
A   16
C22
A   17
C23
A   18
C24
A   19
C25
A   20
C26
A   21
C27
A   22
C28
A   23
C29
A   24
C1
A   25
C2
A   26
C3
A   27
C4
A   28
C5
A   29
C6
A   30
C48
A   31
O49
A   32
C52
A   33
O53
A   34
C8
A   35
C7
M  END
