4G20_484_A_501
     RDKit          3D

 74 76  0  0  0  0  0  0  0  0999 V2000
    2.2600   39.2490   37.7600 C   0  0  0  0  0  0  0  0  0  0  0  0
    1.8250   40.5020   38.3000 C   0  0  0  0  0  0  0  0  0  0  0  0
    0.3380   40.6770   38.6900 C   0  0  0  0  0  0  0  0  0  0  0  0
   -0.5980   39.5080   38.4850 C   0  0  0  0  0  0  0  0  0  0  0  0
   -0.0660   38.2410   37.9160 C   0  0  0  0  0  0  0  0  0  0  0  0
    1.3880   38.1930   37.5750 C   0  0  0  0  0  0  0  0  0  0  0  0
   -0.2180   41.9640   39.2640 C   0  0  0  0  0  0  0  0  0  0  0  0
    0.4550   42.3380   40.4850 O   0  0  0  0  0  0  0  0  0  0  0  0
    2.9200   41.5550   38.4310 C   0  0  0  0  0  0  0  0  0  0  0  0
    4.2150   41.0620   37.9730 O   0  0  0  0  0  0  0  0  0  0  0  0
   -0.0700   36.8360   38.7240 C   0  0  0  0  0  0  0  0  0  0  0  0
   -0.3060   35.8240   37.5740 C   0  0  0  0  0  0  0  0  0  0  0  0
   -0.3050   34.4660   37.8140 C   0  0  0  0  0  0  0  0  0  0  0  0
    0.5670   33.7130   36.8690 C   0  0  0  0  0  0  0  0  0  0  0  0
    0.6980   32.2350   37.0340 C   0  0  0  0  0  0  0  0  0  0  0  0
   -0.0440   31.5430   38.1420 C   0  0  0  0  0  0  0  0  0  0  0  0
   -0.8940   32.3410   39.0390 C   0  0  0  0  0  0  0  0  0  0  0  0
   -1.0190   33.7770   38.8740 C   0  0  0  0  0  0  0  0  0  0  0  0
    0.0690   29.9620   38.3790 C   0  0  0  0  0  0  0  0  0  0  0  0
    1.5590   31.5700   36.0990 C   0  0  0  0  0  0  0  0  0  0  0  0
    0.9930   30.9120   34.9020 C   0  0  0  0  0  0  0  0  0  0  0  0
    3.0960   31.5400   36.3530 C   0  0  0  0  0  0  0  0  0  0  0  0
    3.9100   30.8580   35.4060 C   0  0  0  0  0  0  0  0  0  0  0  0
    1.8580   30.2330   33.9640 C   0  0  0  0  0  0  0  0  0  0  0  0
    3.3800   30.1820   34.1980 C   0  0  0  0  0  0  0  0  0  0  0  0
    3.8700   32.1850   37.5520 C   0  0  0  0  0  0  0  0  0  0  0  0
    4.4150   29.4740   33.2700 C   0  0  0  0  0  0  0  0  0  0  0  0
    5.3840   30.4920   32.5090 C   0  0  0  0  0  0  0  0  0  0  0  0
    3.6450   28.5230   32.2420 C   0  0  0  0  0  0  0  0  0  0  0  0
    5.2060   28.6040   34.1100 O   0  0  0  0  0  0  0  0  0  0  0  0
    4.5180   27.7390   31.2650 C   0  0  0  0  0  0  0  0  0  0  0  0
    4.7380   31.5210   31.5530 C   0  0  0  0  0  0  0  0  0  0  0  0
    3.7670   31.3400   38.8100 C   0  0  0  0  0  0  0  0  0  0  0  0
    4.5420   32.0470   39.9140 C   0  0  0  0  0  0  0  0  0  0  0  0
    3.3176   39.1236   37.4848 H   0  0  0  0  0  0  0  0  0  0  0  0
   -1.6612   39.5934   38.7538 H   0  0  0  0  0  0  0  0  0  0  0  0
    1.7886   37.2604   37.1509 H   0  0  0  0  0  0  0  0  0  0  0  0
   -0.0896   42.7687   38.5252 H   0  0  0  0  0  0  0  0  0  0  0  0
   -1.2822   41.8059   39.4933 H   0  0  0  0  0  0  0  0  0  0  0  0
   -0.0813   42.0400   41.2620 H   0  0  0  0  0  0  0  0  0  0  0  0
    3.0057   41.8476   39.4879 H   0  0  0  0  0  0  0  0  0  0  0  0
    2.6421   42.4122   37.8001 H   0  0  0  0  0  0  0  0  0  0  0  0
    4.7816   40.8463   38.7557 H   0  0  0  0  0  0  0  0  0  0  0  0
   -0.8823   36.8000   39.4649 H   0  0  0  0  0  0  0  0  0  0  0  0
    0.8438   36.6495   39.3073 H   0  0  0  0  0  0  0  0  0  0  0  0
    0.4793   36.0105   36.8267 H   0  0  0  0  0  0  0  0  0  0  0  0
   -1.3503   36.0195   37.2890 H   0  0  0  0  0  0  0  0  0  0  0  0
    1.1044   34.2365   36.0645 H   0  0  0  0  0  0  0  0  0  0  0  0
   -1.4445   31.8402   39.8490 H   0  0  0  0  0  0  0  0  0  0  0  0
   -1.6614   34.3497   39.5591 H   0  0  0  0  0  0  0  0  0  0  0  0
    0.0839   29.7533   39.4589 H   0  0  0  0  0  0  0  0  0  0  0  0
   -0.7955   29.4598   37.9204 H   0  0  0  0  0  0  0  0  0  0  0  0
    0.9962   29.5878   37.9204 H   0  0  0  0  0  0  0  0  0  0  0  0
   -0.0922   30.9394   34.7244 H   0  0  0  0  0  0  0  0  0  0  0  0
    4.9957   30.8308   35.5805 H   0  0  0  0  0  0  0  0  0  0  0  0
    1.4261   29.7487   33.0758 H   0  0  0  0  0  0  0  0  0  0  0  0
    4.9303   32.2872   37.2776 H   0  0  0  0  0  0  0  0  0  0  0  0
    3.4194   33.1664   37.7615 H   0  0  0  0  0  0  0  0  0  0  0  0
    6.0909   29.8922   31.9169 H   0  0  0  0  0  0  0  0  0  0  0  0
    5.8325   31.0993   33.3090 H   0  0  0  0  0  0  0  0  0  0  0  0
    2.9613   29.1508   31.6517 H   0  0  0  0  0  0  0  0  0  0  0  0
    3.1431   27.7652   32.8615 H   0  0  0  0  0  0  0  0  0  0  0  0
    5.0216   28.8068   35.0613 H   0  0  0  0  0  0  0  0  0  0  0  0
    5.2214   27.1073   31.8274 H   0  0  0  0  0  0  0  0  0  0  0  0
    3.8807   27.1042   30.6319 H   0  0  0  0  0  0  0  0  0  0  0  0
    5.0809   28.4407   30.6319 H   0  0  0  0  0  0  0  0  0  0  0  0
    4.2438   32.3082   32.1413 H   0  0  0  0  0  0  0  0  0  0  0  0
    5.5159   31.9710   30.9187 H   0  0  0  0  0  0  0  0  0  0  0  0
    3.9946   31.0159   30.9187 H   0  0  0  0  0  0  0  0  0  0  0  0
    2.7122   31.2334   39.1032 H   0  0  0  0  0  0  0  0  0  0  0  0
    4.1821   30.3369   38.6327 H   0  0  0  0  0  0  0  0  0  0  0  0
    4.1732   31.7105   40.8942 H   0  0  0  0  0  0  0  0  0  0  0  0
    5.6116   31.8070   39.8226 H   0  0  0  0  0  0  0  0  0  0  0  0
    4.4010   33.1341   39.8226 H   0  0  0  0  0  0  0  0  0  0  0  0
 31 29  1  0
 32 28  1  0
 29 27  1  0
 28 27  1  0
 27 30  1  0
 27 25  1  0
 24 25  1  0
 24 21  2  0
 25 23  2  0
 21 20  1  0
 23 22  1  0
 20 22  2  0
 20 15  1  0
 22 26  1  0
 14 15  2  0
 14 13  1  0
 15 16  1  0
 12 13  1  0
 12 11  1  0
 26 33  1  0
 13 18  2  0
  6  1  2  0
  6  5  1  0
  1  2  1  0
 10  9  1  0
  5  4  2  0
  5 11  1  0
 16 19  1  0
 16 17  2  0
  2  9  1  0
  2  3  2  0
  4  3  1  0
  3  7  1  0
 18 17  1  0
 33 34  1  0
  7  8  1  0
  1 35  1  0
  4 36  1  0
  6 37  1  0
  7 38  1  0
  7 39  1  0
  8 40  1  0
  9 41  1  0
  9 42  1  0
 10 43  1  0
 11 44  1  0
 11 45  1  0
 12 46  1  0
 12 47  1  0
 14 48  1  0
 17 49  1  0
 18 50  1  0
 19 51  1  0
 19 52  1  0
 19 53  1  0
 21 54  1  0
 23 55  1  0
 24 56  1  0
 26 57  1  0
 26 58  1  0
 28 59  1  0
 28 60  1  0
 29 61  1  0
 29 62  1  0
 30 63  1  0
 31 64  1  0
 31 65  1  0
 31 66  1  0
 32 67  1  0
 32 68  1  0
 32 69  1  0
 33 70  1  0
 33 71  1  0
 34 72  1  0
 34 73  1  0
 34 74  1  0
A    1
C1
A    2
C2
A    3
C3
A    4
C4
A    5
C5
A    6
C6
A    7
C48
A    8
O49
A    9
C52
A   10
O53
A   11
C10
A   12
C27
A   13
C14
A   14
C17
A   15
C18
A   16
C19
A   17
C20
A   18
C21
A   19
C8
A   20
C7
A   21
C9
A   22
C11
A   23
C12
A   24
C13
A   25
C16
A   26
C15
A   27
C24
A   28
C25
A   29
C26
A   30
O2
A   31
C28
A   32
C29
A   33
C22
A   34
C23
M  END
