4G28_0W8_R_1006
     RDKit          3D

 22 23  0  0  0  0  0  0  0  0999 V2000
   34.9510   54.5610   50.0780 O   0  0  0  0  0  0  0  0  0  0  0  0
   34.7180   53.3740   50.2300 C   0  0  0  0  0  0  0  0  0  0  0  0
   33.6950   52.8330   51.0560 N   0  0  0  0  0  0  0  0  0  0  0  0
   32.7400   53.5430   51.9200 C   0  0  0  0  0  0  0  0  0  0  0  0
   33.2830   53.6440   53.3330 C   0  0  0  0  0  0  0  0  0  0  0  0
   35.3920   52.3080   49.7030 N   0  0  0  0  0  0  0  0  0  0  0  0
   34.8600   51.1200   50.1650 C   0  0  0  0  0  0  0  0  0  0  0  0
   33.7930   51.4400   50.9980 C   0  0  0  0  0  0  0  0  0  0  0  0
   35.2430   49.7970   49.9850 C   0  0  0  0  0  0  0  0  0  0  0  0
   34.5340   48.8100   50.6550 C   0  0  0  0  0  0  0  0  0  0  0  0
   33.4620   49.1340   51.4800 C   0  0  0  0  0  0  0  0  0  0  0  0
   33.0740   50.4560   51.6590 C   0  0  0  0  0  0  0  0  0  0  0  0
   32.5734   54.5549   51.5220 H   0  0  0  0  0  0  0  0  0  0  0  0
   31.7921   52.9852   51.9399 H   0  0  0  0  0  0  0  0  0  0  0  0
   32.4646   53.4918   54.0521 H   0  0  0  0  0  0  0  0  0  0  0  0
   34.0533   52.8737   53.4857 H   0  0  0  0  0  0  0  0  0  0  0  0
   33.7248   54.6397   53.4857 H   0  0  0  0  0  0  0  0  0  0  0  0
   36.1865   52.3806   49.0516 H   0  0  0  0  0  0  0  0  0  0  0  0
   36.0866   49.5383   49.3282 H   0  0  0  0  0  0  0  0  0  0  0  0
   34.8240   47.7561   50.5319 H   0  0  0  0  0  0  0  0  0  0  0  0
   32.9141   48.3328   51.9976 H   0  0  0  0  0  0  0  0  0  0  0  0
   32.2223   50.7141   52.3055 H   0  0  0  0  0  0  0  0  0  0  0  0
  6  7  1  0
  6  2  1  0
  9  7  2  0
  9 10  1  0
  1  2  2  0
  7  8  1  0
  2  3  1  0
 10 11  2  0
  8  3  1  0
  8 12  2  0
  3  4  1  0
 11 12  1  0
  4  5  1  0
  4 13  1  0
  4 14  1  0
  5 15  1  0
  5 16  1  0
  5 17  1  0
  6 18  1  0
  9 19  1  0
 10 20  1  0
 11 21  1  0
 12 22  1  0
A    1
O
A    2
C8
A    3
N
A    4
C1
A    5
C
A    6
N1
A    7
C7
A    8
C2
A    9
C6
A   10
C5
A   11
C4
A   12
C3
M  END
