4G2F_C07_A_1001
     RDKit          3D

 42 45  0  0  0  0  0  0  0  0999 V2000
   -9.5810    8.4270   53.9710 O   0  0  0  0  0  0  0  0  0  0  0  0
   -9.2290    7.7920   52.8640 C   0  0  0  0  0  0  0  0  0  0  0  0
   -8.9370    6.3330   52.9210 C   0  0  0  0  0  0  0  0  0  0  0  0
   -9.0440    5.6030   54.2410 C   0  0  0  0  0  0  0  0  0  0  0  0
   -8.8080    4.1010   54.0820 C   0  0  0  0  0  0  0  0  0  0  0  0
   -7.7220    3.7870   53.0570 C   0  0  0  0  0  0  0  0  0  0  0  0
   -8.2310    4.1530   51.6700 C   0  0  0  0  0  0  0  0  0  0  0  0
   -8.5480    5.6300   51.6780 C   0  0  0  0  0  0  0  0  0  0  0  0
   -8.4730    6.4380   50.4400 C   0  0  0  0  0  0  0  0  0  0  0  0
   -8.7780    7.8830   50.4990 C   0  0  0  0  0  0  0  0  0  0  0  0
   -8.6940    8.5890   49.3500 N   0  0  0  0  0  0  0  0  0  0  0  0
   -8.3410    8.0050   48.1900 C   0  0  0  0  0  0  0  0  0  0  0  0
   -8.0510    6.6980   48.0720 N   0  0  0  0  0  0  0  0  0  0  0  0
   -8.0880    5.8640   49.1320 C   0  0  0  0  0  0  0  0  0  0  0  0
   -7.7990    4.5480   49.0170 N   0  0  0  0  0  0  0  0  0  0  0  0
   -9.1490    8.4860   51.7250 N   0  0  0  0  0  0  0  0  0  0  0  0
   -9.4430    9.8570   51.7900 C   0  0  0  0  0  0  0  0  0  0  0  0
   -8.5700   10.7190   52.4240 C   0  0  0  0  0  0  0  0  0  0  0  0
   -8.8680   12.0680   52.4900 C   0  0  0  0  0  0  0  0  0  0  0  0
   -8.0070   12.9100   53.1200 O   0  0  0  0  0  0  0  0  0  0  0  0
  -10.0460   12.5670   51.9320 C   0  0  0  0  0  0  0  0  0  0  0  0
  -10.9620   11.7420   51.2890 C   0  0  0  0  0  0  0  0  0  0  0  0
  -10.6940   10.3850   51.1980 C   0  0  0  0  0  0  0  0  0  0  0  0
  -11.6460    9.4520   50.5090 C   0  0  0  0  0  0  0  0  0  0  0  0
   -8.2930    6.0096   54.9343 H   0  0  0  0  0  0  0  0  0  0  0  0
  -10.0625    5.7490   54.6299 H   0  0  0  0  0  0  0  0  0  0  0  0
   -9.7469    3.6285   53.7576 H   0  0  0  0  0  0  0  0  0  0  0  0
   -8.4741    3.7097   55.0543 H   0  0  0  0  0  0  0  0  0  0  0  0
   -7.4818    2.7141   53.0907 H   0  0  0  0  0  0  0  0  0  0  0  0
   -6.8155    4.3665   53.2858 H   0  0  0  0  0  0  0  0  0  0  0  0
   -9.1380    3.5754   51.4383 H   0  0  0  0  0  0  0  0  0  0  0  0
   -7.4735    3.9234   50.9062 H   0  0  0  0  0  0  0  0  0  0  0  0
   -8.2868    8.6324   47.2881 H   0  0  0  0  0  0  0  0  0  0  0  0
   -7.6727    3.9727   49.8620 H   0  0  0  0  0  0  0  0  0  0  0  0
   -7.7052    4.1209   48.0844 H   0  0  0  0  0  0  0  0  0  0  0  0
   -7.6427   10.3348   52.8740 H   0  0  0  0  0  0  0  0  0  0  0  0
   -7.9776   12.9388   54.1091 H   0  0  0  0  0  0  0  0  0  0  0  0
  -10.2558   13.6445   52.0030 H   0  0  0  0  0  0  0  0  0  0  0  0
  -11.8846   12.1594   50.8594 H   0  0  0  0  0  0  0  0  0  0  0  0
  -12.2187    8.8907   51.2619 H   0  0  0  0  0  0  0  0  0  0  0  0
  -12.3372   10.0321   49.8800 H   0  0  0  0  0  0  0  0  0  0  0  0
  -11.0799    8.7492   49.8800 H   0  0  0  0  0  0  0  0  0  0  0  0
 13 12  2  0
 13 14  1  0
 12 11  1  0
 15 14  1  0
 14  9  2  0
 11 10  2  0
  9 10  1  0
  9  8  1  0
 10 16  1  0
 24 23  1  0
 23 22  2  0
 23 17  1  0
 22 21  1  0
  7  8  1  0
  7  6  1  0
  8  3  2  0
 16 17  1  0
 16  2  1  0
 17 18  2  0
 21 19  2  0
 18 19  1  0
 19 20  1  0
  2  3  1  0
  2  1  2  0
  3  4  1  0
  6  5  1  0
  5  4  1  0
  4 25  1  0
  4 26  1  0
  5 27  1  0
  5 28  1  0
  6 29  1  0
  6 30  1  0
  7 31  1  0
  7 32  1  0
 12 33  1  0
 15 34  1  0
 15 35  1  0
 18 36  1  0
 20 37  1  0
 21 38  1  0
 22 39  1  0
 24 40  1  0
 24 41  1  0
 24 42  1  0
A    1
O1
A    2
C7
A    3
C8
A    4
C13
A    5
C12
A    6
C11
A    7
C10
A    8
C9
A    9
C14
A   10
C17
A   11
N3
A   12
C16
A   13
N2
A   14
C15
A   15
N1
A   16
N
A   17
C2
A   18
C3
A   19
C4
A   20
O
A   21
C5
A   22
C6
A   23
C1
A   24
C
M  END
