3TIY_TIY_A_311
     RDKit          3D

 24 25  0  0  0  0  0  0  0  0999 V2000
  -94.7320    9.7670  -48.7200 C   0  0  0  0  0  0  0  0  0  0  0  0
  -94.3220    9.7630  -50.0630 C   0  0  0  0  0  0  0  0  0  0  0  0
  -92.9950    9.0730  -51.7710 O   0  0  0  0  0  0  0  0  0  0  0  0
  -93.2570    8.9500  -50.4510 C   0  0  0  0  0  0  0  0  0  0  0  0
  -92.5410    8.0890  -49.5430 C   0  0  0  0  0  0  0  0  0  0  0  0
  -92.9790    8.0980  -48.1710 C   0  0  0  0  0  0  0  0  0  0  0  0
  -92.4450    7.3580  -47.0830 C   0  0  0  0  0  0  0  0  0  0  0  0
  -91.3970    6.4360  -47.0280 C   0  0  0  0  0  0  0  0  0  0  0  0
  -90.5760    6.0130  -48.0620 C   0  0  0  0  0  0  0  0  0  0  0  0
  -90.6010    6.3890  -49.4070 C   0  0  0  0  0  0  0  0  0  0  0  0
  -91.4650    7.3040  -50.0650 C   0  0  0  0  0  0  0  0  0  0  0  0
  -91.2030    7.4000  -51.3000 O   0  0  0  0  0  0  0  0  0  0  0  0
  -89.6330    5.7440  -50.1270 O   0  0  0  0  0  0  0  0  0  0  0  0
  -94.0680    8.9460  -47.8000 C   0  0  0  0  0  0  0  0  0  0  0  0
  -95.7600   10.5350  -48.2980 O   0  0  0  0  0  0  0  0  0  0  0  0
  -94.9230   10.5320  -51.0090 O   0  0  0  0  0  0  0  0  0  0  0  0
  -92.1409    9.4739  -52.0709 H   0  0  0  0  0  0  0  0  0  0  0  0
  -92.9414    7.5423  -46.1188 H   0  0  0  0  0  0  0  0  0  0  0  0
  -91.1986    5.9904  -46.0421 H   0  0  0  0  0  0  0  0  0  0  0  0
  -89.8007    5.2831  -47.7861 H   0  0  0  0  0  0  0  0  0  0  0  0
  -88.9072    5.2604  -49.6585 H   0  0  0  0  0  0  0  0  0  0  0  0
  -94.3976    8.9541  -46.7506 H   0  0  0  0  0  0  0  0  0  0  0  0
  -95.9221   10.6561  -47.3289 H   0  0  0  0  0  0  0  0  0  0  0  0
  -95.5093   11.2822  -50.7379 H   0  0  0  0  0  0  0  0  0  0  0  0
  1 15  1  0
  1 14  2  0
  2  1  1  0
  3  4  1  0
  4  2  2  0
  4  5  1  0
  5  6  2  0
  6 14  1  0
  6  7  1  0
  7  8  2  0
  9  8  1  0
 10  9  2  0
 11  5  1  0
 11 10  1  0
 12 11  2  0
 13 10  1  0
 16  2  1  0
  3 17  1  0
  7 18  1  0
  8 19  1  0
  9 20  1  0
 13 21  1  0
 14 22  1  0
 15 23  1  0
 16 24  1  0
A    1
C13
A    2
C15
A    3
O01
A    4
C02
A    5
C03
A    6
C04
A    7
C05
A    8
C06
A    9
C07
A   10
C08
A   11
C09
A   12
O10
A   13
O11
A   14
C12
A   15
O14
A   16
O16
M  END
