4G44_TZM_A_405
     RDKit          3D

 23 24  0  0  0  0  0  0  0  0999 V2000
   -7.1240   21.7810    5.2940 C   0  0  0  0  0  0  0  0  0  0  0  0
   -6.7030   21.9460    6.6050 C   0  0  0  0  0  0  0  0  0  0  0  0
   -7.2660   23.0220    7.4040 N   0  0  0  0  0  0  0  0  0  0  0  0
   -5.6260   21.1910    7.1040 C   0  0  0  0  0  0  0  0  0  0  0  0
   -5.0820   20.1900    6.3170 C   0  0  0  0  0  0  0  0  0  0  0  0
   -5.5280   19.9200    5.0080 C   0  0  0  0  0  0  0  0  0  0  0  0
   -6.5400   20.7380    4.5100 C   0  0  0  0  0  0  0  0  0  0  0  0
   -6.8720   20.4360    3.0940 C   0  0  0  0  0  0  0  0  0  0  0  0
   -8.1010   20.9520    2.5720 N   0  0  0  0  0  0  0  0  0  0  0  0
   -9.2160   20.7040    3.1470 N   0  0  0  0  0  0  0  0  0  0  0  0
  -10.1420   21.3690    2.4150 C   0  0  0  0  0  0  0  0  0  0  0  0
   -9.5820   21.8230    1.2390 N   0  0  0  0  0  0  0  0  0  0  0  0
   -8.2890   21.5750    1.3600 C   0  0  0  0  0  0  0  0  0  0  0  0
   -7.8930   22.4404    4.8654 H   0  0  0  0  0  0  0  0  0  0  0  0
   -7.2382   22.9688    8.4322 H   0  0  0  0  0  0  0  0  0  0  0  0
   -7.6928   23.8376    6.9419 H   0  0  0  0  0  0  0  0  0  0  0  0
   -5.2212   21.3933    8.1066 H   0  0  0  0  0  0  0  0  0  0  0  0
   -4.2665   19.5792    6.7316 H   0  0  0  0  0  0  0  0  0  0  0  0
   -5.0984   19.1037    4.4088 H   0  0  0  0  0  0  0  0  0  0  0  0
   -6.9058   19.3413    2.9912 H   0  0  0  0  0  0  0  0  0  0  0  0
   -6.0889   20.9434    2.5115 H   0  0  0  0  0  0  0  0  0  0  0  0
  -11.1888   21.5244    2.7150 H   0  0  0  0  0  0  0  0  0  0  0  0
   -7.5073   21.8215    0.6264 H   0  0  0  0  0  0  0  0  0  0  0  0
 12 13  2  0
 12 11  1  0
 13  9  1  0
 11 10  2  0
  9  8  1  0
  9 10  1  0
  8  7  1  0
  7  6  1  0
  7  1  2  0
  6  5  2  0
  1  2  1  0
  5  4  1  0
  2  4  2  0
  2  3  1  0
  1 14  1  0
  3 15  1  0
  3 16  1  0
  4 17  1  0
  5 18  1  0
  6 19  1  0
  8 20  1  0
  8 21  1  0
 11 22  1  0
 13 23  1  0
A    1
CAG
A    2
CAK
A    3
NAA
A    4
CAC
A    5
CAB
A    6
CAD
A    7
CAL
A    8
CAH
A    9
NAM
A   10
NAJ
A   11
CAE
A   12
NAI
A   13
CAF
M  END
