4G46_TTY_A_406
     RDKit          3D

 21 22  0  0  0  0  0  0  0  0999 V2000
  -14.5370   16.1270    3.7740 O   0  0  0  0  0  0  0  0  0  0  0  0
  -13.4520   16.7600    3.4440 C   0  0  0  0  0  0  0  0  0  0  0  0
  -13.5830   17.9420    3.1480 O   0  0  0  0  0  0  0  0  0  0  0  0
  -12.1880   16.1580    3.5550 C   0  0  0  0  0  0  0  0  0  0  0  0
  -10.9530   16.3740    2.9710 C   0  0  0  0  0  0  0  0  0  0  0  0
  -10.4690   17.1840    1.9280 C   0  0  0  0  0  0  0  0  0  0  0  0
  -11.2440   17.8830    1.2100 O   0  0  0  0  0  0  0  0  0  0  0  0
   -9.0510   17.2780    1.6700 C   0  0  0  0  0  0  0  0  0  0  0  0
   -8.4180   15.9210    1.6810 C   0  0  0  0  0  0  0  0  0  0  0  0
   -8.6780   15.3290    3.1070 C   0  0  0  0  0  0  0  0  0  0  0  0
  -10.0640   15.4510    3.4780 C   0  0  0  0  0  0  0  0  0  0  0  0
  -10.6520   14.7020    4.3410 O   0  0  0  0  0  0  0  0  0  0  0  0
  -12.0890   15.1790    4.4910 C   0  0  0  0  0  0  0  0  0  0  0  0
  -14.7624   15.9955    4.7290 H   0  0  0  0  0  0  0  0  0  0  0  0
   -8.5834   17.9005    2.4471 H   0  0  0  0  0  0  0  0  0  0  0  0
   -8.9020   17.7288    0.6777 H   0  0  0  0  0  0  0  0  0  0  0  0
   -8.8759   15.2804    0.9129 H   0  0  0  0  0  0  0  0  0  0  0  0
   -7.3417   15.9791    1.4613 H   0  0  0  0  0  0  0  0  0  0  0  0
   -8.3983   14.2652    3.1101 H   0  0  0  0  0  0  0  0  0  0  0  0
   -8.0728   15.8919    3.8329 H   0  0  0  0  0  0  0  0  0  0  0  0
  -12.8600   14.8186    5.1879 H   0  0  0  0  0  0  0  0  0  0  0  0
  7  6  2  0
  8  9  1  0
  8  6  1  0
  9 10  1  0
  6  5  1  0
  5 11  2  0
  5  4  1  0
 10 11  1  0
  3  2  2  0
  2  4  1  0
  2  1  1  0
 11 12  1  0
  4 13  2  0
 12 13  1  0
  1 14  1  0
  8 15  1  0
  8 16  1  0
  9 17  1  0
  9 18  1  0
 10 19  1  0
 10 20  1  0
 13 21  1  0
A    1
OAA
A    2
CAI
A    3
OAC
A    4
CAK
A    5
CAM
A    6
CAJ
A    7
OAB
A    8
CAF
A    9
CAE
A   10
CAG
A   11
CAL
A   12
OAH
A   13
CAD
M  END
