4G47_TZF_A_406
     RDKit          3D

 19 20  0  0  0  0  0  0  0  0999 V2000
  -10.8440   19.1620    3.3760 C   0  0  0  0  0  0  0  0  0  0  0  0
  -10.4310   20.2540    2.6010 C   0  0  0  0  0  0  0  0  0  0  0  0
   -9.5150   20.0900    1.5830 C   0  0  0  0  0  0  0  0  0  0  0  0
   -9.1230   21.1310    0.8060 O   0  0  0  0  0  0  0  0  0  0  0  0
   -9.0040   18.8270    1.3600 C   0  0  0  0  0  0  0  0  0  0  0  0
   -9.3850   17.7420    2.1440 C   0  0  0  0  0  0  0  0  0  0  0  0
  -10.3160   17.8880    3.1650 C   0  0  0  0  0  0  0  0  0  0  0  0
  -10.6410   16.8280    3.9210 N   0  0  0  0  0  0  0  0  0  0  0  0
   -9.8020   15.8540    4.3070 C   0  0  0  0  0  0  0  0  0  0  0  0
  -10.4910   15.0020    5.0380 N   0  0  0  0  0  0  0  0  0  0  0  0
  -11.7290   15.5010    5.0560 C   0  0  0  0  0  0  0  0  0  0  0  0
  -11.7700   16.6160    4.3390 N   0  0  0  0  0  0  0  0  0  0  0  0
  -11.5970   19.3118    4.1638 H   0  0  0  0  0  0  0  0  0  0  0  0
  -10.8420   21.2533    2.8069 H   0  0  0  0  0  0  0  0  0  0  0  0
   -8.8070   21.9702    1.2254 H   0  0  0  0  0  0  0  0  0  0  0  0
   -8.2805   18.6750    0.5455 H   0  0  0  0  0  0  0  0  0  0  0  0
   -8.9422   16.7535    1.9523 H   0  0  0  0  0  0  0  0  0  0  0  0
   -8.7331   15.7806    4.0581 H   0  0  0  0  0  0  0  0  0  0  0  0
  -12.5845   15.0555    5.5848 H   0  0  0  0  0  0  0  0  0  0  0  0
  4  3  1  0
  5  3  2  0
  5  6  1  0
  3  2  1  0
  6  7  2  0
  2  1  2  0
  7  1  1  0
  7  8  1  0
  8  9  1  0
  8 12  1  0
  9 10  2  0
 12 11  2  0
 10 11  1  0
  1 13  1  0
  2 14  1  0
  4 15  1  0
  5 16  1  0
  6 17  1  0
  9 18  1  0
 11 19  1  0
A    1
CAD
A    2
CAB
A    3
CAJ
A    4
OAA
A    5
CAC
A    6
CAE
A    7
CAK
A    8
NAL
A    9
CAG
A   10
NAH
A   11
CAF
A   12
NAI
M  END
