4G48_PZB_A_405
     RDKit          3D

 32 34  0  0  0  0  0  0  0  0999 V2000
   -9.8660  -18.3790   -1.2280 C   0  0  0  0  0  0  0  0  0  0  0  0
   -9.1580  -19.0420   -0.2310 C   0  0  0  0  0  0  0  0  0  0  0  0
   -8.8840  -20.3990   -0.3500 C   0  0  0  0  0  0  0  0  0  0  0  0
   -9.3140  -21.0970   -1.4640 C   0  0  0  0  0  0  0  0  0  0  0  0
  -10.0190  -20.4380   -2.4600 C   0  0  0  0  0  0  0  0  0  0  0  0
  -10.2710  -19.0790   -2.3500 C   0  0  0  0  0  0  0  0  0  0  0  0
  -10.9750  -18.4420   -3.3190 O   0  0  0  0  0  0  0  0  0  0  0  0
  -10.7260  -17.1030   -3.4340 C   0  0  0  0  0  0  0  0  0  0  0  0
   -9.5850  -16.4160   -3.3770 C   0  0  0  0  0  0  0  0  0  0  0  0
   -9.9010  -15.1160   -3.5460 N   0  0  0  0  0  0  0  0  0  0  0  0
  -11.1220  -14.9890   -3.7260 N   0  0  0  0  0  0  0  0  0  0  0  0
  -11.7190  -16.1850   -3.6380 C   0  0  0  0  0  0  0  0  0  0  0  0
  -13.0550  -16.5450   -3.7930 C   0  0  0  0  0  0  0  0  0  0  0  0
  -13.4560  -17.8780   -3.9380 C   0  0  0  0  0  0  0  0  0  0  0  0
  -14.8110  -18.1740   -4.1420 C   0  0  0  0  0  0  0  0  0  0  0  0
  -15.7390  -17.1360   -4.2050 C   0  0  0  0  0  0  0  0  0  0  0  0
  -17.0630  -17.3670   -4.4050 O   0  0  0  0  0  0  0  0  0  0  0  0
  -15.3230  -15.8240   -4.0660 C   0  0  0  0  0  0  0  0  0  0  0  0
  -13.9870  -15.5280   -3.8940 C   0  0  0  0  0  0  0  0  0  0  0  0
  -13.5950  -14.2330   -3.7560 O   0  0  0  0  0  0  0  0  0  0  0  0
  -10.1013  -17.3094   -1.1252 H   0  0  0  0  0  0  0  0  0  0  0  0
   -8.8135  -18.4895    0.6556 H   0  0  0  0  0  0  0  0  0  0  0  0
   -8.3248  -20.9184    0.4422 H   0  0  0  0  0  0  0  0  0  0  0  0
   -9.0975  -22.1712   -1.5596 H   0  0  0  0  0  0  0  0  0  0  0  0
  -10.3787  -20.9941   -3.3383 H   0  0  0  0  0  0  0  0  0  0  0  0
   -8.5780  -16.8304   -3.2217 H   0  0  0  0  0  0  0  0  0  0  0  0
   -9.2250  -14.3391   -3.5282 H   0  0  0  0  0  0  0  0  0  0  0  0
  -12.7130  -18.6879   -3.8922 H   0  0  0  0  0  0  0  0  0  0  0  0
  -15.1395  -19.2181   -4.2516 H   0  0  0  0  0  0  0  0  0  0  0  0
  -17.6696  -17.4728   -3.6298 H   0  0  0  0  0  0  0  0  0  0  0  0
  -16.0633  -15.0108   -4.0929 H   0  0  0  0  0  0  0  0  0  0  0  0
  -13.4775  -13.8449   -2.8528 H   0  0  0  0  0  0  0  0  0  0  0  0
 17 16  1  0
 16 15  1  0
 16 18  2  0
 15 14  2  0
 18 19  1  0
 14 13  1  0
 19 13  2  0
 19 20  1  0
 13 12  1  0
 11 12  2  0
 11 10  1  0
 12  8  1  0
 10  9  1  0
  8  9  2  0
  8  7  1  0
  7  6  1  0
  5  6  1  0
  5  4  2  0
  6  1  2  0
  4  3  1  0
  1  2  1  0
  3  2  2  0
  1 21  1  0
  2 22  1  0
  3 23  1  0
  4 24  1  0
  5 25  1  0
  9 26  1  0
 10 27  1  0
 14 28  1  0
 15 29  1  0
 17 30  1  0
 18 31  1  0
 20 32  1  0
A    1
CAF
A    2
CAD
A    3
CAC
A    4
CAE
A    5
CAG
A    6
CAQ
A    7
OAN
A    8
CAR
A    9
CAJ
A   10
NAM
A   11
NAL
A   12
CAT
A   13
CAS
A   14
CAI
A   15
CAH
A   16
CAO
A   17
OAA
A   18
CAK
A   19
CAP
A   20
OAB
M  END
