4G5F_15N_A_403
     RDKit          3D

 21 22  0  0  0  0  0  0  0  0999 V2000
   15.3440   12.9460    3.6900 O   0  0  0  0  0  0  0  0  0  0  0  0
   15.3860   11.8080    3.4610 C   0  0  0  0  0  0  0  0  0  0  0  0
   16.1050   11.3080    2.5920 O   0  0  0  0  0  0  0  0  0  0  0  0
   14.5630   10.7490    4.1720 C   0  0  0  0  0  0  0  0  0  0  0  0
   14.4780   11.1940    5.5100 O   0  0  0  0  0  0  0  0  0  0  0  0
   14.1930   10.2330    6.4280 C   0  0  0  0  0  0  0  0  0  0  0  0
   13.8540   10.6430    7.6780 C   0  0  0  0  0  0  0  0  0  0  0  0
   13.4310    9.7200    8.5990 C   0  0  0  0  0  0  0  0  0  0  0  0
   13.3450    8.4070    8.2650 C   0  0  0  0  0  0  0  0  0  0  0  0
   13.6800    7.9830    7.0040 C   0  0  0  0  0  0  0  0  0  0  0  0
   14.1070    8.8960    6.0890 C   0  0  0  0  0  0  0  0  0  0  0  0
   14.5100    8.4300    4.8750 O   0  0  0  0  0  0  0  0  0  0  0  0
   15.1390    9.3760    4.0410 C   0  0  0  0  0  0  0  0  0  0  0  0
   15.3323   13.2620    4.6281 H   0  0  0  0  0  0  0  0  0  0  0  0
   13.5651   10.6408    3.7220 H   0  0  0  0  0  0  0  0  0  0  0  0
   13.9184   11.7072    7.9489 H   0  0  0  0  0  0  0  0  0  0  0  0
   13.1598   10.0450    9.6143 H   0  0  0  0  0  0  0  0  0  0  0  0
   13.0034    7.6760    9.0126 H   0  0  0  0  0  0  0  0  0  0  0  0
   13.6045    6.9189    6.7357 H   0  0  0  0  0  0  0  0  0  0  0  0
   16.2066    9.4180    4.3025 H   0  0  0  0  0  0  0  0  0  0  0  0
   14.9816    9.0524    3.0015 H   0  0  0  0  0  0  0  0  0  0  0  0
  8  9  2  0
  8  7  1  0
  9 10  1  0
  7  6  2  0
 10 11  2  0
  6 11  1  0
  6  5  1  0
 11 12  1  0
  5  4  1  0
 12 13  1  0
  4 13  1  0
  4  2  1  0
  3  2  2  0
  2  1  1  0
  1 14  1  0
  4 15  1  0
  7 16  1  0
  8 17  1  0
  9 18  1  0
 10 19  1  0
 13 20  1  0
 13 21  1  0
A    1
OAA
A    2
CAJ
A    3
OAB
A    4
CAM
A    5
OAI
A    6
CAL
A    7
CAF
A    8
CAD
A    9
CAC
A   10
CAE
A   11
CAK
A   12
OAH
A   13
CAG
M  END
