4G5J_0WM_A_1102
     RDKit          3D

 59 62  0  0  0  0  0  0  0  0999 V2000
   59.2740   -5.5600   -5.4350 C   0  0  0  0  0  0  0  0  0  0  0  0
   60.5650   -5.1010   -5.4540 N   0  0  0  0  0  0  0  0  0  0  0  0
   58.2530   -4.6420   -5.3720 N   0  0  0  0  0  0  0  0  0  0  0  0
   60.8640   -3.7580   -5.4100 C   0  0  0  0  0  0  0  0  0  0  0  0
   58.5230   -3.2900   -5.3280 C   0  0  0  0  0  0  0  0  0  0  0  0
   59.8330   -2.8180   -5.3470 C   0  0  0  0  0  0  0  0  0  0  0  0
   58.9600   -0.5650   -5.2490 C   0  0  0  0  0  0  0  0  0  0  0  0
   60.0460   -1.4350   -5.3060 C   0  0  0  0  0  0  0  0  0  0  0  0
   57.6610   -1.0510   -5.2280 C   0  0  0  0  0  0  0  0  0  0  0  0
   57.4470   -2.4220   -5.2680 C   0  0  0  0  0  0  0  0  0  0  0  0
   62.2280   -3.3890   -5.4580 N   0  0  0  0  0  0  0  0  0  0  0  0
   64.3740   -6.4410   -5.9590 C   0  0  0  0  0  0  0  0  0  0  0  0
   65.6050   -5.8270   -6.0460 C   0  0  0  0  0  0  0  0  0  0  0  0
   63.2330   -5.6810   -5.7660 C   0  0  0  0  0  0  0  0  0  0  0  0
   65.7080   -4.4560   -5.9380 C   0  0  0  0  0  0  0  0  0  0  0  0
   63.3190   -4.2880   -5.6560 C   0  0  0  0  0  0  0  0  0  0  0  0
   64.5710   -3.6950   -5.7480 C   0  0  0  0  0  0  0  0  0  0  0  0
   66.6920   -6.5510   -6.2300 F   0  0  0  0  0  0  0  0  0  0  0  0
   64.2700   -8.1540   -6.0930 Cl  0  0  0  0  0  0  0  0  0  0  0  0
   56.6520   -0.1230   -5.1690 O   0  0  0  0  0  0  0  0  0  0  0  0
   55.2490   -0.3470   -5.3240 C   0  0  0  0  0  0  0  0  0  0  0  0
   54.5100    0.9580   -5.6420 C   0  0  0  0  0  0  0  0  0  0  0  0
   54.2050    1.5920   -4.3980 O   0  0  0  0  0  0  0  0  0  0  0  0
   53.9790    0.5270   -3.4790 C   0  0  0  0  0  0  0  0  0  0  0  0
   54.5850   -0.7520   -4.0380 C   0  0  0  0  0  0  0  0  0  0  0  0
   59.0560    0.8470   -5.2110 N   0  0  0  0  0  0  0  0  0  0  0  0
   60.1170    1.7410   -5.2550 C   0  0  0  0  0  0  0  0  0  0  0  0
   59.6350    3.1390   -5.1770 C   0  0  0  0  0  0  0  0  0  0  0  0
   61.2940    1.4440   -5.3240 O   0  0  0  0  0  0  0  0  0  0  0  0
   60.4130    4.2250   -5.1320 C   0  0  0  0  0  0  0  0  0  0  0  0
   59.6420    5.5360   -5.0330 C   0  0  0  0  0  0  0  0  0  0  0  0
   60.2910    6.6650   -5.7020 N   0  0  0  0  0  0  0  0  0  0  0  0
   60.6520    6.3280   -7.0930 C   0  0  0  0  0  0  0  0  0  0  0  0
   59.3680    7.8060   -5.7180 C   0  0  0  0  0  0  0  0  0  0  0  0
   59.0597   -6.6384   -5.4694 H   0  0  0  0  0  0  0  0  0  0  0  0
   61.0708   -1.0356   -5.3188 H   0  0  0  0  0  0  0  0  0  0  0  0
   56.4212   -2.8187   -5.2520 H   0  0  0  0  0  0  0  0  0  0  0  0
   62.4527   -2.3907   -5.3406 H   0  0  0  0  0  0  0  0  0  0  0  0
   62.2524   -6.1749   -5.6986 H   0  0  0  0  0  0  0  0  0  0  0  0
   66.6926   -3.9699   -6.0030 H   0  0  0  0  0  0  0  0  0  0  0  0
   64.6589   -2.6014   -5.6683 H   0  0  0  0  0  0  0  0  0  0  0  0
   55.1889   -1.1141   -6.1101 H   0  0  0  0  0  0  0  0  0  0  0  0
   55.1501    1.6135   -6.2508 H   0  0  0  0  0  0  0  0  0  0  0  0
   53.5899    0.7543   -6.2093 H   0  0  0  0  0  0  0  0  0  0  0  0
   54.4505    0.7668   -2.5145 H   0  0  0  0  0  0  0  0  0  0  0  0
   52.8978    0.3899   -3.3302 H   0  0  0  0  0  0  0  0  0  0  0  0
   53.8004   -1.4991   -4.2281 H   0  0  0  0  0  0  0  0  0  0  0  0
   55.2968   -1.2098   -3.3353 H   0  0  0  0  0  0  0  0  0  0  0  0
   58.1400    1.3116   -5.1340 H   0  0  0  0  0  0  0  0  0  0  0  0
   58.5466    3.2968   -5.1542 H   0  0  0  0  0  0  0  0  0  0  0  0
   61.5115    4.1768   -5.1636 H   0  0  0  0  0  0  0  0  0  0  0  0
   58.6511    5.3888   -5.4874 H   0  0  0  0  0  0  0  0  0  0  0  0
   59.5867    5.7907   -3.9643 H   0  0  0  0  0  0  0  0  0  0  0  0
   61.4561    5.5774   -7.0915 H   0  0  0  0  0  0  0  0  0  0  0  0
   59.7716    5.9212   -7.6120 H   0  0  0  0  0  0  0  0  0  0  0  0
   60.9974    7.2343   -7.6120 H   0  0  0  0  0  0  0  0  0  0  0  0
   59.1303    8.0998   -4.6850 H   0  0  0  0  0  0  0  0  0  0  0  0
   59.8392    8.6515   -6.2405 H   0  0  0  0  0  0  0  0  0  0  0  0
   58.4427    7.5218   -6.2405 H   0  0  0  0  0  0  0  0  0  0  0  0
  1  2  2  0
  1  3  1  0
  2  4  1  0
  3  5  2  0
  4 11  1  0
  4  6  2  0
  5  6  1  0
  5 10  1  0
  6  8  1  0
  8  7  2  0
  7  9  1  0
  7 26  1  0
 10  9  2  0
  9 20  1  0
 11 16  1  0
 13 12  2  0
 14 12  1  0
 12 19  1  0
 15 13  1  0
 13 18  1  0
 16 14  2  0
 17 15  2  0
 17 16  1  0
 20 21  1  0
 21 22  1  0
 21 25  1  0
 22 23  1  0
 23 24  1  0
 25 24  1  0
 26 27  1  0
 29 27  2  0
 27 28  1  0
 28 30  2  0
 30 31  1  0
 32 31  1  0
 33 32  1  0
 34 32  1  0
  1 35  1  0
  8 36  1  0
 10 37  1  0
 11 38  1  0
 14 39  1  0
 15 40  1  0
 17 41  1  0
 21 42  1  0
 22 43  1  0
 22 44  1  0
 24 45  1  0
 24 46  1  0
 25 47  1  0
 25 48  1  0
 26 49  1  0
 28 50  1  0
 30 51  1  0
 31 52  1  0
 31 53  1  0
 33 54  1  0
 33 55  1  0
 33 56  1  0
 34 57  1  0
 34 58  1  0
 34 59  1  0
A    1
C1
A    2
N2
A    3
N3
A    4
C4
A    5
C5
A    6
C6
A    7
C7
A    8
C8
A    9
C9
A   10
C10
A   11
N11
A   12
C12
A   13
C13
A   14
C14
A   15
C15
A   16
C16
A   17
C17
A   18
F18
A   19
CL1
A   20
O20
A   21
C21
A   22
C22
A   23
O23
A   24
C24
A   25
C25
A   26
N26
A   27
C27
A   28
C28
A   29
O29
A   30
C30
A   31
C31
A   32
N32
A   33
C33
A   34
C34
M  END
