3F4H_RS3_Y_200
     RDKit          3D

 52 54  0  0  0  0  0  0  0  0999 V2000
   27.2040   31.8060   19.9310 O   0  0  0  0  0  0  0  0  0  0  0  0
   27.6230   32.7020   19.1570 C   0  0  0  0  0  0  0  0  0  0  0  0
   27.9430   32.4110   17.8710 N   0  0  0  0  0  0  0  0  0  0  0  0
   28.3940   33.3760   17.0300 C   0  0  0  0  0  0  0  0  0  0  0  0
   28.6770   33.0730   15.8440 O   0  0  0  0  0  0  0  0  0  0  0  0
   27.7610   34.0070   19.6160 C   0  0  0  0  0  0  0  0  0  0  0  0
   28.2270   35.0020   18.7510 C   0  0  0  0  0  0  0  0  0  0  0  0
   28.5330   34.6600   17.4660 N   0  0  0  0  0  0  0  0  0  0  0  0
   27.4500   34.3060   20.8960 N   0  0  0  0  0  0  0  0  0  0  0  0
   27.5860   35.5720   21.3410 C   0  0  0  0  0  0  0  0  0  0  0  0
   27.2630   35.8710   22.6600 C   0  0  0  0  0  0  0  0  0  0  0  0
   27.3950   37.1660   23.1490 C   0  0  0  0  0  0  0  0  0  0  0  0
   27.0260   37.4200   24.5880 C   0  0  0  0  0  0  0  0  0  0  0  0
   27.8590   38.1830   22.3050 C   0  0  0  0  0  0  0  0  0  0  0  0
   28.0140   39.4780   22.7150 N   0  0  0  0  0  0  0  0  0  0  0  0
   28.5000   40.4750   21.7800 C   0  0  0  0  0  0  0  0  0  0  0  0
   27.7060   39.9140   24.0670 C   0  0  0  0  0  0  0  0  0  0  0  0
   28.1790   37.8670   20.9790 C   0  0  0  0  0  0  0  0  0  0  0  0
   28.0470   36.5700   20.4840 C   0  0  0  0  0  0  0  0  0  0  0  0
   28.3560   36.2770   19.2000 N   0  0  0  0  0  0  0  0  0  0  0  0
   28.8560   37.3370   18.3030 C   0  0  0  0  0  0  0  0  0  0  0  0
   27.7030   37.9860   17.5400 C   0  0  0  0  0  0  0  0  0  0  0  0
   27.0210   36.9640   16.8120 O   0  0  0  0  0  0  0  0  0  0  0  0
   28.1560   39.0650   16.5520 C   0  0  0  0  0  0  0  0  0  0  0  0
   29.1540   38.5420   15.6830 O   0  0  0  0  0  0  0  0  0  0  0  0
   28.7300   40.3230   17.1910 C   0  0  0  0  0  0  0  0  0  0  0  0
   28.2330   40.4750   18.5170 O   0  0  0  0  0  0  0  0  0  0  0  0
   28.3450   41.5560   16.3850 C   0  0  0  0  0  0  0  0  0  0  0  0
   29.2040   41.6630   15.2450 O   0  0  0  0  0  0  0  0  0  0  0  0
   27.8423   31.4449   17.5284 H   0  0  0  0  0  0  0  0  0  0  0  0
   26.8987   35.0736   23.3245 H   0  0  0  0  0  0  0  0  0  0  0  0
   27.7519   36.9203   25.2464 H   0  0  0  0  0  0  0  0  0  0  0  0
   27.0376   38.5023   24.7840 H   0  0  0  0  0  0  0  0  0  0  0  0
   26.0191   37.0227   24.7840 H   0  0  0  0  0  0  0  0  0  0  0  0
   28.9157   41.3278   22.3366 H   0  0  0  0  0  0  0  0  0  0  0  0
   29.2837   40.0330   21.1472 H   0  0  0  0  0  0  0  0  0  0  0  0
   27.6691   40.8201   21.1472 H   0  0  0  0  0  0  0  0  0  0  0  0
   28.1849   39.2361   24.7889 H   0  0  0  0  0  0  0  0  0  0  0  0
   28.0836   40.9361   24.2176 H   0  0  0  0  0  0  0  0  0  0  0  0
   26.6165   39.8997   24.2176 H   0  0  0  0  0  0  0  0  0  0  0  0
   28.5435   38.6615   20.3112 H   0  0  0  0  0  0  0  0  0  0  0  0
   29.3701   38.1037   18.9013 H   0  0  0  0  0  0  0  0  0  0  0  0
   29.5518   36.8886   17.5786 H   0  0  0  0  0  0  0  0  0  0  0  0
   27.0555   38.4786   18.2803 H   0  0  0  0  0  0  0  0  0  0  0  0
   26.5993   36.3321   17.4468 H   0  0  0  0  0  0  0  0  0  0  0  0
   27.2379   39.3539   16.0194 H   0  0  0  0  0  0  0  0  0  0  0  0
   29.8904   38.1561   16.2206 H   0  0  0  0  0  0  0  0  0  0  0  0
   29.8251   40.2215   17.2110 H   0  0  0  0  0  0  0  0  0  0  0  0
   28.9489   40.2561   19.1648 H   0  0  0  0  0  0  0  0  0  0  0  0
   27.3008   41.4655   16.0511 H   0  0  0  0  0  0  0  0  0  0  0  0
   28.4508   42.4538   17.0117 H   0  0  0  0  0  0  0  0  0  0  0  0
   30.1397   41.7796   15.5466 H   0  0  0  0  0  0  0  0  0  0  0  0
  2  6  1  0
  2  1  2  0
  3  2  1  0
  4  8  1  0
  4  3  1  0
  5  4  2  0
  6  9  2  0
  7 20  1  0
  7  6  1  0
  8  7  2  0
  9 10  1  0
 10 11  2  0
 11 12  1  0
 12 13  1  0
 14 15  1  0
 14 12  2  0
 15 17  1  0
 16 15  1  0
 18 14  1  0
 19 18  2  0
 19 10  1  0
 20 19  1  0
 21 20  1  0
 22 21  1  0
 23 22  1  0
 24 26  1  0
 24 22  1  0
 25 24  1  0
 26 27  1  0
 28 26  1  0
 29 28  1  0
  3 30  1  0
 11 31  1  0
 13 32  1  0
 13 33  1  0
 13 34  1  0
 16 35  1  0
 16 36  1  0
 16 37  1  0
 17 38  1  0
 17 39  1  0
 17 40  1  0
 18 41  1  0
 21 42  1  0
 21 43  1  0
 22 44  1  0
 23 45  1  0
 24 46  1  0
 25 47  1  0
 26 48  1  0
 27 49  1  0
 28 50  1  0
 28 51  1  0
 29 52  1  0
A    1
O4
A    2
C4
A    3
N3
A    4
C2
A    5
O2
A    6
C4A
A    7
C10
A    8
N1
A    9
N5
A   10
C5A
A   11
C6
A   12
C7
A   13
C7M
A   14
C8
A   15
N8
A   16
C19
A   17
C20
A   18
C9
A   19
C9A
A   20
N10
A   21
C1'
A   22
C2'
A   23
O2'
A   24
C3'
A   25
O3'
A   26
C4'
A   27
O4'
A   28
C5'
A   29
O5'
M  END
