4G6N_EK0_A_401
     RDKit          3D

 29 31  0  0  0  0  0  0  0  0999 V2000
   24.1910    9.2000   11.2820 Cl  0  0  0  0  0  0  0  0  0  0  0  0
   23.5900    7.9050   12.2810 C   0  0  0  0  0  0  0  0  0  0  0  0
   22.2820    7.4870   12.1330 C   0  0  0  0  0  0  0  0  0  0  0  0
   21.8020    6.4760   12.9500 C   0  0  0  0  0  0  0  0  0  0  0  0
   22.6200    5.8860   13.9110 C   0  0  0  0  0  0  0  0  0  0  0  0
   23.9340    6.3280   14.0340 C   0  0  0  0  0  0  0  0  0  0  0  0
   24.4250    7.3330   13.2180 C   0  0  0  0  0  0  0  0  0  0  0  0
   22.1060    4.8040   14.7780 C   0  0  0  0  0  0  0  0  0  0  0  0
   20.8480    4.7180   15.4430 C   0  0  0  0  0  0  0  0  0  0  0  0
   19.6890    5.6710   15.5730 C   0  0  0  0  0  0  0  0  0  0  0  0
   18.7330    5.2500   16.6830 C   0  0  0  0  0  0  0  0  0  0  0  0
   18.4230    3.7620   16.6350 C   0  0  0  0  0  0  0  0  0  0  0  0
   19.6800    2.9160   16.8350 C   0  0  0  0  0  0  0  0  0  0  0  0
   20.8220    3.4680   16.0480 C   0  0  0  0  0  0  0  0  0  0  0  0
   22.0360    2.8610   15.7540 N   0  0  0  0  0  0  0  0  0  0  0  0
   22.8070    3.6860   14.9890 N   0  0  0  0  0  0  0  0  0  0  0  0
   21.6305    7.9501   11.3773 H   0  0  0  0  0  0  0  0  0  0  0  0
   20.7621    6.1350   12.8384 H   0  0  0  0  0  0  0  0  0  0  0  0
   24.5912    5.8728   14.7896 H   0  0  0  0  0  0  0  0  0  0  0  0
   25.4673    7.6708   13.3157 H   0  0  0  0  0  0  0  0  0  0  0  0
   20.0771    6.6752   15.7989 H   0  0  0  0  0  0  0  0  0  0  0  0
   19.1340    5.6666   14.6233 H   0  0  0  0  0  0  0  0  0  0  0  0
   19.1914    5.4860   17.6547 H   0  0  0  0  0  0  0  0  0  0  0  0
   17.7893    5.7980   16.5442 H   0  0  0  0  0  0  0  0  0  0  0  0
   17.7017    3.5223   17.4302 H   0  0  0  0  0  0  0  0  0  0  0  0
   18.0078    3.5301   15.6431 H   0  0  0  0  0  0  0  0  0  0  0  0
   19.4782    1.8866   16.5039 H   0  0  0  0  0  0  0  0  0  0  0  0
   19.9480    2.9299   17.9018 H   0  0  0  0  0  0  0  0  0  0  0  0
   22.3147    1.9208   16.0691 H   0  0  0  0  0  0  0  0  0  0  0  0
  1  2  1  0
  3  2  2  0
  3  4  1  0
  2  7  1  0
  4  5  2  0
  7  6  2  0
  5  6  1  0
  5  8  1  0
  8 16  2  0
  8  9  1  0
 16 15  1  0
  9 10  1  0
  9 14  2  0
 10 11  1  0
 15 14  1  0
 14 13  1  0
 12 11  1  0
 12 13  1  0
  3 17  1  0
  4 18  1  0
  6 19  1  0
  7 20  1  0
 10 21  1  0
 10 22  1  0
 11 23  1  0
 11 24  1  0
 12 25  1  0
 12 26  1  0
 13 27  1  0
 13 28  1  0
 15 29  1  0
A    1
CL
A    2
C1
A    3
C6
A    4
C5
A    5
C4
A    6
C3
A    7
C2
A    8
C7
A    9
C9
A   10
C10
A   11
C11
A   12
C12
A   13
C13
A   14
C8
A   15
N2
A   16
N1
M  END
