4G6O_E28_A_401
     RDKit          3D

 57 61  0  0  0  0  0  0  0  0999 V2000
   14.5920    4.0330   17.9830 O   0  0  0  0  0  0  0  0  0  0  0  0
   15.2650    4.6400   17.1460 C   0  0  0  0  0  0  0  0  0  0  0  0
   14.7420    5.5580   16.3290 N   0  0  0  0  0  0  0  0  0  0  0  0
   13.3110    5.8110   16.2540 C   0  0  0  0  0  0  0  0  0  0  0  0
   12.7930    6.6920   17.3600 C   0  0  0  0  0  0  0  0  0  0  0  0
   11.5100    6.5030   17.8770 C   0  0  0  0  0  0  0  0  0  0  0  0
   11.0170    7.2950   18.9030 C   0  0  0  0  0  0  0  0  0  0  0  0
   11.8400    8.2770   19.4260 C   0  0  0  0  0  0  0  0  0  0  0  0
   11.5530    9.1820   20.4200 O   0  0  0  0  0  0  0  0  0  0  0  0
   12.7190   10.0150   20.6620 C   0  0  0  0  0  0  0  0  0  0  0  0
   13.8320    9.5500   19.7300 C   0  0  0  0  0  0  0  0  0  0  0  0
   13.1180    8.4830   18.9470 C   0  0  0  0  0  0  0  0  0  0  0  0
   13.5840    7.7000   17.9040 C   0  0  0  0  0  0  0  0  0  0  0  0
   16.7030    4.3460   16.9700 C   0  0  0  0  0  0  0  0  0  0  0  0
   17.6190    4.7970   16.0520 C   0  0  0  0  0  0  0  0  0  0  0  0
   17.3520    3.5710   17.9030 N   0  0  0  0  0  0  0  0  0  0  0  0
   18.6740    3.5370   17.6090 C   0  0  0  0  0  0  0  0  0  0  0  0
   18.8860    4.2890   16.4700 C   0  0  0  0  0  0  0  0  0  0  0  0
   20.1500    4.5230   15.8830 C   0  0  0  0  0  0  0  0  0  0  0  0
   21.1400    3.6150   16.0430 N   0  0  0  0  0  0  0  0  0  0  0  0
   22.3100    4.0510   15.4760 N   0  0  0  0  0  0  0  0  0  0  0  0
   22.0310    5.2360   14.9450 C   0  0  0  0  0  0  0  0  0  0  0  0
   20.6900    5.6040   15.1440 C   0  0  0  0  0  0  0  0  0  0  0  0
   20.0600    6.8370   14.6020 C   0  0  0  0  0  0  0  0  0  0  0  0
   19.1510    7.5650   15.3700 C   0  0  0  0  0  0  0  0  0  0  0  0
   20.3670    7.2880   13.3260 C   0  0  0  0  0  0  0  0  0  0  0  0
   19.7860    8.4390   12.8310 C   0  0  0  0  0  0  0  0  0  0  0  0
   18.8650    9.1690   13.5860 C   0  0  0  0  0  0  0  0  0  0  0  0
   18.3770   10.3800   12.9160 C   0  0  0  0  0  0  0  0  0  0  0  0
   19.4330   11.4070   13.1110 N   0  0  0  0  0  0  0  0  0  0  0  0
   18.5330    8.7130   14.8700 C   0  0  0  0  0  0  0  0  0  0  0  0
   17.5280    9.3840   15.7830 C   0  0  0  0  0  0  0  0  0  0  0  0
   18.0450   10.4160   16.4350 F   0  0  0  0  0  0  0  0  0  0  0  0
   17.0160    8.5590   16.6960 F   0  0  0  0  0  0  0  0  0  0  0  0
   16.4670    9.8380   15.1410 F   0  0  0  0  0  0  0  0  0  0  0  0
   15.3749    6.1071   15.7300 H   0  0  0  0  0  0  0  0  0  0  0  0
   13.0945    6.2981   15.2918 H   0  0  0  0  0  0  0  0  0  0  0  0
   12.8070    4.8385   16.3551 H   0  0  0  0  0  0  0  0  0  0  0  0
   10.8752    5.7070   17.4606 H   0  0  0  0  0  0  0  0  0  0  0  0
    9.9985    7.1466   19.2910 H   0  0  0  0  0  0  0  0  0  0  0  0
   13.0410    9.9114   21.7087 H   0  0  0  0  0  0  0  0  0  0  0  0
   12.4793   11.0719   20.4733 H   0  0  0  0  0  0  0  0  0  0  0  0
   14.6840    9.1385   20.2910 H   0  0  0  0  0  0  0  0  0  0  0  0
   14.2730   10.3479   19.1144 H   0  0  0  0  0  0  0  0  0  0  0  0
   14.5919    7.8769   17.5004 H   0  0  0  0  0  0  0  0  0  0  0  0
   17.4171    5.4240   15.1711 H   0  0  0  0  0  0  0  0  0  0  0  0
   16.9044    3.0930   18.6980 H   0  0  0  0  0  0  0  0  0  0  0  0
   19.4469    3.0017   18.1801 H   0  0  0  0  0  0  0  0  0  0  0  0
   21.0293    2.7130   16.5279 H   0  0  0  0  0  0  0  0  0  0  0  0
   22.7651    5.8574   14.4111 H   0  0  0  0  0  0  0  0  0  0  0  0
   18.9163    7.2278   16.3904 H   0  0  0  0  0  0  0  0  0  0  0  0
   21.0783    6.7246   12.7042 H   0  0  0  0  0  0  0  0  0  0  0  0
   20.0537    8.7876   11.8226 H   0  0  0  0  0  0  0  0  0  0  0  0
   17.4313   10.7129   13.3685 H   0  0  0  0  0  0  0  0  0  0  0  0
   18.1810   10.1999   11.8487 H   0  0  0  0  0  0  0  0  0  0  0  0
   19.5856   11.5554   14.1188 H   0  0  0  0  0  0  0  0  0  0  0  0
   20.3090   11.0858   12.6747 H   0  0  0  0  0  0  0  0  0  0  0  0
 27 26  2  0
 27 28  1  0
 29 30  1  0
 29 28  1  0
 26 24  1  0
 28 31  2  0
 24 23  1  0
 24 25  2  0
 31 25  1  0
 31 32  1  0
 22 23  1  0
 22 21  2  0
 35 32  1  0
 23 19  2  0
 21 20  1  0
 32 33  1  0
 32 34  1  0
 19 20  1  0
 19 18  1  0
 15 18  1  0
 15 14  2  0
  4  3  1  0
  4  5  1  0
  3  2  1  0
 18 17  2  0
 14  2  1  0
 14 16  1  0
  2  1  2  0
  5  6  2  0
  5 13  1  0
 17 16  1  0
  6  7  1  0
 13 12  2  0
  7  8  2  0
 12  8  1  0
 12 11  1  0
  8  9  1  0
 11 10  1  0
  9 10  1  0
  3 36  1  0
  4 37  1  0
  4 38  1  0
  6 39  1  0
  7 40  1  0
 10 41  1  0
 10 42  1  0
 11 43  1  0
 11 44  1  0
 13 45  1  0
 15 46  1  0
 16 47  1  0
 17 48  1  0
 20 49  1  0
 22 50  1  0
 25 51  1  0
 26 52  1  0
 27 53  1  0
 29 54  1  0
 29 55  1  0
 30 56  1  0
 30 57  1  0
A    1
O1
A    2
C16
A    3
N5
A    4
C17
A    5
C18
A    6
C25
A    7
C24
A    8
C23
A    9
O2
A   10
C22
A   11
C21
A   12
C20
A   13
C19
A   14
C14
A   15
C13
A   16
N4
A   17
C15
A   18
C12
A   19
C11
A   20
N3
A   21
N2
A   22
C10
A   23
C9
A   24
C4
A   25
C3
A   26
C5
A   27
C6
A   28
C7
A   29
C8
A   30
N1
A   31
C2
A   32
C1
A   33
F1
A   34
F2
A   35
F3
M  END
