2GMH_UQ5_A_612
     RDKit          3D

 88 88  0  0  0  0  0  0  0  0999 V2000
   57.4040   18.2810   73.2640 C   0  0  0  0  0  0  0  0  0  0  0  0
   56.9870   19.5600   72.6290 C   0  0  0  0  0  0  0  0  0  0  0  0
   57.7720   20.8130   72.7700 C   0  0  0  0  0  0  0  0  0  0  0  0
   58.9580   20.7590   73.5860 C   0  0  0  0  0  0  0  0  0  0  0  0
   59.3550   19.4540   74.1890 C   0  0  0  0  0  0  0  0  0  0  0  0
   58.5080   18.1910   74.0340 C   0  0  0  0  0  0  0  0  0  0  0  0
   56.5480   17.0300   73.0830 C   0  0  0  0  0  0  0  0  0  0  0  0
   56.2840   22.8470   72.6400 C   0  0  0  0  0  0  0  0  0  0  0  0
   59.1000   22.9340   74.5870 C   0  0  0  0  0  0  0  0  0  0  0  0
   58.9440   16.8720   74.7070 C   0  0  0  0  0  0  0  0  0  0  0  0
   60.2580   16.3750   75.0540 C   0  0  0  0  0  0  0  0  0  0  0  0
   61.4320   16.2250   74.2050 C   0  0  0  0  0  0  0  0  0  0  0  0
   61.3250   16.5840   72.7670 C   0  0  0  0  0  0  0  0  0  0  0  0
   62.6710   15.6870   74.7550 C   0  0  0  0  0  0  0  0  0  0  0  0
   63.3800   17.0120   74.8520 C   0  0  0  0  0  0  0  0  0  0  0  0
   64.2850   17.3530   75.9180 C   0  0  0  0  0  0  0  0  0  0  0  0
   64.0720   18.3620   76.8670 C   0  0  0  0  0  0  0  0  0  0  0  0
   62.7910   19.2020   76.8120 C   0  0  0  0  0  0  0  0  0  0  0  0
   65.1420   18.6110   77.8890 C   0  0  0  0  0  0  0  0  0  0  0  0
   64.7480   19.0320   79.2960 C   0  0  0  0  0  0  0  0  0  0  0  0
   65.1530   18.3220   80.5410 C   0  0  0  0  0  0  0  0  0  0  0  0
   66.2160   17.3900   80.8750 C   0  0  0  0  0  0  0  0  0  0  0  0
   67.1540   16.9710   79.8800 C   0  0  0  0  0  0  0  0  0  0  0  0
   66.3020   16.8540   82.3670 C   0  0  0  0  0  0  0  0  0  0  0  0
   67.6610   16.5230   82.9630 C   0  0  0  0  0  0  0  0  0  0  0  0
   67.9870   15.1660   82.8930 C   0  0  0  0  0  0  0  0  0  0  0  0
   68.3020   14.2440   83.9120 C   0  0  0  0  0  0  0  0  0  0  0  0
   68.3130   14.7100   85.3960 C   0  0  0  0  0  0  0  0  0  0  0  0
   68.6200   12.7520   83.6550 C   0  0  0  0  0  0  0  0  0  0  0  0
   69.4910   12.2540   84.7730 C   0  0  0  0  0  0  0  0  0  0  0  0
   70.9820   12.2900   84.7090 C   0  0  0  0  0  0  0  0  0  0  0  0
   71.9080   13.3720   84.1470 C   0  0  0  0  0  0  0  0  0  0  0  0
   71.9610   13.7690   82.6480 C   0  0  0  0  0  0  0  0  0  0  0  0
   72.9050   14.2380   84.9110 C   0  0  0  0  0  0  0  0  0  0  0  0
   56.0070   19.6850   71.9310 O   0  0  0  0  0  0  0  0  0  0  0  0
   57.1720   21.9700   72.0460 O   0  0  0  0  0  0  0  0  0  0  0  0
   59.6750   21.9390   73.7200 O   0  0  0  0  0  0  0  0  0  0  0  0
   60.3610   19.3500   74.9060 O   0  0  0  0  0  0  0  0  0  0  0  0
   56.2730   16.6281   74.0693 H   0  0  0  0  0  0  0  0  0  0  0  0
   55.6359   17.2875   72.5246 H   0  0  0  0  0  0  0  0  0  0  0  0
   57.1183   16.2731   72.5246 H   0  0  0  0  0  0  0  0  0  0  0  0
   56.3655   22.7665   73.7340 H   0  0  0  0  0  0  0  0  0  0  0  0
   56.5210   23.8753   72.3294 H   0  0  0  0  0  0  0  0  0  0  0  0
   55.2588   22.5972   72.3294 H   0  0  0  0  0  0  0  0  0  0  0  0
   59.2661   22.6466   75.6357 H   0  0  0  0  0  0  0  0  0  0  0  0
   59.5749   23.9072   74.3939 H   0  0  0  0  0  0  0  0  0  0  0  0
   58.0196   23.0084   74.3939 H   0  0  0  0  0  0  0  0  0  0  0  0
   58.4005   16.8714   75.6634 H   0  0  0  0  0  0  0  0  0  0  0  0
   58.7748   16.2153   73.8409 H   0  0  0  0  0  0  0  0  0  0  0  0
   60.3880   16.0685   76.1024 H   0  0  0  0  0  0  0  0  0  0  0  0
   61.0119   17.6344   72.6736 H   0  0  0  0  0  0  0  0  0  0  0  0
   62.3027   16.4482   72.2815 H   0  0  0  0  0  0  0  0  0  0  0  0
   60.5812   15.9352   72.2815 H   0  0  0  0  0  0  0  0  0  0  0  0
   62.5293   15.2069   75.7345 H   0  0  0  0  0  0  0  0  0  0  0  0
   63.1701   14.8882   74.1868 H   0  0  0  0  0  0  0  0  0  0  0  0
   63.9596   17.1115   73.9224 H   0  0  0  0  0  0  0  0  0  0  0  0
   62.5392   17.6903   75.0593 H   0  0  0  0  0  0  0  0  0  0  0  0
   65.2182   16.7756   75.9939 H   0  0  0  0  0  0  0  0  0  0  0  0
   62.4535   19.4233   77.8353 H   0  0  0  0  0  0  0  0  0  0  0  0
   62.9926   20.1438   76.2806 H   0  0  0  0  0  0  0  0  0  0  0  0
   62.0076   18.6417   76.2806 H   0  0  0  0  0  0  0  0  0  0  0  0
   65.7181   17.6787   77.9832 H   0  0  0  0  0  0  0  0  0  0  0  0
   65.6763   19.4886   77.4961 H   0  0  0  0  0  0  0  0  0  0  0  0
   65.1197   20.0610   79.4101 H   0  0  0  0  0  0  0  0  0  0  0  0
   63.6715   18.8067   79.2783 H   0  0  0  0  0  0  0  0  0  0  0  0
   64.5032   18.5550   81.3974 H   0  0  0  0  0  0  0  0  0  0  0  0
   68.0533   16.5693   80.3699 H   0  0  0  0  0  0  0  0  0  0  0  0
   66.6988   16.1907   79.2524 H   0  0  0  0  0  0  0  0  0  0  0  0
   67.4314   17.8308   79.2524 H   0  0  0  0  0  0  0  0  0  0  0  0
   65.8483   17.6223   83.0103 H   0  0  0  0  0  0  0  0  0  0  0  0
   65.7934   15.8797   82.3228 H   0  0  0  0  0  0  0  0  0  0  0  0
   68.4278   17.0934   82.4184 H   0  0  0  0  0  0  0  0  0  0  0  0
   67.6194   16.7902   84.0292 H   0  0  0  0  0  0  0  0  0  0  0  0
   68.0000   14.7484   81.8754 H   0  0  0  0  0  0  0  0  0  0  0  0
   68.2922   13.8307   86.0566 H   0  0  0  0  0  0  0  0  0  0  0  0
   69.2252   15.2932   85.5904 H   0  0  0  0  0  0  0  0  0  0  0  0
   67.4294   15.3356   85.5904 H   0  0  0  0  0  0  0  0  0  0  0  0
   67.6854   12.1726   83.6257 H   0  0  0  0  0  0  0  0  0  0  0  0
   69.1382   12.6363   82.6916 H   0  0  0  0  0  0  0  0  0  0  0  0
   69.2098   12.8380   85.6618 H   0  0  0  0  0  0  0  0  0  0  0  0
   69.2917   11.1725   84.7476 H   0  0  0  0  0  0  0  0  0  0  0  0
   71.4905   11.4089   85.1275 H   0  0  0  0  0  0  0  0  0  0  0  0
   72.1061   14.8559   82.5615 H   0  0  0  0  0  0  0  0  0  0  0  0
   72.7975   13.2474   82.1599 H   0  0  0  0  0  0  0  0  0  0  0  0
   71.0170   13.4851   82.1599 H   0  0  0  0  0  0  0  0  0  0  0  0
   72.7525   14.1056   85.9923 H   0  0  0  0  0  0  0  0  0  0  0  0
   73.9296   13.9383   84.6458 H   0  0  0  0  0  0  0  0  0  0  0  0
   72.7517   15.2945   84.6458 H   0  0  0  0  0  0  0  0  0  0  0  0
  1  2  1  0
  1  6  2  0
  1  7  1  0
  2  3  1  0
  2 35  2  0
  3  4  2  0
  3 36  1  0
  4  5  1  0
  4 37  1  0
  5  6  1  0
  5 38  2  0
  6 10  1  0
  8 36  1  0
  9 37  1  0
 10 11  1  0
 11 12  2  0
 12 13  1  0
 12 14  1  0
 14 15  1  0
 15 16  1  0
 16 17  2  0
 17 18  1  0
 17 19  1  0
 19 20  1  0
 20 21  1  0
 21 22  2  0
 22 23  1  0
 22 24  1  0
 24 25  1  0
 25 26  1  0
 26 27  2  0
 27 28  1  0
 27 29  1  0
 29 30  1  0
 30 31  1  0
 31 32  2  0
 32 33  1  0
 32 34  1  0
  7 39  1  0
  7 40  1  0
  7 41  1  0
  8 42  1  0
  8 43  1  0
  8 44  1  0
  9 45  1  0
  9 46  1  0
  9 47  1  0
 10 48  1  0
 10 49  1  0
 11 50  1  0
 13 51  1  0
 13 52  1  0
 13 53  1  0
 14 54  1  0
 14 55  1  0
 15 56  1  0
 15 57  1  0
 16 58  1  0
 18 59  1  0
 18 60  1  0
 18 61  1  0
 19 62  1  0
 19 63  1  0
 20 64  1  0
 20 65  1  0
 21 66  1  0
 23 67  1  0
 23 68  1  0
 23 69  1  0
 24 70  1  0
 24 71  1  0
 25 72  1  0
 25 73  1  0
 26 74  1  0
 28 75  1  0
 28 76  1  0
 28 77  1  0
 29 78  1  0
 29 79  1  0
 30 80  1  0
 30 81  1  0
 31 82  1  0
 33 83  1  0
 33 84  1  0
 33 85  1  0
 34 86  1  0
 34 87  1  0
 34 88  1  0
A    1
C1
A    2
C2
A    3
C3
A    4
C4
A    5
C5
A    6
C6
A    7
C1M
A    8
C3M
A    9
C4M
A   10
C7
A   11
C8
A   12
C9
A   13
C10
A   14
C11
A   15
C12
A   16
C13
A   17
C14
A   18
C15
A   19
C16
A   20
C17
A   21
C18
A   22
C19
A   23
C20
A   24
C21
A   25
C22
A   26
C23
A   27
C24
A   28
C25
A   29
C26
A   30
C27
A   31
C28
A   32
C29
A   33
C30
A   34
C31
A   35
O2
A   36
O3
A   37
O4
A   38
O5
M  END
