2D2C_BNT_B_309
     RDKit          3D

 24 24  0  0  0  0  0  0  0  0999 V2000
   78.4020  -18.3550   75.3470 C   0  0  0  0  0  0  0  0  0  0  0  0
   78.4140  -19.3020   74.1460 C   0  0  0  0  0  0  0  0  0  0  0  0
   78.9370  -18.5730   72.9080 C   0  0  0  0  0  0  0  0  0  0  0  0
   77.1920  -19.9870   74.0810 C   0  0  0  0  0  0  0  0  0  0  0  0
   76.0680  -19.3370   73.5790 C   0  0  0  0  0  0  0  0  0  0  0  0
   76.1780  -18.1580   73.2240 O   0  0  0  0  0  0  0  0  0  0  0  0
   74.8270  -19.9640   73.4410 C   0  0  0  0  0  0  0  0  0  0  0  0
   73.3600  -18.9740   72.8100 Br  0  0  0  0  0  0  0  0  0  0  0  0
   74.6730  -21.3030   73.7960 C   0  0  0  0  0  0  0  0  0  0  0  0
   73.4440  -21.9450   73.6810 C   0  0  0  0  0  0  0  0  0  0  0  0
   75.7520  -22.0300   74.3010 C   0  0  0  0  0  0  0  0  0  0  0  0
   75.6150  -23.2170   74.5710 O   0  0  0  0  0  0  0  0  0  0  0  0
   77.1080  -21.3210   74.4730 C   0  0  0  0  0  0  0  0  0  0  0  0
   78.5240  -22.2390   75.3040 Br  0  0  0  0  0  0  0  0  0  0  0  0
   78.4094  -18.9423   76.2771 H   0  0  0  0  0  0  0  0  0  0  0  0
   79.2920  -17.7095   75.3138 H   0  0  0  0  0  0  0  0  0  0  0  0
   77.4959  -17.7322   75.3138 H   0  0  0  0  0  0  0  0  0  0  0  0
   79.1399  -20.1230   74.2417 H   0  0  0  0  0  0  0  0  0  0  0  0
   79.5519  -17.7159   73.2197 H   0  0  0  0  0  0  0  0  0  0  0  0
   79.5474  -19.2629   72.3068 H   0  0  0  0  0  0  0  0  0  0  0  0
   78.0879  -18.2158   72.3068 H   0  0  0  0  0  0  0  0  0  0  0  0
   73.0441  -22.1539   74.6842 H   0  0  0  0  0  0  0  0  0  0  0  0
   72.7423  -21.2983   73.1339 H   0  0  0  0  0  0  0  0  0  0  0  0
   73.5740  -22.8904   73.1339 H   0  0  0  0  0  0  0  0  0  0  0  0
  1  2  1  0
  2  3  1  0
  2  4  1  0
  4  5  1  0
  4 13  2  0
  5  6  2  0
  5  7  1  0
  7  8  1  0
  7  9  2  0
  9 10  1  0
  9 11  1  0
 11 12  2  0
 11 13  1  0
 13 14  1  0
  1 15  1  0
  1 16  1  0
  1 17  1  0
  2 18  1  0
  3 19  1  0
  3 20  1  0
  3 21  1  0
 10 22  1  0
 10 23  1  0
 10 24  1  0
A    1
CAA
A    2
CAD
A    3
CAC
A    4
CAE
A    5
CAF
A    6
OAB
A    7
CAG
A    8
BRAH
A    9
CAL
A   10
CAM
A   11
CAK
A   12
OAN
A   13
CAJ
A   14
BRAI
M  END
