4G8M_G8M_A_301
     RDKit          3D

 23 23  0  0  0  0  0  0  0  0999 V2000
    5.7850   25.8130   20.9120 C   0  0  0  0  0  0  0  0  0  0  0  0
    4.8530   25.1800   20.3670 O   0  0  0  0  0  0  0  0  0  0  0  0
    6.3420   25.3880   21.9490 O   0  0  0  0  0  0  0  0  0  0  0  0
    6.2570   27.1350   20.2690 C   0  0  0  0  0  0  0  0  0  0  0  0
    7.6860   25.4090   17.6040 C   0  0  0  0  0  0  0  0  0  0  0  0
    6.4760   25.4020   17.3190 O   0  0  0  0  0  0  0  0  0  0  0  0
    8.5500   25.2250   16.7240 O   0  0  0  0  0  0  0  0  0  0  0  0
    8.1300   25.6480   19.0650 C   0  0  0  0  0  0  0  0  0  0  0  0
    9.5980   25.4850   19.1450 N   0  0  0  0  0  0  0  0  0  0  0  0
    7.6510   27.0270   19.5990 C   0  0  0  0  0  0  0  0  0  0  0  0
    8.2680   27.6350   20.8750 C   0  0  0  0  0  0  0  0  0  0  0  0
    6.8680   28.1110   21.2990 C   0  0  0  0  0  0  0  0  0  0  0  0
    5.9975   25.6508   22.8391 H   0  0  0  0  0  0  0  0  0  0  0  0
    5.3653   27.4002   19.6820 H   0  0  0  0  0  0  0  0  0  0  0  0
    5.7976   25.3981   18.0400 H   0  0  0  0  0  0  0  0  0  0  0  0
    7.6549   24.9032   19.7204 H   0  0  0  0  0  0  0  0  0  0  0  0
    9.8865   25.4530   20.1332 H   0  0  0  0  0  0  0  0  0  0  0  0
    9.8720   24.6084   18.6787 H   0  0  0  0  0  0  0  0  0  0  0  0
    7.8555   27.4804   18.6179 H   0  0  0  0  0  0  0  0  0  0  0  0
    8.7199   26.8974   21.5545 H   0  0  0  0  0  0  0  0  0  0  0  0
    9.1090   28.3413   20.8133 H   0  0  0  0  0  0  0  0  0  0  0  0
    6.6680   29.1726   21.0917 H   0  0  0  0  0  0  0  0  0  0  0  0
    6.5575   28.0887   22.3540 H   0  0  0  0  0  0  0  0  0  0  0  0
  7  5  2  0
  6  5  1  0
  5  8  1  0
  8  9  1  0
  8 10  1  0
 10  4  1  0
 10 11  1  0
  4  1  1  0
  4 12  1  0
  2  1  2  0
 11 12  1  0
  1  3  1  0
  3 13  1  0
  4 14  1  0
  6 15  1  0
  8 16  1  0
  9 17  1  0
  9 18  1  0
 10 19  1  0
 11 20  1  0
 11 21  1  0
 12 22  1  0
 12 23  1  0
A    1
CD
A    2
OE1
A    3
OE2
A    4
CG
A    5
C
A    6
OXT
A    7
O
A    8
CA
A    9
N
A   10
CB
A   11
C6
A   12
C7
M  END
