4G8V_0EY_A_201
     RDKit          3D

 38 40  0  0  0  0  0  0  0  0999 V2000
   34.6030   -4.4220   12.3230 C   0  0  0  0  0  0  0  0  0  0  0  0
   35.5870   -4.2550   13.2680 C   0  0  0  0  0  0  0  0  0  0  0  0
   36.2630   -3.0500   13.2830 C   0  0  0  0  0  0  0  0  0  0  0  0
   36.7840   -0.9060   12.5220 C   0  0  0  0  0  0  0  0  0  0  0  0
   36.4320    0.5440   12.5310 C   0  0  0  0  0  0  0  0  0  0  0  0
   36.4520    1.3550   13.6940 C   0  0  0  0  0  0  0  0  0  0  0  0
   35.9330   -2.1000   12.4320 N   0  0  0  0  0  0  0  0  0  0  0  0
   34.3220   -3.4380   11.4420 N   0  0  0  0  0  0  0  0  0  0  0  0
   34.6700   -1.3430   10.6220 O   0  0  0  0  0  0  0  0  0  0  0  0
   34.9690   -2.2900   11.4680 C   0  0  0  0  0  0  0  0  0  0  0  0
   33.9270   -5.5920   12.2890 O   0  0  0  0  0  0  0  0  0  0  0  0
   36.1760    1.4080   11.4760 N   0  0  0  0  0  0  0  0  0  0  0  0
   36.0090    2.6160   11.9600 N   0  0  0  0  0  0  0  0  0  0  0  0
   36.1190    2.6260   13.2560 N   0  0  0  0  0  0  0  0  0  0  0  0
   36.0810    3.7010   14.1990 C   0  0  0  0  0  0  0  0  0  0  0  0
   35.9610    4.9830   13.6730 O   0  0  0  0  0  0  0  0  0  0  0  0
   37.2350    5.3490   13.0770 C   0  0  0  0  0  0  0  0  0  0  0  0
   37.4370    6.8390   13.1620 C   0  0  0  0  0  0  0  0  0  0  0  0
   38.6590    7.2200   12.5470 O   0  0  0  0  0  0  0  0  0  0  0  0
   38.2860    4.4850   13.7830 C   0  0  0  0  0  0  0  0  0  0  0  0
   39.0840    3.7420   12.8760 O   0  0  0  0  0  0  0  0  0  0  0  0
   37.4880    3.6090   14.7660 C   0  0  0  0  0  0  0  0  0  0  0  0
   37.4960    4.1740   16.0690 O   0  0  0  0  0  0  0  0  0  0  0  0
   35.8278   -5.0522   13.9867 H   0  0  0  0  0  0  0  0  0  0  0  0
   37.0761   -2.8840   14.0050 H   0  0  0  0  0  0  0  0  0  0  0  0
   37.3411   -1.0486   13.4597 H   0  0  0  0  0  0  0  0  0  0  0  0
   37.1810   -0.9437   11.4968 H   0  0  0  0  0  0  0  0  0  0  0  0
   36.6825    1.0419   14.7230 H   0  0  0  0  0  0  0  0  0  0  0  0
   33.5874   -3.5875   10.7356 H   0  0  0  0  0  0  0  0  0  0  0  0
   35.2125    3.5910   14.8651 H   0  0  0  0  0  0  0  0  0  0  0  0
   37.3011    5.1466   11.9978 H   0  0  0  0  0  0  0  0  0  0  0  0
   37.4568    7.1401   14.2198 H   0  0  0  0  0  0  0  0  0  0  0  0
   36.6086    7.3368   12.6366 H   0  0  0  0  0  0  0  0  0  0  0  0
   39.3289    7.4289   13.2454 H   0  0  0  0  0  0  0  0  0  0  0  0
   39.0278    5.0971   14.3170 H   0  0  0  0  0  0  0  0  0  0  0  0
   39.7065    3.1624   13.3825 H   0  0  0  0  0  0  0  0  0  0  0  0
   37.8873    2.5883   14.8595 H   0  0  0  0  0  0  0  0  0  0  0  0
   37.4857    3.4490   16.7431 H   0  0  0  0  0  0  0  0  0  0  0  0
  9 10  2  0
  8 10  1  0
  8  1  1  0
 10  7  1  0
 12 13  2  0
 12  5  1  0
 13 14  1  0
 11  1  2  0
  1  2  1  0
  7  4  1  0
  7  3  1  0
  4  5  1  0
  5  6  2  0
 19 18  1  0
 21 20  1  0
 17 18  1  0
 17 16  1  0
 17 20  1  0
 14  6  1  0
 14 15  1  0
  2  3  2  0
 16 15  1  0
 20 22  1  0
 15 22  1  0
 22 23  1  0
  2 24  1  0
  3 25  1  0
  4 26  1  0
  4 27  1  0
  6 28  1  0
  8 29  1  0
 15 30  1  0
 17 31  1  0
 18 32  1  0
 18 33  1  0
 19 34  1  0
 20 35  1  0
 21 36  1  0
 22 37  1  0
 23 38  1  0
A    1
C4
A    2
C5
A    3
C6
A    4
C7
A    5
C8
A    6
C9
A    7
N1
A    8
N3
A    9
O2
A   10
C2
A   11
O4
A   12
N5
A   13
N6
A   14
N7
A   15
C1'
A   16
O4'
A   17
C4'
A   18
C5'
A   19
O5'
A   20
C3'
A   21
O3'
A   22
C2'
A   23
O2'
M  END
