4G8Y_0FT_A_201
     RDKit          3D

 41 43  0  0  0  0  0  0  0  0999 V2000
   35.4040    4.5910   23.8350 C   0  0  0  0  0  0  0  0  0  0  0  0
   36.6060    4.4390   23.1710 C   0  0  0  0  0  0  0  0  0  0  0  0
   37.3060    3.2710   23.3550 C   0  0  0  0  0  0  0  0  0  0  0  0
   37.6160    1.1030   24.3390 C   0  0  0  0  0  0  0  0  0  0  0  0
   37.3070   -0.3690   23.9450 C   0  0  0  0  0  0  0  0  0  0  0  0
   37.5920   -1.0060   22.7200 C   0  0  0  0  0  0  0  0  0  0  0  0
   36.7910    2.2760   24.1570 N   0  0  0  0  0  0  0  0  0  0  0  0
   34.9460    3.6090   24.6310 N   0  0  0  0  0  0  0  0  0  0  0  0
   35.1960    1.6150   25.5160 O   0  0  0  0  0  0  0  0  0  0  0  0
   35.6490    2.4670   24.8020 C   0  0  0  0  0  0  0  0  0  0  0  0
   34.6810    5.7490   23.6720 O   0  0  0  0  0  0  0  0  0  0  0  0
   37.1100    5.5170   22.2940 C   0  0  0  0  0  0  0  0  0  0  0  0
   36.7750   -1.3770   24.7430 N   0  0  0  0  0  0  0  0  0  0  0  0
   36.7120   -2.5160   24.0700 N   0  0  0  0  0  0  0  0  0  0  0  0
   37.1480   -2.3370   22.8800 N   0  0  0  0  0  0  0  0  0  0  0  0
   37.2920   -3.3180   21.8620 C   0  0  0  0  0  0  0  0  0  0  0  0
   37.1700   -4.6370   22.3370 O   0  0  0  0  0  0  0  0  0  0  0  0
   38.4910   -5.1430   22.7210 C   0  0  0  0  0  0  0  0  0  0  0  0
   38.7920   -6.4210   21.9780 C   0  0  0  0  0  0  0  0  0  0  0  0
   40.1000   -6.3910   21.4180 O   0  0  0  0  0  0  0  0  0  0  0  0
   39.4530   -3.9800   22.4550 C   0  0  0  0  0  0  0  0  0  0  0  0
   39.7710   -3.2370   23.6260 O   0  0  0  0  0  0  0  0  0  0  0  0
   38.7240   -3.1650   21.3910 C   0  0  0  0  0  0  0  0  0  0  0  0
   38.8430   -3.7740   20.1120 O   0  0  0  0  0  0  0  0  0  0  0  0
   38.2789    3.1301   22.8613 H   0  0  0  0  0  0  0  0  0  0  0  0
   37.8058    1.0646   25.4218 H   0  0  0  0  0  0  0  0  0  0  0  0
   38.3735    1.3189   23.5712 H   0  0  0  0  0  0  0  0  0  0  0  0
   38.0603   -0.5612   21.8296 H   0  0  0  0  0  0  0  0  0  0  0  0
   34.0462    3.7286   25.1177 H   0  0  0  0  0  0  0  0  0  0  0  0
   37.4956    6.3418   22.9113 H   0  0  0  0  0  0  0  0  0  0  0  0
   37.9183    5.1253   21.6590 H   0  0  0  0  0  0  0  0  0  0  0  0
   36.2911    5.8861   21.6590 H   0  0  0  0  0  0  0  0  0  0  0  0
   36.5143   -3.1680   21.0987 H   0  0  0  0  0  0  0  0  0  0  0  0
   38.5753   -5.4356   23.7780 H   0  0  0  0  0  0  0  0  0  0  0  0
   38.0575   -6.5480   21.1691 H   0  0  0  0  0  0  0  0  0  0  0  0
   38.7342   -7.2599   22.6872 H   0  0  0  0  0  0  0  0  0  0  0  0
   40.7705   -6.3756   22.1462 H   0  0  0  0  0  0  0  0  0  0  0  0
   40.4453   -4.3147   22.1184 H   0  0  0  0  0  0  0  0  0  0  0  0
   39.5425   -3.7709   24.4278 H   0  0  0  0  0  0  0  0  0  0  0  0
   39.0955   -2.1350   21.2859 H   0  0  0  0  0  0  0  0  0  0  0  0
   39.0317   -4.7396   20.2225 H   0  0  0  0  0  0  0  0  0  0  0  0
 24 23  1  0
 23 16  1  0
 23 21  1  0
 20 19  1  0
 16 17  1  0
 16 15  1  0
 19 18  1  0
 12  2  1  0
 17 18  1  0
 21 18  1  0
 21 22  1  0
  6 15  1  0
  6  5  2  0
 15 14  1  0
  2  3  2  0
  2  1  1  0
  3  7  1  0
 11  1  2  0
  1  8  1  0
  5  4  1  0
  5 13  1  0
 14 13  2  0
  7  4  1  0
  7 10  1  0
  8 10  1  0
 10  9  2  0
  3 25  1  0
  4 26  1  0
  4 27  1  0
  6 28  1  0
  8 29  1  0
 12 30  1  0
 12 31  1  0
 12 32  1  0
 16 33  1  0
 18 34  1  0
 19 35  1  0
 19 36  1  0
 20 37  1  0
 21 38  1  0
 22 39  1  0
 23 40  1  0
 24 41  1  0
A    1
C4
A    2
C5
A    3
C6
A    4
C7
A    5
C8
A    6
C9
A    7
N1
A    8
N3
A    9
O2
A   10
C2
A   11
O4
A   12
C5A
A   13
N5
A   14
N6
A   15
N7
A   16
C1'
A   17
O4'
A   18
C4'
A   19
C5'
A   20
O5'
A   21
C3'
A   22
O3'
A   23
C2'
A   24
O2'
M  END
