3L3R_OAG_A_187
     RDKit          3D

 34 36  0  0  0  0  0  0  0  0999 V2000
   15.1570    5.2080   -1.9970 C   0  0  0  0  0  0  0  0  0  0  0  0
   14.0770    4.2050   -2.2030 N   0  0  0  0  0  0  0  0  0  0  0  0
   12.5490    1.6070   -2.1750 Cl  0  0  0  0  0  0  0  0  0  0  0  0
   10.0780    7.2440   -1.1860 Cl  0  0  0  0  0  0  0  0  0  0  0  0
   16.6410    6.3030   -0.2480 C   0  0  0  0  0  0  0  0  0  0  0  0
   12.7670    4.3690   -1.9450 C   0  0  0  0  0  0  0  0  0  0  0  0
   16.9670    5.9740    3.3850 N   0  0  0  0  0  0  0  0  0  0  0  0
   15.6130    5.3900   -0.4900 C   0  0  0  0  0  0  0  0  0  0  0  0
   11.9280    3.2180   -1.8960 C   0  0  0  0  0  0  0  0  0  0  0  0
    9.9950    4.6030   -1.4190 C   0  0  0  0  0  0  0  0  0  0  0  0
   17.9620    6.8970    3.5710 C   0  0  0  0  0  0  0  0  0  0  0  0
   18.4020    7.1530    4.7930 N   0  0  0  0  0  0  0  0  0  0  0  0
   10.5570    3.3480   -1.6340 C   0  0  0  0  0  0  0  0  0  0  0  0
   18.5420    7.5410    2.5420 N   0  0  0  0  0  0  0  0  0  0  0  0
   18.1150    7.3750    1.2880 C   0  0  0  0  0  0  0  0  0  0  0  0
   18.6180    8.0310    0.2610 N   0  0  0  0  0  0  0  0  0  0  0  0
   17.0840    6.4820    1.0660 C   0  0  0  0  0  0  0  0  0  0  0  0
   10.8230    5.7200   -1.4700 C   0  0  0  0  0  0  0  0  0  0  0  0
   12.1950    5.6260   -1.7350 C   0  0  0  0  0  0  0  0  0  0  0  0
   15.0770    4.6900    0.6140 C   0  0  0  0  0  0  0  0  0  0  0  0
   15.4970    4.8650    1.8850 N   0  0  0  0  0  0  0  0  0  0  0  0
   16.4980    5.7700    2.1390 C   0  0  0  0  0  0  0  0  0  0  0  0
   14.7970    6.1798   -2.3658 H   0  0  0  0  0  0  0  0  0  0  0  0
   16.0354    4.8357   -2.5446 H   0  0  0  0  0  0  0  0  0  0  0  0
   14.3620    3.2908   -2.5823 H   0  0  0  0  0  0  0  0  0  0  0  0
   17.0935    6.8703   -1.0747 H   0  0  0  0  0  0  0  0  0  0  0  0
    8.9197    4.7095   -1.2132 H   0  0  0  0  0  0  0  0  0  0  0  0
   17.8615    6.8385    5.6114 H   0  0  0  0  0  0  0  0  0  0  0  0
   19.2849    7.6667    4.9254 H   0  0  0  0  0  0  0  0  0  0  0  0
    9.9207    2.4515   -1.5981 H   0  0  0  0  0  0  0  0  0  0  0  0
   19.2373    8.8387    0.4191 H   0  0  0  0  0  0  0  0  0  0  0  0
   18.3917    7.7358   -0.6995 H   0  0  0  0  0  0  0  0  0  0  0  0
   12.8160    6.5330   -1.7773 H   0  0  0  0  0  0  0  0  0  0  0  0
   14.2733    3.9624    0.4277 H   0  0  0  0  0  0  0  0  0  0  0  0
  8  1  1  0
  1  2  1  0
  2  6  1  0
  9  3  1  0
  4 18  1  0
 17  5  2  0
  5  8  1  0
 19  6  1  0
  6  9  2  0
 11  7  2  0
  7 22  1  0
 20  8  2  0
  9 13  1  0
 18 10  1  0
 10 13  2  0
 12 11  1  0
 11 14  1  0
 14 15  2  0
 15 17  1  0
 15 16  1  0
 22 17  1  0
 19 18  2  0
 21 20  1  0
 22 21  2  0
  1 23  1  0
  1 24  1  0
  2 25  1  0
  5 26  1  0
 10 27  1  0
 12 28  1  0
 12 29  1  0
 13 30  1  0
 16 31  1  0
 16 32  1  0
 19 33  1  0
 20 34  1  0
A    1
C1
A    2
N1
A    3
CL2
A    4
CL5
A    5
C9
A    6
C1'
A    7
N1'
A    8
C10
A    9
C11
A   10
C12
A   11
C2'
A   12
N2'
A   13
C3'
A   14
N3'
A   15
C4'
A   16
N4'
A   17
C4A
A   18
C5'
A   19
C6'
A   20
C7'
A   21
N8'
A   22
C8A
M  END
