4G9C_0WP_A_801
     RDKit          3D

 56 59  0  0  0  0  0  0  0  0999 V2000
   40.4680  -26.5080   -2.9310 C   0  0  0  0  0  0  0  0  0  0  0  0
   41.1710  -25.2370   -3.1680 C   0  0  0  0  0  0  0  0  0  0  0  0
   41.0490  -27.5820   -3.0940 O   0  0  0  0  0  0  0  0  0  0  0  0
   41.6220  -24.8870   -4.4320 C   0  0  0  0  0  0  0  0  0  0  0  0
   42.2900  -23.6640   -4.6400 C   0  0  0  0  0  0  0  0  0  0  0  0
   42.5000  -22.7970   -3.5660 C   0  0  0  0  0  0  0  0  0  0  0  0
   42.0460  -23.1520   -2.2910 C   0  0  0  0  0  0  0  0  0  0  0  0
   41.3770  -24.3800   -2.0990 C   0  0  0  0  0  0  0  0  0  0  0  0
   40.9310  -24.7290   -0.8670 F   0  0  0  0  0  0  0  0  0  0  0  0
   41.4150  -25.7260   -5.4660 F   0  0  0  0  0  0  0  0  0  0  0  0
   42.7360  -23.3050   -5.9410 N   0  0  0  0  0  0  0  0  0  0  0  0
   39.1890  -26.3770   -2.5310 N   0  0  0  0  0  0  0  0  0  0  0  0
   42.0750  -23.4640   -7.1060 C   0  0  0  0  0  0  0  0  0  0  0  0
   42.6800  -23.0430   -8.1500 C   0  0  0  0  0  0  0  0  0  0  0  0
   40.9540  -23.9600   -7.2080 O   0  0  0  0  0  0  0  0  0  0  0  0
   44.0500  -22.7710   -8.2430 C   0  0  0  0  0  0  0  0  0  0  0  0
   44.5860  -22.3020   -9.4670 C   0  0  0  0  0  0  0  0  0  0  0  0
   43.7360  -22.1150  -10.5800 C   0  0  0  0  0  0  0  0  0  0  0  0
   42.3640  -22.3950  -10.4620 C   0  0  0  0  0  0  0  0  0  0  0  0
   41.8500  -22.8550   -9.2520 C   0  0  0  0  0  0  0  0  0  0  0  0
   41.4260  -22.1980  -11.6540 C   0  0  0  0  0  0  0  0  0  0  0  0
   41.1860  -23.5280  -12.3950 C   0  0  0  0  0  0  0  0  0  0  0  0
   40.0790  -21.6310  -11.1860 C   0  0  0  0  0  0  0  0  0  0  0  0
   38.2430  -27.3880   -2.2180 C   0  0  0  0  0  0  0  0  0  0  0  0
   38.6350  -28.7260   -2.0100 C   0  0  0  0  0  0  0  0  0  0  0  0
   37.6300  -29.6490   -1.7030 C   0  0  0  0  0  0  0  0  0  0  0  0
   36.3390  -29.2220   -1.6190 C   0  0  0  0  0  0  0  0  0  0  0  0
   35.8920  -27.9570   -1.8060 N   0  0  0  0  0  0  0  0  0  0  0  0
   36.8770  -27.0680   -2.1040 C   0  0  0  0  0  0  0  0  0  0  0  0
   37.6470  -31.0100   -1.4430 C   0  0  0  0  0  0  0  0  0  0  0  0
   36.4330  -31.4770   -1.1970 N   0  0  0  0  0  0  0  0  0  0  0  0
   35.6300  -30.3720   -1.3060 N   0  0  0  0  0  0  0  0  0  0  0  0
   42.0080  -21.2400  -12.6030 C   0  0  0  0  0  0  0  0  0  0  0  0
   42.4640  -20.4840  -13.3480 N   0  0  0  0  0  0  0  0  0  0  0  0
   38.7550  -31.7950   -1.4370 O   0  0  0  0  0  0  0  0  0  0  0  0
   38.5860  -33.1820   -1.1530 C   0  0  0  0  0  0  0  0  0  0  0  0
   43.0196  -21.8400   -3.7213 H   0  0  0  0  0  0  0  0  0  0  0  0
   42.2102  -22.4752   -1.4396 H   0  0  0  0  0  0  0  0  0  0  0  0
   43.6699  -22.8746   -6.0009 H   0  0  0  0  0  0  0  0  0  0  0  0
   38.8499  -25.4087   -2.4394 H   0  0  0  0  0  0  0  0  0  0  0  0
   44.7051  -22.9204   -7.3721 H   0  0  0  0  0  0  0  0  0  0  0  0
   45.6609  -22.0839   -9.5510 H   0  0  0  0  0  0  0  0  0  0  0  0
   44.1461  -21.7521  -11.5340 H   0  0  0  0  0  0  0  0  0  0  0  0
   40.7751  -23.0724   -9.1659 H   0  0  0  0  0  0  0  0  0  0  0  0
   41.0404  -24.3351  -11.6619 H   0  0  0  0  0  0  0  0  0  0  0  0
   40.2893  -23.4396  -13.0260 H   0  0  0  0  0  0  0  0  0  0  0  0
   42.0570  -23.7586  -13.0260 H   0  0  0  0  0  0  0  0  0  0  0  0
   40.0487  -21.6182  -10.0865 H   0  0  0  0  0  0  0  0  0  0  0  0
   39.9598  -20.6064  -11.5680 H   0  0  0  0  0  0  0  0  0  0  0  0
   39.2629  -22.2620  -11.5680 H   0  0  0  0  0  0  0  0  0  0  0  0
   39.6889  -29.0318   -2.0861 H   0  0  0  0  0  0  0  0  0  0  0  0
   36.5844  -26.0204   -2.2683 H   0  0  0  0  0  0  0  0  0  0  0  0
   36.1568  -32.4442   -0.9756 H   0  0  0  0  0  0  0  0  0  0  0  0
   38.5675  -33.3336   -0.0637 H   0  0  0  0  0  0  0  0  0  0  0  0
   37.6385  -33.5326   -1.5881 H   0  0  0  0  0  0  0  0  0  0  0  0
   39.4216  -33.7498   -1.5881 H   0  0  0  0  0  0  0  0  0  0  0  0
 34 33  3  0
 33 21  1  0
 22 21  1  0
 21 23  1  0
 21 19  1  0
 18 19  2  0
 18 17  1  0
 19 20  1  0
 17 16  2  0
 20 14  2  0
 16 14  1  0
 14 13  1  0
 15 13  2  0
 13 11  1  0
 11  5  1  0
 10  4  1  0
  5  4  2  0
  5  6  1  0
  4  2  1  0
  6  7  2  0
  2  1  1  0
  2  8  2  0
  3  1  2  0
  1 12  1  0
 12 24  1  0
  7  8  1  0
 24 29  1  0
 24 25  2  0
 29 28  2  0
  8  9  1  0
 25 26  1  0
 28 27  1  0
 26 27  1  0
 26 30  2  0
 27 32  2  0
 30 35  1  0
 30 31  1  0
 35 36  1  0
 32 31  1  0
  6 37  1  0
  7 38  1  0
 11 39  1  0
 12 40  1  0
 16 41  1  0
 17 42  1  0
 18 43  1  0
 20 44  1  0
 22 45  1  0
 22 46  1  0
 22 47  1  0
 23 48  1  0
 23 49  1  0
 23 50  1  0
 25 51  1  0
 29 52  1  0
 31 53  1  0
 36 54  1  0
 36 55  1  0
 36 56  1  0
A    1
C1
A    2
C2
A    3
O3
A    4
C4
A    5
C5
A    6
C6
A    7
C7
A    8
C8
A    9
F9
A   10
F10
A   11
N11
A   12
N12
A   13
C13
A   14
C14
A   15
O15
A   16
C16
A   17
C17
A   18
C18
A   19
C19
A   20
C20
A   21
C21
A   22
C22
A   23
C23
A   24
C24
A   25
C25
A   26
C26
A   27
C27
A   28
N28
A   29
C29
A   30
C30
A   31
N31
A   32
N32
A   33
C33
A   34
N34
A   35
O35
A   36
C36
M  END
