1EF3_FID_A_340
     RDKit          3D

 30 32  0  0  0  0  0  0  0  0999 V2000
  -29.9890    8.6230  -47.1120 C   0  0  0  0  0  0  0  0  0  0  0  0
  -29.3530    7.6070  -46.5670 N   0  0  0  0  0  0  0  0  0  0  0  0
  -30.0730    6.4800  -46.6120 C   0  0  0  0  0  0  0  0  0  0  0  0
  -31.3990    6.8350  -47.3000 C   0  0  0  0  0  0  0  0  0  0  0  0
  -31.5710    6.0510  -48.5640 C   0  0  0  0  0  0  0  0  0  0  0  0
  -30.7630    6.3660  -49.6590 C   0  0  0  0  0  0  0  0  0  0  0  0
  -30.9000    5.6740  -50.8360 C   0  0  0  0  0  0  0  0  0  0  0  0
  -30.1190    5.9940  -51.8620 F   0  0  0  0  0  0  0  0  0  0  0  0
  -31.8350    4.6530  -50.9800 C   0  0  0  0  0  0  0  0  0  0  0  0
  -32.6590    4.3360  -49.8910 C   0  0  0  0  0  0  0  0  0  0  0  0
  -32.5370    5.0330  -48.6850 C   0  0  0  0  0  0  0  0  0  0  0  0
  -33.4070    4.6530  -47.6730 O   0  0  0  0  0  0  0  0  0  0  0  0
  -33.0230    5.0490  -46.3600 C   0  0  0  0  0  0  0  0  0  0  0  0
  -34.1350    4.7960  -45.3100 C   0  0  0  0  0  0  0  0  0  0  0  0
  -35.3410    4.4660  -45.7440 N   0  0  0  0  0  0  0  0  0  0  0  0
  -33.8940    4.8980  -44.1210 O   0  0  0  0  0  0  0  0  0  0  0  0
  -32.6280    6.5700  -46.3740 C   0  0  0  0  0  0  0  0  0  0  0  0
  -31.1770    8.2480  -47.5530 N   0  0  0  0  0  0  0  0  0  0  0  0
  -29.7520    5.3620  -46.1940 O   0  0  0  0  0  0  0  0  0  0  0  0
  -29.5450    9.7590  -47.2080 O   0  0  0  0  0  0  0  0  0  0  0  0
  -28.4115    7.6721  -46.1544 H   0  0  0  0  0  0  0  0  0  0  0  0
  -30.0162    7.1695  -49.5777 H   0  0  0  0  0  0  0  0  0  0  0  0
  -31.9256    4.1055  -51.9298 H   0  0  0  0  0  0  0  0  0  0  0  0
  -33.4060    3.5341  -49.9859 H   0  0  0  0  0  0  0  0  0  0  0  0
  -32.1617    4.4325  -46.0632 H   0  0  0  0  0  0  0  0  0  0  0  0
  -36.0924    4.2604  -45.0702 H   0  0  0  0  0  0  0  0  0  0  0  0
  -35.5281    4.4148  -46.7556 H   0  0  0  0  0  0  0  0  0  0  0  0
  -32.3777    6.8835  -45.3498 H   0  0  0  0  0  0  0  0  0  0  0  0
  -33.4821    7.1442  -46.7623 H   0  0  0  0  0  0  0  0  0  0  0  0
  -31.8538    8.8730  -48.0137 H   0  0  0  0  0  0  0  0  0  0  0  0
  1  2  1  0
  1 18  1  0
  1 20  2  0
  2  3  1  0
  3  4  1  0
  3 19  2  0
  4  5  1  0
  4 17  1  0
  4 18  1  0
  5  6  2  0
  5 11  1  0
  6  7  1  0
  7  8  1  0
  7  9  2  0
  9 10  1  0
 10 11  2  0
 11 12  1  0
 12 13  1  0
 13 14  1  0
 13 17  1  0
 14 15  1  0
 14 16  2  0
  2 21  1  0
  6 22  1  0
  9 23  1  0
 10 24  1  0
 13 25  1  0
 15 26  1  0
 15 27  1  0
 17 28  1  0
 17 29  1  0
 18 30  1  0
A    1
C2I
A    2
N4
A    3
C5
A    4
C7I
A    5
C12
A    6
C13
A    7
C14
A    8
F17
A    9
C15
A   10
C16
A   11
C11
A   12
O10
A   13
C9
A   14
C19
A   15
N21
A   16
O20
A   17
C8I
A   18
N1I
A   19
O6I
A   20
O3I
M  END
