4GB2_0LQ_B_101
     RDKit          3D

 66 71  0  0  0  0  0  0  0  0999 V2000
  -16.7070  -19.7910    4.6550 C   0  0  0  0  0  0  0  0  0  0  0  0
  -17.8310  -20.4080    5.3970 N   0  0  0  0  0  0  0  0  0  0  0  0
  -17.5820  -21.6260    5.9100 C   0  0  0  0  0  0  0  0  0  0  0  0
  -18.4530  -22.2920    6.4710 O   0  0  0  0  0  0  0  0  0  0  0  0
  -16.2350  -22.2170    5.7700 C   0  0  0  0  0  0  0  0  0  0  0  0
  -16.1100  -23.4280    5.9100 O   0  0  0  0  0  0  0  0  0  0  0  0
  -15.1810  -21.4190    5.6000 N   0  0  0  0  0  0  0  0  0  0  0  0
  -13.7830  -21.8880    5.7780 C   0  0  0  0  0  0  0  0  0  0  0  0
  -13.6070  -22.0820    7.2500 C   0  0  0  0  0  0  0  0  0  0  0  0
  -14.0330  -23.2260    7.9180 C   0  0  0  0  0  0  0  0  0  0  0  0
  -13.8790  -23.3470    9.2940 C   0  0  0  0  0  0  0  0  0  0  0  0
  -13.2980  -22.3150   10.0210 C   0  0  0  0  0  0  0  0  0  0  0  0
  -12.8800  -21.1700    9.3670 C   0  0  0  0  0  0  0  0  0  0  0  0
  -13.0250  -21.0590    7.9920 C   0  0  0  0  0  0  0  0  0  0  0  0
  -13.3250  -23.0370    4.9200 C   0  0  0  0  0  0  0  0  0  0  0  0
  -13.9950  -23.3750    3.7360 C   0  0  0  0  0  0  0  0  0  0  0  0
  -13.5300  -24.4320    2.9390 C   0  0  0  0  0  0  0  0  0  0  0  0
  -12.3880  -25.1380    3.3170 C   0  0  0  0  0  0  0  0  0  0  0  0
  -11.6990  -24.7980    4.4810 C   0  0  0  0  0  0  0  0  0  0  0  0
  -12.1710  -23.7500    5.2760 C   0  0  0  0  0  0  0  0  0  0  0  0
  -15.4300  -19.9850    5.4520 C   0  0  0  0  0  0  0  0  0  0  0  0
  -14.4140  -19.2420    4.5850 C   0  0  0  0  0  0  0  0  0  0  0  0
  -15.2310  -18.1480    4.0580 N   0  0  0  0  0  0  0  0  0  0  0  0
  -16.6400  -18.2820    4.3830 C   0  0  0  0  0  0  0  0  0  0  0  0
  -19.2190  -19.8870    5.4390 C   0  0  0  0  0  0  0  0  0  0  0  0
  -19.4950  -18.7990    6.4560 C   0  0  0  0  0  0  0  0  0  0  0  0
  -20.8100  -18.3860    6.6980 C   0  0  0  0  0  0  0  0  0  0  0  0
  -21.0840  -17.3900    7.6400 C   0  0  0  0  0  0  0  0  0  0  0  0
  -20.0510  -16.8020    8.3780 C   0  0  0  0  0  0  0  0  0  0  0  0
  -18.7450  -17.2150    8.1550 C   0  0  0  0  0  0  0  0  0  0  0  0
  -18.4800  -18.2120    7.2070 C   0  0  0  0  0  0  0  0  0  0  0  0
  -19.5570  -19.5360    4.0130 C   0  0  0  0  0  0  0  0  0  0  0  0
  -19.5290  -20.5440    3.0370 C   0  0  0  0  0  0  0  0  0  0  0  0
  -19.8070  -20.2460    1.7000 C   0  0  0  0  0  0  0  0  0  0  0  0
  -20.1220  -18.9410    1.3470 C   0  0  0  0  0  0  0  0  0  0  0  0
  -20.1470  -17.9340    2.3070 C   0  0  0  0  0  0  0  0  0  0  0  0
  -19.8680  -18.2330    3.6380 C   0  0  0  0  0  0  0  0  0  0  0  0
  -16.8511  -20.2919    3.6863 H   0  0  0  0  0  0  0  0  0  0  0  0
  -13.0952  -21.1234    5.3876 H   0  0  0  0  0  0  0  0  0  0  0  0
  -14.4977  -24.0452    7.3496 H   0  0  0  0  0  0  0  0  0  0  0  0
  -14.2169  -24.2593    9.8074 H   0  0  0  0  0  0  0  0  0  0  0  0
  -13.1713  -22.4080   11.1097 H   0  0  0  0  0  0  0  0  0  0  0  0
  -12.4311  -20.3448    9.9393 H   0  0  0  0  0  0  0  0  0  0  0  0
  -12.6751  -20.1498    7.4812 H   0  0  0  0  0  0  0  0  0  0  0  0
  -14.8880  -22.8099    3.4308 H   0  0  0  0  0  0  0  0  0  0  0  0
  -14.0654  -24.7035    2.0172 H   0  0  0  0  0  0  0  0  0  0  0  0
  -12.0282  -25.9690    2.6925 H   0  0  0  0  0  0  0  0  0  0  0  0
  -10.7925  -25.3496    4.7706 H   0  0  0  0  0  0  0  0  0  0  0  0
  -11.6293  -23.4804    6.1946 H   0  0  0  0  0  0  0  0  0  0  0  0
  -15.4233  -19.6038    6.4838 H   0  0  0  0  0  0  0  0  0  0  0  0
  -14.0294  -19.8823    3.7775 H   0  0  0  0  0  0  0  0  0  0  0  0
  -13.5155  -18.9121    5.1271 H   0  0  0  0  0  0  0  0  0  0  0  0
  -15.1313  -18.1287    3.0330 H   0  0  0  0  0  0  0  0  0  0  0  0
  -16.9118  -17.6942    5.2722 H   0  0  0  0  0  0  0  0  0  0  0  0
  -17.3313  -17.9193    3.6081 H   0  0  0  0  0  0  0  0  0  0  0  0
  -19.8995  -20.6583    5.8288 H   0  0  0  0  0  0  0  0  0  0  0  0
  -21.6372  -18.8502    6.1409 H   0  0  0  0  0  0  0  0  0  0  0  0
  -22.1223  -17.0653    7.8026 H   0  0  0  0  0  0  0  0  0  0  0  0
  -20.2707  -16.0239    9.1239 H   0  0  0  0  0  0  0  0  0  0  0  0
  -17.9191  -16.7603    8.7217 H   0  0  0  0  0  0  0  0  0  0  0  0
  -17.4416  -18.5400    7.0517 H   0  0  0  0  0  0  0  0  0  0  0  0
  -19.2863  -21.5771    3.3266 H   0  0  0  0  0  0  0  0  0  0  0  0
  -19.7765  -21.0368    0.9360 H   0  0  0  0  0  0  0  0  0  0  0  0
  -20.3539  -18.7007    0.2989 H   0  0  0  0  0  0  0  0  0  0  0  0
  -20.3873  -16.9013    2.0143 H   0  0  0  0  0  0  0  0  0  0  0  0
  -19.8936  -17.4360    4.3957 H   0  0  0  0  0  0  0  0  0  0  0  0
 35 34  1  0
 35 36  2  0
 34 33  2  0
 36 37  1  0
 17 18  1  0
 17 16  2  0
 33 32  1  0
 18 19  2  0
 37 32  2  0
 16 15  1  0
 32 25  1  0
 23 24  1  0
 23 22  1  0
 24  1  1  0
 19 20  1  0
 22 21  1  0
  1  2  1  0
  1 21  1  0
 15 20  2  0
 15  8  1  0
  2 25  1  0
  2  3  1  0
 25 26  1  0
 21  7  1  0
  7  5  1  0
  7  8  1  0
  5  3  1  0
  5  6  2  0
  8  9  1  0
  3  4  2  0
 26 27  2  0
 26 31  1  0
 27 28  1  0
 31 30  2  0
  9 10  2  0
  9 14  1  0
 28 29  2  0
 10 11  1  0
 14 13  2  0
 30 29  1  0
 11 12  2  0
 13 12  1  0
  1 38  1  0
  8 39  1  0
 10 40  1  0
 11 41  1  0
 12 42  1  0
 13 43  1  0
 14 44  1  0
 16 45  1  0
 17 46  1  0
 18 47  1  0
 19 48  1  0
 20 49  1  0
 21 50  1  0
 22 51  1  0
 22 52  1  0
 23 53  1  0
 24 54  1  0
 24 55  1  0
 25 56  1  0
 27 57  1  0
 28 58  1  0
 29 59  1  0
 30 60  1  0
 31 61  1  0
 33 62  1  0
 34 63  1  0
 35 64  1  0
 36 65  1  0
 37 66  1  0
A    1
C1
A    2
N1
A    3
C2
A    4
O1
A    5
C3
A    6
O2
A    7
N2
A    8
C4
A    9
C5
A   10
C6
A   11
C7
A   12
C8
A   13
C9
A   14
C10
A   15
C11
A   16
C12
A   17
C13
A   18
C14
A   19
C15
A   20
C16
A   21
C17
A   22
C18
A   23
N3
A   24
C19
A   25
C20
A   26
C21
A   27
C22
A   28
C23
A   29
C24
A   30
C25
A   31
C26
A   32
C27
A   33
C28
A   34
C29
A   35
C30
A   36
C31
A   37
C32
M  END
