4GBU_0WV_A_402
     RDKit          3D

 23 23  0  0  0  0  0  0  0  0999 V2000
   -1.9330  -36.2750  -13.1890 C   0  0  0  0  0  0  0  0  0  0  0  0
   -2.1880  -35.4140  -12.0670 C   0  0  0  0  0  0  0  0  0  0  0  0
   -1.0860  -34.5880  -11.7260 C   0  0  0  0  0  0  0  0  0  0  0  0
    1.6710  -35.4210  -14.1050 C   0  0  0  0  0  0  0  0  0  0  0  0
   -3.4800  -35.3250  -11.2960 C   0  0  0  0  0  0  0  0  0  0  0  0
   -3.4690  -34.7470  -10.0670 C   0  0  0  0  0  0  0  0  0  0  0  0
   -4.7110  -36.0550  -11.7020 C   0  0  0  0  0  0  0  0  0  0  0  0
   -0.6830  -36.2700  -13.8420 C   0  0  0  0  0  0  0  0  0  0  0  0
    0.1330  -34.6360  -12.4060 C   0  0  0  0  0  0  0  0  0  0  0  0
    1.1170  -33.7900  -12.0160 O   0  0  0  0  0  0  0  0  0  0  0  0
    0.3320  -35.4580  -13.4430 C   0  0  0  0  0  0  0  0  0  0  0  0
   -2.7261  -36.9493  -13.5445 H   0  0  0  0  0  0  0  0  0  0  0  0
   -1.1963  -33.8802  -10.8912 H   0  0  0  0  0  0  0  0  0  0  0  0
    2.4589  -35.3992  -13.3377 H   0  0  0  0  0  0  0  0  0  0  0  0
    1.7947  -36.3161  -14.7323 H   0  0  0  0  0  0  0  0  0  0  0  0
    1.7451  -34.5205  -14.7323 H   0  0  0  0  0  0  0  0  0  0  0  0
   -4.4003  -34.6712   -9.4865 H   0  0  0  0  0  0  0  0  0  0  0  0
   -2.5288  -34.3546   -9.6521 H   0  0  0  0  0  0  0  0  0  0  0  0
   -5.2579  -36.3793  -10.8043 H   0  0  0  0  0  0  0  0  0  0  0  0
   -5.3508  -35.3902  -12.3009 H   0  0  0  0  0  0  0  0  0  0  0  0
   -4.4346  -36.9353  -12.3009 H   0  0  0  0  0  0  0  0  0  0  0  0
   -0.5247  -36.9420  -14.6983 H   0  0  0  0  0  0  0  0  0  0  0  0
    1.2893  -33.6418  -11.0524 H   0  0  0  0  0  0  0  0  0  0  0  0
  4 11  1  0
  8 11  1  0
  8  1  2  0
 11  9  2  0
  1  2  1  0
  9 10  1  0
  9  3  1  0
  2  3  2  0
  2  5  1  0
  7  5  1  0
  5  6  2  3
  1 12  1  0
  3 13  1  0
  4 14  1  0
  4 15  1  0
  4 16  1  0
  6 17  1  0
  6 18  1  0
  7 19  1  0
  7 20  1  0
  7 21  1  0
  8 22  1  0
 10 23  1  0
A    1
C4
A    2
C5
A    3
C6
A    4
C7
A    5
C8
A    6
C9
A    7
C10
A    8
C3
A    9
C1
A   10
O1
A   11
C2
M  END
