4GCH_DMC_G_246
     RDKit          3D

 36 36  0  0  0  0  0  0  0  0999 V2000
   36.7650   76.1440   83.6440 O   0  0  0  0  0  0  0  0  0  0  0  0
   37.2170   76.4890   84.7390 C   0  0  0  0  0  0  0  0  0  0  0  0
   36.5190   76.4960   86.1410 C   0  0  0  0  0  0  0  0  0  0  0  0
   37.6810   77.0740   87.1790 C   0  0  0  0  0  0  0  0  0  0  0  0
   35.1940   75.9670   86.0640 C   0  0  0  0  0  0  0  0  0  0  0  0
   37.4370   77.2280   88.8720 C   0  0  0  0  0  0  0  0  0  0  0  0
   38.4880   77.7180   89.6090 C   0  0  0  0  0  0  0  0  0  0  0  0
   38.3350   77.7870   90.9890 C   0  0  0  0  0  0  0  0  0  0  0  0
   37.1270   77.4090   91.6110 C   0  0  0  0  0  0  0  0  0  0  0  0
   36.1210   76.9090   90.8510 C   0  0  0  0  0  0  0  0  0  0  0  0
   36.2550   76.8050   89.5220 C   0  0  0  0  0  0  0  0  0  0  0  0
   39.4430   78.0540   89.2870 O   0  0  0  0  0  0  0  0  0  0  0  0
   36.9620   77.4920   92.8180 N   0  0  0  0  0  0  0  0  0  0  0  0
   35.5670   77.3930   93.3740 C   0  0  0  0  0  0  0  0  0  0  0  0
   38.3490   78.5180   93.5110 C   0  0  0  0  0  0  0  0  0  0  0  0
   34.3270   77.1860   93.6240 C   0  0  0  0  0  0  0  0  0  0  0  0
   39.7120   79.1760   92.5860 C   0  0  0  0  0  0  0  0  0  0  0  0
   38.2588   76.8420   84.7291 H   0  0  0  0  0  0  0  0  0  0  0  0
   38.6539   77.3725   86.7613 H   0  0  0  0  0  0  0  0  0  0  0  0
   34.8021   75.8105   87.0798 H   0  0  0  0  0  0  0  0  0  0  0  0
   34.5469   76.6757   85.5264 H   0  0  0  0  0  0  0  0  0  0  0  0
   35.2129   75.0075   85.5264 H   0  0  0  0  0  0  0  0  0  0  0  0
   39.1720   78.1432   91.6075 H   0  0  0  0  0  0  0  0  0  0  0  0
   35.1855   76.5855   91.3307 H   0  0  0  0  0  0  0  0  0  0  0  0
   35.4316   76.3835   88.9267 H   0  0  0  0  0  0  0  0  0  0  0  0
   40.1331   78.2968   89.9540 H   0  0  0  0  0  0  0  0  0  0  0  0
   35.9019   76.9070   94.3023 H   0  0  0  0  0  0  0  0  0  0  0  0
   35.2437   78.0513   92.5541 H   0  0  0  0  0  0  0  0  0  0  0  0
   37.8622   79.3909   93.9704 H   0  0  0  0  0  0  0  0  0  0  0  0
   38.8726   77.7544   94.1050 H   0  0  0  0  0  0  0  0  0  0  0  0
   34.1718   77.1601   94.7127 H   0  0  0  0  0  0  0  0  0  0  0  0
   33.7246   77.9960   93.1869 H   0  0  0  0  0  0  0  0  0  0  0  0
   34.0204   76.2242   93.1869 H   0  0  0  0  0  0  0  0  0  0  0  0
   40.4808   79.5471   93.2797 H   0  0  0  0  0  0  0  0  0  0  0  0
   40.1407   78.3856   91.9523 H   0  0  0  0  0  0  0  0  0  0  0  0
   39.3598   80.0033   91.9523 H   0  0  0  0  0  0  0  0  0  0  0  0
  1  2  2  0
  2  3  1  0
  3  4  2  0
  3  5  1  0
  4  6  1  0
  6  7  2  0
  6 11  1  0
  7  8  1  0
  7 12  1  0
  8  9  2  0
  9 10  1  0
  9 13  1  0
 10 11  2  0
 13 14  1  0
 13 15  1  0
 14 16  1  0
 15 17  1  0
  2 18  1  0
  4 19  1  0
  5 20  1  0
  5 21  1  0
  5 22  1  0
  8 23  1  0
 10 24  1  0
 11 25  1  0
 12 26  1  0
 14 27  1  0
 14 28  1  0
 15 29  1  0
 15 30  1  0
 16 31  1  0
 16 32  1  0
 16 33  1  0
 17 34  1  0
 17 35  1  0
 17 36  1  0
A    1
O
A    2
C
A    3
CA
A    4
CB1
A    5
CB2
A    6
CG
A    7
CD1
A    8
CE1
A    9
CZ
A   10
CE2
A   11
CD2
A   12
OH
A   13
N
A   14
CH1
A   15
CH2
A   16
CM1
A   17
CM2
M  END
