4GD4_0WS_A_504
     RDKit          3D

 21 22  0  0  0  0  0  0  0  0999 V2000
  -26.5500  -22.8950  -24.0270 C   0  0  0  0  0  0  0  0  0  0  0  0
  -25.8500  -20.8630  -22.9730 C   0  0  0  0  0  0  0  0  0  0  0  0
  -27.0690  -20.8560  -22.2970 C   0  0  0  0  0  0  0  0  0  0  0  0
  -27.6940  -22.8380  -23.2620 C   0  0  0  0  0  0  0  0  0  0  0  0
  -27.4190  -19.7650  -21.3740 C   0  0  0  0  0  0  0  0  0  0  0  0
  -24.1490  -22.9580  -25.4070 O   0  0  0  0  0  0  0  0  0  0  0  0
  -25.5960  -21.8970  -23.8710 C   0  0  0  0  0  0  0  0  0  0  0  0
  -23.2950  -21.3760  -24.1030 O   0  0  0  0  0  0  0  0  0  0  0  0
  -24.2550  -22.0220  -24.5070 C   0  0  0  0  0  0  0  0  0  0  0  0
  -27.9780  -21.8390  -22.4130 N   0  0  0  0  0  0  0  0  0  0  0  0
  -26.5750  -18.8060  -20.7930 C   0  0  0  0  0  0  0  0  0  0  0  0
  -27.4090  -17.9280  -20.1520 C   0  0  0  0  0  0  0  0  0  0  0  0
  -28.6640  -18.3420  -20.3590 N   0  0  0  0  0  0  0  0  0  0  0  0
  -28.6990  -19.4710  -21.1040 N   0  0  0  0  0  0  0  0  0  0  0  0
  -26.3950  -23.7130  -24.7459 H   0  0  0  0  0  0  0  0  0  0  0  0
  -25.1064  -20.0708  -22.8014 H   0  0  0  0  0  0  0  0  0  0  0  0
  -28.4182  -23.6610  -23.3527 H   0  0  0  0  0  0  0  0  0  0  0  0
  -24.0421  -23.9021  -25.1290 H   0  0  0  0  0  0  0  0  0  0  0  0
  -25.4768  -18.7674  -20.8419 H   0  0  0  0  0  0  0  0  0  0  0  0
  -27.1026  -17.0443  -19.5731 H   0  0  0  0  0  0  0  0  0  0  0  0
  -29.4997  -17.8612  -19.9964 H   0  0  0  0  0  0  0  0  0  0  0  0
  6  9  1  0
  9  8  2  0
  9  7  1  0
  1  7  2  0
  1  4  1  0
  7  2  1  0
  4 10  2  0
  2  3  2  0
 10  3  1  0
  3  5  1  0
  5 14  2  0
  5 11  1  0
 14 13  1  0
 11 12  2  0
 13 12  1  0
  1 15  1  0
  2 16  1  0
  4 17  1  0
  6 18  1  0
 11 19  1  0
 12 20  1  0
 13 21  1  0
A    1
C5
A    2
C2
A    3
C3
A    4
C4
A    5
C6
A    6
O
A    7
C1
A    8
O1
A    9
C
A   10
N
A   11
C8
A   12
C7
A   13
N2
A   14
N1
M  END
