4GE7_0K5_A_501
     RDKit          3D

 57 60  0  0  0  0  0  0  0  0999 V2000
    3.8910    0.8100  -53.0980 C   0  0  0  0  0  0  0  0  0  0  0  0
    2.3100   -0.5850  -51.9100 C   0  0  0  0  0  0  0  0  0  0  0  0
    2.6060    0.3020  -52.9420 C   0  0  0  0  0  0  0  0  0  0  0  0
    3.2940   -0.9750  -51.0110 C   0  0  0  0  0  0  0  0  0  0  0  0
    2.5650   10.9950  -51.8900 C   0  0  0  0  0  0  0  0  0  0  0  0
    3.4140    9.8890  -51.8260 C   0  0  0  0  0  0  0  0  0  0  0  0
    6.1570    4.3170  -53.8140 C   0  0  0  0  0  0  0  0  0  0  0  0
    7.0170    1.7150  -54.4010 C   0  0  0  0  0  0  0  0  0  0  0  0
    5.3300    8.5900  -52.9200 C   0  0  0  0  0  0  0  0  0  0  0  0
    6.6670    4.0640  -55.0490 C   0  0  0  0  0  0  0  0  0  0  0  0
    3.5200   12.8110  -54.9260 C   0  0  0  0  0  0  0  0  0  0  0  0
    7.1300    2.7540  -55.3370 C   0  0  0  0  0  0  0  0  0  0  0  0
    4.5650   -0.4380  -51.1560 C   0  0  0  0  0  0  0  0  0  0  0  0
    6.0520    3.2840  -52.8600 C   0  0  0  0  0  0  0  0  0  0  0  0
    4.3630    9.7530  -52.8570 C   0  0  0  0  0  0  0  0  0  0  0  0
    4.8770    0.4440  -52.1910 C   0  0  0  0  0  0  0  0  0  0  0  0
    6.4340    1.9680  -53.1560 C   0  0  0  0  0  0  0  0  0  0  0  0
    4.3820   10.7330  -53.8660 C   0  0  0  0  0  0  0  0  0  0  0  0
    3.4610   11.7840  -53.8260 C   0  0  0  0  0  0  0  0  0  0  0  0
    5.7450    5.6830  -53.5140 C   0  0  0  0  0  0  0  0  0  0  0  0
    5.7210    6.6310  -54.4600 C   0  0  0  0  0  0  0  0  0  0  0  0
    6.2360    6.3610  -55.8020 C   0  0  0  0  0  0  0  0  0  0  0  0
    3.1890    8.9320  -50.6640 C   0  0  0  0  0  0  0  0  0  0  0  0
    2.5550   11.9270  -52.8510 N   0  0  0  0  0  0  0  0  0  0  0  0
    6.7230    5.0670  -55.9980 N   0  0  0  0  0  0  0  0  0  0  0  0
    5.1390    7.9060  -54.1970 N   0  0  0  0  0  0  0  0  0  0  0  0
    4.7140    9.7170  -47.5340 O   0  0  0  0  0  0  0  0  0  0  0  0
    5.4980    7.4700  -48.2890 O   0  0  0  0  0  0  0  0  0  0  0  0
    6.2430    7.1990  -56.6830 O   0  0  0  0  0  0  0  0  0  0  0  0
    2.9810    7.8950  -47.9600 O   0  0  0  0  0  0  0  0  0  0  0  0
    5.2740   10.6650  -54.9050 O   0  0  0  0  0  0  0  0  0  0  0  0
    7.2650    4.8350  -57.2920 O   0  0  0  0  0  0  0  0  0  0  0  0
    6.1480    0.9500  -52.2940 O   0  0  0  0  0  0  0  0  0  0  0  0
    4.3270    8.9680  -49.8290 O   0  0  0  0  0  0  0  0  0  0  0  0
    4.3520    8.4800  -48.3170 P   0  0  0  0  0  0  0  0  0  0  0  0
    4.1234    1.4926  -53.9287 H   0  0  0  0  0  0  0  0  0  0  0  0
    1.2886   -0.9799  -51.8061 H   0  0  0  0  0  0  0  0  0  0  0  0
    1.8135    0.6045  -53.6424 H   0  0  0  0  0  0  0  0  0  0  0  0
    3.0717   -1.6905  -50.2056 H   0  0  0  0  0  0  0  0  0  0  0  0
    1.8360   11.1118  -51.0746 H   0  0  0  0  0  0  0  0  0  0  0  0
    7.3849    0.7076  -54.6454 H   0  0  0  0  0  0  0  0  0  0  0  0
    5.1304    7.8945  -52.0915 H   0  0  0  0  0  0  0  0  0  0  0  0
    6.3653    8.9516  -52.8338 H   0  0  0  0  0  0  0  0  0  0  0  0
    3.5778   13.8173  -54.4854 H   0  0  0  0  0  0  0  0  0  0  0  0
    4.4093   12.6314  -55.5480 H   0  0  0  0  0  0  0  0  0  0  0  0
    2.6160   12.7344  -55.5480 H   0  0  0  0  0  0  0  0  0  0  0  0
    7.5877    2.5485  -56.3159 H   0  0  0  0  0  0  0  0  0  0  0  0
    5.3482   -0.7153  -50.4351 H   0  0  0  0  0  0  0  0  0  0  0  0
    5.6606    3.5165  -51.8586 H   0  0  0  0  0  0  0  0  0  0  0  0
    5.4470    5.9411  -52.4871 H   0  0  0  0  0  0  0  0  0  0  0  0
    2.3005    9.2420  -50.0944 H   0  0  0  0  0  0  0  0  0  0  0  0
    3.0297    7.9110  -51.0412 H   0  0  0  0  0  0  0  0  0  0  0  0
    4.5687    8.3568  -54.9267 H   0  0  0  0  0  0  0  0  0  0  0  0
    4.6571    9.5226  -46.5649 H   0  0  0  0  0  0  0  0  0  0  0  0
    2.8858    7.8544  -46.9754 H   0  0  0  0  0  0  0  0  0  0  0  0
    6.2439   10.5911  -54.7207 H   0  0  0  0  0  0  0  0  0  0  0  0
    8.1709    4.4472  -57.3870 H   0  0  0  0  0  0  0  0  0  0  0  0
 32 25  1  0
 29 22  2  0
 25 22  1  0
 25 10  1  0
 22 21  1  0
 12 10  1  0
 12  8  2  0
 10  7  2  0
 11 19  1  0
 31 18  1  0
 21 26  1  0
 21 20  2  0
  8 17  1  0
 26  9  1  0
 18 19  2  0
 18 15  1  0
 19 24  1  0
  7 20  1  0
  7 14  1  0
 17 14  2  0
 17 33  1  0
  1  3  2  0
  1 16  1  0
  3  2  1  0
  9 15  1  0
 15  6  2  0
 24  5  2  0
 33 16  1  0
 16 13  2  0
  2  4  2  0
  5  6  1  0
  6 23  1  0
 13  4  1  0
 23 34  1  0
 34 35  1  0
 35 28  2  0
 35 30  1  0
 35 27  1  0
  1 36  1  0
  2 37  1  0
  3 38  1  0
  4 39  1  0
  5 40  1  0
  8 41  1  0
  9 42  1  0
  9 43  1  0
 11 44  1  0
 11 45  1  0
 11 46  1  0
 12 47  1  0
 13 48  1  0
 14 49  1  0
 20 50  1  0
 23 51  1  0
 23 52  1  0
 26 53  1  0
 27 54  1  0
 30 55  1  0
 31 56  1  0
 32 57  1  0
A    1
C35
A    2
C33
A    3
C34
A    4
C32
A    5
C4
A    6
C7
A    7
C6
A    8
C9
A    9
C13
A   10
C8
A   11
C16
A   12
C3
A   13
C31
A   14
C1
A   15
C5
A   16
C30
A   17
C2
A   18
C10
A   19
C11
A   20
C14
A   21
C15
A   22
C12
A   23
C17
A   24
N18
A   25
N20
A   26
N19
A   27
O22
A   28
O24
A   29
O23
A   30
O21
A   31
O25
A   32
O26
A   33
O29
A   34
O27
A   35
P28
M  END
