4GE9_0L0_A_4000
     RDKit          3D

 63 66  0  0  0  0  0  0  0  0999 V2000
   15.8610  -11.5000  -52.0570 N   0  0  0  0  0  0  0  0  0  0  0  0
   12.9730   -7.4560  -52.0080 C   0  0  0  0  0  0  0  0  0  0  0  0
    9.1680   -7.6290  -48.5840 C   0  0  0  0  0  0  0  0  0  0  0  0
   12.4270   -5.5740  -50.4260 C   0  0  0  0  0  0  0  0  0  0  0  0
   20.9220   -8.2750  -51.7910 C   0  0  0  0  0  0  0  0  0  0  0  0
   13.5840   -4.7560  -50.9640 C   0  0  0  0  0  0  0  0  0  0  0  0
   23.2040   -6.8960  -52.6060 C   0  0  0  0  0  0  0  0  0  0  0  0
   20.4200  -12.6840  -54.1590 C   0  0  0  0  0  0  0  0  0  0  0  0
   16.9290  -10.7900  -52.6000 C   0  0  0  0  0  0  0  0  0  0  0  0
   12.1350   -6.8590  -50.9020 C   0  0  0  0  0  0  0  0  0  0  0  0
   11.0580   -7.5800  -50.3120 C   0  0  0  0  0  0  0  0  0  0  0  0
   10.3320   -6.9540  -49.2670 C   0  0  0  0  0  0  0  0  0  0  0  0
   10.6600   -5.7450  -48.8570 N   0  0  0  0  0  0  0  0  0  0  0  0
   11.6510   -5.0460  -49.3990 C   0  0  0  0  0  0  0  0  0  0  0  0
   13.8200  -11.5430  -51.2560 O   0  0  0  0  0  0  0  0  0  0  0  0
   13.2380   -8.8750  -51.7440 N   0  0  0  0  0  0  0  0  0  0  0  0
   20.2120   -8.5250  -54.2220 C   0  0  0  0  0  0  0  0  0  0  0  0
   21.1750   -8.0530  -53.1550 C   0  0  0  0  0  0  0  0  0  0  0  0
   21.8380   -7.8320  -50.8370 C   0  0  0  0  0  0  0  0  0  0  0  0
   22.9970   -7.1430  -51.2530 C   0  0  0  0  0  0  0  0  0  0  0  0
   22.3250   -7.3730  -53.5640 C   0  0  0  0  0  0  0  0  0  0  0  0
   20.3830  -11.3380  -53.6520 O   0  0  0  0  0  0  0  0  0  0  0  0
   19.1820  -10.7180  -53.4560 C   0  0  0  0  0  0  0  0  0  0  0  0
   19.0500   -9.3350  -53.6890 C   0  0  0  0  0  0  0  0  0  0  0  0
   17.8650   -8.6920  -53.4470 C   0  0  0  0  0  0  0  0  0  0  0  0
   18.1260  -11.4320  -52.8870 C   0  0  0  0  0  0  0  0  0  0  0  0
   16.7870   -9.3950  -52.8940 C   0  0  0  0  0  0  0  0  0  0  0  0
   15.5070   -8.7150  -52.6150 C   0  0  0  0  0  0  0  0  0  0  0  0
   14.4850   -9.4550  -52.0490 C   0  0  0  0  0  0  0  0  0  0  0  0
   14.6950  -10.8850  -51.7630 C   0  0  0  0  0  0  0  0  0  0  0  0
   15.9990  -12.8730  -51.7500 O   0  0  0  0  0  0  0  0  0  0  0  0
   10.7620   -8.8650  -50.7290 O   0  0  0  0  0  0  0  0  0  0  0  0
   13.9960   -3.1970  -53.1070 P   0  0  0  0  0  0  0  0  0  0  0  0
   13.3110   -4.4160  -52.3280 O   0  0  0  0  0  0  0  0  0  0  0  0
   14.6960   -3.7810  -54.3610 O   0  0  0  0  0  0  0  0  0  0  0  0
   12.9140   -2.1400  -53.4810 O   0  0  0  0  0  0  0  0  0  0  0  0
   15.0830   -2.5160  -52.2310 O   0  0  0  0  0  0  0  0  0  0  0  0
   13.9287   -6.9149  -52.0703 H   0  0  0  0  0  0  0  0  0  0  0  0
   12.4242   -7.3674  -52.9572 H   0  0  0  0  0  0  0  0  0  0  0  0
    9.2912   -7.5575  -47.4933 H   0  0  0  0  0  0  0  0  0  0  0  0
    8.2316   -7.1338  -48.8804 H   0  0  0  0  0  0  0  0  0  0  0  0
    9.1327   -8.6877  -48.8804 H   0  0  0  0  0  0  0  0  0  0  0  0
   20.0055   -8.7959  -51.4768 H   0  0  0  0  0  0  0  0  0  0  0  0
   14.5114   -5.3449  -50.9078 H   0  0  0  0  0  0  0  0  0  0  0  0
   13.7053   -3.8403  -50.3666 H   0  0  0  0  0  0  0  0  0  0  0  0
   24.0812   -6.3116  -52.9206 H   0  0  0  0  0  0  0  0  0  0  0  0
   20.4395  -13.3923  -53.3176 H   0  0  0  0  0  0  0  0  0  0  0  0
   19.5266  -12.8690  -54.7735 H   0  0  0  0  0  0  0  0  0  0  0  0
   21.3222  -12.8197  -54.7735 H   0  0  0  0  0  0  0  0  0  0  0  0
   11.8619   -4.0317  -49.0293 H   0  0  0  0  0  0  0  0  0  0  0  0
   12.4980   -9.4581  -51.3277 H   0  0  0  0  0  0  0  0  0  0  0  0
   20.7678   -9.1478  -54.9383 H   0  0  0  0  0  0  0  0  0  0  0  0
   19.7849   -7.6237  -54.6859 H   0  0  0  0  0  0  0  0  0  0  0  0
   21.6582   -8.0184  -49.7679 H   0  0  0  0  0  0  0  0  0  0  0  0
   23.7337   -6.8027  -50.5104 H   0  0  0  0  0  0  0  0  0  0  0  0
   22.5297   -7.2184  -54.6337 H   0  0  0  0  0  0  0  0  0  0  0  0
   17.7599   -7.6236  -53.6869 H   0  0  0  0  0  0  0  0  0  0  0  0
   18.2423  -12.5033  -52.6660 H   0  0  0  0  0  0  0  0  0  0  0  0
   15.3698   -7.6493  -52.8507 H   0  0  0  0  0  0  0  0  0  0  0  0
   16.0287  -13.1685  -50.8056 H   0  0  0  0  0  0  0  0  0  0  0  0
   10.5980   -9.5768  -50.0608 H   0  0  0  0  0  0  0  0  0  0  0  0
   12.5246   -1.7596  -52.6541 H   0  0  0  0  0  0  0  0  0  0  0  0
   14.8679   -2.6508  -51.2741 H   0  0  0  0  0  0  0  0  0  0  0  0
 35 33  2  0
 17 24  1  0
 17 18  1  0
  8 22  1  0
 24 23  1  0
 24 25  2  0
 22 23  1  0
 21 18  1  0
 21  7  2  0
 36 33  1  0
 23 26  2  0
 25 27  1  0
 18  5  2  0
 33 34  1  0
 33 37  1  0
 27 28  1  0
 27  9  2  0
 26  9  1  0
 28 29  2  0
  7 20  1  0
  9  1  1  0
 34  6  1  0
  1 30  1  0
  1 31  1  0
 29 30  1  0
 29 16  1  0
  2 16  1  0
  2 10  1  0
  5 19  1  0
 30 15  2  0
 20 19  2  0
  6  4  1  0
 10  4  2  0
 10 11  1  0
 32 11  1  0
  4 14  1  0
 11 12  2  0
 14 13  2  0
 12 13  1  0
 12  3  1  0
  2 38  1  0
  2 39  1  0
  3 40  1  0
  3 41  1  0
  3 42  1  0
  5 43  1  0
  6 44  1  0
  6 45  1  0
  7 46  1  0
  8 47  1  0
  8 48  1  0
  8 49  1  0
 14 50  1  0
 16 51  1  0
 17 52  1  0
 17 53  1  0
 19 54  1  0
 20 55  1  0
 21 56  1  0
 25 57  1  0
 26 58  1  0
 28 59  1  0
 31 60  1  0
 32 61  1  0
 36 62  1  0
 37 63  1  0
A    1
N44
A    2
C33
A    3
C7
A    4
C6
A    5
C13
A    6
C8
A    7
C16
A    8
C19
A    9
C26
A   10
C1
A   11
C2
A   12
C3
A   13
N4
A   14
C5
A   15
O9
A   16
N10
A   17
C11
A   18
C12
A   19
C14
A   20
C15
A   21
C17
A   22
O18
A   23
C22
A   24
C23
A   25
C24
A   26
C25
A   27
C27
A   28
C28
A   29
C29
A   30
C30
A   31
O31
A   32
O45
A   33
P46
A   34
O47
A   35
O48
A   36
O49
A   37
O50
M  END
