4GEE_0WT_A_301
     RDKit          3D

 44 48  0  0  0  0  0  0  0  0999 V2000
  -10.3710   -2.0490  -11.4090 Cl  0  0  0  0  0  0  0  0  0  0  0  0
  -11.4910   -3.1800  -12.3090 C   0  0  0  0  0  0  0  0  0  0  0  0
  -12.9090   -3.2900  -11.9550 C   0  0  0  0  0  0  0  0  0  0  0  0
  -13.6410   -2.5060  -10.8950 C   0  0  0  0  0  0  0  0  0  0  0  0
  -14.6970   -3.3410  -10.2080 C   0  0  0  0  0  0  0  0  0  0  0  0
  -13.4020   -4.2310  -12.7880 N   0  0  0  0  0  0  0  0  0  0  0  0
  -11.1360   -4.1050  -13.3930 C   0  0  0  0  0  0  0  0  0  0  0  0
   -9.9790   -4.5580  -14.2320 C   0  0  0  0  0  0  0  0  0  0  0  0
   -8.6640   -4.0660  -14.2150 N   0  0  0  0  0  0  0  0  0  0  0  0
   -7.6130   -4.7130  -14.9910 C   0  0  0  0  0  0  0  0  0  0  0  0
   -6.6870   -3.5410  -15.3160 C   0  0  0  0  0  0  0  0  0  0  0  0
   -7.4250   -2.3720  -15.9580 C   0  0  0  0  0  0  0  0  0  0  0  0
   -6.4740   -1.5320  -16.6730 N   0  0  0  0  0  0  0  0  0  0  0  0
   -7.1170   -2.3550  -14.4630 C   0  0  0  0  0  0  0  0  0  0  0  0
   -8.2950   -2.8000  -13.5970 C   0  0  0  0  0  0  0  0  0  0  0  0
  -10.2500   -5.5150  -15.1360 N   0  0  0  0  0  0  0  0  0  0  0  0
  -11.4810   -6.0580  -15.3030 C   0  0  0  0  0  0  0  0  0  0  0  0
  -12.5540   -5.6850  -14.5780 N   0  0  0  0  0  0  0  0  0  0  0  0
  -12.4630   -4.7380  -13.6190 C   0  0  0  0  0  0  0  0  0  0  0  0
  -11.6700   -7.0320  -16.2380 O   0  0  0  0  0  0  0  0  0  0  0  0
  -10.6500   -7.5430  -17.0000 C   0  0  0  0  0  0  0  0  0  0  0  0
  -10.4470   -8.9170  -17.0230 C   0  0  0  0  0  0  0  0  0  0  0  0
   -9.4510   -9.4100  -17.7820 N   0  0  0  0  0  0  0  0  0  0  0  0
   -8.6790   -8.5910  -18.5130 C   0  0  0  0  0  0  0  0  0  0  0  0
   -8.8620   -7.2630  -18.5220 N   0  0  0  0  0  0  0  0  0  0  0  0
   -9.8390   -6.7130  -17.7790 C   0  0  0  0  0  0  0  0  0  0  0  0
  -12.9159   -2.1602  -10.1435 H   0  0  0  0  0  0  0  0  0  0  0  0
  -14.1409   -1.6561  -11.3825 H   0  0  0  0  0  0  0  0  0  0  0  0
  -14.5834   -3.2512   -9.1176 H   0  0  0  0  0  0  0  0  0  0  0  0
  -15.6951   -2.9853  -10.5032 H   0  0  0  0  0  0  0  0  0  0  0  0
  -14.5810   -4.3943  -10.5032 H   0  0  0  0  0  0  0  0  0  0  0  0
  -14.3874   -4.5307  -12.7905 H   0  0  0  0  0  0  0  0  0  0  0  0
   -8.0164   -5.1691  -15.9071 H   0  0  0  0  0  0  0  0  0  0  0  0
   -7.1142   -5.5370  -14.4597 H   0  0  0  0  0  0  0  0  0  0  0  0
   -5.7533   -4.0710  -15.5552 H   0  0  0  0  0  0  0  0  0  0  0  0
   -8.3294   -2.2511  -16.5724 H   0  0  0  0  0  0  0  0  0  0  0  0
   -5.8925   -1.0184  -15.9955 H   0  0  0  0  0  0  0  0  0  0  0  0
   -5.8717   -2.1221  -17.2646 H   0  0  0  0  0  0  0  0  0  0  0  0
   -6.6454   -1.6163  -13.7983 H   0  0  0  0  0  0  0  0  0  0  0  0
   -7.9903   -2.9405  -12.5494 H   0  0  0  0  0  0  0  0  0  0  0  0
   -9.1168   -2.0699  -13.5570 H   0  0  0  0  0  0  0  0  0  0  0  0
  -11.0876   -9.5887  -16.4326 H   0  0  0  0  0  0  0  0  0  0  0  0
   -7.8718   -9.0224  -19.1231 H   0  0  0  0  0  0  0  0  0  0  0  0
   -9.9976   -5.6245  -17.7844 H   0  0  0  0  0  0  0  0  0  0  0  0
 25 24  2  0
 25 26  1  0
 24 23  1  0
 23 22  2  0
 26 21  2  0
 22 21  1  0
 21 20  1  0
 13 12  1  0
 20 17  1  0
 12 11  1  0
 12 14  1  0
 11 10  1  0
 11 14  1  0
 17 16  2  0
 17 18  1  0
 16  8  1  0
 10  9  1  0
 18 19  2  0
 14 15  1  0
  8  9  1  0
  8  7  2  0
  9 15  1  0
 19  7  1  0
 19  6  1  0
  7  2  1  0
  6  3  1  0
  2  3  2  0
  2  1  1  0
  3  4  1  0
  4  5  1  0
  4 27  1  0
  4 28  1  0
  5 29  1  0
  5 30  1  0
  5 31  1  0
  6 32  1  0
 10 33  1  0
 10 34  1  0
 11 35  1  0
 12 36  1  0
 13 37  1  0
 13 38  1  0
 14 39  1  0
 15 40  1  0
 15 41  1  0
 22 42  1  0
 24 43  1  0
 26 44  1  0
A    1
CL1
A    2
C4
A    3
C5
A    4
C10
A    5
C11
A    6
N1
A    7
C3
A    8
C6
A    9
N13
A   10
C17
A   11
C16
A   12
C18
A   13
N19
A   14
C15
A   15
C14
A   16
N7
A   17
C8
A   18
N9
A   19
C2
A   20
O20
A   21
C21
A   22
C26
A   23
N25
A   24
C24
A   25
N23
A   26
C22
M  END
