4GEV_UMC_A_701
     RDKit          3D

 35 36  0  0  0  0  0  0  0  0999 V2000
  111.0300   23.6700   31.3070 P   0  0  0  0  0  0  0  0  0  0  0  0
  108.5550   19.9260   26.6330 N   0  0  0  0  0  0  0  0  0  0  0  0
  107.7490   19.8500   25.5760 C   0  0  0  0  0  0  0  0  0  0  0  0
  107.9220   20.5740   24.5900 O   0  0  0  0  0  0  0  0  0  0  0  0
  106.7460   18.9570   25.6110 N   0  0  0  0  0  0  0  0  0  0  0  0
  106.5890   18.0260   26.5670 C   0  0  0  0  0  0  0  0  0  0  0  0
  105.6680   17.2020   26.4850 O   0  0  0  0  0  0  0  0  0  0  0  0
  107.5650   17.9510   27.7140 C   0  0  0  0  0  0  0  0  0  0  0  0
  108.3340   19.2480   27.9110 C   0  0  0  0  0  0  0  0  0  0  0  0
  109.7530   20.7760   26.5820 C   0  0  0  0  0  0  0  0  0  0  0  0
  110.3080   22.8610   32.3780 O   0  0  0  0  0  0  0  0  0  0  0  0
  109.5300   22.2630   26.8540 C   0  0  0  0  0  0  0  0  0  0  0  0
  112.2460   24.4150   31.8100 O   0  0  0  0  0  0  0  0  0  0  0  0
  110.9190   22.6930   27.3020 C   0  0  0  0  0  0  0  0  0  0  0  0
  111.8000   22.8560   26.1830 O   0  0  0  0  0  0  0  0  0  0  0  0
  110.1240   24.5170   30.4620 O   0  0  0  0  0  0  0  0  0  0  0  0
  111.3690   21.5090   28.1350 C   0  0  0  0  0  0  0  0  0  0  0  0
  110.7140   20.3740   27.5620 O   0  0  0  0  0  0  0  0  0  0  0  0
  110.9060   21.6450   29.5760 C   0  0  0  0  0  0  0  0  0  0  0  0
  111.7010   22.5900   30.3000 O   0  0  0  0  0  0  0  0  0  0  0  0
  106.0495   18.9881   24.8529 H   0  0  0  0  0  0  0  0  0  0  0  0
  107.0088   17.7273   28.6363 H   0  0  0  0  0  0  0  0  0  0  0  0
  108.2951   17.1622   27.4801 H   0  0  0  0  0  0  0  0  0  0  0  0
  109.3071   19.0228   28.3717 H   0  0  0  0  0  0  0  0  0  0  0  0
  107.7437   19.9101   28.5615 H   0  0  0  0  0  0  0  0  0  0  0  0
  110.0877   20.6443   25.5425 H   0  0  0  0  0  0  0  0  0  0  0  0
  110.5884   23.1752   33.2740 H   0  0  0  0  0  0  0  0  0  0  0  0
  109.2166   22.7966   25.9446 H   0  0  0  0  0  0  0  0  0  0  0  0
  108.7347   22.4741   27.5840 H   0  0  0  0  0  0  0  0  0  0  0  0
  110.9205   23.6555   27.8345 H   0  0  0  0  0  0  0  0  0  0  0  0
  112.7193   23.0261   26.5088 H   0  0  0  0  0  0  0  0  0  0  0  0
  109.5409   25.0621   31.0476 H   0  0  0  0  0  0  0  0  0  0  0  0
  112.4661   21.4293   28.1369 H   0  0  0  0  0  0  0  0  0  0  0  0
  109.8583   21.9802   29.5838 H   0  0  0  0  0  0  0  0  0  0  0  0
  111.0095   20.6645   30.0637 H   0  0  0  0  0  0  0  0  0  0  0  0
 20  1  1  0
 13  1  2  0
  1 11  1  0
  1 16  1  0
  3  2  1  0
 10  2  1  0
  2  9  1  0
  4  3  2  0
  3  5  1  0
  5  6  1  0
  7  6  2  0
  6  8  1  0
  8  9  1  0
 10 12  1  0
 10 18  1  0
 12 14  1  0
 15 14  1  0
 14 17  1  0
 18 17  1  0
 17 19  1  0
 19 20  1  0
  5 21  1  0
  8 22  1  0
  8 23  1  0
  9 24  1  0
  9 25  1  0
 10 26  1  0
 11 27  1  0
 12 28  1  0
 12 29  1  0
 14 30  1  0
 15 31  1  0
 16 32  1  0
 17 33  1  0
 19 34  1  0
 19 35  1  0
A    1
P
A    2
N1
A    3
C2
A    4
O2
A    5
N3
A    6
C4
A    7
O4
A    8
C5
A    9
C6
A   10
C1'
A   11
O1P
A   12
C2'
A   13
O2P
A   14
C3'
A   15
O3'
A   16
O3P
A   17
C4'
A   18
O4'
A   19
C5'
A   20
O5'
M  END
