4GFD_0YB_A_301
     RDKit          3D

 72 75  0  0  0  0  0  0  0  0999 V2000
   16.0910   -1.8730    3.3050 C   0  0  0  0  0  0  0  0  0  0  0  0
   14.3000    1.6030    7.9400 C   0  0  0  0  0  0  0  0  0  0  0  0
   13.3380    2.2990    7.2500 C   0  0  0  0  0  0  0  0  0  0  0  0
   15.9730   -0.9470    4.3290 C   0  0  0  0  0  0  0  0  0  0  0  0
   17.0500   -1.7000    2.3290 C   0  0  0  0  0  0  0  0  0  0  0  0
   14.6380    2.1310    5.2580 C   0  0  0  0  0  0  0  0  0  0  0  0
   17.8000    0.3210    3.3910 C   0  0  0  0  0  0  0  0  0  0  0  0
   15.4420    1.1840    7.2990 C   0  0  0  0  0  0  0  0  0  0  0  0
   13.4780    2.5470    5.8950 C   0  0  0  0  0  0  0  0  0  0  0  0
   16.8230    0.1470    4.3470 C   0  0  0  0  0  0  0  0  0  0  0  0
   15.6180    1.4550    5.9490 C   0  0  0  0  0  0  0  0  0  0  0  0
   17.8980   -0.6110    2.3770 C   0  0  0  0  0  0  0  0  0  0  0  0
   11.6840   -1.1170    1.8630 C   0  0  0  0  0  0  0  0  0  0  0  0
   12.1180   -1.8400    0.8150 C   0  0  0  0  0  0  0  0  0  0  0  0
   12.0020   -1.2640   -0.5160 C   0  0  0  0  0  0  0  0  0  0  0  0
   11.0470    0.7650    0.4950 C   0  0  0  0  0  0  0  0  0  0  0  0
   16.4420    0.4890    8.1250 C   0  0  0  0  0  0  0  0  0  0  0  0
    9.3770    0.9130    5.0670 C   0  0  0  0  0  0  0  0  0  0  0  0
    9.7630    0.0800    3.8430 C   0  0  0  0  0  0  0  0  0  0  0  0
   10.5990    1.5900    5.6720 C   0  0  0  0  0  0  0  0  0  0  0  0
   11.7570    1.5710    3.5840 C   0  0  0  0  0  0  0  0  0  0  0  0
   10.6440    0.8730    2.8640 C   0  0  0  0  0  0  0  0  0  0  0  0
   12.7310   -3.1930    0.9480 C   0  0  0  0  0  0  0  0  0  0  0  0
   13.6540    6.5070    3.4120 C   0  0  0  0  0  0  0  0  0  0  0  0
   12.3300    6.4060    5.4450 C   0  0  0  0  0  0  0  0  0  0  0  0
   14.6600    5.6020    5.4140 C   0  0  0  0  0  0  0  0  0  0  0  0
   12.8870    4.2880    4.1510 C   0  0  0  0  0  0  0  0  0  0  0  0
   12.3620    3.2730    5.1850 C   0  0  0  0  0  0  0  0  0  0  0  0
   13.3700    5.6630    4.6360 C   0  0  0  0  0  0  0  0  0  0  0  0
   11.4390   -0.0010   -0.5720 N   0  0  0  0  0  0  0  0  0  0  0  0
   11.1220    0.1320    1.7160 N   0  0  0  0  0  0  0  0  0  0  0  0
   11.2630    2.4320    4.6600 N   0  0  0  0  0  0  0  0  0  0  0  0
   12.3530   -1.8310   -1.5490 O   0  0  0  0  0  0  0  0  0  0  0  0
   10.6530    1.9180    0.3480 O   0  0  0  0  0  0  0  0  0  0  0  0
   16.9000    0.9390    9.1620 O   0  0  0  0  0  0  0  0  0  0  0  0
   16.7120   -0.7330    7.6180 O   0  0  0  0  0  0  0  0  0  0  0  0
   16.8000    1.1040    5.3410 O   0  0  0  0  0  0  0  0  0  0  0  0
   19.2090   -0.3020    1.0560 Br  0  0  0  0  0  0  0  0  0  0  0  0
   15.4209   -2.7447    3.2706 H   0  0  0  0  0  0  0  0  0  0  0  0
   14.1567    1.3803    9.0076 H   0  0  0  0  0  0  0  0  0  0  0  0
   12.4458    2.6637    7.7800 H   0  0  0  0  0  0  0  0  0  0  0  0
   15.2157   -1.0785    5.1159 H   0  0  0  0  0  0  0  0  0  0  0  0
   17.1396   -2.4303    1.5113 H   0  0  0  0  0  0  0  0  0  0  0  0
   14.7764    2.3439    4.1877 H   0  0  0  0  0  0  0  0  0  0  0  0
   18.4847    1.1808    3.4346 H   0  0  0  0  0  0  0  0  0  0  0  0
   11.7814   -1.5386    2.8743 H   0  0  0  0  0  0  0  0  0  0  0  0
    8.6519    1.6828    4.7644 H   0  0  0  0  0  0  0  0  0  0  0  0
    8.9363    0.2448    5.8215 H   0  0  0  0  0  0  0  0  0  0  0  0
   10.3161   -0.8097    4.1785 H   0  0  0  0  0  0  0  0  0  0  0  0
    8.8387   -0.2022    3.3177 H   0  0  0  0  0  0  0  0  0  0  0  0
   10.2854    2.2178    6.5191 H   0  0  0  0  0  0  0  0  0  0  0  0
   11.3035    0.8196    6.0187 H   0  0  0  0  0  0  0  0  0  0  0  0
   12.4294    0.8148    4.0154 H   0  0  0  0  0  0  0  0  0  0  0  0
   12.2843    2.2064    2.8572 H   0  0  0  0  0  0  0  0  0  0  0  0
    9.9724    1.6275    2.4284 H   0  0  0  0  0  0  0  0  0  0  0  0
   12.8435   -3.4414    2.0137 H   0  0  0  0  0  0  0  0  0  0  0  0
   12.0827   -3.9384    0.4642 H   0  0  0  0  0  0  0  0  0  0  0  0
   13.7189   -3.1971    0.4642 H   0  0  0  0  0  0  0  0  0  0  0  0
   13.9903    7.5063    3.7256 H   0  0  0  0  0  0  0  0  0  0  0  0
   14.4403    6.0276    2.8104 H   0  0  0  0  0  0  0  0  0  0  0  0
   12.7378    6.6005    2.8104 H   0  0  0  0  0  0  0  0  0  0  0  0
   12.5292    6.2637    6.5174 H   0  0  0  0  0  0  0  0  0  0  0  0
   12.3743    7.4781    5.2029 H   0  0  0  0  0  0  0  0  0  0  0  0
   11.3301    6.0165    5.2029 H   0  0  0  0  0  0  0  0  0  0  0  0
   14.4392    5.6124    6.4916 H   0  0  0  0  0  0  0  0  0  0  0  0
   15.1986    4.6774    5.1590 H   0  0  0  0  0  0  0  0  0  0  0  0
   15.2834    6.4717    5.1590 H   0  0  0  0  0  0  0  0  0  0  0  0
   13.7338    3.8128    3.6341 H   0  0  0  0  0  0  0  0  0  0  0  0
   12.0041    4.5200    3.5373 H   0  0  0  0  0  0  0  0  0  0  0  0
   11.8720    3.8399    5.9903 H   0  0  0  0  0  0  0  0  0  0  0  0
   11.3007    0.4038   -1.5090 H   0  0  0  0  0  0  0  0  0  0  0  0
   16.8804   -1.4953    8.2268 H   0  0  0  0  0  0  0  0  0  0  0  0
 19 18  1  0
 19 22  1  0
 18 20  1  0
 30 16  1  0
 30 15  1  0
 34 16  2  0
 16 31  1  0
 22 31  1  0
 22 21  1  0
 31 13  1  0
 33 15  2  0
 15 14  1  0
 13 14  2  0
 14 23  1  0
 20 32  1  0
 32 21  1  0
 32 28  1  0
 28 27  1  0
 28  9  1  0
 27 29  1  0
  3  9  1  0
  3  2  2  0
  9  6  2  0
 25 29  1  0
  1  4  2  0
  1  5  1  0
  2  8  1  0
  6 11  1  0
  4 10  1  0
 29 24  1  0
 29 26  1  0
  5 12  2  0
  8 11  2  0
  8 17  1  0
 11 37  1  0
 10 37  1  0
 10  7  2  0
 17 35  2  0
 17 36  1  0
 12  7  1  0
 12 38  1  0
  1 39  1  0
  2 40  1  0
  3 41  1  0
  4 42  1  0
  5 43  1  0
  6 44  1  0
  7 45  1  0
 13 46  1  0
 18 47  1  0
 18 48  1  0
 19 49  1  0
 19 50  1  0
 20 51  1  0
 20 52  1  0
 21 53  1  0
 21 54  1  0
 22 55  1  0
 23 56  1  0
 23 57  1  0
 23 58  1  0
 24 59  1  0
 24 60  1  0
 24 61  1  0
 25 62  1  0
 25 63  1  0
 25 64  1  0
 26 65  1  0
 26 66  1  0
 26 67  1  0
 27 68  1  0
 27 69  1  0
 28 70  1  0
 30 71  1  0
 36 72  1  0
A    1
C31
A    2
C24
A    3
C23
A    4
C30
A    5
C32
A    6
C27
A    7
C34
A    8
C25
A    9
C22
A   10
C29
A   11
C26
A   12
C33
A   13
C3
A   14
C2
A   15
C8
A   16
C5
A   17
C36
A   18
C12
A   19
C11
A   20
C13
A   21
C15
A   22
C10
A   23
C1
A   24
C19
A   25
C20
A   26
C21
A   27
C17
A   28
C16
A   29
C18
A   30
N7
A   31
N4
A   32
N14
A   33
O9
A   34
O6
A   35
O37
A   36
O38
A   37
O28
A   38
BR3
M  END
