4GH0_EIS_A_301
     RDKit          3D

118118  0  0  0  0  0  0  0  0999 V2000
   24.7960   -0.1860   16.0870 C   0  0  0  0  0  0  0  0  0  0  0  0
   24.2380   -1.2740   16.7780 O   0  0  0  0  0  0  0  0  0  0  0  0
   24.6620    1.0590   16.9200 C   0  0  0  0  0  0  0  0  0  0  0  0
   23.2890    1.3450   17.1120 O   0  0  0  0  0  0  0  0  0  0  0  0
   25.2970    2.1880   16.1600 C   0  0  0  0  0  0  0  0  0  0  0  0
   26.7500    1.9040   15.8020 C   0  0  0  0  0  0  0  0  0  0  0  0
   27.5240    1.8510   16.9940 O   0  0  0  0  0  0  0  0  0  0  0  0
   26.8400    0.5700   15.1030 C   0  0  0  0  0  0  0  0  0  0  0  0
   28.3040    0.2210   14.8760 C   0  0  0  0  0  0  0  0  0  0  0  0
   28.2980   -0.9100   14.0290 O   0  0  0  0  0  0  0  0  0  0  0  0
   26.1910   -0.4450   15.8900 O   0  0  0  0  0  0  0  0  0  0  0  0
   25.1120   -4.1430   18.1010 O   0  0  0  0  0  0  0  0  0  0  0  0
   23.7420   -3.6980   18.1090 C   0  0  0  0  0  0  0  0  0  0  0  0
   23.3380   -3.5170   16.6320 C   0  0  0  0  0  0  0  0  0  0  0  0
   21.9670   -3.0100   16.4850 N   0  0  0  0  0  0  0  0  0  0  0  0
   24.2570   -2.4850   15.9830 C   0  0  0  0  0  0  0  0  0  0  0  0
   22.7840   -4.6680   18.7560 C   0  0  0  0  0  0  0  0  0  0  0  0
   23.1390   -5.8900   19.1400 C   0  0  0  0  0  0  0  0  0  0  0  0
   22.1360   -6.8530   19.7580 C   0  0  0  0  0  0  0  0  0  0  0  0
   20.7470   -6.6950   19.1320 C   0  0  0  0  0  0  0  0  0  0  0  0
   19.9880   -8.0020   18.9170 C   0  0  0  0  0  0  0  0  0  0  0  0
   19.7870   -8.7860   20.2060 C   0  0  0  0  0  0  0  0  0  0  0  0
   18.4540   -8.4710   20.8770 C   0  0  0  0  0  0  0  0  0  0  0  0
   18.6650   -8.3810   22.3810 C   0  0  0  0  0  0  0  0  0  0  0  0
   17.3610   -8.4690   23.1610 C   0  0  0  0  0  0  0  0  0  0  0  0
   17.5910   -8.6920   24.6540 C   0  0  0  0  0  0  0  0  0  0  0  0
   18.8770   -8.0690   25.1960 C   0  0  0  0  0  0  0  0  0  0  0  0
   18.8160   -8.0450   26.6790 C   0  0  0  0  0  0  0  0  0  0  0  0
   18.4830   -8.3040   27.8850 C   0  0  0  0  0  0  0  0  0  0  0  0
   18.0510   -9.0660   29.0960 C   0  0  0  0  0  0  0  0  0  0  0  0
   19.2320   -9.8370   29.6610 C   0  0  0  0  0  0  0  0  0  0  0  0
   12.6790  -10.0300   20.6920 C   0  0  0  0  0  0  0  0  0  0  0  0
   12.0910   -8.7510   20.1340 C   0  0  0  0  0  0  0  0  0  0  0  0
   13.1370   -7.9940   19.3250 C   0  0  0  0  0  0  0  0  0  0  0  0
   12.7900   -6.5210   19.0970 C   0  0  0  0  0  0  0  0  0  0  0  0
   13.8800   -5.9140   18.2130 C   0  0  0  0  0  0  0  0  0  0  0  0
   13.6750   -4.4330   17.9680 C   0  0  0  0  0  0  0  0  0  0  0  0
   14.6620   -3.8620   16.9440 C   0  0  0  0  0  0  0  0  0  0  0  0
   16.1100   -4.1430   17.3200 C   0  0  0  0  0  0  0  0  0  0  0  0
   17.1240   -3.3560   16.4790 C   0  0  0  0  0  0  0  0  0  0  0  0
   18.5220   -3.9430   16.6710 C   0  0  0  0  0  0  0  0  0  0  0  0
   19.5800   -3.1720   15.8780 C   0  0  0  0  0  0  0  0  0  0  0  0
   20.9510   -3.7880   16.0510 C   0  0  0  0  0  0  0  0  0  0  0  0
   21.1300   -4.9610   15.7550 O   0  0  0  0  0  0  0  0  0  0  0  0
   24.9770    4.7940   16.2900 S   0  0  0  0  0  0  0  0  0  0  0  0
   25.1690    3.3530   16.9600 O   0  0  0  0  0  0  0  0  0  0  0  0
   25.4410    4.8460   14.9100 O   0  0  0  0  0  0  0  0  0  0  0  0
   23.5390    5.0930   16.3290 O   0  0  0  0  0  0  0  0  0  0  0  0
   25.7290    5.7210   17.1640 O   0  0  0  0  0  0  0  0  0  0  0  0
   24.2798   -0.0508   15.1251 H   0  0  0  0  0  0  0  0  0  0  0  0
   25.1468    0.9257   17.8984 H   0  0  0  0  0  0  0  0  0  0  0  0
   23.0929    1.3859   18.0815 H   0  0  0  0  0  0  0  0  0  0  0  0
   24.7872    2.3235   15.1947 H   0  0  0  0  0  0  0  0  0  0  0  0
   27.1286    2.6988   15.1425 H   0  0  0  0  0  0  0  0  0  0  0  0
   26.9231    1.8921   17.7797 H   0  0  0  0  0  0  0  0  0  0  0  0
   26.3301    0.6270   14.1300 H   0  0  0  0  0  0  0  0  0  0  0  0
   28.8282    1.0592   14.3937 H   0  0  0  0  0  0  0  0  0  0  0  0
   28.8256    0.0177   15.8229 H   0  0  0  0  0  0  0  0  0  0  0  0
   28.2936   -1.7336   14.5783 H   0  0  0  0  0  0  0  0  0  0  0  0
   25.4308   -4.2465   19.0325 H   0  0  0  0  0  0  0  0  0  0  0  0
   23.6819   -2.7733   18.7017 H   0  0  0  0  0  0  0  0  0  0  0  0
   23.4138   -4.5068   16.1581 H   0  0  0  0  0  0  0  0  0  0  0  0
   21.7733   -2.0263   16.7212 H   0  0  0  0  0  0  0  0  0  0  0  0
   25.2824   -2.8806   15.9372 H   0  0  0  0  0  0  0  0  0  0  0  0
   23.9098   -2.2663   14.9624 H   0  0  0  0  0  0  0  0  0  0  0  0
   21.7437   -4.3490   18.9173 H   0  0  0  0  0  0  0  0  0  0  0  0
   24.1823   -6.2127   19.0079 H   0  0  0  0  0  0  0  0  0  0  0  0
   22.4850   -7.8839   19.5981 H   0  0  0  0  0  0  0  0  0  0  0  0
   22.0582   -6.6281   20.8319 H   0  0  0  0  0  0  0  0  0  0  0  0
   20.8661   -6.2040   18.1549 H   0  0  0  0  0  0  0  0  0  0  0  0
   20.1518   -6.1056   19.8450 H   0  0  0  0  0  0  0  0  0  0  0  0
   20.5556   -8.6260   18.2109 H   0  0  0  0  0  0  0  0  0  0  0  0
   18.9921   -7.7463   18.5261 H   0  0  0  0  0  0  0  0  0  0  0  0
   20.6008   -8.5354   20.9023 H   0  0  0  0  0  0  0  0  0  0  0  0
   19.7893   -9.8561   19.9512 H   0  0  0  0  0  0  0  0  0  0  0  0
   18.0694   -7.5116   20.5006 H   0  0  0  0  0  0  0  0  0  0  0  0
   17.7274   -9.2653   20.6508 H   0  0  0  0  0  0  0  0  0  0  0  0
   19.3198   -9.2072   22.6950 H   0  0  0  0  0  0  0  0  0  0  0  0
   19.1166   -7.4013   22.5962 H   0  0  0  0  0  0  0  0  0  0  0  0
   16.7685   -9.3072   22.7656 H   0  0  0  0  0  0  0  0  0  0  0  0
   16.8331   -7.5114   23.0418 H   0  0  0  0  0  0  0  0  0  0  0  0
   16.7414   -8.2578   25.2014 H   0  0  0  0  0  0  0  0  0  0  0  0
   17.6844   -9.7786   24.7978 H   0  0  0  0  0  0  0  0  0  0  0  0
   19.7414   -8.6674   24.8723 H   0  0  0  0  0  0  0  0  0  0  0  0
   18.9831   -7.0436   24.8122 H   0  0  0  0  0  0  0  0  0  0  0  0
   19.8878   -8.2436   26.8264 H   0  0  0  0  0  0  0  0  0  0  0  0
   17.8478   -7.5327   26.5778 H   0  0  0  0  0  0  0  0  0  0  0  0
   19.3959   -7.8909   28.3389 H   0  0  0  0  0  0  0  0  0  0  0  0
   17.4475   -8.3925   27.5246 H   0  0  0  0  0  0  0  0  0  0  0  0
   17.6749   -8.3644   29.8551 H   0  0  0  0  0  0  0  0  0  0  0  0
   17.2534   -9.7709   28.8188 H   0  0  0  0  0  0  0  0  0  0  0  0
   19.1941   -9.8122   30.7601 H   0  0  0  0  0  0  0  0  0  0  0  0
   19.1875  -10.8805   29.3160 H   0  0  0  0  0  0  0  0  0  0  0  0
   20.1695   -9.3764   29.3160 H   0  0  0  0  0  0  0  0  0  0  0  0
   12.6617   -9.9925   21.7912 H   0  0  0  0  0  0  0  0  0  0  0  0
   12.0852  -10.8885   20.3451 H   0  0  0  0  0  0  0  0  0  0  0  0
   13.7172  -10.1382   20.3451 H   0  0  0  0  0  0  0  0  0  0  0  0
   11.2386   -8.9974   19.4839 H   0  0  0  0  0  0  0  0  0  0  0  0
   11.7586   -8.1171   20.9692 H   0  0  0  0  0  0  0  0  0  0  0  0
   14.0958   -8.0460   19.8617 H   0  0  0  0  0  0  0  0  0  0  0  0
   13.1844   -8.4704   18.3346 H   0  0  0  0  0  0  0  0  0  0  0  0
   11.8140   -6.4399   18.5961 H   0  0  0  0  0  0  0  0  0  0  0  0
   12.7332   -5.9872   20.0571 H   0  0  0  0  0  0  0  0  0  0  0  0
   14.8532   -6.0581   18.7050 H   0  0  0  0  0  0  0  0  0  0  0  0
   13.8387   -6.4215   17.2379 H   0  0  0  0  0  0  0  0  0  0  0  0
   12.6517   -4.2759   17.5963 H   0  0  0  0  0  0  0  0  0  0  0  0
   13.8454   -3.9113   18.9213 H   0  0  0  0  0  0  0  0  0  0  0  0
   14.4565   -4.3157   15.9632 H   0  0  0  0  0  0  0  0  0  0  0  0
   14.5264   -2.7707   16.9175 H   0  0  0  0  0  0  0  0  0  0  0  0
   16.2532   -3.8765   18.3776 H   0  0  0  0  0  0  0  0  0  0  0  0
   16.2922   -5.2112   17.1309 H   0  0  0  0  0  0  0  0  0  0  0  0
   16.8444   -3.4185   15.4170 H   0  0  0  0  0  0  0  0  0  0  0  0
   17.1243   -2.3041   16.8008 H   0  0  0  0  0  0  0  0  0  0  0  0
   18.7802   -3.9038   17.7395 H   0  0  0  0  0  0  0  0  0  0  0  0
   18.5093   -4.9796   16.3032 H   0  0  0  0  0  0  0  0  0  0  0  0
   19.3114   -3.1884   14.8114 H   0  0  0  0  0  0  0  0  0  0  0  0
   19.6126   -2.1389   16.2543 H   0  0  0  0  0  0  0  0  0  0  0  0
   26.4248    4.9562   14.8966 H   0  0  0  0  0  0  0  0  0  0  0  0
 32 33  1  0
 33 34  1  0
 34 35  1  0
 36 35  1  0
 36 37  1  0
 37 38  1  0
 38 39  1  0
 39 40  1  0
 40 41  1  0
 41 42  1  0
 44 43  2  0
 42 43  1  0
 43 15  1  0
 23 22  1  0
 23 24  1  0
 15 14  1  0
 26 25  1  0
 26 27  1  0
 25 24  1  0
 21 22  1  0
 21 20  1  0
 17 18  2  0
 17 13  1  0
 28 27  1  0
 28 29  1  0
 19 18  1  0
 19 20  1  0
 14 13  1  0
 14 16  1  0
 30 29  1  0
 30 31  1  0
 13 12  1  0
 16  2  1  0
  2  1  1  0
  1 11  1  0
  1  3  1  0
  4  3  1  0
 11  8  1  0
  3  5  1  0
  8  9  1  0
  8  6  1  0
 10  9  1  0
  5  6  1  0
  5 46  1  0
  6  7  1  0
 46 45  1  0
 49 45  2  0
 45 48  2  0
 45 47  1  0
  1 50  1  0
  3 51  1  0
  4 52  1  0
  5 53  1  0
  6 54  1  0
  7 55  1  0
  8 56  1  0
  9 57  1  0
  9 58  1  0
 10 59  1  0
 12 60  1  0
 13 61  1  0
 14 62  1  0
 15 63  1  0
 16 64  1  0
 16 65  1  0
 17 66  1  0
 18 67  1  0
 19 68  1  0
 19 69  1  0
 20 70  1  0
 20 71  1  0
 21 72  1  0
 21 73  1  0
 22 74  1  0
 22 75  1  0
 23 76  1  0
 23 77  1  0
 24 78  1  0
 24 79  1  0
 25 80  1  0
 25 81  1  0
 26 82  1  0
 26 83  1  0
 27 84  1  0
 27 85  1  0
 28 86  1  0
 28 87  1  0
 29 88  1  0
 29 89  1  0
 30 90  1  0
 30 91  1  0
 31 92  1  0
 31 93  1  0
 31 94  1  0
 32 95  1  0
 32 96  1  0
 32 97  1  0
 33 98  1  0
 33 99  1  0
 34100  1  0
 34101  1  0
 35102  1  0
 35103  1  0
 36104  1  0
 36105  1  0
 37106  1  0
 37107  1  0
 38108  1  0
 38109  1  0
 39110  1  0
 39111  1  0
 40112  1  0
 40113  1  0
 41114  1  0
 41115  1  0
 42116  1  0
 42117  1  0
 47118  1  0
A    1
C43
A    2
O
A    3
C44
A    4
O3
A    5
C45
A    6
C46
A    7
O5
A    8
C47
A    9
C48
A   10
O7
A   11
O6
A   12
O1
A   13
C2
A   14
C1
A   15
N
A   16
C
A   17
C3
A   18
C4
A   19
C5
A   20
C6
A   21
C7
A   22
C8
A   23
C9
A   24
C10
A   25
C11
A   26
C12
A   27
C13
A   28
C14
A   29
C15
A   30
C16
A   31
C17
A   32
C29
A   33
C28
A   34
C27
A   35
C26
A   36
C25
A   37
C24
A   38
C23
A   39
C22
A   40
C21
A   41
C20
A   42
C19
A   43
C18
A   44
O2
A   45
S
A   46
O4
A   47
O10
A   48
O9
A   49
O8
M  END
