4GH3_0EV_A_402
     RDKit          3D

 39 41  0  0  0  0  0  0  0  0999 V2000
   13.0320   14.8320   17.9520 C   0  0  0  0  0  0  0  0  0  0  0  0
   14.3910   15.0970   17.4590 N   0  0  0  0  0  0  0  0  0  0  0  0
   15.3420   15.2510   18.5640 C   0  0  0  0  0  0  0  0  0  0  0  0
   15.1970   16.6290   19.2280 C   0  0  0  0  0  0  0  0  0  0  0  0
   16.5050   17.1260   19.8010 C   0  0  0  0  0  0  0  0  0  0  0  0
   16.7810   17.0860   21.1910 C   0  0  0  0  0  0  0  0  0  0  0  0
   15.7540   16.6760   22.0630 N   0  0  0  0  0  0  0  0  0  0  0  0
   16.0000   16.6420   23.3290 C   0  0  0  0  0  0  0  0  0  0  0  0
   17.1900   17.0050   23.8830 N   0  0  0  0  0  0  0  0  0  0  0  0
   18.2670   17.4140   23.1330 C   0  0  0  0  0  0  0  0  0  0  0  0
   18.0650   17.4160   21.6720 C   0  0  0  0  0  0  0  0  0  0  0  0
   19.1070   17.8170   20.8250 C   0  0  0  0  0  0  0  0  0  0  0  0
   18.8420   17.8710   19.4490 C   0  0  0  0  0  0  0  0  0  0  0  0
   17.5810   17.5270   18.9850 C   0  0  0  0  0  0  0  0  0  0  0  0
   17.6770   17.6940   17.6250 N   0  0  0  0  0  0  0  0  0  0  0  0
   18.9310   18.1420   17.3230 C   0  0  0  0  0  0  0  0  0  0  0  0
   19.6430   18.2920   18.4180 N   0  0  0  0  0  0  0  0  0  0  0  0
   19.3070   18.3660   16.0530 N   0  0  0  0  0  0  0  0  0  0  0  0
   18.4630   18.2230   14.8790 C   0  0  0  0  0  0  0  0  0  0  0  0
   19.3350   17.6850   23.6690 O   0  0  0  0  0  0  0  0  0  0  0  0
   11.9610   15.3870   16.9970 C   0  0  0  0  0  0  0  0  0  0  0  0
   12.8939   13.7451   18.0493 H   0  0  0  0  0  0  0  0  0  0  0  0
   12.9166   15.3331   18.9244 H   0  0  0  0  0  0  0  0  0  0  0  0
   14.6914   14.3103   16.8659 H   0  0  0  0  0  0  0  0  0  0  0  0
   15.1519   14.4688   19.3137 H   0  0  0  0  0  0  0  0  0  0  0  0
   16.3624   15.1611   18.1630 H   0  0  0  0  0  0  0  0  0  0  0  0
   14.8430   17.3494   18.4759 H   0  0  0  0  0  0  0  0  0  0  0  0
   14.4801   16.5314   20.0566 H   0  0  0  0  0  0  0  0  0  0  0  0
   15.2001   16.2990   24.0017 H   0  0  0  0  0  0  0  0  0  0  0  0
   17.2872   16.9717   24.9079 H   0  0  0  0  0  0  0  0  0  0  0  0
   20.0973   18.0800   21.2252 H   0  0  0  0  0  0  0  0  0  0  0  0
   16.9259   17.5112   16.9443 H   0  0  0  0  0  0  0  0  0  0  0  0
   20.2801   18.6658   15.8977 H   0  0  0  0  0  0  0  0  0  0  0  0
   17.4238   18.0469   15.1938 H   0  0  0  0  0  0  0  0  0  0  0  0
   18.5131   19.1424   14.2772 H   0  0  0  0  0  0  0  0  0  0  0  0
   18.8131   17.3714   14.2772 H   0  0  0  0  0  0  0  0  0  0  0  0
   11.1342   15.8155   17.5825 H   0  0  0  0  0  0  0  0  0  0  0  0
   12.4048   16.1686   16.3628 H   0  0  0  0  0  0  0  0  0  0  0  0
   11.5783   14.5737   16.3628 H   0  0  0  0  0  0  0  0  0  0  0  0
 19 18  1  0
 18 16  1  0
 16 15  1  0
 16 17  2  0
  2  1  1  0
  2  3  1  0
 15 14  1  0
 17 13  1  0
  3  4  1  0
 14 13  1  0
 14  5  2  0
  4  5  1  0
 13 12  2  0
  5  6  1  0
 12 11  1  0
  6 11  2  0
  6  7  1  0
 11 10  1  0
  7  8  2  0
 10 20  2  0
 10  9  1  0
  8  9  1  0
  1 21  1  0
  1 22  1  0
  1 23  1  0
  2 24  1  0
  3 25  1  0
  3 26  1  0
  4 27  1  0
  4 28  1  0
  8 29  1  0
  9 30  1  0
 12 31  1  0
 15 32  1  0
 18 33  1  0
 19 34  1  0
 19 35  1  0
 19 36  1  0
 21 37  1  0
 21 38  1  0
 21 39  1  0
A    1
C1
A    2
N1
A    3
C2
A    4
C3
A    5
C4
A    6
C5
A    7
N2
A    8
C6
A    9
N3
A   10
C7
A   11
C8
A   12
C9
A   13
C10
A   14
C11
A   15
N4
A   16
C12
A   17
N5
A   18
N6
A   19
C13
A   20
O1
A   21
C14
M  END
