4GHI_0X3_A_401
     RDKit          3D

 27 29  0  0  0  0  0  0  0  0999 V2000
   17.4040  -39.8240    9.7410 Cl  0  0  0  0  0  0  0  0  0  0  0  0
   16.5340  -41.2350   10.2830 C   0  0  0  0  0  0  0  0  0  0  0  0
   15.2040  -41.1240   10.5300 C   0  0  0  0  0  0  0  0  0  0  0  0
   17.2640  -42.3700   10.5060 C   0  0  0  0  0  0  0  0  0  0  0  0
   16.5440  -43.4480   10.9870 C   0  0  0  0  0  0  0  0  0  0  0  0
   17.1930  -44.5980   11.2210 F   0  0  0  0  0  0  0  0  0  0  0  0
   15.1760  -43.3980   11.2070 C   0  0  0  0  0  0  0  0  0  0  0  0
   14.5010  -42.2300   10.9730 C   0  0  0  0  0  0  0  0  0  0  0  0
   13.0980  -42.1440   11.2400 N   0  0  0  0  0  0  0  0  0  0  0  0
   12.1490  -41.7410   10.3470 C   0  0  0  0  0  0  0  0  0  0  0  0
   10.8520  -41.4450   10.6590 C   0  0  0  0  0  0  0  0  0  0  0  0
   10.3680  -41.5170   11.9910 N   0  0  0  0  0  0  0  0  0  0  0  0
   11.1770  -41.7980   12.8750 O   0  0  0  0  0  0  0  0  0  0  0  0
    9.2050  -41.3160   12.2390 O   0  0  0  0  0  0  0  0  0  0  0  0
   12.5530  -41.6560    8.9520 C   0  0  0  0  0  0  0  0  0  0  0  0
   11.7220  -41.2830    7.9550 C   0  0  0  0  0  0  0  0  0  0  0  0
   10.3640  -40.9870    8.2580 C   0  0  0  0  0  0  0  0  0  0  0  0
    9.9310  -41.0650    9.6400 C   0  0  0  0  0  0  0  0  0  0  0  0
    9.3120  -40.6010    7.5230 N   0  0  0  0  0  0  0  0  0  0  0  0
    8.3070  -40.4510    8.3820 O   0  0  0  0  0  0  0  0  0  0  0  0
    8.6260  -40.7070    9.6460 N   0  0  0  0  0  0  0  0  0  0  0  0
   14.6898  -40.1633   10.3793 H   0  0  0  0  0  0  0  0  0  0  0  0
   18.3463  -42.4215   10.3163 H   0  0  0  0  0  0  0  0  0  0  0  0
   14.6383  -44.2879   11.5660 H   0  0  0  0  0  0  0  0  0  0  0  0
   12.7787  -42.4078   12.1831 H   0  0  0  0  0  0  0  0  0  0  0  0
   13.5922  -41.9094    8.6953 H   0  0  0  0  0  0  0  0  0  0  0  0
   12.0907  -41.2090    6.9213 H   0  0  0  0  0  0  0  0  0  0  0  0
 19 17  2  0
 19 20  1  0
 16 17  1  0
 16 15  2  0
 17 18  1  0
 20 21  1  0
 15 10  1  0
 18 21  2  0
 18 11  1  0
  1  2  1  0
  2  4  2  0
  2  3  1  0
 10 11  2  0
 10  9  1  0
  4  5  1  0
  3  8  2  0
 11 12  1  0
  8  7  1  0
  8  9  1  0
  5  7  2  0
  5  6  1  0
 12 14  2  0
 12 13  1  0
  3 22  1  0
  4 23  1  0
  7 24  1  0
  9 25  1  0
 15 26  1  0
 16 27  1  0
M  CHG  2  12   1  13  -1
A    1
CL1
A    2
CAH
A    3
CAG
A    4
CAI
A    5
CAQ
A    6
FAR
A    7
CAP
A    8
CAO
A    9
NAN
A   10
CAM
A   11
CAL
A   12
NAT
A   13
OAS
A   14
OAU
A   15
CAF
A   16
CAE
A   17
CAD
A   18
CAK
A   19
NAC
A   20
OAB
A   21
NAJ
M  END
