3S1G_ITE_A_501
     RDKit          3D

 25 27  0  0  0  0  0  0  0  0999 V2000
   15.9290   16.7050   22.1700 N   0  0  0  0  0  0  0  0  0  0  0  0
   19.0480   18.0790   16.0260 N   0  0  0  0  0  0  0  0  0  0  0  0
   18.7570   17.7600   19.3990 C   0  0  0  0  0  0  0  0  0  0  0  0
   18.6570   17.8790   17.2550 C   0  0  0  0  0  0  0  0  0  0  0  0
   18.1380   17.8710   14.9000 C   0  0  0  0  0  0  0  0  0  0  0  0
   17.4930   17.3930   18.9710 C   0  0  0  0  0  0  0  0  0  0  0  0
   16.5030   17.0230   19.8840 C   0  0  0  0  0  0  0  0  0  0  0  0
   16.1760   16.7050   23.4930 C   0  0  0  0  0  0  0  0  0  0  0  0
   16.8410   17.0520   21.2440 C   0  0  0  0  0  0  0  0  0  0  0  0
   18.1280   17.4320   21.6660 C   0  0  0  0  0  0  0  0  0  0  0  0
   19.1250   17.8040   20.7470 C   0  0  0  0  0  0  0  0  0  0  0  0
   19.4200   18.0390   18.2630 N   0  0  0  0  0  0  0  0  0  0  0  0
   17.4700   17.4840   17.6130 N   0  0  0  0  0  0  0  0  0  0  0  0
   18.3510   17.4180   23.0470 C   0  0  0  0  0  0  0  0  0  0  0  0
   19.5830   17.7870   23.5410 O   0  0  0  0  0  0  0  0  0  0  0  0
   17.3960   17.0670   23.9420 N   0  0  0  0  0  0  0  0  0  0  0  0
   20.0137   18.3886   15.8460 H   0  0  0  0  0  0  0  0  0  0  0  0
   17.1315   17.6410   15.2796 H   0  0  0  0  0  0  0  0  0  0  0  0
   18.0989   18.7834   14.2868 H   0  0  0  0  0  0  0  0  0  0  0  0
   18.4992   17.0322   14.2868 H   0  0  0  0  0  0  0  0  0  0  0  0
   15.4994   16.7213   19.5496 H   0  0  0  0  0  0  0  0  0  0  0  0
   15.3889   16.4120   24.2034 H   0  0  0  0  0  0  0  0  0  0  0  0
   20.1314   18.1104   21.0685 H   0  0  0  0  0  0  0  0  0  0  0  0
   20.4041   18.3392   18.2145 H   0  0  0  0  0  0  0  0  0  0  0  0
   17.5986   17.0764   24.9518 H   0  0  0  0  0  0  0  0  0  0  0  0
  1  8  2  0
  2  4  1  0
  3 11  1  0
  4 13  2  0
  4 12  1  0
  5  2  1  0
  6  3  2  0
  6  7  1  0
  7  9  2  0
  8 16  1  0
  9  1  1  0
  9 10  1  0
 10 14  1  0
 11 10  2  0
 12  3  1  0
 13  6  1  0
 14 15  2  0
 14 16  1  0
  2 17  1  0
  5 18  1  0
  5 19  1  0
  5 20  1  0
  7 21  1  0
  8 22  1  0
 11 23  1  0
 12 24  1  0
 16 25  1  0
A    1
N1
A    2
N3
A    3
C4
A    4
C5
A    5
C6
A    6
C7
A    7
C8
A    8
C10
A    9
C1
A   10
C2
A   11
C3
A   12
N2
A   13
N4
A   14
C9
A   15
O1
A   16
N5
M  END
