4GI1_16Y_A_302
     RDKit          3D

 51 50  0  0  0  0  0  0  0  0999 V2000
  -38.4410  -16.2620   14.2090 O   0  0  0  0  0  0  0  0  0  0  0  0
  -38.0570  -15.1150   14.6030 C   0  0  0  0  0  0  0  0  0  0  0  0
  -37.3710  -14.9570   15.6500 O   0  0  0  0  0  0  0  0  0  0  0  0
  -38.4690  -13.8390   13.8520 C   0  0  0  0  0  0  0  0  0  0  0  0
  -37.9040  -13.9100   12.4140 C   0  0  0  0  0  0  0  0  0  0  0  0
  -38.0410  -12.6830   11.4750 C   0  0  0  0  0  0  0  0  0  0  0  0
  -36.7920  -11.7490   11.4200 C   0  0  0  0  0  0  0  0  0  0  0  0
  -36.8710  -10.5550   10.4380 C   0  0  0  0  0  0  0  0  0  0  0  0
  -36.3280   -9.2330   11.0230 C   0  0  0  0  0  0  0  0  0  0  0  0
  -37.3080   -8.0350   10.9750 C   0  0  0  0  0  0  0  0  0  0  0  0
  -36.6910   -6.8210   10.2370 C   0  0  0  0  0  0  0  0  0  0  0  0
  -37.5290   -5.5380   10.3160 C   0  0  0  0  0  0  0  0  0  0  0  0
  -37.3900   -4.8440   11.6590 C   0  0  0  0  0  0  0  0  0  0  0  0
  -38.7420   -4.7240   12.3370 C   0  0  0  0  0  0  0  0  0  0  0  0
  -38.8830   -5.4630   13.6780 C   0  0  0  0  0  0  0  0  0  0  0  0
  -39.5710   -4.5500   14.6790 C   0  0  0  0  0  0  0  0  0  0  0  0
  -40.4330   -5.2750   15.7140 C   0  0  0  0  0  0  0  0  0  0  0  0
  -41.3270   -4.2690   16.4510 C   0  0  0  0  0  0  0  0  0  0  0  0
  -42.1220   -4.9250   17.4930 O   0  0  0  0  0  0  0  0  0  0  0  0
  -37.7952  -15.0547   16.5392 H   0  0  0  0  0  0  0  0  0  0  0  0
  -38.0609  -12.9572   14.3676 H   0  0  0  0  0  0  0  0  0  0  0  0
  -39.5656  -13.7576   13.8218 H   0  0  0  0  0  0  0  0  0  0  0  0
  -38.4061  -14.7518   11.9148 H   0  0  0  0  0  0  0  0  0  0  0  0
  -36.8183  -13.9955   12.5684 H   0  0  0  0  0  0  0  0  0  0  0  0
  -38.8985  -12.0855   11.8179 H   0  0  0  0  0  0  0  0  0  0  0  0
  -38.1666  -13.0868   10.4595 H   0  0  0  0  0  0  0  0  0  0  0  0
  -35.9265  -12.3635   11.1315 H   0  0  0  0  0  0  0  0  0  0  0  0
  -36.7170  -11.3004   12.4216 H   0  0  0  0  0  0  0  0  0  0  0  0
  -37.9242  -10.4044   10.1585 H   0  0  0  0  0  0  0  0  0  0  0  0
  -36.2393  -10.8074    9.5736 H   0  0  0  0  0  0  0  0  0  0  0  0
  -36.0610   -9.4115   12.0751 H   0  0  0  0  0  0  0  0  0  0  0  0
  -35.4721   -8.9507   10.3923 H   0  0  0  0  0  0  0  0  0  0  0  0
  -37.5583   -7.7374   12.0040 H   0  0  0  0  0  0  0  0  0  0  0  0
  -38.2081   -8.3493   10.4263 H   0  0  0  0  0  0  0  0  0  0  0  0
  -36.5700   -7.0881    9.1768 H   0  0  0  0  0  0  0  0  0  0  0  0
  -35.7354   -6.6029   10.7362 H   0  0  0  0  0  0  0  0  0  0  0  0
  -37.1973   -4.8490    9.5252 H   0  0  0  0  0  0  0  0  0  0  0  0
  -38.5854   -5.8163   10.1874 H   0  0  0  0  0  0  0  0  0  0  0  0
  -36.7139   -5.4285   12.3003 H   0  0  0  0  0  0  0  0  0  0  0  0
  -36.9818   -3.8353   11.4979 H   0  0  0  0  0  0  0  0  0  0  0  0
  -38.9361   -3.6564   12.5173 H   0  0  0  0  0  0  0  0  0  0  0  0
  -39.4627   -5.1993   11.6553 H   0  0  0  0  0  0  0  0  0  0  0  0
  -39.4843   -6.3730   13.5356 H   0  0  0  0  0  0  0  0  0  0  0  0
  -37.8875   -5.7417   14.0539 H   0  0  0  0  0  0  0  0  0  0  0  0
  -38.7960   -3.9824   15.2149 H   0  0  0  0  0  0  0  0  0  0  0  0
  -40.2520   -3.9091   14.0998 H   0  0  0  0  0  0  0  0  0  0  0  0
  -41.0641   -6.0187   15.2055 H   0  0  0  0  0  0  0  0  0  0  0  0
  -39.7778   -5.7761   16.4418 H   0  0  0  0  0  0  0  0  0  0  0  0
  -40.6928   -3.4995   16.9155 H   0  0  0  0  0  0  0  0  0  0  0  0
  -42.0159   -3.8180   15.7216 H   0  0  0  0  0  0  0  0  0  0  0  0
  -41.7892   -4.6504   18.3840 H   0  0  0  0  0  0  0  0  0  0  0  0
 11 12  1  0
 11 10  1  0
 12 13  1  0
  8  9  1  0
  8  7  1  0
 10  9  1  0
  7  6  1  0
  6  5  1  0
 13 14  1  0
 14 15  1  0
  5  4  1  0
 15 16  1  0
  4  2  1  0
  1  2  2  0
  2  3  1  0
 16 17  1  0
 17 18  1  0
 18 19  1  0
  3 20  1  0
  4 21  1  0
  4 22  1  0
  5 23  1  0
  5 24  1  0
  6 25  1  0
  6 26  1  0
  7 27  1  0
  7 28  1  0
  8 29  1  0
  8 30  1  0
  9 31  1  0
  9 32  1  0
 10 33  1  0
 10 34  1  0
 11 35  1  0
 11 36  1  0
 12 37  1  0
 12 38  1  0
 13 39  1  0
 13 40  1  0
 14 41  1  0
 14 42  1  0
 15 43  1  0
 15 44  1  0
 16 45  1  0
 16 46  1  0
 17 47  1  0
 17 48  1  0
 18 49  1  0
 18 50  1  0
 19 51  1  0
A    1
O19
A    2
C17
A    3
O18
A    4
C16
A    5
C15
A    6
C14
A    7
C13
A    8
C12
A    9
C11
A   10
C10
A   11
C1
A   12
C2
A   13
C3
A   14
C4
A   15
C5
A   16
C6
A   17
C7
A   18
C8
A   19
O9
M  END
