4GI4_0EX_A_501
     RDKit          3D

 48 51  0  0  0  0  0  0  0  0999 V2000
   19.1820   18.0310   18.1120 N   0  0  0  0  0  0  0  0  0  0  0  0
   18.3490   17.6790   19.1450 C   0  0  0  0  0  0  0  0  0  0  0  0
   18.5910   17.6510   20.5290 C   0  0  0  0  0  0  0  0  0  0  0  0
   17.5330   17.2670   21.3650 C   0  0  0  0  0  0  0  0  0  0  0  0
   16.2510   16.9240   20.8990 C   0  0  0  0  0  0  0  0  0  0  0  0
   16.0260   16.9060   19.5010 C   0  0  0  0  0  0  0  0  0  0  0  0
   14.7250   16.3610   18.9410 C   0  0  0  0  0  0  0  0  0  0  0  0
   14.9260   15.0220   18.2090 C   0  0  0  0  0  0  0  0  0  0  0  0
   13.9570   14.9180   17.1130 N   0  0  0  0  0  0  0  0  0  0  0  0
   12.5830   14.8570   17.6250 C   0  0  0  0  0  0  0  0  0  0  0  0
   11.6560   15.7350   16.8120 C   0  0  0  0  0  0  0  0  0  0  0  0
   11.4070   17.0580   17.1910 C   0  0  0  0  0  0  0  0  0  0  0  0
   10.5880   17.8700   16.4010 C   0  0  0  0  0  0  0  0  0  0  0  0
   10.0180   17.3660   15.2320 C   0  0  0  0  0  0  0  0  0  0  0  0
   10.2440   16.0450   14.8450 C   0  0  0  0  0  0  0  0  0  0  0  0
   11.0780   15.2420   15.6290 C   0  0  0  0  0  0  0  0  0  0  0  0
   17.1290   17.2140   18.6710 C   0  0  0  0  0  0  0  0  0  0  0  0
   17.2020   17.4720   17.3150 N   0  0  0  0  0  0  0  0  0  0  0  0
   18.4840   17.8370   17.0100 C   0  0  0  0  0  0  0  0  0  0  0  0
   18.9010   18.0410   15.7500 N   0  0  0  0  0  0  0  0  0  0  0  0
   18.1370   17.9670   14.5290 C   0  0  0  0  0  0  0  0  0  0  0  0
   15.2560   16.5030   21.8020 N   0  0  0  0  0  0  0  0  0  0  0  0
   15.4660   16.5710   23.0750 C   0  0  0  0  0  0  0  0  0  0  0  0
   14.4870   16.3150   23.9760 N   0  0  0  0  0  0  0  0  0  0  0  0
   16.6360   17.0430   23.5920 N   0  0  0  0  0  0  0  0  0  0  0  0
   17.7260   17.3450   22.8200 C   0  0  0  0  0  0  0  0  0  0  0  0
   18.7820   17.7230   23.3080 O   0  0  0  0  0  0  0  0  0  0  0  0
   20.1503   18.3749   18.1829 H   0  0  0  0  0  0  0  0  0  0  0  0
   19.5745   17.9205   20.9414 H   0  0  0  0  0  0  0  0  0  0  0  0
   14.3090   17.0932   18.2333 H   0  0  0  0  0  0  0  0  0  0  0  0
   14.0398   16.1870   19.7838 H   0  0  0  0  0  0  0  0  0  0  0  0
   14.7738   14.1915   18.9140 H   0  0  0  0  0  0  0  0  0  0  0  0
   15.9474   14.9737   17.8034 H   0  0  0  0  0  0  0  0  0  0  0  0
   14.1522   14.0638   16.5716 H   0  0  0  0  0  0  0  0  0  0  0  0
   12.5744   15.1979   18.6708 H   0  0  0  0  0  0  0  0  0  0  0  0
   12.2304   13.8176   17.5527 H   0  0  0  0  0  0  0  0  0  0  0  0
   11.8559   17.4599   18.1113 H   0  0  0  0  0  0  0  0  0  0  0  0
   10.3925   18.9097   16.7022 H   0  0  0  0  0  0  0  0  0  0  0  0
    9.3849   18.0158   14.6099 H   0  0  0  0  0  0  0  0  0  0  0  0
    9.7731   15.6411   13.9366 H   0  0  0  0  0  0  0  0  0  0  0  0
   11.2852   14.2082   15.3153 H   0  0  0  0  0  0  0  0  0  0  0  0
   19.8965   18.2818   15.6413 H   0  0  0  0  0  0  0  0  0  0  0  0
   17.0688   17.8635   14.7705 H   0  0  0  0  0  0  0  0  0  0  0  0
   18.2931   18.8845   13.9426 H   0  0  0  0  0  0  0  0  0  0  0  0
   18.4663   17.0965   13.9426 H   0  0  0  0  0  0  0  0  0  0  0  0
   14.6888   16.3678   24.9847 H   0  0  0  0  0  0  0  0  0  0  0  0
   13.5410   16.0676   23.6523 H   0  0  0  0  0  0  0  0  0  0  0  0
   16.7032   17.1788   24.6108 H   0  0  0  0  0  0  0  0  0  0  0  0
 21 20  1  0
 15 14  2  0
 15 16  1  0
 14 13  1  0
 16 11  2  0
 20 19  1  0
 13 12  2  0
 11 12  1  0
 11 10  1  0
 19 18  2  0
 19  1  1  0
  9 10  1  0
  9  8  1  0
 18 17  1  0
  1  2  1  0
  8  7  1  0
 17  2  2  0
 17  6  1  0
  7  6  1  0
  2  3  1  0
  6  5  2  0
  3  4  2  0
  5  4  1  0
  5 22  1  0
  4 26  1  0
 22 23  2  0
 26 27  2  0
 26 25  1  0
 23 25  1  0
 23 24  1  0
  1 28  1  0
  3 29  1  0
  7 30  1  0
  7 31  1  0
  8 32  1  0
  8 33  1  0
  9 34  1  0
 10 35  1  0
 10 36  1  0
 12 37  1  0
 13 38  1  0
 14 39  1  0
 15 40  1  0
 16 41  1  0
 20 42  1  0
 21 43  1  0
 21 44  1  0
 21 45  1  0
 24 46  1  0
 24 47  1  0
 25 48  1  0
A    1
N1
A    2
C3
A    3
C2
A    4
C4
A    5
C5
A    6
C6
A    7
C7
A    8
C8
A    9
N2
A   10
C9
A   11
C10
A   12
C11
A   13
C12
A   14
C13
A   15
C14
A   16
C15
A   17
C16
A   18
N3
A   19
C17
A   20
N4
A   21
C1
A   22
N5
A   23
C18
A   24
N6
A   25
N7
A   26
C19
A   27
O1
M  END
