4GI7_0JR_A_1402
     RDKit          3D

 45 45  0  0  0  0  0  0  0  0999 V2000
  -22.8210   46.1610  -52.5630 O   0  0  0  0  0  0  0  0  0  0  0  0
  -22.1300   45.4370  -53.2790 C   0  0  0  0  0  0  0  0  0  0  0  0
  -22.6650   44.0540  -53.7160 C   0  0  0  0  0  0  0  0  0  0  0  0
  -24.0840   44.1610  -53.8750 O   0  0  0  0  0  0  0  0  0  0  0  0
  -22.3080   42.9200  -52.7130 C   0  0  0  0  0  0  0  0  0  0  0  0
  -20.7910   42.9280  -52.5030 C   0  0  0  0  0  0  0  0  0  0  0  0
  -23.0000   43.1250  -51.3690 C   0  0  0  0  0  0  0  0  0  0  0  0
  -22.5950   41.5190  -53.2910 C   0  0  0  0  0  0  0  0  0  0  0  0
  -24.0030   41.3600  -53.3790 O   0  0  0  0  0  0  0  0  0  0  0  0
  -20.9320   45.8010  -53.8010 N   0  0  0  0  0  0  0  0  0  0  0  0
  -20.2370   47.0730  -53.4840 C   0  0  0  0  0  0  0  0  0  0  0  0
  -20.3270   48.0860  -54.6160 C   0  0  0  0  0  0  0  0  0  0  0  0
  -21.7940   48.3330  -54.9930 C   0  0  0  0  0  0  0  0  0  0  0  0
  -22.3010   47.8420  -56.0020 O   0  0  0  0  0  0  0  0  0  0  0  0
  -22.4670   49.0800  -54.1050 N   0  0  0  0  0  0  0  0  0  0  0  0
  -23.8890   49.4560  -54.2890 C   0  0  0  0  0  0  0  0  0  0  0  0
  -24.1100   50.7770  -53.8670 C   0  0  0  0  0  0  0  0  0  0  0  0
  -23.0600   51.7050  -53.6960 C   0  0  0  0  0  0  0  0  0  0  0  0
  -23.3050   53.0240  -53.2690 N   0  0  0  0  0  0  0  0  0  0  0  0
  -24.6240   53.3980  -53.0210 C   0  0  0  0  0  0  0  0  0  0  0  0
  -25.6710   52.4820  -53.1760 C   0  0  0  0  0  0  0  0  0  0  0  0
  -25.4170   51.1780  -53.6060 C   0  0  0  0  0  0  0  0  0  0  0  0
  -22.1825   43.7749  -54.6643 H   0  0  0  0  0  0  0  0  0  0  0  0
  -24.5144   44.1935  -52.9840 H   0  0  0  0  0  0  0  0  0  0  0  0
  -20.5700   42.9292  -51.4254 H   0  0  0  0  0  0  0  0  0  0  0  0
  -20.3520   42.0322  -52.9664 H   0  0  0  0  0  0  0  0  0  0  0  0
  -20.3614   43.8284  -52.9664 H   0  0  0  0  0  0  0  0  0  0  0  0
  -22.2903   42.9147  -50.5553 H   0  0  0  0  0  0  0  0  0  0  0  0
  -23.3492   44.1652  -51.2913 H   0  0  0  0  0  0  0  0  0  0  0  0
  -23.8595   42.4429  -51.2913 H   0  0  0  0  0  0  0  0  0  0  0  0
  -22.1731   40.7486  -52.6289 H   0  0  0  0  0  0  0  0  0  0  0  0
  -22.1361   41.4148  -54.2853 H   0  0  0  0  0  0  0  0  0  0  0  0
  -24.3878   41.3165  -52.4679 H   0  0  0  0  0  0  0  0  0  0  0  0
  -20.4759   45.1532  -54.4592 H   0  0  0  0  0  0  0  0  0  0  0  0
  -19.1764   46.8560  -53.2887 H   0  0  0  0  0  0  0  0  0  0  0  0
  -20.7296   47.5118  -52.6038 H   0  0  0  0  0  0  0  0  0  0  0  0
  -19.7869   47.6995  -55.4929 H   0  0  0  0  0  0  0  0  0  0  0  0
  -19.8777   49.0339  -54.2850 H   0  0  0  0  0  0  0  0  0  0  0  0
  -21.9754   49.4057  -53.2605 H   0  0  0  0  0  0  0  0  0  0  0  0
  -24.1513   49.3680  -55.3537 H   0  0  0  0  0  0  0  0  0  0  0  0
  -24.5148   48.7818  -53.6857 H   0  0  0  0  0  0  0  0  0  0  0  0
  -22.0262   51.3902  -53.9012 H   0  0  0  0  0  0  0  0  0  0  0  0
  -24.8454   54.4263  -52.6993 H   0  0  0  0  0  0  0  0  0  0  0  0
  -26.7034   52.7922  -52.9571 H   0  0  0  0  0  0  0  0  0  0  0  0
  -26.2479   50.4694  -53.7381 H   0  0  0  0  0  0  0  0  0  0  0  0
 14 13  2  0
 13 12  1  0
 13 15  1  0
 12 11  1  0
 16 15  1  0
 16 17  1  0
  4  3  1  0
 17 18  2  0
 17 22  1  0
 10 11  1  0
 10  2  1  0
  3  2  1  0
  3  5  1  0
 18 19  1  0
 22 21  2  0
  9  8  1  0
  8  5  1  0
  2  1  2  0
 19 20  2  0
 21 20  1  0
  5  6  1  0
  5  7  1  0
  3 23  1  0
  4 24  1  0
  6 25  1  0
  6 26  1  0
  6 27  1  0
  7 28  1  0
  7 29  1  0
  7 30  1  0
  8 31  1  0
  8 32  1  0
  9 33  1  0
 10 34  1  0
 11 35  1  0
 11 36  1  0
 12 37  1  0
 12 38  1  0
 15 39  1  0
 16 40  1  0
 16 41  1  0
 18 42  1  0
 20 43  1  0
 21 44  1  0
 22 45  1  0
A    1
OAE
A    2
CAU
A    3
CAV
A    4
OAG
A    5
CAW
A    6
CAB
A    7
CAC
A    8
CAP
A    9
OAS
A   10
NAR
A   11
CAN
A   12
CAO
A   13
CAT
A   14
OAD
A   15
NAQ
A   16
CAM
A   17
CAL
A   18
C2
A   19
N1
A   20
C6
A   21
C5
A   22
C4
M  END
