4GII_0X6_A_1201
     RDKit          3D

 37 39  0  0  0  0  0  0  0  0999 V2000
   -9.6390  -10.8520  -17.2860 C   0  0  0  0  0  0  0  0  0  0  0  0
   -4.6160   -4.8750  -16.1640 C   0  0  0  0  0  0  0  0  0  0  0  0
   -8.8460   -9.7030  -17.2500 C   0  0  0  0  0  0  0  0  0  0  0  0
   -8.7340   -8.9640  -16.0700 C   0  0  0  0  0  0  0  0  0  0  0  0
   -7.3100   -4.5030  -15.4890 C   0  0  0  0  0  0  0  0  0  0  0  0
   -7.5980   -6.9540  -15.1290 C   0  0  0  0  0  0  0  0  0  0  0  0
   -6.7500   -5.7940  -15.4840 C   0  0  0  0  0  0  0  0  0  0  0  0
   -6.5250   -3.4120  -15.8140 C   0  0  0  0  0  0  0  0  0  0  0  0
   -5.1770   -3.5900  -16.1520 C   0  0  0  0  0  0  0  0  0  0  0  0
  -10.3280  -11.2080  -16.1990 N   0  0  0  0  0  0  0  0  0  0  0  0
   -9.4870   -9.3840  -14.9550 C   0  0  0  0  0  0  0  0  0  0  0  0
  -10.2740  -10.5230  -15.0600 C   0  0  0  0  0  0  0  0  0  0  0  0
   -7.9330   -7.8120  -16.1230 N   0  0  0  0  0  0  0  0  0  0  0  0
   -7.9630   -7.0850  -13.9710 O   0  0  0  0  0  0  0  0  0  0  0  0
   -5.3980   -5.9700  -15.8370 C   0  0  0  0  0  0  0  0  0  0  0  0
   -4.6910   -7.5500  -15.8820 Cl  0  0  0  0  0  0  0  0  0  0  0  0
   -4.3670   -2.4620  -16.4880 C   0  0  0  0  0  0  0  0  0  0  0  0
   -3.7160   -1.5720  -16.7520 N   0  0  0  0  0  0  0  0  0  0  0  0
   -8.9850   -4.2690  -15.0940 Cl  0  0  0  0  0  0  0  0  0  0  0  0
   -9.7530  -11.6350  -18.4470 N   0  0  0  0  0  0  0  0  0  0  0  0
   -8.7770  -11.8630  -19.3710 C   0  0  0  0  0  0  0  0  0  0  0  0
   -7.6650  -11.3590  -19.2850 O   0  0  0  0  0  0  0  0  0  0  0  0
   -9.1230  -12.7580  -20.5430 C   0  0  0  0  0  0  0  0  0  0  0  0
   -8.4290  -12.5480  -21.8920 C   0  0  0  0  0  0  0  0  0  0  0  0
   -8.0810  -13.7660  -21.0310 C   0  0  0  0  0  0  0  0  0  0  0  0
   -3.5582   -5.0128  -16.4323 H   0  0  0  0  0  0  0  0  0  0  0  0
   -8.3082   -9.3791  -18.1533 H   0  0  0  0  0  0  0  0  0  0  0  0
   -6.9600   -2.4017  -15.8071 H   0  0  0  0  0  0  0  0  0  0  0  0
   -9.4516   -8.8165  -14.0134 H   0  0  0  0  0  0  0  0  0  0  0  0
  -10.8589  -10.8624  -14.1924 H   0  0  0  0  0  0  0  0  0  0  0  0
   -7.5445   -7.5869  -17.0500 H   0  0  0  0  0  0  0  0  0  0  0  0
  -10.6655  -12.0815  -18.6170 H   0  0  0  0  0  0  0  0  0  0  0  0
  -10.1717  -12.8111  -20.2151 H   0  0  0  0  0  0  0  0  0  0  0  0
   -7.6992  -11.7342  -22.0145 H   0  0  0  0  0  0  0  0  0  0  0  0
   -8.7692  -12.3983  -22.9273 H   0  0  0  0  0  0  0  0  0  0  0  0
   -8.3949  -14.7714  -21.3482 H   0  0  0  0  0  0  0  0  0  0  0  0
   -7.1523  -14.1862  -20.6175 H   0  0  0  0  0  0  0  0  0  0  0  0
 24 25  1  0
 24 23  1  0
 25 23  1  0
 23 21  1  0
 21 22  2  0
 21 20  1  0
 20  1  1  0
  1  3  2  0
  1 10  1  0
  3  4  1  0
 18 17  3  0
 17  9  1  0
 10 12  2  0
  2  9  2  0
  2 15  1  0
  9  8  1  0
 13  4  1  0
 13  6  1  0
  4 11  2  0
 16 15  1  0
 15  7  2  0
  8  5  2  0
  5  7  1  0
  5 19  1  0
  7  6  1  0
  6 14  2  0
 12 11  1  0
  2 26  1  0
  3 27  1  0
  8 28  1  0
 11 29  1  0
 12 30  1  0
 13 31  1  0
 20 32  1  0
 23 33  1  0
 24 34  1  0
 24 35  1  0
 25 36  1  0
 25 37  1  0
A    1
C4
A    2
C14
A    3
C5
A    4
C6
A    5
C11
A    6
C8
A    7
C10
A    8
C12
A    9
C13
A   10
N3
A   11
C1
A   12
C2
A   13
N7
A   14
O9
A   15
C15
A   16
CL1
A   17
C17
A   18
N18
A   19
CL2
A   20
N20
A   21
C21
A   22
O22
A   23
C23
A   24
C24
A   25
C25
M  END
