4GIY_0WY_A_402
     RDKit          3D

 67 71  0  0  0  0  0  0  0  0999 V2000
  -11.6500   14.9290  -18.4470 C   0  0  0  0  0  0  0  0  0  0  0  0
  -13.0020   15.0070  -17.8570 N   0  0  0  0  0  0  0  0  0  0  0  0
  -14.0410   15.2590  -18.8730 C   0  0  0  0  0  0  0  0  0  0  0  0
  -13.8760   16.6170  -19.5570 C   0  0  0  0  0  0  0  0  0  0  0  0
  -15.1650   17.1830  -20.1110 C   0  0  0  0  0  0  0  0  0  0  0  0
  -15.5510   17.2060  -21.4760 C   0  0  0  0  0  0  0  0  0  0  0  0
  -14.6250   16.7720  -22.4540 N   0  0  0  0  0  0  0  0  0  0  0  0
  -14.9450   16.7900  -23.7130 C   0  0  0  0  0  0  0  0  0  0  0  0
  -16.1660   17.2120  -24.1540 N   0  0  0  0  0  0  0  0  0  0  0  0
  -17.1580   17.6380  -23.3020 C   0  0  0  0  0  0  0  0  0  0  0  0
  -16.8270   17.6390  -21.8670 C   0  0  0  0  0  0  0  0  0  0  0  0
  -17.8080   18.0720  -20.9570 C   0  0  0  0  0  0  0  0  0  0  0  0
  -17.4340   18.0410  -19.6010 C   0  0  0  0  0  0  0  0  0  0  0  0
  -16.1700   17.6250  -19.2220 C   0  0  0  0  0  0  0  0  0  0  0  0
  -16.1520   17.7530  -17.8510 N   0  0  0  0  0  0  0  0  0  0  0  0
  -17.3800   18.2340  -17.4650 C   0  0  0  0  0  0  0  0  0  0  0  0
  -18.1640   18.4110  -18.5050 N   0  0  0  0  0  0  0  0  0  0  0  0
  -17.7110   18.4710  -16.1840 N   0  0  0  0  0  0  0  0  0  0  0  0
  -16.7990   18.6600  -15.0690 C   0  0  0  0  0  0  0  0  0  0  0  0
  -18.2410   18.0000  -23.7360 O   0  0  0  0  0  0  0  0  0  0  0  0
  -10.5840   14.7320  -17.3420 C   0  0  0  0  0  0  0  0  0  0  0  0
   -9.2100   14.5100  -17.9990 C   0  0  0  0  0  0  0  0  0  0  0  0
   -8.1180   14.3630  -16.9320 C   0  0  0  0  0  0  0  0  0  0  0  0
   -8.0540   15.6190  -16.0490 C   0  0  0  0  0  0  0  0  0  0  0  0
   -9.4040   15.8320  -15.3500 C   0  0  0  0  0  0  0  0  0  0  0  0
  -10.5390   15.9260  -16.3740 C   0  0  0  0  0  0  0  0  0  0  0  0
  -14.0610   16.3970  -24.6670 N   0  0  0  0  0  0  0  0  0  0  0  0
  -17.5250   19.3960  -13.9310 C   0  0  0  0  0  0  0  0  0  0  0  0
  -16.8070   19.2860  -12.6150 C   0  0  0  0  0  0  0  0  0  0  0  0
  -16.4780   18.2090  -10.4650 C   0  0  0  0  0  0  0  0  0  0  0  0
  -17.2050   18.3560  -11.6470 C   0  0  0  0  0  0  0  0  0  0  0  0
  -15.3410   18.9800  -10.2160 C   0  0  0  0  0  0  0  0  0  0  0  0
  -15.6660   20.0620  -12.3570 C   0  0  0  0  0  0  0  0  0  0  0  0
  -14.9390   19.9080  -11.1750 C   0  0  0  0  0  0  0  0  0  0  0  0
  -11.6085   14.0797  -19.1449 H   0  0  0  0  0  0  0  0  0  0  0  0
  -11.4403   15.8689  -18.9786 H   0  0  0  0  0  0  0  0  0  0  0  0
  -13.0194   15.7726  -17.1682 H   0  0  0  0  0  0  0  0  0  0  0  0
  -15.0263   15.2275  -18.3849 H   0  0  0  0  0  0  0  0  0  0  0  0
  -13.9469   14.4823  -19.6462 H   0  0  0  0  0  0  0  0  0  0  0  0
  -13.1627   16.5030  -20.3865 H   0  0  0  0  0  0  0  0  0  0  0  0
  -13.5210   17.3208  -18.7898 H   0  0  0  0  0  0  0  0  0  0  0  0
  -16.3521   17.2113  -25.1670 H   0  0  0  0  0  0  0  0  0  0  0  0
  -18.8017   18.4123  -21.2837 H   0  0  0  0  0  0  0  0  0  0  0  0
  -15.3624   17.5291  -17.2286 H   0  0  0  0  0  0  0  0  0  0  0  0
  -18.7172   18.5242  -15.9704 H   0  0  0  0  0  0  0  0  0  0  0  0
  -16.4521   17.6801  -14.7091 H   0  0  0  0  0  0  0  0  0  0  0  0
  -15.9357   19.2566  -15.3990 H   0  0  0  0  0  0  0  0  0  0  0  0
  -10.8557   13.8477  -16.7468 H   0  0  0  0  0  0  0  0  0  0  0  0
   -9.2447   13.5953  -18.6090 H   0  0  0  0  0  0  0  0  0  0  0  0
   -8.9742   15.3798  -18.6298 H   0  0  0  0  0  0  0  0  0  0  0  0
   -8.3426   13.4893  -16.3025 H   0  0  0  0  0  0  0  0  0  0  0  0
   -7.1475   14.2310  -17.4328 H   0  0  0  0  0  0  0  0  0  0  0  0
   -7.2663   15.4932  -15.2915 H   0  0  0  0  0  0  0  0  0  0  0  0
   -7.8279   16.4935  -16.6769 H   0  0  0  0  0  0  0  0  0  0  0  0
   -9.3654   16.7647  -14.7681 H   0  0  0  0  0  0  0  0  0  0  0  0
   -9.5970   14.9748  -14.6881 H   0  0  0  0  0  0  0  0  0  0  0  0
  -10.4047   16.8466  -16.9609 H   0  0  0  0  0  0  0  0  0  0  0  0
  -11.4852   15.9270  -15.8130 H   0  0  0  0  0  0  0  0  0  0  0  0
  -13.1536   15.9936  -24.3935 H   0  0  0  0  0  0  0  0  0  0  0  0
  -14.2982   16.5025  -25.6637 H   0  0  0  0  0  0  0  0  0  0  0  0
  -17.6089   20.4599  -14.1977 H   0  0  0  0  0  0  0  0  0  0  0  0
  -18.5124   18.9266  -13.8099 H   0  0  0  0  0  0  0  0  0  0  0  0
  -16.8064   17.4729   -9.7165 H   0  0  0  0  0  0  0  0  0  0  0  0
  -18.0975   17.7366  -11.8195 H   0  0  0  0  0  0  0  0  0  0  0  0
  -14.7738   18.8575   -9.2815 H   0  0  0  0  0  0  0  0  0  0  0  0
  -15.3388   20.8048  -13.0994 H   0  0  0  0  0  0  0  0  0  0  0  0
  -14.0438   20.5227  -10.9996 H   0  0  0  0  0  0  0  0  0  0  0  0
 27  8  1  0
  9  8  1  0
  9 10  1  0
 20 10  2  0
  8  7  2  0
 10 11  1  0
  7  6  1  0
 11  6  2  0
 11 12  1  0
  6  5  1  0
 12 13  2  0
  5  4  1  0
  5 14  2  0
 13 14  1  0
 13 17  1  0
  4  3  1  0
 14 15  1  0
  3  2  1  0
 17 16  2  0
  1  2  1  0
  1 21  1  0
 22 21  1  0
 22 23  1  0
 15 16  1  0
 16 18  1  0
 21 26  1  0
 23 24  1  0
 26 25  1  0
 18 19  1  0
 24 25  1  0
 19 28  1  0
 28 29  1  0
 29 33  2  0
 29 31  1  0
 33 34  1  0
 31 30  2  0
 34 32  2  0
 30 32  1  0
  1 35  1  0
  1 36  1  0
  2 37  1  0
  3 38  1  0
  3 39  1  0
  4 40  1  0
  4 41  1  0
  9 42  1  0
 12 43  1  0
 15 44  1  0
 18 45  1  0
 19 46  1  0
 19 47  1  0
 21 48  1  0
 22 49  1  0
 22 50  1  0
 23 51  1  0
 23 52  1  0
 24 53  1  0
 24 54  1  0
 25 55  1  0
 25 56  1  0
 26 57  1  0
 26 58  1  0
 27 59  1  0
 27 60  1  0
 28 61  1  0
 28 62  1  0
 30 63  1  0
 31 64  1  0
 32 65  1  0
 33 66  1  0
 34 67  1  0
A    1
C1
A    2
N1
A    3
C2
A    4
C3
A    5
C4
A    6
C5
A    7
N2
A    8
C6
A    9
N3
A   10
C7
A   11
C8
A   12
C9
A   13
C10
A   14
C11
A   15
N4
A   16
C12
A   17
N5
A   18
N6
A   19
C13
A   20
O1
A   21
C14
A   22
C15
A   23
C16
A   24
C17
A   25
C18
A   26
C19
A   27
N7
A   28
C20
A   29
C21
A   30
C22
A   31
C23
A   32
C24
A   33
C25
A   34
C26
M  END
