4GJ6_0LS_A_1001
     RDKit          3D

 52 55  0  0  0  0  0  0  0  0999 V2000
    3.8900   23.2440   48.7920 N   0  0  0  0  0  0  0  0  0  0  0  0
    5.3020   23.3120   48.3960 C   0  0  0  0  0  0  0  0  0  0  0  0
    5.4910   22.2620   47.2690 C   0  0  0  0  0  0  0  0  0  0  0  0
    4.1210   21.5860   47.1110 C   0  0  0  0  0  0  0  0  0  0  0  0
    3.4380   21.8970   48.4540 C   0  0  0  0  0  0  0  0  0  0  0  0
    3.3420   21.9990   45.8370 C   0  0  0  0  0  0  0  0  0  0  0  0
    1.9410   21.3730   45.8110 C   0  0  0  0  0  0  0  0  0  0  0  0
    6.6050   21.2170   47.5340 C   0  0  0  0  0  0  0  0  0  0  0  0
    7.9430   21.7950   47.7510 N   0  0  0  0  0  0  0  0  0  0  0  0
    8.5850   22.5190   46.7880 C   0  0  0  0  0  0  0  0  0  0  0  0
    8.5820   21.4790   48.9120 C   0  0  0  0  0  0  0  0  0  0  0  0
    8.2110   22.3530   45.4330 C   0  0  0  0  0  0  0  0  0  0  0  0
    8.9260   22.9800   44.4130 C   0  0  0  0  0  0  0  0  0  0  0  0
   10.0250   23.7850   44.7510 C   0  0  0  0  0  0  0  0  0  0  0  0
   10.4280   23.9500   46.0800 C   0  0  0  0  0  0  0  0  0  0  0  0
    9.7290   23.2940   47.0850 C   0  0  0  0  0  0  0  0  0  0  0  0
    9.4390   20.3550   49.0010 C   0  0  0  0  0  0  0  0  0  0  0  0
   10.0580   20.0050   50.2150 C   0  0  0  0  0  0  0  0  0  0  0  0
    9.7930   20.7610   51.3660 C   0  0  0  0  0  0  0  0  0  0  0  0
    8.9190   21.8550   51.3010 C   0  0  0  0  0  0  0  0  0  0  0  0
    8.3310   22.2140   50.0780 C   0  0  0  0  0  0  0  0  0  0  0  0
    0.8140   22.1230   46.2500 C   0  0  0  0  0  0  0  0  0  0  0  0
   -0.4820   21.5610   46.2380 C   0  0  0  0  0  0  0  0  0  0  0  0
   -0.6460   20.2410   45.7820 C   0  0  0  0  0  0  0  0  0  0  0  0
    0.4740   19.4850   45.3480 C   0  0  0  0  0  0  0  0  0  0  0  0
    1.7700   20.0470   45.3540 C   0  0  0  0  0  0  0  0  0  0  0  0
   10.9830   24.5390   43.5050 Cl  0  0  0  0  0  0  0  0  0  0  0  0
    3.7944   23.4095   49.8041 H   0  0  0  0  0  0  0  0  0  0  0  0
    5.9494   23.0720   49.2523 H   0  0  0  0  0  0  0  0  0  0  0  0
    5.5716   24.3210   48.0508 H   0  0  0  0  0  0  0  0  0  0  0  0
    5.8315   22.7668   46.3529 H   0  0  0  0  0  0  0  0  0  0  0  0
    4.1862   20.5033   46.9281 H   0  0  0  0  0  0  0  0  0  0  0  0
    2.3434   21.8693   48.3489 H   0  0  0  0  0  0  0  0  0  0  0  0
    3.6933   21.1629   49.2325 H   0  0  0  0  0  0  0  0  0  0  0  0
    3.9008   21.6632   44.9510 H   0  0  0  0  0  0  0  0  0  0  0  0
    3.2326   23.0936   45.8371 H   0  0  0  0  0  0  0  0  0  0  0  0
    6.3299   20.6406   48.4296 H   0  0  0  0  0  0  0  0  0  0  0  0
    6.6745   20.5960   46.6287 H   0  0  0  0  0  0  0  0  0  0  0  0
    7.3459   21.7218   45.1815 H   0  0  0  0  0  0  0  0  0  0  0  0
    8.6336   22.8459   43.3611 H   0  0  0  0  0  0  0  0  0  0  0  0
   11.2874   24.5910   46.3261 H   0  0  0  0  0  0  0  0  0  0  0  0
   10.0707   23.3788   48.1271 H   0  0  0  0  0  0  0  0  0  0  0  0
    9.6240   19.7446   48.1048 H   0  0  0  0  0  0  0  0  0  0  0  0
   10.7437   19.1461   50.2609 H   0  0  0  0  0  0  0  0  0  0  0  0
   10.2712   20.4954   52.3203 H   0  0  0  0  0  0  0  0  0  0  0  0
    8.6937   22.4328   52.2095 H   0  0  0  0  0  0  0  0  0  0  0  0
    7.6624   23.0864   50.0344 H   0  0  0  0  0  0  0  0  0  0  0  0
    0.9541   23.1551   46.6037 H   0  0  0  0  0  0  0  0  0  0  0  0
   -1.3484   22.1463   46.5797 H   0  0  0  0  0  0  0  0  0  0  0  0
   -1.6496   19.7911   45.7615 H   0  0  0  0  0  0  0  0  0  0  0  0
    0.3313   18.4502   45.0032 H   0  0  0  0  0  0  0  0  0  0  0  0
    2.6339   19.4606   45.0078 H   0  0  0  0  0  0  0  0  0  0  0  0
 27 14  1  0
 13 14  1  0
 13 12  2  0
 14 15  2  0
 25 26  2  0
 25 24  1  0
 26  7  1  0
 12 10  1  0
 24 23  2  0
  7  6  1  0
  7 22  2  0
  6  4  1  0
 15 16  1  0
 23 22  1  0
 10 16  2  0
 10  9  1  0
  4  3  1  0
  4  5  1  0
  3  8  1  0
  3  2  1  0
  8  9  1  0
  9 11  1  0
  2  1  1  0
  5  1  1  0
 11 17  2  0
 11 21  1  0
 17 18  1  0
 21 20  2  0
 18 19  2  0
 20 19  1  0
  1 28  1  0
  2 29  1  0
  2 30  1  0
  3 31  1  0
  4 32  1  0
  5 33  1  0
  5 34  1  0
  6 35  1  0
  6 36  1  0
  8 37  1  0
  8 38  1  0
 12 39  1  0
 13 40  1  0
 15 41  1  0
 16 42  1  0
 17 43  1  0
 18 44  1  0
 19 45  1  0
 20 46  1  0
 21 47  1  0
 22 48  1  0
 23 49  1  0
 24 50  1  0
 25 51  1  0
 26 52  1  0
A    1
N1
A    2
C2
A    3
C3
A    4
C4
A    5
C5
A    6
C6
A    7
C7
A    8
C8
A    9
N9
A   10
C10
A   11
C11
A   12
C12
A   13
C13
A   14
C14
A   15
C15
A   16
C16
A   17
C17
A   18
C18
A   19
C19
A   20
C20
A   21
C21
A   22
C22
A   23
C23
A   24
C24
A   25
C25
A   26
C26
A   27
CL2
M  END
