4GJB_0ME_A_1001
     RDKit          3D

 46 49  0  0  0  0  0  0  0  0999 V2000
    9.1400   22.3740   47.7350 C   0  0  0  0  0  0  0  0  0  0  0  0
    9.4200   20.9800   47.8780 C   0  0  0  0  0  0  0  0  0  0  0  0
   10.5090   20.3730   47.2350 O   0  0  0  0  0  0  0  0  0  0  0  0
    9.9960   23.2340   46.7910 C   0  0  0  0  0  0  0  0  0  0  0  0
    7.2860   22.1470   49.2660 C   0  0  0  0  0  0  0  0  0  0  0  0
    7.5350   20.7700   49.3760 C   0  0  0  0  0  0  0  0  0  0  0  0
    8.6290   20.1850   48.7110 C   0  0  0  0  0  0  0  0  0  0  0  0
    8.0770   22.9650   48.4400 C   0  0  0  0  0  0  0  0  0  0  0  0
   11.4050   22.6210   46.7270 C   0  0  0  0  0  0  0  0  0  0  0  0
   11.5910   21.2200   46.9560 C   0  0  0  0  0  0  0  0  0  0  0  0
   12.8760   20.6570   46.9120 C   0  0  0  0  0  0  0  0  0  0  0  0
   13.9760   21.4940   46.6500 C   0  0  0  0  0  0  0  0  0  0  0  0
   13.7980   22.8750   46.4130 C   0  0  0  0  0  0  0  0  0  0  0  0
   12.5160   23.4470   46.4630 C   0  0  0  0  0  0  0  0  0  0  0  0
    9.3610   23.1950   45.3620 C   0  0  0  0  0  0  0  0  0  0  0  0
    7.9050   23.4540   45.3530 N   0  0  0  0  0  0  0  0  0  0  0  0
    6.9120   22.5350   45.1120 C   0  0  0  0  0  0  0  0  0  0  0  0
    7.1360   21.3570   44.8450 O   0  0  0  0  0  0  0  0  0  0  0  0
    5.4690   23.0120   45.1660 C   0  0  0  0  0  0  0  0  0  0  0  0
    4.4500   21.9050   44.7630 C   0  0  0  0  0  0  0  0  0  0  0  0
    2.9520   22.3190   44.9210 C   0  0  0  0  0  0  0  0  0  0  0  0
    2.6540   22.8670   46.3450 C   0  0  0  0  0  0  0  0  0  0  0  0
    3.6410   23.9100   46.6820 N   0  0  0  0  0  0  0  0  0  0  0  0
    5.0680   23.5070   46.5820 C   0  0  0  0  0  0  0  0  0  0  0  0
   10.0452   24.2722   47.1513 H   0  0  0  0  0  0  0  0  0  0  0  0
    6.4579   22.5938   49.8357 H   0  0  0  0  0  0  0  0  0  0  0  0
    6.8695   20.1427   49.9871 H   0  0  0  0  0  0  0  0  0  0  0  0
    8.8578   19.1175   48.8453 H   0  0  0  0  0  0  0  0  0  0  0  0
    7.8691   24.0412   48.3477 H   0  0  0  0  0  0  0  0  0  0  0  0
   13.0205   19.5795   47.0796 H   0  0  0  0  0  0  0  0  0  0  0  0
   14.9894   21.0667   46.6294 H   0  0  0  0  0  0  0  0  0  0  0  0
   14.6696   23.5071   46.1877 H   0  0  0  0  0  0  0  0  0  0  0  0
   12.3809   24.5262   46.2982 H   0  0  0  0  0  0  0  0  0  0  0  0
    9.5397   22.1996   44.9293 H   0  0  0  0  0  0  0  0  0  0  0  0
    9.8346   23.9971   44.7770 H   0  0  0  0  0  0  0  0  0  0  0  0
    7.6051   24.4201   45.5468 H   0  0  0  0  0  0  0  0  0  0  0  0
    5.4263   23.8390   44.4419 H   0  0  0  0  0  0  0  0  0  0  0  0
    4.6319   21.0233   45.3951 H   0  0  0  0  0  0  0  0  0  0  0  0
    4.6096   21.7056   43.6931 H   0  0  0  0  0  0  0  0  0  0  0  0
    2.7182   23.0999   44.1824 H   0  0  0  0  0  0  0  0  0  0  0  0
    2.3306   21.4257   44.7604 H   0  0  0  0  0  0  0  0  0  0  0  0
    1.6419   23.2973   46.3688 H   0  0  0  0  0  0  0  0  0  0  0  0
    2.7190   22.0479   47.0763 H   0  0  0  0  0  0  0  0  0  0  0  0
    3.4916   24.7045   46.0437 H   0  0  0  0  0  0  0  0  0  0  0  0
    5.2526   22.6951   47.3009 H   0  0  0  0  0  0  0  0  0  0  0  0
    5.6742   24.3989   46.7990 H   0  0  0  0  0  0  0  0  0  0  0  0
 20 21  1  0
 20 19  1  0
 18 17  2  0
 21 22  1  0
 17 19  1  0
 17 16  1  0
 19 24  1  0
 16 15  1  0
 15  4  1  0
 22 23  1  0
 13 14  1  0
 13 12  2  0
 14  9  2  0
 24 23  1  0
 12 11  1  0
  9  4  1  0
  9 10  1  0
  4  1  1  0
 11 10  2  0
 10  3  1  0
  3  2  1  0
  1  2  2  0
  1  8  1  0
  2  7  1  0
  8  5  2  0
  7  6  2  0
  5  6  1  0
  4 25  1  0
  5 26  1  0
  6 27  1  0
  7 28  1  0
  8 29  1  0
 11 30  1  0
 12 31  1  0
 13 32  1  0
 14 33  1  0
 15 34  1  0
 15 35  1  0
 16 36  1  0
 19 37  1  0
 20 38  1  0
 20 39  1  0
 21 40  1  0
 21 41  1  0
 22 42  1  0
 22 43  1  0
 23 44  1  0
 24 45  1  0
 24 46  1  0
A    1
C1
A    2
C2
A    3
O3
A    4
C4
A    5
C5
A    6
C6
A    7
C7
A    8
C8
A    9
C9
A   10
C10
A   11
C11
A   12
C12
A   13
C13
A   14
C14
A   15
C15
A   16
N16
A   17
C17
A   18
O18
A   19
C19
A   20
C20
A   21
C21
A   22
C22
A   23
N23
A   24
C24
M  END
