4GJC_0MJ_A_1001
     RDKit          3D

 64 68  0  0  0  0  0  0  0  0999 V2000
   71.0440   10.9620   47.4870 C   0  0  0  0  0  0  0  0  0  0  0  0
   71.0740    9.9860   50.2050 O   0  0  0  0  0  0  0  0  0  0  0  0
   69.7930   10.3490   48.1470 C   0  0  0  0  0  0  0  0  0  0  0  0
   71.9260   11.6100   48.5760 C   0  0  0  0  0  0  0  0  0  0  0  0
   69.8870    9.8560   49.4720 C   0  0  0  0  0  0  0  0  0  0  0  0
   71.9090   11.0780   49.8940 C   0  0  0  0  0  0  0  0  0  0  0  0
   71.8440    9.8140   46.7820 C   0  0  0  0  0  0  0  0  0  0  0  0
   72.7590   12.7190   48.3100 C   0  0  0  0  0  0  0  0  0  0  0  0
   68.5810   10.2640   47.4280 C   0  0  0  0  0  0  0  0  0  0  0  0
   68.7720    9.2870   50.0940 C   0  0  0  0  0  0  0  0  0  0  0  0
   72.7020   11.6650   50.9170 C   0  0  0  0  0  0  0  0  0  0  0  0
   67.4730    9.6570   48.0220 C   0  0  0  0  0  0  0  0  0  0  0  0
   73.5540   13.2890   49.3460 C   0  0  0  0  0  0  0  0  0  0  0  0
   67.5790    9.1940   49.3570 C   0  0  0  0  0  0  0  0  0  0  0  0
   73.5390   12.7620   50.6540 C   0  0  0  0  0  0  0  0  0  0  0  0
   71.0070    8.9470   45.9190 N   0  0  0  0  0  0  0  0  0  0  0  0
   70.6180    7.6630   46.2050 C   0  0  0  0  0  0  0  0  0  0  0  0
   69.6990    6.9480   45.2180 C   0  0  0  0  0  0  0  0  0  0  0  0
   69.3530    5.4790   45.6260 C   0  0  0  0  0  0  0  0  0  0  0  0
   67.1440    5.6380   44.3160 C   0  0  0  0  0  0  0  0  0  0  0  0
   67.5050    7.0250   43.9390 N   0  0  0  0  0  0  0  0  0  0  0  0
   68.4520    4.8290   44.5390 C   0  0  0  0  0  0  0  0  0  0  0  0
   68.3800    7.7430   44.9100 C   0  0  0  0  0  0  0  0  0  0  0  0
   70.9690    7.0630   47.2170 O   0  0  0  0  0  0  0  0  0  0  0  0
   68.1680    3.4400   44.8630 N   0  0  0  0  0  0  0  0  0  0  0  0
   68.7470    2.1630   44.0140 S   0  0  0  0  0  0  0  0  0  0  0  0
   67.6210    1.3080   43.6360 O   0  0  0  0  0  0  0  0  0  0  0  0
   69.6140    2.6260   42.9410 O   0  0  0  0  0  0  0  0  0  0  0  0
   69.7360    1.3900   45.2780 C   0  0  0  0  0  0  0  0  0  0  0  0
   69.1400    0.9430   46.4760 C   0  0  0  0  0  0  0  0  0  0  0  0
   71.3040    0.1210   47.2610 C   0  0  0  0  0  0  0  0  0  0  0  0
   71.8940    0.5550   46.0570 C   0  0  0  0  0  0  0  0  0  0  0  0
   69.9210    0.3110   47.4670 C   0  0  0  0  0  0  0  0  0  0  0  0
   71.1190    1.1910   45.0730 C   0  0  0  0  0  0  0  0  0  0  0  0
   72.1550   -0.5640   48.3420 C   0  0  0  0  0  0  0  0  0  0  0  0
   70.7531   11.7266   46.7516 H   0  0  0  0  0  0  0  0  0  0  0  0
   72.3083    9.1873   47.5577 H   0  0  0  0  0  0  0  0  0  0  0  0
   72.5879   10.2946   46.1296 H   0  0  0  0  0  0  0  0  0  0  0  0
   72.7943   13.1454   47.2966 H   0  0  0  0  0  0  0  0  0  0  0  0
   68.5103   10.6723   46.4090 H   0  0  0  0  0  0  0  0  0  0  0  0
   68.8267    8.9225   51.1304 H   0  0  0  0  0  0  0  0  0  0  0  0
   72.6594   11.2518   51.9356 H   0  0  0  0  0  0  0  0  0  0  0  0
   66.5330    9.5401   47.4628 H   0  0  0  0  0  0  0  0  0  0  0  0
   74.1916   14.1567   49.1213 H   0  0  0  0  0  0  0  0  0  0  0  0
   66.6951    8.7453   49.8340 H   0  0  0  0  0  0  0  0  0  0  0  0
   74.1653   13.1979   51.4463 H   0  0  0  0  0  0  0  0  0  0  0  0
   70.6887    9.3445   45.0237 H   0  0  0  0  0  0  0  0  0  0  0  0
   70.2949    6.9026   44.2945 H   0  0  0  0  0  0  0  0  0  0  0  0
   68.8194    5.4832   46.5879 H   0  0  0  0  0  0  0  0  0  0  0  0
   70.2833    4.8997   45.7207 H   0  0  0  0  0  0  0  0  0  0  0  0
   66.5518    5.6480   45.2429 H   0  0  0  0  0  0  0  0  0  0  0  0
   66.5468    5.1745   43.5169 H   0  0  0  0  0  0  0  0  0  0  0  0
   67.9952    6.9912   43.0338 H   0  0  0  0  0  0  0  0  0  0  0  0
   69.0090    4.8489   43.5906 H   0  0  0  0  0  0  0  0  0  0  0  0
   68.6471    8.7234   44.4888 H   0  0  0  0  0  0  0  0  0  0  0  0
   67.8224    7.8513   45.8520 H   0  0  0  0  0  0  0  0  0  0  0  0
   67.1422    3.3512   44.8356 H   0  0  0  0  0  0  0  0  0  0  0  0
   68.0617    1.0877   46.6384 H   0  0  0  0  0  0  0  0  0  0  0  0
   72.9688    0.3946   45.8866 H   0  0  0  0  0  0  0  0  0  0  0  0
   69.4516   -0.0336   48.4002 H   0  0  0  0  0  0  0  0  0  0  0  0
   71.5905    1.5348   44.1406 H   0  0  0  0  0  0  0  0  0  0  0  0
   71.7898   -0.2700   49.3371 H   0  0  0  0  0  0  0  0  0  0  0  0
   72.0790   -1.6558   48.2313 H   0  0  0  0  0  0  0  0  0  0  0  0
   73.2053   -0.2565   48.2313 H   0  0  0  0  0  0  0  0  0  0  0  0
 28 26  2  0
 27 26  2  0
 21 20  1  0
 21 23  1  0
 26 25  1  0
 26 29  1  0
 20 22  1  0
 22 25  1  0
 22 19  1  0
 23 18  1  0
 34 29  1  0
 34 32  2  0
 18 19  1  0
 18 17  1  0
 29 30  2  0
 16 17  1  0
 16  7  1  0
 32 31  1  0
 17 24  2  0
 30 33  1  0
  7  1  1  0
 31 33  2  0
 31 35  1  0
  9 12  1  0
  9  3  2  0
  1  3  1  0
  1  4  1  0
 12 14  2  0
  3  5  1  0
  8  4  1  0
  8 13  2  0
  4  6  2  0
 13 15  1  0
 14 10  1  0
  5 10  2  0
  5  2  1  0
  6  2  1  0
  6 11  1  0
 15 11  2  0
  1 36  1  0
  7 37  1  0
  7 38  1  0
  8 39  1  0
  9 40  1  0
 10 41  1  0
 11 42  1  0
 12 43  1  0
 13 44  1  0
 14 45  1  0
 15 46  1  0
 16 47  1  0
 18 48  1  0
 19 49  1  0
 19 50  1  0
 20 51  1  0
 20 52  1  0
 21 53  1  0
 22 54  1  0
 23 55  1  0
 23 56  1  0
 25 57  1  0
 30 58  1  0
 32 59  1  0
 33 60  1  0
 34 61  1  0
 35 62  1  0
 35 63  1  0
 35 64  1  0
A    1
C1
A    2
O2
A    3
C3
A    4
C4
A    5
C5
A    6
C6
A    7
C7
A    8
C8
A    9
C9
A   10
C10
A   11
C11
A   12
C12
A   13
C13
A   14
C14
A   15
C15
A   16
N16
A   17
C17
A   18
C18
A   19
C19
A   20
C20
A   21
N21
A   22
C22
A   23
C23
A   24
O24
A   25
N25
A   26
S26
A   27
O27
A   28
O28
A   29
C29
A   30
C30
A   31
C31
A   32
C32
A   33
C33
A   34
C34
A   35
C35
M  END
