4GJD_0N0_A_1001
     RDKit          3D

 80 84  0  0  0  0  0  0  0  0999 V2000
   40.9910  110.2090    9.0280 C   0  0  0  0  0  0  0  0  0  0  0  0
   40.1830  108.8930    9.0120 C   0  0  0  0  0  0  0  0  0  0  0  0
   40.7940  107.8390    9.9820 C   0  0  0  0  0  0  0  0  0  0  0  0
   42.3240  107.5820    9.7560 C   0  0  0  0  0  0  0  0  0  0  0  0
   43.0570  108.9440    9.6250 C   0  0  0  0  0  0  0  0  0  0  0  0
   42.3850  109.8820    8.6900 N   0  0  0  0  0  0  0  0  0  0  0  0
   38.7770  109.1170    9.3200 N   0  0  0  0  0  0  0  0  0  0  0  0
   43.0040  106.7930   10.8690 C   0  0  0  0  0  0  0  0  0  0  0  0
   37.5740  108.3940    8.4720 S   0  0  0  0  0  0  0  0  0  0  0  0
   36.8920  107.3300    9.7180 C   0  0  0  0  0  0  0  0  0  0  0  0
   36.6440  109.4570    8.1320 O   0  0  0  0  0  0  0  0  0  0  0  0
   38.1040  107.5490    7.4050 O   0  0  0  0  0  0  0  0  0  0  0  0
   36.4230  107.9050   10.9230 C   0  0  0  0  0  0  0  0  0  0  0  0
   35.8610  107.0850   11.9250 C   0  0  0  0  0  0  0  0  0  0  0  0
   35.7670  105.6950   11.7310 C   0  0  0  0  0  0  0  0  0  0  0  0
   36.2190  105.1200   10.5170 C   0  0  0  0  0  0  0  0  0  0  0  0
   36.7990  105.9300    9.5180 C   0  0  0  0  0  0  0  0  0  0  0  0
   35.1530  104.8210   12.8370 C   0  0  0  0  0  0  0  0  0  0  0  0
   42.5000  106.7900   11.9770 O   0  0  0  0  0  0  0  0  0  0  0  0
   44.1710  106.1310   10.6000 N   0  0  0  0  0  0  0  0  0  0  0  0
   44.9680  105.3800   11.5890 C   0  0  0  0  0  0  0  0  0  0  0  0
   46.2240  106.1460   12.1570 C   0  0  0  0  0  0  0  0  0  0  0  0
   45.2210  106.4820   14.8100 O   0  0  0  0  0  0  0  0  0  0  0  0
   45.7300  107.5380   12.6790 C   0  0  0  0  0  0  0  0  0  0  0  0
   45.1890  107.6050   13.9830 C   0  0  0  0  0  0  0  0  0  0  0  0
   44.6520  108.8030   14.4890 C   0  0  0  0  0  0  0  0  0  0  0  0
   44.6020  109.9520   13.6760 C   0  0  0  0  0  0  0  0  0  0  0  0
   45.1210  109.9280   12.3730 C   0  0  0  0  0  0  0  0  0  0  0  0
   45.6760  108.7310   11.8950 C   0  0  0  0  0  0  0  0  0  0  0  0
   46.2040  105.5080   14.6370 C   0  0  0  0  0  0  0  0  0  0  0  0
   46.7410  105.2750   13.3530 C   0  0  0  0  0  0  0  0  0  0  0  0
   47.7370  104.2530   13.2560 C   0  0  0  0  0  0  0  0  0  0  0  0
   48.1680  103.5020   14.3850 C   0  0  0  0  0  0  0  0  0  0  0  0
   47.6400  103.7820   15.6570 C   0  0  0  0  0  0  0  0  0  0  0  0
   46.6610  104.7930   15.7670 C   0  0  0  0  0  0  0  0  0  0  0  0
   47.3030  106.2690   11.0210 C   0  0  0  0  0  0  0  0  0  0  0  0
   48.5920  107.1100   11.2640 C   0  0  0  0  0  0  0  0  0  0  0  0
   49.6330  106.9050   10.1290 C   0  0  0  0  0  0  0  0  0  0  0  0
   49.3140  107.7570    8.8730 C   0  0  0  0  0  0  0  0  0  0  0  0
   50.4640  107.7690    8.0010 O   0  0  0  0  0  0  0  0  0  0  0  0
   50.1480  107.4150    6.6490 C   0  0  0  0  0  0  0  0  0  0  0  0
   40.9450  110.6648   10.0281 H   0  0  0  0  0  0  0  0  0  0  0  0
   40.5764  110.9246    8.3027 H   0  0  0  0  0  0  0  0  0  0  0  0
   40.2432  108.4943    7.9886 H   0  0  0  0  0  0  0  0  0  0  0  0
   40.6506  108.1930   11.0136 H   0  0  0  0  0  0  0  0  0  0  0  0
   40.2774  106.8875    9.7874 H   0  0  0  0  0  0  0  0  0  0  0  0
   42.3907  106.9752    8.8409 H   0  0  0  0  0  0  0  0  0  0  0  0
   44.0779  108.7580    9.2601 H   0  0  0  0  0  0  0  0  0  0  0  0
   43.0531  109.4145   10.6193 H   0  0  0  0  0  0  0  0  0  0  0  0
   42.3946  109.4582    7.7513 H   0  0  0  0  0  0  0  0  0  0  0  0
   38.6212  110.1314    9.2330 H   0  0  0  0  0  0  0  0  0  0  0  0
   36.4965  108.9914   11.0788 H   0  0  0  0  0  0  0  0  0  0  0  0
   35.4955  107.5342   12.8602 H   0  0  0  0  0  0  0  0  0  0  0  0
   36.1171  104.0371   10.3529 H   0  0  0  0  0  0  0  0  0  0  0  0
   37.1768  105.4776    8.5893 H   0  0  0  0  0  0  0  0  0  0  0  0
   35.4354  105.2230   13.8212 H   0  0  0  0  0  0  0  0  0  0  0  0
   34.0572  104.8237   12.7405 H   0  0  0  0  0  0  0  0  0  0  0  0
   35.5271  103.7911   12.7405 H   0  0  0  0  0  0  0  0  0  0  0  0
   44.5204  106.1591    9.6315 H   0  0  0  0  0  0  0  0  0  0  0  0
   44.3115  105.1278   12.4348 H   0  0  0  0  0  0  0  0  0  0  0  0
   45.3601  104.4985   11.0605 H   0  0  0  0  0  0  0  0  0  0  0  0
   44.2710  108.8423   15.5202 H   0  0  0  0  0  0  0  0  0  0  0  0
   44.1519  110.8767   14.0664 H   0  0  0  0  0  0  0  0  0  0  0  0
   45.0936  110.8273   11.7401 H   0  0  0  0  0  0  0  0  0  0  0  0
   46.0864  108.7105   10.8746 H   0  0  0  0  0  0  0  0  0  0  0  0
   48.1854  104.0402   12.2743 H   0  0  0  0  0  0  0  0  0  0  0  0
   48.9139  102.7029   14.2624 H   0  0  0  0  0  0  0  0  0  0  0  0
   47.9808  103.2277   16.5439 H   0  0  0  0  0  0  0  0  0  0  0  0
   46.2436  105.0301   16.7567 H   0  0  0  0  0  0  0  0  0  0  0  0
   46.7973  106.7066   10.1477 H   0  0  0  0  0  0  0  0  0  0  0  0
   47.6842  105.2422   10.9196 H   0  0  0  0  0  0  0  0  0  0  0  0
   49.0421  106.8048   12.2202 H   0  0  0  0  0  0  0  0  0  0  0  0
   48.3099  108.1730   11.2833 H   0  0  0  0  0  0  0  0  0  0  0  0
   49.6392  105.8428    9.8431 H   0  0  0  0  0  0  0  0  0  0  0  0
   50.6134  107.2254   10.5113 H   0  0  0  0  0  0  0  0  0  0  0  0
   49.0734  108.7860    9.1783 H   0  0  0  0  0  0  0  0  0  0  0  0
   48.4533  107.3238    8.3424 H   0  0  0  0  0  0  0  0  0  0  0  0
   49.4155  106.5944    6.6465 H   0  0  0  0  0  0  0  0  0  0  0  0
   49.7229  108.2875    6.1313 H   0  0  0  0  0  0  0  0  0  0  0  0
   51.0630  107.0913    6.1313 H   0  0  0  0  0  0  0  0  0  0  0  0
 41 40  1  0
 12  9  2  0
 40 39  1  0
 11  9  2  0
  9  7  1  0
  9 10  1  0
  6  1  1  0
  6  5  1  0
 39 38  1  0
  2  1  1  0
  2  7  1  0
  2  3  1  0
 17 10  1  0
 17 16  2  0
  5  4  1  0
 10 13  2  0
  4  3  1  0
  4  8  1  0
 38 37  1  0
 16 15  1  0
 20  8  1  0
 20 21  1  0
  8 19  2  0
 13 14  1  0
 36 37  1  0
 36 22  1  0
 21 22  1  0
 15 14  2  0
 15 18  1  0
 29 28  1  0
 29 24  2  0
 22 24  1  0
 22 31  1  0
 28 27  2  0
 24 25  1  0
 32 31  1  0
 32 33  2  0
 31 30  2  0
 27 26  1  0
 25 26  2  0
 25 23  1  0
 33 34  1  0
 30 23  1  0
 30 35  1  0
 34 35  2  0
  1 42  1  0
  1 43  1  0
  2 44  1  0
  3 45  1  0
  3 46  1  0
  4 47  1  0
  5 48  1  0
  5 49  1  0
  6 50  1  0
  7 51  1  0
 13 52  1  0
 14 53  1  0
 16 54  1  0
 17 55  1  0
 18 56  1  0
 18 57  1  0
 18 58  1  0
 20 59  1  0
 21 60  1  0
 21 61  1  0
 26 62  1  0
 27 63  1  0
 28 64  1  0
 29 65  1  0
 32 66  1  0
 33 67  1  0
 34 68  1  0
 35 69  1  0
 36 70  1  0
 36 71  1  0
 37 72  1  0
 37 73  1  0
 38 74  1  0
 38 75  1  0
 39 76  1  0
 39 77  1  0
 41 78  1  0
 41 79  1  0
 41 80  1  0
A    1
C1
A    2
C2
A    3
C3
A    4
C4
A    5
C5
A    6
N6
A    7
N7
A    8
C8
A    9
S9
A   10
C10
A   11
O11
A   12
O12
A   13
C13
A   14
C14
A   15
C15
A   16
C16
A   17
C17
A   18
C18
A   19
O19
A   20
N20
A   21
C21
A   22
C22
A   23
O23
A   24
C24
A   25
C25
A   26
C26
A   27
C27
A   28
C28
A   29
C29
A   30
C30
A   31
C31
A   32
C32
A   33
C33
A   34
C34
A   35
C35
A   36
C36
A   37
C37
A   38
C38
A   39
C39
A   40
O40
A   41
C41
M  END
