4GIH_0X5_A_1201
     RDKit          3D

 36 38  0  0  0  0  0  0  0  0999 V2000
   -6.7680   -6.0290  -15.4960 C   0  0  0  0  0  0  0  0  0  0  0  0
   -7.3630   -4.7560  -15.5870 C   0  0  0  0  0  0  0  0  0  0  0  0
   -6.5920   -3.6260  -15.8250 C   0  0  0  0  0  0  0  0  0  0  0  0
   -8.7620   -9.1860  -16.0280 C   0  0  0  0  0  0  0  0  0  0  0  0
   -7.6480   -7.1690  -15.1630 C   0  0  0  0  0  0  0  0  0  0  0  0
   -9.5760   -9.5140  -14.9230 C   0  0  0  0  0  0  0  0  0  0  0  0
  -10.4480  -10.5960  -15.0330 C   0  0  0  0  0  0  0  0  0  0  0  0
   -5.3790   -6.1530  -15.6880 C   0  0  0  0  0  0  0  0  0  0  0  0
   -5.2250   -3.7570  -16.0030 C   0  0  0  0  0  0  0  0  0  0  0  0
   -4.6220   -5.0120  -15.9350 C   0  0  0  0  0  0  0  0  0  0  0  0
   -9.0780   -4.6020  -15.4470 Cl  0  0  0  0  0  0  0  0  0  0  0  0
   -8.1400   -7.2160  -14.0310 O   0  0  0  0  0  0  0  0  0  0  0  0
   -7.9150   -8.0780  -16.1160 N   0  0  0  0  0  0  0  0  0  0  0  0
  -10.4840  -11.3230  -16.1490 N   0  0  0  0  0  0  0  0  0  0  0  0
   -9.7280  -11.0610  -17.2160 C   0  0  0  0  0  0  0  0  0  0  0  0
   -8.8640   -9.9630  -17.1810 C   0  0  0  0  0  0  0  0  0  0  0  0
   -9.8320  -11.8770  -18.3640 N   0  0  0  0  0  0  0  0  0  0  0  0
   -8.8750  -11.9800  -19.3360 C   0  0  0  0  0  0  0  0  0  0  0  0
   -7.8420  -11.3390  -19.2710 O   0  0  0  0  0  0  0  0  0  0  0  0
   -9.0940  -12.9030  -20.5280 C   0  0  0  0  0  0  0  0  0  0  0  0
   -8.4480  -12.5430  -21.8730 C   0  0  0  0  0  0  0  0  0  0  0  0
   -7.9000  -13.7090  -21.0550 C   0  0  0  0  0  0  0  0  0  0  0  0
   -4.5810   -7.6960  -15.6770 Cl  0  0  0  0  0  0  0  0  0  0  0  0
   -7.0639   -2.6335  -15.8718 H   0  0  0  0  0  0  0  0  0  0  0  0
   -9.5235   -8.9278  -13.9937 H   0  0  0  0  0  0  0  0  0  0  0  0
  -11.1107  -10.8513  -14.1930 H   0  0  0  0  0  0  0  0  0  0  0  0
   -4.6113   -2.8655  -16.1992 H   0  0  0  0  0  0  0  0  0  0  0  0
   -3.5350   -5.1013  -16.0783 H   0  0  0  0  0  0  0  0  0  0  0  0
   -7.4386   -7.9418  -17.0190 H   0  0  0  0  0  0  0  0  0  0  0  0
   -8.2622   -9.7109  -18.0666 H   0  0  0  0  0  0  0  0  0  0  0  0
  -10.6904  -12.4348  -18.4776 H   0  0  0  0  0  0  0  0  0  0  0  0
  -10.1149  -13.1424  -20.1955 H   0  0  0  0  0  0  0  0  0  0  0  0
   -7.8622  -11.6171  -21.9710 H   0  0  0  0  0  0  0  0  0  0  0  0
   -8.8144  -12.4209  -22.9030 H   0  0  0  0  0  0  0  0  0  0  0  0
   -8.0456  -14.7418  -21.4046 H   0  0  0  0  0  0  0  0  0  0  0  0
   -6.9112  -13.9820  -20.6577 H   0  0  0  0  0  0  0  0  0  0  0  0
 21 22  1  0
 21 20  1  0
 22 20  1  0
 20 18  1  0
 18 19  2  0
 18 17  1  0
 17 15  1  0
 15 16  2  0
 15 14  1  0
 16  4  1  0
 14  7  2  0
 13  4  1  0
 13  5  1  0
  4  6  2  0
  9 10  2  0
  9  3  1  0
 10  8  1  0
  3  2  2  0
  8 23  1  0
  8  1  2  0
  2  1  1  0
  2 11  1  0
  1  5  1  0
  5 12  2  0
  7  6  1  0
  3 24  1  0
  6 25  1  0
  7 26  1  0
  9 27  1  0
 10 28  1  0
 13 29  1  0
 16 30  1  0
 17 31  1  0
 20 32  1  0
 21 33  1  0
 21 34  1  0
 22 35  1  0
 22 36  1  0
A    1
C4
A    2
C5
A    3
C6
A    4
C11
A    5
C8
A    6
C12
A    7
C13
A    8
C3
A    9
C1
A   10
C2
A   11
CL1
A   12
O9
A   13
N10
A   14
N14
A   15
C15
A   16
C16
A   17
N17
A   18
C18
A   19
O19
A   20
C20
A   21
C21
A   22
C22
A   23
CL2
M  END
