4GPJ_0Q1_A_201
     RDKit          3D

 42 45  0  0  0  0  0  0  0  0999 V2000
   32.9220   14.8880   -1.0770 C   0  0  0  0  0  0  0  0  0  0  0  0
   32.5830   16.1240   -0.2780 C   0  0  0  0  0  0  0  0  0  0  0  0
   33.5890   16.9660    0.0910 O   0  0  0  0  0  0  0  0  0  0  0  0
   32.9790   18.0380    0.7860 N   0  0  0  0  0  0  0  0  0  0  0  0
   31.6660   17.8070    0.8060 C   0  0  0  0  0  0  0  0  0  0  0  0
   30.7590   18.8380    1.5090 C   0  0  0  0  0  0  0  0  0  0  0  0
   31.3610   16.6140    0.1370 C   0  0  0  0  0  0  0  0  0  0  0  0
   30.0990   16.0390   -0.1190 C   0  0  0  0  0  0  0  0  0  0  0  0
   29.7400   15.6080   -1.3700 C   0  0  0  0  0  0  0  0  0  0  0  0
   28.4470   15.0830   -1.5420 C   0  0  0  0  0  0  0  0  0  0  0  0
   29.1710   16.0120    0.9220 C   0  0  0  0  0  0  0  0  0  0  0  0
   27.9020   15.4730    0.7700 C   0  0  0  0  0  0  0  0  0  0  0  0
   27.5500   15.0100   -0.4810 C   0  0  0  0  0  0  0  0  0  0  0  0
   26.2130   14.4090   -0.9050 C   0  0  0  0  0  0  0  0  0  0  0  0
   26.4610   13.9200   -2.2620 C   0  0  0  0  0  0  0  0  0  0  0  0
   27.8070   14.5240   -2.7710 C   0  0  0  0  0  0  0  0  0  0  0  0
   28.6250   13.5230   -3.3310 O   0  0  0  0  0  0  0  0  0  0  0  0
   27.7020   15.6030   -3.8520 C   0  0  0  0  0  0  0  0  0  0  0  0
   26.9400   16.7040   -3.5500 C   0  0  0  0  0  0  0  0  0  0  0  0
   26.7330   17.7270   -4.4780 C   0  0  0  0  0  0  0  0  0  0  0  0
   27.3270   17.6360   -5.7210 C   0  0  0  0  0  0  0  0  0  0  0  0
   28.0870   16.5200   -6.0300 C   0  0  0  0  0  0  0  0  0  0  0  0
   28.2710   15.4960   -5.0990 C   0  0  0  0  0  0  0  0  0  0  0  0
   33.1494   14.0588   -0.3909 H   0  0  0  0  0  0  0  0  0  0  0  0
   32.0656   14.6149   -1.7110 H   0  0  0  0  0  0  0  0  0  0  0  0
   33.7979   15.0900   -1.7110 H   0  0  0  0  0  0  0  0  0  0  0  0
   30.8556   18.7282    2.5992 H   0  0  0  0  0  0  0  0  0  0  0  0
   31.0617   19.8537    1.2145 H   0  0  0  0  0  0  0  0  0  0  0  0
   29.7130   18.6672    1.2145 H   0  0  0  0  0  0  0  0  0  0  0  0
   30.4426   15.6710   -2.2140 H   0  0  0  0  0  0  0  0  0  0  0  0
   29.4555   16.4329    1.8977 H   0  0  0  0  0  0  0  0  0  0  0  0
   27.2016   15.4168    1.6163 H   0  0  0  0  0  0  0  0  0  0  0  0
   25.4221   15.1735   -0.9030 H   0  0  0  0  0  0  0  0  0  0  0  0
   25.8697   13.6158   -0.2245 H   0  0  0  0  0  0  0  0  0  0  0  0
   25.6405   14.2330   -2.9244 H   0  0  0  0  0  0  0  0  0  0  0  0
   26.5188   12.8215   -2.2608 H   0  0  0  0  0  0  0  0  0  0  0  0
   29.0514   13.0012   -2.6057 H   0  0  0  0  0  0  0  0  0  0  0  0
   26.4814   16.7825   -2.5532 H   0  0  0  0  0  0  0  0  0  0  0  0
   26.1053   18.5933   -4.2221 H   0  0  0  0  0  0  0  0  0  0  0  0
   27.1980   18.4418   -6.4586 H   0  0  0  0  0  0  0  0  0  0  0  0
   28.5524   16.4393   -7.0234 H   0  0  0  0  0  0  0  0  0  0  0  0
   28.8672   14.6096   -5.3614 H   0  0  0  0  0  0  0  0  0  0  0  0
 22 21  2  0
 22 23  1  0
 21 20  1  0
 23 18  2  0
 20 19  2  0
 18 19  1  0
 18 16  1  0
 17 16  1  0
 16 15  1  0
 16 10  1  0
 15 14  1  0
 10  9  2  0
 10 13  1  0
  9  8  1  0
  1  2  1  0
 14 13  1  0
 13 12  2  0
  2  3  1  0
  2  7  2  0
  8  7  1  0
  8 11  2  0
  3  4  1  0
  7  5  1  0
 12 11  1  0
  4  5  2  0
  5  6  1  0
  1 24  1  0
  1 25  1  0
  1 26  1  0
  6 27  1  0
  6 28  1  0
  6 29  1  0
  9 30  1  0
 11 31  1  0
 12 32  1  0
 14 33  1  0
 14 34  1  0
 15 35  1  0
 15 36  1  0
 17 37  1  0
 19 38  1  0
 20 39  1  0
 21 40  1  0
 22 41  1  0
 23 42  1  0
A    1
CAU
A    2
CAT
A    3
OAV
A    4
NAW
A    5
CAB
A    6
CAA
A    7
CAC
A    8
CAD
A    9
CAR
A   10
CAQ
A   11
CAE
A   12
CAF
A   13
CAG
A   14
CAH
A   15
CAI
A   16
CAJ
A   17
OAS
A   18
CAK
A   19
CAL
A   20
CAM
A   21
CAN
A   22
CAO
A   23
CAP
M  END
