4GQI_M49_A_304
     RDKit          3D

 37 38  0  0  0  0  0  0  0  0999 V2000
   25.8350  -12.4500  -14.5460 O   0  0  0  0  0  0  0  0  0  0  0  0
   26.1860  -13.3580  -15.3190 C   0  0  0  0  0  0  0  0  0  0  0  0
   27.2760  -13.1060  -16.3270 C   0  0  0  0  0  0  0  0  0  0  0  0
   25.6270  -14.5950  -15.3080 N   0  0  0  0  0  0  0  0  0  0  0  0
   24.4330  -14.8520  -14.6480 C   0  0  0  0  0  0  0  0  0  0  0  0
   23.7340  -16.0490  -14.8980 C   0  0  0  0  0  0  0  0  0  0  0  0
   22.5330  -16.3120  -14.2160 C   0  0  0  0  0  0  0  0  0  0  0  0
   23.9100  -13.8940  -13.7490 C   0  0  0  0  0  0  0  0  0  0  0  0
   22.7140  -14.0840  -13.0520 C   0  0  0  0  0  0  0  0  0  0  0  0
   22.0250  -15.2740  -13.2650 C   0  0  0  0  0  0  0  0  0  0  0  0
   20.8440  -15.7240  -12.7680 N   0  0  0  0  0  0  0  0  0  0  0  0
   20.6460  -16.9180  -13.3280 C   0  0  0  0  0  0  0  0  0  0  0  0
   19.5100  -17.4790  -12.9600 O   0  0  0  0  0  0  0  0  0  0  0  0
   21.6060  -17.4490  -14.3730 C   0  0  0  0  0  0  0  0  0  0  0  0
   22.0450  -18.9290  -14.3520 C   0  0  0  0  0  0  0  0  0  0  0  0
   22.8050  -19.4270  -15.5860 C   0  0  0  0  0  0  0  0  0  0  0  0
   24.2340  -19.7670  -15.3820 N   0  0  0  0  0  0  0  0  0  0  0  0
   25.3120  -19.0740  -15.8340 C   0  0  0  0  0  0  0  0  0  0  0  0
   25.2680  -17.8630  -16.0680 O   0  0  0  0  0  0  0  0  0  0  0  0
   26.6010  -19.8380  -16.0240 C   0  0  0  0  0  0  0  0  0  0  0  0
   28.2178  -12.8883  -15.8020 H   0  0  0  0  0  0  0  0  0  0  0  0
   27.4055  -13.9979  -16.9577 H   0  0  0  0  0  0  0  0  0  0  0  0
   27.0009  -12.2478  -16.9577 H   0  0  0  0  0  0  0  0  0  0  0  0
   26.1016  -15.3637  -15.8027 H   0  0  0  0  0  0  0  0  0  0  0  0
   24.1265  -16.7757  -15.6245 H   0  0  0  0  0  0  0  0  0  0  0  0
   24.4684  -12.9594  -13.5917 H   0  0  0  0  0  0  0  0  0  0  0  0
   22.3308  -13.3200  -12.3595 H   0  0  0  0  0  0  0  0  0  0  0  0
   20.2284  -15.2426  -12.0971 H   0  0  0  0  0  0  0  0  0  0  0  0
   21.2539  -17.6540  -15.3948 H   0  0  0  0  0  0  0  0  0  0  0  0
   22.6950  -19.0738  -13.4765 H   0  0  0  0  0  0  0  0  0  0  0  0
   21.1127  -19.5122  -14.3254 H   0  0  0  0  0  0  0  0  0  0  0  0
   22.2944  -20.3296  -15.9530 H   0  0  0  0  0  0  0  0  0  0  0  0
   22.8010  -18.5849  -16.2938 H   0  0  0  0  0  0  0  0  0  0  0  0
   24.4306  -20.6201  -14.8394 H   0  0  0  0  0  0  0  0  0  0  0  0
   27.0261  -20.0900  -15.0413 H   0  0  0  0  0  0  0  0  0  0  0  0
   26.3999  -20.7628  -16.5846 H   0  0  0  0  0  0  0  0  0  0  0  0
   27.3157  -19.2176  -16.5846 H   0  0  0  0  0  0  0  0  0  0  0  0
  9  8  1  0
  9 10  2  0
  8  5  2  0
 10 11  1  0
 10  7  1  0
  5  4  1  0
  5  6  1  0
 11 12  1  0
  4  2  1  0
  1  2  2  0
  7  6  2  0
  7 14  1  0
  2  3  1  0
 12 13  2  0
 12 14  1  0
 15 14  1  0
 15 16  1  0
 16 17  1  0
 17 18  1  0
 20 18  1  0
 18 19  2  0
  3 21  1  0
  3 22  1  0
  3 23  1  0
  4 24  1  0
  6 25  1  0
  8 26  1  0
  9 27  1  0
 11 28  1  0
 14 29  1  0
 15 30  1  0
 15 31  1  0
 16 32  1  0
 16 33  1  0
 17 34  1  0
 20 35  1  0
 20 36  1  0
 20 37  1  0
A    1
O12
A    2
C11
A    3
C20
A    4
N10
A    5
C6
A    6
C1
A    7
C2
A    8
C5
A    9
C4
A   10
C3
A   11
N9
A   12
C8
A   13
O13
A   14
C7
A   15
C14
A   16
C15
A   17
N16
A   18
C17
A   19
O18
A   20
C19
M  END
