4GQL_R47_A_306
     RDKit          3D

 87 90  0  0  0  0  0  0  0  0999 V2000
   10.1460   26.7400    4.2210 O   0  0  0  0  0  0  0  0  0  0  0  0
    6.8840   22.7070    5.4810 N   0  0  0  0  0  0  0  0  0  0  0  0
    7.9870   23.0080    4.8250 O   0  0  0  0  0  0  0  0  0  0  0  0
    9.2640   26.7970    3.4480 C   0  0  0  0  0  0  0  0  0  0  0  0
    8.8340   25.8690    2.4870 C   0  0  0  0  0  0  0  0  0  0  0  0
    8.9990   24.4640    3.1280 C   0  0  0  0  0  0  0  0  0  0  0  0
    6.6250   24.3890    4.0670 C   0  0  0  0  0  0  0  0  0  0  0  0
    6.0100   23.5500    5.0700 C   0  0  0  0  0  0  0  0  0  0  0  0
    4.6030   23.5130    5.5010 C   0  0  0  0  0  0  0  0  0  0  0  0
    4.2590   22.6740    6.6420 C   0  0  0  0  0  0  0  0  0  0  0  0
    2.9550   22.6470    7.0260 C   0  0  0  0  0  0  0  0  0  0  0  0
    1.9340   23.4260    6.2850 C   0  0  0  0  0  0  0  0  0  0  0  0
    2.3040   24.1550    5.1940 C   0  0  0  0  0  0  0  0  0  0  0  0
    3.6930   24.2020    4.7850 C   0  0  0  0  0  0  0  0  0  0  0  0
    7.8790   24.0420    4.0060 C   0  0  0  0  0  0  0  0  0  0  0  0
   -2.7450   25.3810    6.1110 Cl  0  0  0  0  0  0  0  0  0  0  0  0
   -1.7190   24.1770    6.6720 C   0  0  0  0  0  0  0  0  0  0  0  0
   -0.3420   24.3320    6.2990 C   0  0  0  0  0  0  0  0  0  0  0  0
   -2.2040   23.1290    7.3170 C   0  0  0  0  0  0  0  0  0  0  0  0
   -1.3220   22.0820    7.7080 C   0  0  0  0  0  0  0  0  0  0  0  0
   -0.0260   22.2230    7.4010 C   0  0  0  0  0  0  0  0  0  0  0  0
    0.5060   23.3710    6.6790 C   0  0  0  0  0  0  0  0  0  0  0  0
    9.7940   25.9890    1.2450 C   0  0  0  0  0  0  0  0  0  0  0  0
    9.2740   25.0130   -0.1960 P   0  0  0  0  0  0  0  0  0  0  0  0
    7.7200   25.3100   -0.3910 O   0  0  0  0  0  0  0  0  0  0  0  0
    9.5670   23.4880   -0.0830 O   0  0  0  0  0  0  0  0  0  0  0  0
   10.1700   25.7520   -1.5820 C   0  0  0  0  0  0  0  0  0  0  0  0
   11.6230   25.7090   -1.5520 C   0  0  0  0  0  0  0  0  0  0  0  0
   12.2970   26.2560   -2.6240 C   0  0  0  0  0  0  0  0  0  0  0  0
   11.5150   26.7850   -3.7890 C   0  0  0  0  0  0  0  0  0  0  0  0
   12.0680   27.4740   -5.5220 Br  0  0  0  0  0  0  0  0  0  0  0  0
   10.1990   26.7870   -3.7740 C   0  0  0  0  0  0  0  0  0  0  0  0
    9.4860   26.2910   -2.6360 C   0  0  0  0  0  0  0  0  0  0  0  0
    8.5350   27.9660    3.4590 N   0  0  0  0  0  0  0  0  0  0  0  0
    8.8660   29.1170    4.2900 C   0  0  0  0  0  0  0  0  0  0  0  0
    8.0420   29.1770    5.5640 C   0  0  0  0  0  0  0  0  0  0  0  0
    6.8710   28.7770    5.5850 O   0  0  0  0  0  0  0  0  0  0  0  0
    8.7150   30.4030    3.4740 C   0  0  0  0  0  0  0  0  0  0  0  0
    9.7720   30.5070    2.3870 C   0  0  0  0  0  0  0  0  0  0  0  0
    9.6560   31.7680    1.5410 C   0  0  0  0  0  0  0  0  0  0  0  0
   10.4800   32.6930    1.7260 O   0  0  0  0  0  0  0  0  0  0  0  0
    8.7700   31.8180    0.6660 O   0  0  0  0  0  0  0  0  0  0  0  0
    8.6440   29.6970    6.6270 N   0  0  0  0  0  0  0  0  0  0  0  0
    7.9020   29.9080    7.8630 C   0  0  0  0  0  0  0  0  0  0  0  0
    6.7470   30.8490    7.6430 C   0  0  0  0  0  0  0  0  0  0  0  0
    5.6190   30.5960    8.0990 O   0  0  0  0  0  0  0  0  0  0  0  0
    8.7980   30.5130    8.9280 C   0  0  0  0  0  0  0  0  0  0  0  0
    9.7270   29.5390    9.5280 C   0  0  0  0  0  0  0  0  0  0  0  0
   10.3320   30.0530   10.8070 C   0  0  0  0  0  0  0  0  0  0  0  0
   10.6330   29.2260   11.6930 O   0  0  0  0  0  0  0  0  0  0  0  0
   10.5090   31.2860   10.9140 O   0  0  0  0  0  0  0  0  0  0  0  0
    7.0390   31.9520    6.9620 N   0  0  0  0  0  0  0  0  0  0  0  0
    7.7936   26.0391    2.1730 H   0  0  0  0  0  0  0  0  0  0  0  0
    9.0934   23.7272    2.3167 H   0  0  0  0  0  0  0  0  0  0  0  0
    9.8900   24.5208    3.7705 H   0  0  0  0  0  0  0  0  0  0  0  0
    6.1300   25.1695    3.4705 H   0  0  0  0  0  0  0  0  0  0  0  0
    5.0236   22.0863    7.1712 H   0  0  0  0  0  0  0  0  0  0  0  0
    2.6548   22.0418    7.8941 H   0  0  0  0  0  0  0  0  0  0  0  0
    1.5452   24.7094    4.6223 H   0  0  0  0  0  0  0  0  0  0  0  0
    3.9990   24.7891    3.9065 H   0  0  0  0  0  0  0  0  0  0  0  0
    0.0013   25.2050    5.7245 H   0  0  0  0  0  0  0  0  0  0  0  0
   -3.2775   23.0670    7.5489 H   0  0  0  0  0  0  0  0  0  0  0  0
   -1.6902   21.1929    8.2409 H   0  0  0  0  0  0  0  0  0  0  0  0
    0.6725   21.4314    7.7099 H   0  0  0  0  0  0  0  0  0  0  0  0
   10.7950   25.6489    1.5488 H   0  0  0  0  0  0  0  0  0  0  0  0
    9.7780   27.0441    0.9343 H   0  0  0  0  0  0  0  0  0  0  0  0
    7.2862   25.3929    0.4950 H   0  0  0  0  0  0  0  0  0  0  0  0
   12.1639   25.2577   -0.7071 H   0  0  0  0  0  0  0  0  0  0  0  0
   13.3960   26.3036   -2.6243 H   0  0  0  0  0  0  0  0  0  0  0  0
    9.6433   27.1723   -4.6416 H   0  0  0  0  0  0  0  0  0  0  0  0
    8.3876   26.3435   -2.6096 H   0  0  0  0  0  0  0  0  0  0  0  0
    7.7100   28.0303    2.8457 H   0  0  0  0  0  0  0  0  0  0  0  0
    9.9132   29.0083    4.6086 H   0  0  0  0  0  0  0  0  0  0  0  0
    8.8114   31.2665    4.1486 H   0  0  0  0  0  0  0  0  0  0  0  0
    7.7269   30.3882    2.9908 H   0  0  0  0  0  0  0  0  0  0  0  0
    9.6764   29.6340    1.7246 H   0  0  0  0  0  0  0  0  0  0  0  0
   10.7492   30.5457    2.8906 H   0  0  0  0  0  0  0  0  0  0  0  0
    7.8171   31.8718    0.9290 H   0  0  0  0  0  0  0  0  0  0  0  0
    9.6406   29.9525    6.5776 H   0  0  0  0  0  0  0  0  0  0  0  0
    7.5301   28.9258    8.1901 H   0  0  0  0  0  0  0  0  0  0  0  0
    9.3869   31.3219    8.4710 H   0  0  0  0  0  0  0  0  0  0  0  0
    8.1454   30.8808    9.7335 H   0  0  0  0  0  0  0  0  0  0  0  0
    9.1783   28.6101    9.7425 H   0  0  0  0  0  0  0  0  0  0  0  0
   10.5434   29.3618    8.8124 H   0  0  0  0  0  0  0  0  0  0  0  0
   10.5687   31.7015   11.8106 H   0  0  0  0  0  0  0  0  0  0  0  0
    7.2692   32.8214    7.4640 H   0  0  0  0  0  0  0  0  0  0  0  0
    7.0352   31.9376    5.9321 H   0  0  0  0  0  0  0  0  0  0  0  0
 31 30  1  0
 30 29  1  0
 30 32  2  0
 29 28  2  0
 32 33  1  0
 28 27  1  0
 33 27  2  0
 27 24  1  0
 26 24  2  0
 24 25  1  0
 24 23  1  0
 41 40  2  0
 23  5  1  0
 40 42  1  0
 40 39  1  0
 39 38  1  0
  5  6  1  0
  5  4  1  0
  6 15  1  0
 34  4  1  0
 34 35  1  0
 38 35  1  0
  4  1  2  0
 15  7  2  0
 15  3  1  0
  7  8  1  0
 35 36  1  0
 10 11  2  0
 10  9  1  0
  3  2  1  0
  8  2  2  0
  8  9  1  0
 11 12  1  0
  9 14  2  0
 36 37  2  0
 36 43  1  0
 16 17  1  0
 18 17  2  0
 18 22  1  0
 12 22  1  0
 12 13  2  0
 14 13  1  0
 43 44  1  0
 17 19  1  0
 22 21  2  0
 52 45  1  0
 19 20  2  0
 21 20  1  0
 45 44  1  0
 45 46  2  0
 44 47  1  0
 47 48  1  0
 48 49  1  0
 49 50  2  0
 49 51  1  0
  5 53  1  0
  6 54  1  0
  6 55  1  0
  7 56  1  0
 10 57  1  0
 11 58  1  0
 13 59  1  0
 14 60  1  0
 18 61  1  0
 19 62  1  0
 20 63  1  0
 21 64  1  0
 23 65  1  0
 23 66  1  0
 25 67  1  0
 28 68  1  0
 29 69  1  0
 32 70  1  0
 33 71  1  0
 34 72  1  0
 35 73  1  0
 38 74  1  0
 38 75  1  0
 39 76  1  0
 39 77  1  0
 42 78  1  0
 43 79  1  0
 44 80  1  0
 47 81  1  0
 47 82  1  0
 48 83  1  0
 48 84  1  0
 51 85  1  0
 52 86  1  0
 52 87  1  0
A    1
O4
A    2
N1
A    3
O1
A    4
C25
A    5
C17
A    6
C16
A    7
C14
A    8
C13
A    9
C12
A   10
C11
A   11
C10
A   12
C7
A   13
C8
A   14
C9
A   15
C15
A   16
CL1
A   17
C1
A   18
C2
A   19
C3
A   20
C4
A   21
C5
A   22
C6
A   23
C18
A   24
P1
A   25
O2
A   26
O3
A   27
C19
A   28
C20
A   29
C21
A   30
C22
A   31
BR1
A   32
C23
A   33
C24
A   34
N2
A   35
C26
A   36
C30
A   37
O7
A   38
C27
A   39
C28
A   40
C29
A   41
O5
A   42
O6
A   43
N3
A   44
C31
A   45
C35
A   46
O10
A   47
C32
A   48
C33
A   49
C34
A   50
O8
A   51
O9
A   52
N4
M  END
