1AQX_GTD_A_2101
     RDKit          3D

 55 55  0  0  0  0  0  0  0  0999 V2000
    4.2230    3.3790    8.7450 N   0  0  0  0  0  0  0  0  0  0  0  0
    4.8850    3.2680    7.4160 C   0  0  0  0  0  0  0  0  0  0  0  0
    6.0810    2.3220    7.5330 C   0  0  0  0  0  0  0  0  0  0  0  0
    6.5590    2.1270    8.6740 O   0  0  0  0  0  0  0  0  0  0  0  0
    6.5170    1.7850    6.4930 O   0  0  0  0  0  0  0  0  0  0  0  0
    5.3370    4.6620    6.9540 C   0  0  0  0  0  0  0  0  0  0  0  0
    6.2070    4.7140    5.6950 C   0  0  0  0  0  0  0  0  0  0  0  0
    6.5610    6.1490    5.3250 C   0  0  0  0  0  0  0  0  0  0  0  0
    6.2520    7.0750    6.0790 O   0  0  0  0  0  0  0  0  0  0  0  0
    7.2110    6.3470    4.1780 N   0  0  0  0  0  0  0  0  0  0  0  0
    7.5800    7.6950    3.7510 C   0  0  0  0  0  0  0  0  0  0  0  0
    7.0680    8.0130    2.3420 C   0  0  0  0  0  0  0  0  0  0  0  0
    6.7430    7.1160    1.5630 O   0  0  0  0  0  0  0  0  0  0  0  0
    9.1390    7.8530    3.8170 C   0  0  0  0  0  0  0  0  0  0  0  0
    9.7920    8.3890    5.4540 S   0  0  0  0  0  0  0  0  0  0  0  0
    7.0460    9.2980    2.0040 N   0  0  0  0  0  0  0  0  0  0  0  0
    6.5650    9.7200    0.7020 C   0  0  0  0  0  0  0  0  0  0  0  0
    5.3440   10.6160    0.8290 C   0  0  0  0  0  0  0  0  0  0  0  0
    4.9010   10.8550    1.9730 O   0  0  0  0  0  0  0  0  0  0  0  0
    4.8230   11.0850   -0.2050 O   0  0  0  0  0  0  0  0  0  0  0  0
   10.6590    9.9820    5.4610 C   0  0  0  0  0  0  0  0  0  0  0  0
    9.7580   10.9930    4.7430 C   0  0  0  0  0  0  0  0  0  0  0  0
    8.5060   11.3710    5.3750 N   0  0  0  0  0  0  0  0  0  0  0  0
    8.1790   10.8700    6.4590 O   0  0  0  0  0  0  0  0  0  0  0  0
    7.7510   12.1920    4.8390 O   0  0  0  0  0  0  0  0  0  0  0  0
   10.1100   11.5750    3.5100 C   0  0  0  0  0  0  0  0  0  0  0  0
   11.3270   11.2560    2.8820 C   0  0  0  0  0  0  0  0  0  0  0  0
   11.6710   11.8490    1.6010 N   0  0  0  0  0  0  0  0  0  0  0  0
   12.7460   11.5580    1.0580 O   0  0  0  0  0  0  0  0  0  0  0  0
   10.8980   12.6360    1.0350 O   0  0  0  0  0  0  0  0  0  0  0  0
   12.2370   10.3690    3.4650 C   0  0  0  0  0  0  0  0  0  0  0  0
   11.9610    9.7410    4.6880 C   0  0  0  0  0  0  0  0  0  0  0  0
   12.9580    8.8500    5.2570 N   0  0  0  0  0  0  0  0  0  0  0  0
   12.7320    8.2880    6.3420 O   0  0  0  0  0  0  0  0  0  0  0  0
   14.0280    8.6430    4.6570 O   0  0  0  0  0  0  0  0  0  0  0  0
    4.9252    3.2613    9.4893 H   0  0  0  0  0  0  0  0  0  0  0  0
    3.7820    4.3057    8.8326 H   0  0  0  0  0  0  0  0  0  0  0  0
    4.1824    2.8639    6.6723 H   0  0  0  0  0  0  0  0  0  0  0  0
    7.1398    1.0180    6.5556 H   0  0  0  0  0  0  0  0  0  0  0  0
    4.4339    5.2597    6.7614 H   0  0  0  0  0  0  0  0  0  0  0  0
    5.9736    5.0459    7.7647 H   0  0  0  0  0  0  0  0  0  0  0  0
    7.1347    4.1518    5.8772 H   0  0  0  0  0  0  0  0  0  0  0  0
    5.6401    4.2709    4.8630 H   0  0  0  0  0  0  0  0  0  0  0  0
    7.4559    5.5405    3.5859 H   0  0  0  0  0  0  0  0  0  0  0  0
    7.1038    8.4129    4.4350 H   0  0  0  0  0  0  0  0  0  0  0  0
    9.5923    6.8819    3.5690 H   0  0  0  0  0  0  0  0  0  0  0  0
    9.4003    8.6485    3.1036 H   0  0  0  0  0  0  0  0  0  0  0  0
    7.3754   10.0051    2.6766 H   0  0  0  0  0  0  0  0  0  0  0  0
    7.3639   10.2736    0.1869 H   0  0  0  0  0  0  0  0  0  0  0  0
    6.2810    8.8247    0.1295 H   0  0  0  0  0  0  0  0  0  0  0  0
    4.0891   11.7456   -0.1336 H   0  0  0  0  0  0  0  0  0  0  0  0
   10.8821   10.3690    6.4662 H   0  0  0  0  0  0  0  0  0  0  0  0
    9.4235   12.2890    3.0315 H   0  0  0  0  0  0  0  0  0  0  0  0
   10.8394   10.4176    2.3630 H   0  0  0  0  0  0  0  0  0  0  0  0
   13.1884   10.1596    2.9541 H   0  0  0  0  0  0  0  0  0  0  0  0
  1  2  1  0
  2  3  1  0
  2  6  1  0
  3  4  2  0
  3  5  1  0
  6  7  1  0
  7  8  1  0
  8  9  2  0
  8 10  1  0
 10 11  1  0
 11 12  1  0
 11 14  1  0
 12 13  2  0
 12 16  1  0
 14 15  1  0
 15 21  1  0
 16 17  1  0
 17 18  1  0
 18 19  2  0
 18 20  1  0
 21 22  1  0
 21 32  1  0
 22 23  1  0
 22 26  2  0
 23 24  2  0
 23 25  1  0
 26 27  1  0
 27 28  1  0
 27 31  1  0
 28 29  2  0
 28 30  1  0
 31 32  2  0
 32 33  1  0
 33 34  2  0
 33 35  1  0
  1 36  1  0
  1 37  1  0
  2 38  1  0
  5 39  1  0
  6 40  1  0
  6 41  1  0
  7 42  1  0
  7 43  1  0
 10 44  1  0
 11 45  1  0
 14 46  1  0
 14 47  1  0
 16 48  1  0
 17 49  1  0
 17 50  1  0
 20 51  1  0
 21 52  1  0
 26 53  1  0
 27 54  1  0
 31 55  1  0
M  CHG  6  23   1  25  -1  28   1  30  -1  33   1  35  -1
A    1
N1
A    2
CA1
A    3
C1
A    4
O11
A    5
O12
A    6
CB1
A    7
CG1
A    8
CD1
A    9
OE1
A   10
N2
A   11
CA2
A   12
C2
A   13
O2
A   14
CB2
A   15
SG2
A   16
N3
A   17
CA3
A   18
C3
A   19
O31
A   20
O32
A   21
C1'
A   22
C2'
A   23
N2'
A   24
O21
A   25
O22
A   26
C3'
A   27
C4'
A   28
N4'
A   29
O41
A   30
O42
A   31
C5'
A   32
C6'
A   33
N6'
A   34
O61
A   35
O62
M  END
