3DWZ_DWZ_A_400
     RDKit          3D

 53 54  0  0  0  0  0  0  0  0999 V2000
   -3.7900    8.8800   -2.0470 C   0  0  0  0  0  0  0  0  0  0  0  0
   -2.8560    8.6360   -3.1630 N   0  0  0  0  0  0  0  0  0  0  0  0
   -1.8550    9.5040   -3.3070 C   0  0  0  0  0  0  0  0  0  0  0  0
   -3.0040    7.5800   -4.0120 C   0  0  0  0  0  0  0  0  0  0  0  0
   -2.2130    7.3720   -4.9380 O   0  0  0  0  0  0  0  0  0  0  0  0
   -4.1850    6.5580   -3.8290 C   0  0  0  0  0  0  0  0  0  0  0  0
   -5.1000    6.5510   -5.0840 C   0  0  0  0  0  0  0  0  0  0  0  0
   -5.0770    6.8560   -2.6890 N   0  0  0  0  0  0  0  0  0  0  0  0
   -6.3860    6.3510   -3.1130 C   0  0  0  0  0  0  0  0  0  0  0  0
   -6.4890    6.8810   -4.5410 C   0  0  0  0  0  0  0  0  0  0  0  0
   -6.7980    8.6990   -4.6360 S   0  0  0  0  0  0  0  0  0  0  0  0
   -8.2680    9.0770   -3.5830 C   0  0  0  0  0  0  0  0  0  0  0  0
   -8.4670   10.5930   -3.6580 C   0  0  0  0  0  0  0  0  0  0  0  0
   -9.0560   11.1280   -2.3370 C   0  0  0  0  0  0  0  0  0  0  0  0
   -9.5090    8.5770   -4.3030 C   0  0  0  0  0  0  0  0  0  0  0  0
  -10.0970    7.1870   -4.2670 C   0  0  0  0  0  0  0  0  0  0  0  0
  -11.0820    6.9910   -4.9840 O   0  0  0  0  0  0  0  0  0  0  0  0
   -9.5630    6.3330   -3.5510 O   0  0  0  0  0  0  0  0  0  0  0  0
  -10.0500    9.5000   -5.0690 N   0  0  0  0  0  0  0  0  0  0  0  0
   -9.3750   10.7920   -4.9160 C   0  0  0  0  0  0  0  0  0  0  0  0
  -10.5350   11.7820   -4.6600 C   0  0  0  0  0  0  0  0  0  0  0  0
  -10.3200   13.1650   -5.3150 C   0  0  0  0  0  0  0  0  0  0  0  0
   -9.1470   13.9040   -4.6620 C   0  0  0  0  0  0  0  0  0  0  0  0
  -10.1550   13.0880   -6.7640 O   0  0  0  0  0  0  0  0  0  0  0  0
  -11.8610   11.1350   -5.1270 C   0  0  0  0  0  0  0  0  0  0  0  0
  -12.6300   10.5850   -4.3230 O   0  0  0  0  0  0  0  0  0  0  0  0
   -3.2632    8.7424   -1.0912 H   0  0  0  0  0  0  0  0  0  0  0  0
   -4.1745    9.9087   -2.1089 H   0  0  0  0  0  0  0  0  0  0  0  0
   -4.6286    8.1708   -2.1089 H   0  0  0  0  0  0  0  0  0  0  0  0
   -1.4949    9.8162   -2.3156 H   0  0  0  0  0  0  0  0  0  0  0  0
   -1.0335    9.0275   -3.8621 H   0  0  0  0  0  0  0  0  0  0  0  0
   -2.2103   10.3847   -3.8621 H   0  0  0  0  0  0  0  0  0  0  0  0
   -3.6828    5.5949   -3.6550 H   0  0  0  0  0  0  0  0  0  0  0  0
   -4.7739    7.3121   -5.8081 H   0  0  0  0  0  0  0  0  0  0  0  0
   -5.0749    5.5889   -5.6167 H   0  0  0  0  0  0  0  0  0  0  0  0
   -4.7568    6.3713   -1.8385 H   0  0  0  0  0  0  0  0  0  0  0  0
   -6.4151    5.2516   -3.0926 H   0  0  0  0  0  0  0  0  0  0  0  0
   -7.2140    6.6699   -2.4629 H   0  0  0  0  0  0  0  0  0  0  0  0
   -7.3334    6.4415   -5.0922 H   0  0  0  0  0  0  0  0  0  0  0  0
   -8.1289    8.6564   -2.5762 H   0  0  0  0  0  0  0  0  0  0  0  0
   -7.5371   11.1696   -3.7712 H   0  0  0  0  0  0  0  0  0  0  0  0
   -8.5384   10.6579   -1.4878 H   0  0  0  0  0  0  0  0  0  0  0  0
   -8.9210   12.2187   -2.2905 H   0  0  0  0  0  0  0  0  0  0  0  0
  -10.1287   10.8890   -2.2905 H   0  0  0  0  0  0  0  0  0  0  0  0
   -9.6125    6.4121   -2.5654 H   0  0  0  0  0  0  0  0  0  0  0  0
   -8.7627   11.1500   -5.7568 H   0  0  0  0  0  0  0  0  0  0  0  0
  -10.5744   11.9802   -3.5787 H   0  0  0  0  0  0  0  0  0  0  0  0
  -11.2388   13.7435   -5.1383 H   0  0  0  0  0  0  0  0  0  0  0  0
   -9.2402   13.8453   -3.5675 H   0  0  0  0  0  0  0  0  0  0  0  0
   -8.2006   13.4387   -4.9749 H   0  0  0  0  0  0  0  0  0  0  0  0
   -9.1581   14.9585   -4.9749 H   0  0  0  0  0  0  0  0  0  0  0  0
   -9.2785   12.6790   -6.9750 H   0  0  0  0  0  0  0  0  0  0  0  0
  -12.1275   11.1632   -6.1939 H   0  0  0  0  0  0  0  0  0  0  0  0
  2  1  1  0
  3  2  1  0
  4  2  1  0
  4  6  1  0
  5  4  2  0
  6  8  1  0
  7  6  1  0
  7 10  1  0
  9  8  1  0
 10  9  1  0
 11 10  1  0
 11 12  1  0
 13 12  1  0
 13 14  1  0
 15 12  1  0
 15 16  1  0
 16 18  1  0
 17 16  2  0
 19 15  2  0
 19 20  1  0
 20 13  1  0
 20 21  1  0
 22 21  1  0
 22 23  1  0
 24 22  1  0
 25 21  1  0
 25 26  2  0
  1 27  1  0
  1 28  1  0
  1 29  1  0
  3 30  1  0
  3 31  1  0
  3 32  1  0
  6 33  1  0
  7 34  1  0
  7 35  1  0
  8 36  1  0
  9 37  1  0
  9 38  1  0
 10 39  1  0
 12 40  1  0
 13 41  1  0
 14 42  1  0
 14 43  1  0
 14 44  1  0
 18 45  1  0
 20 46  1  0
 21 47  1  0
 22 48  1  0
 23 49  1  0
 23 50  1  0
 23 51  1  0
 24 52  1  0
 25 53  1  0
A    1
CBE
A    2
NBC
A    3
CBD
A    4
C
A    5
O
A    6
CA
A    7
CB
A    8
N
A    9
CD
A   10
CG
A   11
SAK
A   12
CAI
A   13
CAH
A   14
CAS
A   15
CAL
A   16
CAM
A   17
OAT
A   18
OAU
A   19
NAJ
A   20
CAD
A   21
CAB
A   22
CAE
A   23
CAF
A   24
OAG
A   25
CAA
A   26
OAC
M  END
