4GU9_4GU_A_701
     RDKit          3D

 25 27  0  0  0  0  0  0  0  0999 V2000
   13.0880   26.8810  -42.1700 C   0  0  0  0  0  0  0  0  0  0  0  0
   14.1250   26.7320  -41.2250 C   0  0  0  0  0  0  0  0  0  0  0  0
   15.2630   25.9740  -41.5990 C   0  0  0  0  0  0  0  0  0  0  0  0
   11.9620   27.6310  -41.8390 N   0  0  0  0  0  0  0  0  0  0  0  0
   15.4800   26.7190  -39.5100 N   0  0  0  0  0  0  0  0  0  0  0  0
   13.2770   26.3110  -43.3740 N   0  0  0  0  0  0  0  0  0  0  0  0
   15.3320   25.4330  -42.8070 N   0  0  0  0  0  0  0  0  0  0  0  0
   16.1000   25.9810  -40.5370 N   0  0  0  0  0  0  0  0  0  0  0  0
   10.7110   27.5960  -42.4880 C   0  0  0  0  0  0  0  0  0  0  0  0
   14.3570   25.5930  -43.6670 C   0  0  0  0  0  0  0  0  0  0  0  0
   14.3240   27.1820  -39.9060 C   0  0  0  0  0  0  0  0  0  0  0  0
    9.7610   28.5700  -42.1360 C   0  0  0  0  0  0  0  0  0  0  0  0
   10.0690   29.5120  -41.2270 F   0  0  0  0  0  0  0  0  0  0  0  0
   10.3550   26.6140  -43.4350 C   0  0  0  0  0  0  0  0  0  0  0  0
    8.4870   28.5630  -42.7060 C   0  0  0  0  0  0  0  0  0  0  0  0
    9.0850   26.6180  -44.0140 C   0  0  0  0  0  0  0  0  0  0  0  0
    8.1500   27.5900  -43.6530 C   0  0  0  0  0  0  0  0  0  0  0  0
   12.0523   28.2754  -41.0405 H   0  0  0  0  0  0  0  0  0  0  0  0
   17.0240   25.5284  -40.4880 H   0  0  0  0  0  0  0  0  0  0  0  0
   14.4338   25.1210  -44.6576 H   0  0  0  0  0  0  0  0  0  0  0  0
   13.6351   27.8067  -39.3185 H   0  0  0  0  0  0  0  0  0  0  0  0
   11.0828   25.8398  -43.7193 H   0  0  0  0  0  0  0  0  0  0  0  0
    7.7480   29.3224  -42.4107 H   0  0  0  0  0  0  0  0  0  0  0  0
    8.8197   25.8522  -44.7578 H   0  0  0  0  0  0  0  0  0  0  0  0
    7.1505   27.5907  -44.1122 H   0  0  0  0  0  0  0  0  0  0  0  0
  1  2  1  0
  1  4  1  0
  1  6  2  0
  2  3  2  0
  2 11  1  0
  3  7  1  0
  3  8  1  0
  4  9  1  0
  5  8  1  0
  5 11  2  0
  6 10  1  0
  7 10  2  0
  9 12  2  0
  9 14  1  0
 12 13  1  0
 12 15  1  0
 14 16  2  0
 15 17  2  0
 16 17  1  0
  4 18  1  0
  8 19  1  0
 10 20  1  0
 11 21  1  0
 14 22  1  0
 15 23  1  0
 16 24  1  0
 17 25  1  0
A    1
C1
A    2
C2
A    3
C3
A    4
N4
A    5
N5
A    6
N6
A    7
N7
A    8
N8
A    9
C9
A   10
C10
A   11
C11
A   12
C12
A   13
F13
A   14
C14
A   15
C15
A   16
C16
A   17
C17
M  END
