3RTU_KLJ_A_1
     RDKit          3D

 35 35  0  0  0  0  0  0  0  0999 V2000
    2.9740   -5.4250    6.2410 C   0  0  0  0  0  0  0  0  0  0  0  0
    1.1180   -4.6960    3.6700 N   0  0  0  0  0  0  0  0  0  0  0  0
    7.4880   -7.1700    9.2720 O   0  0  0  0  0  0  0  0  0  0  0  0
    1.2130   -5.8970    4.7650 S   0  0  0  0  0  0  0  0  0  0  0  0
    4.0510   -5.9790    7.1420 C   0  0  0  0  0  0  0  0  0  0  0  0
    1.1340   -1.6050    5.3550 N   0  0  0  0  0  0  0  0  0  0  0  0
    2.7470   -2.4250    3.9810 O   0  0  0  0  0  0  0  0  0  0  0  0
    3.9120   -6.3250    8.4630 C   0  0  0  0  0  0  0  0  0  0  0  0
    0.1290   -6.7800    4.5230 O   0  0  0  0  0  0  0  0  0  0  0  0
    5.0750   -6.7640    9.1670 C   0  0  0  0  0  0  0  0  0  0  0  0
    2.0570   -1.0630    6.2300 O   0  0  0  0  0  0  0  0  0  0  0  0
    6.3650   -6.7700    8.5410 C   0  0  0  0  0  0  0  0  0  0  0  0
    2.4410   -6.5540    4.4420 O   0  0  0  0  0  0  0  0  0  0  0  0
    5.3260   -5.9750    6.5120 C   0  0  0  0  0  0  0  0  0  0  0  0
    6.5000   -6.3750    7.1800 C   0  0  0  0  0  0  0  0  0  0  0  0
    1.4440   -5.5550    6.3510 C   0  0  0  0  0  0  0  0  0  0  0  0
    8.7860   -7.3350    8.7100 C   0  0  0  0  0  0  0  0  0  0  0  0
    1.5820   -2.4150    4.3990 C   0  0  0  0  0  0  0  0  0  0  0  0
    0.5510   -3.3770    3.8460 C   0  0  0  0  0  0  0  0  0  0  0  0
    3.2107   -5.8385    5.2496 H   0  0  0  0  0  0  0  0  0  0  0  0
    3.0572   -4.3692    6.5383 H   0  0  0  0  0  0  0  0  0  0  0  0
    0.5948   -5.1023    2.8813 H   0  0  0  0  0  0  0  0  0  0  0  0
    0.1306   -1.3885    5.4404 H   0  0  0  0  0  0  0  0  0  0  0  0
    2.9347   -6.2660    8.9644 H   0  0  0  0  0  0  0  0  0  0  0  0
    4.9791   -7.1038   10.2088 H   0  0  0  0  0  0  0  0  0  0  0  0
    1.7679   -1.2328    7.1615 H   0  0  0  0  0  0  0  0  0  0  0  0
    5.3981   -5.6475    5.4644 H   0  0  0  0  0  0  0  0  0  0  0  0
    7.4763   -6.3818    6.6732 H   0  0  0  0  0  0  0  0  0  0  0  0
    1.1299   -6.3729    7.0161 H   0  0  0  0  0  0  0  0  0  0  0  0
    0.8888   -4.7059    6.7762 H   0  0  0  0  0  0  0  0  0  0  0  0
    9.5262   -7.4291    9.5182 H   0  0  0  0  0  0  0  0  0  0  0  0
    8.8039   -8.2427    8.0888 H   0  0  0  0  0  0  0  0  0  0  0  0
    9.0305   -6.4607    8.0888 H   0  0  0  0  0  0  0  0  0  0  0  0
    0.1962   -3.0048    2.8736 H   0  0  0  0  0  0  0  0  0  0  0  0
   -0.2839   -3.4455    4.5590 H   0  0  0  0  0  0  0  0  0  0  0  0
  1 16  1  0
  1  5  1  0
  2 19  1  0
  2  4  1  0
  4 16  1  0
  5  8  2  0
  6 11  1  0
  7 18  2  0
  8 10  1  0
  9  4  2  0
 12  3  1  0
 12 10  2  0
 13  4  2  0
 14  5  1  0
 14 15  2  0
 15 12  1  0
 17  3  1  0
 18  6  1  0
 19 18  1  0
  1 20  1  0
  1 21  1  0
  2 22  1  0
  6 23  1  0
  8 24  1  0
 10 25  1  0
 11 26  1  0
 14 27  1  0
 15 28  1  0
 16 29  1  0
 16 30  1  0
 17 31  1  0
 17 32  1  0
 17 33  1  0
 19 34  1  0
 19 35  1  0
A    1
C1
A    2
N1
A    3
O1
A    4
S1
A    5
C2
A    6
N2
A    7
O2
A    8
C3
A    9
O3
A   10
C4
A   11
O4
A   12
C5
A   13
O5
A   14
C6
A   15
C7
A   16
C8
A   17
C9
A   18
C10
A   19
C11
M  END
