4GV0_8ME_A_601
     RDKit          3D

 42 44  0  0  0  0  0  0  0  0999 V2000
   23.6940   -0.5520   14.2070 C   0  0  0  0  0  0  0  0  0  0  0  0
   24.2810    0.5610   13.6220 C   0  0  0  0  0  0  0  0  0  0  0  0
   24.9290    0.3610   12.4310 C   0  0  0  0  0  0  0  0  0  0  0  0
   24.9870   -0.9130   11.8540 C   0  0  0  0  0  0  0  0  0  0  0  0
   24.4330   -1.9530   12.4260 N   0  0  0  0  0  0  0  0  0  0  0  0
   23.7500   -1.7950   13.5940 C   0  0  0  0  0  0  0  0  0  0  0  0
   23.1390   -3.0070   14.2610 C   0  0  0  0  0  0  0  0  0  0  0  0
   24.3160   -3.9510   14.5360 C   0  0  0  0  0  0  0  0  0  0  0  0
   22.2000   -3.6980   13.3710 N   0  0  0  0  0  0  0  0  0  0  0  0
   20.9340   -3.3220   13.3180 C   0  0  0  0  0  0  0  0  0  0  0  0
   20.5030   -2.4080   13.9990 O   0  0  0  0  0  0  0  0  0  0  0  0
   19.9990   -4.1170   12.4010 C   0  0  0  0  0  0  0  0  0  0  0  0
   19.0390   -4.8870   13.3000 C   0  0  0  0  0  0  0  0  0  0  0  0
   18.1770   -5.8540   12.5560 C   0  0  0  0  0  0  0  0  0  0  0  0
   18.5720   -7.1160   12.2680 N   0  0  0  0  0  0  0  0  0  0  0  0
   17.7020   -7.9110   11.5830 C   0  0  0  0  0  0  0  0  0  0  0  0
   18.0660   -9.2540   11.3090 C   0  0  0  0  0  0  0  0  0  0  0  0
   17.2270  -10.1170   10.6190 C   0  0  0  0  0  0  0  0  0  0  0  0
   15.9750   -9.6170   10.2060 C   0  0  0  0  0  0  0  0  0  0  0  0
   15.5910   -8.2960   10.5340 C   0  0  0  0  0  0  0  0  0  0  0  0
   16.4240   -7.4540   11.2300 C   0  0  0  0  0  0  0  0  0  0  0  0
   16.0190   -6.1480   11.5080 C   0  0  0  0  0  0  0  0  0  0  0  0
   14.8800   -5.6880   11.2010 O   0  0  0  0  0  0  0  0  0  0  0  0
   16.9360   -5.3880   12.1860 N   0  0  0  0  0  0  0  0  0  0  0  0
   23.1762   -0.4469   15.1718 H   0  0  0  0  0  0  0  0  0  0  0  0
   24.2288    1.5547   14.0910 H   0  0  0  0  0  0  0  0  0  0  0  0
   25.4086    1.2107   11.9231 H   0  0  0  0  0  0  0  0  0  0  0  0
   25.5112   -1.0441   10.8958 H   0  0  0  0  0  0  0  0  0  0  0  0
   22.5863   -2.7103   15.1646 H   0  0  0  0  0  0  0  0  0  0  0  0
   24.4523   -4.0603   15.6220 H   0  0  0  0  0  0  0  0  0  0  0  0
   24.1080   -4.9355   14.0916 H   0  0  0  0  0  0  0  0  0  0  0  0
   25.2319   -3.5342   14.0916 H   0  0  0  0  0  0  0  0  0  0  0  0
   22.5283   -4.4790   12.7852 H   0  0  0  0  0  0  0  0  0  0  0  0
   20.5812   -4.8168   11.7834 H   0  0  0  0  0  0  0  0  0  0  0  0
   19.4494   -3.4457   11.7248 H   0  0  0  0  0  0  0  0  0  0  0  0
   19.6282   -5.4448   14.0427 H   0  0  0  0  0  0  0  0  0  0  0  0
   18.3706   -4.1497   13.7687 H   0  0  0  0  0  0  0  0  0  0  0  0
   19.0433   -9.6227   11.6540 H   0  0  0  0  0  0  0  0  0  0  0  0
   17.5273  -11.1528   10.4022 H   0  0  0  0  0  0  0  0  0  0  0  0
   15.2939  -10.2572    9.6261 H   0  0  0  0  0  0  0  0  0  0  0  0
   14.5999   -7.9334   10.2239 H   0  0  0  0  0  0  0  0  0  0  0  0
   16.6839   -4.4198   12.4309 H   0  0  0  0  0  0  0  0  0  0  0  0
 19 20  2  0
 19 18  1  0
 20 21  1  0
 18 17  2  0
 23 22  2  0
 21 22  1  0
 21 16  2  0
 17 16  1  0
 22 24  1  0
 16 15  1  0
  4  5  2  0
  4  3  1  0
 24 14  1  0
 15 14  2  0
 12 13  1  0
 12 10  1  0
  5  6  1  0
  3  2  2  0
 14 13  1  0
 10  9  1  0
 10 11  2  0
  9  7  1  0
  6  1  2  0
  6  7  1  0
  2  1  1  0
  7  8  1  0
  1 25  1  0
  2 26  1  0
  3 27  1  0
  4 28  1  0
  7 29  1  0
  8 30  1  0
  8 31  1  0
  8 32  1  0
  9 33  1  0
 12 34  1  0
 12 35  1  0
 13 36  1  0
 13 37  1  0
 17 38  1  0
 18 39  1  0
 19 40  1  0
 20 41  1  0
 24 42  1  0
A    1
CAI
A    2
CAE
A    3
CAD
A    4
CAH
A    5
NAN
A    6
CAT
A    7
CAX
A    8
CAA
A    9
NAP
A   10
CAR
A   11
OAB
A   12
CAL
A   13
CAM
A   14
CAS
A   15
NAO
A   16
CAV
A   17
CAJ
A   18
CAF
A   19
CAG
A   20
CAK
A   21
CAW
A   22
CAU
A   23
OAC
A   24
NAQ
M  END
