4GV4_MEJ_A_601
     RDKit          3D

 43 45  0  0  0  0  0  0  0  0999 V2000
   23.7890   -0.1620   14.1280 C   0  0  0  0  0  0  0  0  0  0  0  0
   24.4360    0.7840   13.3740 C   0  0  0  0  0  0  0  0  0  0  0  0
   25.0030    0.5300   12.1580 C   0  0  0  0  0  0  0  0  0  0  0  0
   24.9280   -0.7730   11.6510 C   0  0  0  0  0  0  0  0  0  0  0  0
   24.2670   -1.7630   12.3840 C   0  0  0  0  0  0  0  0  0  0  0  0
   23.6990   -1.4660   13.6400 C   0  0  0  0  0  0  0  0  0  0  0  0
   22.9840   -2.4800   14.4770 C   0  0  0  0  0  0  0  0  0  0  0  0
   24.0030   -3.3720   15.2110 C   0  0  0  0  0  0  0  0  0  0  0  0
   22.1400   -3.3440   13.6070 N   0  0  0  0  0  0  0  0  0  0  0  0
   20.8590   -3.0540   13.3940 C   0  0  0  0  0  0  0  0  0  0  0  0
   20.2980   -2.0280   13.7700 O   0  0  0  0  0  0  0  0  0  0  0  0
   20.0940   -4.0550   12.5330 C   0  0  0  0  0  0  0  0  0  0  0  0
   18.9610   -4.6330   13.3820 C   0  0  0  0  0  0  0  0  0  0  0  0
   18.1210   -5.6020   12.6310 C   0  0  0  0  0  0  0  0  0  0  0  0
   18.5580   -6.8450   12.3660 N   0  0  0  0  0  0  0  0  0  0  0  0
   17.7350   -7.6810   11.6640 C   0  0  0  0  0  0  0  0  0  0  0  0
   18.2030   -8.9820   11.3960 C   0  0  0  0  0  0  0  0  0  0  0  0
   17.3870   -9.8660   10.7110 C   0  0  0  0  0  0  0  0  0  0  0  0
   16.1160   -9.4510   10.3080 C   0  0  0  0  0  0  0  0  0  0  0  0
   15.6120   -8.1610   10.5900 C   0  0  0  0  0  0  0  0  0  0  0  0
   16.4550   -7.2890   11.2460 C   0  0  0  0  0  0  0  0  0  0  0  0
   16.0010   -6.0170   11.5880 C   0  0  0  0  0  0  0  0  0  0  0  0
   14.8720   -5.6010   11.3130 O   0  0  0  0  0  0  0  0  0  0  0  0
   16.8830   -5.1920   12.2670 N   0  0  0  0  0  0  0  0  0  0  0  0
   23.3487    0.1030   15.1006 H   0  0  0  0  0  0  0  0  0  0  0  0
   24.5019    1.8072   13.7724 H   0  0  0  0  0  0  0  0  0  0  0  0
   25.5054    1.3280   11.5917 H   0  0  0  0  0  0  0  0  0  0  0  0
   25.3867   -1.0163   10.6813 H   0  0  0  0  0  0  0  0  0  0  0  0
   24.1893   -2.7822   11.9776 H   0  0  0  0  0  0  0  0  0  0  0  0
   22.3561   -1.9511   15.2091 H   0  0  0  0  0  0  0  0  0  0  0  0
   23.8737   -3.2588   16.2975 H   0  0  0  0  0  0  0  0  0  0  0  0
   23.8399   -4.4229   14.9298 H   0  0  0  0  0  0  0  0  0  0  0  0
   25.0231   -3.0713   14.9298 H   0  0  0  0  0  0  0  0  0  0  0  0
   22.5530   -4.1772   13.1641 H   0  0  0  0  0  0  0  0  0  0  0  0
   20.7679   -4.8619   12.2093 H   0  0  0  0  0  0  0  0  0  0  0  0
   19.6891   -3.5607   11.6376 H   0  0  0  0  0  0  0  0  0  0  0  0
   19.3985   -5.1457   14.2513 H   0  0  0  0  0  0  0  0  0  0  0  0
   18.3138   -3.7975   13.6870 H   0  0  0  0  0  0  0  0  0  0  0  0
   19.2051   -9.2921   11.7271 H   0  0  0  0  0  0  0  0  0  0  0  0
   17.7362  -10.8847   10.4865 H   0  0  0  0  0  0  0  0  0  0  0  0
   15.4824  -10.1555    9.7493 H   0  0  0  0  0  0  0  0  0  0  0  0
   14.5930   -7.8659   10.2992 H   0  0  0  0  0  0  0  0  0  0  0  0
   16.5868   -4.2341   12.5029 H   0  0  0  0  0  0  0  0  0  0  0  0
 19 20  2  0
 19 18  1  0
 20 21  1  0
 18 17  2  0
 21 22  1  0
 21 16  2  0
 23 22  2  0
 17 16  1  0
 22 24  1  0
  4  3  2  0
  4  5  1  0
 16 15  1  0
  3  2  1  0
 24 14  1  0
 15 14  2  0
  5  6  2  0
 12 13  1  0
 12 10  1  0
 14 13  1  0
  2  1  2  0
 10  9  1  0
 10 11  2  0
  9  7  1  0
  6  1  1  0
  6  7  1  0
  7  8  1  0
  1 25  1  0
  2 26  1  0
  3 27  1  0
  4 28  1  0
  5 29  1  0
  7 30  1  0
  8 31  1  0
  8 32  1  0
  8 33  1  0
  9 34  1  0
 12 35  1  0
 12 36  1  0
 13 37  1  0
 13 38  1  0
 17 39  1  0
 18 40  1  0
 19 41  1  0
 20 42  1  0
 24 43  1  0
A    1
CAI
A    2
CAE
A    3
CAD
A    4
CAF
A    5
CAJ
A    6
CAS
A    7
CAX
A    8
CAA
A    9
NAP
A   10
CAR
A   11
OAB
A   12
CAM
A   13
CAN
A   14
CAT
A   15
NAO
A   16
CAV
A   17
CAK
A   18
CAG
A   19
CAH
A   20
CAL
A   21
CAW
A   22
CAU
A   23
OAC
A   24
NAQ
M  END
