4F7C_0SG_A_306
     RDKit          3D

122122  0  0  0  0  0  0  0  0999 V2000
  -24.6380    4.0850  -19.9130 C   0  0  0  0  0  0  0  0  0  0  0  0
  -25.6690    4.1080  -18.7690 C   0  0  0  0  0  0  0  0  0  0  0  0
  -26.3850    5.4550  -18.7440 C   0  0  0  0  0  0  0  0  0  0  0  0
  -27.8840    5.2110  -18.8650 C   0  0  0  0  0  0  0  0  0  0  0  0
  -28.5340    5.5040  -17.5130 C   0  0  0  0  0  0  0  0  0  0  0  0
  -29.9900    5.0280  -17.4850 C   0  0  0  0  0  0  0  0  0  0  0  0
  -30.0750    3.4880  -17.4470 C   0  0  0  0  0  0  0  0  0  0  0  0
  -31.5000    3.0450  -17.0820 C   0  0  0  0  0  0  0  0  0  0  0  0
  -31.4740    2.2350  -15.7850 C   0  0  0  0  0  0  0  0  0  0  0  0
  -32.4860    1.0910  -15.8740 C   0  0  0  0  0  0  0  0  0  0  0  0
  -31.7150   -0.2320  -15.7720 C   0  0  0  0  0  0  0  0  0  0  0  0
  -32.6470   -1.3410  -15.2610 C   0  0  0  0  0  0  0  0  0  0  0  0
  -31.9780   -2.6790  -15.5500 C   0  0  0  0  0  0  0  0  0  0  0  0
  -32.8700   -3.7960  -15.0380 C   0  0  0  0  0  0  0  0  0  0  0  0
  -31.9990   -4.7610  -14.2310 C   0  0  0  0  0  0  0  0  0  0  0  0
  -32.5090   -6.1930  -14.3730 C   0  0  0  0  0  0  0  0  0  0  0  0
  -31.3790   -7.0530  -14.5250 O   0  0  0  0  0  0  0  0  0  0  0  0
  -33.3080   -6.5830  -13.1220 C   0  0  0  0  0  0  0  0  0  0  0  0
  -33.4830   -8.1060  -13.0070 C   0  0  0  0  0  0  0  0  0  0  0  0
  -33.3700   -8.7390  -14.2820 O   0  0  0  0  0  0  0  0  0  0  0  0
  -34.1110   -9.9450  -14.1520 C   0  0  0  0  0  0  0  0  0  0  0  0
  -33.1690  -10.9700  -13.7340 O   0  0  0  0  0  0  0  0  0  0  0  0
  -34.7850  -10.3050  -15.4860 C   0  0  0  0  0  0  0  0  0  0  0  0
  -35.7650   -9.3390  -15.8650 O   0  0  0  0  0  0  0  0  0  0  0  0
  -35.4610  -11.6320  -15.3010 C   0  0  0  0  0  0  0  0  0  0  0  0
  -36.1030  -11.9790  -16.5120 O   0  0  0  0  0  0  0  0  0  0  0  0
  -37.2840  -12.9490  -16.4990 S   0  0  0  0  0  0  0  0  0  0  0  0
  -37.8540  -13.0190  -17.9180 O   0  0  0  0  0  0  0  0  0  0  0  0
  -36.8330  -14.3510  -16.0830 O   0  0  0  0  0  0  0  0  0  0  0  0
  -38.3310  -12.4390  -15.4990 O   0  0  0  0  0  0  0  0  0  0  0  0
  -34.4050  -12.6710  -14.9830 C   0  0  0  0  0  0  0  0  0  0  0  0
  -33.4360  -12.7190  -16.0630 O   0  0  0  0  0  0  0  0  0  0  0  0
  -33.7690  -12.2790  -13.6520 C   0  0  0  0  0  0  0  0  0  0  0  0
  -32.6840  -13.2690  -13.2630 C   0  0  0  0  0  0  0  0  0  0  0  0
  -32.1430  -12.8390  -12.0180 O   0  0  0  0  0  0  0  0  0  0  0  0
  -31.1890  -13.7790  -11.3140 S   0  0  0  0  0  0  0  0  0  0  0  0
  -29.9580  -13.9000  -12.2150 O   0  0  0  0  0  0  0  0  0  0  0  0
  -30.7580  -13.2720   -9.9280 O   0  0  0  0  0  0  0  0  0  0  0  0
  -31.9090  -15.1210  -11.1500 O   0  0  0  0  0  0  0  0  0  0  0  0
  -34.6070   -5.8770  -13.1400 N   0  0  0  0  0  0  0  0  0  0  0  0
  -35.3940   -5.7760  -12.0650 C   0  0  0  0  0  0  0  0  0  0  0  0
  -35.1130   -6.3270  -10.9970 O   0  0  0  0  0  0  0  0  0  0  0  0
  -36.6970   -4.9380  -12.2860 C   0  0  0  0  0  0  0  0  0  0  0  0
  -37.1620   -4.1530  -11.0360 C   0  0  0  0  0  0  0  0  0  0  0  0
  -36.7860   -2.6550  -11.1240 C   0  0  0  0  0  0  0  0  0  0  0  0
  -37.0130   -1.8720   -9.7820 C   0  0  0  0  0  0  0  0  0  0  0  0
  -36.8060   -0.3310   -9.9650 C   0  0  0  0  0  0  0  0  0  0  0  0
  -36.9650    0.4500   -8.6400 C   0  0  0  0  0  0  0  0  0  0  0  0
  -36.1510    1.7700   -8.6520 C   0  0  0  0  0  0  0  0  0  0  0  0
  -36.5890    2.7520   -7.5410 C   0  0  0  0  0  0  0  0  0  0  0  0
  -35.3850    3.2850   -6.7190 C   0  0  0  0  0  0  0  0  0  0  0  0
  -35.6780    3.3130   -5.1700 C   0  0  0  0  0  0  0  0  0  0  0  0
  -34.6320    2.5890   -4.2620 C   0  0  0  0  0  0  0  0  0  0  0  0
  -23.6224    4.0623  -19.4909 H   0  0  0  0  0  0  0  0  0  0  0  0
  -24.7976    3.1902  -20.5325 H   0  0  0  0  0  0  0  0  0  0  0  0
  -24.7576    4.9860  -20.5325 H   0  0  0  0  0  0  0  0  0  0  0  0
  -26.4055    3.3060  -18.9253 H   0  0  0  0  0  0  0  0  0  0  0  0
  -25.1510    3.9547  -17.8108 H   0  0  0  0  0  0  0  0  0  0  0  0
  -26.0410    6.0732  -19.5863 H   0  0  0  0  0  0  0  0  0  0  0  0
  -26.1645    5.9804  -17.8030 H   0  0  0  0  0  0  0  0  0  0  0  0
  -28.3074    5.8760  -19.6321 H   0  0  0  0  0  0  0  0  0  0  0  0
  -28.0736    4.1672  -19.1559 H   0  0  0  0  0  0  0  0  0  0  0  0
  -27.9711    4.9842  -16.7238 H   0  0  0  0  0  0  0  0  0  0  0  0
  -28.5191    6.5913  -17.3471 H   0  0  0  0  0  0  0  0  0  0  0  0
  -30.4835    5.4364  -16.5907 H   0  0  0  0  0  0  0  0  0  0  0  0
  -30.4886    5.3810  -18.3997 H   0  0  0  0  0  0  0  0  0  0  0  0
  -29.8111    3.0849  -18.4359 H   0  0  0  0  0  0  0  0  0  0  0  0
  -29.3752    3.1082  -16.6881 H   0  0  0  0  0  0  0  0  0  0  0  0
  -32.1348    3.9329  -16.9455 H   0  0  0  0  0  0  0  0  0  0  0  0
  -31.9052    2.4209  -17.8921 H   0  0  0  0  0  0  0  0  0  0  0  0
  -30.4663    1.8213  -15.6319 H   0  0  0  0  0  0  0  0  0  0  0  0
  -31.7356    2.8893  -14.9404 H   0  0  0  0  0  0  0  0  0  0  0  0
  -33.2088    1.1667  -15.0482 H   0  0  0  0  0  0  0  0  0  0  0  0
  -33.0366    1.1405  -16.8250 H   0  0  0  0  0  0  0  0  0  0  0  0
  -31.3301   -0.5075  -16.7649 H   0  0  0  0  0  0  0  0  0  0  0  0
  -30.8772   -0.1102  -15.0697 H   0  0  0  0  0  0  0  0  0  0  0  0
  -32.8056   -1.2277  -14.1784 H   0  0  0  0  0  0  0  0  0  0  0  0
  -33.6247   -1.2833  -15.7618 H   0  0  0  0  0  0  0  0  0  0  0  0
  -31.8309   -2.7916  -16.6343 H   0  0  0  0  0  0  0  0  0  0  0  0
  -31.0004   -2.7230  -15.0476 H   0  0  0  0  0  0  0  0  0  0  0  0
  -33.9511   -3.8941  -15.2158 H   0  0  0  0  0  0  0  0  0  0  0  0
  -31.1259   -4.4640  -13.6313 H   0  0  0  0  0  0  0  0  0  0  0  0
  -33.1692   -6.2822  -15.2483 H   0  0  0  0  0  0  0  0  0  0  0  0
  -31.0388   -7.3119  -13.6320 H   0  0  0  0  0  0  0  0  0  0  0  0
  -32.7471   -6.2750  -12.2273 H   0  0  0  0  0  0  0  0  0  0  0  0
  -34.4763   -8.3218  -12.5866 H   0  0  0  0  0  0  0  0  0  0  0  0
  -32.6901   -8.4982  -12.3532 H   0  0  0  0  0  0  0  0  0  0  0  0
  -34.9176   -9.8447  -13.4109 H   0  0  0  0  0  0  0  0  0  0  0  0
  -34.0222  -10.3342  -16.2780 H   0  0  0  0  0  0  0  0  0  0  0  0
  -36.1681   -8.9417  -15.0528 H   0  0  0  0  0  0  0  0  0  0  0  0
  -36.1964  -11.5823  -14.4844 H   0  0  0  0  0  0  0  0  0  0  0  0
  -38.0094  -12.5956  -14.5759 H   0  0  0  0  0  0  0  0  0  0  0  0
  -34.8344  -13.6797  -14.8923 H   0  0  0  0  0  0  0  0  0  0  0  0
  -32.5222  -12.7643  -15.6847 H   0  0  0  0  0  0  0  0  0  0  0  0
  -34.5692  -12.2781  -12.8973 H   0  0  0  0  0  0  0  0  0  0  0  0
  -33.1137  -14.2762  -13.1586 H   0  0  0  0  0  0  0  0  0  0  0  0
  -31.9005  -13.3100  -14.0340 H   0  0  0  0  0  0  0  0  0  0  0  0
  -31.2105  -13.8043   -9.2265 H   0  0  0  0  0  0  0  0  0  0  0  0
  -34.9192   -5.4436  -14.0207 H   0  0  0  0  0  0  0  0  0  0  0  0
  -36.5116   -4.2182  -13.0969 H   0  0  0  0  0  0  0  0  0  0  0  0
  -37.4972   -5.6530  -12.5278 H   0  0  0  0  0  0  0  0  0  0  0  0
  -38.2548   -4.2409  -10.9468 H   0  0  0  0  0  0  0  0  0  0  0  0
  -36.6573   -4.5806  -10.1571 H   0  0  0  0  0  0  0  0  0  0  0  0
  -35.7230   -2.5783  -11.3962 H   0  0  0  0  0  0  0  0  0  0  0  0
  -37.4441   -2.2002  -11.8791 H   0  0  0  0  0  0  0  0  0  0  0  0
  -38.0401   -2.0542   -9.4330 H   0  0  0  0  0  0  0  0  0  0  0  0
  -36.2762   -2.2309   -9.0483 H   0  0  0  0  0  0  0  0  0  0  0  0
  -35.7939   -0.1554  -10.3585 H   0  0  0  0  0  0  0  0  0  0  0  0
  -37.5787    0.0295  -10.6599 H   0  0  0  0  0  0  0  0  0  0  0  0
  -38.0286    0.6882   -8.4919 H   0  0  0  0  0  0  0  0  0  0  0  0
  -36.5850   -0.1802   -7.8224 H   0  0  0  0  0  0  0  0  0  0  0  0
  -35.0874    1.5287   -8.5090 H   0  0  0  0  0  0  0  0  0  0  0  0
  -36.3304    2.2618   -9.6194 H   0  0  0  0  0  0  0  0  0  0  0  0
  -37.1054    3.6048   -8.0058 H   0  0  0  0  0  0  0  0  0  0  0  0
  -37.2524    2.2078   -6.8527 H   0  0  0  0  0  0  0  0  0  0  0  0
  -34.5169    2.6347   -6.9023 H   0  0  0  0  0  0  0  0  0  0  0  0
  -35.1907    4.3185   -7.0416 H   0  0  0  0  0  0  0  0  0  0  0  0
  -35.7253    4.3660   -4.8553 H   0  0  0  0  0  0  0  0  0  0  0  0
  -36.6198    2.7607   -5.0362 H   0  0  0  0  0  0  0  0  0  0  0  0
  -34.8820    2.7621   -3.2049 H   0  0  0  0  0  0  0  0  0  0  0  0
  -34.6501    1.5092   -4.4710 H   0  0  0  0  0  0  0  0  0  0  0  0
  -33.6277    2.9862   -4.4710 H   0  0  0  0  0  0  0  0  0  0  0  0
  1  2  1  0
  4  3  1  0
  4  5  1  0
  2  3  1  0
 28 27  2  0
  5  6  1  0
  6  7  1  0
  7  8  1  0
  8  9  1  0
 26 27  1  0
 26 25  1  0
 27 29  2  0
 27 30  1  0
 32 31  1  0
 10  9  1  0
 10 11  1  0
 24 23  1  0
 11 12  1  0
 13 12  1  0
 13 14  1  0
 23 25  1  0
 23 21  1  0
 25 31  1  0
 14 15  2  0
 31 33  1  0
 17 16  1  0
 16 15  1  0
 16 18  1  0
 20 21  1  0
 20 19  1  0
 21 22  1  0
 22 33  1  0
 33 34  1  0
 34 35  1  0
 40 18  1  0
 40 41  1  0
 18 19  1  0
 43 41  1  0
 43 44  1  0
 37 36  2  0
 41 42  2  0
 35 36  1  0
 36 39  2  0
 36 38  1  0
 45 44  1  0
 45 46  1  0
 47 46  1  0
 47 48  1  0
 49 48  1  0
 49 50  1  0
 50 51  1  0
 51 52  1  0
 52 53  1  0
  1 54  1  0
  1 55  1  0
  1 56  1  0
  2 57  1  0
  2 58  1  0
  3 59  1  0
  3 60  1  0
  4 61  1  0
  4 62  1  0
  5 63  1  0
  5 64  1  0
  6 65  1  0
  6 66  1  0
  7 67  1  0
  7 68  1  0
  8 69  1  0
  8 70  1  0
  9 71  1  0
  9 72  1  0
 10 73  1  0
 10 74  1  0
 11 75  1  0
 11 76  1  0
 12 77  1  0
 12 78  1  0
 13 79  1  0
 13 80  1  0
 14 81  1  0
 15 82  1  0
 16 83  1  0
 17 84  1  0
 18 85  1  0
 19 86  1  0
 19 87  1  0
 21 88  1  0
 23 89  1  0
 24 90  1  0
 25 91  1  0
 30 92  1  0
 31 93  1  0
 32 94  1  0
 33 95  1  0
 34 96  1  0
 34 97  1  0
 38 98  1  0
 40 99  1  0
 43100  1  0
 43101  1  0
 44102  1  0
 44103  1  0
 45104  1  0
 45105  1  0
 46106  1  0
 46107  1  0
 47108  1  0
 47109  1  0
 48110  1  0
 48111  1  0
 49112  1  0
 49113  1  0
 50114  1  0
 50115  1  0
 51116  1  0
 51117  1  0
 52118  1  0
 52119  1  0
 53120  1  0
 53121  1  0
 53122  1  0
A    1
C17
A    2
C16
A    3
C15
A    4
C14
A    5
C13
A    6
C12
A    7
C11
A    8
C10
A    9
C9
A   10
C8
A   11
C7
A   12
C6
A   13
C5
A   14
C4
A   15
C3
A   16
C2
A   17
O1
A   18
C1
A   19
C
A   20
O
A   21
C43
A   22
O6
A   23
C44
A   24
O3
A   25
C45
A   26
O4
A   27
S
A   28
O9
A   29
O8
A   30
O10
A   31
C46
A   32
O5
A   33
C47
A   34
C48
A   35
O11
A   36
S1
A   37
O13
A   38
O14
A   39
O12
A   40
N
A   41
C18
A   42
O2
A   43
C19
A   44
C20
A   45
C21
A   46
C22
A   47
C23
A   48
C24
A   49
C25
A   50
C26
A   51
C27
A   52
C28
A   53
C29
M  END
