1GVC_NTA_A_1252
     RDKit          3D

 22 21  0  0  0  0  0  0  0  0999 V2000
  -35.3040   33.0920    6.6550 N   0  0  0  0  0  0  0  0  0  0  0  0
  -34.4060   32.5590    7.6500 C   0  0  0  0  0  0  0  0  0  0  0  0
  -35.5340   34.5090    6.6920 C   0  0  0  0  0  0  0  0  0  0  0  0
  -36.2990   32.2110    6.0820 C   0  0  0  0  0  0  0  0  0  0  0  0
  -33.1600   31.9240    7.1020 C   0  0  0  0  0  0  0  0  0  0  0  0
  -33.0910   31.5540    5.9440 O   0  0  0  0  0  0  0  0  0  0  0  0
  -32.2190   31.7790    7.8520 O   0  0  0  0  0  0  0  0  0  0  0  0
  -36.2570   32.0610    4.5910 C   0  0  0  0  0  0  0  0  0  0  0  0
  -35.4060   35.3000    5.4140 C   0  0  0  0  0  0  0  0  0  0  0  0
  -34.5130   35.1480    4.5590 O   0  0  0  0  0  0  0  0  0  0  0  0
  -36.2610   36.1640    5.3210 O   0  0  0  0  0  0  0  0  0  0  0  0
  -37.1600   31.4200    4.0810 O   0  0  0  0  0  0  0  0  0  0  0  0
  -35.3810   32.5620    3.9190 O   0  0  0  0  0  0  0  0  0  0  0  0
  -34.1059   33.3820    8.3153 H   0  0  0  0  0  0  0  0  0  0  0  0
  -34.9576   31.7601    8.1671 H   0  0  0  0  0  0  0  0  0  0  0  0
  -36.5577   34.6606    7.0648 H   0  0  0  0  0  0  0  0  0  0  0  0
  -34.7210   34.8938    7.3253 H   0  0  0  0  0  0  0  0  0  0  0  0
  -36.1621   31.2137    6.5254 H   0  0  0  0  0  0  0  0  0  0  0  0
  -37.2718   32.6719    6.3084 H   0  0  0  0  0  0  0  0  0  0  0  0
  -32.9135   30.6020    5.7383 H   0  0  0  0  0  0  0  0  0  0  0  0
  -33.5780   34.9888    4.8427 H   0  0  0  0  0  0  0  0  0  0  0  0
  -37.8191   30.9521    4.6527 H   0  0  0  0  0  0  0  0  0  0  0  0
  1  2  1  0
  1  3  1  0
  1  4  1  0
  2  5  1  0
  3  9  1  0
  4  8  1  0
  5  6  1  0
  5  7  2  0
  8 12  1  0
  8 13  2  0
  9 10  1  0
  9 11  2  0
  2 14  1  0
  2 15  1  0
  3 16  1  0
  3 17  1  0
  4 18  1  0
  4 19  1  0
  6 20  1  0
 10 21  1  0
 12 22  1  0
A    1
N1
A    2
C6
A    3
C10
A    4
C2
A    5
C7
A    6
O8
A    7
O9
A    8
C3
A    9
C11
A   10
O12
A   11
O13
A   12
O4
A   13
O5
M  END
