4H1J_0YH_A_701
     RDKit          3D

 64 67  0  0  0  0  0  0  0  0999 V2000
   -9.4640    0.9050   17.0560 C   0  0  0  0  0  0  0  0  0  0  0  0
   -0.1920   -7.4860   11.7500 C   0  0  0  0  0  0  0  0  0  0  0  0
   -7.4180    2.3900    8.0780 C   0  0  0  0  0  0  0  0  0  0  0  0
   -4.9570    1.9950    7.8880 C   0  0  0  0  0  0  0  0  0  0  0  0
   -5.8120    3.7630    9.4080 C   0  0  0  0  0  0  0  0  0  0  0  0
    0.9480  -10.5010    7.7840 C   0  0  0  0  0  0  0  0  0  0  0  0
   -7.5360    0.1640   15.6210 C   0  0  0  0  0  0  0  0  0  0  0  0
   -9.3820    1.3300   14.5790 C   0  0  0  0  0  0  0  0  0  0  0  0
   -6.8730    0.0930   14.3920 C   0  0  0  0  0  0  0  0  0  0  0  0
   -8.7470    1.2270   13.3460 C   0  0  0  0  0  0  0  0  0  0  0  0
   -2.3060   -8.7890    8.2250 C   0  0  0  0  0  0  0  0  0  0  0  0
   -2.9340   -7.8970    9.0800 C   0  0  0  0  0  0  0  0  0  0  0  0
   -0.3630   -8.7860    9.6590 C   0  0  0  0  0  0  0  0  0  0  0  0
   -3.8690   -5.4380   10.7500 C   0  0  0  0  0  0  0  0  0  0  0  0
   -5.9210    0.0370   10.0700 C   0  0  0  0  0  0  0  0  0  0  0  0
   -8.7710    0.7980   15.7150 C   0  0  0  0  0  0  0  0  0  0  0  0
   -0.9840   -7.9080   10.5380 C   0  0  0  0  0  0  0  0  0  0  0  0
   -7.4850    0.6130   13.2460 C   0  0  0  0  0  0  0  0  0  0  0  0
   -1.0140   -9.2380    8.4990 C   0  0  0  0  0  0  0  0  0  0  0  0
   -2.2870   -7.4430   10.2410 C   0  0  0  0  0  0  0  0  0  0  0  0
   -3.0530   -6.5310   11.1350 C   0  0  0  0  0  0  0  0  0  0  0  0
   -6.2760    1.3910   10.0010 C   0  0  0  0  0  0  0  0  0  0  0  0
   -4.3900   -4.9100   11.8920 C   0  0  0  0  0  0  0  0  0  0  0  0
   -6.2990   -0.4470   11.3010 C   0  0  0  0  0  0  0  0  0  0  0  0
   -5.2340   -2.6570   11.4270 C   0  0  0  0  0  0  0  0  0  0  0  0
   -6.0970    2.3650    8.8530 C   0  0  0  0  0  0  0  0  0  0  0  0
   -3.9400   -5.6460   12.9360 N   0  0  0  0  0  0  0  0  0  0  0  0
   -3.1300   -6.6560   12.4360 N   0  0  0  0  0  0  0  0  0  0  0  0
   -6.8510    1.7060   11.1360 N   0  0  0  0  0  0  0  0  0  0  0  0
   -5.2730   -3.8470   12.0580 N   0  0  0  0  0  0  0  0  0  0  0  0
   -6.1630   -1.7520   11.8010 N   0  0  0  0  0  0  0  0  0  0  0  0
   -6.8700    0.5960   11.9850 N   0  0  0  0  0  0  0  0  0  0  0  0
   -4.4050   -2.4250   10.5670 O   0  0  0  0  0  0  0  0  0  0  0  0
   -0.4230  -10.1010    7.6150 O   0  0  0  0  0  0  0  0  0  0  0  0
   -8.7236    0.7907   17.8615 H   0  0  0  0  0  0  0  0  0  0  0  0
   -9.9490    1.8887   17.1406 H   0  0  0  0  0  0  0  0  0  0  0  0
  -10.2231    0.1134   17.1406 H   0  0  0  0  0  0  0  0  0  0  0  0
   -0.7350   -7.7753   12.6618 H   0  0  0  0  0  0  0  0  0  0  0  0
    0.7907   -7.9801   11.7361 H   0  0  0  0  0  0  0  0  0  0  0  0
   -0.0540   -6.3948   11.7361 H   0  0  0  0  0  0  0  0  0  0  0  0
   -8.2588    2.4059    8.7870 H   0  0  0  0  0  0  0  0  0  0  0  0
   -7.4549    3.2890    7.4452 H   0  0  0  0  0  0  0  0  0  0  0  0
   -7.4889    1.4930    7.4452 H   0  0  0  0  0  0  0  0  0  0  0  0
   -4.0667    1.7061    8.4659 H   0  0  0  0  0  0  0  0  0  0  0  0
   -5.2719    1.1529    7.2541 H   0  0  0  0  0  0  0  0  0  0  0  0
   -4.7174    2.8615    7.2541 H   0  0  0  0  0  0  0  0  0  0  0  0
   -5.8188    3.7294   10.5075 H   0  0  0  0  0  0  0  0  0  0  0  0
   -4.8261    4.1026    9.0577 H   0  0  0  0  0  0  0  0  0  0  0  0
   -6.5862    4.4614    9.0577 H   0  0  0  0  0  0  0  0  0  0  0  0
    1.1806  -10.5688    8.8570 H   0  0  0  0  0  0  0  0  0  0  0  0
    1.1045  -11.4823    7.3121 H   0  0  0  0  0  0  0  0  0  0  0  0
    1.6076   -9.7579    7.3121 H   0  0  0  0  0  0  0  0  0  0  0  0
   -7.0797   -0.2829   16.5166 H   0  0  0  0  0  0  0  0  0  0  0  0
  -10.3598    1.8277   14.6582 H   0  0  0  0  0  0  0  0  0  0  0  0
   -5.8767   -0.3687   14.3264 H   0  0  0  0  0  0  0  0  0  0  0  0
   -9.2338    1.6275   12.4445 H   0  0  0  0  0  0  0  0  0  0  0  0
   -2.8294   -9.1449    7.3253 H   0  0  0  0  0  0  0  0  0  0  0  0
   -3.9485   -7.5413    8.8471 H   0  0  0  0  0  0  0  0  0  0  0  0
    0.6578   -9.1340    9.8752 H   0  0  0  0  0  0  0  0  0  0  0  0
   -4.0475   -5.0837    9.7240 H   0  0  0  0  0  0  0  0  0  0  0  0
   -5.4249   -0.5401    9.2757 H   0  0  0  0  0  0  0  0  0  0  0  0
   -4.1607   -5.4842   13.9290 H   0  0  0  0  0  0  0  0  0  0  0  0
   -6.0371   -3.9845   12.7348 H   0  0  0  0  0  0  0  0  0  0  0  0
   -6.8366   -2.0469   12.5222 H   0  0  0  0  0  0  0  0  0  0  0  0
 34  6  1  0
 34 19  1  0
  4 26  1  0
  3 26  1  0
 11 19  2  0
 11 12  1  0
 19 13  1  0
 26  5  1  0
 26 22  1  0
 12 20  2  0
 13 17  2  0
 22 15  1  0
 22 29  2  0
 15 24  2  0
 20 17  1  0
 20 21  1  0
 17  2  1  0
 33 25  2  0
 14 21  1  0
 14 23  2  0
 21 28  2  0
 29 32  1  0
 24 31  1  0
 24 32  1  0
 25 31  1  0
 25 30  1  0
 23 30  1  0
 23 27  1  0
 32 18  1  0
 28 27  1  0
 18 10  2  0
 18  9  1  0
 10  8  1  0
  9  7  2  0
  8 16  2  0
  7 16  1  0
 16  1  1  0
  1 35  1  0
  1 36  1  0
  1 37  1  0
  2 38  1  0
  2 39  1  0
  2 40  1  0
  3 41  1  0
  3 42  1  0
  3 43  1  0
  4 44  1  0
  4 45  1  0
  4 46  1  0
  5 47  1  0
  5 48  1  0
  5 49  1  0
  6 50  1  0
  6 51  1  0
  6 52  1  0
  7 53  1  0
  8 54  1  0
  9 55  1  0
 10 56  1  0
 11 57  1  0
 12 58  1  0
 13 59  1  0
 14 60  1  0
 15 61  1  0
 27 62  1  0
 30 63  1  0
 31 64  1  0
A    1
C1
A    2
C2
A    3
C3
A    4
C4
A    5
C5
A    6
C6
A    7
C7
A    8
C8
A    9
C9
A   10
C10
A   11
C11
A   12
C12
A   13
C13
A   14
C14
A   15
C15
A   16
C16
A   17
C17
A   18
C18
A   19
C19
A   20
C20
A   21
C21
A   22
C22
A   23
C23
A   24
C24
A   25
C25
A   26
C26
A   27
N27
A   28
N28
A   29
N29
A   30
N30
A   31
N31
A   32
N32
A   33
O33
A   34
O34
M  END
