1HPU_A12_A_1602
     RDKit          3D

 44 46  0  0  0  0  0  0  0  0999 V2000
   -2.9040   -0.4200   -1.8380 P   0  0  0  0  0  0  0  0  0  0  0  0
   -1.6010   -0.8300   -2.4600 O   0  0  0  0  0  0  0  0  0  0  0  0
   -2.8800   -0.6540   -0.3630 O   0  0  0  0  0  0  0  0  0  0  0  0
   -3.1720    1.0220   -2.0740 O   0  0  0  0  0  0  0  0  0  0  0  0
   -5.8500   -0.8760   -1.9480 P   0  0  0  0  0  0  0  0  0  0  0  0
   -5.8730   -0.8620   -0.4610 O   0  0  0  0  0  0  0  0  0  0  0  0
   -6.8600   -1.8190   -2.4900 O   0  0  0  0  0  0  0  0  0  0  0  0
   -4.2360   -1.3560   -2.5110 C   0  0  0  0  0  0  0  0  0  0  0  0
   -6.1600    0.5990   -2.4620 O   0  0  0  0  0  0  0  0  0  0  0  0
   -6.1360    0.8370   -3.8540 C   0  0  0  0  0  0  0  0  0  0  0  0
   -7.0180    2.0090   -4.1970 C   0  0  0  0  0  0  0  0  0  0  0  0
   -6.4280    3.2420   -3.6920 O   0  0  0  0  0  0  0  0  0  0  0  0
   -7.1470    2.2220   -5.6930 C   0  0  0  0  0  0  0  0  0  0  0  0
   -8.2030    1.3860   -6.1730 O   0  0  0  0  0  0  0  0  0  0  0  0
   -7.4570    3.7120   -5.7830 C   0  0  0  0  0  0  0  0  0  0  0  0
   -8.7980    3.9780   -5.4710 O   0  0  0  0  0  0  0  0  0  0  0  0
   -6.5820    4.2770   -4.6530 C   0  0  0  0  0  0  0  0  0  0  0  0
   -5.2520    4.6980   -5.0960 N   0  0  0  0  0  0  0  0  0  0  0  0
   -4.0690    4.0250   -4.9190 C   0  0  0  0  0  0  0  0  0  0  0  0
   -3.0240    4.6420   -5.4280 N   0  0  0  0  0  0  0  0  0  0  0  0
   -3.5570    5.8010   -5.9700 C   0  0  0  0  0  0  0  0  0  0  0  0
   -2.9650    6.8820   -6.6340 C   0  0  0  0  0  0  0  0  0  0  0  0
   -1.6550    6.9790   -6.8570 N   0  0  0  0  0  0  0  0  0  0  0  0
   -3.7710    7.8770   -7.0620 N   0  0  0  0  0  0  0  0  0  0  0  0
   -5.0820    7.7900   -6.8070 C   0  0  0  0  0  0  0  0  0  0  0  0
   -5.7600    6.8280   -6.1740 N   0  0  0  0  0  0  0  0  0  0  0  0
   -4.9280    5.8490   -5.7780 C   0  0  0  0  0  0  0  0  0  0  0  0
   -2.9687    0.2112    0.1099 H   0  0  0  0  0  0  0  0  0  0  0  0
   -3.2586    1.4881   -1.2049 H   0  0  0  0  0  0  0  0  0  0  0  0
   -7.3337   -2.2613   -1.7416 H   0  0  0  0  0  0  0  0  0  0  0  0
   -4.2102   -1.2480   -3.6054 H   0  0  0  0  0  0  0  0  0  0  0  0
   -4.0870   -2.3914   -2.1707 H   0  0  0  0  0  0  0  0  0  0  0  0
   -5.1044    1.0547   -4.1676 H   0  0  0  0  0  0  0  0  0  0  0  0
   -6.5071   -0.0566   -4.3772 H   0  0  0  0  0  0  0  0  0  0  0  0
   -7.9978    1.7833   -3.7509 H   0  0  0  0  0  0  0  0  0  0  0  0
   -6.2673    1.9631   -6.3005 H   0  0  0  0  0  0  0  0  0  0  0  0
   -8.6924    0.9986   -5.4046 H   0  0  0  0  0  0  0  0  0  0  0  0
   -7.2759    4.1262   -6.7858 H   0  0  0  0  0  0  0  0  0  0  0  0
   -8.9099    4.0002   -4.4876 H   0  0  0  0  0  0  0  0  0  0  0  0
   -7.0782    5.1732   -4.2523 H   0  0  0  0  0  0  0  0  0  0  0  0
   -4.0006    3.0580   -4.3991 H   0  0  0  0  0  0  0  0  0  0  0  0
   -0.9998    7.0275   -6.0638 H   0  0  0  0  0  0  0  0  0  0  0  0
   -1.2975    7.0055   -7.8226 H   0  0  0  0  0  0  0  0  0  0  0  0
   -5.6891    8.6320   -7.1711 H   0  0  0  0  0  0  0  0  0  0  0  0
  1  2  2  0
  1  3  1  0
  1  4  1  0
  1  8  1  0
  5  6  2  0
  5  7  1  0
  5  8  1  0
  5  9  1  0
  9 10  1  0
 10 11  1  0
 11 12  1  0
 11 13  1  0
 12 17  1  0
 13 14  1  0
 13 15  1  0
 15 16  1  0
 15 17  1  0
 17 18  1  0
 18 19  1  0
 18 27  1  0
 19 20  2  0
 20 21  1  0
 21 22  1  0
 21 27  2  0
 22 23  1  0
 22 24  2  0
 24 25  1  0
 25 26  2  0
 26 27  1  0
  3 28  1  0
  4 29  1  0
  7 30  1  0
  8 31  1  0
  8 32  1  0
 10 33  1  0
 10 34  1  0
 11 35  1  0
 13 36  1  0
 14 37  1  0
 15 38  1  0
 16 39  1  0
 17 40  1  0
 19 41  1  0
 23 42  1  0
 23 43  1  0
 25 44  1  0
A    1
PB
A    2
O1B
A    3
O2B
A    4
O3B
A    5
PA
A    6
O1A
A    7
O2A
A    8
C3A
A    9
O5'
A   10
C5'
A   11
C4'
A   12
O4'
A   13
C3'
A   14
O3'
A   15
C2'
A   16
O2'
A   17
C1'
A   18
N9
A   19
C8
A   20
N7
A   21
C5
A   22
C6
A   23
N6
A   24
N1
A   25
C2
A   26
N3
A   27
C4
M  END
