1H1T_PNS_B_1163
     RDKit          3D

 45 44  0  0  0  0  0  0  0  0999 V2000
   16.3290   21.5720   35.5480 O   0  0  0  0  0  0  0  0  0  0  0  0
   15.9540   22.2240   34.1670 P   0  0  0  0  0  0  0  0  0  0  0  0
   17.1810   22.9100   33.5390 O   0  0  0  0  0  0  0  0  0  0  0  0
   15.3400   21.1470   33.2330 O   0  0  0  0  0  0  0  0  0  0  0  0
   14.8440   23.3160   34.6810 O   0  0  0  0  0  0  0  0  0  0  0  0
   14.2110   24.2280   33.7680 C   0  0  0  0  0  0  0  0  0  0  0  0
   12.6790   24.3830   34.0920 C   0  0  0  0  0  0  0  0  0  0  0  0
   12.0170   22.9710   33.9890 C   0  0  0  0  0  0  0  0  0  0  0  0
   12.5360   24.9450   35.5580 C   0  0  0  0  0  0  0  0  0  0  0  0
   12.0990   25.4080   33.0030 C   0  0  0  0  0  0  0  0  0  0  0  0
   12.3690   24.9460   31.6610 O   0  0  0  0  0  0  0  0  0  0  0  0
   10.5360   25.7220   33.1430 C   0  0  0  0  0  0  0  0  0  0  0  0
   10.1660   26.6130   33.9900 O   0  0  0  0  0  0  0  0  0  0  0  0
    9.6700   25.0190   32.3400 N   0  0  0  0  0  0  0  0  0  0  0  0
    8.1970   25.2070   32.3570 C   0  0  0  0  0  0  0  0  0  0  0  0
    7.7760   26.0850   31.1420 C   0  0  0  0  0  0  0  0  0  0  0  0
    8.0620   27.5600   31.4180 C   0  0  0  0  0  0  0  0  0  0  0  0
    7.3550   28.2430   32.1850 O   0  0  0  0  0  0  0  0  0  0  0  0
    9.1130   28.0760   30.8030 N   0  0  0  0  0  0  0  0  0  0  0  0
    9.5750   29.5140   30.9480 C   0  0  0  0  0  0  0  0  0  0  0  0
   10.5510   29.5380   32.0220 C   0  0  0  0  0  0  0  0  0  0  0  0
   11.0550   31.1990   32.1700 S   0  0  0  0  0  0  0  0  0  0  0  0
   15.9990   22.1457   36.2842 H   0  0  0  0  0  0  0  0  0  0  0  0
   17.7763   23.2428   34.2566 H   0  0  0  0  0  0  0  0  0  0  0  0
   14.6965   25.2118   33.8487 H   0  0  0  0  0  0  0  0  0  0  0  0
   14.3134   23.8284   32.7483 H   0  0  0  0  0  0  0  0  0  0  0  0
   11.8327   22.5779   34.9997 H   0  0  0  0  0  0  0  0  0  0  0  0
   11.0630   23.0519   33.4474 H   0  0  0  0  0  0  0  0  0  0  0  0
   12.6894   22.2894   33.4474 H   0  0  0  0  0  0  0  0  0  0  0  0
   12.7405   24.1411   36.2804 H   0  0  0  0  0  0  0  0  0  0  0  0
   13.2542   25.7645   35.7082 H   0  0  0  0  0  0  0  0  0  0  0  0
   11.5134   25.3215   35.7082 H   0  0  0  0  0  0  0  0  0  0  0  0
   12.6285   26.3510   33.2039 H   0  0  0  0  0  0  0  0  0  0  0  0
   12.8681   24.0919   31.7002 H   0  0  0  0  0  0  0  0  0  0  0  0
   10.0644   24.3235   31.6907 H   0  0  0  0  0  0  0  0  0  0  0  0
    7.7008   24.2274   32.2919 H   0  0  0  0  0  0  0  0  0  0  0  0
    7.8999   25.7049   33.2918 H   0  0  0  0  0  0  0  0  0  0  0  0
    8.3416   25.7674   30.2536 H   0  0  0  0  0  0  0  0  0  0  0  0
    6.6965   25.9595   30.9716 H   0  0  0  0  0  0  0  0  0  0  0  0
    9.6558   27.4587   30.1823 H   0  0  0  0  0  0  0  0  0  0  0  0
   10.0356   29.8595   30.0107 H   0  0  0  0  0  0  0  0  0  0  0  0
    8.7276   30.1787   31.1717 H   0  0  0  0  0  0  0  0  0  0  0  0
   10.0954   29.1910   32.9612 H   0  0  0  0  0  0  0  0  0  0  0  0
   11.4023   28.8745   31.8098 H   0  0  0  0  0  0  0  0  0  0  0  0
   11.1553   31.5294   33.4958 H   0  0  0  0  0  0  0  0  0  0  0  0
  1  2  1  0
  2  3  1  0
  2  4  2  0
  2  5  1  0
  5  6  1  0
  6  7  1  0
  7  8  1  0
  7  9  1  0
  7 10  1  0
 10 11  1  0
 10 12  1  0
 12 13  2  0
 12 14  1  0
 14 15  1  0
 15 16  1  0
 16 17  1  0
 17 18  2  0
 17 19  1  0
 19 20  1  0
 20 21  1  0
 21 22  1  0
  1 23  1  0
  3 24  1  0
  6 25  1  0
  6 26  1  0
  8 27  1  0
  8 28  1  0
  8 29  1  0
  9 30  1  0
  9 31  1  0
  9 32  1  0
 10 33  1  0
 11 34  1  0
 14 35  1  0
 15 36  1  0
 15 37  1  0
 16 38  1  0
 16 39  1  0
 19 40  1  0
 20 41  1  0
 20 42  1  0
 21 43  1  0
 21 44  1  0
 22 45  1  0
A    1
O23
A    2
P24
A    3
O25
A    4
O26
A    5
O27
A    6
C28
A    7
C29
A    8
C30
A    9
C31
A   10
C32
A   11
O33
A   12
C34
A   13
O35
A   14
N36
A   15
C37
A   16
C38
A   17
C39
A   18
O40
A   19
N41
A   20
C42
A   21
C43
A   22
S44
M  END
