4H2V_H2V_C_101
     RDKit          3D

 51 50  0  0  0  0  0  0  0  0999 V2000
   93.4520   34.8730    8.3140 C   0  0  0  0  0  0  0  0  0  0  0  0
   89.1080   36.6310    9.4950 N   0  0  0  0  0  0  0  0  0  0  0  0
   91.5900   34.6470    6.3890 O   0  0  0  0  0  0  0  0  0  0  0  0
   92.1560   33.7890    5.1770 P   0  0  0  0  0  0  0  0  0  0  0  0
   85.2320   37.1790   16.1350 S   0  0  0  0  0  0  0  0  0  0  0  0
   92.4840   36.0410    8.1010 C   0  0  0  0  0  0  0  0  0  0  0  0
   87.9890   35.9510   13.4420 N   0  0  0  0  0  0  0  0  0  0  0  0
   91.5810   32.3670    5.3170 O   0  0  0  0  0  0  0  0  0  0  0  0
   93.2510   37.3530    8.2780 C   0  0  0  0  0  0  0  0  0  0  0  0
   84.1050   39.9230   17.9420 N   0  0  0  0  0  0  0  0  0  0  0  0
   91.7240   34.4570    3.8670 O   0  0  0  0  0  0  0  0  0  0  0  0
   91.8700   36.0220    6.6880 C   0  0  0  0  0  0  0  0  0  0  0  0
   91.4080   35.9530    9.2130 C   0  0  0  0  0  0  0  0  0  0  0  0
   91.7190   34.8080    9.9940 O   0  0  0  0  0  0  0  0  0  0  0  0
   89.9200   35.8440    8.7980 C   0  0  0  0  0  0  0  0  0  0  0  0
   89.5050   35.0250    7.9800 O   0  0  0  0  0  0  0  0  0  0  0  0
   87.7330   36.2530    9.7710 C   0  0  0  0  0  0  0  0  0  0  0  0
   87.5600   37.7030   12.1060 O   0  0  0  0  0  0  0  0  0  0  0  0
   87.6390   35.5390   11.0950 C   0  0  0  0  0  0  0  0  0  0  0  0
   85.0410   39.3660   14.7180 O   0  0  0  0  0  0  0  0  0  0  0  0
   87.7480   36.4970   12.2560 C   0  0  0  0  0  0  0  0  0  0  0  0
   87.5150   36.5620   14.6740 C   0  0  0  0  0  0  0  0  0  0  0  0
   86.0040   36.6430   14.5890 C   0  0  0  0  0  0  0  0  0  0  0  0
   84.6640   38.7830   15.7000 C   0  0  0  0  0  0  0  0  0  0  0  0
   83.6310   39.3560   16.6930 C   0  0  0  0  0  0  0  0  0  0  0  0
   93.5917   34.7045    9.3920 H   0  0  0  0  0  0  0  0  0  0  0  0
   93.0382   33.9648    7.8515 H   0  0  0  0  0  0  0  0  0  0  0  0
   94.4212   35.1110    7.8515 H   0  0  0  0  0  0  0  0  0  0  0  0
   89.4621   37.5313    9.8484 H   0  0  0  0  0  0  0  0  0  0  0  0
   93.3744   33.7257    5.1784 H   0  0  0  0  0  0  0  0  0  0  0  0
   88.5250   35.0728   13.4909 H   0  0  0  0  0  0  0  0  0  0  0  0
   91.4896   32.1410    6.2765 H   0  0  0  0  0  0  0  0  0  0  0  0
   93.3743   37.5638    9.3505 H   0  0  0  0  0  0  0  0  0  0  0  0
   94.2405   37.2659    7.8054 H   0  0  0  0  0  0  0  0  0  0  0  0
   92.6897   38.1725    7.8054 H   0  0  0  0  0  0  0  0  0  0  0  0
   83.6811   39.4159   18.7320 H   0  0  0  0  0  0  0  0  0  0  0  0
   85.1304   39.8383   17.9902 H   0  0  0  0  0  0  0  0  0  0  0  0
   92.5824   36.4332    5.9576 H   0  0  0  0  0  0  0  0  0  0  0  0
   90.9581   36.6353    6.6401 H   0  0  0  0  0  0  0  0  0  0  0  0
   91.4644   36.9231    9.7286 H   0  0  0  0  0  0  0  0  0  0  0  0
   91.6567   35.0372   10.9551 H   0  0  0  0  0  0  0  0  0  0  0  0
   87.1079   37.1576    9.8020 H   0  0  0  0  0  0  0  0  0  0  0  0
   87.3826   35.5779    8.9764 H   0  0  0  0  0  0  0  0  0  0  0  0
   86.6712   35.0193   11.1516 H   0  0  0  0  0  0  0  0  0  0  0  0
   88.4743   34.8261   11.1597 H   0  0  0  0  0  0  0  0  0  0  0  0
   87.8104   35.9465   15.5365 H   0  0  0  0  0  0  0  0  0  0  0  0
   87.9505   37.5639   14.8027 H   0  0  0  0  0  0  0  0  0  0  0  0
   85.6143   35.6474   14.3303 H   0  0  0  0  0  0  0  0  0  0  0  0
   85.7590   37.3938   13.8233 H   0  0  0  0  0  0  0  0  0  0  0  0
   83.0804   40.1490   16.1658 H   0  0  0  0  0  0  0  0  0  0  0  0
   83.0441   38.4790   17.0035 H   0  0  0  0  0  0  0  0  0  0  0  0
  2 17  1  0
  3 12  1  0
  4  3  1  0
  4  8  1  0
  6  1  1  0
  6  9  1  0
  6 13  1  0
  7 22  1  0
 11  4  2  0
 12  6  1  0
 13 14  1  0
 15  2  1  0
 15 13  1  0
 16 15  2  0
 17 19  1  0
 18 21  2  0
 19 21  1  0
 20 24  2  0
 21  7  1  0
 23  5  1  0
 23 22  1  0
 24  5  1  0
 24 25  1  0
 25 10  1  0
  1 26  1  0
  1 27  1  0
  1 28  1  0
  2 29  1  0
  4 30  1  0
  7 31  1  0
  8 32  1  0
  9 33  1  0
  9 34  1  0
  9 35  1  0
 10 36  1  0
 10 37  1  0
 12 38  1  0
 12 39  1  0
 13 40  1  0
 14 41  1  0
 17 42  1  0
 17 43  1  0
 19 44  1  0
 19 45  1  0
 22 46  1  0
 22 47  1  0
 23 48  1  0
 23 49  1  0
 25 50  1  0
 25 51  1  0
A    1
C
A    2
N
A    3
O
A    4
P
A    5
S
A    6
C1
A    7
N1
A    8
O1
A    9
C2
A   10
N2
A   11
O2
A   12
C3
A   13
C4
A   14
O4
A   15
C5
A   16
O5
A   17
C6
A   18
O6
A   19
C7
A   20
O7
A   21
C8
A   22
C9
A   23
C10
A   24
C11
A   25
C12
M  END
