4H30_0ZD_B_306
     RDKit          3D

112116  0  0  0  0  0  0  0  0999 V2000
  -16.2020   18.7810  -35.3360 O   0  0  0  0  0  0  0  0  0  0  0  0
  -16.6630   19.9200  -35.5530 C   0  0  0  0  0  0  0  0  0  0  0  0
  -16.9030   20.2770  -36.7160 O   0  0  0  0  0  0  0  0  0  0  0  0
  -16.9530   20.8570  -34.4100 C   0  0  0  0  0  0  0  0  0  0  0  0
  -18.4500   20.7860  -34.0330 C   0  0  0  0  0  0  0  0  0  0  0  0
  -18.8040   21.7100  -32.8790 C   0  0  0  0  0  0  0  0  0  0  0  0
  -19.0290   19.3910  -33.8180 C   0  0  0  0  0  0  0  0  0  0  0  0
  -15.9670   20.6850  -33.3150 N   0  0  0  0  0  0  0  0  0  0  0  0
  -14.8620   21.7210  -33.1780 S   0  0  0  0  0  0  0  0  0  0  0  0
  -15.3750   23.0180  -33.5500 O   0  0  0  0  0  0  0  0  0  0  0  0
  -13.6660   21.2950  -34.1780 C   0  0  0  0  0  0  0  0  0  0  0  0
  -13.6080   21.7870  -35.4890 C   0  0  0  0  0  0  0  0  0  0  0  0
  -12.5800   21.4120  -36.3580 C   0  0  0  0  0  0  0  0  0  0  0  0
  -11.5560   20.5550  -35.9380 C   0  0  0  0  0  0  0  0  0  0  0  0
  -10.4380   20.1730  -36.8500 C   0  0  0  0  0  0  0  0  0  0  0  0
   -9.9240   18.8770  -36.8890 C   0  0  0  0  0  0  0  0  0  0  0  0
   -8.8710   18.5640  -37.7540 C   0  0  0  0  0  0  0  0  0  0  0  0
   -8.3160   19.5420  -38.5750 C   0  0  0  0  0  0  0  0  0  0  0  0
   -8.8060   20.8420  -38.5280 C   0  0  0  0  0  0  0  0  0  0  0  0
   -9.8650   21.1470  -37.6700 C   0  0  0  0  0  0  0  0  0  0  0  0
  -11.5950   20.0710  -34.6230 C   0  0  0  0  0  0  0  0  0  0  0  0
  -12.6390   20.4350  -33.7550 C   0  0  0  0  0  0  0  0  0  0  0  0
  -14.3030   21.7120  -31.8390 O   0  0  0  0  0  0  0  0  0  0  0  0
  -15.9130   19.4090  -32.5790 C   0  0  0  0  0  0  0  0  0  0  0  0
  -16.2730   19.4610  -31.1040 C   0  0  0  0  0  0  0  0  0  0  0  0
  -16.0360   18.1230  -30.5780 N   0  0  0  0  0  0  0  0  0  0  0  0
  -16.7980   17.0630  -30.8350 C   0  0  0  0  0  0  0  0  0  0  0  0
  -17.8430   17.1610  -31.4820 O   0  0  0  0  0  0  0  0  0  0  0  0
  -16.4000   15.7160  -30.2800 C   0  0  0  0  0  0  0  0  0  0  0  0
  -17.2870   14.6450  -30.3640 C   0  0  0  0  0  0  0  0  0  0  0  0
  -16.9280   13.4020  -29.8430 C   0  0  0  0  0  0  0  0  0  0  0  0
  -15.6870   13.2220  -29.2390 C   0  0  0  0  0  0  0  0  0  0  0  0
  -15.1550   15.5290  -29.6680 C   0  0  0  0  0  0  0  0  0  0  0  0
  -14.7890   14.2830  -29.1480 C   0  0  0  0  0  0  0  0  0  0  0  0
  -13.4490   14.0690  -28.4950 C   0  0  0  0  0  0  0  0  0  0  0  0
  -13.2530   13.0280  -27.8680 O   0  0  0  0  0  0  0  0  0  0  0  0
  -12.4880   14.9930  -28.6050 N   0  0  0  0  0  0  0  0  0  0  0  0
  -11.2100   14.8760  -27.9000 C   0  0  0  0  0  0  0  0  0  0  0  0
  -11.4120   15.3750  -26.4750 C   0  0  0  0  0  0  0  0  0  0  0  0
  -10.2220   15.4200  -25.6030 N   0  0  0  0  0  0  0  0  0  0  0  0
  -10.0140   14.3950  -24.5510 C   0  0  0  0  0  0  0  0  0  0  0  0
  -11.0990   14.4690  -23.5060 C   0  0  0  0  0  0  0  0  0  0  0  0
  -10.8280   14.1800  -22.3240 O   0  0  0  0  0  0  0  0  0  0  0  0
  -12.2610   14.7980  -23.8040 O   0  0  0  0  0  0  0  0  0  0  0  0
   -9.8270   12.9330  -24.9990 C   0  0  0  0  0  0  0  0  0  0  0  0
   -8.7390   12.7730  -26.0540 C   0  0  0  0  0  0  0  0  0  0  0  0
  -11.1070   12.1900  -25.3750 C   0  0  0  0  0  0  0  0  0  0  0  0
   -9.3780   16.6900  -25.5880 S   0  0  0  0  0  0  0  0  0  0  0  0
   -8.0250   16.4250  -25.1830 O   0  0  0  0  0  0  0  0  0  0  0  0
   -9.4510   17.3150  -26.8870 O   0  0  0  0  0  0  0  0  0  0  0  0
  -10.0490   17.6910  -24.4900 C   0  0  0  0  0  0  0  0  0  0  0  0
   -9.6570   17.7220  -23.1390 C   0  0  0  0  0  0  0  0  0  0  0  0
  -10.2530   18.5900  -22.2170 C   0  0  0  0  0  0  0  0  0  0  0  0
  -11.0670   18.5720  -24.8770 C   0  0  0  0  0  0  0  0  0  0  0  0
  -11.6660   19.4420  -23.9630 C   0  0  0  0  0  0  0  0  0  0  0  0
  -11.2710   19.4570  -22.6190 C   0  0  0  0  0  0  0  0  0  0  0  0
  -11.8860   20.4240  -21.6610 C   0  0  0  0  0  0  0  0  0  0  0  0
  -13.2500   20.7140  -21.6860 C   0  0  0  0  0  0  0  0  0  0  0  0
  -13.7910   21.6360  -20.7870 C   0  0  0  0  0  0  0  0  0  0  0  0
  -12.9650   22.2950  -19.8790 C   0  0  0  0  0  0  0  0  0  0  0  0
  -11.6010   22.0280  -19.8630 C   0  0  0  0  0  0  0  0  0  0  0  0
  -11.0660   21.1000  -20.7490 C   0  0  0  0  0  0  0  0  0  0  0  0
  -16.0751   18.4674  -34.4056 H   0  0  0  0  0  0  0  0  0  0  0  0
  -16.8039   21.9052  -34.7084 H   0  0  0  0  0  0  0  0  0  0  0  0
  -18.9456   21.1485  -34.9457 H   0  0  0  0  0  0  0  0  0  0  0  0
  -18.6077   21.1977  -31.9256 H   0  0  0  0  0  0  0  0  0  0  0  0
  -18.1915   22.6218  -32.9382 H   0  0  0  0  0  0  0  0  0  0  0  0
  -19.8689   21.9792  -32.9382 H   0  0  0  0  0  0  0  0  0  0  0  0
  -19.1121   19.1907  -32.7396 H   0  0  0  0  0  0  0  0  0  0  0  0
  -20.0257   19.3325  -34.2797 H   0  0  0  0  0  0  0  0  0  0  0  0
  -18.3666   18.6439  -34.2797 H   0  0  0  0  0  0  0  0  0  0  0  0
  -14.3858   22.4810  -35.8403 H   0  0  0  0  0  0  0  0  0  0  0  0
  -12.5754   21.7964  -37.3886 H   0  0  0  0  0  0  0  0  0  0  0  0
  -10.3482   18.0989  -36.2374 H   0  0  0  0  0  0  0  0  0  0  0  0
   -8.4780   17.5371  -37.7861 H   0  0  0  0  0  0  0  0  0  0  0  0
   -7.4927   19.2868  -39.2584 H   0  0  0  0  0  0  0  0  0  0  0  0
   -8.3631   21.6245  -39.1617 H   0  0  0  0  0  0  0  0  0  0  0  0
  -10.2554   22.1750  -37.6397 H   0  0  0  0  0  0  0  0  0  0  0  0
  -10.8002   19.3992  -34.2666 H   0  0  0  0  0  0  0  0  0  0  0  0
  -12.6520   20.0402  -32.7284 H   0  0  0  0  0  0  0  0  0  0  0  0
  -16.6086   18.7114  -33.0683 H   0  0  0  0  0  0  0  0  0  0  0  0
  -14.8579   19.0996  -32.6102 H   0  0  0  0  0  0  0  0  0  0  0  0
  -15.6388   20.1931  -30.5827 H   0  0  0  0  0  0  0  0  0  0  0  0
  -17.3190   19.7685  -30.9583 H   0  0  0  0  0  0  0  0  0  0  0  0
  -15.2205   17.9882  -29.9635 H   0  0  0  0  0  0  0  0  0  0  0  0
  -18.2692   14.7795  -30.8406 H   0  0  0  0  0  0  0  0  0  0  0  0
  -17.6305   12.5582  -29.9099 H   0  0  0  0  0  0  0  0  0  0  0  0
  -15.4141   12.2373  -28.8316 H   0  0  0  0  0  0  0  0  0  0  0  0
  -14.4545   16.3739  -29.5949 H   0  0  0  0  0  0  0  0  0  0  0  0
  -12.6524   15.8137  -29.2053 H   0  0  0  0  0  0  0  0  0  0  0  0
  -10.8865   13.8247  -27.8852 H   0  0  0  0  0  0  0  0  0  0  0  0
  -10.4371   15.4716  -28.4079 H   0  0  0  0  0  0  0  0  0  0  0  0
  -11.8170   16.3959  -26.5358 H   0  0  0  0  0  0  0  0  0  0  0  0
  -12.0797   14.6366  -26.0071 H   0  0  0  0  0  0  0  0  0  0  0  0
   -9.0314   14.6732  -24.1422 H   0  0  0  0  0  0  0  0  0  0  0  0
  -11.2764   14.6582  -21.5822 H   0  0  0  0  0  0  0  0  0  0  0  0
   -9.4803   12.4285  -24.0850 H   0  0  0  0  0  0  0  0  0  0  0  0
   -7.7669   12.6300  -25.5594 H   0  0  0  0  0  0  0  0  0  0  0  0
   -8.9631   11.8981  -26.6820 H   0  0  0  0  0  0  0  0  0  0  0  0
   -8.7017   13.6753  -26.6820 H   0  0  0  0  0  0  0  0  0  0  0  0
  -11.6352   11.8834  -24.4601 H   0  0  0  0  0  0  0  0  0  0  0  0
  -11.7548   12.8525  -25.9679 H   0  0  0  0  0  0  0  0  0  0  0  0
  -10.8530   11.2989  -25.9679 H   0  0  0  0  0  0  0  0  0  0  0  0
   -8.8598   17.0451  -22.7980 H   0  0  0  0  0  0  0  0  0  0  0  0
   -9.9175   18.5892  -21.1694 H   0  0  0  0  0  0  0  0  0  0  0  0
  -11.4023   18.5788  -25.9246 H   0  0  0  0  0  0  0  0  0  0  0  0
  -12.4587   20.1246  -24.3032 H   0  0  0  0  0  0  0  0  0  0  0  0
  -13.9027   20.2144  -22.4170 H   0  0  0  0  0  0  0  0  0  0  0  0
  -14.8715   21.8422  -20.7959 H   0  0  0  0  0  0  0  0  0  0  0  0
  -13.3916   23.0255  -19.1759 H   0  0  0  0  0  0  0  0  0  0  0  0
  -10.9458   22.5503  -19.1503 H   0  0  0  0  0  0  0  0  0  0  0  0
   -9.9855   20.8942  -20.7335 H   0  0  0  0  0  0  0  0  0  0  0  0
 18 19  2  0
 18 17  1  0
 19 20  1  0
 17 16  2  0
 20 15  2  0
 16 15  1  0
 15 14  1  0
  3  2  2  0
 13 14  1  0
 13 12  2  0
 14 21  2  0
  2  1  1  0
  2  4  1  0
 12 11  1  0
 21 22  1  0
  4  5  1  0
  4  8  1  0
 11 22  2  0
 11  9  1  0
  5  7  1  0
  5  6  1  0
 10  9  2  0
  8  9  1  0
  8 24  1  0
  9 23  2  0
 24 25  1  0
 28 27  2  0
 25 26  1  0
 27 26  1  0
 27 29  1  0
 30 29  2  0
 30 31  1  0
 29 33  1  0
 31 32  2  0
 33 34  2  0
 32 34  1  0
 34 35  1  0
 37 35  1  0
 37 38  1  0
 35 36  2  0
 38 39  1  0
 50 48  2  0
 39 40  1  0
 46 45  1  0
 40 48  1  0
 40 41  1  0
 48 49  2  0
 48 51  1  0
 47 45  1  0
 45 41  1  0
 54 51  1  0
 54 55  2  0
 41 42  1  0
 51 52  2  0
 55 56  1  0
 44 42  2  0
 42 43  1  0
 52 53  1  0
 56 53  2  0
 56 57  1  0
 58 57  2  0
 58 59  1  0
 57 62  1  0
 59 60  2  0
 62 61  2  0
 60 61  1  0
  1 63  1  0
  4 64  1  0
  5 65  1  0
  6 66  1  0
  6 67  1  0
  6 68  1  0
  7 69  1  0
  7 70  1  0
  7 71  1  0
 12 72  1  0
 13 73  1  0
 16 74  1  0
 17 75  1  0
 18 76  1  0
 19 77  1  0
 20 78  1  0
 21 79  1  0
 22 80  1  0
 24 81  1  0
 24 82  1  0
 25 83  1  0
 25 84  1  0
 26 85  1  0
 30 86  1  0
 31 87  1  0
 32 88  1  0
 33 89  1  0
 37 90  1  0
 38 91  1  0
 38 92  1  0
 39 93  1  0
 39 94  1  0
 41 95  1  0
 43 96  1  0
 45 97  1  0
 46 98  1  0
 46 99  1  0
 46100  1  0
 47101  1  0
 47102  1  0
 47103  1  0
 52104  1  0
 53105  1  0
 54106  1  0
 55107  1  0
 58108  1  0
 59109  1  0
 60110  1  0
 61111  1  0
 62112  1  0
A    1
O62
A    2
C60
A    3
O61
A    4
C56
A    5
C57
A    6
C59
A    7
C58
A    8
N40
A    9
S41
A   10
O43
A   11
C45
A   12
C5A
A   13
C49
A   14
C48
A   15
C50
A   16
C55
A   17
C54
A   18
C53
A   19
C52
A   20
C51
A   21
C47
A   22
C46
A   23
O42
A   24
C39
A   25
C38
A   26
N37
A   27
C35
A   28
O36
A   29
C33
A   30
C32
A   31
C31
A   32
C30
A   33
C34
A   34
C29
A   35
C27
A   36
O28
A   37
N26
A   38
C25
A   39
C24
A   40
N16
A   41
C17
A   42
C21
A   43
O23
A   44
O22
A   45
C18
A   46
C20
A   47
C19
A   48
S13
A   49
O14
A   50
O15
A   51
C10
A   52
C9
A   53
C8
A   54
C11
A   55
C12
A   56
C7
A   57
C1
A   58
C6
A   59
C5
A   60
C4
A   61
C3
A   62
C2
M  END
