4H3F_10O_A_502
     RDKit          3D

 55 59  0  0  0  0  0  0  0  0999 V2000
   21.8620   10.3850   21.5640 C   0  0  0  0  0  0  0  0  0  0  0  0
   21.1720   11.6730   22.0590 C   0  0  0  0  0  0  0  0  0  0  0  0
   22.4630   11.3560   24.1820 N   0  0  0  0  0  0  0  0  0  0  0  0
   22.4780    9.9840   23.9550 C   0  0  0  0  0  0  0  0  0  0  0  0
   21.8150   12.2610   23.3420 C   0  0  0  0  0  0  0  0  0  0  0  0
   22.1740    9.5010   22.7020 N   0  0  0  0  0  0  0  0  0  0  0  0
   23.1090   10.7540   20.7800 C   0  0  0  0  0  0  0  0  0  0  0  0
   19.5370   10.1670   21.3280 N   0  0  0  0  0  0  0  0  0  0  0  0
   20.7860    9.7190   20.7100 C   0  0  0  0  0  0  0  0  0  0  0  0
   19.6950   11.3040   22.2440 C   0  0  0  0  0  0  0  0  0  0  0  0
   24.4860   10.6230   21.2060 C   0  0  0  0  0  0  0  0  0  0  0  0
   25.4310   11.0600   20.2420 C   0  0  0  0  0  0  0  0  0  0  0  0
   23.0970   11.4220   19.2090 S   0  0  0  0  0  0  0  0  0  0  0  0
   24.7930   11.5310   19.0810 C   0  0  0  0  0  0  0  0  0  0  0  0
   18.3400    9.5550   21.0370 C   0  0  0  0  0  0  0  0  0  0  0  0
   29.7790    9.2640   23.9810 N   0  0  0  0  0  0  0  0  0  0  0  0
   22.7720    9.1390   24.9360 N   0  0  0  0  0  0  0  0  0  0  0  0
   26.9210   11.0300   20.4680 C   0  0  0  0  0  0  0  0  0  0  0  0
   29.3580    9.7690   23.0340 C   0  0  0  0  0  0  0  0  0  0  0  0
   21.7440   13.4670   23.5620 O   0  0  0  0  0  0  0  0  0  0  0  0
   18.3940    8.5740   20.1010 N   0  0  0  0  0  0  0  0  0  0  0  0
   27.4740   10.4230   21.6210 C   0  0  0  0  0  0  0  0  0  0  0  0
   23.1720   11.9050   25.3740 C   0  0  0  0  0  0  0  0  0  0  0  0
   28.8650   10.3990   21.8500 C   0  0  0  0  0  0  0  0  0  0  0  0
   27.8260   11.6220   19.5440 C   0  0  0  0  0  0  0  0  0  0  0  0
   17.1090    9.9060   21.6560 C   0  0  0  0  0  0  0  0  0  0  0  0
   29.2280   11.6010   19.7670 C   0  0  0  0  0  0  0  0  0  0  0  0
   17.2840    7.9010   19.7290 C   0  0  0  0  0  0  0  0  0  0  0  0
   29.7600   10.9860   20.9270 C   0  0  0  0  0  0  0  0  0  0  0  0
   15.9430    9.2020   21.2700 C   0  0  0  0  0  0  0  0  0  0  0  0
   16.0290    8.1820   20.2890 C   0  0  0  0  0  0  0  0  0  0  0  0
   17.3610    6.8960   18.7670 O   0  0  0  0  0  0  0  0  0  0  0  0
   18.6700    6.6660   18.2430 C   0  0  0  0  0  0  0  0  0  0  0  0
   21.2902   12.4857   21.3272 H   0  0  0  0  0  0  0  0  0  0  0  0
   22.1642    8.4818   22.5538 H   0  0  0  0  0  0  0  0  0  0  0  0
   20.8740    8.6233   20.7499 H   0  0  0  0  0  0  0  0  0  0  0  0
   20.8576    9.9846   19.6449 H   0  0  0  0  0  0  0  0  0  0  0  0
   19.0376   12.1387   21.9593 H   0  0  0  0  0  0  0  0  0  0  0  0
   19.4274   11.0702   23.2850 H   0  0  0  0  0  0  0  0  0  0  0  0
   24.7740   10.2209   22.1885 H   0  0  0  0  0  0  0  0  0  0  0  0
   25.3227   11.9214   18.1995 H   0  0  0  0  0  0  0  0  0  0  0  0
   22.9997    9.4981   25.8741 H   0  0  0  0  0  0  0  0  0  0  0  0
   26.8015    9.9582   22.3570 H   0  0  0  0  0  0  0  0  0  0  0  0
   22.6910   11.5325   26.2905 H   0  0  0  0  0  0  0  0  0  0  0  0
   24.2238   11.5835   25.3553 H   0  0  0  0  0  0  0  0  0  0  0  0
   23.1240   13.0038   25.3553 H   0  0  0  0  0  0  0  0  0  0  0  0
   27.4316   12.1059   18.6383 H   0  0  0  0  0  0  0  0  0  0  0  0
   17.0639   10.7023   22.4136 H   0  0  0  0  0  0  0  0  0  0  0  0
   29.9051   12.0650   19.0347 H   0  0  0  0  0  0  0  0  0  0  0  0
   30.8453   10.9658   21.1053 H   0  0  0  0  0  0  0  0  0  0  0  0
   14.9737    9.4455   21.7296 H   0  0  0  0  0  0  0  0  0  0  0  0
   15.1340    7.6250   19.9749 H   0  0  0  0  0  0  0  0  0  0  0  0
   19.3806    6.5411   19.0733 H   0  0  0  0  0  0  0  0  0  0  0  0
   18.6632    5.7553   17.6261 H   0  0  0  0  0  0  0  0  0  0  0  0
   18.9741    7.5245   17.6261 H   0  0  0  0  0  0  0  0  0  0  0  0
 33 32  1  0
 32 28  1  0
 14 13  1  0
 14 12  2  0
 13  7  1  0
 25 27  2  0
 25 18  1  0
 28 21  2  0
 28 31  1  0
 27 29  1  0
 21 15  1  0
 12 18  1  0
 12 11  1  0
 31 30  2  0
 18 22  2  0
  9  8  1  0
  9  1  1  0
  7 11  2  0
  7  1  1  0
 29 24  2  0
 15  8  1  0
 15 26  2  0
 30 26  1  0
  8 10  1  0
  1  2  1  0
  1  6  1  0
 22 24  1  0
 24 19  1  0
  2 10  1  0
  2  5  1  0
  6  4  1  0
 19 16  3  0
  5 20  2  0
  5  3  1  0
  4  3  1  0
  4 17  2  3
  3 23  1  0
  2 34  1  0
  6 35  1  0
  9 36  1  0
  9 37  1  0
 10 38  1  0
 10 39  1  0
 11 40  1  0
 14 41  1  0
 17 42  1  0
 22 43  1  0
 23 44  1  0
 23 45  1  0
 23 46  1  0
 25 47  1  0
 26 48  1  0
 27 49  1  0
 29 50  1  0
 30 51  1  0
 31 52  1  0
 33 53  1  0
 33 54  1  0
 33 55  1  0
A    1
C1
A    2
C2
A    3
N1
A    4
C3
A    5
C4
A    6
N2
A    7
C5
A    8
N3
A    9
C6
A   10
C7
A   11
C8
A   12
C9
A   13
S1
A   14
C10
A   15
C11
A   16
N4
A   17
N5
A   18
C12
A   19
C13
A   20
O1
A   21
N6
A   22
C14
A   23
C15
A   24
C16
A   25
C17
A   26
C18
A   27
C19
A   28
C20
A   29
C21
A   30
C22
A   31
C23
A   32
O2
A   33
C24
M  END
