4H3G_10Q_A_502
     RDKit          3D

 52 56  0  0  0  0  0  0  0  0999 V2000
   21.9550   10.7170   21.1860 C   0  0  0  0  0  0  0  0  0  0  0  0
   21.4950   12.1180   21.6250 C   0  0  0  0  0  0  0  0  0  0  0  0
   22.6910   11.6700   23.7900 N   0  0  0  0  0  0  0  0  0  0  0  0
   22.5710   10.2970   23.5800 C   0  0  0  0  0  0  0  0  0  0  0  0
   22.2490   12.6340   22.8790 C   0  0  0  0  0  0  0  0  0  0  0  0
   22.1730    9.8350   22.3520 N   0  0  0  0  0  0  0  0  0  0  0  0
   23.1850   10.8980   20.3110 C   0  0  0  0  0  0  0  0  0  0  0  0
   19.6300   10.7890   21.0670 N   0  0  0  0  0  0  0  0  0  0  0  0
   20.7880   10.1640   20.4320 C   0  0  0  0  0  0  0  0  0  0  0  0
   19.9770   11.9990   21.8190 C   0  0  0  0  0  0  0  0  0  0  0  0
   24.5600   10.8480   20.7490 C   0  0  0  0  0  0  0  0  0  0  0  0
   25.4990   11.0590   19.7140 C   0  0  0  0  0  0  0  0  0  0  0  0
   23.1580   11.2120   18.6280 S   0  0  0  0  0  0  0  0  0  0  0  0
   24.8630   11.2790   18.4680 C   0  0  0  0  0  0  0  0  0  0  0  0
   18.3210   10.2980   21.0180 C   0  0  0  0  0  0  0  0  0  0  0  0
   29.8160    9.5150   23.6020 N   0  0  0  0  0  0  0  0  0  0  0  0
   22.8590    9.4320   24.5560 N   0  0  0  0  0  0  0  0  0  0  0  0
   26.9860   11.0580   19.9590 C   0  0  0  0  0  0  0  0  0  0  0  0
   17.7220    9.5050   19.9650 C   0  0  0  0  0  0  0  0  0  0  0  0
   29.4030    9.9630   22.6230 C   0  0  0  0  0  0  0  0  0  0  0  0
   22.4380   13.8400   23.0230 O   0  0  0  0  0  0  0  0  0  0  0  0
   16.3810    9.0950   20.1020 C   0  0  0  0  0  0  0  0  0  0  0  0
   27.5210   10.5180   21.1540 C   0  0  0  0  0  0  0  0  0  0  0  0
   23.3360   12.1520   25.0490 C   0  0  0  0  0  0  0  0  0  0  0  0
   28.9120   10.5210   21.4010 C   0  0  0  0  0  0  0  0  0  0  0  0
   17.5670   10.6430   22.1120 N   0  0  0  0  0  0  0  0  0  0  0  0
   27.8980   11.6070   19.0170 C   0  0  0  0  0  0  0  0  0  0  0  0
   16.2800   10.2220   22.2300 C   0  0  0  0  0  0  0  0  0  0  0  0
   29.2940   11.6100   19.2590 C   0  0  0  0  0  0  0  0  0  0  0  0
   15.6440    9.4550   21.2480 C   0  0  0  0  0  0  0  0  0  0  0  0
   29.8160   11.0670   20.4580 C   0  0  0  0  0  0  0  0  0  0  0  0
   18.4050    9.0940   18.7530 C   0  0  0  0  0  0  0  0  0  0  0  0
   19.0030    8.7910   17.8020 N   0  0  0  0  0  0  0  0  0  0  0  0
   21.7325   12.8811   20.8692 H   0  0  0  0  0  0  0  0  0  0  0  0
   22.0183    8.8233   22.2362 H   0  0  0  0  0  0  0  0  0  0  0  0
   20.7434    9.0691   20.5282 H   0  0  0  0  0  0  0  0  0  0  0  0
   20.8434   10.3719   19.3532 H   0  0  0  0  0  0  0  0  0  0  0  0
   19.4581   12.8785   21.4100 H   0  0  0  0  0  0  0  0  0  0  0  0
   19.6832   11.9447   22.8776 H   0  0  0  0  0  0  0  0  0  0  0  0
   24.8504   10.6625   21.7936 H   0  0  0  0  0  0  0  0  0  0  0  0
   25.3930   11.4678   17.5228 H   0  0  0  0  0  0  0  0  0  0  0  0
   23.1581    9.7778   25.4790 H   0  0  0  0  0  0  0  0  0  0  0  0
   15.9081    8.4924   19.3125 H   0  0  0  0  0  0  0  0  0  0  0  0
   26.8407   10.0882   21.9039 H   0  0  0  0  0  0  0  0  0  0  0  0
   22.7944   11.7473   25.9167 H   0  0  0  0  0  0  0  0  0  0  0  0
   24.3818   11.8123   25.0785 H   0  0  0  0  0  0  0  0  0  0  0  0
   23.3065   13.2512   25.0785 H   0  0  0  0  0  0  0  0  0  0  0  0
   27.5122   12.0381   18.0814 H   0  0  0  0  0  0  0  0  0  0  0  0
   15.7159   10.4954   23.1339 H   0  0  0  0  0  0  0  0  0  0  0  0
   29.9772   12.0372   18.5101 H   0  0  0  0  0  0  0  0  0  0  0  0
   14.5965    9.1412   21.3672 H   0  0  0  0  0  0  0  0  0  0  0  0
   30.8987   11.0693   20.6523 H   0  0  0  0  0  0  0  0  0  0  0  0
 33 32  3  0
 14 13  1  0
 14 12  2  0
 13  7  1  0
 32 19  1  0
 27 29  2  0
 27 18  1  0
 29 31  1  0
 12 18  1  0
 12 11  1  0
 18 23  2  0
 19 22  2  0
 19 15  1  0
 22 30  1  0
  7 11  2  0
  7  1  1  0
  9  8  1  0
  9  1  1  0
 31 25  2  0
 15  8  1  0
 15 26  2  0
  8 10  1  0
 23 25  1  0
  1  2  1  0
  1  6  1  0
 30 28  2  0
 25 20  1  0
  2 10  1  0
  2  5  1  0
 26 28  1  0
  6  4  1  0
 20 16  3  0
  5 21  2  0
  5  3  1  0
  4  3  1  0
  4 17  2  3
  3 24  1  0
  2 34  1  0
  6 35  1  0
  9 36  1  0
  9 37  1  0
 10 38  1  0
 10 39  1  0
 11 40  1  0
 14 41  1  0
 17 42  1  0
 22 43  1  0
 23 44  1  0
 24 45  1  0
 24 46  1  0
 24 47  1  0
 27 48  1  0
 28 49  1  0
 29 50  1  0
 30 51  1  0
 31 52  1  0
A    1
C1
A    2
C2
A    3
N1
A    4
C3
A    5
C4
A    6
N2
A    7
C5
A    8
N3
A    9
C6
A   10
C7
A   11
C8
A   12
C9
A   13
S1
A   14
C10
A   15
C11
A   16
N4
A   17
N5
A   18
C12
A   19
C13
A   20
C14
A   21
O1
A   22
C15
A   23
C16
A   24
C17
A   25
C18
A   26
N6
A   27
C19
A   28
C20
A   29
C21
A   30
C22
A   31
C23
A   32
C24
A   33
N7
M  END
