4H42_11E_U_301
     RDKit          3D

 26 27  0  0  0  0  0  0  0  0999 V2000
  -23.5650  -15.9680    9.1480 O   0  0  0  0  0  0  0  0  0  0  0  0
  -24.3240  -15.1780    9.6200 C   0  0  0  0  0  0  0  0  0  0  0  0
  -25.0700  -14.6010    8.9600 O   0  0  0  0  0  0  0  0  0  0  0  0
  -24.4460  -14.9430   11.0440 C   0  0  0  0  0  0  0  0  0  0  0  0
  -25.6190  -15.7320   11.1910 N   0  0  0  0  0  0  0  0  0  0  0  0
  -26.4340  -15.7090   12.2300 C   0  0  0  0  0  0  0  0  0  0  0  0
  -26.2440  -15.0580   13.2400 O   0  0  0  0  0  0  0  0  0  0  0  0
  -27.5740  -16.6390   12.1050 C   0  0  0  0  0  0  0  0  0  0  0  0
  -27.9810  -17.3680   13.2430 C   0  0  0  0  0  0  0  0  0  0  0  0
  -28.1800  -16.8160   10.8600 C   0  0  0  0  0  0  0  0  0  0  0  0
  -29.2050  -17.7470   10.8010 C   0  0  0  0  0  0  0  0  0  0  0  0
  -30.0380  -18.0530    9.3970 S   0  0  0  0  0  0  0  0  0  0  0  0
  -29.6540  -18.4840   11.9250 C   0  0  0  0  0  0  0  0  0  0  0  0
  -29.0370  -18.2720   13.1610 C   0  0  0  0  0  0  0  0  0  0  0  0
  -30.6930  -19.3230   11.5740 N   0  0  0  0  0  0  0  0  0  0  0  0
  -31.0140  -19.1960   10.2630 C   0  0  0  0  0  0  0  0  0  0  0  0
  -32.0080  -19.9160    9.7120 N   0  0  0  0  0  0  0  0  0  0  0  0
  -23.0150  -16.5405    9.7395 H   0  0  0  0  0  0  0  0  0  0  0  0
  -23.5919  -15.3302   11.6189 H   0  0  0  0  0  0  0  0  0  0  0  0
  -24.4805  -13.9001   11.3922 H   0  0  0  0  0  0  0  0  0  0  0  0
  -25.8533  -16.3762   10.4222 H   0  0  0  0  0  0  0  0  0  0  0  0
  -27.4606  -17.2211   14.2009 H   0  0  0  0  0  0  0  0  0  0  0  0
  -27.8613  -16.2474    9.9739 H   0  0  0  0  0  0  0  0  0  0  0  0
  -29.3806  -18.8114   14.0560 H   0  0  0  0  0  0  0  0  0  0  0  0
  -32.6844  -20.4059   10.3148 H   0  0  0  0  0  0  0  0  0  0  0  0
  -32.0926  -19.9773    8.6873 H   0  0  0  0  0  0  0  0  0  0  0  0
  3  2  2  0
  1  2  1  0
 12 16  1  0
 12 11  1  0
  2  4  1  0
 17 16  1  0
 16 15  2  0
 11 10  1  0
 11 13  2  0
 10  8  2  0
  4  5  1  0
  5  6  1  0
 15 13  1  0
 13 14  1  0
  8  6  1  0
  8  9  1  0
  6  7  2  0
 14  9  2  0
  1 18  1  0
  4 19  1  0
  4 20  1  0
  5 21  1  0
  9 22  1  0
 10 23  1  0
 14 24  1  0
 17 25  1  0
 17 26  1  0
A    1
O3
A    2
C9
A    3
O2
A    4
C8
A    5
N1
A    6
C7
A    7
O1
A    8
C3
A    9
C2
A   10
C4
A   11
C5
A   12
S1
A   13
C6
A   14
C1
A   15
N2
A   16
C10
A   17
N3
M  END
