4H49_L29_B_601
     RDKit          3D

116120  0  0  0  0  0  0  0  0999 V2000
    4.9500   -4.3630   27.8660 O   0  0  0  0  0  0  0  0  0  0  0  0
    4.8820   -5.9710   27.5240 S   0  0  0  0  0  0  0  0  0  0  0  0
    4.1440   -7.0620   28.4830 O   0  0  0  0  0  0  0  0  0  0  0  0
    6.5890   -6.3730   28.0510 C   0  0  0  0  0  0  0  0  0  0  0  0
    7.6080   -5.3120   28.0380 C   0  0  0  0  0  0  0  0  0  0  0  0
    8.9540   -5.6230   28.5390 C   0  0  0  0  0  0  0  0  0  0  0  0
    9.2200   -6.9090   29.0090 C   0  0  0  0  0  0  0  0  0  0  0  0
   10.6090   -7.2490   29.5810 C   0  0  0  0  0  0  0  0  0  0  0  0
   11.2160   -8.4140   29.2260 C   0  0  0  0  0  0  0  0  0  0  0  0
   12.5500   -8.7500   29.8680 C   0  0  0  0  0  0  0  0  0  0  0  0
   13.0810   -7.9200   30.8030 C   0  0  0  0  0  0  0  0  0  0  0  0
   12.4060   -6.7390   31.2160 C   0  0  0  0  0  0  0  0  0  0  0  0
   11.1180   -6.4250   30.6110 C   0  0  0  0  0  0  0  0  0  0  0  0
    8.1570   -7.9940   29.0410 C   0  0  0  0  0  0  0  0  0  0  0  0
    6.8530   -7.6980   28.5640 C   0  0  0  0  0  0  0  0  0  0  0  0
    4.7530   -6.2930   26.0220 N   0  0  0  0  0  0  0  0  0  0  0  0
    5.1390   -5.2470   25.0850 C   0  0  0  0  0  0  0  0  0  0  0  0
    4.2270   -5.2550   23.8670 C   0  0  0  0  0  0  0  0  0  0  0  0
    4.6890   -4.4190   22.6860 C   0  0  0  0  0  0  0  0  0  0  0  0
    2.7310   -5.1490   24.1690 C   0  0  0  0  0  0  0  0  0  0  0  0
    6.6060   -5.3440   24.7030 C   0  0  0  0  0  0  0  0  0  0  0  0
    7.3870   -4.1340   24.6800 N   0  0  0  0  0  0  0  0  0  0  0  0
    8.6950   -4.2150   24.1900 O   0  0  0  0  0  0  0  0  0  0  0  0
    6.9960   -6.2740   24.1010 O   0  0  0  0  0  0  0  0  0  0  0  0
    4.8190   -7.7060   25.6970 C   0  0  0  0  0  0  0  0  0  0  0  0
    3.4480   -8.3850   25.4850 C   0  0  0  0  0  0  0  0  0  0  0  0
    3.5210   -9.7860   25.0240 N   0  0  0  0  0  0  0  0  0  0  0  0
    3.8240  -10.0450   23.6100 C   0  0  0  0  0  0  0  0  0  0  0  0
    3.9980   -9.1630   22.8410 O   0  0  0  0  0  0  0  0  0  0  0  0
    3.8760  -11.5170   23.1700 C   0  0  0  0  0  0  0  0  0  0  0  0
    3.8360  -11.8690   21.8620 C   0  0  0  0  0  0  0  0  0  0  0  0
    3.8560  -13.3300   21.4860 C   0  0  0  0  0  0  0  0  0  0  0  0
    3.9040  -14.3890   22.5640 C   0  0  0  0  0  0  0  0  0  0  0  0
    3.9210  -12.5780   24.2920 C   0  0  0  0  0  0  0  0  0  0  0  0
    3.9340  -13.9800   23.9020 C   0  0  0  0  0  0  0  0  0  0  0  0
    4.0100  -14.9960   25.0500 C   0  0  0  0  0  0  0  0  0  0  0  0
    3.9470  -16.1680   24.8620 O   0  0  0  0  0  0  0  0  0  0  0  0
    4.2030  -14.4140   26.3820 N   0  0  0  0  0  0  0  0  0  0  0  0
    4.2230  -15.3440   27.5130 C   0  0  0  0  0  0  0  0  0  0  0  0
    2.8720  -16.0310   27.8590 C   0  0  0  0  0  0  0  0  0  0  0  0
    3.1420  -17.0300   28.9130 N   0  0  0  0  0  0  0  0  0  0  0  0
    2.6040  -18.3560   28.8120 C   0  0  0  0  0  0  0  0  0  0  0  0
    3.5240  -19.3920   28.1720 C   0  0  0  0  0  0  0  0  0  0  0  0
    4.9450  -18.9220   27.8800 C   0  0  0  0  0  0  0  0  0  0  0  0
    2.8780  -20.2760   27.1060 C   0  0  0  0  0  0  0  0  0  0  0  0
    1.1420  -18.4570   28.4250 C   0  0  0  0  0  0  0  0  0  0  0  0
    0.2980  -19.3570   29.1730 N   0  0  0  0  0  0  0  0  0  0  0  0
   -0.9880  -19.5060   28.6400 O   0  0  0  0  0  0  0  0  0  0  0  0
    0.7160  -17.9610   27.4330 O   0  0  0  0  0  0  0  0  0  0  0  0
    2.8630  -16.3800   30.4580 S   0  0  0  0  0  0  0  0  0  0  0  0
    3.0620  -17.5990   31.5620 O   0  0  0  0  0  0  0  0  0  0  0  0
    3.9040  -15.1360   30.6870 O   0  0  0  0  0  0  0  0  0  0  0  0
    1.1920  -15.6600   30.6850 C   0  0  0  0  0  0  0  0  0  0  0  0
    0.9630  -14.3530   30.2690 C   0  0  0  0  0  0  0  0  0  0  0  0
   -0.3700  -13.7500   30.4880 C   0  0  0  0  0  0  0  0  0  0  0  0
   -1.4200  -14.5430   31.1410 C   0  0  0  0  0  0  0  0  0  0  0  0
   -1.1750  -15.8920   31.5900 C   0  0  0  0  0  0  0  0  0  0  0  0
    0.1160  -16.4790   31.3820 C   0  0  0  0  0  0  0  0  0  0  0  0
   -2.7870  -13.8910   31.4170 C   0  0  0  0  0  0  0  0  0  0  0  0
   -3.3860  -13.1120   30.4890 C   0  0  0  0  0  0  0  0  0  0  0  0
   -4.6490  -12.4800   30.8050 C   0  0  0  0  0  0  0  0  0  0  0  0
   -5.2250  -12.6580   32.0940 C   0  0  0  0  0  0  0  0  0  0  0  0
   -4.5730  -13.4320   33.0560 C   0  0  0  0  0  0  0  0  0  0  0  0
   -3.3460  -14.0350   32.7610 C   0  0  0  0  0  0  0  0  0  0  0  0
    7.3674   -4.3070   27.6612 H   0  0  0  0  0  0  0  0  0  0  0  0
    9.7398   -4.8533   28.5433 H   0  0  0  0  0  0  0  0  0  0  0  0
   10.7532   -9.0930   28.4947 H   0  0  0  0  0  0  0  0  0  0  0  0
   13.0863   -9.6650   29.5762 H   0  0  0  0  0  0  0  0  0  0  0  0
   14.0550   -8.1672   31.2506 H   0  0  0  0  0  0  0  0  0  0  0  0
   12.8464   -6.0766   31.9758 H   0  0  0  0  0  0  0  0  0  0  0  0
   10.5446   -5.5512   30.9540 H   0  0  0  0  0  0  0  0  0  0  0  0
    8.3946   -8.9957   29.4286 H   0  0  0  0  0  0  0  0  0  0  0  0
    6.0607   -8.4608   28.5845 H   0  0  0  0  0  0  0  0  0  0  0  0
    5.0141   -4.2769   25.5884 H   0  0  0  0  0  0  0  0  0  0  0  0
    4.3496   -6.2859   23.5035 H   0  0  0  0  0  0  0  0  0  0  0  0
    5.1906   -3.5114   23.0531 H   0  0  0  0  0  0  0  0  0  0  0  0
    5.3916   -5.0045   22.0748 H   0  0  0  0  0  0  0  0  0  0  0  0
    3.8194   -4.1357   22.0748 H   0  0  0  0  0  0  0  0  0  0  0  0
    2.5767   -5.1381   25.2581 H   0  0  0  0  0  0  0  0  0  0  0  0
    2.3338   -4.2205   23.7330 H   0  0  0  0  0  0  0  0  0  0  0  0
    2.2069   -6.0123   23.7330 H   0  0  0  0  0  0  0  0  0  0  0  0
    6.9964   -3.2408   25.0125 H   0  0  0  0  0  0  0  0  0  0  0  0
    9.3298   -4.2543   24.9487 H   0  0  0  0  0  0  0  0  0  0  0  0
    5.3336   -8.2231   26.5202 H   0  0  0  0  0  0  0  0  0  0  0  0
    5.3532   -7.7793   24.7382 H   0  0  0  0  0  0  0  0  0  0  0  0
    2.8904   -7.8054   24.7346 H   0  0  0  0  0  0  0  0  0  0  0  0
    2.9547   -8.4054   26.4680 H   0  0  0  0  0  0  0  0  0  0  0  0
    3.3629  -10.5646   25.6795 H   0  0  0  0  0  0  0  0  0  0  0  0
    3.7893  -11.0959   21.0809 H   0  0  0  0  0  0  0  0  0  0  0  0
    3.8356  -13.6250   20.4265 H   0  0  0  0  0  0  0  0  0  0  0  0
    3.9151  -15.4574   22.3024 H   0  0  0  0  0  0  0  0  0  0  0  0
    3.9425  -12.2832   25.3516 H   0  0  0  0  0  0  0  0  0  0  0  0
    4.3190  -13.3993   26.5158 H   0  0  0  0  0  0  0  0  0  0  0  0
    4.9531  -16.1346   27.2849 H   0  0  0  0  0  0  0  0  0  0  0  0
    4.4773  -14.7338   28.3922 H   0  0  0  0  0  0  0  0  0  0  0  0
    2.1528  -15.2834   28.2248 H   0  0  0  0  0  0  0  0  0  0  0  0
    2.4417  -16.5124   26.9685 H   0  0  0  0  0  0  0  0  0  0  0  0
    2.5808  -18.6682   29.8665 H   0  0  0  0  0  0  0  0  0  0  0  0
    3.6877  -20.1058   28.9928 H   0  0  0  0  0  0  0  0  0  0  0  0
    5.4752  -18.7466   28.8277 H   0  0  0  0  0  0  0  0  0  0  0  0
    5.4744  -19.6929   27.3008 H   0  0  0  0  0  0  0  0  0  0  0  0
    4.9104  -17.9875   27.3008 H   0  0  0  0  0  0  0  0  0  0  0  0
    2.2961  -21.0722   27.5933 H   0  0  0  0  0  0  0  0  0  0  0  0
    2.2113  -19.6661   26.4787 H   0  0  0  0  0  0  0  0  0  0  0  0
    3.6616  -20.7260   26.4787 H   0  0  0  0  0  0  0  0  0  0  0  0
    0.6133  -19.8460   30.0229 H   0  0  0  0  0  0  0  0  0  0  0  0
   -1.6441  -19.5820   29.3775 H   0  0  0  0  0  0  0  0  0  0  0  0
    1.7629  -13.7748   29.7833 H   0  0  0  0  0  0  0  0  0  0  0  0
   -0.5728  -12.7182   30.1651 H   0  0  0  0  0  0  0  0  0  0  0  0
   -1.9716  -16.4648   32.0874 H   0  0  0  0  0  0  0  0  0  0  0  0
    0.3252  -17.5044   31.7207 H   0  0  0  0  0  0  0  0  0  0  0  0
   -2.9188  -12.9601   29.5048 H   0  0  0  0  0  0  0  0  0  0  0  0
   -5.1619  -11.8642   30.0515 H   0  0  0  0  0  0  0  0  0  0  0  0
   -6.1882  -12.1837   32.3336 H   0  0  0  0  0  0  0  0  0  0  0  0
   -5.0259  -13.5680   34.0492 H   0  0  0  0  0  0  0  0  0  0  0  0
   -2.8085  -14.6099   33.5295 H   0  0  0  0  0  0  0  0  0  0  0  0
 32 31  2  0
 32 33  1  0
 31 30  1  0
 33 35  2  0
 19 18  1  0
 29 28  2  0
 30 28  1  0
 30 34  2  0
 28 27  1  0
 18 20  1  0
 18 17  1  0
 35 34  1  0
 35 36  1  0
 24 21  2  0
 23 22  1  0
 22 21  1  0
 21 17  1  0
 37 36  2  0
 27 26  1  0
 36 38  1  0
 17 16  1  0
 26 25  1  0
 25 16  1  0
 16  2  1  0
 38 39  1  0
 45 43  1  0
 49 46  2  0
 39 40  1  0
  2  1  2  0
  2  4  1  0
  2  3  2  0
 40 41  1  0
 44 43  1  0
  5  4  2  0
  5  6  1  0
  4 15  1  0
 43 42  1  0
 46 42  1  0
 46 47  1  0
  6  7  2  0
 15 14  2  0
 48 47  1  0
 42 41  1  0
 41 50  1  0
  7 14  1  0
  7  8  1  0
  9  8  2  0
  9 10  1  0
  8 13  1  0
 10 11  2  0
 54 55  2  0
 54 53  1  0
 50 53  1  0
 50 52  2  0
 50 51  2  0
 55 56  1  0
 60 61  2  0
 60 59  1  0
 13 12  2  0
 53 58  2  0
 11 12  1  0
 61 62  1  0
 56 59  1  0
 56 57  2  0
 58 57  1  0
 59 64  2  0
 62 63  2  0
 64 63  1  0
  5 65  1  0
  6 66  1  0
  9 67  1  0
 10 68  1  0
 11 69  1  0
 12 70  1  0
 13 71  1  0
 14 72  1  0
 15 73  1  0
 17 74  1  0
 18 75  1  0
 19 76  1  0
 19 77  1  0
 19 78  1  0
 20 79  1  0
 20 80  1  0
 20 81  1  0
 22 82  1  0
 23 83  1  0
 25 84  1  0
 25 85  1  0
 26 86  1  0
 26 87  1  0
 27 88  1  0
 31 89  1  0
 32 90  1  0
 33 91  1  0
 34 92  1  0
 38 93  1  0
 39 94  1  0
 39 95  1  0
 40 96  1  0
 40 97  1  0
 42 98  1  0
 43 99  1  0
 44100  1  0
 44101  1  0
 44102  1  0
 45103  1  0
 45104  1  0
 45105  1  0
 47106  1  0
 48107  1  0
 54108  1  0
 55109  1  0
 57110  1  0
 58111  1  0
 60112  1  0
 61113  1  0
 62114  1  0
 63115  1  0
 64116  1  0
A    1
O15
A    2
S13
A    3
O14
A    4
C10
A    5
C11
A    6
C12
A    7
C7
A    8
C1
A    9
C2
A   10
C3
A   11
C4
A   12
C5
A   13
C6
A   14
C8
A   15
C9
A   16
N16
A   17
C17
A   18
C18
A   19
C19
A   20
C20
A   21
C21
A   22
N22
A   23
O22
A   24
O23
A   25
C24
A   26
C25
A   27
N26
A   28
C27
A   29
O28
A   30
C29
A   31
C30
A   32
C31
A   33
C32
A   34
C34
A   35
C33
A   36
C35
A   37
O36
A   38
N37
A   39
C38
A   40
C39
A   41
N40
A   42
C56
A   43
C57
A   44
C58
A   45
C59
A   46
C60
A   47
N61
A   48
O61
A   49
O62
A   50
S41
A   51
O43
A   52
O42
A   53
C45
A   54
C46
A   55
C47
A   56
C48
A   57
C49
A   58
C5A
A   59
C50
A   60
C51
A   61
C52
A   62
C53
A   63
C54
A   64
C55
M  END
