1R9L_BET_A_1001
     RDKit          3D

 20 19  0  0  0  0  0  0  0  0999 V2000
   26.6760   22.9550   72.6820 N   0  0  0  0  0  0  0  0  0  0  0  0
   25.2290   22.9420   72.3760 C   0  0  0  0  0  0  0  0  0  0  0  0
   24.2530   22.8310   73.5110 C   0  0  0  0  0  0  0  0  0  0  0  0
   23.0980   23.1860   73.3110 O   0  0  0  0  0  0  0  0  0  0  0  0
   24.6270   22.3770   74.6580 O   0  0  0  0  0  0  0  0  0  0  0  0
   27.3580   23.3720   71.4420 C   0  0  0  0  0  0  0  0  0  0  0  0
   27.0140   23.9190   73.7460 C   0  0  0  0  0  0  0  0  0  0  0  0
   27.0870   21.5820   73.0400 C   0  0  0  0  0  0  0  0  0  0  0  0
   25.0021   23.8779   71.8443 H   0  0  0  0  0  0  0  0  0  0  0  0
   25.0846   22.0113   71.8077 H   0  0  0  0  0  0  0  0  0  0  0  0
   24.2855   22.7915   75.4897 H   0  0  0  0  0  0  0  0  0  0  0  0
   28.2712   23.9303   71.6958 H   0  0  0  0  0  0  0  0  0  0  0  0
   27.6242   22.4820   70.8529 H   0  0  0  0  0  0  0  0  0  0  0  0
   26.6871   24.0145   70.8529 H   0  0  0  0  0  0  0  0  0  0  0  0
   26.8505   23.4527   74.7287 H   0  0  0  0  0  0  0  0  0  0  0  0
   28.0693   24.2145   73.6514 H   0  0  0  0  0  0  0  0  0  0  0  0
   26.3742   24.8088   73.6514 H   0  0  0  0  0  0  0  0  0  0  0  0
   27.1169   21.4820   74.1350 H   0  0  0  0  0  0  0  0  0  0  0  0
   26.3646   20.8633   72.6258 H   0  0  0  0  0  0  0  0  0  0  0  0
   28.0855   21.3784   72.6258 H   0  0  0  0  0  0  0  0  0  0  0  0
  1  2  1  0
  1  6  1  0
  1  7  1  0
  1  8  1  0
  2  3  1  0
  3  4  2  0
  3  5  1  0
  2  9  1  0
  2 10  1  0
  5 11  1  0
  6 12  1  0
  6 13  1  0
  6 14  1  0
  7 15  1  0
  7 16  1  0
  7 17  1  0
  8 18  1  0
  8 19  1  0
  8 20  1  0
M  CHG  1   1   1
A    1
N
A    2
CA
A    3
C
A    4
O1
A    5
O2
A    6
C1
A    7
C2
A    8
C3
M  END
