3MHN_PXE_A_604
     RDKit          3D

 26 26  0  0  0  0  0  0  0  0999 V2000
    0.2940  -12.8740   -3.2660 O   0  0  0  0  0  0  0  0  0  0  0  0
   -0.5680  -12.1300   -2.6090 N   0  0  0  0  0  0  0  0  0  0  0  0
   -1.7920  -11.9790   -3.0950 C   0  0  0  0  0  0  0  0  0  0  0  0
   -1.9680  -11.6390   -4.4200 C   0  0  0  0  0  0  0  0  0  0  0  0
   -3.2310  -11.5180   -4.9360 C   0  0  0  0  0  0  0  0  0  0  0  0
   -4.2690  -11.6520   -4.0810 C   0  0  0  0  0  0  0  0  0  0  0  0
   -4.1030  -11.8970   -2.7800 C   0  0  0  0  0  0  0  0  0  0  0  0
   -2.8840  -12.0790   -2.2760 C   0  0  0  0  0  0  0  0  0  0  0  0
   -5.3820  -11.5390   -4.4650 O   0  0  0  0  0  0  0  0  0  0  0  0
   -2.8970  -12.3880   -0.8260 C   0  0  0  0  0  0  0  0  0  0  0  0
   -3.6050  -11.1540   -6.2990 C   0  0  0  0  0  0  0  0  0  0  0  0
   -2.4600  -11.0850   -7.2120 C   0  0  0  0  0  0  0  0  0  0  0  0
   -4.0560   -9.7700   -6.0870 C   0  0  0  0  0  0  0  0  0  0  0  0
    0.9429  -13.4341   -2.7708 H   0  0  0  0  0  0  0  0  0  0  0  0
   -1.0929  -11.4648   -5.0633 H   0  0  0  0  0  0  0  0  0  0  0  0
   -4.9802  -11.9491   -2.1184 H   0  0  0  0  0  0  0  0  0  0  0  0
   -2.8576  -11.4510   -0.2511 H   0  0  0  0  0  0  0  0  0  0  0  0
   -3.8189  -12.9334   -0.5756 H   0  0  0  0  0  0  0  0  0  0  0  0
   -2.0242  -13.0089   -0.5756 H   0  0  0  0  0  0  0  0  0  0  0  0
   -4.3136  -11.8702   -6.7405 H   0  0  0  0  0  0  0  0  0  0  0  0
   -1.5290  -11.0289   -6.6289 H   0  0  0  0  0  0  0  0  0  0  0  0
   -2.4419  -11.9837   -7.8461 H   0  0  0  0  0  0  0  0  0  0  0  0
   -2.5500  -10.1906   -7.8461 H   0  0  0  0  0  0  0  0  0  0  0  0
   -4.1221   -9.5671   -5.0079 H   0  0  0  0  0  0  0  0  0  0  0  0
   -3.3376   -9.0757   -6.5473 H   0  0  0  0  0  0  0  0  0  0  0  0
   -5.0455   -9.6322   -6.5473 H   0  0  0  0  0  0  0  0  0  0  0  0
  1  2  1  0
  2  3  2  0
  3  4  1  0
  3  8  1  0
  4  5  2  0
  5  6  1  0
  5 11  1  0
  6  7  1  0
  6  9  2  0
  7  8  2  0
  8 10  1  0
 11 12  1  0
 11 13  1  0
  1 14  1  0
  4 15  1  0
  7 16  1  0
 10 17  1  0
 10 18  1  0
 10 19  1  0
 11 20  1  0
 12 21  1  0
 12 22  1  0
 12 23  1  0
 13 24  1  0
 13 25  1  0
 13 26  1  0
A    1
OAA
A    2
NAB
A    3
CAC
A    4
CAD
A    5
CAE
A    6
CAF
A    7
CAG
A    8
CAH
A    9
OAI
A   10
CAJ
A   11
CAK
A   12
CAL
A   13
CAM
M  END
