4H7C_10H_A_402
     RDKit          3D

 42 44  0  0  0  0  0  0  0  0999 V2000
   -4.6400    8.3990   14.3740 C   0  0  0  0  0  0  0  0  0  0  0  0
   -4.6300    9.2330   15.7280 C   0  0  0  0  0  0  0  0  0  0  0  0
   -4.8350   10.7070   15.3630 C   0  0  0  0  0  0  0  0  0  0  0  0
   -3.6400   11.3480   14.6900 C   0  0  0  0  0  0  0  0  0  0  0  0
   -2.3950   11.1520   15.5370 C   0  0  0  0  0  0  0  0  0  0  0  0
   -2.1110    9.6710   15.7460 C   0  0  0  0  0  0  0  0  0  0  0  0
   -3.2800    8.8650   16.1380 N   0  0  0  0  0  0  0  0  0  0  0  0
   -3.1680    7.7530   17.3670 S   0  0  0  0  0  0  0  0  0  0  0  0
   -1.8260    7.8730   18.0500 O   0  0  0  0  0  0  0  0  0  0  0  0
   -4.3730    7.6700   18.2070 O   0  0  0  0  0  0  0  0  0  0  0  0
   -3.1400    6.2780   16.3750 C   0  0  0  0  0  0  0  0  0  0  0  0
   -4.3150    5.5490   16.2230 C   0  0  0  0  0  0  0  0  0  0  0  0
   -4.3350    4.3840   15.4420 C   0  0  0  0  0  0  0  0  0  0  0  0
   -1.9470    5.8390   15.7710 C   0  0  0  0  0  0  0  0  0  0  0  0
   -1.9680    4.6620   14.9890 C   0  0  0  0  0  0  0  0  0  0  0  0
   -3.1510    3.9480   14.8070 C   0  0  0  0  0  0  0  0  0  0  0  0
   -3.2550    2.8050   14.0620 N   0  0  0  0  0  0  0  0  0  0  0  0
   -4.3840    1.8880   14.2650 C   0  0  0  0  0  0  0  0  0  0  0  0
   -4.1330    0.6650   13.3320 C   0  0  0  0  0  0  0  0  0  0  0  0
   -2.9410    1.0620   12.4700 C   0  0  0  0  0  0  0  0  0  0  0  0
   -2.4640    2.3830   13.0770 C   0  0  0  0  0  0  0  0  0  0  0  0
   -1.3980    2.9280   12.7470 O   0  0  0  0  0  0  0  0  0  0  0  0
   -4.6529    7.3238   14.6057 H   0  0  0  0  0  0  0  0  0  0  0  0
   -5.5351    8.6589   13.7898 H   0  0  0  0  0  0  0  0  0  0  0  0
   -3.7389    8.6374   13.7898 H   0  0  0  0  0  0  0  0  0  0  0  0
   -5.3866    9.0548   16.5064 H   0  0  0  0  0  0  0  0  0  0  0  0
   -5.0522   11.2647   16.2860 H   0  0  0  0  0  0  0  0  0  0  0  0
   -5.6637   10.7431   14.6405 H   0  0  0  0  0  0  0  0  0  0  0  0
   -3.4859   10.8845   13.7044 H   0  0  0  0  0  0  0  0  0  0  0  0
   -3.8288   12.4253   14.5724 H   0  0  0  0  0  0  0  0  0  0  0  0
   -1.5365   11.6156   15.0290 H   0  0  0  0  0  0  0  0  0  0  0  0
   -2.5586   11.6216   16.5182 H   0  0  0  0  0  0  0  0  0  0  0  0
   -1.7146    9.2628   14.8046 H   0  0  0  0  0  0  0  0  0  0  0  0
   -1.3985    9.6083   16.5817 H   0  0  0  0  0  0  0  0  0  0  0  0
   -5.2359    5.8889   16.7193 H   0  0  0  0  0  0  0  0  0  0  0  0
   -5.2678    3.8130   15.3247 H   0  0  0  0  0  0  0  0  0  0  0  0
   -1.0125    6.4034   15.9055 H   0  0  0  0  0  0  0  0  0  0  0  0
   -1.0399    4.3053   14.5185 H   0  0  0  0  0  0  0  0  0  0  0  0
   -5.2384    2.0353   14.9420 H   0  0  0  0  0  0  0  0  0  0  0  0
   -4.6948   -0.2802   13.3023 H   0  0  0  0  0  0  0  0  0  0  0  0
   -3.2461    1.2014   11.4224 H   0  0  0  0  0  0  0  0  0  0  0  0
   -2.1536    0.2939   12.4594 H   0  0  0  0  0  0  0  0  0  0  0  0
 20 21  1  0
 20 19  1  0
 22 21  2  0
 21 17  1  0
 19 18  2  0
 17 18  1  0
 17 16  1  0
  1  2  1  0
  4  3  1  0
  4  5  1  0
 16 15  2  0
 16 13  1  0
 15 14  1  0
  3  2  1  0
 13 12  2  0
  5  6  1  0
  2  7  1  0
  6  7  1  0
 14 11  2  0
  7  8  1  0
 12 11  1  0
 11  8  1  0
  8  9  2  0
  8 10  2  0
  1 23  1  0
  1 24  1  0
  1 25  1  0
  2 26  1  0
  3 27  1  0
  3 28  1  0
  4 29  1  0
  4 30  1  0
  5 31  1  0
  5 32  1  0
  6 33  1  0
  6 34  1  0
 12 35  1  0
 13 36  1  0
 14 37  1  0
 15 38  1  0
 18 39  1  0
 19 40  1  0
 20 41  1  0
 20 42  1  0
A    1
CAA
A    2
CAS
A    3
CAM
A    4
CAI
A    5
CAJ
A    6
CAO
A    7
NAU
A    8
SAV
A    9
OAC
A   10
OAD
A   11
CAR
A   12
CAH
A   13
CAF
A   14
CAG
A   15
CAE
A   16
CAQ
A   17
NAT
A   18
CAN
A   19
CAK
A   20
CAL
A   21
CAP
A   22
OAB
M  END
