4H85_HRI_A_404
     RDKit          3D

 20 19  0  0  0  0  0  0  0  0999 V2000
   -8.7350  -31.0400   14.6830 C   0  0  0  0  0  0  0  0  0  0  0  0
   -8.3470  -31.8950   15.8750 C   0  0  0  0  0  0  0  0  0  0  0  0
   -9.3640  -32.1380   16.9770 C   0  0  0  0  0  0  0  0  0  0  0  0
  -10.7200  -31.5000   16.7800 C   0  0  0  0  0  0  0  0  0  0  0  0
   -8.8450  -32.1030   18.3990 C   0  0  0  0  0  0  0  0  0  0  0  0
   -8.1470  -31.6130   13.4230 C   0  0  0  0  0  0  0  0  0  0  0  0
   -8.6110  -31.3190   12.2730 O   0  0  0  0  0  0  0  0  0  0  0  0
   -7.1860  -32.4140   13.5380 O   0  0  0  0  0  0  0  0  0  0  0  0
   -8.1850  -29.4090   14.8780 Cl  0  0  0  0  0  0  0  0  0  0  0  0
   -9.8328  -31.0367   14.6143 H   0  0  0  0  0  0  0  0  0  0  0  0
   -8.0574  -32.8808   15.4823 H   0  0  0  0  0  0  0  0  0  0  0  0
   -7.5596  -31.3088   16.3713 H   0  0  0  0  0  0  0  0  0  0  0  0
   -9.5677  -33.2089   16.8295 H   0  0  0  0  0  0  0  0  0  0  0  0
  -11.1713  -31.2877   17.7605 H   0  0  0  0  0  0  0  0  0  0  0  0
  -10.6054  -30.5613   16.2181 H   0  0  0  0  0  0  0  0  0  0  0  0
  -11.3702  -32.1867   16.2181 H   0  0  0  0  0  0  0  0  0  0  0  0
   -9.6911  -32.1601   19.0996 H   0  0  0  0  0  0  0  0  0  0  0  0
   -8.1730  -32.9579   18.5652 H   0  0  0  0  0  0  0  0  0  0  0  0
   -8.2939  -31.1656   18.5652 H   0  0  0  0  0  0  0  0  0  0  0  0
   -6.8676  -32.6794   14.4371 H   0  0  0  0  0  0  0  0  0  0  0  0
  1  2  1  0
  1  6  1  0
  1  9  1  0
  2  3  1  0
  3  4  1  0
  3  5  1  0
  6  7  2  0
  6  8  1  0
  1 10  1  0
  2 11  1  0
  2 12  1  0
  3 13  1  0
  4 14  1  0
  4 15  1  0
  4 16  1  0
  5 17  1  0
  5 18  1  0
  5 19  1  0
  8 20  1  0
A    1
CZ
A    2
CH1
A    3
CF1
A    4
CI1
A    5
CI2
A    6
CH2
A    7
OF2
A    8
OF3
A    9
CL
M  END
