4H8I_11W_A_301
     RDKit          3D

 48 49  0  0  0  0  0  0  0  0999 V2000
   -0.2710  -23.9760   24.3350 C   0  0  0  0  0  0  0  0  0  0  0  0
    0.7610  -23.3340   25.0160 C   0  0  0  0  0  0  0  0  0  0  0  0
    1.6450  -24.0780   25.8040 C   0  0  0  0  0  0  0  0  0  0  0  0
    1.4920  -25.4590   25.9250 C   0  0  0  0  0  0  0  0  0  0  0  0
    0.4600  -26.1040   25.2460 C   0  0  0  0  0  0  0  0  0  0  0  0
   -0.4160  -25.3660   24.4430 C   0  0  0  0  0  0  0  0  0  0  0  0
   -1.3940  -25.9890   23.7870 N   0  0  0  0  0  0  0  0  0  0  0  0
   -2.1560  -25.3180   23.0850 N   0  0  0  0  0  0  0  0  0  0  0  0
   -3.1740  -25.8220   22.3830 C   0  0  0  0  0  0  0  0  0  0  0  0
   -3.4710  -27.2010   22.3780 C   0  0  0  0  0  0  0  0  0  0  0  0
   -4.5500  -27.6750   21.6210 C   0  0  0  0  0  0  0  0  0  0  0  0
   -3.9450  -24.9190   21.6440 C   0  0  0  0  0  0  0  0  0  0  0  0
   -5.0170  -25.3920   20.8950 C   0  0  0  0  0  0  0  0  0  0  0  0
   -5.3250  -26.7600   20.8780 C   0  0  0  0  0  0  0  0  0  0  0  0
   -6.4200  -27.1790   20.1050 C   0  0  0  0  0  0  0  0  0  0  0  0
   -6.7650  -28.5200   20.0010 C   0  0  0  0  0  0  0  0  0  0  0  0
   -7.8750  -28.9920   19.2860 C   0  0  0  0  0  0  0  0  0  0  0  0
   -8.1250  -28.8380   17.7420 C   0  0  0  0  0  0  0  0  0  0  0  0
   -9.6720  -28.6360   17.6360 C   0  0  0  0  0  0  0  0  0  0  0  0
  -10.1340  -27.4710   17.5220 O   0  0  0  0  0  0  0  0  0  0  0  0
  -10.3610  -29.6800   17.7980 O   0  0  0  0  0  0  0  0  0  0  0  0
   -7.3070  -27.7740   16.9720 C   0  0  0  0  0  0  0  0  0  0  0  0
   -7.6170  -27.9250   15.4780 C   0  0  0  0  0  0  0  0  0  0  0  0
   -7.1520  -26.7120   14.6780 C   0  0  0  0  0  0  0  0  0  0  0  0
   -6.5200  -26.9240   13.6260 O   0  0  0  0  0  0  0  0  0  0  0  0
   -7.3670  -25.5880   15.1610 O   0  0  0  0  0  0  0  0  0  0  0  0
   -6.9470  -29.1430   14.9780 N   0  0  0  0  0  0  0  0  0  0  0  0
   -0.9692  -23.3944   23.7151 H   0  0  0  0  0  0  0  0  0  0  0  0
    0.8804  -22.2436   24.9340 H   0  0  0  0  0  0  0  0  0  0  0  0
    2.4661  -23.5708   26.3317 H   0  0  0  0  0  0  0  0  0  0  0  0
    2.1840  -26.0375   26.5547 H   0  0  0  0  0  0  0  0  0  0  0  0
    0.3344  -27.1926   25.3414 H   0  0  0  0  0  0  0  0  0  0  0  0
   -2.8583  -27.9005   22.9656 H   0  0  0  0  0  0  0  0  0  0  0  0
   -4.7902  -28.7483   21.6061 H   0  0  0  0  0  0  0  0  0  0  0  0
   -3.7059  -23.8454   21.6551 H   0  0  0  0  0  0  0  0  0  0  0  0
   -5.6280  -24.6877   20.3114 H   0  0  0  0  0  0  0  0  0  0  0  0
   -7.0184  -26.4273   19.5694 H   0  0  0  0  0  0  0  0  0  0  0  0
   -6.1281  -29.2577   20.5111 H   0  0  0  0  0  0  0  0  0  0  0  0
   -8.7457  -28.5206   19.7653 H   0  0  0  0  0  0  0  0  0  0  0  0
   -7.6759  -30.0729   19.3320 H   0  0  0  0  0  0  0  0  0  0  0  0
   -7.7498  -29.7324   17.2232 H   0  0  0  0  0  0  0  0  0  0  0  0
  -10.5707  -29.9978   18.7118 H   0  0  0  0  0  0  0  0  0  0  0  0
   -6.2325  -27.9306   17.1476 H   0  0  0  0  0  0  0  0  0  0  0  0
   -7.5745  -26.7643   17.3168 H   0  0  0  0  0  0  0  0  0  0  0  0
   -8.7069  -28.0034   15.3514 H   0  0  0  0  0  0  0  0  0  0  0  0
   -7.3900  -25.4675   16.1434 H   0  0  0  0  0  0  0  0  0  0  0  0
   -6.6329  -29.7140   15.7756 H   0  0  0  0  0  0  0  0  0  0  0  0
   -7.6074  -29.6874   14.4049 H   0  0  0  0  0  0  0  0  0  0  0  0
 25 24  2  0
 24 26  1  0
 24 23  1  0
 27 23  1  0
 23 22  1  0
 22 18  1  0
 20 19  2  0
 19 18  1  0
 19 21  1  0
 18 17  1  0
 17 16  1  0
 16 15  2  0
 15 14  1  0
 14 13  2  0
 14 11  1  0
 13 12  1  0
 11 10  2  0
 12  9  2  0
 10  9  1  0
  9  8  1  0
  8  7  2  0
  7  6  1  0
  1  6  2  0
  1  2  1  0
  6  5  1  0
  2  3  2  0
  5  4  2  0
  3  4  1  0
  1 28  1  0
  2 29  1  0
  3 30  1  0
  4 31  1  0
  5 32  1  0
 10 33  1  0
 11 34  1  0
 12 35  1  0
 13 36  1  0
 15 37  1  0
 16 38  1  0
 17 39  1  0
 17 40  1  0
 18 41  1  0
 21 42  1  0
 22 43  1  0
 22 44  1  0
 23 45  1  0
 26 46  1  0
 27 47  1  0
 27 48  1  0
A    1
CAK
A    2
CAI
A    3
CAH
A    4
CAJ
A    5
CAL
A    6
CAX
A    7
NAS
A    8
NAT
A    9
CAY
A   10
CAP
A   11
CAN
A   12
CAO
A   13
CAM
A   14
CAW
A   15
CAG
A   16
CAF
A   17
CD1
A   18
CG
A   19
CD2
A   20
OAE
A   21
OAC
A   22
CB
A   23
CA
A   24
C
A   25
OXT
A   26
O
A   27
N
M  END
