4H9G_14J_A_512
     RDKit          3D

 12 12  0  0  0  0  0  0  0  0999 V2000
   -8.2130   -7.8950   -2.9930 C   0  0  0  0  0  0  0  0  0  0  0  0
   -9.3870   -7.7030   -2.3040 C   0  0  0  0  0  0  0  0  0  0  0  0
   -9.5540   -8.6200   -1.2770 O   0  0  0  0  0  0  0  0  0  0  0  0
   -8.3910   -9.3720   -1.4190 C   0  0  0  0  0  0  0  0  0  0  0  0
   -7.5930   -8.9360   -2.4460 C   0  0  0  0  0  0  0  0  0  0  0  0
   -7.9590  -10.8550   -0.3070 Br  0  0  0  0  0  0  0  0  0  0  0  0
  -10.3760   -6.6200   -2.6060 C   0  0  0  0  0  0  0  0  0  0  0  0
  -11.4800   -6.6090   -2.0280 O   0  0  0  0  0  0  0  0  0  0  0  0
  -10.0670   -5.7270   -3.4500 O   0  0  0  0  0  0  0  0  0  0  0  0
   -7.8523   -7.2962   -3.8423 H   0  0  0  0  0  0  0  0  0  0  0  0
   -6.6284   -9.3641   -2.7563 H   0  0  0  0  0  0  0  0  0  0  0  0
   -9.7595   -4.8384   -3.1403 H   0  0  0  0  0  0  0  0  0  0  0  0
  8  7  2  0
  1  5  1  0
  1  2  2  0
  7  2  1  0
  7  9  1  0
  5  4  2  0
  2  3  1  0
  4  3  1  0
  4  6  1  0
  1 10  1  0
  5 11  1  0
  9 12  1  0
A    1
C01
A    2
C02
A    3
O03
A    4
C04
A    5
C05
A    6
BR1
A    7
C07
A    8
O08
A    9
O09
M  END
