2OI7_GN1_A_5000
     RDKit          3D

 35 35  0  0  0  0  0  0  0  0999 V2000
   -5.2010   73.4960  179.6170 C   0  0  0  0  0  0  0  0  0  0  0  0
   -5.2630   74.9760  176.6680 O   0  0  0  0  0  0  0  0  0  0  0  0
   -4.0360   74.2820  177.3270 P   0  0  0  0  0  0  0  0  0  0  0  0
   -3.1180   75.2380  177.9850 O   0  0  0  0  0  0  0  0  0  0  0  0
   -3.3970   73.4870  176.2730 O   0  0  0  0  0  0  0  0  0  0  0  0
   -5.6730   72.1840  180.3340 C   0  0  0  0  0  0  0  0  0  0  0  0
   -6.8550   71.4790  179.5450 C   0  0  0  0  0  0  0  0  0  0  0  0
   -8.0200   72.4760  179.4520 C   0  0  0  0  0  0  0  0  0  0  0  0
   -7.5190   73.8150  178.6630 C   0  0  0  0  0  0  0  0  0  0  0  0
   -8.6150   74.8990  178.5100 C   0  0  0  0  0  0  0  0  0  0  0  0
   -3.1080   69.5850  181.5210 C   0  0  0  0  0  0  0  0  0  0  0  0
   -4.5290   73.1690  178.3630 O   0  0  0  0  0  0  0  0  0  0  0  0
   -7.2940   70.2300  180.2560 O   0  0  0  0  0  0  0  0  0  0  0  0
   -9.1170   71.8500  178.7530 O   0  0  0  0  0  0  0  0  0  0  0  0
   -6.3440   74.4200  179.3880 O   0  0  0  0  0  0  0  0  0  0  0  0
   -4.4830   71.2830  180.5040 N   0  0  0  0  0  0  0  0  0  0  0  0
   -4.3970   70.3970  181.4960 C   0  0  0  0  0  0  0  0  0  0  0  0
   -8.0330   76.0250  177.8390 O   0  0  0  0  0  0  0  0  0  0  0  0
   -5.2970   70.2300  182.3710 O   0  0  0  0  0  0  0  0  0  0  0  0
   -4.4839   74.0136  180.2712 H   0  0  0  0  0  0  0  0  0  0  0  0
   -5.8673   75.3178  177.3738 H   0  0  0  0  0  0  0  0  0  0  0  0
   -3.2008   75.1518  178.9678 H   0  0  0  0  0  0  0  0  0  0  0  0
   -6.0830   72.4282  181.3251 H   0  0  0  0  0  0  0  0  0  0  0  0
   -6.5174   71.1891  178.5390 H   0  0  0  0  0  0  0  0  0  0  0  0
   -8.3584   72.7672  180.4573 H   0  0  0  0  0  0  0  0  0  0  0  0
   -7.2441   73.4859  177.6500 H   0  0  0  0  0  0  0  0  0  0  0  0
   -9.4521   74.5025  177.9167 H   0  0  0  0  0  0  0  0  0  0  0  0
   -8.9977   75.1979  179.4970 H   0  0  0  0  0  0  0  0  0  0  0  0
   -2.8122   69.3987  182.5640 H   0  0  0  0  0  0  0  0  0  0  0  0
   -3.2693   68.6251  181.0085 H   0  0  0  0  0  0  0  0  0  0  0  0
   -2.3119   70.1450  181.0085 H   0  0  0  0  0  0  0  0  0  0  0  0
   -7.2440   70.3724  181.2344 H   0  0  0  0  0  0  0  0  0  0  0  0
   -9.7603   71.4829  179.4099 H   0  0  0  0  0  0  0  0  0  0  0  0
   -3.7067   71.3523  179.8306 H   0  0  0  0  0  0  0  0  0  0  0  0
   -7.6986   76.6720  178.5095 H   0  0  0  0  0  0  0  0  0  0  0  0
  1 12  1  0
  1 15  1  0
  1  6  1  0
  2  3  1  0
  3  5  2  0
  3  4  1  0
  3 12  1  0
  6  7  1  0
  6 16  1  0
  7  8  1  0
  7 13  1  0
  8  9  1  0
  8 14  1  0
  9 10  1  0
  9 15  1  0
 10 18  1  0
 11 17  1  0
 16 17  1  0
 17 19  2  0
  1 20  1  0
  2 21  1  0
  4 22  1  0
  6 23  1  0
  7 24  1  0
  8 25  1  0
  9 26  1  0
 10 27  1  0
 10 28  1  0
 11 29  1  0
 11 30  1  0
 11 31  1  0
 13 32  1  0
 14 33  1  0
 16 34  1  0
 18 35  1  0
A    1
C1'
A    2
OP1
A    3
P
A    4
OP2
A    5
OP3
A    6
C2'
A    7
C3'
A    8
C4'
A    9
C5'
A   10
C6'
A   11
C8'
A   12
O1'
A   13
O3'
A   14
O4'
A   15
O5'
A   16
N2'
A   17
C7'
A   18
O6'
A   19
O7'
M  END
