4HCT_18R_A_701
     RDKit          3D

 72 76  0  0  0  0  0  0  0  0999 V2000
    1.5640   10.0490   18.3050 C   0  0  0  0  0  0  0  0  0  0  0  0
    1.2040   10.4710   17.0690 N   0  0  0  0  0  0  0  0  0  0  0  0
    1.8890   10.8260   19.1990 O   0  0  0  0  0  0  0  0  0  0  0  0
    8.1800    5.1210   21.8490 N   0  0  0  0  0  0  0  0  0  0  0  0
    8.8560    4.0280   22.2600 C   0  0  0  0  0  0  0  0  0  0  0  0
    8.2570    3.0420   22.7080 O   0  0  0  0  0  0  0  0  0  0  0  0
    6.0760    5.9730   22.5970 C   0  0  0  0  0  0  0  0  0  0  0  0
    6.6020    7.4120   22.5920 C   0  0  0  0  0  0  0  0  0  0  0  0
    8.1340    7.4470   22.6120 C   0  0  0  0  0  0  0  0  0  0  0  0
    8.7090    6.4660   21.5870 C   0  0  0  0  0  0  0  0  0  0  0  0
    6.7480    5.1060   21.5570 C   0  0  0  0  0  0  0  0  0  0  0  0
    1.6560    3.6670   23.7580 N   0  0  0  0  0  0  0  0  0  0  0  0
    2.8920    3.5690   24.2650 C   0  0  0  0  0  0  0  0  0  0  0  0
    3.9830    4.2620   23.9220 N   0  0  0  0  0  0  0  0  0  0  0  0
    1.4410    4.5330   22.7430 C   0  0  0  0  0  0  0  0  0  0  0  0
    4.6340    5.9180   22.2700 N   0  0  0  0  0  0  0  0  0  0  0  0
    4.1020    6.6440   21.2400 N   0  0  0  0  0  0  0  0  0  0  0  0
    2.7890    6.2630   21.1950 C   0  0  0  0  0  0  0  0  0  0  0  0
    2.5300    5.3270   22.2300 C   0  0  0  0  0  0  0  0  0  0  0  0
    3.7460    5.1100   22.9070 C   0  0  0  0  0  0  0  0  0  0  0  0
    0.1970    4.6510   22.2500 N   0  0  0  0  0  0  0  0  0  0  0  0
    1.8870    6.7900   20.1340 C   0  0  0  0  0  0  0  0  0  0  0  0
    1.9960    8.1250   19.7630 C   0  0  0  0  0  0  0  0  0  0  0  0
    1.3790    8.5990   18.6080 C   0  0  0  0  0  0  0  0  0  0  0  0
    0.5260    7.7530   17.9010 C   0  0  0  0  0  0  0  0  0  0  0  0
    0.3260    6.4460   18.3280 C   0  0  0  0  0  0  0  0  0  0  0  0
    1.0360    5.9480   19.4140 C   0  0  0  0  0  0  0  0  0  0  0  0
   10.3410    4.0570   22.2370 C   0  0  0  0  0  0  0  0  0  0  0  0
   11.0070    3.6020   21.1970 C   0  0  0  0  0  0  0  0  0  0  0  0
    1.8390   13.5460   15.0090 C   0  0  0  0  0  0  0  0  0  0  0  0
    1.9080   12.2240   15.4630 C   0  0  0  0  0  0  0  0  0  0  0  0
    1.0480   14.4500   15.7160 C   0  0  0  0  0  0  0  0  0  0  0  0
    2.5870   14.0110   13.7470 C   0  0  0  0  0  0  0  0  0  0  0  0
    1.2020   11.8160   16.5960 C   0  0  0  0  0  0  0  0  0  0  0  0
    0.3410   14.0480   16.8420 C   0  0  0  0  0  0  0  0  0  0  0  0
    3.7260   14.9750   14.1100 C   0  0  0  0  0  0  0  0  0  0  0  0
    3.1960   12.8440   12.9650 C   0  0  0  0  0  0  0  0  0  0  0  0
    1.6380   14.7640   12.7890 C   0  0  0  0  0  0  0  0  0  0  0  0
    0.4180   12.7350   17.2850 C   0  0  0  0  0  0  0  0  0  0  0  0
    0.9008    9.7462   16.4030 H   0  0  0  0  0  0  0  0  0  0  0  0
    6.2840    5.6071   23.6133 H   0  0  0  0  0  0  0  0  0  0  0  0
    6.2441    7.9208   21.6848 H   0  0  0  0  0  0  0  0  0  0  0  0
    6.2321    7.9191   23.4953 H   0  0  0  0  0  0  0  0  0  0  0  0
    8.4888    7.1703   23.6158 H   0  0  0  0  0  0  0  0  0  0  0  0
    8.4688    8.4632   22.3567 H   0  0  0  0  0  0  0  0  0  0  0  0
    9.8059    6.4512   21.6683 H   0  0  0  0  0  0  0  0  0  0  0  0
    8.4216    6.7829   20.5736 H   0  0  0  0  0  0  0  0  0  0  0  0
    6.5633    5.5109   20.5510 H   0  0  0  0  0  0  0  0  0  0  0  0
    6.3521    4.0801   21.5858 H   0  0  0  0  0  0  0  0  0  0  0  0
    3.0264    2.8249   25.0639 H   0  0  0  0  0  0  0  0  0  0  0  0
   -0.6058    4.7272   22.8908 H   0  0  0  0  0  0  0  0  0  0  0  0
    0.0460    4.6653   21.2312 H   0  0  0  0  0  0  0  0  0  0  0  0
    2.5776    8.8166   20.3903 H   0  0  0  0  0  0  0  0  0  0  0  0
    0.0096    8.1213   17.0023 H   0  0  0  0  0  0  0  0  0  0  0  0
   -0.3970    5.8031   17.8046 H   0  0  0  0  0  0  0  0  0  0  0  0
    0.9281    4.8930   19.7060 H   0  0  0  0  0  0  0  0  0  0  0  0
   10.8903    4.4634   23.0990 H   0  0  0  0  0  0  0  0  0  0  0  0
   12.1067    3.6295   21.1932 H   0  0  0  0  0  0  0  0  0  0  0  0
   10.4640    3.1942   20.3316 H   0  0  0  0  0  0  0  0  0  0  0  0
    2.5276   11.4958   14.9191 H   0  0  0  0  0  0  0  0  0  0  0  0
    0.9828   15.4948   15.3780 H   0  0  0  0  0  0  0  0  0  0  0  0
   -0.2826   14.7735   17.3850 H   0  0  0  0  0  0  0  0  0  0  0  0
    3.8108   15.0468   15.2044 H   0  0  0  0  0  0  0  0  0  0  0  0
    4.6717   14.5988   13.6928 H   0  0  0  0  0  0  0  0  0  0  0  0
    3.5113   15.9699   13.6928 H   0  0  0  0  0  0  0  0  0  0  0  0
    3.5869   12.0949   13.6694 H   0  0  0  0  0  0  0  0  0  0  0  0
    2.4231   12.3838   12.3319 H   0  0  0  0  0  0  0  0  0  0  0  0
    4.0156   13.2148   12.3319 H   0  0  0  0  0  0  0  0  0  0  0  0
    0.9088   15.3426   13.3750 H   0  0  0  0  0  0  0  0  0  0  0  0
    2.2229   15.4464   12.1548 H   0  0  0  0  0  0  0  0  0  0  0  0
    1.1064   14.0393   12.1548 H   0  0  0  0  0  0  0  0  0  0  0  0
   -0.1402   12.4218   18.1796 H   0  0  0  0  0  0  0  0  0  0  0  0
 38 33  1  0
 37 33  1  0
 33 36  1  0
 33 30  1  0
 30 31  2  0
 30 32  1  0
 31 34  1  0
 32 35  2  0
 34  2  1  0
 34 39  2  0
 35 39  1  0
  2  1  1  0
 25 26  2  0
 25 24  1  0
  1 24  1  0
  1  3  2  0
 26 27  1  0
 24 23  2  0
 27 22  2  0
 23 22  1  0
 22 18  1  0
 18 17  2  0
 18 19  1  0
 29 28  2  3
 17 16  1  0
 11  4  1  0
 11  7  1  0
 10  4  1  0
 10  9  1  0
  4  5  1  0
 19 15  1  0
 19 20  2  0
 28  5  1  0
 21 15  1  0
  5  6  2  0
 16  7  1  0
 16 20  1  0
  8  7  1  0
  8  9  1  0
 15 12  2  0
 20 14  1  0
 12 13  1  0
 14 13  2  0
  2 40  1  0
  7 41  1  0
  8 42  1  0
  8 43  1  0
  9 44  1  0
  9 45  1  0
 10 46  1  0
 10 47  1  0
 11 48  1  0
 11 49  1  0
 13 50  1  0
 21 51  1  0
 21 52  1  0
 23 53  1  0
 25 54  1  0
 26 55  1  0
 27 56  1  0
 28 57  1  0
 29 58  1  0
 29 59  1  0
 31 60  1  0
 32 61  1  0
 35 62  1  0
 36 63  1  0
 36 64  1  0
 36 65  1  0
 37 66  1  0
 37 67  1  0
 37 68  1  0
 38 69  1  0
 38 70  1  0
 38 71  1  0
 39 72  1  0
A    1
C1
A    2
N1
A    3
O1
A    4
N2
A    5
C2
A    6
O2
A    7
C3
A    8
C4
A    9
C5
A   10
C6
A   11
C7
A   12
N3
A   13
C8
A   14
N4
A   15
C9
A   16
N5
A   17
N6
A   18
C10
A   19
C11
A   20
C12
A   21
N7
A   22
C13
A   23
C14
A   24
C15
A   25
C16
A   26
C17
A   27
C18
A   28
C19
A   29
C20
A   30
C21
A   31
C22
A   32
C23
A   33
C24
A   34
C25
A   35
C26
A   36
C27
A   37
C28
A   38
C29
A   39
C30
M  END
