2JJ1_PIT_G_1273
     RDKit          3D

 30 31  0  0  0  0  0  0  0  0999 V2000
   -2.2740   26.4080    8.6630 C   0  0  0  0  0  0  0  0  0  0  0  0
   -1.9980   27.4650    9.5200 C   0  0  0  0  0  0  0  0  0  0  0  0
   -2.9890   27.9350   10.3770 C   0  0  0  0  0  0  0  0  0  0  0  0
   -4.2650   27.3560   10.3840 C   0  0  0  0  0  0  0  0  0  0  0  0
   -4.5340   26.2840    9.5220 C   0  0  0  0  0  0  0  0  0  0  0  0
   -3.5340   25.8160    8.6650 C   0  0  0  0  0  0  0  0  0  0  0  0
   -5.8700   25.6290    9.4890 C   0  0  0  0  0  0  0  0  0  0  0  0
   -6.0240   24.6150    8.6310 C   0  0  0  0  0  0  0  0  0  0  0  0
   -7.2450   23.7960    8.4000 C   0  0  0  0  0  0  0  0  0  0  0  0
   -8.4430   24.0070    9.0880 C   0  0  0  0  0  0  0  0  0  0  0  0
   -9.5440   23.1930    8.8040 C   0  0  0  0  0  0  0  0  0  0  0  0
   -9.4640   22.1740    7.8510 C   0  0  0  0  0  0  0  0  0  0  0  0
   -8.2740   21.9570    7.1610 C   0  0  0  0  0  0  0  0  0  0  0  0
   -7.1740   22.7730    7.4440 C   0  0  0  0  0  0  0  0  0  0  0  0
  -10.5350   21.3820    7.5760 O   0  0  0  0  0  0  0  0  0  0  0  0
   -2.6740   28.9690   11.1990 O   0  0  0  0  0  0  0  0  0  0  0  0
   -1.2980   25.9550    7.8380 O   0  0  0  0  0  0  0  0  0  0  0  0
  -10.7020   23.4070    9.4710 O   0  0  0  0  0  0  0  0  0  0  0  0
   -1.0006   27.9289    9.5217 H   0  0  0  0  0  0  0  0  0  0  0  0
   -5.0460   27.7381   11.0578 H   0  0  0  0  0  0  0  0  0  0  0  0
   -3.7438   24.9748    7.9880 H   0  0  0  0  0  0  0  0  0  0  0  0
   -6.6917   25.9631   10.1395 H   0  0  0  0  0  0  0  0  0  0  0  0
   -5.1441   24.3555    8.0241 H   0  0  0  0  0  0  0  0  0  0  0  0
   -8.5189   24.8032    9.8432 H   0  0  0  0  0  0  0  0  0  0  0  0
   -8.2006   21.1589    6.4076 H   0  0  0  0  0  0  0  0  0  0  0  0
   -6.2303   22.6082    6.9034 H   0  0  0  0  0  0  0  0  0  0  0  0
  -11.0642   20.9907    8.3156 H   0  0  0  0  0  0  0  0  0  0  0  0
   -2.7104   28.8495   12.1811 H   0  0  0  0  0  0  0  0  0  0  0  0
   -0.4685   25.5700    8.2172 H   0  0  0  0  0  0  0  0  0  0  0  0
  -10.7100   23.4085   10.4610 H   0  0  0  0  0  0  0  0  0  0  0  0
  1  6  2  0
  1  2  1  0
  1 17  1  0
  2  3  2  0
  3 16  1  0
  3  4  1  0
  4  5  2  0
  5  7  1  0
  5  6  1  0
  7  8  2  0
  8  9  1  0
  9 10  2  0
  9 14  1  0
 10 11  1  0
 11 18  1  0
 11 12  2  0
 12 15  1  0
 12 13  1  0
 13 14  2  0
  2 19  1  0
  4 20  1  0
  6 21  1  0
  7 22  1  0
  8 23  1  0
 10 24  1  0
 13 25  1  0
 14 26  1  0
 15 27  1  0
 16 28  1  0
 17 29  1  0
 18 30  1  0
A    1
C1
A    2
C2
A    3
C3
A    4
C4
A    5
C5
A    6
C6
A    7
C7
A    8
C8
A    9
C9
A   10
C10
A   11
C11
A   12
C12
A   13
C13
A   14
C14
A   15
O1
A   16
O2
A   17
O3
A   18
OAD
M  END
