4HEE_14R_X_501
     RDKit          3D

 66 72  0  0  0  0  0  0  0  0999 V2000
  -21.2820  -13.1330    7.9380 C   0  0  0  0  0  0  0  0  0  0  0  0
  -21.8300  -14.1660    8.8430 C   0  0  0  0  0  0  0  0  0  0  0  0
  -20.8390  -14.6570    9.8430 C   0  0  0  0  0  0  0  0  0  0  0  0
  -19.9920  -13.8370   10.4420 N   0  0  0  0  0  0  0  0  0  0  0  0
  -19.2230  -14.6080   11.2960 C   0  0  0  0  0  0  0  0  0  0  0  0
  -18.1430  -14.2150   12.1500 C   0  0  0  0  0  0  0  0  0  0  0  0
  -17.5220  -15.1800   12.8520 C   0  0  0  0  0  0  0  0  0  0  0  0
  -17.9140  -16.5000   12.8100 N   0  0  0  0  0  0  0  0  0  0  0  0
  -18.9720  -16.9930   12.0290 C   0  0  0  0  0  0  0  0  0  0  0  0
  -19.3110  -18.1700   12.1130 O   0  0  0  0  0  0  0  0  0  0  0  0
  -19.6060  -15.9740   11.2400 C   0  0  0  0  0  0  0  0  0  0  0  0
  -20.6450  -16.0210   10.2790 N   0  0  0  0  0  0  0  0  0  0  0  0
  -21.2210  -17.2680    9.7260 C   0  0  0  0  0  0  0  0  0  0  0  0
  -22.7470  -17.4180    9.6280 C   0  0  0  0  0  0  0  0  0  0  0  0
  -22.9340  -18.3940    8.4640 C   0  0  0  0  0  0  0  0  0  0  0  0
  -21.7600  -18.0790    7.5750 C   0  0  0  0  0  0  0  0  0  0  0  0
  -20.7810  -17.4200    8.2930 C   0  0  0  0  0  0  0  0  0  0  0  0
  -19.6100  -17.0080    7.6670 C   0  0  0  0  0  0  0  0  0  0  0  0
  -19.4350  -17.2540    6.3160 C   0  0  0  0  0  0  0  0  0  0  0  0
  -20.4170  -17.8970    5.5590 C   0  0  0  0  0  0  0  0  0  0  0  0
  -21.5770  -18.3280    6.2160 C   0  0  0  0  0  0  0  0  0  0  0  0
  -20.2680  -18.0560    4.0830 C   0  0  0  0  0  0  0  0  0  0  0  0
  -20.5650  -19.3040    3.5230 C   0  0  0  0  0  0  0  0  0  0  0  0
  -20.5710  -19.4900    2.1490 C   0  0  0  0  0  0  0  0  0  0  0  0
  -20.2690  -18.4420    1.3050 C   0  0  0  0  0  0  0  0  0  0  0  0
  -19.9390  -17.1990    1.8270 C   0  0  0  0  0  0  0  0  0  0  0  0
  -19.9240  -16.9970    3.2100 C   0  0  0  0  0  0  0  0  0  0  0  0
  -19.5000  -15.6640    3.6730 C   0  0  0  0  0  0  0  0  0  0  0  0
  -18.3090  -15.1070    3.4200 N   0  0  0  0  0  0  0  0  0  0  0  0
  -18.2680  -13.8810    3.9840 N   0  0  0  0  0  0  0  0  0  0  0  0
  -19.4060  -13.7120    4.5650 N   0  0  0  0  0  0  0  0  0  0  0  0
  -20.2010  -14.8040    4.3970 N   0  0  0  0  0  0  0  0  0  0  0  0
  -17.1940  -17.4690   13.6460 C   0  0  0  0  0  0  0  0  0  0  0  0
  -17.2600  -17.1230   15.1120 C   0  0  0  0  0  0  0  0  0  0  0  0
  -16.1020  -16.9980   15.8620 C   0  0  0  0  0  0  0  0  0  0  0  0
  -16.1590  -16.6280   17.1940 C   0  0  0  0  0  0  0  0  0  0  0  0
  -17.3720  -16.3710   17.7890 C   0  0  0  0  0  0  0  0  0  0  0  0
  -18.5330  -16.4980   17.0610 C   0  0  0  0  0  0  0  0  0  0  0  0
  -18.4790  -16.8730   15.7280 C   0  0  0  0  0  0  0  0  0  0  0  0
  -20.8486  -12.3161    8.5337 H   0  0  0  0  0  0  0  0  0  0  0  0
  -20.5014  -13.5781    7.3035 H   0  0  0  0  0  0  0  0  0  0  0  0
  -22.0883  -12.7363    7.3035 H   0  0  0  0  0  0  0  0  0  0  0  0
  -22.6882  -13.7386    9.3822 H   0  0  0  0  0  0  0  0  0  0  0  0
  -22.1193  -15.0256    8.2205 H   0  0  0  0  0  0  0  0  0  0  0  0
  -17.8325  -13.1627   12.2291 H   0  0  0  0  0  0  0  0  0  0  0  0
  -16.6662  -14.9038   13.4855 H   0  0  0  0  0  0  0  0  0  0  0  0
  -20.8636  -18.0049   10.4603 H   0  0  0  0  0  0  0  0  0  0  0  0
  -23.2244  -16.4510    9.4113 H   0  0  0  0  0  0  0  0  0  0  0  0
  -23.2044  -17.7728   10.5634 H   0  0  0  0  0  0  0  0  0  0  0  0
  -23.8857  -18.2124    7.9432 H   0  0  0  0  0  0  0  0  0  0  0  0
  -22.9720  -19.4471    8.7795 H   0  0  0  0  0  0  0  0  0  0  0  0
  -18.8278  -16.4900    8.2414 H   0  0  0  0  0  0  0  0  0  0  0  0
  -18.5019  -16.9360    5.8279 H   0  0  0  0  0  0  0  0  0  0  0  0
  -22.3519  -18.8689    5.6530 H   0  0  0  0  0  0  0  0  0  0  0  0
  -20.7976  -20.1517    4.1843 H   0  0  0  0  0  0  0  0  0  0  0  0
  -20.8175  -20.4770    1.7307 H   0  0  0  0  0  0  0  0  0  0  0  0
  -20.2897  -18.5916    0.2154 H   0  0  0  0  0  0  0  0  0  0  0  0
  -19.6882  -16.3694    1.1495 H   0  0  0  0  0  0  0  0  0  0  0  0
  -17.5469  -15.5435    2.8818 H   0  0  0  0  0  0  0  0  0  0  0  0
  -17.6393  -18.4638   13.4973 H   0  0  0  0  0  0  0  0  0  0  0  0
  -16.1363  -17.4522   13.3443 H   0  0  0  0  0  0  0  0  0  0  0  0
  -15.1265  -17.1951   15.3934 H   0  0  0  0  0  0  0  0  0  0  0  0
  -15.2315  -16.5391   17.7787 H   0  0  0  0  0  0  0  0  0  0  0  0
  -17.4141  -16.0646   18.8446 H   0  0  0  0  0  0  0  0  0  0  0  0
  -19.5047  -16.3017   17.5377 H   0  0  0  0  0  0  0  0  0  0  0  0
  -19.4109  -16.9736   15.1523 H   0  0  0  0  0  0  0  0  0  0  0  0
 25 26  2  0
 25 24  1  0
 26 27  1  0
 24 23  2  0
 27 28  1  0
 27 22  2  0
 29 28  1  0
 29 30  1  0
 23 22  1  0
 28 32  2  0
 30 31  2  0
 22 20  1  0
 32 31  1  0
 20 21  1  0
 20 19  2  0
 21 16  2  0
 19 18  1  0
 16 17  1  0
 16 15  1  0
 18 17  2  0
  1  2  1  0
 17 13  1  0
 15 14  1  0
  2  3  1  0
 14 13  1  0
 13 12  1  0
  3 12  1  0
  3  4  2  0
 12 11  1  0
  4  5  1  0
 11  5  2  0
 11  9  1  0
  5  6  1  0
  9 10  2  0
  9  8  1  0
  6  7  2  0
  8  7  1  0
  8 33  1  0
 33 34  1  0
 34 39  1  0
 34 35  2  0
 39 38  2  0
 35 36  1  0
 38 37  1  0
 36 37  2  0
  1 40  1  0
  1 41  1  0
  1 42  1  0
  2 43  1  0
  2 44  1  0
  6 45  1  0
  7 46  1  0
 13 47  1  0
 14 48  1  0
 14 49  1  0
 15 50  1  0
 15 51  1  0
 18 52  1  0
 19 53  1  0
 21 54  1  0
 23 55  1  0
 24 56  1  0
 25 57  1  0
 26 58  1  0
 29 59  1  0
 33 60  1  0
 33 61  1  0
 35 62  1  0
 36 63  1  0
 37 64  1  0
 38 65  1  0
 39 66  1  0
A    1
C1
A    2
C2
A    3
C3
A    4
N1
A    5
C4
A    6
C5
A    7
C6
A    8
N2
A    9
C7
A   10
O1
A   11
C8
A   12
N3
A   13
C9
A   14
C10
A   15
C11
A   16
C12
A   17
C13
A   18
C14
A   19
C15
A   20
C16
A   21
C17
A   22
C18
A   23
C19
A   24
C20
A   25
C21
A   26
C22
A   27
C23
A   28
C24
A   29
N4
A   30
N5
A   31
N6
A   32
N7
A   33
C25
A   34
C26
A   35
C27
A   36
C28
A   37
C29
A   38
C30
A   39
C31
M  END
