4HEJ_14D_A_301
     RDKit          3D

 57 60  0  0  0  0  0  0  0  0999 V2000
   12.0210   -3.6210    1.0730 C   0  0  0  0  0  0  0  0  0  0  0  0
   11.4890   -2.2390    0.9260 C   0  0  0  0  0  0  0  0  0  0  0  0
   11.0490   -1.5350    1.9670 C   0  0  0  0  0  0  0  0  0  0  0  0
   10.5530   -0.2600    1.8270 N   0  0  0  0  0  0  0  0  0  0  0  0
   10.5260    0.3780    0.5950 C   0  0  0  0  0  0  0  0  0  0  0  0
   10.1830    1.5530    0.4900 O   0  0  0  0  0  0  0  0  0  0  0  0
   10.9020   -0.3320   -0.4830 N   0  0  0  0  0  0  0  0  0  0  0  0
   11.4090   -1.5830   -0.4140 C   0  0  0  0  0  0  0  0  0  0  0  0
   11.8020   -2.1860   -1.4120 O   0  0  0  0  0  0  0  0  0  0  0  0
   10.0680    0.4530    3.0050 C   0  0  0  0  0  0  0  0  0  0  0  0
    9.1670   -0.3900    3.9170 C   0  0  0  0  0  0  0  0  0  0  0  0
    8.6640    0.4130    5.1000 C   0  0  0  0  0  0  0  0  0  0  0  0
    9.8360    0.9590    5.8930 C   0  0  0  0  0  0  0  0  0  0  0  0
   10.6450    1.8310    4.9800 N   0  0  0  0  0  0  0  0  0  0  0  0
   11.1830    1.1650    3.7490 C   0  0  0  0  0  0  0  0  0  0  0  0
   11.6260    2.7310    5.6730 C   0  0  0  0  0  0  0  0  0  0  0  0
   12.8470    2.0370    6.1960 C   0  0  0  0  0  0  0  0  0  0  0  0
   12.8810    1.5860    7.5050 C   0  0  0  0  0  0  0  0  0  0  0  0
   13.9880    0.9260    7.9930 C   0  0  0  0  0  0  0  0  0  0  0  0
   15.0850    0.7290    7.1740 C   0  0  0  0  0  0  0  0  0  0  0  0
   15.0440    1.1660    5.8640 C   0  0  0  0  0  0  0  0  0  0  0  0
   13.9390    1.8300    5.3730 C   0  0  0  0  0  0  0  0  0  0  0  0
   16.1520    0.9850    5.0490 O   0  0  0  0  0  0  0  0  0  0  0  0
   16.2060   -0.1230    4.2200 C   0  0  0  0  0  0  0  0  0  0  0  0
   15.3830   -1.2350    4.3050 C   0  0  0  0  0  0  0  0  0  0  0  0
   15.5570   -2.2880    3.4220 C   0  0  0  0  0  0  0  0  0  0  0  0
   16.5470   -2.2310    2.4610 C   0  0  0  0  0  0  0  0  0  0  0  0
   17.3530   -1.1050    2.3780 C   0  0  0  0  0  0  0  0  0  0  0  0
   17.1860   -0.0580    3.2580 C   0  0  0  0  0  0  0  0  0  0  0  0
   18.4270   -1.0130    1.3580 C   0  0  0  0  0  0  0  0  0  0  0  0
   17.9990   -1.3290    0.1160 F   0  0  0  0  0  0  0  0  0  0  0  0
   19.4430   -1.8510    1.6600 F   0  0  0  0  0  0  0  0  0  0  0  0
   18.9860    0.2180    1.2090 F   0  0  0  0  0  0  0  0  0  0  0  0
   12.1153   -3.8659    2.1412 H   0  0  0  0  0  0  0  0  0  0  0  0
   11.3323   -4.3320    0.5932 H   0  0  0  0  0  0  0  0  0  0  0  0
   13.0087   -3.6867    0.5932 H   0  0  0  0  0  0  0  0  0  0  0  0
   11.0833   -1.9869    2.9693 H   0  0  0  0  0  0  0  0  0  0  0  0
   10.7981    0.1009   -1.4118 H   0  0  0  0  0  0  0  0  0  0  0  0
    9.4036    1.2408    2.6204 H   0  0  0  0  0  0  0  0  0  0  0  0
    8.3045   -0.7474    3.3353 H   0  0  0  0  0  0  0  0  0  0  0  0
    9.7588   -1.2342    4.3005 H   0  0  0  0  0  0  0  0  0  0  0  0
    8.0485    1.2494    4.7372 H   0  0  0  0  0  0  0  0  0  0  0  0
    8.0617   -0.2395    5.7492 H   0  0  0  0  0  0  0  0  0  0  0  0
   10.4558    0.1290    6.2630 H   0  0  0  0  0  0  0  0  0  0  0  0
    9.4773    1.5379    6.7568 H   0  0  0  0  0  0  0  0  0  0  0  0
   11.9511    0.4328    4.0388 H   0  0  0  0  0  0  0  0  0  0  0  0
   11.6207    1.9299    3.0907 H   0  0  0  0  0  0  0  0  0  0  0  0
   11.9492    3.5017    4.9578 H   0  0  0  0  0  0  0  0  0  0  0  0
   11.1043    3.1462    6.5479 H   0  0  0  0  0  0  0  0  0  0  0  0
   12.0154    1.7564    8.1620 H   0  0  0  0  0  0  0  0  0  0  0  0
   13.9991    0.5575    9.0294 H   0  0  0  0  0  0  0  0  0  0  0  0
   15.9837    0.2279    7.5629 H   0  0  0  0  0  0  0  0  0  0  0  0
   13.9265    2.1922    4.3344 H   0  0  0  0  0  0  0  0  0  0  0  0
   14.5947   -1.2811    5.0708 H   0  0  0  0  0  0  0  0  0  0  0  0
   14.9051   -3.1716    3.4865 H   0  0  0  0  0  0  0  0  0  0  0  0
   16.6953   -3.0715    1.7670 H   0  0  0  0  0  0  0  0  0  0  0  0
   17.8351    0.8275    3.1910 H   0  0  0  0  0  0  0  0  0  0  0  0
  9  8  2  0
  7  8  1  0
  7  5  1  0
  8  2  1  0
 31 30  1  0
  6  5  2  0
  5  4  1  0
  2  1  1  0
  2  3  2  0
 33 30  1  0
 30 32  1  0
 30 28  1  0
  4  3  1  0
  4 10  1  0
 28 27  2  0
 28 29  1  0
 27 26  1  0
 10 15  1  0
 10 11  1  0
 29 24  2  0
 26 25  2  0
 15 14  1  0
 11 12  1  0
 24 25  1  0
 24 23  1  0
 14 16  1  0
 14 13  1  0
 23 21  1  0
 12 13  1  0
 22 21  2  0
 22 17  1  0
 16 17  1  0
 21 20  1  0
 17 18  2  0
 20 19  2  0
 18 19  1  0
  1 34  1  0
  1 35  1  0
  1 36  1  0
  3 37  1  0
  7 38  1  0
 10 39  1  0
 11 40  1  0
 11 41  1  0
 12 42  1  0
 12 43  1  0
 13 44  1  0
 13 45  1  0
 15 46  1  0
 15 47  1  0
 16 48  1  0
 16 49  1  0
 18 50  1  0
 19 51  1  0
 20 52  1  0
 22 53  1  0
 25 54  1  0
 26 55  1  0
 27 56  1  0
 29 57  1  0
A    1
C1
A    2
C2
A    3
C3
A    4
N1
A    5
C4
A    6
O1
A    7
N2
A    8
C5
A    9
O2
A   10
C6
A   11
C7
A   12
C8
A   13
C9
A   14
N3
A   15
C10
A   16
C11
A   17
C12
A   18
C13
A   19
C14
A   20
C15
A   21
C16
A   22
C17
A   23
O3
A   24
C18
A   25
C19
A   26
C20
A   27
C21
A   28
C22
A   29
C23
A   30
C24
A   31
F1
A   32
F2
A   33
F3
M  END
