4HFR_14M_A_302
     RDKit          3D

 62 64  0  0  0  0  0  0  0  0999 V2000
  -12.9740   55.6040   10.8690 C   0  0  0  0  0  0  0  0  0  0  0  0
  -12.0660   54.6730   10.1500 C   0  0  0  0  0  0  0  0  0  0  0  0
  -10.7530   54.5530   10.8510 C   0  0  0  0  0  0  0  0  0  0  0  0
   -9.8350   53.5880   10.1110 C   0  0  0  0  0  0  0  0  0  0  0  0
   -9.0320   55.1730   13.5710 C   0  0  0  0  0  0  0  0  0  0  0  0
   -7.1610   56.1200   14.5120 C   0  0  0  0  0  0  0  0  0  0  0  0
   -7.9230   57.1850   14.9750 C   0  0  0  0  0  0  0  0  0  0  0  0
   -9.2850   57.2290   14.7490 C   0  0  0  0  0  0  0  0  0  0  0  0
   -9.8430   56.2030   14.0280 C   0  0  0  0  0  0  0  0  0  0  0  0
   -7.3130   58.3000   15.7110 C   0  0  0  0  0  0  0  0  0  0  0  0
   -5.2890   59.6580   15.7690 C   0  0  0  0  0  0  0  0  0  0  0  0
   -3.8230   59.2430   15.6750 C   0  0  0  0  0  0  0  0  0  0  0  0
   -2.9290   60.2820   16.3270 C   0  0  0  0  0  0  0  0  0  0  0  0
   -5.5940   61.0540   15.2300 C   0  0  0  0  0  0  0  0  0  0  0  0
   -5.0440   54.2770   14.2970 C   0  0  0  0  0  0  0  0  0  0  0  0
   -4.7780   54.2070   12.8080 C   0  0  0  0  0  0  0  0  0  0  0  0
   -4.1930   52.8520   12.4600 C   0  0  0  0  0  0  0  0  0  0  0  0
   -5.3900   55.9980   14.7150 S   0  0  0  0  0  0  0  0  0  0  0  0
  -12.8460   56.8080   11.0190 O   0  0  0  0  0  0  0  0  0  0  0  0
  -14.0300   54.8980   11.2970 O   0  0  0  0  0  0  0  0  0  0  0  0
   -7.8570   58.7930   16.6960 O   0  0  0  0  0  0  0  0  0  0  0  0
   -9.5540   54.1050   12.8070 N   0  0  0  0  0  0  0  0  0  0  0  0
   -7.7270   55.1130   13.8430 N   0  0  0  0  0  0  0  0  0  0  0  0
   -6.1320   58.6900   15.1370 N   0  0  0  0  0  0  0  0  0  0  0  0
  -10.9090   54.2360   12.3150 C   0  0  0  0  0  0  0  0  0  0  0  0
   -8.6270   53.1210   12.2340 C   0  0  0  0  0  0  0  0  0  0  0  0
   -8.4730   53.4320   10.7490 C   0  0  0  0  0  0  0  0  0  0  0  0
   -3.2310   61.6690   15.7760 C   0  0  0  0  0  0  0  0  0  0  0  0
   -4.7040   62.0600   15.9270 C   0  0  0  0  0  0  0  0  0  0  0  0
  -11.8960   55.0522    9.1315 H   0  0  0  0  0  0  0  0  0  0  0  0
  -12.5375   53.6796   10.1195 H   0  0  0  0  0  0  0  0  0  0  0  0
  -10.2626   55.5374   10.8291 H   0  0  0  0  0  0  0  0  0  0  0  0
   -9.6969   53.9587    9.0846 H   0  0  0  0  0  0  0  0  0  0  0  0
  -10.3178   52.6000   10.1401 H   0  0  0  0  0  0  0  0  0  0  0  0
   -9.9001   58.0562   15.1329 H   0  0  0  0  0  0  0  0  0  0  0  0
  -10.9220   56.1969   13.8144 H   0  0  0  0  0  0  0  0  0  0  0  0
   -5.5048   59.7012   16.8468 H   0  0  0  0  0  0  0  0  0  0  0  0
   -3.6873   58.2782   16.1856 H   0  0  0  0  0  0  0  0  0  0  0  0
   -3.5475   59.1549   14.6137 H   0  0  0  0  0  0  0  0  0  0  0  0
   -3.1030   60.2785   17.4131 H   0  0  0  0  0  0  0  0  0  0  0  0
   -1.8796   60.0343   16.1095 H   0  0  0  0  0  0  0  0  0  0  0  0
   -5.4022   61.0807   14.1472 H   0  0  0  0  0  0  0  0  0  0  0  0
   -6.6494   61.3009   15.4174 H   0  0  0  0  0  0  0  0  0  0  0  0
   -5.9099   53.6485   14.5524 H   0  0  0  0  0  0  0  0  0  0  0  0
   -4.1726   53.9123   14.8606 H   0  0  0  0  0  0  0  0  0  0  0  0
   -4.0663   54.9967   12.5255 H   0  0  0  0  0  0  0  0  0  0  0  0
   -5.7215   54.3495   12.2608 H   0  0  0  0  0  0  0  0  0  0  0  0
   -3.9572   52.3058   13.3853 H   0  0  0  0  0  0  0  0  0  0  0  0
   -4.9233   52.2776   11.8711 H   0  0  0  0  0  0  0  0  0  0  0  0
   -3.2741   52.9896   11.8711 H   0  0  0  0  0  0  0  0  0  0  0  0
  -14.1924   54.7894   12.2675 H   0  0  0  0  0  0  0  0  0  0  0  0
   -5.8464   58.2800   14.2363 H   0  0  0  0  0  0  0  0  0  0  0  0
  -11.4338   55.0510   12.8350 H   0  0  0  0  0  0  0  0  0  0  0  0
  -11.5037   53.3261   12.4836 H   0  0  0  0  0  0  0  0  0  0  0  0
   -9.0319   52.1064   12.3634 H   0  0  0  0  0  0  0  0  0  0  0  0
   -7.6516   53.1734   12.7398 H   0  0  0  0  0  0  0  0  0  0  0  0
   -7.9327   52.6091   10.2583 H   0  0  0  0  0  0  0  0  0  0  0  0
   -7.9093   54.3693   10.6322 H   0  0  0  0  0  0  0  0  0  0  0  0
   -2.9704   61.6871   14.7075 H   0  0  0  0  0  0  0  0  0  0  0  0
   -2.6358   62.3915   16.3536 H   0  0  0  0  0  0  0  0  0  0  0  0
   -4.8623   63.0532   15.4814 H   0  0  0  0  0  0  0  0  0  0  0  0
   -4.9589   62.0791   16.9969 H   0  0  0  0  0  0  0  0  0  0  0  0
  4 27  1  0
  4  3  1  0
  2  3  1  0
  2  1  1  0
 27 26  1  0
  3 25  1  0
  1 19  2  0
  1 20  1  0
 26 22  1  0
 25 22  1  0
 17 16  1  0
 22  5  1  0
 16 15  1  0
  5 23  1  0
  5  9  2  0
 23  6  2  0
  9  8  1  0
 15 18  1  0
  6 18  1  0
  6  7  1  0
  8  7  2  0
  7 10  1  0
 24 10  1  0
 24 11  1  0
 14 11  1  0
 14 29  1  0
 12 11  1  0
 12 13  1  0
 10 21  2  0
 28 29  1  0
 28 13  1  0
  2 30  1  0
  2 31  1  0
  3 32  1  0
  4 33  1  0
  4 34  1  0
  8 35  1  0
  9 36  1  0
 11 37  1  0
 12 38  1  0
 12 39  1  0
 13 40  1  0
 13 41  1  0
 14 42  1  0
 14 43  1  0
 15 44  1  0
 15 45  1  0
 16 46  1  0
 16 47  1  0
 17 48  1  0
 17 49  1  0
 17 50  1  0
 20 51  1  0
 24 52  1  0
 25 53  1  0
 25 54  1  0
 26 55  1  0
 26 56  1  0
 27 57  1  0
 27 58  1  0
 28 59  1  0
 28 60  1  0
 29 61  1  0
 29 62  1  0
A    1
C1
A    2
C2
A    3
C3
A    4
C7
A    5
C8
A    6
C9
A    7
C10
A    8
C11
A    9
C12
A   10
C13
A   11
C14
A   12
C15
A   13
C16
A   14
C19
A   15
C20
A   16
C21
A   17
C22
A   18
S1
A   19
O1
A   20
O2
A   21
O3
A   22
N1
A   23
N2
A   24
N3
A   25
C4
A   26
C5
A   27
C6
A   28
C17
A   29
C18
M  END
