4HG7_NUT_A_201
     RDKit          3D

 70 74  0  0  0  0  0  0  0  0999 V2000
  -23.6670    5.8390  -16.5680 O   0  0  0  0  0  0  0  0  0  0  0  0
  -23.0150    6.5380  -15.7570 C   0  0  0  0  0  0  0  0  0  0  0  0
  -21.6950    6.4020  -15.7100 N   0  0  0  0  0  0  0  0  0  0  0  0
  -21.0060    5.5640  -16.6970 C   0  0  0  0  0  0  0  0  0  0  0  0
  -19.6240    6.0370  -17.0660 C   0  0  0  0  0  0  0  0  0  0  0  0
  -19.0270    5.4380  -17.9570 O   0  0  0  0  0  0  0  0  0  0  0  0
  -19.0960    7.0880  -16.4230 N   0  0  0  0  0  0  0  0  0  0  0  0
  -19.7650    7.7770  -15.3160 C   0  0  0  0  0  0  0  0  0  0  0  0
  -20.8510    6.9550  -14.6470 C   0  0  0  0  0  0  0  0  0  0  0  0
  -23.7280    7.3870  -14.9700 N   0  0  0  0  0  0  0  0  0  0  0  0
  -25.0320    7.1730  -14.7100 C   0  0  0  0  0  0  0  0  0  0  0  0
  -25.7160    5.8490  -14.5590 C   0  0  0  0  0  0  0  0  0  0  0  0
  -27.0030    5.6430  -15.0330 C   0  0  0  0  0  0  0  0  0  0  0  0
  -27.6360    4.3900  -14.8720 C   0  0  0  0  0  0  0  0  0  0  0  0
  -25.0210    4.7420  -13.8780 C   0  0  0  0  0  0  0  0  0  0  0  0
  -23.7510    4.9500  -13.4150 O   0  0  0  0  0  0  0  0  0  0  0  0
  -23.0770    3.9270  -12.6400 C   0  0  0  0  0  0  0  0  0  0  0  0
  -22.4450    2.9000  -13.5860 C   0  0  0  0  0  0  0  0  0  0  0  0
  -22.0630    4.5960  -11.7180 C   0  0  0  0  0  0  0  0  0  0  0  0
  -25.6780    3.5120  -13.7320 C   0  0  0  0  0  0  0  0  0  0  0  0
  -26.9730    3.3480  -14.2070 C   0  0  0  0  0  0  0  0  0  0  0  0
  -27.5570    2.1270  -14.0220 O   0  0  0  0  0  0  0  0  0  0  0  0
  -28.8630    1.8220  -14.5400 C   0  0  0  0  0  0  0  0  0  0  0  0
  -23.3300    8.7740  -14.7400 C   0  0  0  0  0  0  0  0  0  0  0  0
  -22.8970    9.2330  -13.3740 C   0  0  0  0  0  0  0  0  0  0  0  0
  -22.1980   10.4510  -13.3260 C   0  0  0  0  0  0  0  0  0  0  0  0
  -21.8670   10.9940  -12.0870 C   0  0  0  0  0  0  0  0  0  0  0  0
  -22.2600   10.3210  -10.9420 C   0  0  0  0  0  0  0  0  0  0  0  0
  -21.9280   11.0790   -9.3760 Cl  0  0  0  0  0  0  0  0  0  0  0  0
  -22.9880    9.1230  -10.9420 C   0  0  0  0  0  0  0  0  0  0  0  0
  -23.3000    8.5790  -12.1900 C   0  0  0  0  0  0  0  0  0  0  0  0
  -24.7920    9.3670  -15.0380 C   0  0  0  0  0  0  0  0  0  0  0  0
  -25.7070    8.2510  -14.7090 N   0  0  0  0  0  0  0  0  0  0  0  0
  -25.1940   10.6170  -14.3010 C   0  0  0  0  0  0  0  0  0  0  0  0
  -24.9800   11.8740  -14.8650 C   0  0  0  0  0  0  0  0  0  0  0  0
  -25.3550   13.0350  -14.1450 C   0  0  0  0  0  0  0  0  0  0  0  0
  -25.9350   12.9210  -12.8640 C   0  0  0  0  0  0  0  0  0  0  0  0
  -26.4170   14.3600  -11.9150 Cl  0  0  0  0  0  0  0  0  0  0  0  0
  -26.1560   11.6770  -12.2540 C   0  0  0  0  0  0  0  0  0  0  0  0
  -25.7910   10.5280  -13.0190 C   0  0  0  0  0  0  0  0  0  0  0  0
  -21.6160    5.5397  -17.6120 H   0  0  0  0  0  0  0  0  0  0  0  0
  -20.8832    4.5739  -16.2338 H   0  0  0  0  0  0  0  0  0  0  0  0
  -18.1715    7.4293  -16.7227 H   0  0  0  0  0  0  0  0  0  0  0  0
  -19.0085    8.0328  -14.5595 H   0  0  0  0  0  0  0  0  0  0  0  0
  -20.2537    8.6658  -15.7417 H   0  0  0  0  0  0  0  0  0  0  0  0
  -21.4518    7.5939  -13.9831 H   0  0  0  0  0  0  0  0  0  0  0  0
  -20.4120    6.1500  -14.0393 H   0  0  0  0  0  0  0  0  0  0  0  0
  -27.5355    6.4620  -15.5386 H   0  0  0  0  0  0  0  0  0  0  0  0
  -28.6497    4.2316  -15.2686 H   0  0  0  0  0  0  0  0  0  0  0  0
  -23.7872    3.3769  -12.0052 H   0  0  0  0  0  0  0  0  0  0  0  0
  -21.9583    2.1091  -12.9963 H   0  0  0  0  0  0  0  0  0  0  0  0
  -23.2265    2.4562  -14.2203 H   0  0  0  0  0  0  0  0  0  0  0  0
  -21.6966    3.3976  -14.2203 H   0  0  0  0  0  0  0  0  0  0  0  0
  -22.3426    4.4116  -10.6702 H   0  0  0  0  0  0  0  0  0  0  0  0
  -21.0629    4.1798  -11.9094 H   0  0  0  0  0  0  0  0  0  0  0  0
  -22.0521    5.6792  -11.9094 H   0  0  0  0  0  0  0  0  0  0  0  0
  -25.1655    2.6728  -13.2389 H   0  0  0  0  0  0  0  0  0  0  0  0
  -29.5599    1.6592  -13.7047 H   0  0  0  0  0  0  0  0  0  0  0  0
  -29.2184    2.6613  -15.1558 H   0  0  0  0  0  0  0  0  0  0  0  0
  -28.8099    0.9121  -15.1558 H   0  0  0  0  0  0  0  0  0  0  0  0
  -22.4296    9.0505  -15.3081 H   0  0  0  0  0  0  0  0  0  0  0  0
  -21.9160   10.9687  -14.2547 H   0  0  0  0  0  0  0  0  0  0  0  0
  -21.3054   11.9374  -12.0192 H   0  0  0  0  0  0  0  0  0  0  0  0
  -23.2981    8.6357  -10.0058 H   0  0  0  0  0  0  0  0  0  0  0  0
  -23.8628    7.6358  -12.2504 H   0  0  0  0  0  0  0  0  0  0  0  0
  -24.8216    9.7085  -16.0832 H   0  0  0  0  0  0  0  0  0  0  0  0
  -24.5233   11.9636  -15.8617 H   0  0  0  0  0  0  0  0  0  0  0  0
  -25.1933   14.0294  -14.5865 H   0  0  0  0  0  0  0  0  0  0  0  0
  -26.5855   11.5918  -11.2449 H   0  0  0  0  0  0  0  0  0  0  0  0
  -25.9814    9.5310  -12.5950 H   0  0  0  0  0  0  0  0  0  0  0  0
  6  5  2  0
  5  4  1  0
  5  7  1  0
  4  3  1  0
  1  2  2  0
  7  8  1  0
  2  3  1  0
  2 10  1  0
  3  9  1  0
  8  9  1  0
 32 24  1  0
 32 33  1  0
 32 34  1  0
 13 14  2  0
 13 12  1  0
 10 24  1  0
 10 11  1  0
 14 21  1  0
 35 34  2  0
 35 36  1  0
 24 25  1  0
 11 33  2  0
 11 12  1  0
 12 15  2  0
 23 22  1  0
 34 40  1  0
 21 22  1  0
 21 20  2  0
 36 37  2  0
 15 20  1  0
 15 16  1  0
 18 17  1  0
 16 17  1  0
 25 26  2  0
 25 31  1  0
 26 27  1  0
 40 39  2  0
 37 39  1  0
 37 38  1  0
 17 19  1  0
 31 30  2  0
 27 28  2  0
 30 28  1  0
 28 29  1  0
  4 41  1  0
  4 42  1  0
  7 43  1  0
  8 44  1  0
  8 45  1  0
  9 46  1  0
  9 47  1  0
 13 48  1  0
 14 49  1  0
 17 50  1  0
 18 51  1  0
 18 52  1  0
 18 53  1  0
 19 54  1  0
 19 55  1  0
 19 56  1  0
 20 57  1  0
 23 58  1  0
 23 59  1  0
 23 60  1  0
 24 61  1  0
 26 62  1  0
 27 63  1  0
 30 64  1  0
 31 65  1  0
 32 66  1  0
 35 67  1  0
 36 68  1  0
 39 69  1  0
 40 70  1  0
A    1
O3
A    2
C25
A    3
N2
A    4
C29
A    5
C28
A    6
O2
A    7
N3
A    8
C27
A    9
C26
A   10
N1
A   11
C10
A   12
C9
A   13
C3
A   14
C2
A   15
C5
A   16
O1
A   17
C6
A   18
C8
A   19
C7
A   20
C4
A   21
C1
A   22
O
A   23
C
A   24
C18
A   25
C19
A   26
C24
A   27
C23
A   28
C22
A   29
CL1
A   30
C21
A   31
C20
A   32
C11
A   33
N
A   34
C12
A   35
C17
A   36
C16
A   37
C15
A   38
CL
A   39
C14
A   40
C13
M  END
