4HKP_TKW_A_304
     RDKit          3D

 36 37  0  0  0  0  0  0  0  0999 V2000
   26.6220  -13.0530   12.9700 O   0  0  0  0  0  0  0  0  0  0  0  0
   25.5460  -13.1620   14.1510 P   0  0  0  0  0  0  0  0  0  0  0  0
   26.0690  -14.0670   15.3610 O   0  0  0  0  0  0  0  0  0  0  0  0
   24.1100  -13.6060   13.6570 O   0  0  0  0  0  0  0  0  0  0  0  0
   25.4250  -11.6770   14.7770 O   0  0  0  0  0  0  0  0  0  0  0  0
   24.2830  -10.8800   14.4380 C   0  0  0  0  0  0  0  0  0  0  0  0
   24.4470   -9.6180   15.2680 C   0  0  0  0  0  0  0  0  0  0  0  0
   23.7950   -8.5240   14.5840 O   0  0  0  0  0  0  0  0  0  0  0  0
   23.7530   -9.8350   16.5860 C   0  0  0  0  0  0  0  0  0  0  0  0
   24.4490   -9.1160   17.6580 O   0  0  0  0  0  0  0  0  0  0  0  0
   22.3350   -9.2960   16.3220 C   0  0  0  0  0  0  0  0  0  0  0  0
   21.8000   -8.8210   17.5380 O   0  0  0  0  0  0  0  0  0  0  0  0
   22.5660   -8.1880   15.3010 C   0  0  0  0  0  0  0  0  0  0  0  0
   21.4990   -7.9620   14.2660 N   0  0  0  0  0  0  0  0  0  0  0  0
   20.9790   -8.8630   13.3960 C   0  0  0  0  0  0  0  0  0  0  0  0
   21.3220  -10.0390   13.3780 O   0  0  0  0  0  0  0  0  0  0  0  0
   20.0410   -8.4930   12.5030 N   0  0  0  0  0  0  0  0  0  0  0  0
   19.6140   -7.2210   12.4410 C   0  0  0  0  0  0  0  0  0  0  0  0
   18.7060   -6.7950   11.5850 N   0  0  0  0  0  0  0  0  0  0  0  0
   20.1310   -6.2780   13.3000 C   0  0  0  0  0  0  0  0  0  0  0  0
   19.6710   -5.0150   13.2010 O   0  0  0  0  0  0  0  0  0  0  0  0
   21.0750   -6.6500   14.1900 C   0  0  0  0  0  0  0  0  0  0  0  0
   25.8235  -13.6422   16.2209 H   0  0  0  0  0  0  0  0  0  0  0  0
   23.5321  -13.7847   14.4407 H   0  0  0  0  0  0  0  0  0  0  0  0
   24.2785  -10.6423   13.3640 H   0  0  0  0  0  0  0  0  0  0  0  0
   23.3338  -11.3971   14.6420 H   0  0  0  0  0  0  0  0  0  0  0  0
   25.5126   -9.3902   15.4183 H   0  0  0  0  0  0  0  0  0  0  0  0
   23.7373  -10.8823   16.9222 H   0  0  0  0  0  0  0  0  0  0  0  0
   24.1311   -9.4444   18.5361 H   0  0  0  0  0  0  0  0  0  0  0  0
   21.6150  -10.0370   15.9445 H   0  0  0  0  0  0  0  0  0  0  0  0
   22.2764   -9.2440   18.2957 H   0  0  0  0  0  0  0  0  0  0  0  0
   22.5897   -7.2580   15.8880 H   0  0  0  0  0  0  0  0  0  0  0  0
   17.8271   -6.3827   11.9292 H   0  0  0  0  0  0  0  0  0  0  0  0
   18.8756   -6.8746   10.5722 H   0  0  0  0  0  0  0  0  0  0  0  0
   19.4805   -4.4920   14.0197 H   0  0  0  0  0  0  0  0  0  0  0  0
   21.5123   -5.8983   14.8636 H   0  0  0  0  0  0  0  0  0  0  0  0
 19 18  1  0
 18 17  2  0
 18 20  1  0
 17 15  1  0
  1  2  2  0
 21 20  1  0
 20 22  2  0
 16 15  2  0
 15 14  1  0
  4  2  1  0
  2  5  1  0
  2  3  1  0
 22 14  1  0
 14 13  1  0
  6  5  1  0
  6  7  1  0
  8  7  1  0
  8 13  1  0
  7  9  1  0
 13 11  1  0
 11  9  1  0
 11 12  1  0
  9 10  1  0
  3 23  1  0
  4 24  1  0
  6 25  1  0
  6 26  1  0
  7 27  1  0
  9 28  1  0
 10 29  1  0
 11 30  1  0
 12 31  1  0
 13 32  1  0
 19 33  1  0
 19 34  1  0
 21 35  1  0
 22 36  1  0
A    1
OAF
A    2
PAV
A    3
OAG
A    4
OAH
A    5
O5'
A    6
C5'
A    7
C4'
A    8
O4'
A    9
C3'
A   10
O3'
A   11
C2'
A   12
O2'
A   13
C1'
A   14
NAU
A   15
CAP
A   16
OAB
A   17
NAK
A   18
CAN
A   19
NAA
A   20
CAO
A   21
OAC
A   22
CAI
M  END
