3BFF_FPM_C_1
     RDKit          3D

 34 36  0  0  0  0  0  0  0  0999 V2000
   27.3520   20.8570   19.6220 C   0  0  0  0  0  0  0  0  0  0  0  0
   28.1550   19.1770   22.7330 C   0  0  0  0  0  0  0  0  0  0  0  0
   27.3680   20.4840   22.2980 C   0  0  0  0  0  0  0  0  0  0  0  0
   27.2800   18.4650   21.8140 C   0  0  0  0  0  0  0  0  0  0  0  0
   26.5400   19.5830   21.4690 N   0  0  0  0  0  0  0  0  0  0  0  0
   26.5530   19.8450   20.0130 C   0  0  0  0  0  0  0  0  0  0  0  0
   28.1070   21.5790   21.0530 S   0  0  0  0  0  0  0  0  0  0  0  0
   25.6630   19.0060   19.0680 C   0  0  0  0  0  0  0  0  0  0  0  0
   27.2600   17.2660   21.5290 O   0  0  0  0  0  0  0  0  0  0  0  0
   27.9210   18.5200   24.1730 C   0  0  0  0  0  0  0  0  0  0  0  0
   28.5240   17.2200   24.4800 O   0  0  0  0  0  0  0  0  0  0  0  0
   26.4680   18.6140   24.5410 C   0  0  0  0  0  0  0  0  0  0  0  0
   27.7220   21.4750   18.2460 C   0  0  0  0  0  0  0  0  0  0  0  0
   27.0960   22.8340   18.0120 C   0  0  0  0  0  0  0  0  0  0  0  0
   28.0480   23.5280   17.0260 C   0  0  0  0  0  0  0  0  0  0  0  0
   29.4100   22.9070   17.3460 C   0  0  0  0  0  0  0  0  0  0  0  0
   29.1760   21.6740   18.0710 O   0  0  0  0  0  0  0  0  0  0  0  0
   24.9570   18.1440   19.5920 O   0  0  0  0  0  0  0  0  0  0  0  0
   25.5650   19.2870   17.8360 O   0  0  0  0  0  0  0  0  0  0  0  0
   29.2529   19.2442   22.7381 H   0  0  0  0  0  0  0  0  0  0  0  0
   27.0830   21.1738   23.1061 H   0  0  0  0  0  0  0  0  0  0  0  0
   28.5358   19.1408   24.8413 H   0  0  0  0  0  0  0  0  0  0  0  0
   28.5775   17.1047   25.4618 H   0  0  0  0  0  0  0  0  0  0  0  0
   26.3669   18.6205   25.6363 H   0  0  0  0  0  0  0  0  0  0  0  0
   26.0444   19.5414   24.1281 H   0  0  0  0  0  0  0  0  0  0  0  0
   25.9285   17.7489   24.1281 H   0  0  0  0  0  0  0  0  0  0  0  0
   27.3343   20.7349   17.5305 H   0  0  0  0  0  0  0  0  0  0  0  0
   27.0302   23.3996   18.9532 H   0  0  0  0  0  0  0  0  0  0  0  0
   26.0694   22.7617   17.6235 H   0  0  0  0  0  0  0  0  0  0  0  0
   28.0627   24.6152   17.1930 H   0  0  0  0  0  0  0  0  0  0  0  0
   27.7511   23.3909   15.9757 H   0  0  0  0  0  0  0  0  0  0  0  0
   29.9530   22.6952   16.4131 H   0  0  0  0  0  0  0  0  0  0  0  0
   30.0150   23.5989   17.9503 H   0  0  0  0  0  0  0  0  0  0  0  0
   24.9044   18.0797   20.5785 H   0  0  0  0  0  0  0  0  0  0  0  0
 15 16  1  0
 15 14  1  0
 16 17  1  0
 19  8  2  0
 14 13  1  0
 17 13  1  0
 13  1  1  0
  8 18  1  0
  8  6  1  0
  1  6  2  0
  1  7  1  0
  6  5  1  0
  7  3  1  0
  5  4  1  0
  5  3  1  0
  9  4  2  0
  4  2  1  0
  3  2  1  0
  2 10  1  0
 10 11  1  0
 10 12  1  0
  2 20  1  0
  3 21  1  0
 10 22  1  0
 11 23  1  0
 12 24  1  0
 12 25  1  0
 12 26  1  0
 13 27  1  0
 14 28  1  0
 14 29  1  0
 15 30  1  0
 15 31  1  0
 16 32  1  0
 16 33  1  0
 18 34  1  0
A    1
C2
A    2
C6
A    3
C5
A    4
C7
A    5
N4
A    6
C3
A    7
S1
A    8
C31
A    9
O7
A   10
C61
A   11
O62
A   12
C62
A   13
C14
A   14
C15
A   15
C16
A   16
C17
A   17
O18
A   18
O32
A   19
O31
M  END
