4HLC_T05_A_301
     RDKit          3D

 60 63  0  0  0  0  0  0  0  0999 V2000
    5.6760   -1.9040   50.4660 C   0  0  0  0  0  0  0  0  0  0  0  0
    3.9370    1.5660   55.0600 C   0  0  0  0  0  0  0  0  0  0  0  0
    6.6510   -1.7730   49.5040 C   0  0  0  0  0  0  0  0  0  0  0  0
    5.5880   -0.9510   51.4660 C   0  0  0  0  0  0  0  0  0  0  0  0
    2.9670    2.2780   54.4000 C   0  0  0  0  0  0  0  0  0  0  0  0
    7.4510    0.2420   50.5210 C   0  0  0  0  0  0  0  0  0  0  0  0
    4.2920    2.2130   52.3850 C   0  0  0  0  0  0  0  0  0  0  0  0
    5.0780    1.1530   54.4010 C   0  0  0  0  0  0  0  0  0  0  0  0
    7.5370   -0.7140   49.5280 C   0  0  0  0  0  0  0  0  0  0  0  0
    6.4660    0.1190   51.4780 C   0  0  0  0  0  0  0  0  0  0  0  0
    5.2520    1.4800   53.0600 C   0  0  0  0  0  0  0  0  0  0  0  0
    3.1350    2.5830   53.0620 C   0  0  0  0  0  0  0  0  0  0  0  0
    1.1120   -1.1820   49.0400 C   0  0  0  0  0  0  0  0  0  0  0  0
    1.5150   -1.9180   47.9900 C   0  0  0  0  0  0  0  0  0  0  0  0
    1.3540   -1.3300   46.6290 C   0  0  0  0  0  0  0  0  0  0  0  0
    0.4230    0.6940   47.6770 C   0  0  0  0  0  0  0  0  0  0  0  0
    6.0670    0.3970   55.1860 C   0  0  0  0  0  0  0  0  0  0  0  0
   -1.2790    0.8880   52.1760 C   0  0  0  0  0  0  0  0  0  0  0  0
   -0.8370    0.0290   50.9910 C   0  0  0  0  0  0  0  0  0  0  0  0
   -0.0560    1.5280   52.8110 C   0  0  0  0  0  0  0  0  0  0  0  0
    1.2740    1.3890   50.7630 C   0  0  0  0  0  0  0  0  0  0  0  0
    0.0800    0.8240   50.0540 C   0  0  0  0  0  0  0  0  0  0  0  0
    8.5850   -0.5690   48.4910 C   0  0  0  0  0  0  0  0  0  0  0  0
    2.1180   -3.2740   48.1080 C   0  0  0  0  0  0  0  0  0  0  0  0
    0.8110   -0.0550   46.5980 N   0  0  0  0  0  0  0  0  0  0  0  0
    0.5430    0.0730   48.9060 N   0  0  0  0  0  0  0  0  0  0  0  0
    0.7130    2.2900   51.7820 N   0  0  0  0  0  0  0  0  0  0  0  0
    1.6740   -1.9360   45.6100 O   0  0  0  0  0  0  0  0  0  0  0  0
    0.0040    1.8360   47.5450 O   0  0  0  0  0  0  0  0  0  0  0  0
    6.4870    0.9520   56.2350 O   0  0  0  0  0  0  0  0  0  0  0  0
    1.1320    4.3030   53.2540 O   0  0  0  0  0  0  0  0  0  0  0  0
    2.4440    4.0990   51.0830 O   0  0  0  0  0  0  0  0  0  0  0  0
    6.3900   -0.7530   54.7820 O   0  0  0  0  0  0  0  0  0  0  0  0
    6.4440    1.1180   52.4530 O   0  0  0  0  0  0  0  0  0  0  0  0
    1.8220    3.5040   52.2530 S   0  0  0  0  0  0  0  0  0  0  0  0
    4.9771   -2.7531   50.4408 H   0  0  0  0  0  0  0  0  0  0  0  0
    3.8042    1.3219   56.1243 H   0  0  0  0  0  0  0  0  0  0  0  0
    6.7259   -2.5235   48.7033 H   0  0  0  0  0  0  0  0  0  0  0  0
    4.8217   -1.0438   52.2497 H   0  0  0  0  0  0  0  0  0  0  0  0
    2.0613    2.6041   54.9323 H   0  0  0  0  0  0  0  0  0  0  0  0
    8.1556    1.0863   50.5479 H   0  0  0  0  0  0  0  0  0  0  0  0
    4.4411    2.4976   51.3330 H   0  0  0  0  0  0  0  0  0  0  0  0
    1.2400   -1.5954   50.0513 H   0  0  0  0  0  0  0  0  0  0  0  0
   -1.9654    1.6730   51.8259 H   0  0  0  0  0  0  0  0  0  0  0  0
   -1.7946    0.2594   52.9169 H   0  0  0  0  0  0  0  0  0  0  0  0
   -1.7258   -0.2996   50.4324 H   0  0  0  0  0  0  0  0  0  0  0  0
   -0.2820   -0.8403   51.3734 H   0  0  0  0  0  0  0  0  0  0  0  0
    0.5855    0.7433   53.2383 H   0  0  0  0  0  0  0  0  0  0  0  0
   -0.3798    2.2177   53.6044 H   0  0  0  0  0  0  0  0  0  0  0  0
    1.8600    0.5868   51.2352 H   0  0  0  0  0  0  0  0  0  0  0  0
    1.9564    1.9115   50.0765 H   0  0  0  0  0  0  0  0  0  0  0  0
   -0.5616    1.6416   49.6935 H   0  0  0  0  0  0  0  0  0  0  0  0
    9.5635   -0.4336   48.9750 H   0  0  0  0  0  0  0  0  0  0  0  0
    8.6079   -1.4725   47.8640 H   0  0  0  0  0  0  0  0  0  0  0  0
    8.3617    0.3068   47.8640 H   0  0  0  0  0  0  0  0  0  0  0  0
    2.2331   -3.5329   49.1709 H   0  0  0  0  0  0  0  0  0  0  0  0
    1.4626   -4.0105   47.6201 H   0  0  0  0  0  0  0  0  0  0  0  0
    3.1039   -3.2806   47.6201 H   0  0  0  0  0  0  0  0  0  0  0  0
    0.6867    0.3725   45.6692 H   0  0  0  0  0  0  0  0  0  0  0  0
    6.2210    0.6005   57.1215 H   0  0  0  0  0  0  0  0  0  0  0  0
 28 15  2  0
 25 15  1  0
 25 16  1  0
 15 14  1  0
 29 16  2  0
 16 26  1  0
 14 24  1  0
 14 13  2  0
 23  9  1  0
 26 13  1  0
 26 22  1  0
  3  9  1  0
  3  1  2  0
  9  6  2  0
 22 21  1  0
 22 19  1  0
  1  4  1  0
  6 10  1  0
 21 27  1  0
 19 18  1  0
 32 35  2  0
  4 10  2  0
 10 34  1  0
 27 35  1  0
 27 20  1  0
 18 20  1  0
 35 12  1  0
 35 31  2  0
  7 11  1  0
  7 12  2  0
 34 11  1  0
 11  8  2  0
 12  5  1  0
  5  2  2  0
  8  2  1  0
  8 17  1  0
 33 17  2  0
 17 30  1  0
  1 36  1  0
  2 37  1  0
  3 38  1  0
  4 39  1  0
  5 40  1  0
  6 41  1  0
  7 42  1  0
 13 43  1  0
 18 44  1  0
 18 45  1  0
 19 46  1  0
 19 47  1  0
 20 48  1  0
 20 49  1  0
 21 50  1  0
 21 51  1  0
 22 52  1  0
 23 53  1  0
 23 54  1  0
 23 55  1  0
 24 56  1  0
 24 57  1  0
 24 58  1  0
 25 59  1  0
 30 60  1  0
A    1
C4
A    2
C13
A    3
C3
A    4
C5
A    5
C12
A    6
C7
A    7
C10
A    8
C14
A    9
C2
A   10
C6
A   11
C9
A   12
C11
A   13
C28
A   14
C29
A   15
C30
A   16
C33
A   17
C15
A   18
C23
A   19
C24
A   20
C22
A   21
C26
A   22
C25
A   23
C1
A   24
C35
A   25
N32
A   26
N27
A   27
N21
A   28
O31
A   29
O34
A   30
O16
A   31
O19
A   32
O20
A   33
O17
A   34
O8
A   35
S18
M  END
