4HLG_20B_A_1203
     RDKit          3D

 28 30  0  0  0  0  0  0  0  0999 V2000
   -7.2850  -37.9970    9.6740 C   0  0  0  0  0  0  0  0  0  0  0  0
   -7.0470  -38.1460    8.2950 C   0  0  0  0  0  0  0  0  0  0  0  0
   -7.4830  -39.2500    7.6450 O   0  0  0  0  0  0  0  0  0  0  0  0
   -6.3830  -37.1540    7.5620 C   0  0  0  0  0  0  0  0  0  0  0  0
   -5.9360  -36.0310    8.2470 C   0  0  0  0  0  0  0  0  0  0  0  0
   -6.1520  -35.8820    9.6180 C   0  0  0  0  0  0  0  0  0  0  0  0
   -6.8340  -36.8520   10.3670 C   0  0  0  0  0  0  0  0  0  0  0  0
   -7.0000  -36.6590   11.7790 C   0  0  0  0  0  0  0  0  0  0  0  0
   -6.2170  -35.6660   12.2990 O   0  0  0  0  0  0  0  0  0  0  0  0
   -6.1240  -35.4160   13.6210 C   0  0  0  0  0  0  0  0  0  0  0  0
   -5.2380  -34.4300   14.0510 C   0  0  0  0  0  0  0  0  0  0  0  0
   -5.1070  -34.1880   15.4260 C   0  0  0  0  0  0  0  0  0  0  0  0
   -5.8720  -34.9580   16.3200 C   0  0  0  0  0  0  0  0  0  0  0  0
   -6.7580  -35.9420   15.8590 C   0  0  0  0  0  0  0  0  0  0  0  0
   -6.9060  -36.1600   14.5000 C   0  0  0  0  0  0  0  0  0  0  0  0
   -7.7760  -37.1540   14.0210 C   0  0  0  0  0  0  0  0  0  0  0  0
   -8.5470  -37.7450   14.7970 O   0  0  0  0  0  0  0  0  0  0  0  0
   -7.7830  -37.4230   12.6530 C   0  0  0  0  0  0  0  0  0  0  0  0
   -7.8292  -38.7823   10.2191 H   0  0  0  0  0  0  0  0  0  0  0  0
   -7.7937  -40.0368    8.1592 H   0  0  0  0  0  0  0  0  0  0  0  0
   -6.2208  -37.2607    6.4793 H   0  0  0  0  0  0  0  0  0  0  0  0
   -5.4006  -35.2427    7.6974 H   0  0  0  0  0  0  0  0  0  0  0  0
   -5.7775  -34.9801   10.1242 H   0  0  0  0  0  0  0  0  0  0  0  0
   -4.6507  -33.8507   13.3233 H   0  0  0  0  0  0  0  0  0  0  0  0
   -4.4207  -33.4126   15.7972 H   0  0  0  0  0  0  0  0  0  0  0  0
   -5.7734  -34.7850   17.4018 H   0  0  0  0  0  0  0  0  0  0  0  0
   -7.3360  -36.5413   16.5778 H   0  0  0  0  0  0  0  0  0  0  0  0
   -8.4064  -38.2390   12.2586 H   0  0  0  0  0  0  0  0  0  0  0  0
 13 14  2  0
 13 12  1  0
 14 15  1  0
 12 11  2  0
 17 16  2  0
 15 16  1  0
 15 10  2  0
 11 10  1  0
 16 18  1  0
 10  9  1  0
 18  8  2  0
  9  8  1  0
  8  7  1  0
  7  1  2  0
  7  6  1  0
  1  2  1  0
  6  5  2  0
  2  3  1  0
  2  4  2  0
  5  4  1  0
  1 19  1  0
  3 20  1  0
  4 21  1  0
  5 22  1  0
  6 23  1  0
 11 24  1  0
 12 25  1  0
 13 26  1  0
 14 27  1  0
 18 28  1  0
A    1
CAM
A    2
CAL
A    3
OAR
A    4
CAP
A    5
CAO
A    6
CAN
A    7
CAK
A    8
CAI
A    9
OAJ
A   10
CAF
A   11
CAA
A   12
CAB
A   13
CAC
A   14
CAD
A   15
CAE
A   16
CAG
A   17
OAQ
A   18
CAH
M  END
