4HLM_16S_A_1204
     RDKit          3D

 29 31  0  0  0  0  0  0  0  0999 V2000
   -7.3660   37.8310   -9.6990 C   0  0  0  0  0  0  0  0  0  0  0  0
   -7.1950   37.9870   -8.3110 C   0  0  0  0  0  0  0  0  0  0  0  0
   -7.6480   39.0670   -7.6210 O   0  0  0  0  0  0  0  0  0  0  0  0
   -6.5440   37.0140   -7.5500 C   0  0  0  0  0  0  0  0  0  0  0  0
   -6.4320   37.2290   -6.2110 O   0  0  0  0  0  0  0  0  0  0  0  0
   -6.0450   35.8760   -8.1610 C   0  0  0  0  0  0  0  0  0  0  0  0
   -6.2040   35.7200   -9.5410 C   0  0  0  0  0  0  0  0  0  0  0  0
   -6.8690   36.6720  -10.3360 C   0  0  0  0  0  0  0  0  0  0  0  0
   -6.9700   36.4390  -11.7320 C   0  0  0  0  0  0  0  0  0  0  0  0
   -6.2050   35.4000  -12.1940 O   0  0  0  0  0  0  0  0  0  0  0  0
   -6.1170   35.1230  -13.5390 C   0  0  0  0  0  0  0  0  0  0  0  0
   -5.2520   34.1240  -13.9610 C   0  0  0  0  0  0  0  0  0  0  0  0
   -5.1370   33.8620  -15.3260 C   0  0  0  0  0  0  0  0  0  0  0  0
   -5.8740   34.6120  -16.2500 C   0  0  0  0  0  0  0  0  0  0  0  0
   -6.7560   35.6150  -15.8080 C   0  0  0  0  0  0  0  0  0  0  0  0
   -6.8850   35.8560  -14.4420 C   0  0  0  0  0  0  0  0  0  0  0  0
   -7.7400   36.8600  -13.9810 C   0  0  0  0  0  0  0  0  0  0  0  0
   -8.4960   37.4310  -14.7600 O   0  0  0  0  0  0  0  0  0  0  0  0
   -7.7730   37.1640  -12.6190 C   0  0  0  0  0  0  0  0  0  0  0  0
   -7.8830   38.6060  -10.2839 H   0  0  0  0  0  0  0  0  0  0  0  0
   -7.6446   39.0590   -6.6310 H   0  0  0  0  0  0  0  0  0  0  0  0
   -6.7810   36.5590   -5.5712 H   0  0  0  0  0  0  0  0  0  0  0  0
   -5.5305   35.1052   -7.5685 H   0  0  0  0  0  0  0  0  0  0  0  0
   -5.7943   34.8202  -10.0232 H   0  0  0  0  0  0  0  0  0  0  0  0
   -4.6658   33.5474  -13.2303 H   0  0  0  0  0  0  0  0  0  0  0  0
   -4.4658   33.0644  -15.6772 H   0  0  0  0  0  0  0  0  0  0  0  0
   -5.7630   34.4162  -17.3267 H   0  0  0  0  0  0  0  0  0  0  0  0
   -7.3376   36.2028  -16.5334 H   0  0  0  0  0  0  0  0  0  0  0  0
   -8.4253   37.9674  -12.2460 H   0  0  0  0  0  0  0  0  0  0  0  0
  5  4  1  0
  4  6  2  0
  4  2  1  0
  3  2  1  0
  6  7  1  0
  2  1  2  0
  7  8  2  0
  1  8  1  0
  8  9  1  0
  9 10  1  0
  9 19  2  0
 10 11  1  0
 19 17  1  0
 11 12  2  0
 11 16  1  0
 12 13  1  0
 17 16  1  0
 17 18  2  0
 16 15  2  0
 13 14  2  0
 15 14  1  0
  1 20  1  0
  3 21  1  0
  5 22  1  0
  6 23  1  0
  7 24  1  0
 12 25  1  0
 13 26  1  0
 14 27  1  0
 15 28  1  0
 19 29  1  0
A    1
CAM
A    2
CAL
A    3
OAR
A    4
CAP
A    5
OAS
A    6
CAO
A    7
CAN
A    8
CAK
A    9
CAJ
A   10
OAG
A   11
CAF
A   12
CAA
A   13
CAB
A   14
CAC
A   15
CAD
A   16
CAE
A   17
CAH
A   18
OAQ
A   19
CAI
M  END
