4HM4_16N_A_1006
     RDKit          3D

 19 20  0  0  0  0  0  0  0  0999 V2000
   14.0890   51.0580   78.9090 C   0  0  0  0  0  0  0  0  0  0  0  0
   14.6190   49.8140   79.0320 C   0  0  0  0  0  0  0  0  0  0  0  0
   13.7430   51.7240   80.0550 C   0  0  0  0  0  0  0  0  0  0  0  0
   13.1450   53.0840   80.0610 C   0  0  0  0  0  0  0  0  0  0  0  0
   13.2060   53.4350   81.5380 C   0  0  0  0  0  0  0  0  0  0  0  0
   13.3700   52.1710   82.3590 C   0  0  0  0  0  0  0  0  0  0  0  0
   13.8470   51.2050   81.2920 C   0  0  0  0  0  0  0  0  0  0  0  0
   14.3660   49.9540   81.4430 C   0  0  0  0  0  0  0  0  0  0  0  0
   14.7670   49.2810   80.3000 C   0  0  0  0  0  0  0  0  0  0  0  0
   13.9421   51.5167   77.9201 H   0  0  0  0  0  0  0  0  0  0  0  0
   14.9240   49.2425   78.1429 H   0  0  0  0  0  0  0  0  0  0  0  0
   13.7376   53.7862   79.4563 H   0  0  0  0  0  0  0  0  0  0  0  0
   12.1340   53.1314   79.6301 H   0  0  0  0  0  0  0  0  0  0  0  0
   14.0613   54.1023   81.7199 H   0  0  0  0  0  0  0  0  0  0  0  0
   12.2736   53.9401   81.8305 H   0  0  0  0  0  0  0  0  0  0  0  0
   12.4161   51.8480   82.8014 H   0  0  0  0  0  0  0  0  0  0  0  0
   14.0458   52.2702   83.2212 H   0  0  0  0  0  0  0  0  0  0  0  0
   14.4632   49.4944   82.4377 H   0  0  0  0  0  0  0  0  0  0  0  0
   15.2206   48.2844   80.4050 H   0  0  0  0  0  0  0  0  0  0  0  0
  1  2  2  0
  1  3  1  0
  2  9  1  0
  3  4  1  0
  3  7  2  0
  4  5  1  0
  9  8  2  0
  7  8  1  0
  7  6  1  0
  5  6  1  0
  1 10  1  0
  2 11  1  0
  4 12  1  0
  4 13  1  0
  5 14  1  0
  5 15  1  0
  6 16  1  0
  6 17  1  0
  8 18  1  0
  9 19  1  0
A    1
C1
A    2
C2
A    3
C6
A    4
C7
A    5
C8
A    6
C9
A    7
C5
A    8
C4
A    9
C3
M  END
