4HMH_F94_A_1204
     RDKit          3D

 29 31  0  0  0  0  0  0  0  0999 V2000
    1.4690  -11.1140   -9.4960 C   0  0  0  0  0  0  0  0  0  0  0  0
    1.4570  -10.9010   -8.0950 C   0  0  0  0  0  0  0  0  0  0  0  0
    0.3700  -10.3460   -7.4910 O   0  0  0  0  0  0  0  0  0  0  0  0
    2.5530  -11.2260   -7.3060 C   0  0  0  0  0  0  0  0  0  0  0  0
    3.6620  -11.7690   -7.9260 C   0  0  0  0  0  0  0  0  0  0  0  0
    3.6920  -11.9820   -9.3070 C   0  0  0  0  0  0  0  0  0  0  0  0
    2.5950  -11.6580  -10.1080 C   0  0  0  0  0  0  0  0  0  0  0  0
    2.6810  -11.8700  -11.4910 C   0  0  0  0  0  0  0  0  0  0  0  0
    3.9380  -12.0840  -11.9380 O   0  0  0  0  0  0  0  0  0  0  0  0
    4.2240  -12.2130  -13.2450 C   0  0  0  0  0  0  0  0  0  0  0  0
    5.5650  -12.3090  -13.6290 C   0  0  0  0  0  0  0  0  0  0  0  0
    5.8820  -12.4190  -14.9760 C   0  0  0  0  0  0  0  0  0  0  0  0
    7.1800  -12.4750  -15.3690 O   0  0  0  0  0  0  0  0  0  0  0  0
    4.8470  -12.4320  -15.9150 C   0  0  0  0  0  0  0  0  0  0  0  0
    3.5200  -12.3520  -15.5080 C   0  0  0  0  0  0  0  0  0  0  0  0
    3.1860  -12.2620  -14.1560 C   0  0  0  0  0  0  0  0  0  0  0  0
    1.8580  -12.1610  -13.7290 C   0  0  0  0  0  0  0  0  0  0  0  0
    0.8940  -12.2240  -14.5080 O   0  0  0  0  0  0  0  0  0  0  0  0
    1.6200  -11.9370  -12.3830 C   0  0  0  0  0  0  0  0  0  0  0  0
    0.5885  -10.8495  -10.1000 H   0  0  0  0  0  0  0  0  0  0  0  0
    0.3136  -10.3172   -6.5030 H   0  0  0  0  0  0  0  0  0  0  0  0
    2.5385  -11.0560   -6.2193 H   0  0  0  0  0  0  0  0  0  0  0  0
    4.5394  -12.0392   -7.3202 H   0  0  0  0  0  0  0  0  0  0  0  0
    4.5930  -12.4112   -9.7697 H   0  0  0  0  0  0  0  0  0  0  0  0
    6.3616  -12.2975  -12.8706 H   0  0  0  0  0  0  0  0  0  0  0  0
    7.9014  -12.5061  -14.6917 H   0  0  0  0  0  0  0  0  0  0  0  0
    5.0846  -12.5062  -16.9865 H   0  0  0  0  0  0  0  0  0  0  0  0
    2.7207  -12.3598  -16.2637 H   0  0  0  0  0  0  0  0  0  0  0  0
    0.5889  -11.8121  -12.0207 H   0  0  0  0  0  0  0  0  0  0  0  0
 14 15  2  0
 14 12  1  0
 15 16  1  0
 13 12  1  0
 12 11  2  0
 18 17  2  0
 16 17  1  0
 16 10  2  0
 17 19  1  0
 11 10  1  0
 10  9  1  0
 19  8  2  0
  9  8  1  0
  8  7  1  0
  7  1  2  0
  7  6  1  0
  1  2  1  0
  6  5  2  0
  2  3  1  0
  2  4  2  0
  5  4  1  0
  1 20  1  0
  3 21  1  0
  4 22  1  0
  5 23  1  0
  6 24  1  0
 11 25  1  0
 13 26  1  0
 14 27  1  0
 15 28  1  0
 19 29  1  0
A    1
CAK
A    2
CAL
A    3
OAS
A    4
CAM
A    5
CAI
A    6
CAJ
A    7
CAH
A    8
CAF
A    9
OAA
A   10
CAB
A   11
CAN
A   12
CAO
A   13
OAR
A   14
CAP
A   15
CAQ
A   16
CAC
A   17
CAD
A   18
OAG
A   19
CAE
M  END
