1LNZ_G4P_B_600
     RDKit          3D

 53 55  0  0  0  0  0  0  0  0999 V2000
    9.0600   68.3090   71.6630 P   0  0  0  0  0  0  0  0  0  0  0  0
    8.2310   69.2370   72.4480 O   0  0  0  0  0  0  0  0  0  0  0  0
    8.9490   68.2660   70.1900 O   0  0  0  0  0  0  0  0  0  0  0  0
   10.5820   68.4800   71.7400 O   0  0  0  0  0  0  0  0  0  0  0  0
    8.5180   66.7750   72.0670 O   0  0  0  0  0  0  0  0  0  0  0  0
    8.4070   66.2840   73.5900 P   0  0  0  0  0  0  0  0  0  0  0  0
    9.3380   65.1500   73.4180 O   0  0  0  0  0  0  0  0  0  0  0  0
    8.7070   67.2550   74.6780 O   0  0  0  0  0  0  0  0  0  0  0  0
    6.9580   65.6500   73.5730 O   0  0  0  0  0  0  0  0  0  0  0  0
    5.7280   66.3090   73.7230 C   0  0  0  0  0  0  0  0  0  0  0  0
    4.7620   65.4190   74.5490 C   0  0  0  0  0  0  0  0  0  0  0  0
    4.1190   64.3280   73.8140 O   0  0  0  0  0  0  0  0  0  0  0  0
    5.3790   64.6160   75.7940 C   0  0  0  0  0  0  0  0  0  0  0  0
    4.6260   65.0170   76.9650 O   0  0  0  0  0  0  0  0  0  0  0  0
    5.1830   63.1040   75.5250 C   0  0  0  0  0  0  0  0  0  0  0  0
    4.5840   62.4370   76.6530 O   0  0  0  0  0  0  0  0  0  0  0  0
    4.2870   63.0430   74.3510 C   0  0  0  0  0  0  0  0  0  0  0  0
    4.7830   62.1140   73.2680 N   0  0  0  0  0  0  0  0  0  0  0  0
    5.9200   62.0600   72.4960 C   0  0  0  0  0  0  0  0  0  0  0  0
    5.9420   61.0570   71.6610 N   0  0  0  0  0  0  0  0  0  0  0  0
    4.7650   60.3950   71.8580 C   0  0  0  0  0  0  0  0  0  0  0  0
    4.1880   59.2100   71.2640 C   0  0  0  0  0  0  0  0  0  0  0  0
    4.6570   58.5090   70.3960 O   0  0  0  0  0  0  0  0  0  0  0  0
    2.9070   58.8540   71.7690 N   0  0  0  0  0  0  0  0  0  0  0  0
    2.2330   59.5500   72.7670 C   0  0  0  0  0  0  0  0  0  0  0  0
    1.0560   59.0750   73.1340 N   0  0  0  0  0  0  0  0  0  0  0  0
    2.7690   60.6890   73.3680 N   0  0  0  0  0  0  0  0  0  0  0  0
    4.0070   61.0250   72.8510 C   0  0  0  0  0  0  0  0  0  0  0  0
    4.3800   65.0850   78.3090 P   0  0  0  0  0  0  0  0  0  0  0  0
    4.5910   63.8550   79.1370 O   0  0  0  0  0  0  0  0  0  0  0  0
    3.0450   65.7400   78.3400 O   0  0  0  0  0  0  0  0  0  0  0  0
    5.7740   65.9170   78.7440 O   0  0  0  0  0  0  0  0  0  0  0  0
    5.7920   67.6310   78.9850 P   0  0  0  0  0  0  0  0  0  0  0  0
    5.0950   68.2260   77.8160 O   0  0  0  0  0  0  0  0  0  0  0  0
    7.2760   67.8840   79.1070 O   0  0  0  0  0  0  0  0  0  0  0  0
    5.3690   68.1260   80.4170 O   0  0  0  0  0  0  0  0  0  0  0  0
    8.0567   67.9203   69.9363 H   0  0  0  0  0  0  0  0  0  0  0  0
   10.8629   68.5116   72.6888 H   0  0  0  0  0  0  0  0  0  0  0  0
    8.5721   66.8185   75.5563 H   0  0  0  0  0  0  0  0  0  0  0  0
    5.8849   67.2637   74.2463 H   0  0  0  0  0  0  0  0  0  0  0  0
    5.2919   66.5017   72.7317 H   0  0  0  0  0  0  0  0  0  0  0  0
    4.0807   66.2250   74.8592 H   0  0  0  0  0  0  0  0  0  0  0  0
    6.4493   64.8231   75.9407 H   0  0  0  0  0  0  0  0  0  0  0  0
    6.1436   62.5971   75.3508 H   0  0  0  0  0  0  0  0  0  0  0  0
    4.9350   62.8279   77.4921 H   0  0  0  0  0  0  0  0  0  0  0  0
    3.3285   62.6403   74.7104 H   0  0  0  0  0  0  0  0  0  0  0  0
    6.7354   62.7941   72.5750 H   0  0  0  0  0  0  0  0  0  0  0  0
    2.4470   58.0241   71.3683 H   0  0  0  0  0  0  0  0  0  0  0  0
    0.8270   58.9826   74.1340 H   0  0  0  0  0  0  0  0  0  0  0  0
    0.3674   58.7971   72.4201 H   0  0  0  0  0  0  0  0  0  0  0  0
    2.7663   65.8768   79.2801 H   0  0  0  0  0  0  0  0  0  0  0  0
    7.5259   67.9266   80.0640 H   0  0  0  0  0  0  0  0  0  0  0  0
    5.8323   67.5839   81.1037 H   0  0  0  0  0  0  0  0  0  0  0  0
  1  2  2  0
  1  3  1  0
  1  4  1  0
  1  5  1  0
  5  6  1  0
  6  7  2  0
  6  8  1  0
  6  9  1  0
  9 10  1  0
 10 11  1  0
 11 12  1  0
 11 13  1  0
 12 17  1  0
 13 14  1  0
 13 15  1  0
 14 29  1  0
 15 16  1  0
 15 17  1  0
 17 18  1  0
 18 19  1  0
 18 28  1  0
 19 20  2  0
 20 21  1  0
 21 22  1  0
 21 28  2  0
 22 23  2  0
 22 24  1  0
 24 25  1  0
 25 26  1  0
 25 27  2  0
 27 28  1  0
 29 30  2  0
 29 31  1  0
 29 32  1  0
 32 33  1  0
 33 34  2  0
 33 35  1  0
 33 36  1  0
  3 37  1  0
  4 38  1  0
  8 39  1  0
 10 40  1  0
 10 41  1  0
 11 42  1  0
 13 43  1  0
 15 44  1  0
 16 45  1  0
 17 46  1  0
 19 47  1  0
 24 48  1  0
 26 49  1  0
 26 50  1  0
 31 51  1  0
 35 52  1  0
 36 53  1  0
A    1
PB
A    2
O1B
A    3
O2B
A    4
O3B
A    5
O3A
A    6
PA
A    7
O1A
A    8
O2A
A    9
O5'
A   10
C5'
A   11
C4'
A   12
O4'
A   13
C3'
A   14
O3'
A   15
C2'
A   16
O2'
A   17
C1'
A   18
N9
A   19
C8
A   20
N7
A   21
C5
A   22
C6
A   23
O6
A   24
N1
A   25
C2
A   26
N2
A   27
N3
A   28
C4
A   29
PC
A   30
O1C
A   31
O2C
A   32
O3C
A   33
PD
A   34
O1D
A   35
O2D
A   36
O3D
M  END
