4HOG_18H_A_302
     RDKit          3D

 49 51  0  0  0  0  0  0  0  0999 V2000
    8.7360  -14.5580    5.9260 C   0  0  0  0  0  0  0  0  0  0  0  0
    9.1690  -15.1780    4.7320 C   0  0  0  0  0  0  0  0  0  0  0  0
   10.2720  -15.9370    4.7580 N   0  0  0  0  0  0  0  0  0  0  0  0
   10.7410  -16.5520    3.6540 C   0  0  0  0  0  0  0  0  0  0  0  0
   11.8640  -17.2750    3.7130 N   0  0  0  0  0  0  0  0  0  0  0  0
   10.1060  -16.4250    2.4910 N   0  0  0  0  0  0  0  0  0  0  0  0
    8.9880  -15.6900    2.3830 C   0  0  0  0  0  0  0  0  0  0  0  0
    8.3460  -15.5700    1.2220 N   0  0  0  0  0  0  0  0  0  0  0  0
    8.4760  -15.0310    3.5220 C   0  0  0  0  0  0  0  0  0  0  0  0
    7.3110  -14.2330    3.5290 C   0  0  0  0  0  0  0  0  0  0  0  0
    6.3660  -13.5650    3.5590 C   0  0  0  0  0  0  0  0  0  0  0  0
    5.1520  -12.7320    3.6150 C   0  0  0  0  0  0  0  0  0  0  0  0
    4.8440  -12.2050    2.2220 C   0  0  0  0  0  0  0  0  0  0  0  0
    5.2980  -11.6920    4.5700 C   0  0  0  0  0  0  0  0  0  0  0  0
    4.4690  -11.6120    5.7000 C   0  0  0  0  0  0  0  0  0  0  0  0
    4.6130  -10.5700    6.6290 C   0  0  0  0  0  0  0  0  0  0  0  0
    3.5210  -12.5830    5.8460 O   0  0  0  0  0  0  0  0  0  0  0  0
    2.4580  -12.2330    6.7560 C   0  0  0  0  0  0  0  0  0  0  0  0
    6.2680  -10.6970    4.4110 C   0  0  0  0  0  0  0  0  0  0  0  0
    6.4160   -9.6650    5.3280 C   0  0  0  0  0  0  0  0  0  0  0  0
    5.5820   -9.5860    6.4480 C   0  0  0  0  0  0  0  0  0  0  0  0
    5.7570   -8.5700    7.4040 C   0  0  0  0  0  0  0  0  0  0  0  0
    6.5700   -7.4570    7.1460 C   0  0  0  0  0  0  0  0  0  0  0  0
    6.7680   -6.4780    8.1340 C   0  0  0  0  0  0  0  0  0  0  0  0
    6.1630   -6.6120    9.3920 C   0  0  0  0  0  0  0  0  0  0  0  0
    5.3700   -7.7240    9.6730 C   0  0  0  0  0  0  0  0  0  0  0  0
    5.1770   -8.6990    8.6830 C   0  0  0  0  0  0  0  0  0  0  0  0
    9.1253  -15.1155    6.7907 H   0  0  0  0  0  0  0  0  0  0  0  0
    9.1092  -13.5237    5.9583 H   0  0  0  0  0  0  0  0  0  0  0  0
    7.6365  -14.5523    5.9583 H   0  0  0  0  0  0  0  0  0  0  0  0
   12.2635  -17.5322    4.6269 H   0  0  0  0  0  0  0  0  0  0  0  0
   12.3297  -17.5748    2.8446 H   0  0  0  0  0  0  0  0  0  0  0  0
    7.3336  -15.3808    1.2105 H   0  0  0  0  0  0  0  0  0  0  0  0
    8.8620  -15.6664    0.3358 H   0  0  0  0  0  0  0  0  0  0  0  0
    4.2967  -13.3388    3.9470 H   0  0  0  0  0  0  0  0  0  0  0  0
    4.2904  -11.2578    2.3024 H   0  0  0  0  0  0  0  0  0  0  0  0
    5.7848  -12.0348    1.6780 H   0  0  0  0  0  0  0  0  0  0  0  0
    4.2340  -12.9412    1.6780 H   0  0  0  0  0  0  0  0  0  0  0  0
    3.9540  -10.5300    7.5089 H   0  0  0  0  0  0  0  0  0  0  0  0
    2.8093  -12.3487    7.7920 H   0  0  0  0  0  0  0  0  0  0  0  0
    2.1579  -11.1886    6.5850 H   0  0  0  0  0  0  0  0  0  0  0  0
    1.5962  -12.8948    6.5850 H   0  0  0  0  0  0  0  0  0  0  0  0
    6.9322  -10.7331    3.5349 H   0  0  0  0  0  0  0  0  0  0  0  0
    7.1949   -8.9040    5.1725 H   0  0  0  0  0  0  0  0  0  0  0  0
    7.0554   -7.3498    6.1647 H   0  0  0  0  0  0  0  0  0  0  0  0
    7.3998   -5.6033    7.9200 H   0  0  0  0  0  0  0  0  0  0  0  0
    6.3144   -5.8381   10.1589 H   0  0  0  0  0  0  0  0  0  0  0  0
    4.9003   -7.8356   10.6614 H   0  0  0  0  0  0  0  0  0  0  0  0
    4.5609   -9.5818    8.9089 H   0  0  0  0  0  0  0  0  0  0  0  0
  5  4  1  0
  4  3  1  0
  4  6  2  0
  3  2  2  0
  6  7  1  0
  2  1  1  0
  2  9  1  0
  7  9  2  0
  7  8  1  0
  9 10  1  0
 10 11  3  0
 11 12  1  0
 17 18  1  0
 17 15  1  0
 12 14  1  0
 12 13  1  0
 15 14  2  0
 15 16  1  0
 14 19  1  0
 16 21  2  0
 19 20  2  0
 21 20  1  0
 21 22  1  0
 27 22  1  0
 27 26  2  0
 22 23  2  0
 26 25  1  0
 23 24  1  0
 25 24  2  0
  1 28  1  0
  1 29  1  0
  1 30  1  0
  5 31  1  0
  5 32  1  0
  8 33  1  0
  8 34  1  0
 12 35  1  0
 13 36  1  0
 13 37  1  0
 13 38  1  0
 16 39  1  0
 18 40  1  0
 18 41  1  0
 18 42  1  0
 19 43  1  0
 20 44  1  0
 23 45  1  0
 24 46  1  0
 25 47  1  0
 26 48  1  0
 27 49  1  0
A    1
CAB
A    2
C6
A    3
N1
A    4
C2
A    5
NAD
A    6
N3
A    7
C4
A    8
NAE
A    9
C5
A   10
CAF
A   11
CAG
A   12
CBA
A   13
CAC
A   14
CAZ
A   15
CAY
A   16
CAO
A   17
OAR
A   18
CAA
A   19
CAN
A   20
CAM
A   21
CAW
A   22
CAV
A   23
CAK
A   24
CAI
A   25
CAH
A   26
CAJ
A   27
CAL
M  END
