4HPW_3YM_A_401
     RDKit          3D

 28 28  0  0  0  0  0  0  0  0999 V2000
   18.0100   -2.3240   32.2650 C   0  0  0  0  0  0  0  0  0  0  0  0
   17.3570   -3.3050   31.5310 O   0  0  0  0  0  0  0  0  0  0  0  0
   16.6480   -2.9600   30.3830 C   0  0  0  0  0  0  0  0  0  0  0  0
   15.6330   -2.0100   30.4330 C   0  0  0  0  0  0  0  0  0  0  0  0
   16.9470   -3.5770   29.1730 C   0  0  0  0  0  0  0  0  0  0  0  0
   17.9440   -4.5270   29.1170 O   0  0  0  0  0  0  0  0  0  0  0  0
   16.2490   -3.2380   28.0230 C   0  0  0  0  0  0  0  0  0  0  0  0
   15.2400   -2.2900   28.0730 C   0  0  0  0  0  0  0  0  0  0  0  0
   14.9280   -1.6700   29.2810 C   0  0  0  0  0  0  0  0  0  0  0  0
   13.8610   -0.6680   29.3420 C   0  0  0  0  0  0  0  0  0  0  0  0
   14.0930    0.7200   28.7490 C   0  0  0  0  0  0  0  0  0  0  0  0
   12.9380    1.6600   28.9420 C   0  0  0  0  0  0  0  0  0  0  0  0
   12.7220    2.1950   30.0850 O   0  0  0  0  0  0  0  0  0  0  0  0
   15.2520    1.3790   29.3190 N   0  0  0  0  0  0  0  0  0  0  0  0
   12.1750    1.9340   27.9690 O   0  0  0  0  0  0  0  0  0  0  0  0
   17.8786   -2.5213   33.3392 H   0  0  0  0  0  0  0  0  0  0  0  0
   19.0820   -2.3344   32.0187 H   0  0  0  0  0  0  0  0  0  0  0  0
   17.5867   -1.3390   32.0187 H   0  0  0  0  0  0  0  0  0  0  0  0
   15.3857   -1.5243   31.3885 H   0  0  0  0  0  0  0  0  0  0  0  0
   18.3273   -4.8922   29.9535 H   0  0  0  0  0  0  0  0  0  0  0  0
   16.4976   -3.7237   27.0679 H   0  0  0  0  0  0  0  0  0  0  0  0
   14.6858   -2.0271   27.1599 H   0  0  0  0  0  0  0  0  0  0  0  0
   13.6184   -0.5244   30.4053 H   0  0  0  0  0  0  0  0  0  0  0  0
   13.0737   -1.0923   28.7016 H   0  0  0  0  0  0  0  0  0  0  0  0
   14.2364    0.5179   27.6773 H   0  0  0  0  0  0  0  0  0  0  0  0
   15.1946    1.3464   30.3469 H   0  0  0  0  0  0  0  0  0  0  0  0
   16.1080    0.8983   29.0075 H   0  0  0  0  0  0  0  0  0  0  0  0
   11.2569    2.2637   28.1375 H   0  0  0  0  0  0  0  0  0  0  0  0
  7  8  2  0
  7  5  1  0
  8  9  1  0
 13 12  2  0
 11 12  1  0
 11 14  1  0
 11 10  1  0
  6  5  1  0
  5  3  2  0
  9 10  1  0
  9  4  2  0
  3  4  1  0
  3  2  1  0
  2  1  1  0
 12 15  1  0
  1 16  1  0
  1 17  1  0
  1 18  1  0
  4 19  1  0
  6 20  1  0
  7 21  1  0
  8 22  1  0
 10 23  1  0
 10 24  1  0
 11 25  1  0
 14 26  1  0
 14 27  1  0
 15 28  1  0
A    1
CAN
A    2
OAM
A    3
CAJ
A    4
CD2
A    5
CAK
A    6
OAL
A    7
CAI
A    8
CD1
A    9
CG
A   10
CB
A   11
CA
A   12
C
A   13
O
A   14
N
A   15
OXT
M  END
