1KXM_BZI_A_2
     RDKit          3D

 15 16  0  0  0  0  0  0  0  0999 V2000
   33.2960   89.3420   47.4050 N   0  0  0  0  0  0  0  0  0  0  0  0
   33.5460   88.7640   46.1870 C   0  0  0  0  0  0  0  0  0  0  0  0
   32.5340   89.1120   45.3220 N   0  0  0  0  0  0  0  0  0  0  0  0
   31.6390   89.9150   45.9800 C   0  0  0  0  0  0  0  0  0  0  0  0
   30.4600   90.5000   45.5270 C   0  0  0  0  0  0  0  0  0  0  0  0
   29.7580   91.2690   46.4170 C   0  0  0  0  0  0  0  0  0  0  0  0
   30.2070   91.4590   47.7310 C   0  0  0  0  0  0  0  0  0  0  0  0
   31.3730   90.8740   48.1780 C   0  0  0  0  0  0  0  0  0  0  0  0
   32.1250   90.0780   47.3000 C   0  0  0  0  0  0  0  0  0  0  0  0
   33.8765   89.2463   48.2504 H   0  0  0  0  0  0  0  0  0  0  0  0
   34.4102   88.1289   45.9425 H   0  0  0  0  0  0  0  0  0  0  0  0
   30.1064   90.3508   44.4961 H   0  0  0  0  0  0  0  0  0  0  0  0
   28.8219   91.7476   46.0935 H   0  0  0  0  0  0  0  0  0  0  0  0
   29.6190   92.0857   48.4177 H   0  0  0  0  0  0  0  0  0  0  0  0
   31.7107   91.0298   49.2132 H   0  0  0  0  0  0  0  0  0  0  0  0
  1  2  1  0
  1  9  1  0
  2  3  2  0
  3  4  1  0
  4  5  1  0
  4  9  2  0
  5  6  2  0
  6  7  1  0
  7  8  2  0
  8  9  1  0
  1 10  1  0
  2 11  1  0
  5 12  1  0
  6 13  1  0
  7 14  1  0
  8 15  1  0
A    1
N1
A    2
C2
A    3
N3
A    4
C3A
A    5
C4
A    6
C5
A    7
C6
A    8
C7
A    9
C7A
M  END
