4HUP_19M_X_301
     RDKit          3D

 67 70  0  0  0  0  0  0  0  0999 V2000
  -23.7290    8.6940   -6.1490 C   0  0  0  0  0  0  0  0  0  0  0  0
  -24.0720    8.0420   -5.0030 N   0  0  0  0  0  0  0  0  0  0  0  0
  -21.8960    8.1280   -9.1170 O   0  0  0  0  0  0  0  0  0  0  0  0
  -22.6010    8.6830   -8.2430 C   0  0  0  0  0  0  0  0  0  0  0  0
  -22.9600    8.0680   -7.0950 N   0  0  0  0  0  0  0  0  0  0  0  0
  -23.0660   10.0690   -8.4410 C   0  0  0  0  0  0  0  0  0  0  0  0
  -24.1700    9.9520   -6.2910 N   0  0  0  0  0  0  0  0  0  0  0  0
  -25.2570   14.4580   -8.0050 O   0  0  0  0  0  0  0  0  0  0  0  0
  -23.8910   10.6680   -7.3770 C   0  0  0  0  0  0  0  0  0  0  0  0
  -24.3280   11.9260   -7.5320 N   0  0  0  0  0  0  0  0  0  0  0  0
  -24.0050   12.5970   -8.6550 C   0  0  0  0  0  0  0  0  0  0  0  0
  -22.7640   10.7720   -9.5430 N   0  0  0  0  0  0  0  0  0  0  0  0
  -23.2230   12.0170   -9.6540 C   0  0  0  0  0  0  0  0  0  0  0  0
  -24.5230   13.9830   -8.8520 C   0  0  0  0  0  0  0  0  0  0  0  0
  -24.2460   14.6340   -9.9780 N   0  0  0  0  0  0  0  0  0  0  0  0
  -24.6640   16.0160  -10.1030 C   0  0  0  0  0  0  0  0  0  0  0  0
  -25.3350   16.2820  -11.4230 C   0  0  0  0  0  0  0  0  0  0  0  0
  -25.6160   17.4230  -11.7340 O   0  0  0  0  0  0  0  0  0  0  0  0
  -25.5850   15.2290  -12.1980 N   0  0  0  0  0  0  0  0  0  0  0  0
  -26.0930   15.3790  -13.5530 C   0  0  0  0  0  0  0  0  0  0  0  0
  -27.5760   15.1340  -13.6010 C   0  0  0  0  0  0  0  0  0  0  0  0
  -28.1820   15.1680  -14.6600 O   0  0  0  0  0  0  0  0  0  0  0  0
  -25.3560   14.4420  -14.5140 C   0  0  0  0  0  0  0  0  0  0  0  0
  -25.4520   13.0260  -13.9880 C   0  0  0  0  0  0  0  0  0  0  0  0
  -26.4880   12.1920  -14.4060 C   0  0  0  0  0  0  0  0  0  0  0  0
  -24.5100   12.5540  -13.0820 C   0  0  0  0  0  0  0  0  0  0  0  0
  -26.5860   10.8930  -13.9280 C   0  0  0  0  0  0  0  0  0  0  0  0
  -24.6090   11.2500  -12.6050 C   0  0  0  0  0  0  0  0  0  0  0  0
  -25.6430   10.4220  -13.0200 C   0  0  0  0  0  0  0  0  0  0  0  0
  -28.1640   14.8810  -12.4330 N   0  0  0  0  0  0  0  0  0  0  0  0
  -29.5980   14.7180  -12.2950 C   0  0  0  0  0  0  0  0  0  0  0  0
  -30.3230   16.0350  -12.3410 C   0  0  0  0  0  0  0  0  0  0  0  0
  -31.5000   16.0890  -12.6680 O   0  0  0  0  0  0  0  0  0  0  0  0
  -29.8850   14.0270  -10.9670 C   0  0  0  0  0  0  0  0  0  0  0  0
  -29.3480   12.6110  -10.9950 C   0  0  0  0  0  0  0  0  0  0  0  0
  -30.0010   11.6300  -11.7390 C   0  0  0  0  0  0  0  0  0  0  0  0
  -28.2010   12.2830  -10.2720 C   0  0  0  0  0  0  0  0  0  0  0  0
  -29.5100   10.3270  -11.7630 C   0  0  0  0  0  0  0  0  0  0  0  0
  -27.7110   10.9780  -10.3000 C   0  0  0  0  0  0  0  0  0  0  0  0
  -28.3650    9.9990  -11.0410 C   0  0  0  0  0  0  0  0  0  0  0  0
  -29.6900   17.1630  -12.0170 O   0  0  0  0  0  0  0  0  0  0  0  0
  -23.8523    8.4596   -4.0874 H   0  0  0  0  0  0  0  0  0  0  0  0
  -24.5510    7.1315   -5.0522 H   0  0  0  0  0  0  0  0  0  0  0  0
  -24.7378   10.3738   -5.5422 H   0  0  0  0  0  0  0  0  0  0  0  0
  -22.9801   12.6013  -10.5538 H   0  0  0  0  0  0  0  0  0  0  0  0
  -23.7444   14.1654  -10.7459 H   0  0  0  0  0  0  0  0  0  0  0  0
  -23.7795   16.6642  -10.0167 H   0  0  0  0  0  0  0  0  0  0  0  0
  -25.3894   16.2264   -9.3033 H   0  0  0  0  0  0  0  0  0  0  0  0
  -25.4142   14.2828  -11.8285 H   0  0  0  0  0  0  0  0  0  0  0  0
  -25.9093   16.4150  -13.8738 H   0  0  0  0  0  0  0  0  0  0  0  0
  -24.2993   14.7397  -14.5822 H   0  0  0  0  0  0  0  0  0  0  0  0
  -25.8114   14.5000  -15.5136 H   0  0  0  0  0  0  0  0  0  0  0  0
  -27.2347   12.5672  -15.1214 H   0  0  0  0  0  0  0  0  0  0  0  0
  -23.6915   13.2065  -12.7440 H   0  0  0  0  0  0  0  0  0  0  0  0
  -27.4043   10.2396  -14.2649 H   0  0  0  0  0  0  0  0  0  0  0  0
  -23.8609   10.8722  -11.8926 H   0  0  0  0  0  0  0  0  0  0  0  0
  -25.7166    9.3955  -12.6317 H   0  0  0  0  0  0  0  0  0  0  0  0
  -27.5750   14.7976  -11.5922 H   0  0  0  0  0  0  0  0  0  0  0  0
  -29.9590   14.1124  -13.1393 H   0  0  0  0  0  0  0  0  0  0  0  0
  -29.3991   14.5851  -10.1531 H   0  0  0  0  0  0  0  0  0  0  0  0
  -30.9721   13.9984  -10.8016 H   0  0  0  0  0  0  0  0  0  0  0  0
  -30.9066   11.8856  -12.3088 H   0  0  0  0  0  0  0  0  0  0  0  0
  -27.6838   13.0529   -9.6806 H   0  0  0  0  0  0  0  0  0  0  0  0
  -30.0271    9.5559  -12.3529 H   0  0  0  0  0  0  0  0  0  0  0  0
  -26.8035   10.7215   -9.7338 H   0  0  0  0  0  0  0  0  0  0  0  0
  -27.9790    8.9691  -11.0567 H   0  0  0  0  0  0  0  0  0  0  0  0
  -29.5570   17.4001  -11.0651 H   0  0  0  0  0  0  0  0  0  0  0  0
 22 21  2  0
 23 24  1  0
 23 20  1  0
 25 24  2  0
 25 27  1  0
 24 26  1  0
 27 29  2  0
 21 20  1  0
 21 30  1  0
 20 19  1  0
 26 28  2  0
 29 28  1  0
 33 32  2  0
 30 31  1  0
 32 31  1  0
 32 41  1  0
 31 34  1  0
 19 17  1  0
 38 36  2  0
 38 40  1  0
 36 35  1  0
 18 17  2  0
 17 16  1  0
 40 39  2  0
 35 34  1  0
 35 37  2  0
 39 37  1  0
 16 15  1  0
 15 14  1  0
 13 12  2  0
 13 11  1  0
 12  6  1  0
  3  4  2  0
 14 11  1  0
 14  8  2  0
 11 10  2  0
  6  4  1  0
  6  9  2  0
  4  5  1  0
 10  9  1  0
  9  7  1  0
  5  1  2  0
  7  1  1  0
  1  2  1  0
  2 42  1  0
  2 43  1  0
  7 44  1  0
 13 45  1  0
 15 46  1  0
 16 47  1  0
 16 48  1  0
 19 49  1  0
 20 50  1  0
 23 51  1  0
 23 52  1  0
 25 53  1  0
 26 54  1  0
 27 55  1  0
 28 56  1  0
 29 57  1  0
 30 58  1  0
 31 59  1  0
 34 60  1  0
 34 61  1  0
 36 62  1  0
 37 63  1  0
 38 64  1  0
 39 65  1  0
 40 66  1  0
 41 67  1  0
A    1
C1
A    2
N1
A    3
O1
A    4
C2
A    5
N2
A    6
C3
A    7
N3
A    8
O2
A    9
C4
A   10
N4
A   11
C5
A   12
N5
A   13
C6
A   14
C7
A   15
N6
A   16
C8
A   17
C9
A   18
O3
A   19
N7
A   20
C10
A   21
C18
A   22
O4
A   23
C11
A   24
C12
A   25
C13
A   26
C17
A   27
C14
A   28
C16
A   29
C15
A   30
N8
A   31
C19
A   32
C27
A   33
O6
A   34
C20
A   35
C21
A   36
C22
A   37
C26
A   38
C23
A   39
C25
A   40
C24
A   41
O5
M  END
