1KHR_VIR_A_401
     RDKit          3D

 73 75  0  0  0  0  0  0  0  0999 V2000
   66.1980    7.9220   41.1080 C   0  0  0  0  0  0  0  0  0  0  0  0
   62.5310   11.5690   39.0140 C   0  0  0  0  0  0  0  0  0  0  0  0
   62.7860   11.4510   41.1690 C   0  0  0  0  0  0  0  0  0  0  0  0
   61.9950   12.1790   37.7750 C   0  0  0  0  0  0  0  0  0  0  0  0
   62.6890   11.7350   36.5580 C   0  0  0  0  0  0  0  0  0  0  0  0
   62.3810   10.3900   35.9700 C   0  0  0  0  0  0  0  0  0  0  0  0
   63.5310    9.8310   35.1670 C   0  0  0  0  0  0  0  0  0  0  0  0
   63.9680    8.4560   35.6160 C   0  0  0  0  0  0  0  0  0  0  0  0
   67.3770    7.9780   40.4530 C   0  0  0  0  0  0  0  0  0  0  0  0
   65.1840    8.0030   35.5680 C   0  0  0  0  0  0  0  0  0  0  0  0
   66.3410    8.8200   35.0460 C   0  0  0  0  0  0  0  0  0  0  0  0
   65.4720    6.6870   36.0590 C   0  0  0  0  0  0  0  0  0  0  0  0
   66.7800    6.3030   36.1990 C   0  0  0  0  0  0  0  0  0  0  0  0
   67.2210    4.9320   36.7610 C   0  0  0  0  0  0  0  0  0  0  0  0
   67.0300    4.1320   39.0340 C   0  0  0  0  0  0  0  0  0  0  0  0
   67.6590    4.7260   40.3340 C   0  0  0  0  0  0  0  0  0  0  0  0
   67.6040    4.0830   41.2570 C   0  0  0  0  0  0  0  0  0  0  0  0
   67.3660    9.0710   39.4420 C   0  0  0  0  0  0  0  0  0  0  0  0
   68.0730    4.1940   42.7410 C   0  0  0  0  0  0  0  0  0  0  0  0
   69.5910    4.3810   42.9090 C   0  0  0  0  0  0  0  0  0  0  0  0
   67.2870    5.3430   43.4070 C   0  0  0  0  0  0  0  0  0  0  0  0
   68.0100    5.8980   44.6020 C   0  0  0  0  0  0  0  0  0  0  0  0
   67.1930    7.0340   45.2340 C   0  0  0  0  0  0  0  0  0  0  0  0
   68.2120    4.7890   45.6500 C   0  0  0  0  0  0  0  0  0  0  0  0
   65.9320    6.8610   42.1150 C   0  0  0  0  0  0  0  0  0  0  0  0
   65.9870    9.6810   39.5320 C   0  0  0  0  0  0  0  0  0  0  0  0
   64.2330    9.4150   41.3150 C   0  0  0  0  0  0  0  0  0  0  0  0
   63.4630   10.4320   40.5710 C   0  0  0  0  0  0  0  0  0  0  0  0
   67.5220    5.0130   38.1650 N   0  0  0  0  0  0  0  0  0  0  0  0
   65.2850    8.9230   40.6300 N   0  0  0  0  0  0  0  0  0  0  0  0
   63.2870   10.5200   39.1960 N   0  0  0  0  0  0  0  0  0  0  0  0
   62.1820   12.1800   40.1940 O   0  0  0  0  0  0  0  0  0  0  0  0
   63.5020   12.5020   36.0430 O   0  0  0  0  0  0  0  0  0  0  0  0
   63.0940    9.7240   33.7750 O   0  0  0  0  0  0  0  0  0  0  0  0
   66.2650    3.1890   38.7290 O   0  0  0  0  0  0  0  0  0  0  0  0
   67.1730    6.4620   42.4780 O   0  0  0  0  0  0  0  0  0  0  0  0
   64.8960    6.3930   42.5390 O   0  0  0  0  0  0  0  0  0  0  0  0
   63.9090    9.0970   42.4590 O   0  0  0  0  0  0  0  0  0  0  0  0
   62.7367   11.6490   42.2499 H   0  0  0  0  0  0  0  0  0  0  0  0
   60.9315   11.9122   37.6869 H   0  0  0  0  0  0  0  0  0  0  0  0
   62.1458   13.2656   37.8566 H   0  0  0  0  0  0  0  0  0  0  0  0
   62.1504    9.6920   36.7883 H   0  0  0  0  0  0  0  0  0  0  0  0
   61.5264   10.5119   35.2883 H   0  0  0  0  0  0  0  0  0  0  0  0
   64.3856   10.5102   35.3028 H   0  0  0  0  0  0  0  0  0  0  0  0
   63.1937    7.7847   36.0157 H   0  0  0  0  0  0  0  0  0  0  0  0
   68.2290    7.3080   40.6405 H   0  0  0  0  0  0  0  0  0  0  0  0
   66.9150    9.2253   35.8923 H   0  0  0  0  0  0  0  0  0  0  0  0
   66.9936    8.1814   34.4326 H   0  0  0  0  0  0  0  0  0  0  0  0
   65.9575    9.6487   34.4326 H   0  0  0  0  0  0  0  0  0  0  0  0
   64.6561    5.9967   36.3191 H   0  0  0  0  0  0  0  0  0  0  0  0
   67.5629    7.0126   35.8932 H   0  0  0  0  0  0  0  0  0  0  0  0
   66.4090    4.2054   36.6103 H   0  0  0  0  0  0  0  0  0  0  0  0
   68.1308    4.6162   36.2294 H   0  0  0  0  0  0  0  0  0  0  0  0
   68.1307    5.7196   40.3475 H   0  0  0  0  0  0  0  0  0  0  0  0
   67.0865    3.1321   41.0622 H   0  0  0  0  0  0  0  0  0  0  0  0
   68.1355    9.8211   39.6767 H   0  0  0  0  0  0  0  0  0  0  0  0
   67.5847    8.6974   38.4308 H   0  0  0  0  0  0  0  0  0  0  0  0
   67.8599    3.2351   43.2360 H   0  0  0  0  0  0  0  0  0  0  0  0
   69.8404    4.4117   43.9799 H   0  0  0  0  0  0  0  0  0  0  0  0
   70.1187    3.5411   42.4336 H   0  0  0  0  0  0  0  0  0  0  0  0
   69.8991    5.3239   42.4336 H   0  0  0  0  0  0  0  0  0  0  0  0
   66.3125    4.9245   43.6989 H   0  0  0  0  0  0  0  0  0  0  0  0
   68.9857    6.2851   44.2730 H   0  0  0  0  0  0  0  0  0  0  0  0
   67.2471    6.9587   46.3301 H   0  0  0  0  0  0  0  0  0  0  0  0
   67.6024    8.0030   44.9124 H   0  0  0  0  0  0  0  0  0  0  0  0
   66.1441    6.9542   44.9124 H   0  0  0  0  0  0  0  0  0  0  0  0
   68.1336    5.2195   46.6592 H   0  0  0  0  0  0  0  0  0  0  0  0
   67.4398    4.0165   45.5199 H   0  0  0  0  0  0  0  0  0  0  0  0
   69.2070    4.3384   45.5199 H   0  0  0  0  0  0  0  0  0  0  0  0
   66.0545   10.7495   39.7843 H   0  0  0  0  0  0  0  0  0  0  0  0
   65.4460    9.6121   38.5767 H   0  0  0  0  0  0  0  0  0  0  0  0
   68.1320    5.7696   38.5061 H   0  0  0  0  0  0  0  0  0  0  0  0
   62.1328    9.4886   33.7481 H   0  0  0  0  0  0  0  0  0  0  0  0
  1  9  2  0
  1 25  1  0
  1 30  1  0
  2  4  1  0
  2 31  2  0
  2 32  1  0
  3 28  2  0
  3 32  1  0
  4  5  1  0
  5  6  1  0
  5 33  2  0
  6  7  1  0
  7  8  1  0
  7 34  1  0
  8 10  2  0
  9 18  1  0
 10 11  1  0
 10 12  1  0
 12 13  2  0
 13 14  1  0
 14 29  1  0
 15 16  1  0
 15 29  1  0
 15 35  2  0
 16 17  2  0
 17 19  1  0
 18 26  1  0
 19 20  1  0
 19 21  1  0
 21 22  1  0
 21 36  1  0
 22 23  1  0
 22 24  1  0
 25 36  1  0
 25 37  2  0
 26 30  1  0
 27 28  1  0
 27 30  1  0
 27 38  2  0
 28 31  1  0
  3 39  1  0
  4 40  1  0
  4 41  1  0
  6 42  1  0
  6 43  1  0
  7 44  1  0
  8 45  1  0
  9 46  1  0
 11 47  1  0
 11 48  1  0
 11 49  1  0
 12 50  1  0
 13 51  1  0
 14 52  1  0
 14 53  1  0
 16 54  1  0
 17 55  1  0
 18 56  1  0
 18 57  1  0
 19 58  1  0
 20 59  1  0
 20 60  1  0
 20 61  1  0
 21 62  1  0
 22 63  1  0
 23 64  1  0
 23 65  1  0
 23 66  1  0
 24 67  1  0
 24 68  1  0
 24 69  1  0
 26 70  1  0
 26 71  1  0
 29 72  1  0
 34 73  1  0
A    1
C1
A    2
C10
A    3
C12
A    4
C13
A    5
C14
A    6
C16
A    7
C17
A    8
C19
A    9
C2
A   10
C20
A   11
C21
A   12
C22
A   13
C23
A   14
C24
A   15
C26
A   16
C28
A   17
C29
A   18
C3
A   19
C30
A   20
C31
A   21
C32
A   22
C33
A   23
C34
A   24
C35
A   25
C37
A   26
C4
A   27
C6
A   28
C8
A   29
N25
A   30
N5
A   31
N9
A   32
O11
A   33
O15
A   34
O18
A   35
O27
A   36
O36
A   37
O38
A   38
O7
M  END
