4HV7_19J_X_301
     RDKit          3D

 34 35  0  0  0  0  0  0  0  0999 V2000
   23.8700   -8.8480   -6.3700 C   0  0  0  0  0  0  0  0  0  0  0  0
   24.2250   -8.1530   -5.2580 N   0  0  0  0  0  0  0  0  0  0  0  0
   21.8830   -8.3280   -9.2430 O   0  0  0  0  0  0  0  0  0  0  0  0
   22.6450   -8.8680   -8.4120 C   0  0  0  0  0  0  0  0  0  0  0  0
   23.0550   -8.2390   -7.2910 N   0  0  0  0  0  0  0  0  0  0  0  0
   23.1370  -10.2310   -8.6420 C   0  0  0  0  0  0  0  0  0  0  0  0
   24.3500  -10.0950   -6.5310 N   0  0  0  0  0  0  0  0  0  0  0  0
   25.3720  -14.6180   -8.2330 O   0  0  0  0  0  0  0  0  0  0  0  0
   24.0330  -10.8070   -7.6270 C   0  0  0  0  0  0  0  0  0  0  0  0
   24.4920  -12.0530   -7.8230 N   0  0  0  0  0  0  0  0  0  0  0  0
   24.1430  -12.7410   -8.9250 C   0  0  0  0  0  0  0  0  0  0  0  0
   22.8010  -10.9420   -9.7360 N   0  0  0  0  0  0  0  0  0  0  0  0
   23.3000  -12.1810   -9.8850 C   0  0  0  0  0  0  0  0  0  0  0  0
   24.7240  -14.1080   -9.1210 C   0  0  0  0  0  0  0  0  0  0  0  0
   24.5970  -14.6950  -10.3000 N   0  0  0  0  0  0  0  0  0  0  0  0
   25.2720  -15.9400  -10.6230 C   0  0  0  0  0  0  0  0  0  0  0  0
   26.7740  -15.8320  -10.8240 C   0  0  0  0  0  0  0  0  0  0  0  0
   27.4630  -16.8410  -10.8340 O   0  0  0  0  0  0  0  0  0  0  0  0
   27.3060  -14.6220  -10.9840 N   0  0  0  0  0  0  0  0  0  0  0  0
   28.6910  -14.4470  -11.3920 C   0  0  0  0  0  0  0  0  0  0  0  0
   28.8950  -14.7050  -12.8740 C   0  0  0  0  0  0  0  0  0  0  0  0
   29.3110  -13.8120  -13.6010 O   0  0  0  0  0  0  0  0  0  0  0  0
   28.6280  -15.8990  -13.4130 O   0  0  0  0  0  0  0  0  0  0  0  0
   24.0274   -8.5398   -4.3240 H   0  0  0  0  0  0  0  0  0  0  0  0
   24.6917   -7.2393   -5.3489 H   0  0  0  0  0  0  0  0  0  0  0  0
   24.9626  -10.5057   -5.8120 H   0  0  0  0  0  0  0  0  0  0  0  0
   23.0389  -12.7642  -10.7804 H   0  0  0  0  0  0  0  0  0  0  0  0
   23.9990  -14.2540  -11.0133 H   0  0  0  0  0  0  0  0  0  0  0  0
   24.8325  -16.3337  -11.5514 H   0  0  0  0  0  0  0  0  0  0  0  0
   25.1284  -16.5979   -9.7532 H   0  0  0  0  0  0  0  0  0  0  0  0
   26.7228  -13.7900  -10.8148 H   0  0  0  0  0  0  0  0  0  0  0  0
   29.3184  -15.1479  -10.8218 H   0  0  0  0  0  0  0  0  0  0  0  0
   28.9699  -13.4019  -11.1921 H   0  0  0  0  0  0  0  0  0  0  0  0
   28.4537  -16.6784  -12.8280 H   0  0  0  0  0  0  0  0  0  0  0  0
 22 21  2  0
 23 21  1  0
 21 20  1  0
 20 19  1  0
 19 17  1  0
 18 17  2  0
 17 16  1  0
 16 15  1  0
 15 14  1  0
 13 12  2  0
 13 11  1  0
 12  6  1  0
  3  4  2  0
 14 11  1  0
 14  8  2  0
 11 10  2  0
  6  4  1  0
  6  9  2  0
  4  5  1  0
 10  9  1  0
  9  7  1  0
  5  1  2  0
  7  1  1  0
  1  2  1  0
  2 24  1  0
  2 25  1  0
  7 26  1  0
 13 27  1  0
 15 28  1  0
 16 29  1  0
 16 30  1  0
 19 31  1  0
 20 32  1  0
 20 33  1  0
 23 34  1  0
A    1
C1
A    2
N1
A    3
O1
A    4
C2
A    5
N2
A    6
C3
A    7
N3
A    8
O2
A    9
C4
A   10
N4
A   11
C5
A   12
N5
A   13
C6
A   14
C7
A   15
N6
A   16
C8
A   17
C9
A   18
O3
A   19
N7
A   20
C10
A   21
C11
A   22
O5
A   23
O4
M  END
