4HVD_933_A_1202
     RDKit          3D

 43 45  0  0  0  0  0  0  0  0999 V2000
   -2.5420  -14.1910   -2.9650 N   0  0  0  0  0  0  0  0  0  0  0  0
   -2.5830  -15.5120   -3.0440 C   0  0  0  0  0  0  0  0  0  0  0  0
   -1.4890  -16.2390   -3.5060 C   0  0  0  0  0  0  0  0  0  0  0  0
   -0.3810  -15.6060   -3.8580 N   0  0  0  0  0  0  0  0  0  0  0  0
   -1.4340  -13.5390   -3.3250 C   0  0  0  0  0  0  0  0  0  0  0  0
   -0.3210  -14.2810   -3.7840 C   0  0  0  0  0  0  0  0  0  0  0  0
    0.7280  -13.3020   -4.0960 C   0  0  0  0  0  0  0  0  0  0  0  0
    0.1950  -12.0720   -3.8260 C   0  0  0  0  0  0  0  0  0  0  0  0
   -1.0800  -12.2110   -3.3600 N   0  0  0  0  0  0  0  0  0  0  0  0
   -1.5740  -17.7450   -3.5760 C   0  0  0  0  0  0  0  0  0  0  0  0
   -0.9150  -18.4610   -4.7600 C   0  0  0  0  0  0  0  0  0  0  0  0
   -0.2820  -18.5370   -3.3650 C   0  0  0  0  0  0  0  0  0  0  0  0
    2.0510  -13.6480   -4.6290 C   0  0  0  0  0  0  0  0  0  0  0  0
    2.2790  -14.9630   -4.8710 N   0  0  0  0  0  0  0  0  0  0  0  0
    2.8890  -12.7890   -4.8560 O   0  0  0  0  0  0  0  0  0  0  0  0
    3.5110  -15.5210   -5.4450 C   0  0  0  0  0  0  0  0  0  0  0  0
    3.2050  -15.9840   -6.8900 C   0  0  0  0  0  0  0  0  0  0  0  0
    2.7250  -14.7860   -7.7210 C   0  0  0  0  0  0  0  0  0  0  0  0
    4.4610  -16.5270   -7.5750 C   0  0  0  0  0  0  0  0  0  0  0  0
    2.1180  -17.0660   -6.9360 C   0  0  0  0  0  0  0  0  0  0  0  0
    4.0060  -16.6720   -4.5550 C   0  0  0  0  0  0  0  0  0  0  0  0
   -3.4964  -16.0440   -2.7396 H   0  0  0  0  0  0  0  0  0  0  0  0
    0.7164  -11.1133   -3.9639 H   0  0  0  0  0  0  0  0  0  0  0  0
   -1.6904  -11.4318   -3.0750 H   0  0  0  0  0  0  0  0  0  0  0  0
   -2.5800  -17.7545   -3.1312 H   0  0  0  0  0  0  0  0  0  0  0  0
   -1.3897  -19.3513   -5.1982 H   0  0  0  0  0  0  0  0  0  0  0  0
   -0.5661  -18.1565   -5.7578 H   0  0  0  0  0  0  0  0  0  0  0  0
   -0.3020  -19.4823   -2.8028 H   0  0  0  0  0  0  0  0  0  0  0  0
    0.7101  -18.3097   -2.9478 H   0  0  0  0  0  0  0  0  0  0  0  0
    1.5266  -15.6248   -4.6328 H   0  0  0  0  0  0  0  0  0  0  0  0
    4.3136  -14.7699   -5.4858 H   0  0  0  0  0  0  0  0  0  0  0  0
    2.4015  -13.9787   -7.0475 H   0  0  0  0  0  0  0  0  0  0  0  0
    3.5485  -14.4264   -8.3555 H   0  0  0  0  0  0  0  0  0  0  0  0
    1.8810  -15.0945   -8.3555 H   0  0  0  0  0  0  0  0  0  0  0  0
    5.1881  -16.8413   -6.8118 H   0  0  0  0  0  0  0  0  0  0  0  0
    4.1925  -17.3894   -8.2028 H   0  0  0  0  0  0  0  0  0  0  0  0
    4.9053  -15.7406   -8.2028 H   0  0  0  0  0  0  0  0  0  0  0  0
    1.8362  -17.3465   -5.9104 H   0  0  0  0  0  0  0  0  0  0  0  0
    1.2356  -16.6770   -7.4653 H   0  0  0  0  0  0  0  0  0  0  0  0
    2.5029  -17.9501   -7.4653 H   0  0  0  0  0  0  0  0  0  0  0  0
    3.8868  -16.3949   -3.4972 H   0  0  0  0  0  0  0  0  0  0  0  0
    3.4177  -17.5773   -4.7654 H   0  0  0  0  0  0  0  0  0  0  0  0
    5.0678  -16.8676   -4.7654 H   0  0  0  0  0  0  0  0  0  0  0  0
 18 17  1  0
 19 17  1  0
 20 17  1  0
 17 16  1  0
 16 14  1  0
 16 21  1  0
 14 13  1  0
 15 13  2  0
 11 10  1  0
 11 12  1  0
 13  7  1  0
  7  8  2  0
  7  6  1  0
  4  6  2  0
  4  3  1  0
  8  9  1  0
  6  5  1  0
 10  3  1  0
 10 12  1  0
  3  2  2  0
  9  5  1  0
  5  1  2  0
  2  1  1  0
  2 22  1  0
  8 23  1  0
  9 24  1  0
 10 25  1  0
 11 26  1  0
 11 27  1  0
 12 28  1  0
 12 29  1  0
 14 30  1  0
 16 31  1  0
 18 32  1  0
 18 33  1  0
 18 34  1  0
 19 35  1  0
 19 36  1  0
 19 37  1  0
 20 38  1  0
 20 39  1  0
 20 40  1  0
 21 41  1  0
 21 42  1  0
 21 43  1  0
A    1
N1
A    2
C2
A    3
C3
A    4
N4
A    5
C5
A    6
C6
A    7
C7
A    8
C8
A    9
N9
A   10
C10
A   11
C11
A   12
C12
A   13
C13
A   14
N14
A   15
O15
A   16
C16
A   17
C17
A   18
C18
A   19
C19
A   20
C20
A   21
C21
M  END
