3BLO_QEI_A_600
     RDKit          3D

 35 37  0  0  0  0  0  0  0  0999 V2000
   20.6790   21.1030   19.0480 C   0  0  0  0  0  0  0  0  0  0  0  0
   20.7910   22.4250   19.8530 C   0  0  0  0  0  0  0  0  0  0  0  0
   19.6820   21.4840   17.9680 C   0  0  0  0  0  0  0  0  0  0  0  0
   19.6460   23.3230   19.3980 C   0  0  0  0  0  0  0  0  0  0  0  0
   19.1660   22.6960   18.1140 C   0  0  0  0  0  0  0  0  0  0  0  0
   20.2130   18.4860   19.5250 C   0  0  0  0  0  0  0  0  0  0  0  0
   18.0450   18.0430   20.8950 C   0  0  0  0  0  0  0  0  0  0  0  0
   16.7050   17.7430   20.4400 C   0  0  0  0  0  0  0  0  0  0  0  0
   18.2900   18.1290   22.3370 C   0  0  0  0  0  0  0  0  0  0  0  0
   22.0000   23.1280   19.5690 O   0  0  0  0  0  0  0  0  0  0  0  0
   20.1580   24.6150   19.1470 O   0  0  0  0  0  0  0  0  0  0  0  0
   20.0630   19.9670   19.8100 N   0  0  0  0  0  0  0  0  0  0  0  0
   18.7820   18.1790   19.6530 C   0  0  0  0  0  0  0  0  0  0  0  0
   17.9060   17.9680   18.5970 C   0  0  0  0  0  0  0  0  0  0  0  0
   16.6920   17.7170   19.0840 N   0  0  0  0  0  0  0  0  0  0  0  0
   15.7800   17.5620   21.4120 N   0  0  0  0  0  0  0  0  0  0  0  0
   16.0510   17.6510   22.7220 C   0  0  0  0  0  0  0  0  0  0  0  0
   14.9610   17.9520   23.4710 N   0  0  0  0  0  0  0  0  0  0  0  0
   17.2900   17.9300   23.1870 N   0  0  0  0  0  0  0  0  0  0  0  0
   19.3950   18.3730   22.7520 O   0  0  0  0  0  0  0  0  0  0  0  0
   21.6745   20.7573   18.7325 H   0  0  0  0  0  0  0  0  0  0  0  0
   20.7657   22.1825   20.9256 H   0  0  0  0  0  0  0  0  0  0  0  0
   19.4121   20.8139   17.1385 H   0  0  0  0  0  0  0  0  0  0  0  0
   18.8391   23.4144   20.1400 H   0  0  0  0  0  0  0  0  0  0  0  0
   18.4830   23.1771   17.3983 H   0  0  0  0  0  0  0  0  0  0  0  0
   20.6063   18.2815   18.5183 H   0  0  0  0  0  0  0  0  0  0  0  0
   20.9140   17.9155   20.1521 H   0  0  0  0  0  0  0  0  0  0  0  0
   22.4401   23.3839   20.4180 H   0  0  0  0  0  0  0  0  0  0  0  0
   20.3388   25.0711   20.0069 H   0  0  0  0  0  0  0  0  0  0  0  0
   20.3964   20.0855   20.7773 H   0  0  0  0  0  0  0  0  0  0  0  0
   18.1716   18.0025   17.5301 H   0  0  0  0  0  0  0  0  0  0  0  0
   15.8579   17.5290   18.5097 H   0  0  0  0  0  0  0  0  0  0  0  0
   15.0219   17.9352   24.4991 H   0  0  0  0  0  0  0  0  0  0  0  0
   14.0723   18.1974   23.0117 H   0  0  0  0  0  0  0  0  0  0  0  0
   17.4578   17.9881   24.2016 H   0  0  0  0  0  0  0  0  0  0  0  0
  1  2  1  0
  1  3  1  0
  1 12  1  0
  2  4  1  0
  2 10  1  0
  3  5  2  0
  4  5  1  0
  4 11  1  0
  6 12  1  0
  6 13  1  0
  7  8  2  0
  7  9  1  0
  7 13  1  0
  8 15  1  0
  8 16  1  0
  9 19  1  0
  9 20  2  0
 13 14  2  0
 14 15  1  0
 16 17  2  0
 17 18  1  0
 17 19  1  0
  1 21  1  0
  2 22  1  0
  3 23  1  0
  4 24  1  0
  5 25  1  0
  6 26  1  0
  6 27  1  0
 10 28  1  0
 11 29  1  0
 12 30  1  0
 14 31  1  0
 15 32  1  0
 18 33  1  0
 18 34  1  0
 19 35  1  0
A    1
C1
A    2
C2
A    3
C3
A    4
C4
A    5
C5
A    6
C6
A    7
C9
A    8
C10
A    9
C11
A   10
O1
A   11
O2
A   12
N1
A   13
C7
A   14
C8
A   15
N2
A   16
N3
A   17
C12
A   18
N5
A   19
N4
A   20
O3
M  END
