4HW7_64M_A_1001
     RDKit          3D

 49 52  0  0  0  0  0  0  0  0999 V2000
   29.5060   13.0690   72.6810 C   0  0  0  0  0  0  0  0  0  0  0  0
   29.4690   11.8330   72.0910 C   0  0  0  0  0  0  0  0  0  0  0  0
   30.5240   11.0360   71.8890 N   0  0  0  0  0  0  0  0  0  0  0  0
   30.7000   13.5570   73.1120 C   0  0  0  0  0  0  0  0  0  0  0  0
   32.8680   10.9670   72.2580 N   0  0  0  0  0  0  0  0  0  0  0  0
   33.7990   11.7780   72.8070 C   0  0  0  0  0  0  0  0  0  0  0  0
   33.1870   12.9200   73.2440 C   0  0  0  0  0  0  0  0  0  0  0  0
   31.8230   12.7690   72.9310 C   0  0  0  0  0  0  0  0  0  0  0  0
   31.6590   11.5620   72.3250 C   0  0  0  0  0  0  0  0  0  0  0  0
   28.5190   13.9330   72.9150 O   0  0  0  0  0  0  0  0  0  0  0  0
   33.8000   14.0990   73.9020 C   0  0  0  0  0  0  0  0  0  0  0  0
   35.2530   13.8090   73.8770 C   0  0  0  0  0  0  0  0  0  0  0  0
   35.9660   13.5700   75.0140 C   0  0  0  0  0  0  0  0  0  0  0  0
   37.2700   13.3000   75.0430 N   0  0  0  0  0  0  0  0  0  0  0  0
   37.9230   13.2440   73.8860 C   0  0  0  0  0  0  0  0  0  0  0  0
   37.2860   13.4690   72.6970 C   0  0  0  0  0  0  0  0  0  0  0  0
   35.9440   13.7550   72.6960 C   0  0  0  0  0  0  0  0  0  0  0  0
   29.0280   15.0730   73.5530 C   0  0  0  0  0  0  0  0  0  0  0  0
   39.2590   12.9670   73.8570 N   0  0  0  0  0  0  0  0  0  0  0  0
   40.1020   13.6040   74.8190 C   0  0  0  0  0  0  0  0  0  0  0  0
   40.5640   12.5430   75.7450 C   0  0  0  0  0  0  0  0  0  0  0  0
   39.8320   11.3810   75.8750 C   0  0  0  0  0  0  0  0  0  0  0  0
   40.2650   10.3870   76.7400 C   0  0  0  0  0  0  0  0  0  0  0  0
   41.4230   10.5510   77.4790 C   0  0  0  0  0  0  0  0  0  0  0  0
   42.1480   11.7180   77.3400 C   0  0  0  0  0  0  0  0  0  0  0  0
   41.7230   12.7140   76.4780 C   0  0  0  0  0  0  0  0  0  0  0  0
   41.8960    9.5080   78.4050 C   0  0  0  0  0  0  0  0  0  0  0  0
   42.9360    9.8730   79.1380 F   0  0  0  0  0  0  0  0  0  0  0  0
   41.0120    9.1180   79.3010 F   0  0  0  0  0  0  0  0  0  0  0  0
   42.2580    8.3820   77.8120 F   0  0  0  0  0  0  0  0  0  0  0  0
   28.4884   11.4649   71.7549 H   0  0  0  0  0  0  0  0  0  0  0  0
   30.7707   14.5457   73.5889 H   0  0  0  0  0  0  0  0  0  0  0  0
   33.0527   10.0388   71.8515 H   0  0  0  0  0  0  0  0  0  0  0  0
   34.8732   11.5559   72.8889 H   0  0  0  0  0  0  0  0  0  0  0  0
   33.5754   15.0194   73.3430 H   0  0  0  0  0  0  0  0  0  0  0  0
   33.4183   14.2611   74.9208 H   0  0  0  0  0  0  0  0  0  0  0  0
   35.4278   13.6023   75.9728 H   0  0  0  0  0  0  0  0  0  0  0  0
   37.8442   13.4212   71.7503 H   0  0  0  0  0  0  0  0  0  0  0  0
   35.4227   13.9411   71.7454 H   0  0  0  0  0  0  0  0  0  0  0  0
   28.9687   14.9402   74.6433 H   0  0  0  0  0  0  0  0  0  0  0  0
   30.0774   15.2204   73.2581 H   0  0  0  0  0  0  0  0  0  0  0  0
   28.4372   15.9528   73.2581 H   0  0  0  0  0  0  0  0  0  0  0  0
   39.6492   12.3163   73.1604 H   0  0  0  0  0  0  0  0  0  0  0  0
   40.9625   14.0724   74.3187 H   0  0  0  0  0  0  0  0  0  0  0  0
   39.5606   14.3944   75.3595 H   0  0  0  0  0  0  0  0  0  0  0  0
   38.9079   11.2432   75.2945 H   0  0  0  0  0  0  0  0  0  0  0  0
   39.6821    9.4594   76.8394 H   0  0  0  0  0  0  0  0  0  0  0  0
   43.0722   11.8574   77.9200 H   0  0  0  0  0  0  0  0  0  0  0  0
   42.3071   13.6406   76.3765 H   0  0  0  0  0  0  0  0  0  0  0  0
  3  2  1  0
  3  9  2  0
  2  1  2  0
  5  9  1  0
  5  6  1  0
  9  8  1  0
  1 10  1  0
  1  4  1  0
 17 16  2  0
 17 12  1  0
 16 15  1  0
  6  7  2  0
 10 18  1  0
  8  4  2  0
  8  7  1  0
  7 11  1  0
 19 15  1  0
 19 20  1  0
 12 11  1  0
 12 13  2  0
 15 14  2  0
 20 21  1  0
 13 14  1  0
 21 22  2  0
 21 26  1  0
 22 23  1  0
 26 25  2  0
 23 24  2  0
 25 24  1  0
 24 27  1  0
 30 27  1  0
 27 28  1  0
 27 29  1  0
  2 31  1  0
  4 32  1  0
  5 33  1  0
  6 34  1  0
 11 35  1  0
 11 36  1  0
 13 37  1  0
 16 38  1  0
 17 39  1  0
 18 40  1  0
 18 41  1  0
 18 42  1  0
 19 43  1  0
 20 44  1  0
 20 45  1  0
 22 46  1  0
 23 47  1  0
 25 48  1  0
 26 49  1  0
A    1
C1
A    2
C2
A    3
N4
A    4
C5
A    5
N7
A    6
C9
A    7
C11
A    8
C12
A    9
C13
A   10
O14
A   11
C15
A   12
C18
A   13
C19
A   14
N21
A   15
C22
A   16
C23
A   17
C25
A   18
C27
A   19
N31
A   20
C33
A   21
C36
A   22
C37
A   23
C39
A   24
C41
A   25
C42
A   26
C44
A   27
C46
A   28
F47
A   29
F48
A   30
F49
M  END
