4HWP_X16_A_702
     RDKit          3D

 50 52  0  0  0  0  0  0  0  0999 V2000
  -11.3080  -34.6160   19.9010 C   0  0  0  0  0  0  0  0  0  0  0  0
  -11.2040  -33.6830   18.6920 C   0  0  0  0  0  0  0  0  0  0  0  0
  -10.8100  -34.4180   17.4080 C   0  0  0  0  0  0  0  0  0  0  0  0
  -11.9580  -35.3040   17.0020 C   0  0  0  0  0  0  0  0  0  0  0  0
  -11.9000  -36.5850   17.3310 N   0  0  0  0  0  0  0  0  0  0  0  0
  -10.3330  -32.6330   19.0650 O   0  0  0  0  0  0  0  0  0  0  0  0
  -10.6490  -33.4780   16.3400 N   0  0  0  0  0  0  0  0  0  0  0  0
  -12.8720  -34.8390   16.3770 O   0  0  0  0  0  0  0  0  0  0  0  0
  -13.0600  -37.5910   16.9060 S   0  0  0  0  0  0  0  0  0  0  0  0
  -12.6020  -38.8290   17.2930 O   0  0  0  0  0  0  0  0  0  0  0  0
  -13.2940  -37.4810   15.5710 O   0  0  0  0  0  0  0  0  0  0  0  0
  -14.4090  -37.3040   17.7650 C   0  0  0  0  0  0  0  0  0  0  0  0
  -14.3690  -36.7660   19.0530 C   0  0  0  0  0  0  0  0  0  0  0  0
  -15.5210  -36.5250   19.8090 C   0  0  0  0  0  0  0  0  0  0  0  0
  -16.7460  -36.8380   19.2490 C   0  0  0  0  0  0  0  0  0  0  0  0
  -16.8220  -37.4400   18.0030 C   0  0  0  0  0  0  0  0  0  0  0  0
  -15.6610  -37.6320   17.2610 C   0  0  0  0  0  0  0  0  0  0  0  0
  -18.1670  -37.7250   17.4010 C   0  0  0  0  0  0  0  0  0  0  0  0
  -19.2940  -37.8050   18.2000 C   0  0  0  0  0  0  0  0  0  0  0  0
  -20.5620  -37.9960   17.6770 C   0  0  0  0  0  0  0  0  0  0  0  0
  -20.7000  -38.1020   16.3040 C   0  0  0  0  0  0  0  0  0  0  0  0
  -19.5250  -38.0260   15.4320 C   0  0  0  0  0  0  0  0  0  0  0  0
  -18.2920  -37.8230   16.0260 C   0  0  0  0  0  0  0  0  0  0  0  0
  -19.7060  -38.1250   14.0950 N   0  0  0  0  0  0  0  0  0  0  0  0
  -20.9210  -38.3000   13.5480 C   0  0  0  0  0  0  0  0  0  0  0  0
  -22.0390  -38.3730   14.2920 N   0  0  0  0  0  0  0  0  0  0  0  0
  -22.0090  -38.2920   15.6180 C   0  0  0  0  0  0  0  0  0  0  0  0
  -23.0980  -38.3540   16.3280 N   0  0  0  0  0  0  0  0  0  0  0  0
  -21.0070  -38.4170   12.0560 C   0  0  0  0  0  0  0  0  0  0  0  0
  -11.2422  -34.0254   20.8267 H   0  0  0  0  0  0  0  0  0  0  0  0
  -12.2709  -35.1470   19.8726 H   0  0  0  0  0  0  0  0  0  0  0  0
  -10.4857  -35.3460   19.8726 H   0  0  0  0  0  0  0  0  0  0  0  0
  -12.1851  -33.2600   18.4301 H   0  0  0  0  0  0  0  0  0  0  0  0
   -9.8814  -34.9791   17.5890 H   0  0  0  0  0  0  0  0  0  0  0  0
  -11.0946  -36.9358   17.8687 H   0  0  0  0  0  0  0  0  0  0  0  0
  -10.2869  -32.5775   20.0524 H   0  0  0  0  0  0  0  0  0  0  0  0
  -10.4881  -32.5387   16.7307 H   0  0  0  0  0  0  0  0  0  0  0  0
   -9.8426  -33.7515   15.7605 H   0  0  0  0  0  0  0  0  0  0  0  0
  -13.3903  -36.5214   19.4916 H   0  0  0  0  0  0  0  0  0  0  0  0
  -15.4543  -36.0984   20.8207 H   0  0  0  0  0  0  0  0  0  0  0  0
  -17.6704  -36.6066   19.7986 H   0  0  0  0  0  0  0  0  0  0  0  0
  -15.7366  -38.0548   16.2483 H   0  0  0  0  0  0  0  0  0  0  0  0
  -19.1785  -37.7136   19.2901 H   0  0  0  0  0  0  0  0  0  0  0  0
  -21.4391  -38.0619   18.3375 H   0  0  0  0  0  0  0  0  0  0  0  0
  -17.3954  -37.7380   15.3945 H   0  0  0  0  0  0  0  0  0  0  0  0
  -23.0431  -38.3509   17.3565 H   0  0  0  0  0  0  0  0  0  0  0  0
  -24.0147  -38.4062   15.8614 H   0  0  0  0  0  0  0  0  0  0  0  0
  -21.6394  -39.2773   11.7915 H   0  0  0  0  0  0  0  0  0  0  0  0
  -21.4460  -37.4978   11.6408 H   0  0  0  0  0  0  0  0  0  0  0  0
  -19.9987  -38.5617   11.6408 H   0  0  0  0  0  0  0  0  0  0  0  0
  2  1  1  0
  3  2  1  0
  2  6  1  0
  7  3  1  0
  4  3  1  0
  8  4  2  0
  4  5  1  0
  9  5  1  0
 11  9  2  0
  9 10  2  0
  9 12  1  0
 17 12  2  0
 12 13  1  0
 13 14  2  0
 15 14  1  0
 16 15  2  0
 17 16  1  0
 18 16  1  0
 23 18  1  0
 18 19  2  0
 20 19  1  0
 21 20  2  0
 22 21  1  0
 27 21  1  0
 24 22  1  0
 22 23  2  0
 25 24  2  0
 29 25  1  0
 25 26  1  0
 26 27  2  0
 27 28  1  0
  1 30  1  0
  1 31  1  0
  1 32  1  0
  2 33  1  0
  3 34  1  0
  5 35  1  0
  6 36  1  0
  7 37  1  0
  7 38  1  0
 13 39  1  0
 14 40  1  0
 15 41  1  0
 17 42  1  0
 19 43  1  0
 20 44  1  0
 23 45  1  0
 28 46  1  0
 28 47  1  0
 29 48  1  0
 29 49  1  0
 29 50  1  0
A    1
C1
A    2
C2
A    3
C3
A    4
C4
A    5
N5
A    6
O6
A    7
N7
A    8
O8
A    9
S9
A   10
O10
A   11
O11
A   12
C12
A   13
C13
A   14
C14
A   15
C15
A   16
C16
A   17
C17
A   18
C18
A   19
C19
A   20
C20
A   21
C21
A   22
C22
A   23
C23
A   24
N24
A   25
C25
A   26
N26
A   27
C27
A   28
N28
A   29
C29
M  END
