4HWS_1B3_A_702
     RDKit          3D

 47 49  0  0  0  0  0  0  0  0999 V2000
   24.2480  -37.7290  -18.3230 Cl  0  0  0  0  0  0  0  0  0  0  0  0
   22.8060  -37.8390  -17.3240 C   0  0  0  0  0  0  0  0  0  0  0  0
   21.6350  -37.6810  -17.9820 N   0  0  0  0  0  0  0  0  0  0  0  0
   22.9510  -38.0340  -15.9920 N   0  0  0  0  0  0  0  0  0  0  0  0
   21.8970  -38.0980  -15.2090 C   0  0  0  0  0  0  0  0  0  0  0  0
   22.0410  -38.2850  -13.8830 N   0  0  0  0  0  0  0  0  0  0  0  0
   20.5570  -37.9670  -15.8580 C   0  0  0  0  0  0  0  0  0  0  0  0
   20.4830  -37.7560  -17.3050 C   0  0  0  0  0  0  0  0  0  0  0  0
   19.2340  -37.6050  -17.9360 C   0  0  0  0  0  0  0  0  0  0  0  0
   19.3820  -38.0260  -15.1080 C   0  0  0  0  0  0  0  0  0  0  0  0
   18.1520  -37.9000  -15.7560 C   0  0  0  0  0  0  0  0  0  0  0  0
   18.0820  -37.6820  -17.1460 C   0  0  0  0  0  0  0  0  0  0  0  0
   16.7350  -37.4400  -17.7680 C   0  0  0  0  0  0  0  0  0  0  0  0
   15.5680  -37.6500  -17.0580 C   0  0  0  0  0  0  0  0  0  0  0  0
   16.6910  -36.8100  -19.0280 C   0  0  0  0  0  0  0  0  0  0  0  0
   15.4570  -36.5220  -19.6410 C   0  0  0  0  0  0  0  0  0  0  0  0
   14.2830  -36.7810  -18.9080 C   0  0  0  0  0  0  0  0  0  0  0  0
   14.3330  -37.3400  -17.6240 C   0  0  0  0  0  0  0  0  0  0  0  0
   12.9530  -37.6460  -16.8100 S   0  0  0  0  0  0  0  0  0  0  0  0
   12.4830  -38.9620  -17.1960 O   0  0  0  0  0  0  0  0  0  0  0  0
   13.1840  -37.5910  -15.4180 O   0  0  0  0  0  0  0  0  0  0  0  0
   11.8100  -36.6400  -17.2340 N   0  0  0  0  0  0  0  0  0  0  0  0
   11.8770  -35.3430  -16.9080 C   0  0  0  0  0  0  0  0  0  0  0  0
   12.8190  -34.8810  -16.2640 O   0  0  0  0  0  0  0  0  0  0  0  0
   10.7270  -34.4950  -17.3550 C   0  0  0  0  0  0  0  0  0  0  0  0
   10.3930  -33.4920  -16.3390 N   0  0  0  0  0  0  0  0  0  0  0  0
   11.0990  -33.7180  -18.6200 C   0  0  0  0  0  0  0  0  0  0  0  0
   11.0570  -34.6640  -19.8440 C   0  0  0  0  0  0  0  0  0  0  0  0
   10.1810  -32.6220  -18.7760 O   0  0  0  0  0  0  0  0  0  0  0  0
   21.5603  -37.6607  -13.2197 H   0  0  0  0  0  0  0  0  0  0  0  0
   22.6319  -39.0523  -13.5323 H   0  0  0  0  0  0  0  0  0  0  0  0
   19.1656  -37.4313  -19.0200 H   0  0  0  0  0  0  0  0  0  0  0  0
   19.4244  -38.1702  -14.0183 H   0  0  0  0  0  0  0  0  0  0  0  0
   17.2226  -37.9721  -15.1720 H   0  0  0  0  0  0  0  0  0  0  0  0
   15.6144  -38.0643  -16.0401 H   0  0  0  0  0  0  0  0  0  0  0  0
   17.6286  -36.5412  -19.5365 H   0  0  0  0  0  0  0  0  0  0  0  0
   15.4113  -36.1082  -20.6592 H   0  0  0  0  0  0  0  0  0  0  0  0
   13.3062  -36.5395  -19.3526 H   0  0  0  0  0  0  0  0  0  0  0  0
   11.0014  -36.9874  -17.7692 H   0  0  0  0  0  0  0  0  0  0  0  0
    9.8787  -35.1721  -17.5336 H   0  0  0  0  0  0  0  0  0  0  0  0
   10.5274  -33.8956  -15.4009 H   0  0  0  0  0  0  0  0  0  0  0  0
   11.0064  -32.6722  -16.4512 H   0  0  0  0  0  0  0  0  0  0  0  0
   12.1200  -33.3169  -18.5381 H   0  0  0  0  0  0  0  0  0  0  0  0
   11.0107  -35.7076  -19.4994 H   0  0  0  0  0  0  0  0  0  0  0  0
   10.1680  -34.4386  -20.4513 H   0  0  0  0  0  0  0  0  0  0  0  0
   11.9625  -34.5182  -20.4513 H   0  0  0  0  0  0  0  0  0  0  0  0
    9.9053  -32.2929  -17.8839 H   0  0  0  0  0  0  0  0  0  0  0  0
 28 27  1  0
 16 15  2  0
 16 17  1  0
 15 13  1  0
 17 18  2  0
 29 27  1  0
 27 25  1  0
  1  2  1  0
  3  2  2  0
  3  8  1  0
  9  8  2  0
  9 12  1  0
 13 12  1  0
 13 14  2  0
 18 14  1  0
 18 19  1  0
 25 23  1  0
 25 26  1  0
  2  4  1  0
  8  7  1  0
 22 23  1  0
 22 19  1  0
 20 19  2  0
 12 11  2  0
 23 24  2  0
 19 21  2  0
  4  5  2  0
  7  5  1  0
  7 10  2  0
 11 10  1  0
  5  6  1  0
  6 30  1  0
  6 31  1  0
  9 32  1  0
 10 33  1  0
 11 34  1  0
 14 35  1  0
 15 36  1  0
 16 37  1  0
 17 38  1  0
 22 39  1  0
 25 40  1  0
 26 41  1  0
 26 42  1  0
 27 43  1  0
 28 44  1  0
 28 45  1  0
 28 46  1  0
 29 47  1  0
A    1
CL2
A    2
C25
A    3
N24
A    4
N26
A    5
C27
A    6
N28
A    7
C21
A    8
C22
A    9
C23
A   10
C20
A   11
C19
A   12
C18
A   13
C16
A   14
C17
A   15
C15
A   16
C14
A   17
C13
A   18
C12
A   19
S9
A   20
O10
A   21
O11
A   22
N5
A   23
C4
A   24
O8
A   25
C3
A   26
N7
A   27
C2
A   28
C1
A   29
O6
M  END
