4HXL_1A9_A_201
     RDKit          3D

 57 60  0  0  0  0  0  0  0  0999 V2000
    0.2100   -6.4260   -1.8900 C   0  0  0  0  0  0  0  0  0  0  0  0
    1.6950   -6.4970   -2.0350 C   0  0  0  0  0  0  0  0  0  0  0  0
    2.2020   -7.8820   -2.3090 C   0  0  0  0  0  0  0  0  0  0  0  0
    1.2090   -9.0040   -2.2150 C   0  0  0  0  0  0  0  0  0  0  0  0
   -0.1910   -8.7260   -2.6770 C   0  0  0  0  0  0  0  0  0  0  0  0
   -0.5190   -7.2810   -2.8850 C   0  0  0  0  0  0  0  0  0  0  0  0
   -2.0050   -7.0490   -2.8440 C   0  0  0  0  0  0  0  0  0  0  0  0
   -2.6710   -7.8800   -1.8080 C   0  0  0  0  0  0  0  0  0  0  0  0
   -4.1090   -7.5180   -1.6280 C   0  0  0  0  0  0  0  0  0  0  0  0
   -4.6690   -6.6810   -2.3270 O   0  0  0  0  0  0  0  0  0  0  0  0
   -4.7950   -8.2060   -0.5900 N   0  0  0  0  0  0  0  0  0  0  0  0
   -6.1640   -8.0610   -0.2100 C   0  0  0  0  0  0  0  0  0  0  0  0
   -6.5760   -8.8980    0.8060 C   0  0  0  0  0  0  0  0  0  0  0  0
   -7.0510   -7.1530   -0.7750 C   0  0  0  0  0  0  0  0  0  0  0  0
   -8.3580   -7.1240   -0.3100 C   0  0  0  0  0  0  0  0  0  0  0  0
   -9.3230   -6.1630   -0.8920 C   0  0  0  0  0  0  0  0  0  0  0  0
   -9.0300   -5.1640   -1.8930 C   0  0  0  0  0  0  0  0  0  0  0  0
  -10.4590   -4.3070   -2.2190 S   0  0  0  0  0  0  0  0  0  0  0  0
  -11.4250   -5.1310   -1.1390 C   0  0  0  0  0  0  0  0  0  0  0  0
  -12.6200   -4.9620   -0.8960 O   0  0  0  0  0  0  0  0  0  0  0  0
  -10.6710   -6.0610   -0.5480 N   0  0  0  0  0  0  0  0  0  0  0  0
   -8.7720   -7.9580    0.7170 C   0  0  0  0  0  0  0  0  0  0  0  0
   -7.8750   -8.8550    1.2740 C   0  0  0  0  0  0  0  0  0  0  0  0
   -8.2370   -9.7190    2.3500 N   0  0  0  0  0  0  0  0  0  0  0  0
   -7.4900   -9.4930    3.8030 S   0  0  0  0  0  0  0  0  0  0  0  0
   -8.1430  -10.2260    4.8720 O   0  0  0  0  0  0  0  0  0  0  0  0
   -6.0990   -9.9560    3.6510 O   0  0  0  0  0  0  0  0  0  0  0  0
   -7.4290   -7.7960    4.2970 C   0  0  0  0  0  0  0  0  0  0  0  0
   -6.5950   -6.6600    3.4740 S   0  0  0  0  0  0  0  0  0  0  0  0
   -6.8950   -5.3640    4.4210 C   0  0  0  0  0  0  0  0  0  0  0  0
   -7.7190   -5.7470    5.5150 C   0  0  0  0  0  0  0  0  0  0  0  0
   -8.0450   -7.2060    5.4670 C   0  0  0  0  0  0  0  0  0  0  0  0
   -0.1059   -5.3814   -2.0278 H   0  0  0  0  0  0  0  0  0  0  0  0
   -0.0406   -6.8025   -0.8873 H   0  0  0  0  0  0  0  0  0  0  0  0
    2.1539   -6.1359   -1.1028 H   0  0  0  0  0  0  0  0  0  0  0  0
    1.9665   -5.8750   -2.9006 H   0  0  0  0  0  0  0  0  0  0  0  0
    3.0060   -8.0895   -1.5875 H   0  0  0  0  0  0  0  0  0  0  0  0
    2.5161   -7.8671   -3.3631 H   0  0  0  0  0  0  0  0  0  0  0  0
    1.1540   -9.3086   -1.1595 H   0  0  0  0  0  0  0  0  0  0  0  0
    1.5862   -9.7727   -2.9055 H   0  0  0  0  0  0  0  0  0  0  0  0
   -0.8840   -9.1269   -1.9227 H   0  0  0  0  0  0  0  0  0  0  0  0
   -0.2878   -9.2055   -3.6623 H   0  0  0  0  0  0  0  0  0  0  0  0
   -0.1768   -6.9883   -3.8886 H   0  0  0  0  0  0  0  0  0  0  0  0
   -2.1926   -5.9880   -2.6225 H   0  0  0  0  0  0  0  0  0  0  0  0
   -2.4195   -7.3311   -3.8231 H   0  0  0  0  0  0  0  0  0  0  0  0
   -2.6071   -8.9366   -2.1073 H   0  0  0  0  0  0  0  0  0  0  0  0
   -2.1571   -7.7011   -0.8520 H   0  0  0  0  0  0  0  0  0  0  0  0
   -4.2414   -8.8867   -0.0505 H   0  0  0  0  0  0  0  0  0  0  0  0
   -5.8619   -9.6080    1.2487 H   0  0  0  0  0  0  0  0  0  0  0  0
   -6.7240   -6.4715   -1.5741 H   0  0  0  0  0  0  0  0  0  0  0  0
   -8.0509   -4.9887   -2.3627 H   0  0  0  0  0  0  0  0  0  0  0  0
  -11.0796   -6.6952    0.1532 H   0  0  0  0  0  0  0  0  0  0  0  0
   -9.8065   -7.9079    1.0875 H   0  0  0  0  0  0  0  0  0  0  0  0
   -8.9416  -10.4595    2.2236 H   0  0  0  0  0  0  0  0  0  0  0  0
   -6.5165   -4.3472    4.2399 H   0  0  0  0  0  0  0  0  0  0  0  0
   -8.0716   -5.0581    6.2968 H   0  0  0  0  0  0  0  0  0  0  0  0
   -8.6567   -7.7460    6.2047 H   0  0  0  0  0  0  0  0  0  0  0  0
  6  7  1  0
  6  5  1  0
  6  1  1  0
  7  8  1  0
  5  4  1  0
 10  9  2  0
  3  4  1  0
  3  2  1  0
 18 17  1  0
 18 19  1  0
  2  1  1  0
 17 16  2  0
  8  9  1  0
  9 11  1  0
 19 20  2  0
 19 21  1  0
 16 21  1  0
 16 15  1  0
 14 15  2  0
 14 12  1  0
 11 12  1  0
 15 22  1  0
 12 13  2  0
 22 23  2  0
 13 23  1  0
 23 24  1  0
 24 25  1  0
 29 28  1  0
 29 30  1  0
 27 25  2  0
 25 28  1  0
 25 26  2  0
 28 32  2  0
 30 31  2  0
 32 31  1  0
  1 33  1  0
  1 34  1  0
  2 35  1  0
  2 36  1  0
  3 37  1  0
  3 38  1  0
  4 39  1  0
  4 40  1  0
  5 41  1  0
  5 42  1  0
  6 43  1  0
  7 44  1  0
  7 45  1  0
  8 46  1  0
  8 47  1  0
 11 48  1  0
 13 49  1  0
 14 50  1  0
 17 51  1  0
 21 52  1  0
 22 53  1  0
 24 54  1  0
 30 55  1  0
 31 56  1  0
 32 57  1  0
A    1
CAP
A    2
CAM
A    3
CAL
A    4
CAN
A    5
CAQ
A    6
CBE
A    7
CAR
A    8
CAO
A    9
CAX
A   10
OAA
A   11
NAS
A   12
CAY
A   13
CAI
A   14
CAJ
A   15
CBA
A   16
CBB
A   17
CAH
A   18
SAW
A   19
CBD
A   20
OAB
A   21
NAU
A   22
CAK
A   23
CAZ
A   24
NAT
A   25
SBF
A   26
OAC
A   27
OAD
A   28
CBC
A   29
SAV
A   30
CAF
A   31
CAE
A   32
CAG
M  END
