4HXW_1A0_A_301
     RDKit          3D

 48 52  0  0  0  0  0  0  0  0999 V2000
  -10.2520   -2.0580  -11.6330 Cl  0  0  0  0  0  0  0  0  0  0  0  0
  -11.4390   -3.2190  -12.3830 C   0  0  0  0  0  0  0  0  0  0  0  0
  -12.8360   -3.2850  -11.9440 C   0  0  0  0  0  0  0  0  0  0  0  0
  -13.5160   -2.3860  -10.9470 C   0  0  0  0  0  0  0  0  0  0  0  0
  -14.5220   -3.1800  -10.1330 C   0  0  0  0  0  0  0  0  0  0  0  0
  -13.3700   -4.3050  -12.6490 N   0  0  0  0  0  0  0  0  0  0  0  0
  -11.1370   -4.2570  -13.3710 C   0  0  0  0  0  0  0  0  0  0  0  0
  -10.0280   -4.8160  -14.2030 C   0  0  0  0  0  0  0  0  0  0  0  0
   -8.7430   -4.2900  -14.3300 N   0  0  0  0  0  0  0  0  0  0  0  0
   -8.4080   -2.9320  -13.9180 C   0  0  0  0  0  0  0  0  0  0  0  0
   -7.4600   -2.5140  -15.0450 C   0  0  0  0  0  0  0  0  0  0  0  0
   -8.2050   -1.8840  -16.1230 N   0  0  0  0  0  0  0  0  0  0  0  0
   -6.8560   -3.8070  -15.5810 C   0  0  0  0  0  0  0  0  0  0  0  0
   -7.7370   -4.9760  -15.1360 C   0  0  0  0  0  0  0  0  0  0  0  0
  -10.3350   -5.8590  -14.9960 N   0  0  0  0  0  0  0  0  0  0  0  0
  -11.5680   -6.4050  -15.0230 C   0  0  0  0  0  0  0  0  0  0  0  0
  -12.6020   -5.9440  -14.3050 N   0  0  0  0  0  0  0  0  0  0  0  0
  -12.4680   -4.9010  -13.4590 C   0  0  0  0  0  0  0  0  0  0  0  0
  -11.8630   -7.7780  -15.9510 S   0  0  0  0  0  0  0  0  0  0  0  0
  -10.6030   -8.1070  -17.0530 C   0  0  0  0  0  0  0  0  0  0  0  0
   -9.9860   -7.0450  -17.7180 C   0  0  0  0  0  0  0  0  0  0  0  0
   -9.0010   -7.2200  -18.6120 N   0  0  0  0  0  0  0  0  0  0  0  0
   -8.5770   -8.4700  -18.9000 C   0  0  0  0  0  0  0  0  0  0  0  0
   -7.5850   -8.6720  -19.8070 N   0  0  0  0  0  0  0  0  0  0  0  0
   -7.1730   -9.9130  -20.0790 C   0  0  0  0  0  0  0  0  0  0  0  0
   -7.7580  -11.0140  -19.4530 C   0  0  0  0  0  0  0  0  0  0  0  0
   -8.7450  -10.8690  -18.5510 N   0  0  0  0  0  0  0  0  0  0  0  0
   -9.1980   -9.6380  -18.2290 C   0  0  0  0  0  0  0  0  0  0  0  0
  -10.2230   -9.4300  -17.3010 C   0  0  0  0  0  0  0  0  0  0  0  0
  -12.7620   -1.9537  -10.2728 H   0  0  0  0  0  0  0  0  0  0  0  0
  -14.0405   -1.5823  -11.4846 H   0  0  0  0  0  0  0  0  0  0  0  0
  -14.3285   -3.0273   -9.0610 H   0  0  0  0  0  0  0  0  0  0  0  0
  -15.5396   -2.8390  -10.3741 H   0  0  0  0  0  0  0  0  0  0  0  0
  -14.4267   -4.2490  -10.3741 H   0  0  0  0  0  0  0  0  0  0  0  0
  -14.3553   -4.5963  -12.5773 H   0  0  0  0  0  0  0  0  0  0  0  0
   -7.9046   -2.9185  -12.9401 H   0  0  0  0  0  0  0  0  0  0  0  0
   -9.2763   -2.2699  -13.7851 H   0  0  0  0  0  0  0  0  0  0  0  0
   -6.7028   -1.8057  -14.6776 H   0  0  0  0  0  0  0  0  0  0  0  0
   -8.9307   -1.2703  -15.7259 H   0  0  0  0  0  0  0  0  0  0  0  0
   -7.5630   -1.3255  -16.7034 H   0  0  0  0  0  0  0  0  0  0  0  0
   -5.8394   -3.9353  -15.1809 H   0  0  0  0  0  0  0  0  0  0  0  0
   -6.8037   -3.7714  -16.6792 H   0  0  0  0  0  0  0  0  0  0  0  0
   -8.1920   -5.4872  -15.9972 H   0  0  0  0  0  0  0  0  0  0  0  0
   -7.1947   -5.7680  -14.5987 H   0  0  0  0  0  0  0  0  0  0  0  0
  -10.3222   -6.0207  -17.4993 H   0  0  0  0  0  0  0  0  0  0  0  0
   -6.3622  -10.0690  -20.8058 H   0  0  0  0  0  0  0  0  0  0  0  0
   -7.4035  -12.0248  -19.7031 H   0  0  0  0  0  0  0  0  0  0  0  0
  -10.7103  -10.2719  -16.7873 H   0  0  0  0  0  0  0  0  0  0  0  0
 25 24  1  0
 25 26  2  0
 24 23  2  0
 26 27  1  0
 23 22  1  0
 23 28  1  0
 22 21  2  0
 27 28  2  0
 28 29  1  0
 21 20  1  0
 29 20  2  0
 20 19  1  0
 12 11  1  0
 19 16  1  0
 13 14  1  0
 13 11  1  0
 14  9  1  0
 11 10  1  0
 16 15  2  0
 16 17  1  0
 15  8  1  0
  9  8  1  0
  9 10  1  0
 17 18  2  0
  8  7  2  0
 18  7  1  0
 18  6  1  0
  7  2  1  0
  6  3  1  0
  2  3  2  0
  2  1  1  0
  3  4  1  0
  4  5  1  0
  4 30  1  0
  4 31  1  0
  5 32  1  0
  5 33  1  0
  5 34  1  0
  6 35  1  0
 10 36  1  0
 10 37  1  0
 11 38  1  0
 12 39  1  0
 12 40  1  0
 13 41  1  0
 13 42  1  0
 14 43  1  0
 14 44  1  0
 21 45  1  0
 25 46  1  0
 26 47  1  0
 29 48  1  0
A    1
CL1
A    2
C4
A    3
C5
A    4
C6
A    5
C7
A    6
N1
A    7
C3
A    8
C8
A    9
N13
A   10
C17
A   11
C16
A   12
N18
A   13
C15
A   14
C14
A   15
N9
A   16
C10
A   17
N11
A   18
C2
A   19
S19
A   20
C20
A   21
C25
A   22
N24
A   23
C23
A   24
N26
A   25
C27
A   26
C28
A   27
N29
A   28
C22
A   29
C21
M  END
