4HXX_1AY_A_405
     RDKit          3D

 64 67  0  0  0  0  0  0  0  0999 V2000
   21.7270   19.6010   13.3120 C   0  0  0  0  0  0  0  0  0  0  0  0
   22.3000   18.4380   13.7950 C   0  0  0  0  0  0  0  0  0  0  0  0
   22.9610   17.6100   12.8970 C   0  0  0  0  0  0  0  0  0  0  0  0
   21.0540   20.4480   14.1730 C   0  0  0  0  0  0  0  0  0  0  0  0
   21.8100   19.9120   11.9780 N   0  0  0  0  0  0  0  0  0  0  0  0
   23.8690   16.9080   10.4060 Cl  0  0  0  0  0  0  0  0  0  0  0  0
   23.0040   17.9500   11.5500 C   0  0  0  0  0  0  0  0  0  0  0  0
   22.4320   19.1140   11.0940 C   0  0  0  0  0  0  0  0  0  0  0  0
   20.4930   21.5590   13.6490 N   0  0  0  0  0  0  0  0  0  0  0  0
   19.8320   22.4490   14.4130 C   0  0  0  0  0  0  0  0  0  0  0  0
   19.2240   23.6970   13.7940 C   0  0  0  0  0  0  0  0  0  0  0  0
   20.9850   20.1900   15.5090 N   0  0  0  0  0  0  0  0  0  0  0  0
   20.3220   21.0570   16.3310 C   0  0  0  0  0  0  0  0  0  0  0  0
   19.7480   22.2000   15.7740 C   0  0  0  0  0  0  0  0  0  0  0  0
   18.8980   23.4180   16.7690 Cl  0  0  0  0  0  0  0  0  0  0  0  0
   20.2330   20.8130   17.6690 N   0  0  0  0  0  0  0  0  0  0  0  0
   20.7970   19.6220   18.3230 C   0  0  0  0  0  0  0  0  0  0  0  0
   20.6710   19.8380   19.8480 C   0  0  0  0  0  0  0  0  0  0  0  0
   19.3170   19.5280   20.4320 C   0  0  0  0  0  0  0  0  0  0  0  0
   18.2690   20.4670   20.3840 C   0  0  0  0  0  0  0  0  0  0  0  0
   17.0140   20.1690   20.9390 C   0  0  0  0  0  0  0  0  0  0  0  0
   16.7900   18.9330   21.5620 C   0  0  0  0  0  0  0  0  0  0  0  0
   17.8260   17.9940   21.6270 C   0  0  0  0  0  0  0  0  0  0  0  0
   19.0790   18.2960   21.0710 C   0  0  0  0  0  0  0  0  0  0  0  0
   21.7670   19.6370   20.6510 N   0  0  0  0  0  0  0  0  0  0  0  0
   22.5530   20.7100   21.2610 C   0  0  0  0  0  0  0  0  0  0  0  0
   23.3170   20.2980   22.5250 C   0  0  0  0  0  0  0  0  0  0  0  0
   22.4290   19.7150   23.6320 C   0  0  0  0  0  0  0  0  0  0  0  0
   23.0390   18.4450   24.2360 C   0  0  0  0  0  0  0  0  0  0  0  0
   22.0260   17.3350   24.4770 C   0  0  0  0  0  0  0  0  0  0  0  0
   21.1880   16.8740   23.4470 C   0  0  0  0  0  0  0  0  0  0  0  0
   20.2640   15.8520   23.6870 C   0  0  0  0  0  0  0  0  0  0  0  0
   20.1760   15.2710   24.9570 C   0  0  0  0  0  0  0  0  0  0  0  0
   21.0120   15.7190   25.9880 C   0  0  0  0  0  0  0  0  0  0  0  0
   21.9380   16.7430   25.7420 C   0  0  0  0  0  0  0  0  0  0  0  0
   22.2338   18.1762   14.8613 H   0  0  0  0  0  0  0  0  0  0  0  0
   23.4483   16.6893   13.2502 H   0  0  0  0  0  0  0  0  0  0  0  0
   22.4824   19.3859   10.0293 H   0  0  0  0  0  0  0  0  0  0  0  0
   18.8924   24.3777   14.5919 H   0  0  0  0  0  0  0  0  0  0  0  0
   19.9772   24.2016   13.1711 H   0  0  0  0  0  0  0  0  0  0  0  0
   18.3624   23.4149   13.1711 H   0  0  0  0  0  0  0  0  0  0  0  0
   19.7424   21.5024   18.2563 H   0  0  0  0  0  0  0  0  0  0  0  0
   20.2364   18.7249   18.0214 H   0  0  0  0  0  0  0  0  0  0  0  0
   21.8484   19.4776   18.0337 H   0  0  0  0  0  0  0  0  0  0  0  0
   20.7136   20.9367   19.8806 H   0  0  0  0  0  0  0  0  0  0  0  0
   18.4350   21.4441   19.9068 H   0  0  0  0  0  0  0  0  0  0  0  0
   16.2022   20.9093   20.8847 H   0  0  0  0  0  0  0  0  0  0  0  0
   15.8062   18.7027   21.9970 H   0  0  0  0  0  0  0  0  0  0  0  0
   17.6586   17.0214   22.1128 H   0  0  0  0  0  0  0  0  0  0  0  0
   19.8904   17.5562   21.1357 H   0  0  0  0  0  0  0  0  0  0  0  0
   21.4341   19.0572   21.4345 H   0  0  0  0  0  0  0  0  0  0  0  0
   23.2828   21.0659   20.5189 H   0  0  0  0  0  0  0  0  0  0  0  0
   21.8373   21.4873   21.5671 H   0  0  0  0  0  0  0  0  0  0  0  0
   24.0634   19.5398   22.2457 H   0  0  0  0  0  0  0  0  0  0  0  0
   23.7723   21.2127   22.9325 H   0  0  0  0  0  0  0  0  0  0  0  0
   22.3099   20.4663   24.4266 H   0  0  0  0  0  0  0  0  0  0  0  0
   21.4566   19.4524   23.1899 H   0  0  0  0  0  0  0  0  0  0  0  0
   23.8097   18.0684   23.5473 H   0  0  0  0  0  0  0  0  0  0  0  0
   23.4522   18.7219   25.2171 H   0  0  0  0  0  0  0  0  0  0  0  0
   21.2595   17.3206   22.4443 H   0  0  0  0  0  0  0  0  0  0  0  0
   19.6059   15.5046   22.8769 H   0  0  0  0  0  0  0  0  0  0  0  0
   19.4521   14.4644   25.1453 H   0  0  0  0  0  0  0  0  0  0  0  0
   20.9422   15.2682   26.9890 H   0  0  0  0  0  0  0  0  0  0  0  0
   22.6012   17.0840   26.5507 H   0  0  0  0  0  0  0  0  0  0  0  0
  6  7  1  0
  8  7  2  0
  8  5  1  0
  7  3  1  0
  5  1  2  0
  3  2  2  0
  1  2  1  0
  1  4  1  0
  9  4  2  0
  9 10  1  0
 11 10  1  0
  4 12  1  0
 10 14  2  0
 12 13  2  0
 14 13  1  0
 14 15  1  0
 13 16  1  0
 16 17  1  0
 17 18  1  0
 18 19  1  0
 18 25  1  0
 20 19  2  0
 20 21  1  0
 19 24  1  0
 25 26  1  0
 21 22  2  0
 24 23  2  0
 26 27  1  0
 22 23  1  0
 27 28  1  0
 31 32  2  0
 31 30  1  0
 28 29  1  0
 32 33  1  0
 29 30  1  0
 30 35  2  0
 33 34  2  0
 35 34  1  0
  2 36  1  0
  3 37  1  0
  8 38  1  0
 11 39  1  0
 11 40  1  0
 11 41  1  0
 16 42  1  0
 17 43  1  0
 17 44  1  0
 18 45  1  0
 20 46  1  0
 21 47  1  0
 22 48  1  0
 23 49  1  0
 24 50  1  0
 25 51  1  0
 26 52  1  0
 26 53  1  0
 27 54  1  0
 27 55  1  0
 28 56  1  0
 28 57  1  0
 29 58  1  0
 29 59  1  0
 31 60  1  0
 32 61  1  0
 33 62  1  0
 34 63  1  0
 35 64  1  0
A    1
C3
A    2
C5
A    3
C6
A    4
C4
A    5
N2
A    6
CL8
A    7
C7
A    8
C1
A    9
N25
A   10
C23
A   11
C24
A   12
N9
A   13
C10
A   14
C21
A   15
CL2
A   16
N11
A   17
C12
A   18
C13
A   19
C14
A   20
C26
A   21
C27
A   22
C28
A   23
C29
A   24
C30
A   25
N15
A   26
C16
A   27
C17
A   28
C18
A   29
C19
A   30
C31
A   31
C36
A   32
C35
A   33
C34
A   34
C33
A   35
C32
M  END
