4HXZ_19Y_A_1401
     RDKit          3D

 36 38  0  0  0  0  0  0  0  0999 V2000
   15.1290  -36.5950    0.7120 O   0  0  0  0  0  0  0  0  0  0  0  0
   15.5690  -35.4540    0.8460 C   0  0  0  0  0  0  0  0  0  0  0  0
   14.6590  -34.2730    0.9490 C   0  0  0  0  0  0  0  0  0  0  0  0
   13.1870  -34.2060    0.9360 C   0  0  0  0  0  0  0  0  0  0  0  0
   12.2290  -35.3620    0.8170 C   0  0  0  0  0  0  0  0  0  0  0  0
   10.9600  -34.9380    0.1260 C   0  0  0  0  0  0  0  0  0  0  0  0
   15.1700  -32.8970    1.1020 C   0  0  0  0  0  0  0  0  0  0  0  0
   16.4690  -32.2010    1.1940 C   0  0  0  0  0  0  0  0  0  0  0  0
   17.6620  -32.8740    1.1460 O   0  0  0  0  0  0  0  0  0  0  0  0
   18.7380  -32.3440    1.9390 C   0  0  0  0  0  0  0  0  0  0  0  0
   16.4440  -30.8460    1.3400 N   0  0  0  0  0  0  0  0  0  0  0  0
   15.2970  -30.1030    1.3920 C   0  0  0  0  0  0  0  0  0  0  0  0
   14.0730  -30.7200    1.3130 N   0  0  0  0  0  0  0  0  0  0  0  0
   13.9470  -32.0680    1.1690 C   0  0  0  0  0  0  0  0  0  0  0  0
   12.8740  -32.8870    1.0730 N   0  0  0  0  0  0  0  0  0  0  0  0
   15.4430  -28.3950    1.5820 S   0  0  0  0  0  0  0  0  0  0  0  0
   17.0570  -28.0330    2.0300 C   0  0  0  0  0  0  0  0  0  0  0  0
   17.7570  -28.8550    2.9150 C   0  0  0  0  0  0  0  0  0  0  0  0
   19.0740  -28.5170    3.2370 C   0  0  0  0  0  0  0  0  0  0  0  0
   19.6830  -27.3870    2.6840 C   0  0  0  0  0  0  0  0  0  0  0  0
   19.0030  -26.6060    1.8300 N   0  0  0  0  0  0  0  0  0  0  0  0
   17.7290  -26.9110    1.5000 C   0  0  0  0  0  0  0  0  0  0  0  0
   16.6572  -35.2995    0.8910 H   0  0  0  0  0  0  0  0  0  0  0  0
   11.9847  -35.7326    1.8235 H   0  0  0  0  0  0  0  0  0  0  0  0
   12.7060  -36.1544    0.2216 H   0  0  0  0  0  0  0  0  0  0  0  0
   10.1996  -34.6839    0.8792 H   0  0  0  0  0  0  0  0  0  0  0  0
   11.1613  -34.0583   -0.5030 H   0  0  0  0  0  0  0  0  0  0  0  0
   10.5921  -35.7620   -0.5030 H   0  0  0  0  0  0  0  0  0  0  0  0
   18.4993  -32.4616    3.0063 H   0  0  0  0  0  0  0  0  0  0  0  0
   19.6658  -32.8882    1.7087 H   0  0  0  0  0  0  0  0  0  0  0  0
   18.8721  -31.2768    1.7087 H   0  0  0  0  0  0  0  0  0  0  0  0
   11.9037  -32.5427    1.1011 H   0  0  0  0  0  0  0  0  0  0  0  0
   17.2829  -29.7478    3.3487 H   0  0  0  0  0  0  0  0  0  0  0  0
   19.6401  -29.1498    3.9363 H   0  0  0  0  0  0  0  0  0  0  0  0
   20.7210  -27.1374    2.9490 H   0  0  0  0  0  0  0  0  0  0  0  0
   17.1954  -26.2603    0.7916 H   0  0  0  0  0  0  0  0  0  0  0  0
  6  5  1  0
  1  2  2  0
  5  4  1  0
  2  3  1  0
  4  3  2  0
  4 15  1  0
  3  7  1  0
 15 14  1  0
  7 14  2  0
  7  8  1  0
  9  8  1  0
  9 10  1  0
 14 13  1  0
  8 11  2  0
 13 12  2  0
 11 12  1  0
 12 16  1  0
 22 21  2  0
 22 17  1  0
 16 17  1  0
 21 20  1  0
 17 18  2  0
 20 19  2  0
 18 19  1  0
  2 23  1  0
  5 24  1  0
  5 25  1  0
  6 26  1  0
  6 27  1  0
  6 28  1  0
 10 29  1  0
 10 30  1  0
 10 31  1  0
 15 32  1  0
 18 33  1  0
 19 34  1  0
 20 35  1  0
 22 36  1  0
A    1
O20
A    2
C19
A    3
C5
A    4
C1
A    5
C21
A    6
C22
A    7
C4
A    8
C6
A    9
O17
A   10
C18
A   11
N7
A   12
C8
A   13
N9
A   14
C3
A   15
N2
A   16
S10
A   17
C11
A   18
C16
A   19
C15
A   20
C14
A   21
N13
A   22
C12
M  END
