4HY1_19X_A_1401
     RDKit          3D

 48 52  0  0  0  0  0  0  0  0999 V2000
    6.3450    0.7690  -16.4740 O   0  0  0  0  0  0  0  0  0  0  0  0
    5.9950    0.1290  -15.4050 C   0  0  0  0  0  0  0  0  0  0  0  0
    6.8420    0.2250  -14.2080 C   0  0  0  0  0  0  0  0  0  0  0  0
    7.9980    0.8980  -13.8910 C   0  0  0  0  0  0  0  0  0  0  0  0
    4.8920   -0.6610  -15.2490 N   0  0  0  0  0  0  0  0  0  0  0  0
    4.8810   -1.1760  -13.8540 C   0  0  0  0  0  0  0  0  0  0  0  0
    6.0970   -0.6130  -13.2650 C   0  0  0  0  0  0  0  0  0  0  0  0
    6.5800   -0.7570  -11.9760 C   0  0  0  0  0  0  0  0  0  0  0  0
    7.7890   -0.1010  -11.6700 C   0  0  0  0  0  0  0  0  0  0  0  0
    8.4670    0.7250  -12.5780 C   0  0  0  0  0  0  0  0  0  0  0  0
    9.9350    1.4790  -12.1750 S   0  0  0  0  0  0  0  0  0  0  0  0
    9.9650    1.9110  -10.5260 C   0  0  0  0  0  0  0  0  0  0  0  0
   11.1870    2.1850  -10.0260 N   0  0  0  0  0  0  0  0  0  0  0  0
   11.3350    2.6630   -8.7910 C   0  0  0  0  0  0  0  0  0  0  0  0
    8.8180    2.0220   -9.8440 N   0  0  0  0  0  0  0  0  0  0  0  0
    8.7810    2.4430   -8.5690 C   0  0  0  0  0  0  0  0  0  0  0  0
    7.5780    2.3260   -7.9160 N   0  0  0  0  0  0  0  0  0  0  0  0
    7.4690    2.2020   -6.4470 C   0  0  0  0  0  0  0  0  0  0  0  0
    6.3140    1.2200   -6.2490 C   0  0  0  0  0  0  0  0  0  0  0  0
    6.7730   -0.1890   -6.1170 N   0  0  0  0  0  0  0  0  0  0  0  0
    5.5230    1.3420   -7.5520 C   0  0  0  0  0  0  0  0  0  0  0  0
    6.3900    1.9410   -8.6530 C   0  0  0  0  0  0  0  0  0  0  0  0
   10.1020    2.7920   -7.9820 C   0  0  0  0  0  0  0  0  0  0  0  0
   10.7170    3.3170   -6.7770 C   0  0  0  0  0  0  0  0  0  0  0  0
    9.8360    3.9240   -5.3390 Cl  0  0  0  0  0  0  0  0  0  0  0  0
   12.1690    3.4810   -6.8740 C   0  0  0  0  0  0  0  0  0  0  0  0
   12.4370    3.0660   -8.1140 N   0  0  0  0  0  0  0  0  0  0  0  0
   13.1050    3.9350   -5.7600 C   0  0  0  0  0  0  0  0  0  0  0  0
   14.0900    4.9790   -6.2470 C   0  0  0  0  0  0  0  0  0  0  0  0
    8.5232    1.5326  -14.6201 H   0  0  0  0  0  0  0  0  0  0  0  0
    4.1341   -1.8274  -13.3766 H   0  0  0  0  0  0  0  0  0  0  0  0
    6.0446   -1.3561  -11.2248 H   0  0  0  0  0  0  0  0  0  0  0  0
    8.2225   -0.2440  -10.6692 H   0  0  0  0  0  0  0  0  0  0  0  0
    8.4000    1.8039   -6.0171 H   0  0  0  0  0  0  0  0  0  0  0  0
    7.2962    3.1680   -5.9501 H   0  0  0  0  0  0  0  0  0  0  0  0
    5.7524    1.4511   -5.3318 H   0  0  0  0  0  0  0  0  0  0  0  0
    6.8522   -0.4322   -5.1193 H   0  0  0  0  0  0  0  0  0  0  0  0
    6.0926   -0.8156   -6.5702 H   0  0  0  0  0  0  0  0  0  0  0  0
    4.6506    1.9911   -7.3857 H   0  0  0  0  0  0  0  0  0  0  0  0
    5.1975    0.3387   -7.8640 H   0  0  0  0  0  0  0  0  0  0  0  0
    5.9049    2.8133   -9.1153 H   0  0  0  0  0  0  0  0  0  0  0  0
    6.5868    1.2542   -9.4894 H   0  0  0  0  0  0  0  0  0  0  0  0
   13.3855    3.0534   -8.5154 H   0  0  0  0  0  0  0  0  0  0  0  0
   12.5057    4.3637   -4.9433 H   0  0  0  0  0  0  0  0  0  0  0  0
   13.6752    3.0606   -5.4131 H   0  0  0  0  0  0  0  0  0  0  0  0
   14.5570    5.4739   -5.3827 H   0  0  0  0  0  0  0  0  0  0  0  0
   14.8672    4.4940   -6.8559 H   0  0  0  0  0  0  0  0  0  0  0  0
   13.5607    5.7267   -6.8559 H   0  0  0  0  0  0  0  0  0  0  0  0
  1  2  2  0
  2  5  1  0
  2  3  1  0
  5  6  2  0
  3  4  1  0
  3  7  2  0
  4 10  2  0
  6  7  1  0
  7  8  1  0
 10 11  1  0
 10  9  1  0
 11 12  1  0
  8  9  2  0
 12 13  2  0
 12 15  1  0
 13 14  1  0
 15 16  2  0
 14 27  1  0
 14 23  2  0
 22 17  1  0
 22 21  1  0
 16 23  1  0
 16 17  1  0
 27 26  1  0
 23 24  1  0
 17 18  1  0
 21 19  1  0
 26 24  2  0
 26 28  1  0
 24 25  1  0
 18 19  1  0
 19 20  1  0
 29 28  1  0
  4 30  1  0
  6 31  1  0
  8 32  1  0
  9 33  1  0
 18 34  1  0
 18 35  1  0
 19 36  1  0
 20 37  1  0
 20 38  1  0
 21 39  1  0
 21 40  1  0
 22 41  1  0
 22 42  1  0
 27 43  1  0
 28 44  1  0
 28 45  1  0
 29 46  1  0
 29 47  1  0
 29 48  1  0
A    1
O29
A    2
C28
A    3
C22
A    4
C21
A    5
N27
A    6
C26
A    7
C23
A    8
C24
A    9
C25
A   10
C20
A   11
S19
A   12
C10
A   13
N11
A   14
C2
A   15
N9
A   16
C8
A   17
N13
A   18
C17
A   19
C16
A   20
N18
A   21
C15
A   22
C14
A   23
C3
A   24
C4
A   25
CL1
A   26
C5
A   27
N1
A   28
C6
A   29
C7
M  END
