4HY4_1BG_A_402
     RDKit          3D

 83 87  0  0  0  0  0  0  0  0999 V2000
   23.0060   -4.6830   -9.6420 N   0  0  0  0  0  0  0  0  0  0  0  0
   24.4500   -4.5360   -9.3930 C   0  0  0  0  0  0  0  0  0  0  0  0
   22.6160   -6.0490  -10.0410 C   0  0  0  0  0  0  0  0  0  0  0  0
   21.0900   -6.1960   -9.9970 C   0  0  0  0  0  0  0  0  0  0  0  0
   23.1040   -6.3560  -11.4330 C   0  0  0  0  0  0  0  0  0  0  0  0
   23.4170   -5.4390  -12.1780 O   0  0  0  0  0  0  0  0  0  0  0  0
   23.2020   -7.6530  -11.7760 N   0  0  0  0  0  0  0  0  0  0  0  0
   23.6430   -8.0910  -13.1150 C   0  0  0  0  0  0  0  0  0  0  0  0
   22.5430   -8.9690  -13.6820 C   0  0  0  0  0  0  0  0  0  0  0  0
   21.7110   -9.4540  -12.9200 O   0  0  0  0  0  0  0  0  0  0  0  0
   24.9740   -8.8740  -13.0600 C   0  0  0  0  0  0  0  0  0  0  0  0
   24.8230  -10.2130  -12.3080 C   0  0  0  0  0  0  0  0  0  0  0  0
   26.1630  -10.9650  -12.2280 C   0  0  0  0  0  0  0  0  0  0  0  0
   27.1990  -10.0520  -11.5750 C   0  0  0  0  0  0  0  0  0  0  0  0
   27.4120   -8.7920  -12.4230 C   0  0  0  0  0  0  0  0  0  0  0  0
   26.0910   -8.0110  -12.4420 C   0  0  0  0  0  0  0  0  0  0  0  0
   22.4860   -9.2290  -15.0130 N   0  0  0  0  0  0  0  0  0  0  0  0
   23.5460   -8.7630  -15.9540 C   0  0  0  0  0  0  0  0  0  0  0  0
   22.9340   -8.4860  -17.3150 C   0  0  0  0  0  0  0  0  0  0  0  0
   23.9490   -8.3130  -18.4460 C   0  0  0  0  0  0  0  0  0  0  0  0
   23.1000   -8.5750  -19.7130 C   0  0  0  0  0  0  0  0  0  0  0  0
   21.8510   -9.3310  -19.1900 C   0  0  0  0  0  0  0  0  0  0  0  0
   22.1650   -9.6680  -17.7820 N   0  0  0  0  0  0  0  0  0  0  0  0
   20.9950   -9.9020  -16.9530 C   0  0  0  0  0  0  0  0  0  0  0  0
   21.4480  -10.1490  -15.4810 C   0  0  0  0  0  0  0  0  0  0  0  0
   21.9500  -11.5540  -15.2250 C   0  0  0  0  0  0  0  0  0  0  0  0
   23.1370  -11.8080  -15.0190 O   0  0  0  0  0  0  0  0  0  0  0  0
   20.9970  -12.5070  -15.1740 N   0  0  0  0  0  0  0  0  0  0  0  0
   21.2820  -13.9160  -14.8930 C   0  0  0  0  0  0  0  0  0  0  0  0
   21.7370  -14.6430  -16.1710 C   0  0  0  0  0  0  0  0  0  0  0  0
   20.5390  -15.1450  -16.9800 C   0  0  0  0  0  0  0  0  0  0  0  0
   19.7640  -16.1770  -16.1430 C   0  0  0  0  0  0  0  0  0  0  0  0
   19.3520  -15.5670  -14.8110 C   0  0  0  0  0  0  0  0  0  0  0  0
   18.2380  -16.0930  -14.1550 C   0  0  0  0  0  0  0  0  0  0  0  0
   17.8210  -15.5670  -12.9410 C   0  0  0  0  0  0  0  0  0  0  0  0
   18.5230  -14.5010  -12.3800 C   0  0  0  0  0  0  0  0  0  0  0  0
   19.6350  -13.9820  -13.0230 C   0  0  0  0  0  0  0  0  0  0  0  0
   20.0650  -14.5250  -14.2370 C   0  0  0  0  0  0  0  0  0  0  0  0
   22.7368   -4.0336  -10.3948 H   0  0  0  0  0  0  0  0  0  0  0  0
   24.6351   -4.5172   -8.3088 H   0  0  0  0  0  0  0  0  0  0  0  0
   24.9877   -5.3840   -9.8421 H   0  0  0  0  0  0  0  0  0  0  0  0
   24.8058   -3.5970   -9.8421 H   0  0  0  0  0  0  0  0  0  0  0  0
   23.0756   -6.7564   -9.3351 H   0  0  0  0  0  0  0  0  0  0  0  0
   20.7548   -6.2283   -8.9498 H   0  0  0  0  0  0  0  0  0  0  0  0
   20.6242   -5.3386  -10.5048 H   0  0  0  0  0  0  0  0  0  0  0  0
   20.7965   -7.1266  -10.5048 H   0  0  0  0  0  0  0  0  0  0  0  0
   22.9597   -8.3691  -11.0765 H   0  0  0  0  0  0  0  0  0  0  0  0
   23.8241   -7.2111  -13.7498 H   0  0  0  0  0  0  0  0  0  0  0  0
   25.2583   -9.1156  -14.0948 H   0  0  0  0  0  0  0  0  0  0  0  0
   24.4636  -10.0123  -11.2879 H   0  0  0  0  0  0  0  0  0  0  0  0
   24.1058  -10.8403  -12.8576 H   0  0  0  0  0  0  0  0  0  0  0  0
   26.0404  -11.8766  -11.6247 H   0  0  0  0  0  0  0  0  0  0  0  0
   26.4954  -11.2467  -13.2380 H   0  0  0  0  0  0  0  0  0  0  0  0
   28.1525  -10.5929  -11.4838 H   0  0  0  0  0  0  0  0  0  0  0  0
   26.8360   -9.7551  -10.5800 H   0  0  0  0  0  0  0  0  0  0  0  0
   27.6948   -9.0740  -13.4479 H   0  0  0  0  0  0  0  0  0  0  0  0
   28.2175   -8.1747  -11.9986 H   0  0  0  0  0  0  0  0  0  0  0  0
   26.2175   -7.0967  -13.0404 H   0  0  0  0  0  0  0  0  0  0  0  0
   25.8136   -7.7480  -11.4106 H   0  0  0  0  0  0  0  0  0  0  0  0
   24.3171   -9.5415  -16.0511 H   0  0  0  0  0  0  0  0  0  0  0  0
   24.0006   -7.8405  -15.5637 H   0  0  0  0  0  0  0  0  0  0  0  0
   22.3513   -7.5680  -17.1483 H   0  0  0  0  0  0  0  0  0  0  0  0
   24.7669   -9.0434  -18.3593 H   0  0  0  0  0  0  0  0  0  0  0  0
   24.4372   -7.3273  -18.4455 H   0  0  0  0  0  0  0  0  0  0  0  0
   23.6560   -9.1931  -20.4333 H   0  0  0  0  0  0  0  0  0  0  0  0
   22.8377   -7.6467  -20.2416 H   0  0  0  0  0  0  0  0  0  0  0  0
   20.9600   -8.6882  -19.2437 H   0  0  0  0  0  0  0  0  0  0  0  0
   21.6310  -10.2270  -19.7889 H   0  0  0  0  0  0  0  0  0  0  0  0
   20.3352   -9.0227  -16.9919 H   0  0  0  0  0  0  0  0  0  0  0  0
   20.4504  -10.7828  -17.3239 H   0  0  0  0  0  0  0  0  0  0  0  0
   20.5193   -9.9741  -14.9180 H   0  0  0  0  0  0  0  0  0  0  0  0
   20.0191  -12.2299  -15.3411 H   0  0  0  0  0  0  0  0  0  0  0  0
   22.1228  -14.0192  -14.1913 H   0  0  0  0  0  0  0  0  0  0  0  0
   22.3654  -15.5012  -15.8909 H   0  0  0  0  0  0  0  0  0  0  0  0
   22.3031  -13.9332  -16.7920 H   0  0  0  0  0  0  0  0  0  0  0  0
   19.8796  -14.2994  -17.2251 H   0  0  0  0  0  0  0  0  0  0  0  0
   20.8903  -15.6120  -17.9119 H   0  0  0  0  0  0  0  0  0  0  0  0
   18.8646  -16.4902  -16.6934 H   0  0  0  0  0  0  0  0  0  0  0  0
   20.4104  -17.0472  -15.9559 H   0  0  0  0  0  0  0  0  0  0  0  0
   17.6861  -16.9317  -14.6044 H   0  0  0  0  0  0  0  0  0  0  0  0
   16.9446  -15.9870  -12.4257 H   0  0  0  0  0  0  0  0  0  0  0  0
   18.1927  -14.0704  -11.4232 H   0  0  0  0  0  0  0  0  0  0  0  0
   20.1820  -13.1387  -12.5761 H   0  0  0  0  0  0  0  0  0  0  0  0
 21 22  1  0
 21 20  1  0
 22 23  1  0
 20 19  1  0
 23 19  1  0
 23 24  1  0
 19 18  1  0
 31 30  1  0
 31 32  1  0
 24 25  1  0
 30 29  1  0
 32 33  1  0
 18 17  1  0
 25 26  1  0
 25 17  1  0
 26 28  1  0
 26 27  2  0
 28 29  1  0
 17  9  1  0
 29 38  1  0
 33 38  2  0
 33 34  1  0
 38 37  1  0
 34 35  2  0
  9  8  1  0
  9 10  2  0
  8 11  1  0
  8  7  1  0
 11 16  1  0
 11 12  1  0
 37 36  2  0
 35 36  1  0
 16 15  1  0
 15 14  1  0
 12 13  1  0
 13 14  1  0
  6  5  2  0
  7  5  1  0
  5  3  1  0
  3  4  1  0
  3  1  1  0
  1  2  1  0
  1 39  1  0
  2 40  1  0
  2 41  1  0
  2 42  1  0
  3 43  1  0
  4 44  1  0
  4 45  1  0
  4 46  1  0
  7 47  1  0
  8 48  1  0
 11 49  1  0
 12 50  1  0
 12 51  1  0
 13 52  1  0
 13 53  1  0
 14 54  1  0
 14 55  1  0
 15 56  1  0
 15 57  1  0
 16 58  1  0
 16 59  1  0
 18 60  1  0
 18 61  1  0
 19 62  1  0
 20 63  1  0
 20 64  1  0
 21 65  1  0
 21 66  1  0
 22 67  1  0
 22 68  1  0
 24 69  1  0
 24 70  1  0
 25 71  1  0
 28 72  1  0
 29 73  1  0
 30 74  1  0
 30 75  1  0
 31 76  1  0
 31 77  1  0
 32 78  1  0
 32 79  1  0
 34 80  1  0
 35 81  1  0
 36 82  1  0
 37 83  1  0
A    1
N2
A    2
C1
A    3
C3
A    4
C5
A    5
C6
A    6
O7
A    7
N8
A    8
C9
A    9
C17
A   10
O18
A   11
C11
A   12
C16
A   13
C15
A   14
C14
A   15
C13
A   16
C12
A   17
N19
A   18
C20
A   19
C21
A   20
C23
A   21
C24
A   22
C25
A   23
N26
A   24
C27
A   25
C28
A   26
C30
A   27
O31
A   28
N32
A   29
C33
A   30
C34
A   31
C35
A   32
C36
A   33
C37
A   34
C38
A   35
C39
A   36
C40
A   37
C41
A   38
C42
M  END
