4HYI_1AO_A_304
     RDKit          3D

 49 53  0  0  0  0  0  0  0  0999 V2000
   10.8900   -5.4550   14.4340 C   0  0  0  0  0  0  0  0  0  0  0  0
   10.1970   -4.4870   13.7040 C   0  0  0  0  0  0  0  0  0  0  0  0
   10.9360   -3.5690   12.9660 C   0  0  0  0  0  0  0  0  0  0  0  0
   12.3460   -3.6310   12.9630 C   0  0  0  0  0  0  0  0  0  0  0  0
   13.0620   -4.6060   13.6880 C   0  0  0  0  0  0  0  0  0  0  0  0
   12.2820   -5.5370   14.4440 C   0  0  0  0  0  0  0  0  0  0  0  0
   14.4650   -4.5870   13.7040 N   0  0  0  0  0  0  0  0  0  0  0  0
   15.1550   -5.8400   13.9340 C   0  0  0  0  0  0  0  0  0  0  0  0
   16.6750   -5.7070   13.9020 C   0  0  0  0  0  0  0  0  0  0  0  0
   17.1730   -4.6080   14.7990 N   0  0  0  0  0  0  0  0  0  0  0  0
   16.4340   -3.3820   14.5650 C   0  0  0  0  0  0  0  0  0  0  0  0
   14.9370   -3.4900   14.6590 C   0  0  0  0  0  0  0  0  0  0  0  0
   13.1320   -2.7800   12.1770 N   0  0  0  0  0  0  0  0  0  0  0  0
   12.7900   -1.5660   11.6460 C   0  0  0  0  0  0  0  0  0  0  0  0
   11.7540   -0.9360   11.8140 O   0  0  0  0  0  0  0  0  0  0  0  0
   13.8750   -1.0160   10.7870 C   0  0  0  0  0  0  0  0  0  0  0  0
   15.1080   -1.6190   10.6150 N   0  0  0  0  0  0  0  0  0  0  0  0
   15.8530   -0.8920    9.8010 C   0  0  0  0  0  0  0  0  0  0  0  0
   15.1500    0.5560    9.2660 S   0  0  0  0  0  0  0  0  0  0  0  0
   13.7240    0.1620   10.1160 C   0  0  0  0  0  0  0  0  0  0  0  0
   17.1410   -1.1660    9.5000 N   0  0  0  0  0  0  0  0  0  0  0  0
   17.8760   -0.2240    8.7740 N   0  0  0  0  0  0  0  0  0  0  0  0
   19.1030   -0.6580    8.7700 C   0  0  0  0  0  0  0  0  0  0  0  0
   19.2390   -1.8680    9.4960 C   0  0  0  0  0  0  0  0  0  0  0  0
   20.2520   -2.7440    9.7890 C   0  0  0  0  0  0  0  0  0  0  0  0
   20.0430   -3.8970   10.5690 C   0  0  0  0  0  0  0  0  0  0  0  0
   18.7400   -4.1680   11.0450 C   0  0  0  0  0  0  0  0  0  0  0  0
   17.6760   -3.3040   10.7670 C   0  0  0  0  0  0  0  0  0  0  0  0
   17.9630   -2.1690    9.9730 C   0  0  0  0  0  0  0  0  0  0  0  0
   10.3144   -6.1824   15.0252 H   0  0  0  0  0  0  0  0  0  0  0  0
    9.0976   -4.4517   13.7126 H   0  0  0  0  0  0  0  0  0  0  0  0
   10.4201   -2.7921   12.3827 H   0  0  0  0  0  0  0  0  0  0  0  0
   12.7814   -6.3192   15.0345 H   0  0  0  0  0  0  0  0  0  0  0  0
   14.8590   -6.2255   14.9208 H   0  0  0  0  0  0  0  0  0  0  0  0
   14.8705   -6.5227   13.1198 H   0  0  0  0  0  0  0  0  0  0  0  0
   17.1199   -6.6585   14.2287 H   0  0  0  0  0  0  0  0  0  0  0  0
   16.9683   -5.4578   12.8715 H   0  0  0  0  0  0  0  0  0  0  0  0
   17.0532   -4.8929   15.7815 H   0  0  0  0  0  0  0  0  0  0  0  0
   16.6835   -3.0255   13.5547 H   0  0  0  0  0  0  0  0  0  0  0  0
   16.7343   -2.6949   15.3698 H   0  0  0  0  0  0  0  0  0  0  0  0
   14.4780   -2.5309   14.3772 H   0  0  0  0  0  0  0  0  0  0  0  0
   14.6425   -3.7373   15.6896 H   0  0  0  0  0  0  0  0  0  0  0  0
   14.0866   -3.1085   11.9729 H   0  0  0  0  0  0  0  0  0  0  0  0
   12.8095    0.7733   10.1221 H   0  0  0  0  0  0  0  0  0  0  0  0
   19.9352   -0.1469    8.2637 H   0  0  0  0  0  0  0  0  0  0  0  0
   21.2611   -2.5392    9.4019 H   0  0  0  0  0  0  0  0  0  0  0  0
   20.8776   -4.5740   10.8036 H   0  0  0  0  0  0  0  0  0  0  0  0
   18.5599   -5.0730   11.6437 H   0  0  0  0  0  0  0  0  0  0  0  0
   16.6626   -3.4981   11.1482 H   0  0  0  0  0  0  0  0  0  0  0  0
 23 22  2  0
 23 24  1  0
 22 21  1  0
 19 18  1  0
 19 20  1  0
 24 25  2  0
 24 29  1  0
 21 18  1  0
 21 29  1  0
 25 26  1  0
 18 17  2  0
 29 28  2  0
 20 16  2  0
 26 27  2  0
 17 16  1  0
 28 27  1  0
 16 14  1  0
 14 15  2  0
 14 13  1  0
 13  4  1  0
  4  3  2  0
  4  5  1  0
  3  2  1  0
  5  7  1  0
  5  6  2  0
  7  8  1  0
  7 12  1  0
  2  1  2  0
  9  8  1  0
  9 10  1  0
  1  6  1  0
 11 12  1  0
 11 10  1  0
  1 30  1  0
  2 31  1  0
  3 32  1  0
  6 33  1  0
  8 34  1  0
  8 35  1  0
  9 36  1  0
  9 37  1  0
 10 38  1  0
 11 39  1  0
 11 40  1  0
 12 41  1  0
 12 42  1  0
 13 43  1  0
 20 44  1  0
 23 45  1  0
 25 46  1  0
 26 47  1  0
 27 48  1  0
 28 49  1  0
A    1
C01
A    2
C02
A    3
C03
A    4
C04
A    5
C05
A    6
C06
A    7
N07
A    8
C08
A    9
C09
A   10
N10
A   11
C11
A   12
C12
A   13
N13
A   14
C14
A   15
O15
A   16
C16
A   17
N17
A   18
C18
A   19
S19
A   20
C20
A   21
N21
A   22
N22
A   23
C23
A   24
C24
A   25
C25
A   26
C26
A   27
C27
A   28
C28
A   29
C29
M  END
