4HYP_1A1_A_301
     RDKit          3D

 39 43  0  0  0  0  0  0  0  0999 V2000
  -16.2790   -4.7150   -7.7780 O   0  0  0  0  0  0  0  0  0  0  0  0
  -15.4770   -3.8060   -7.6610 C   0  0  0  0  0  0  0  0  0  0  0  0
  -15.1180   -3.1580   -6.3300 C   0  0  0  0  0  0  0  0  0  0  0  0
  -16.3060   -2.8220   -5.4330 C   0  0  0  0  0  0  0  0  0  0  0  0
  -15.4450   -4.0400   -5.1310 C   0  0  0  0  0  0  0  0  0  0  0  0
  -14.8080   -3.2830   -8.6770 N   0  0  0  0  0  0  0  0  0  0  0  0
  -14.8150   -3.6760   -9.9760 C   0  0  0  0  0  0  0  0  0  0  0  0
  -14.3670   -2.7920  -10.9060 N   0  0  0  0  0  0  0  0  0  0  0  0
  -15.2440   -4.9120  -10.3240 N   0  0  0  0  0  0  0  0  0  0  0  0
  -15.2620   -5.3560  -11.6050 C   0  0  0  0  0  0  0  0  0  0  0  0
  -15.7080   -6.6050  -11.8280 N   0  0  0  0  0  0  0  0  0  0  0  0
  -15.3200   -7.3750  -12.8400 C   0  0  0  0  0  0  0  0  0  0  0  0
  -16.0100   -8.5560  -12.6350 C   0  0  0  0  0  0  0  0  0  0  0  0
  -16.7620   -8.4290  -11.5080 N   0  0  0  0  0  0  0  0  0  0  0  0
  -16.5710   -7.1950  -10.9920 C   0  0  0  0  0  0  0  0  0  0  0  0
  -14.7670   -4.4270  -12.6480 C   0  0  0  0  0  0  0  0  0  0  0  0
  -14.6330   -4.4790  -14.0000 N   0  0  0  0  0  0  0  0  0  0  0  0
  -14.1340   -3.3410  -14.5800 C   0  0  0  0  0  0  0  0  0  0  0  0
  -13.8010   -2.0870  -13.4270 S   0  0  0  0  0  0  0  0  0  0  0  0
  -14.3130   -3.1060  -12.1940 C   0  0  0  0  0  0  0  0  0  0  0  0
  -13.8780   -3.0200  -16.0030 C   0  0  0  0  0  0  0  0  0  0  0  0
  -13.6750   -1.7070  -16.4140 C   0  0  0  0  0  0  0  0  0  0  0  0
  -13.4770   -1.4390  -17.7130 N   0  0  0  0  0  0  0  0  0  0  0  0
  -13.4820   -2.4100  -18.6350 C   0  0  0  0  0  0  0  0  0  0  0  0
  -13.6910   -3.7270  -18.2740 C   0  0  0  0  0  0  0  0  0  0  0  0
  -13.9110   -4.0470  -16.9440 C   0  0  0  0  0  0  0  0  0  0  0  0
  -14.2410   -2.5984   -6.6874 H   0  0  0  0  0  0  0  0  0  0  0  0
  -16.2657   -1.9427   -4.7733 H   0  0  0  0  0  0  0  0  0  0  0  0
  -17.3801   -2.6500   -5.5967 H   0  0  0  0  0  0  0  0  0  0  0  0
  -15.8493   -5.0511   -5.2865 H   0  0  0  0  0  0  0  0  0  0  0  0
  -14.8855   -4.3980   -4.2541 H   0  0  0  0  0  0  0  0  0  0  0  0
  -14.2070   -2.4769   -8.4534 H   0  0  0  0  0  0  0  0  0  0  0  0
  -14.6163   -7.1305  -13.6493 H   0  0  0  0  0  0  0  0  0  0  0  0
  -15.9594   -9.4486  -13.2758 H   0  0  0  0  0  0  0  0  0  0  0  0
  -17.0247   -6.7691  -10.0849 H   0  0  0  0  0  0  0  0  0  0  0  0
  -13.6768   -0.8912  -15.6762 H   0  0  0  0  0  0  0  0  0  0  0  0
  -13.3177   -2.1560  -19.6926 H   0  0  0  0  0  0  0  0  0  0  0  0
  -13.6828   -4.5177  -19.0387 H   0  0  0  0  0  0  0  0  0  0  0  0
  -14.1067   -5.0855  -16.6387 H   0  0  0  0  0  0  0  0  0  0  0  0
 24 25  2  0
 24 23  1  0
 25 26  1  0
 23 22  2  0
 26 21  2  0
 22 21  1  0
 21 18  1  0
 18 17  2  0
 18 19  1  0
 17 16  1  0
 19 20  1  0
 12 13  2  0
 12 11  1  0
 16 20  1  0
 16 10  2  0
 13 14  1  0
 20  8  2  0
 11 10  1  0
 11 15  1  0
 10  9  1  0
 14 15  2  0
  8  7  1  0
  9  7  2  0
  7  6  1  0
  6  2  1  0
  1  2  2  0
  2  3  1  0
  3  4  1  0
  3  5  1  0
  4  5  1  0
  3 27  1  0
  4 28  1  0
  4 29  1  0
  5 30  1  0
  5 31  1  0
  6 32  1  0
 12 33  1  0
 13 34  1  0
 15 35  1  0
 22 36  1  0
 24 37  1  0
 25 38  1  0
 26 39  1  0
A    1
O9
A    2
C8
A    3
C10
A    4
C12
A    5
C11
A    6
N7
A    7
C6
A    8
N1
A    9
N5
A   10
C4
A   11
N22
A   12
C26
A   13
C25
A   14
N24
A   15
C23
A   16
C3
A   17
N13
A   18
C14
A   19
S15
A   20
C2
A   21
C16
A   22
C21
A   23
N20
A   24
C19
A   25
C18
A   26
C17
M  END
