4HYS_1BJ_A_401
     RDKit          3D

 42 45  0  0  0  0  0  0  0  0999 V2000
   -2.1330   -2.2240   10.3770 N   0  0  0  0  0  0  0  0  0  0  0  0
   -2.8040   -1.1460   10.7660 C   0  0  0  0  0  0  0  0  0  0  0  0
   -2.5090   -0.5690   11.9330 N   0  0  0  0  0  0  0  0  0  0  0  0
   -1.1550   -2.7350   11.1330 C   0  0  0  0  0  0  0  0  0  0  0  0
   -0.8190   -2.1630   12.3390 C   0  0  0  0  0  0  0  0  0  0  0  0
   -1.5280   -1.0270   12.7180 C   0  0  0  0  0  0  0  0  0  0  0  0
   -1.2380   -0.4240   13.9400 N   0  0  0  0  0  0  0  0  0  0  0  0
   -3.8280   -0.6430    9.9570 N   0  0  0  0  0  0  0  0  0  0  0  0
   -4.8260    0.2840   10.5240 C   0  0  0  0  0  0  0  0  0  0  0  0
   -5.8390   -0.4900   11.3800 C   0  0  0  0  0  0  0  0  0  0  0  0
   -6.8740    0.4370   12.0280 C   0  0  0  0  0  0  0  0  0  0  0  0
   -7.5610    1.2990   10.9600 C   0  0  0  0  0  0  0  0  0  0  0  0
   -6.5400    2.0580   10.0820 C   0  0  0  0  0  0  0  0  0  0  0  0
   -5.5430    1.0890    9.4250 C   0  0  0  0  0  0  0  0  0  0  0  0
   -8.3840    2.2490   11.6370 O   0  0  0  0  0  0  0  0  0  0  0  0
   -0.2820   -0.1860   15.9160 C   0  0  0  0  0  0  0  0  0  0  0  0
   -0.3190   -0.9390   14.8590 N   0  0  0  0  0  0  0  0  0  0  0  0
   -1.2390    0.8980   15.7250 C   0  0  0  0  0  0  0  0  0  0  0  0
   -1.8210    0.7030   14.4610 C   0  0  0  0  0  0  0  0  0  0  0  0
   -2.7820    1.6050   13.9980 C   0  0  0  0  0  0  0  0  0  0  0  0
   -3.1470    2.6660   14.7970 C   0  0  0  0  0  0  0  0  0  0  0  0
   -2.5670    2.8530   16.0450 C   0  0  0  0  0  0  0  0  0  0  0  0
   -1.6220    1.9900   16.5180 C   0  0  0  0  0  0  0  0  0  0  0  0
   -0.6110   -3.6258   10.7857 H   0  0  0  0  0  0  0  0  0  0  0  0
   -0.0262   -2.5846   12.9743 H   0  0  0  0  0  0  0  0  0  0  0  0
   -3.8854   -0.9194    8.9664 H   0  0  0  0  0  0  0  0  0  0  0  0
   -4.2951    1.0046   11.1634 H   0  0  0  0  0  0  0  0  0  0  0  0
   -6.3635   -1.2149   10.7401 H   0  0  0  0  0  0  0  0  0  0  0  0
   -5.2858   -0.9954   12.1853 H   0  0  0  0  0  0  0  0  0  0  0  0
   -6.3701    1.0921   12.7538 H   0  0  0  0  0  0  0  0  0  0  0  0
   -7.6336   -0.1752   12.5362 H   0  0  0  0  0  0  0  0  0  0  0  0
   -8.1461    0.6444   10.2974 H   0  0  0  0  0  0  0  0  0  0  0  0
   -5.9863    2.7710   10.7105 H   0  0  0  0  0  0  0  0  0  0  0  0
   -7.0880    2.5857    9.2875 H   0  0  0  0  0  0  0  0  0  0  0  0
   -6.0828    0.4014    8.7573 H   0  0  0  0  0  0  0  0  0  0  0  0
   -4.8048    1.6567    8.8395 H   0  0  0  0  0  0  0  0  0  0  0  0
   -8.2844    2.1341   12.6152 H   0  0  0  0  0  0  0  0  0  0  0  0
    0.3571   -0.3384   16.7982 H   0  0  0  0  0  0  0  0  0  0  0  0
   -3.2415    1.4697   13.0078 H   0  0  0  0  0  0  0  0  0  0  0  0
   -3.9088    3.3754   14.4415 H   0  0  0  0  0  0  0  0  0  0  0  0
   -2.8743    3.7104   16.6618 H   0  0  0  0  0  0  0  0  0  0  0  0
   -1.1670    2.1482   17.5069 H   0  0  0  0  0  0  0  0  0  0  0  0
 14 13  1  0
 14  9  1  0
  8  9  1  0
  8  2  1  0
 13 12  1  0
  1  2  2  0
  1  4  1  0
  9 10  1  0
  2  3  1  0
 12 15  1  0
 12 11  1  0
  4  5  2  0
 10 11  1  0
  3  6  2  0
  5  6  1  0
  6  7  1  0
  7 19  1  0
  7 17  1  0
 20 19  1  0
 20 21  2  0
 19 18  2  0
 21 22  1  0
 17 16  2  0
 18 16  1  0
 18 23  1  0
 22 23  2  0
  4 24  1  0
  5 25  1  0
  8 26  1  0
  9 27  1  0
 10 28  1  0
 10 29  1  0
 11 30  1  0
 11 31  1  0
 12 32  1  0
 13 33  1  0
 13 34  1  0
 14 35  1  0
 14 36  1  0
 15 37  1  0
 16 38  1  0
 20 39  1  0
 21 40  1  0
 22 41  1  0
 23 42  1  0
A    1
N1
A    2
C2
A    3
N3
A    4
C4
A    5
C5
A    6
C6
A    7
N7
A    8
N8
A    9
C9
A   10
C10
A   11
C11
A   12
C12
A   13
C13
A   14
C14
A   15
O15
A   16
C16
A   17
N17
A   18
C18
A   19
C19
A   20
C20
A   21
C21
A   22
C22
A   23
C23
M  END
