1IBG_OBN_H_1
     RDKit          3D

 85 90  0  0  0  0  0  0  0  0999 V2000
    6.9710   11.8370   41.9510 C   0  0  0  0  0  0  0  0  0  0  0  0
    5.9560   11.9670   43.0680 C   0  0  0  0  0  0  0  0  0  0  0  0
    5.4240   10.6210   43.5440 C   0  0  0  0  0  0  0  0  0  0  0  0
    5.0390    9.6940   42.3750 C   0  0  0  0  0  0  0  0  0  0  0  0
    5.9520    9.6640   41.1110 C   0  0  0  0  0  0  0  0  0  0  0  0
    5.2010    9.0170   39.9300 C   0  0  0  0  0  0  0  0  0  0  0  0
    3.8690    9.7320   39.7060 C   0  0  0  0  0  0  0  0  0  0  0  0
    4.1560   11.1360   39.2150 C   0  0  0  0  0  0  0  0  0  0  0  0
    4.9770   11.9610   40.2210 C   0  0  0  0  0  0  0  0  0  0  0  0
    6.3030   11.1670   40.6900 C   0  0  0  0  0  0  0  0  0  0  0  0
    5.1370   13.4020   39.6330 C   0  0  0  0  0  0  0  0  0  0  0  0
    3.8190   14.0640   39.2490 C   0  0  0  0  0  0  0  0  0  0  0  0
    3.0650   13.3000   38.1650 C   0  0  0  0  0  0  0  0  0  0  0  0
    2.9000   11.8250   38.6330 C   0  0  0  0  0  0  0  0  0  0  0  0
    1.7050   11.9330   39.5610 C   0  0  0  0  0  0  0  0  0  0  0  0
    0.8730   13.1380   39.1160 C   0  0  0  0  0  0  0  0  0  0  0  0
    1.6480   13.8700   38.0430 C   0  0  0  0  0  0  0  0  0  0  0  0
    3.8590   13.4120   36.8630 C   0  0  0  0  0  0  0  0  0  0  0  0
    7.3710   11.0370   39.5680 C   0  0  0  0  0  0  0  0  0  0  0  0
    0.9680   13.8470   36.6910 C   0  0  0  0  0  0  0  0  0  0  0  0
    0.9090   15.0200   35.7670 C   0  0  0  0  0  0  0  0  0  0  0  0
    0.2770   12.8560   36.0790 C   0  0  0  0  0  0  0  0  0  0  0  0
   -0.3010   13.3270   34.8260 C   0  0  0  0  0  0  0  0  0  0  0  0
    5.7480    8.9910   45.3530 C   0  0  0  0  0  0  0  0  0  0  0  0
    6.9180    8.3560   46.1130 C   0  0  0  0  0  0  0  0  0  0  0  0
    7.6650    9.4740   46.8850 C   0  0  0  0  0  0  0  0  0  0  0  0
    6.7460   10.1000   47.9390 C   0  0  0  0  0  0  0  0  0  0  0  0
    5.3560   10.4590   47.3760 C   0  0  0  0  0  0  0  0  0  0  0  0
    4.3480   10.5060   48.5180 C   0  0  0  0  0  0  0  0  0  0  0  0
    8.1270   11.0920   42.3910 O   0  0  0  0  0  0  0  0  0  0  0  0
    6.2900   10.0080   44.4710 O   0  0  0  0  0  0  0  0  0  0  0  0
    7.1160    8.8120   41.3820 O   0  0  0  0  0  0  0  0  0  0  0  0
    5.8710   14.3020   40.4540 O   0  0  0  0  0  0  0  0  0  0  0  0
    2.4330   11.0510   37.5190 O   0  0  0  0  0  0  0  0  0  0  0  0
    8.2330   12.1910   39.4660 O   0  0  0  0  0  0  0  0  0  0  0  0
    0.0120   14.6140   34.6910 O   0  0  0  0  0  0  0  0  0  0  0  0
   -1.0190   12.7690   33.9960 O   0  0  0  0  0  0  0  0  0  0  0  0
    6.3600    7.3530   46.9950 O   0  0  0  0  0  0  0  0  0  0  0  0
    8.9210    9.0670   47.4780 O   0  0  0  0  0  0  0  0  0  0  0  0
    7.3720   11.3310   48.3140 O   0  0  0  0  0  0  0  0  0  0  0  0
    4.8580    9.4940   46.3940 O   0  0  0  0  0  0  0  0  0  0  0  0
    7.3156   12.8421   41.6663 H   0  0  0  0  0  0  0  0  0  0  0  0
    6.4328   12.4767   43.9182 H   0  0  0  0  0  0  0  0  0  0  0  0
    5.1029   12.5391   42.6745 H   0  0  0  0  0  0  0  0  0  0  0  0
    4.4879   10.8220   44.0857 H   0  0  0  0  0  0  0  0  0  0  0  0
    5.0031    8.6691   42.7728 H   0  0  0  0  0  0  0  0  0  0  0  0
    4.0882   10.1078   42.0079 H   0  0  0  0  0  0  0  0  0  0  0  0
    5.8147    9.0957   39.0205 H   0  0  0  0  0  0  0  0  0  0  0  0
    5.0096    7.9583   40.1590 H   0  0  0  0  0  0  0  0  0  0  0  0
    3.2779    9.1890   38.9538 H   0  0  0  0  0  0  0  0  0  0  0  0
    3.2979    9.7697   40.6454 H   0  0  0  0  0  0  0  0  0  0  0  0
    4.8297   11.0568   38.3490 H   0  0  0  0  0  0  0  0  0  0  0  0
    4.4684   12.1005   41.1863 H   0  0  0  0  0  0  0  0  0  0  0  0
    5.7231   13.2121   38.7217 H   0  0  0  0  0  0  0  0  0  0  0  0
    3.1822   14.1236   40.1440 H   0  0  0  0  0  0  0  0  0  0  0  0
    4.0547   15.0606   38.8474 H   0  0  0  0  0  0  0  0  0  0  0  0
    1.0993   11.0169   39.4989 H   0  0  0  0  0  0  0  0  0  0  0  0
    2.0376   12.0596   40.6018 H   0  0  0  0  0  0  0  0  0  0  0  0
   -0.0919   12.7970   38.7127 H   0  0  0  0  0  0  0  0  0  0  0  0
    0.6787   13.8045   39.9693 H   0  0  0  0  0  0  0  0  0  0  0  0
    1.6942   14.9612   38.1736 H   0  0  0  0  0  0  0  0  0  0  0  0
    4.9238   13.5622   37.0946 H   0  0  0  0  0  0  0  0  0  0  0  0
    3.7376   12.4878   36.2789 H   0  0  0  0  0  0  0  0  0  0  0  0
    3.4867   14.2665   36.2789 H   0  0  0  0  0  0  0  0  0  0  0  0
    7.9925   10.1540   39.7777 H   0  0  0  0  0  0  0  0  0  0  0  0
    6.8323   10.9462   38.6132 H   0  0  0  0  0  0  0  0  0  0  0  0
    0.5107   15.9026   36.2889 H   0  0  0  0  0  0  0  0  0  0  0  0
    1.9045   15.2971   35.3900 H   0  0  0  0  0  0  0  0  0  0  0  0
    0.1668   11.8351   36.4734 H   0  0  0  0  0  0  0  0  0  0  0  0
    5.1792    8.3093   44.7035 H   0  0  0  0  0  0  0  0  0  0  0  0
    7.6464    7.8728   45.4452 H   0  0  0  0  0  0  0  0  0  0  0  0
    7.9352   10.2242   46.1272 H   0  0  0  0  0  0  0  0  0  0  0  0
    6.6043    9.3862   48.7639 H   0  0  0  0  0  0  0  0  0  0  0  0
    5.4692   11.4316   46.8748 H   0  0  0  0  0  0  0  0  0  0  0  0
    4.8818   10.4811   49.4795 H   0  0  0  0  0  0  0  0  0  0  0  0
    3.7591   11.4326   48.4494 H   0  0  0  0  0  0  0  0  0  0  0  0
    3.6755    9.6382   48.4494 H   0  0  0  0  0  0  0  0  0  0  0  0
    8.1521   11.0758   43.3805 H   0  0  0  0  0  0  0  0  0  0  0  0
    7.2386    8.7222   42.3603 H   0  0  0  0  0  0  0  0  0  0  0  0
    5.7008   14.0933   41.4067 H   0  0  0  0  0  0  0  0  0  0  0  0
    1.9512   10.2524   37.8509 H   0  0  0  0  0  0  0  0  0  0  0  0
    8.4694   12.5075   40.3737 H   0  0  0  0  0  0  0  0  0  0  0  0
    6.5093    7.6213   47.9362 H   0  0  0  0  0  0  0  0  0  0  0  0
    8.8436    9.0921   48.4646 H   0  0  0  0  0  0  0  0  0  0  0  0
    7.4055   11.3968   49.3012 H   0  0  0  0  0  0  0  0  0  0  0  0
  1  2  1  0
  1 10  1  0
  1 30  1  0
  2  3  1  0
  3  4  1  0
  3 31  1  0
  4  5  1  0
  5  6  1  0
  5 10  1  0
  5 32  1  0
  6  7  1  0
  7  8  1  0
  8  9  1  0
  8 14  1  0
  9 10  1  0
  9 11  1  0
 10 19  1  0
 11 12  1  0
 11 33  1  0
 12 13  1  0
 13 14  1  0
 13 17  1  0
 13 18  1  0
 14 15  1  0
 14 34  1  0
 15 16  1  0
 16 17  1  0
 17 20  1  0
 19 35  1  0
 20 21  1  0
 20 22  2  0
 21 36  1  0
 22 23  1  0
 23 36  1  0
 23 37  2  0
 24 25  1  0
 24 31  1  0
 24 41  1  0
 25 26  1  0
 25 38  1  0
 26 27  1  0
 26 39  1  0
 27 28  1  0
 27 40  1  0
 28 29  1  0
 28 41  1  0
  1 42  1  0
  2 43  1  0
  2 44  1  0
  3 45  1  0
  4 46  1  0
  4 47  1  0
  6 48  1  0
  6 49  1  0
  7 50  1  0
  7 51  1  0
  8 52  1  0
  9 53  1  0
 11 54  1  0
 12 55  1  0
 12 56  1  0
 15 57  1  0
 15 58  1  0
 16 59  1  0
 16 60  1  0
 17 61  1  0
 18 62  1  0
 18 63  1  0
 18 64  1  0
 19 65  1  0
 19 66  1  0
 21 67  1  0
 21 68  1  0
 22 69  1  0
 24 70  1  0
 25 71  1  0
 26 72  1  0
 27 73  1  0
 28 74  1  0
 29 75  1  0
 29 76  1  0
 29 77  1  0
 30 78  1  0
 32 79  1  0
 33 80  1  0
 34 81  1  0
 35 82  1  0
 38 83  1  0
 39 84  1  0
 40 85  1  0
A    1
C1
A    2
C2
A    3
C3
A    4
C4
A    5
C5
A    6
C6
A    7
C7
A    8
C8
A    9
C9
A   10
C10
A   11
C11
A   12
C12
A   13
C13
A   14
C14
A   15
C15
A   16
C16
A   17
C17
A   18
C18
A   19
C19
A   20
C20
A   21
C21
A   22
C22
A   23
C23
A   24
C1'
A   25
C2'
A   26
C3'
A   27
C4'
A   28
C5'
A   29
C6'
A   30
O1
A   31
O3
A   32
O5
A   33
O11
A   34
O14
A   35
O19
A   36
O21
A   37
O23
A   38
O2'
A   39
O3'
A   40
O4'
A   41
O5'
M  END
