1KF6_CE1_O_811
     RDKit          3D

 95 94  0  0  0  0  0  0  0  0999 V2000
   58.1060  -33.1080  -45.2840 C   0  0  0  0  0  0  0  0  0  0  0  0
   59.3520  -33.0840  -46.0970 C   0  0  0  0  0  0  0  0  0  0  0  0
   59.2900  -32.2290  -47.2990 C   0  0  0  0  0  0  0  0  0  0  0  0
   60.1960  -32.7490  -48.3310 C   0  0  0  0  0  0  0  0  0  0  0  0
   60.4550  -31.7050  -49.3370 C   0  0  0  0  0  0  0  0  0  0  0  0
   60.3960  -32.2820  -50.7050 C   0  0  0  0  0  0  0  0  0  0  0  0
   60.8690  -31.2720  -51.6590 C   0  0  0  0  0  0  0  0  0  0  0  0
   60.9610  -31.8330  -53.0010 C   0  0  0  0  0  0  0  0  0  0  0  0
   60.4960  -30.8480  -53.9750 C   0  0  0  0  0  0  0  0  0  0  0  0
   59.4660  -31.4230  -54.8650 C   0  0  0  0  0  0  0  0  0  0  0  0
   59.0820  -30.4530  -55.8950 C   0  0  0  0  0  0  0  0  0  0  0  0
   58.0830  -31.1400  -56.6960 C   0  0  0  0  0  0  0  0  0  0  0  0
   57.5890  -30.5210  -57.9090 O   0  0  0  0  0  0  0  0  0  0  0  0
   58.3080  -31.0150  -59.1020 C   0  0  0  0  0  0  0  0  0  0  0  0
   58.0170  -30.4550  -60.5390 C   0  0  0  0  0  0  0  0  0  0  0  0
   58.6550  -30.9500  -61.7590 O   0  0  0  0  0  0  0  0  0  0  0  0
   57.9070  -32.0420  -62.3810 C   0  0  0  0  0  0  0  0  0  0  0  0
   56.6380  -31.8470  -63.2720 C   0  0  0  0  0  0  0  0  0  0  0  0
   55.7980  -32.9410  -63.7970 O   0  0  0  0  0  0  0  0  0  0  0  0
   55.5980  -33.9920  -62.7860 C   0  0  0  0  0  0  0  0  0  0  0  0
   54.5830  -33.8520  -61.5970 C   0  0  0  0  0  0  0  0  0  0  0  0
   54.5380  -34.7930  -60.4810 O   0  0  0  0  0  0  0  0  0  0  0  0
   55.1560  -34.1910  -59.3040 C   0  0  0  0  0  0  0  0  0  0  0  0
   56.0430  -34.9670  -58.2800 C   0  0  0  0  0  0  0  0  0  0  0  0
   56.3520  -34.4490  -56.9530 O   0  0  0  0  0  0  0  0  0  0  0  0
   57.1010  -35.4320  -56.1650 C   0  0  0  0  0  0  0  0  0  0  0  0
   57.6540  -35.0890  -54.7490 C   0  0  0  0  0  0  0  0  0  0  0  0
   56.9080  -35.3890  -53.5320 O   0  0  0  0  0  0  0  0  0  0  0  0
   57.7440  -35.1750  -52.3670 C   0  0  0  0  0  0  0  0  0  0  0  0
   57.2100  -35.3680  -50.9370 C   0  0  0  0  0  0  0  0  0  0  0  0
   57.7110  -34.5780  -49.8090 O   0  0  0  0  0  0  0  0  0  0  0  0
   57.2830  -35.1710  -48.5380 C   0  0  0  0  0  0  0  0  0  0  0  0
   55.9320  -34.8050  -47.8350 C   0  0  0  0  0  0  0  0  0  0  0  0
   55.4530  -35.4940  -46.6570 O   0  0  0  0  0  0  0  0  0  0  0  0
   54.3830  -36.4030  -46.9960 C   0  0  0  0  0  0  0  0  0  0  0  0
   54.5310  -37.9800  -46.8400 C   0  0  0  0  0  0  0  0  0  0  0  0
   55.8460  -38.6400  -46.9000 O   0  0  0  0  0  0  0  0  0  0  0  0
   58.3655  -33.1030  -44.2151 H   0  0  0  0  0  0  0  0  0  0  0  0
   57.4984  -32.2214  -45.5180 H   0  0  0  0  0  0  0  0  0  0  0  0
   57.5330  -34.0173  -45.5180 H   0  0  0  0  0  0  0  0  0  0  0  0
   60.1701  -32.7186  -45.4589 H   0  0  0  0  0  0  0  0  0  0  0  0
   59.5078  -34.1121  -46.4557 H   0  0  0  0  0  0  0  0  0  0  0  0
   58.2610  -32.2208  -47.6878 H   0  0  0  0  0  0  0  0  0  0  0  0
   59.5953  -31.2066  -47.0316 H   0  0  0  0  0  0  0  0  0  0  0  0
   61.1455  -33.0513  -47.8652 H   0  0  0  0  0  0  0  0  0  0  0  0
   59.7307  -33.6178  -48.8196 H   0  0  0  0  0  0  0  0  0  0  0  0
   59.6959  -30.9144  -49.2434 H   0  0  0  0  0  0  0  0  0  0  0  0
   61.4579  -31.2859  -49.1681 H   0  0  0  0  0  0  0  0  0  0  0  0
   61.0386  -33.1732  -50.7595 H   0  0  0  0  0  0  0  0  0  0  0  0
   59.3630  -32.5728  -50.9464 H   0  0  0  0  0  0  0  0  0  0  0  0
   60.1650  -30.4269  -51.6686 H   0  0  0  0  0  0  0  0  0  0  0  0
   61.8684  -30.9332  -51.3484 H   0  0  0  0  0  0  0  0  0  0  0  0
   62.0069  -32.0965  -53.2171 H   0  0  0  0  0  0  0  0  0  0  0  0
   60.3343  -32.7348  -53.0646 H   0  0  0  0  0  0  0  0  0  0  0  0
   60.0680  -29.9878  -53.4393 H   0  0  0  0  0  0  0  0  0  0  0  0
   61.3525  -30.5343  -54.5898 H   0  0  0  0  0  0  0  0  0  0  0  0
   59.8677  -32.3256  -55.3487 H   0  0  0  0  0  0  0  0  0  0  0  0
   58.5791  -31.6782  -54.2665 H   0  0  0  0  0  0  0  0  0  0  0  0
   58.6561  -29.5485  -55.4363 H   0  0  0  0  0  0  0  0  0  0  0  0
   59.9418  -30.1228  -56.4964 H   0  0  0  0  0  0  0  0  0  0  0  0
   58.5165  -32.1087  -56.9854 H   0  0  0  0  0  0  0  0  0  0  0  0
   57.1996  -31.1632  -56.0409 H   0  0  0  0  0  0  0  0  0  0  0  0
   59.3770  -30.8374  -58.9129 H   0  0  0  0  0  0  0  0  0  0  0  0
   57.9439  -32.0501  -59.1792 H   0  0  0  0  0  0  0  0  0  0  0  0
   56.9359  -30.5847  -60.6953 H   0  0  0  0  0  0  0  0  0  0  0  0
   58.4627  -29.4521  -60.4646 H   0  0  0  0  0  0  0  0  0  0  0  0
   58.6326  -32.5766  -63.0117 H   0  0  0  0  0  0  0  0  0  0  0  0
   57.4636  -32.5180  -61.4940 H   0  0  0  0  0  0  0  0  0  0  0  0
   55.9596  -31.2131  -62.6821 H   0  0  0  0  0  0  0  0  0  0  0  0
   57.1015  -31.4877  -64.2026 H   0  0  0  0  0  0  0  0  0  0  0  0
   55.2931  -34.8918  -63.3404 H   0  0  0  0  0  0  0  0  0  0  0  0
   56.5617  -33.9739  -62.2560 H   0  0  0  0  0  0  0  0  0  0  0  0
   54.7688  -32.8627  -61.1534 H   0  0  0  0  0  0  0  0  0  0  0  0
   53.6247  -34.0545  -62.0976 H   0  0  0  0  0  0  0  0  0  0  0  0
   55.7882  -33.3757  -59.6855 H   0  0  0  0  0  0  0  0  0  0  0  0
   54.2676  -33.9831  -58.6896 H   0  0  0  0  0  0  0  0  0  0  0  0
   55.5470  -35.9358  -58.1206 H   0  0  0  0  0  0  0  0  0  0  0  0
   57.0284  -34.9324  -58.7677 H   0  0  0  0  0  0  0  0  0  0  0  0
   56.4360  -36.2988  -56.0369 H   0  0  0  0  0  0  0  0  0  0  0  0
   58.0212  -35.5563  -56.7547 H   0  0  0  0  0  0  0  0  0  0  0  0
   58.6151  -35.6163  -54.6583 H   0  0  0  0  0  0  0  0  0  0  0  0
   57.6450  -33.9891  -54.7589 H   0  0  0  0  0  0  0  0  0  0  0  0
   58.5996  -35.8583  -52.4716 H   0  0  0  0  0  0  0  0  0  0  0  0
   57.9210  -34.0900  -52.4043 H   0  0  0  0  0  0  0  0  0  0  0  0
   56.1266  -35.1838  -50.9852 H   0  0  0  0  0  0  0  0  0  0  0  0
   57.5693  -36.3779  -50.6900 H   0  0  0  0  0  0  0  0  0  0  0  0
   57.2517  -36.2576  -48.7065 H   0  0  0  0  0  0  0  0  0  0  0  0
   58.0164  -34.7429  -47.8389 H   0  0  0  0  0  0  0  0  0  0  0  0
   56.0114  -33.7439  -47.5561 H   0  0  0  0  0  0  0  0  0  0  0  0
   55.1955  -35.1157  -48.5907 H   0  0  0  0  0  0  0  0  0  0  0  0
   53.5238  -36.1119  -46.3739 H   0  0  0  0  0  0  0  0  0  0  0  0
   54.3189  -36.2853  -48.0878 H   0  0  0  0  0  0  0  0  0  0  0  0
   54.0996  -38.2366  -45.8612 H   0  0  0  0  0  0  0  0  0  0  0  0
   54.0374  -38.3544  -47.7490 H   0  0  0  0  0  0  0  0  0  0  0  0
   56.1747  -38.8050  -45.9808 H   0  0  0  0  0  0  0  0  0  0  0  0
  1  2  1  0
  2  3  1  0
  3  4  1  0
  4  5  1  0
  5  6  1  0
  6  7  1  0
  7  8  1  0
  8  9  1  0
  9 10  1  0
 10 11  1  0
 11 12  1  0
 12 13  1  0
 13 14  1  0
 14 15  1  0
 15 16  1  0
 16 17  1  0
 17 18  1  0
 18 19  1  0
 19 20  1  0
 20 21  1  0
 21 22  1  0
 22 23  1  0
 23 24  1  0
 24 25  1  0
 25 26  1  0
 26 27  1  0
 27 28  1  0
 28 29  1  0
 29 30  1  0
 30 31  1  0
 31 32  1  0
 32 33  1  0
 33 34  1  0
 34 35  1  0
 35 36  1  0
 36 37  1  0
  1 38  1  0
  1 39  1  0
  1 40  1  0
  2 41  1  0
  2 42  1  0
  3 43  1  0
  3 44  1  0
  4 45  1  0
  4 46  1  0
  5 47  1  0
  5 48  1  0
  6 49  1  0
  6 50  1  0
  7 51  1  0
  7 52  1  0
  8 53  1  0
  8 54  1  0
  9 55  1  0
  9 56  1  0
 10 57  1  0
 10 58  1  0
 11 59  1  0
 11 60  1  0
 12 61  1  0
 12 62  1  0
 14 63  1  0
 14 64  1  0
 15 65  1  0
 15 66  1  0
 17 67  1  0
 17 68  1  0
 18 69  1  0
 18 70  1  0
 20 71  1  0
 20 72  1  0
 21 73  1  0
 21 74  1  0
 23 75  1  0
 23 76  1  0
 24 77  1  0
 24 78  1  0
 26 79  1  0
 26 80  1  0
 27 81  1  0
 27 82  1  0
 29 83  1  0
 29 84  1  0
 30 85  1  0
 30 86  1  0
 32 87  1  0
 32 88  1  0
 33 89  1  0
 33 90  1  0
 35 91  1  0
 35 92  1  0
 36 93  1  0
 36 94  1  0
 37 95  1  0
A    1
C1
A    2
C2
A    3
C3
A    4
C4
A    5
C5
A    6
C6
A    7
C7
A    8
C8
A    9
C9
A   10
C10
A   11
C11
A   12
C12
A   13
O13
A   14
C14
A   15
C15
A   16
O16
A   17
C17
A   18
C18
A   19
O19
A   20
C20
A   21
C21
A   22
O22
A   23
C23
A   24
C24
A   25
O25
A   26
C26
A   27
C27
A   28
O28
A   29
C29
A   30
C30
A   31
O31
A   32
C32
A   33
C33
A   34
O34
A   35
C35
A   36
C36
A   37
O37
M  END
