4HZT_0ZA_A_504
     RDKit          3D

 49 52  0  0  0  0  0  0  0  0999 V2000
    9.6870  -11.8270    4.4120 Cl  0  0  0  0  0  0  0  0  0  0  0  0
   10.0550  -13.2370    5.4620 C   0  0  0  0  0  0  0  0  0  0  0  0
    9.3310  -14.4500    5.2550 C   0  0  0  0  0  0  0  0  0  0  0  0
    9.6060  -15.5400    6.0610 C   0  0  0  0  0  0  0  0  0  0  0  0
   10.6030  -15.3930    7.0600 C   0  0  0  0  0  0  0  0  0  0  0  0
   11.3220  -14.1450    7.2610 C   0  0  0  0  0  0  0  0  0  0  0  0
   11.0570  -13.0750    6.4130 C   0  0  0  0  0  0  0  0  0  0  0  0
   10.9560  -16.5400    7.9730 C   0  0  0  0  0  0  0  0  0  0  0  0
   11.5590  -16.2870    9.0680 N   0  0  0  0  0  0  0  0  0  0  0  0
   11.8030  -14.9130    9.5580 C   0  0  0  0  0  0  0  0  0  0  0  0
   12.8610  -14.9790   10.6480 C   0  0  0  0  0  0  0  0  0  0  0  0
   10.5200  -14.2560   10.1820 C   0  0  0  0  0  0  0  0  0  0  0  0
   12.3430  -14.0940    8.3810 C   0  0  0  0  0  0  0  0  0  0  0  0
   10.6670  -17.7590    7.5330 N   0  0  0  0  0  0  0  0  0  0  0  0
   10.8430  -18.9120    8.4150 C   0  0  0  0  0  0  0  0  0  0  0  0
   11.4280  -19.9500    7.5580 C   0  0  0  0  0  0  0  0  0  0  0  0
   11.6890  -21.2090    8.0090 N   0  0  0  0  0  0  0  0  0  0  0  0
   12.1450  -21.8500    6.9430 C   0  0  0  0  0  0  0  0  0  0  0  0
   12.4930  -23.2490    6.9730 O   0  0  0  0  0  0  0  0  0  0  0  0
   12.1110  -21.1010    5.8410 O   0  0  0  0  0  0  0  0  0  0  0  0
   11.6480  -19.8830    6.1910 N   0  0  0  0  0  0  0  0  0  0  0  0
    9.4770  -19.4370    8.9390 C   0  0  0  0  0  0  0  0  0  0  0  0
    8.9520  -18.4470    9.9640 C   0  0  0  0  0  0  0  0  0  0  0  0
    9.5320  -18.4410   11.2390 C   0  0  0  0  0  0  0  0  0  0  0  0
    9.1220  -17.5360   12.2320 C   0  0  0  0  0  0  0  0  0  0  0  0
    8.1010  -16.6320   11.9530 C   0  0  0  0  0  0  0  0  0  0  0  0
    7.5460  -16.6170   10.6630 C   0  0  0  0  0  0  0  0  0  0  0  0
    7.9380  -17.5330    9.6450 C   0  0  0  0  0  0  0  0  0  0  0  0
    8.5665  -14.5167    4.4669 H   0  0  0  0  0  0  0  0  0  0  0  0
    9.0686  -16.4910    5.9316 H   0  0  0  0  0  0  0  0  0  0  0  0
   11.6202  -12.1334    6.4916 H   0  0  0  0  0  0  0  0  0  0  0  0
   12.3741  -14.9486   11.6339 H   0  0  0  0  0  0  0  0  0  0  0  0
   13.4312  -15.9145   10.5493 H   0  0  0  0  0  0  0  0  0  0  0  0
   13.5431  -14.1217   10.5493 H   0  0  0  0  0  0  0  0  0  0  0  0
   10.5872  -14.2904   11.2794 H   0  0  0  0  0  0  0  0  0  0  0  0
   10.4465  -13.2093    9.8518 H   0  0  0  0  0  0  0  0  0  0  0  0
    9.6278  -14.8082    9.8518 H   0  0  0  0  0  0  0  0  0  0  0  0
   13.2960  -14.5214    8.0360 H   0  0  0  0  0  0  0  0  0  0  0  0
   12.5164  -13.0527    8.6902 H   0  0  0  0  0  0  0  0  0  0  0  0
   10.3196  -17.8922    6.5725 H   0  0  0  0  0  0  0  0  0  0  0  0
   11.4593  -18.6488    9.2873 H   0  0  0  0  0  0  0  0  0  0  0  0
   11.4911  -19.0741    5.5729 H   0  0  0  0  0  0  0  0  0  0  0  0
    8.7654  -19.5221    8.1045 H   0  0  0  0  0  0  0  0  0  0  0  0
    9.6008  -20.4295    9.3968 H   0  0  0  0  0  0  0  0  0  0  0  0
   10.3290  -19.1635   11.4686 H   0  0  0  0  0  0  0  0  0  0  0  0
    9.6034  -17.5417   13.2211 H   0  0  0  0  0  0  0  0  0  0  0  0
    7.7357  -15.9424   12.7283 H   0  0  0  0  0  0  0  0  0  0  0  0
    6.7765  -15.8666   10.4290 H   0  0  0  0  0  0  0  0  0  0  0  0
    7.4656  -17.5236    8.6517 H   0  0  0  0  0  0  0  0  0  0  0  0
  1  2  1  0
  3  2  2  0
  3  4  1  0
  2  7  1  0
 20 21  1  0
 20 18  1  0
  4  5  2  0
 21 16  1  0
  7  6  2  0
 18 19  2  0
 18 17  1  0
  5  6  1  0
  5  8  1  0
  6 13  1  0
 14  8  1  0
 14 15  1  0
 16 17  2  0
 16 15  1  0
  8  9  2  0
 13 10  1  0
 15 22  1  0
 22 23  1  0
  9 10  1  0
 10 12  1  0
 10 11  1  0
 28 23  1  0
 28 27  2  0
 23 24  2  0
 27 26  1  0
 24 25  1  0
 26 25  2  0
  3 29  1  0
  4 30  1  0
  7 31  1  0
 11 32  1  0
 11 33  1  0
 11 34  1  0
 12 35  1  0
 12 36  1  0
 12 37  1  0
 13 38  1  0
 13 39  1  0
 14 40  1  0
 15 41  1  0
 21 42  1  0
 22 43  1  0
 22 44  1  0
 24 45  1  0
 25 46  1  0
 26 47  1  0
 27 48  1  0
 28 49  1  0
A    1
CL1
A    2
C6
A    3
C5
A    4
C4
A    5
C3
A    6
C2
A    7
C1
A    8
C10
A    9
N9
A   10
C8
A   11
C11
A   12
C12
A   13
C7
A   14
N13
A   15
C14
A   16
C25
A   17
N24
A   18
C29
A   19
O28
A   20
O26
A   21
N27
A   22
C18
A   23
C19
A   24
C24
A   25
C23
A   26
C22
A   27
C21
A   28
C20
M  END
