4I0D_1B7_A_504
     RDKit          3D

 52 54  0  0  0  0  0  0  0  0999 V2000
   11.1820  -12.7770    6.4880 C   0  0  0  0  0  0  0  0  0  0  0  0
   10.7420  -15.1350    6.9290 C   0  0  0  0  0  0  0  0  0  0  0  0
    9.8430  -15.2070    5.8710 C   0  0  0  0  0  0  0  0  0  0  0  0
    9.6270  -14.0700    5.0930 C   0  0  0  0  0  0  0  0  0  0  0  0
   10.2780  -12.8850    5.4330 C   0  0  0  0  0  0  0  0  0  0  0  0
   12.3540  -13.8930    8.4550 C   0  0  0  0  0  0  0  0  0  0  0  0
   11.7050  -14.7500    9.5660 C   0  0  0  0  0  0  0  0  0  0  0  0
   11.0430  -16.2970    7.7950 C   0  0  0  0  0  0  0  0  0  0  0  0
   12.7000  -14.8220   10.7230 C   0  0  0  0  0  0  0  0  0  0  0  0
   10.4060  -14.0700   10.0860 C   0  0  0  0  0  0  0  0  0  0  0  0
   11.5590  -19.7850    7.2680 C   0  0  0  0  0  0  0  0  0  0  0  0
    9.2830  -19.2260    8.1440 C   0  0  0  0  0  0  0  0  0  0  0  0
    8.4910  -18.1930    8.9150 C   0  0  0  0  0  0  0  0  0  0  0  0
    7.8050  -17.1700    8.2660 C   0  0  0  0  0  0  0  0  0  0  0  0
    8.4350  -18.1610   10.4120 C   0  0  0  0  0  0  0  0  0  0  0  0
    9.9880  -11.4120    4.4860 Cl  0  0  0  0  0  0  0  0  0  0  0  0
   11.4370  -13.9080    7.2490 C   0  0  0  0  0  0  0  0  0  0  0  0
   11.4520  -16.0860    9.0010 N   0  0  0  0  0  0  0  0  0  0  0  0
   10.8560  -17.4950    7.2250 N   0  0  0  0  0  0  0  0  0  0  0  0
   10.7610  -18.7350    7.9980 C   0  0  0  0  0  0  0  0  0  0  0  0
   12.0170  -19.5470    6.1300 O   0  0  0  0  0  0  0  0  0  0  0  0
   11.6840  -20.9190    7.7680 O   0  0  0  0  0  0  0  0  0  0  0  0
    7.1270  -16.2880    9.5700 S   0  0  0  0  0  0  0  0  0  0  0  0
    7.6800  -17.0930   10.9730 C   0  0  0  0  0  0  0  0  0  0  0  0
    9.1910  -19.2530   11.1650 C   0  0  0  0  0  0  0  0  0  0  0  0
    9.9560  -18.8860   12.4250 C   0  0  0  0  0  0  0  0  0  0  0  0
   10.4350  -20.1480   13.1610 C   0  0  0  0  0  0  0  0  0  0  0  0
   11.6794  -11.8215    6.7109 H   0  0  0  0  0  0  0  0  0  0  0  0
    9.3113  -16.1446    5.6514 H   0  0  0  0  0  0  0  0  0  0  0  0
    8.9532  -14.1076    4.2243 H   0  0  0  0  0  0  0  0  0  0  0  0
   13.3331  -14.3146    8.1836 H   0  0  0  0  0  0  0  0  0  0  0  0
   12.5009  -12.8615    8.8078 H   0  0  0  0  0  0  0  0  0  0  0  0
   12.1554  -14.7826   11.6779 H   0  0  0  0  0  0  0  0  0  0  0  0
   13.2657  -15.7634   10.6621 H   0  0  0  0  0  0  0  0  0  0  0  0
   13.3953  -13.9718   10.6621 H   0  0  0  0  0  0  0  0  0  0  0  0
   10.4070  -14.0705   11.1860 H   0  0  0  0  0  0  0  0  0  0  0  0
   10.3628  -13.0336    9.7198 H   0  0  0  0  0  0  0  0  0  0  0  0
    9.5297  -14.6251    9.7198 H   0  0  0  0  0  0  0  0  0  0  0  0
    8.8395  -19.3606    7.1464 H   0  0  0  0  0  0  0  0  0  0  0  0
    9.2630  -20.1851    8.6822 H   0  0  0  0  0  0  0  0  0  0  0  0
    7.7195  -16.9763    7.1866 H   0  0  0  0  0  0  0  0  0  0  0  0
   10.7756  -17.5459    6.1994 H   0  0  0  0  0  0  0  0  0  0  0  0
   11.1478  -18.5545    9.0118 H   0  0  0  0  0  0  0  0  0  0  0  0
   11.6960  -21.0276    8.7520 H   0  0  0  0  0  0  0  0  0  0  0  0
    7.4998  -16.8497   12.0305 H   0  0  0  0  0  0  0  0  0  0  0  0
    8.4537  -20.0189   11.4474 H   0  0  0  0  0  0  0  0  0  0  0  0
    9.9771  -19.5625   10.4606 H   0  0  0  0  0  0  0  0  0  0  0  0
   10.8289  -18.2750   12.1517 H   0  0  0  0  0  0  0  0  0  0  0  0
    9.2869  -18.3221   13.0916 H   0  0  0  0  0  0  0  0  0  0  0  0
   10.3731  -19.9848   14.2471 H   0  0  0  0  0  0  0  0  0  0  0  0
    9.7976  -20.9998   12.8813 H   0  0  0  0  0  0  0  0  0  0  0  0
   11.4770  -20.3623   12.8813 H   0  0  0  0  0  0  0  0  0  0  0  0
 16  5  1  0
  4  5  1  0
  4  3  2  0
  5  1  2  0
  3  2  1  0
 21 11  2  0
  1 17  1  0
  2 17  2  0
  2  8  1  0
 19  8  1  0
 19 20  1  0
 17  6  1  0
 11 22  1  0
 11 20  1  0
  8 18  2  0
 20 12  1  0
 12 13  1  0
 14 13  2  0
 14 23  1  0
  6  7  1  0
 13 15  1  0
 18  7  1  0
  7 10  1  0
  7  9  1  0
 23 24  1  0
 15 24  2  0
 15 25  1  0
 25 26  1  0
 26 27  1  0
  1 28  1  0
  3 29  1  0
  4 30  1  0
  6 31  1  0
  6 32  1  0
  9 33  1  0
  9 34  1  0
  9 35  1  0
 10 36  1  0
 10 37  1  0
 10 38  1  0
 12 39  1  0
 12 40  1  0
 14 41  1  0
 19 42  1  0
 20 43  1  0
 22 44  1  0
 24 45  1  0
 25 46  1  0
 25 47  1  0
 26 48  1  0
 26 49  1  0
 27 50  1  0
 27 51  1  0
 27 52  1  0
A    1
C1
A    2
C3
A    3
C4
A    4
C5
A    5
C6
A    6
C7
A    7
C8
A    8
C10
A    9
C11
A   10
C12
A   11
C15
A   12
C18
A   13
C19
A   14
C20
A   15
C23
A   16
CL1
A   17
C2
A   18
N9
A   19
N13
A   20
C14
A   21
O17
A   22
O16
A   23
S21
A   24
C22
A   25
C24
A   26
C26
A   27
C27
M  END
