4I0S_1B5_A_701
     RDKit          3D

 43 46  0  0  0  0  0  0  0  0999 V2000
    2.5200   -1.6630   15.6980 C   0  0  0  0  0  0  0  0  0  0  0  0
    1.8720   -0.6930   14.9270 C   0  0  0  0  0  0  0  0  0  0  0  0
    2.5460    0.3630   14.4720 N   0  0  0  0  0  0  0  0  0  0  0  0
    3.8390    0.4800   14.7590 C   0  0  0  0  0  0  0  0  0  0  0  0
    4.4860   -0.4990   15.5400 C   0  0  0  0  0  0  0  0  0  0  0  0
    3.7990   -1.5470   15.9810 N   0  0  0  0  0  0  0  0  0  0  0  0
    4.8710    1.4780   14.4430 C   0  0  0  0  0  0  0  0  0  0  0  0
    6.0240    1.0490   15.0380 C   0  0  0  0  0  0  0  0  0  0  0  0
    5.7950   -0.1200   15.6760 N   0  0  0  0  0  0  0  0  0  0  0  0
    0.4310   -0.8640   14.6440 C   0  0  0  0  0  0  0  0  0  0  0  0
    4.6840    2.7160   13.6830 C   0  0  0  0  0  0  0  0  0  0  0  0
    5.6520    3.4280   13.4810 O   0  0  0  0  0  0  0  0  0  0  0  0
    3.4380    3.0500   13.2630 N   0  0  0  0  0  0  0  0  0  0  0  0
    3.1460    4.2830   12.5240 C   0  0  0  0  0  0  0  0  0  0  0  0
   -0.2980   -1.8720   15.0550 N   0  0  0  0  0  0  0  0  0  0  0  0
   -1.6170   -1.7210   14.6260 N   0  0  0  0  0  0  0  0  0  0  0  0
   -1.7230   -0.5540   13.9170 C   0  0  0  0  0  0  0  0  0  0  0  0
   -0.4440    0.0440   13.8950 C   0  0  0  0  0  0  0  0  0  0  0  0
   -2.7800    0.0820   13.2740 C   0  0  0  0  0  0  0  0  0  0  0  0
   -2.5660    1.2810   12.6320 C   0  0  0  0  0  0  0  0  0  0  0  0
   -1.3060    1.8760   12.6080 C   0  0  0  0  0  0  0  0  0  0  0  0
   -0.2470    1.2660   13.2300 C   0  0  0  0  0  0  0  0  0  0  0  0
   -2.6950   -2.6770   14.9100 C   0  0  0  0  0  0  0  0  0  0  0  0
   -3.9120    2.0410   11.8460 Cl  0  0  0  0  0  0  0  0  0  0  0  0
    2.1320    3.9890   11.4150 C   0  0  0  0  0  0  0  0  0  0  0  0
    2.5110    5.2850   13.4960 C   0  0  0  0  0  0  0  0  0  0  0  0
    1.9553   -2.5302   16.0709 H   0  0  0  0  0  0  0  0  0  0  0  0
    6.9898    1.5744   15.0030 H   0  0  0  0  0  0  0  0  0  0  0  0
    6.5078   -0.6533   16.1940 H   0  0  0  0  0  0  0  0  0  0  0  0
    2.6606    2.4077   13.4729 H   0  0  0  0  0  0  0  0  0  0  0  0
    4.0727    4.6836   12.0874 H   0  0  0  0  0  0  0  0  0  0  0  0
   -3.7824   -0.3710   13.2785 H   0  0  0  0  0  0  0  0  0  0  0  0
   -1.1609    2.8354   12.0899 H   0  0  0  0  0  0  0  0  0  0  0  0
    0.7500    1.7302   13.2085 H   0  0  0  0  0  0  0  0  0  0  0  0
   -2.8141   -2.7826   15.9984 H   0  0  0  0  0  0  0  0  0  0  0  0
   -3.6351   -2.3103   14.4722 H   0  0  0  0  0  0  0  0  0  0  0  0
   -2.4433   -3.6542   14.4722 H   0  0  0  0  0  0  0  0  0  0  0  0
    1.1678    3.7094   11.8645 H   0  0  0  0  0  0  0  0  0  0  0  0
    1.9998    4.8858   10.7919 H   0  0  0  0  0  0  0  0  0  0  0  0
    2.5000    3.1606   10.7919 H   0  0  0  0  0  0  0  0  0  0  0  0
    2.7110    4.9694   14.5306 H   0  0  0  0  0  0  0  0  0  0  0  0
    2.9419    6.2829   13.3273 H   0  0  0  0  0  0  0  0  0  0  0  0
    1.4246    5.3214   13.3273 H   0  0  0  0  0  0  0  0  0  0  0  0
 25 14  1  0
 24 20  1  0
 14 13  1  0
 14 26  1  0
 21 20  2  0
 21 22  1  0
 20 19  1  0
 22 18  2  0
 13 11  1  0
 19 17  2  0
 12 11  2  0
 11  7  1  0
 18 17  1  0
 18 10  1  0
 17 16  1  0
  7  4  1  0
  7  8  2  0
  3  4  2  0
  3  2  1  0
 16 23  1  0
 16 15  1  0
 10  2  1  0
 10 15  2  0
  4  5  1  0
  2  1  2  0
  8  9  1  0
  5  9  1  0
  5  6  2  0
  1  6  1  0
  1 27  1  0
  8 28  1  0
  9 29  1  0
 13 30  1  0
 14 31  1  0
 19 32  1  0
 21 33  1  0
 22 34  1  0
 23 35  1  0
 23 36  1  0
 23 37  1  0
 25 38  1  0
 25 39  1  0
 25 40  1  0
 26 41  1  0
 26 42  1  0
 26 43  1  0
A    1
C1
A    2
C2
A    3
N3
A    4
C4
A    5
C5
A    6
N6
A    7
C7
A    8
C8
A    9
N9
A   10
C10
A   11
C11
A   12
O12
A   13
N13
A   14
C14
A   15
N15
A   16
N16
A   17
C17
A   18
C18
A   19
C19
A   20
C20
A   21
C21
A   22
C22
A   23
C23
A   24
CL2
A   25
C25
A   26
C26
M  END
