4I0Z_1BB_A_501
     RDKit          3D

 53 56  0  0  0  0  0  0  0  0999 V2000
    9.6970  -11.8940    4.2690 Cl  0  0  0  0  0  0  0  0  0  0  0  0
   10.0760  -13.2970    5.2830 C   0  0  0  0  0  0  0  0  0  0  0  0
   11.0310  -13.1180    6.3260 C   0  0  0  0  0  0  0  0  0  0  0  0
   11.2370  -14.1990    7.1450 C   0  0  0  0  0  0  0  0  0  0  0  0
   10.5660  -15.3790    6.8830 C   0  0  0  0  0  0  0  0  0  0  0  0
    9.5960  -15.5200    5.8520 C   0  0  0  0  0  0  0  0  0  0  0  0
    9.3590  -14.4640    4.9890 C   0  0  0  0  0  0  0  0  0  0  0  0
   12.2140  -14.1390    8.2860 C   0  0  0  0  0  0  0  0  0  0  0  0
   11.6850  -14.9340    9.4720 C   0  0  0  0  0  0  0  0  0  0  0  0
   11.4390  -16.2990    8.9650 N   0  0  0  0  0  0  0  0  0  0  0  0
   10.9000  -16.5170    7.7940 C   0  0  0  0  0  0  0  0  0  0  0  0
   10.6340  -17.7530    7.3220 N   0  0  0  0  0  0  0  0  0  0  0  0
   10.9150  -18.9600    8.1250 C   0  0  0  0  0  0  0  0  0  0  0  0
    9.5850  -19.4920    8.7820 C   0  0  0  0  0  0  0  0  0  0  0  0
   12.8240  -14.9370   10.5270 C   0  0  0  0  0  0  0  0  0  0  0  0
   10.3870  -14.2890   10.0350 C   0  0  0  0  0  0  0  0  0  0  0  0
   11.3690  -20.0000    7.1650 C   0  0  0  0  0  0  0  0  0  0  0  0
   11.2760  -19.7740    5.8020 N   0  0  0  0  0  0  0  0  0  0  0  0
   11.5740  -20.7400    4.9000 C   0  0  0  0  0  0  0  0  0  0  0  0
   11.8780  -22.0330    5.3250 C   0  0  0  0  0  0  0  0  0  0  0  0
   11.9510  -22.2580    6.7810 C   0  0  0  0  0  0  0  0  0  0  0  0
   11.6830  -21.2180    7.6350 N   0  0  0  0  0  0  0  0  0  0  0  0
   12.2140  -23.3860    7.1930 O   0  0  0  0  0  0  0  0  0  0  0  0
    9.1100  -18.5280    9.8990 C   0  0  0  0  0  0  0  0  0  0  0  0
    9.8100  -18.5650   11.1120 C   0  0  0  0  0  0  0  0  0  0  0  0
    9.5350  -17.7190   12.2230 C   0  0  0  0  0  0  0  0  0  0  0  0
    8.4270  -16.8150   12.0660 C   0  0  0  0  0  0  0  0  0  0  0  0
    7.7080  -16.7850   10.8450 C   0  0  0  0  0  0  0  0  0  0  0  0
    8.0220  -17.6240    9.7250 C   0  0  0  0  0  0  0  0  0  0  0  0
   12.1430  -22.9960    4.4930 C   0  0  0  0  0  0  0  0  0  0  0  0
   12.3580  -23.8810    3.7430 N   0  0  0  0  0  0  0  0  0  0  0  0
   11.5706  -12.1697    6.4658 H   0  0  0  0  0  0  0  0  0  0  0  0
    9.0382  -16.4616    5.7414 H   0  0  0  0  0  0  0  0  0  0  0  0
    8.6632  -14.5355    4.1401 H   0  0  0  0  0  0  0  0  0  0  0  0
   13.1761  -14.5638    7.9636 H   0  0  0  0  0  0  0  0  0  0  0  0
   12.3497  -13.0901    8.5882 H   0  0  0  0  0  0  0  0  0  0  0  0
   10.2264  -17.8567    6.3818 H   0  0  0  0  0  0  0  0  0  0  0  0
   11.6541  -18.7370    8.9086 H   0  0  0  0  0  0  0  0  0  0  0  0
    8.8042  -19.5656    8.0107 H   0  0  0  0  0  0  0  0  0  0  0  0
    9.7761  -20.4816    9.2226 H   0  0  0  0  0  0  0  0  0  0  0  0
   12.3883  -14.9359   11.5370 H   0  0  0  0  0  0  0  0  0  0  0  0
   13.4430  -15.8368   10.3957 H   0  0  0  0  0  0  0  0  0  0  0  0
   13.4477  -14.0405   10.3957 H   0  0  0  0  0  0  0  0  0  0  0  0
   10.4172  -14.3040   11.1345 H   0  0  0  0  0  0  0  0  0  0  0  0
   10.3125  -13.2490    9.6844 H   0  0  0  0  0  0  0  0  0  0  0  0
    9.5131  -14.8577    9.6844 H   0  0  0  0  0  0  0  0  0  0  0  0
   10.9729  -18.8489    5.4657 H   0  0  0  0  0  0  0  0  0  0  0  0
   11.5762  -20.5030    3.8258 H   0  0  0  0  0  0  0  0  0  0  0  0
   10.6258  -19.2960   11.2123 H   0  0  0  0  0  0  0  0  0  0  0  0
   10.1332  -17.7542   13.1455 H   0  0  0  0  0  0  0  0  0  0  0  0
    8.1384  -16.1483   12.8920 H   0  0  0  0  0  0  0  0  0  0  0  0
    6.8666  -16.0827   10.7516 H   0  0  0  0  0  0  0  0  0  0  0  0
    7.4546  -17.5726    8.7840 H   0  0  0  0  0  0  0  0  0  0  0  0
 31 30  3  0
  1  2  1  0
 30 20  1  0
 19 20  2  0
 19 18  1  0
  7  2  2  0
  7  6  1  0
  2  3  1  0
 20 21  1  0
 18 17  1  0
  6  5  2  0
  3  4  2  0
 21 23  2  0
 21 22  1  0
  5  4  1  0
  5 11  1  0
  4  8  1  0
 17 22  2  0
 17 13  1  0
 12 11  1  0
 12 13  1  0
 11 10  2  0
 13 14  1  0
  8  9  1  0
 14 24  1  0
 10  9  1  0
  9 16  1  0
  9 15  1  0
 29 24  1  0
 29 28  2  0
 24 25  2  0
 28 27  1  0
 25 26  1  0
 27 26  2  0
  3 32  1  0
  6 33  1  0
  7 34  1  0
  8 35  1  0
  8 36  1  0
 12 37  1  0
 13 38  1  0
 14 39  1  0
 14 40  1  0
 15 41  1  0
 15 42  1  0
 15 43  1  0
 16 44  1  0
 16 45  1  0
 16 46  1  0
 18 47  1  0
 19 48  1  0
 25 49  1  0
 26 50  1  0
 27 51  1  0
 28 52  1  0
 29 53  1  0
A    1
CL1
A    2
C1
A    3
C2
A    4
C3
A    5
C4
A    6
C5
A    7
C6
A    8
C9
A    9
C10
A   10
N11
A   11
C12
A   12
N13
A   13
C14
A   14
C15
A   15
C27
A   16
C28
A   17
C7
A   18
N8
A   19
C11
A   20
C13
A   21
C19
A   22
N24
A   23
O25
A   24
C26
A   25
C29
A   26
C30
A   27
C31
A   28
C32
A   29
C33
A   30
C8
A   31
N9
M  END
