4I23_1C9_A_9001
     RDKit          3D

 34 36  0  0  0  0  0  0  0  0999 V2000
    0.5940  -51.5030  -19.8330 C   0  0  0  0  0  0  0  0  0  0  0  0
   -0.2120  -52.2810  -18.9380 C   0  0  0  0  0  0  0  0  0  0  0  0
   -0.9980  -53.3680  -19.4470 C   0  0  0  0  0  0  0  0  0  0  0  0
   -1.0140  -53.7100  -20.8060 C   0  0  0  0  0  0  0  0  0  0  0  0
   -0.2110  -52.9370  -21.7260 C   0  0  0  0  0  0  0  0  0  0  0  0
    0.5850  -51.8380  -21.2170 C   0  0  0  0  0  0  0  0  0  0  0  0
   -1.7890  -54.7580  -21.1950 N   0  0  0  0  0  0  0  0  0  0  0  0
   -1.7860  -55.0750  -22.5150 C   0  0  0  0  0  0  0  0  0  0  0  0
   -1.0840  -54.4380  -23.4820 N   0  0  0  0  0  0  0  0  0  0  0  0
   -0.2890  -53.3630  -23.0990 C   0  0  0  0  0  0  0  0  0  0  0  0
    0.4700  -52.6610  -24.1020 N   0  0  0  0  0  0  0  0  0  0  0  0
    0.2810  -52.7270  -25.5110 C   0  0  0  0  0  0  0  0  0  0  0  0
   -1.0270  -52.6770  -26.0950 C   0  0  0  0  0  0  0  0  0  0  0  0
   -1.2080  -52.7500  -27.4950 C   0  0  0  0  0  0  0  0  0  0  0  0
   -0.0730  -52.8780  -28.3390 C   0  0  0  0  0  0  0  0  0  0  0  0
    1.2400  -52.9280  -27.7900 C   0  0  0  0  0  0  0  0  0  0  0  0
    1.4170  -52.8550  -26.3800 C   0  0  0  0  0  0  0  0  0  0  0  0
   -0.2270  -52.9520  -29.6720 F   0  0  0  0  0  0  0  0  0  0  0  0
   -2.8120  -52.6890  -28.1430 Cl  0  0  0  0  0  0  0  0  0  0  0  0
   -0.1540  -51.9000  -17.6000 O   0  0  0  0  0  0  0  0  0  0  0  0
   -1.3240  -52.0840  -16.7950 C   0  0  0  0  0  0  0  0  0  0  0  0
    1.3850  -50.4250  -19.3700 N   0  0  0  0  0  0  0  0  0  0  0  0
   -1.6100  -53.9539  -18.7455 H   0  0  0  0  0  0  0  0  0  0  0  0
    1.1966  -51.2488  -21.9162 H   0  0  0  0  0  0  0  0  0  0  0  0
   -2.4098  -55.9256  -22.8271 H   0  0  0  0  0  0  0  0  0  0  0  0
    1.2267  -52.0488  -23.7651 H   0  0  0  0  0  0  0  0  0  0  0  0
   -1.9065  -52.5800  -25.4415 H   0  0  0  0  0  0  0  0  0  0  0  0
    2.1130  -53.0226  -28.4526 H   0  0  0  0  0  0  0  0  0  0  0  0
    2.4300  -52.8969  -25.9532 H   0  0  0  0  0  0  0  0  0  0  0  0
   -1.0477  -52.0405  -15.7312 H   0  0  0  0  0  0  0  0  0  0  0  0
   -2.0511  -51.2892  -17.0177 H   0  0  0  0  0  0  0  0  0  0  0  0
   -1.7720  -53.0636  -17.0177 H   0  0  0  0  0  0  0  0  0  0  0  0
    1.5002  -50.2680  -18.3586 H   0  0  0  0  0  0  0  0  0  0  0  0
    1.8456  -49.7973  -20.0444 H   0  0  0  0  0  0  0  0  0  0  0  0
  4  5  2  0
  5  6  1  0
  5 10  1  0
  8  9  1  0
 10 11  1  0
 12 13  2  0
 12 17  1  0
 14 19  1  0
 14 15  2  0
 17 16  2  0
 16 15  1  0
  3  4  1  0
  3  2  2  0
 13 14  1  0
  1  6  2  0
  1 22  1  0
  2  1  1  0
 15 18  1  0
 21 20  1  0
  7  4  1  0
  7  8  2  0
  9 10  2  0
 11 12  1  0
 20  2  1  0
  3 23  1  0
  6 24  1  0
  8 25  1  0
 11 26  1  0
 13 27  1  0
 16 28  1  0
 17 29  1  0
 21 30  1  0
 21 31  1  0
 21 32  1  0
 22 33  1  0
 22 34  1  0
A    1
C1
A    2
C2
A    3
C3
A    4
C4
A    5
C5
A    6
C6
A    7
N7
A    8
C8
A    9
N9
A   10
C10
A   11
N14
A   12
C15
A   13
C16
A   14
C17
A   15
C18
A   16
C19
A   17
C20
A   18
F21
A   19
CL
A   20
O11
A   21
C12
A   22
N13
M  END
