2FUM_MIX_A_539
     RDKit          3D

 60 62  0  0  0  0  0  0  0  0999 V2000
   66.6340    9.8490  -22.9810 O   0  0  0  0  0  0  0  0  0  0  0  0
   65.7040   10.6410  -22.2080 C   0  0  0  0  0  0  0  0  0  0  0  0
   64.2580   10.3380  -22.6500 C   0  0  0  0  0  0  0  0  0  0  0  0
   64.2050   10.0110  -24.0970 N   0  0  0  0  0  0  0  0  0  0  0  0
   64.3500    8.5630  -24.3640 C   0  0  0  0  0  0  0  0  0  0  0  0
   63.0350    8.0410  -24.9550 C   0  0  0  0  0  0  0  0  0  0  0  0
   63.2090    6.6690  -25.4520 N   0  0  0  0  0  0  0  0  0  0  0  0
   62.8460    5.6090  -24.7280 C   0  0  0  0  0  0  0  0  0  0  0  0
   62.7140    5.6940  -23.3500 C   0  0  0  0  0  0  0  0  0  0  0  0
   62.3420    4.5890  -22.5940 C   0  0  0  0  0  0  0  0  0  0  0  0
   62.6050    4.3970  -25.3470 C   0  0  0  0  0  0  0  0  0  0  0  0
   62.7450    4.3240  -26.7240 C   0  0  0  0  0  0  0  0  0  0  0  0
   63.0770    5.3290  -27.3550 O   0  0  0  0  0  0  0  0  0  0  0  0
   62.5130    3.1200  -27.3730 C   0  0  0  0  0  0  0  0  0  0  0  0
   62.6510    3.0220  -28.7480 C   0  0  0  0  0  0  0  0  0  0  0  0
   63.0170    4.1010  -29.4660 O   0  0  0  0  0  0  0  0  0  0  0  0
   62.4040    1.8300  -29.4010 C   0  0  0  0  0  0  0  0  0  0  0  0
   62.0250    0.7210  -28.6570 C   0  0  0  0  0  0  0  0  0  0  0  0
   61.8870    0.8000  -27.2810 C   0  0  0  0  0  0  0  0  0  0  0  0
   61.5180   -0.2890  -26.5660 O   0  0  0  0  0  0  0  0  0  0  0  0
   62.1350    2.0010  -26.6440 C   0  0  0  0  0  0  0  0  0  0  0  0
   61.9970    2.0720  -25.2710 C   0  0  0  0  0  0  0  0  0  0  0  0
   61.6580    1.0480  -24.6820 O   0  0  0  0  0  0  0  0  0  0  0  0
   62.2330    3.2730  -24.5960 C   0  0  0  0  0  0  0  0  0  0  0  0
   62.0960    3.3760  -23.2050 C   0  0  0  0  0  0  0  0  0  0  0  0
   61.7410    2.3620  -22.4250 N   0  0  0  0  0  0  0  0  0  0  0  0
   60.4000    2.2990  -21.8470 C   0  0  0  0  0  0  0  0  0  0  0  0
   60.4630    1.2460  -20.7550 C   0  0  0  0  0  0  0  0  0  0  0  0
   59.1020    0.9350  -20.2950 N   0  0  0  0  0  0  0  0  0  0  0  0
   58.8450    1.4460  -18.9220 C   0  0  0  0  0  0  0  0  0  0  0  0
   58.9240    0.2940  -17.8890 C   0  0  0  0  0  0  0  0  0  0  0  0
   57.7900   -0.6030  -17.9610 O   0  0  0  0  0  0  0  0  0  0  0  0
   67.2263    9.3446  -22.3687 H   0  0  0  0  0  0  0  0  0  0  0  0
   65.8173   10.3976  -21.1413 H   0  0  0  0  0  0  0  0  0  0  0  0
   65.9154   11.7080  -22.3720 H   0  0  0  0  0  0  0  0  0  0  0  0
   63.8766    9.4826  -22.0731 H   0  0  0  0  0  0  0  0  0  0  0  0
   63.6402   11.2297  -22.4679 H   0  0  0  0  0  0  0  0  0  0  0  0
   63.2989   10.3256  -24.4724 H   0  0  0  0  0  0  0  0  0  0  0  0
   65.1692    8.3982  -25.0794 H   0  0  0  0  0  0  0  0  0  0  0  0
   64.5804    8.0296  -23.4299 H   0  0  0  0  0  0  0  0  0  0  0  0
   62.2584    8.0491  -24.1760 H   0  0  0  0  0  0  0  0  0  0  0  0
   62.7360    8.6897  -25.7915 H   0  0  0  0  0  0  0  0  0  0  0  0
   63.6221    6.5220  -26.3840 H   0  0  0  0  0  0  0  0  0  0  0  0
   62.9072    6.6529  -22.8467 H   0  0  0  0  0  0  0  0  0  0  0  0
   62.2430    4.6815  -21.5024 H   0  0  0  0  0  0  0  0  0  0  0  0
   63.2984    4.9305  -29.0045 H   0  0  0  0  0  0  0  0  0  0  0  0
   62.5061    1.7606  -30.4941 H   0  0  0  0  0  0  0  0  0  0  0  0
   61.8315   -0.2340  -29.1674 H   0  0  0  0  0  0  0  0  0  0  0  0
   61.5284   -0.2583  -25.5765 H   0  0  0  0  0  0  0  0  0  0  0  0
   62.4178    1.6117  -22.2251 H   0  0  0  0  0  0  0  0  0  0  0  0
   60.1211    3.2743  -21.4216 H   0  0  0  0  0  0  0  0  0  0  0  0
   59.6457    2.0464  -22.6067 H   0  0  0  0  0  0  0  0  0  0  0  0
   60.9333    0.3341  -21.1516 H   0  0  0  0  0  0  0  0  0  0  0  0
   61.0569    1.6277  -19.9114 H   0  0  0  0  0  0  0  0  0  0  0  0
   58.4262    1.3662  -20.9418 H   0  0  0  0  0  0  0  0  0  0  0  0
   59.5984    2.2077  -18.6726 H   0  0  0  0  0  0  0  0  0  0  0  0
   57.8365    1.8840  -18.8891 H   0  0  0  0  0  0  0  0  0  0  0  0
   59.8413   -0.2835  -18.0761 H   0  0  0  0  0  0  0  0  0  0  0  0
   58.9244    0.7474  -16.8868 H   0  0  0  0  0  0  0  0  0  0  0  0
   57.4951   -0.8363  -17.0452 H   0  0  0  0  0  0  0  0  0  0  0  0
  1  2  1  0
  2  3  1  0
  3  4  1  0
  4  5  1  0
  5  6  1  0
  6  7  1  0
  7  8  1  0
  8  9  2  0
  8 11  1  0
  9 10  1  0
 10 25  2  0
 11 12  1  0
 11 24  2  0
 12 13  2  0
 12 14  1  0
 14 15  2  0
 14 21  1  0
 15 16  1  0
 15 17  1  0
 17 18  2  0
 18 19  1  0
 19 20  1  0
 19 21  2  0
 21 22  1  0
 22 23  2  0
 22 24  1  0
 24 25  1  0
 25 26  1  0
 26 27  1  0
 27 28  1  0
 28 29  1  0
 29 30  1  0
 30 31  1  0
 31 32  1  0
  1 33  1  0
  2 34  1  0
  2 35  1  0
  3 36  1  0
  3 37  1  0
  4 38  1  0
  5 39  1  0
  5 40  1  0
  6 41  1  0
  6 42  1  0
  7 43  1  0
  9 44  1  0
 10 45  1  0
 16 46  1  0
 17 47  1  0
 18 48  1  0
 20 49  1  0
 26 50  1  0
 27 51  1  0
 27 52  1  0
 28 53  1  0
 28 54  1  0
 29 55  1  0
 30 56  1  0
 30 57  1  0
 31 58  1  0
 31 59  1  0
 32 60  1  0
A    1
OAC
A    2
CAK
A    3
CAM
A    4
NAS
A    5
CAO
A    6
CAQ
A    7
NAU
A    8
CAY
A    9
CAI
A   10
CAJ
A   11
CBE
A   12
CBA
A   13
OAA
A   14
CBC
A   15
CAW
A   16
OAE
A   17
CAG
A   18
CAH
A   19
CAX
A   20
OAF
A   21
CBD
A   22
CBB
A   23
OAB
A   24
CBF
A   25
CAZ
A   26
NAV
A   27
CAR
A   28
CAP
A   29
NAT
A   30
CAN
A   31
CAL
A   32
OAD
M  END
