4I4E_1BQ_A_1000
     RDKit          3D

 59 63  0  0  0  0  0  0  0  0999 V2000
    9.2900    3.4580   24.3610 C   0  0  0  0  0  0  0  0  0  0  0  0
    7.9180    3.5940   24.8730 N   0  0  0  0  0  0  0  0  0  0  0  0
    7.3540    2.5910   25.6880 C   0  0  0  0  0  0  0  0  0  0  0  0
    8.2010    1.7770   26.4590 C   0  0  0  0  0  0  0  0  0  0  0  0
    7.6730    0.7900   27.2720 C   0  0  0  0  0  0  0  0  0  0  0  0
    6.2810    0.5680   27.3440 C   0  0  0  0  0  0  0  0  0  0  0  0
    5.4260    1.3740   26.5940 C   0  0  0  0  0  0  0  0  0  0  0  0
    5.9640    2.3770   25.7800 C   0  0  0  0  0  0  0  0  0  0  0  0
    5.0340    3.1940   25.0070 C   0  0  0  0  0  0  0  0  0  0  0  0
    3.7360    2.9960   24.7620 N   0  0  0  0  0  0  0  0  0  0  0  0
    3.2890    4.0610   23.9630 N   0  0  0  0  0  0  0  0  0  0  0  0
    4.2890    4.8980   23.7520 C   0  0  0  0  0  0  0  0  0  0  0  0
    5.3860    4.3870   24.3980 C   0  0  0  0  0  0  0  0  0  0  0  0
    7.0420    4.9810   24.5140 S   0  0  0  0  0  0  0  0  0  0  0  0
    7.1160    5.8300   25.6570 O   0  0  0  0  0  0  0  0  0  0  0  0
    7.3800    5.4510   23.2180 O   0  0  0  0  0  0  0  0  0  0  0  0
    5.7200   -0.4780   28.2450 C   0  0  0  0  0  0  0  0  0  0  0  0
    4.3310   -0.6890   28.3610 C   0  0  0  0  0  0  0  0  0  0  0  0
    3.8390   -1.6640   29.2170 C   0  0  0  0  0  0  0  0  0  0  0  0
    4.7420   -2.4360   29.9700 C   0  0  0  0  0  0  0  0  0  0  0  0
    6.1170   -2.2000   29.8750 C   0  0  0  0  0  0  0  0  0  0  0  0
    6.6030   -1.2370   29.0130 C   0  0  0  0  0  0  0  0  0  0  0  0
    4.2970   -3.4650   30.9370 C   0  0  0  0  0  0  0  0  0  0  0  0
    3.7140   -3.0740   31.9320 O   0  0  0  0  0  0  0  0  0  0  0  0
    4.5330   -4.7850   30.7920 N   0  0  0  0  0  0  0  0  0  0  0  0
    4.0670   -5.7290   31.8260 C   0  0  0  0  0  0  0  0  0  0  0  0
    3.2840   -6.9060   31.2240 C   0  0  0  0  0  0  0  0  0  0  0  0
    3.9280   -7.4240   29.9340 C   0  0  0  0  0  0  0  0  0  0  0  0
    2.9990   -8.4420   29.2780 C   0  0  0  0  0  0  0  0  0  0  0  0
    3.7490   -9.7720   29.3060 C   0  0  0  0  0  0  0  0  0  0  0  0
    4.3370   -9.9710   28.0200 O   0  0  0  0  0  0  0  0  0  0  0  0
    4.2230   -6.2780   28.9580 C   0  0  0  0  0  0  0  0  0  0  0  0
    5.2290   -5.3440   29.6210 C   0  0  0  0  0  0  0  0  0  0  0  0
    9.9913    3.3885   25.2056 H   0  0  0  0  0  0  0  0  0  0  0  0
    9.3638    2.5481   23.7472 H   0  0  0  0  0  0  0  0  0  0  0  0
    9.5410    4.3357   23.7472 H   0  0  0  0  0  0  0  0  0  0  0  0
    9.2901    1.9254   26.4159 H   0  0  0  0  0  0  0  0  0  0  0  0
    8.3508    0.1665   27.8736 H   0  0  0  0  0  0  0  0  0  0  0  0
    4.3375    1.2228   26.6417 H   0  0  0  0  0  0  0  0  0  0  0  0
    3.1666    2.2061   25.0979 H   0  0  0  0  0  0  0  0  0  0  0  0
    4.2495    5.8294   23.1682 H   0  0  0  0  0  0  0  0  0  0  0  0
    3.6335   -0.0775   27.7698 H   0  0  0  0  0  0  0  0  0  0  0  0
    2.7554   -1.8312   29.3057 H   0  0  0  0  0  0  0  0  0  0  0  0
    6.8158   -2.7852   30.4908 H   0  0  0  0  0  0  0  0  0  0  0  0
    7.6870   -1.0683   28.9319 H   0  0  0  0  0  0  0  0  0  0  0  0
    4.9406   -6.1233   32.3658 H   0  0  0  0  0  0  0  0  0  0  0  0
    3.3921   -5.1841   32.5025 H   0  0  0  0  0  0  0  0  0  0  0  0
    2.2594   -6.5738   31.0008 H   0  0  0  0  0  0  0  0  0  0  0  0
    3.2857   -7.7258   31.9575 H   0  0  0  0  0  0  0  0  0  0  0  0
    4.8848   -7.9023   30.1902 H   0  0  0  0  0  0  0  0  0  0  0  0
    2.7803   -8.1478   28.2409 H   0  0  0  0  0  0  0  0  0  0  0  0
    2.0366   -8.5098   29.8064 H   0  0  0  0  0  0  0  0  0  0  0  0
    3.0492  -10.5912   29.5279 H   0  0  0  0  0  0  0  0  0  0  0  0
    4.5258   -9.7577   30.0847 H   0  0  0  0  0  0  0  0  0  0  0  0
    5.2691  -10.2865   28.1286 H   0  0  0  0  0  0  0  0  0  0  0  0
    3.2959   -5.7301   28.7339 H   0  0  0  0  0  0  0  0  0  0  0  0
    4.6306   -6.6730   28.0158 H   0  0  0  0  0  0  0  0  0  0  0  0
    6.1231   -5.9024   29.9354 H   0  0  0  0  0  0  0  0  0  0  0  0
    5.5693   -4.5558   28.9334 H   0  0  0  0  0  0  0  0  0  0  0  0
 16 14  2  0
 12 11  2  0
 12 13  1  0
 11 10  1  0
  1  2  1  0
 13 14  1  0
 13  9  2  0
 14  2  1  0
 14 15  2  0
 10  9  1  0
  2  3  1  0
  9  8  1  0
  3  8  2  0
  3  4  1  0
  8  7  1  0
  4  5  2  0
  7  6  2  0
  5  6  1  0
  6 17  1  0
 31 30  1  0
 17 18  2  0
 17 22  1  0
 18 19  1  0
 32 33  1  0
 32 28  1  0
 22 21  2  0
 19 20  2  0
 29 30  1  0
 29 28  1  0
 33 25  1  0
 21 20  1  0
 28 27  1  0
 20 23  1  0
 25 23  1  0
 25 26  1  0
 23 24  2  0
 27 26  1  0
  1 34  1  0
  1 35  1  0
  1 36  1  0
  4 37  1  0
  5 38  1  0
  7 39  1  0
 10 40  1  0
 12 41  1  0
 18 42  1  0
 19 43  1  0
 21 44  1  0
 22 45  1  0
 26 46  1  0
 26 47  1  0
 27 48  1  0
 27 49  1  0
 28 50  1  0
 29 51  1  0
 29 52  1  0
 30 53  1  0
 30 54  1  0
 31 55  1  0
 32 56  1  0
 32 57  1  0
 33 58  1  0
 33 59  1  0
A    1
C1
A    2
N2
A    3
C3
A    4
C4
A    5
C5
A    6
C6
A    7
C7
A    8
C8
A    9
C9
A   10
N10
A   11
N12
A   12
C13
A   13
C14
A   14
S15
A   15
O16
A   16
O17
A   17
C18
A   18
C19
A   19
C20
A   20
C21
A   21
C22
A   22
C23
A   23
C24
A   24
O25
A   25
N26
A   26
C27
A   27
C28
A   28
C29
A   29
C30
A   30
C31
A   31
O32
A   32
C33
A   33
C34
M  END
