4I4H_Z9Z_A_602
     RDKit          3D

100103  0  0  0  0  0  0  0  0999 V2000
  -18.4410   20.2180   -6.2030 O   0  0  0  0  0  0  0  0  0  0  0  0
  -18.0020   19.9530   -7.3120 C   0  0  0  0  0  0  0  0  0  0  0  0
  -18.3820   20.7900   -8.3920 O   0  0  0  0  0  0  0  0  0  0  0  0
  -18.7140   22.1390   -8.1980 C   0  0  0  0  0  0  0  0  0  0  0  0
  -19.4150   22.3660   -9.4940 C   0  0  0  0  0  0  0  0  0  0  0  0
  -20.7860   22.6370   -9.4440 C   0  0  0  0  0  0  0  0  0  0  0  0
  -21.4960   22.8610  -10.5520 N   0  0  0  0  0  0  0  0  0  0  0  0
  -20.8260   22.7840  -11.7070 C   0  0  0  0  0  0  0  0  0  0  0  0
  -19.4600   22.4770  -11.8300 C   0  0  0  0  0  0  0  0  0  0  0  0
  -18.7110   22.2550  -10.6930 C   0  0  0  0  0  0  0  0  0  0  0  0
  -17.2240   18.9380   -7.6780 N   0  0  0  0  0  0  0  0  0  0  0  0
  -16.0920   18.4190   -6.9440 C   0  0  0  0  0  0  0  0  0  0  0  0
  -15.9850   19.0050   -5.5560 C   0  0  0  0  0  0  0  0  0  0  0  0
  -14.7850   19.8880   -5.5630 C   0  0  0  0  0  0  0  0  0  0  0  0
  -14.2670   20.3380   -4.3600 C   0  0  0  0  0  0  0  0  0  0  0  0
  -13.1460   21.1610   -4.3800 C   0  0  0  0  0  0  0  0  0  0  0  0
  -12.5560   21.5180   -5.5940 C   0  0  0  0  0  0  0  0  0  0  0  0
  -13.0850   21.0600   -6.7980 C   0  0  0  0  0  0  0  0  0  0  0  0
  -14.2080   20.2370   -6.7820 C   0  0  0  0  0  0  0  0  0  0  0  0
  -16.3340   16.9440   -6.7250 C   0  0  0  0  0  0  0  0  0  0  0  0
  -15.7530   16.2080   -7.9030 C   0  0  0  0  0  0  0  0  0  0  0  0
  -16.7890   15.7430   -8.9340 C   0  0  0  0  0  0  0  0  0  0  0  0
  -18.2310   16.1590   -8.6080 C   0  0  0  0  0  0  0  0  0  0  0  0
  -18.9080   16.9560   -9.7080 C   0  0  0  0  0  0  0  0  0  0  0  0
  -19.8680   17.8930   -9.3620 C   0  0  0  0  0  0  0  0  0  0  0  0
  -20.4970   18.6430  -10.3570 C   0  0  0  0  0  0  0  0  0  0  0  0
  -20.1900   18.4590  -11.7050 C   0  0  0  0  0  0  0  0  0  0  0  0
  -19.2390   17.5130  -12.0630 C   0  0  0  0  0  0  0  0  0  0  0  0
  -18.6170   16.7670  -11.0610 C   0  0  0  0  0  0  0  0  0  0  0  0
  -16.4100   16.1580  -10.2830 N   0  0  0  0  0  0  0  0  0  0  0  0
  -15.2270   16.6370  -10.6780 C   0  0  0  0  0  0  0  0  0  0  0  0
  -14.9250   17.9500  -10.6660 O   0  0  0  0  0  0  0  0  0  0  0  0
  -14.1560   15.6750  -11.1610 C   0  0  0  0  0  0  0  0  0  0  0  0
  -14.1230   14.4240  -10.2590 C   0  0  0  0  0  0  0  0  0  0  0  0
  -14.7270   13.1210  -10.8190 C   0  0  0  0  0  0  0  0  0  0  0  0
  -12.7090   14.1440   -9.8050 C   0  0  0  0  0  0  0  0  0  0  0  0
  -14.2200   15.4240  -12.6110 N   0  0  0  0  0  0  0  0  0  0  0  0
  -15.3230   15.1000  -13.3490 C   0  0  0  0  0  0  0  0  0  0  0  0
  -16.3740   15.7490  -13.3550 O   0  0  0  0  0  0  0  0  0  0  0  0
  -15.2500   14.0080  -14.1130 N   0  0  0  0  0  0  0  0  0  0  0  0
  -16.0350   12.7510  -13.7830 C   0  0  0  0  0  0  0  0  0  0  0  0
  -14.4010   13.9760  -15.3130 C   0  0  0  0  0  0  0  0  0  0  0  0
  -13.1770   13.1500  -14.9590 C   0  0  0  0  0  0  0  0  0  0  0  0
  -13.0290   11.8390  -15.3560 N   0  0  0  0  0  0  0  0  0  0  0  0
  -12.1270   13.6520  -14.1720 C   0  0  0  0  0  0  0  0  0  0  0  0
  -10.9690   12.3680  -14.0090 S   0  0  0  0  0  0  0  0  0  0  0  0
  -11.8770   11.2440  -14.9550 C   0  0  0  0  0  0  0  0  0  0  0  0
  -11.3270    9.8780  -15.1600 C   0  0  0  0  0  0  0  0  0  0  0  0
   -9.7700    9.9190  -15.2250 C   0  0  0  0  0  0  0  0  0  0  0  0
  -11.8340    9.0000  -13.9780 C   0  0  0  0  0  0  0  0  0  0  0  0
  -17.8239   22.7759   -8.0881 H   0  0  0  0  0  0  0  0  0  0  0  0
  -19.2900   22.3696   -7.2897 H   0  0  0  0  0  0  0  0  0  0  0  0
  -21.2918   22.6663   -8.4676 H   0  0  0  0  0  0  0  0  0  0  0  0
  -21.3879   22.9759  -12.6329 H   0  0  0  0  0  0  0  0  0  0  0  0
  -18.9924   22.4143  -12.8237 H   0  0  0  0  0  0  0  0  0  0  0  0
  -17.6395   22.0090  -10.7292 H   0  0  0  0  0  0  0  0  0  0  0  0
  -17.4501   18.4772   -8.5710 H   0  0  0  0  0  0  0  0  0  0  0  0
  -15.1864   18.6571   -7.5213 H   0  0  0  0  0  0  0  0  0  0  0  0
  -16.8862   19.5898   -5.3195 H   0  0  0  0  0  0  0  0  0  0  0  0
  -15.8942   18.2151   -4.7958 H   0  0  0  0  0  0  0  0  0  0  0  0
  -14.7335   20.0499   -3.4064 H   0  0  0  0  0  0  0  0  0  0  0  0
  -12.7224   21.5323   -3.4352 H   0  0  0  0  0  0  0  0  0  0  0  0
  -11.6669   22.1657   -5.5994 H   0  0  0  0  0  0  0  0  0  0  0  0
  -12.6199   21.3458   -7.7530 H   0  0  0  0  0  0  0  0  0  0  0  0
  -14.6362   19.8653   -7.7246 H   0  0  0  0  0  0  0  0  0  0  0  0
  -17.4140   16.7473   -6.6553 H   0  0  0  0  0  0  0  0  0  0  0  0
  -15.8621   16.6096   -5.7893 H   0  0  0  0  0  0  0  0  0  0  0  0
  -15.2208   15.3220   -7.5265 H   0  0  0  0  0  0  0  0  0  0  0  0
  -15.0915   16.9179   -8.4212 H   0  0  0  0  0  0  0  0  0  0  0  0
  -16.7837   14.6441   -8.8845 H   0  0  0  0  0  0  0  0  0  0  0  0
  -18.2158   16.7730   -7.6954 H   0  0  0  0  0  0  0  0  0  0  0  0
  -18.8095   15.2315   -8.4854 H   0  0  0  0  0  0  0  0  0  0  0  0
  -20.1339   18.0456   -8.3056 H   0  0  0  0  0  0  0  0  0  0  0  0
  -21.2492   19.3935  -10.0726 H   0  0  0  0  0  0  0  0  0  0  0  0
  -20.6963   19.0574  -12.4768 H   0  0  0  0  0  0  0  0  0  0  0  0
  -18.9798   17.3540  -13.1201 H   0  0  0  0  0  0  0  0  0  0  0  0
  -17.8747   16.0067  -11.3455 H   0  0  0  0  0  0  0  0  0  0  0  0
  -17.1350   16.0717  -11.0095 H   0  0  0  0  0  0  0  0  0  0  0  0
  -13.1687   16.1471  -11.0502 H   0  0  0  0  0  0  0  0  0  0  0  0
  -14.7908   14.7047   -9.4312 H   0  0  0  0  0  0  0  0  0  0  0  0
  -15.0291   12.4692   -9.9860 H   0  0  0  0  0  0  0  0  0  0  0  0
  -15.6063   13.3597  -11.4353 H   0  0  0  0  0  0  0  0  0  0  0  0
  -13.9766   12.6042  -11.4353 H   0  0  0  0  0  0  0  0  0  0  0  0
  -12.6716   14.1366   -8.7057 H   0  0  0  0  0  0  0  0  0  0  0  0
  -12.3876   13.1648  -10.1894 H   0  0  0  0  0  0  0  0  0  0  0  0
  -12.0387   14.9268  -10.1894 H   0  0  0  0  0  0  0  0  0  0  0  0
  -13.3321   15.5016  -13.1273 H   0  0  0  0  0  0  0  0  0  0  0  0
  -16.1052   12.6386  -12.6910 H   0  0  0  0  0  0  0  0  0  0  0  0
  -17.0461   12.8276  -14.2095 H   0  0  0  0  0  0  0  0  0  0  0  0
  -15.5225   11.8761  -14.2095 H   0  0  0  0  0  0  0  0  0  0  0  0
  -14.1016   14.9968  -15.5930 H   0  0  0  0  0  0  0  0  0  0  0  0
  -14.9394   13.5398  -16.1673 H   0  0  0  0  0  0  0  0  0  0  0  0
  -12.0528   14.6620  -13.7425 H   0  0  0  0  0  0  0  0  0  0  0  0
  -11.6660    9.4519  -16.1158 H   0  0  0  0  0  0  0  0  0  0  0  0
   -9.3606    9.9298  -14.2041 H   0  0  0  0  0  0  0  0  0  0  0  0
   -9.4017    9.0302  -15.7584 H   0  0  0  0  0  0  0  0  0  0  0  0
   -9.4490   10.8259  -15.7584 H   0  0  0  0  0  0  0  0  0  0  0  0
  -11.5597    9.4750  -13.0245 H   0  0  0  0  0  0  0  0  0  0  0  0
  -12.9280    8.9016  -14.0373 H   0  0  0  0  0  0  0  0  0  0  0  0
  -11.3724    8.0033  -14.0373 H   0  0  0  0  0  0  0  0  0  0  0  0
 44 43  1  0
 44 47  2  0
 42 43  1  0
 42 40  1  0
 49 48  1  0
 48 47  1  0
 48 50  1  0
 43 45  2  0
 47 46  1  0
 45 46  1  0
 40 41  1  0
 40 38  1  0
 39 38  2  0
 38 37  1  0
 37 33  1  0
 28 27  2  0
 28 29  1  0
  9  8  2  0
  9 10  1  0
  8  7  1  0
 27 26  1  0
 33 31  1  0
 33 34  1  0
 29 24  2  0
 35 34  1  0
 10  5  2  0
 31 32  2  0
 31 30  1  0
  7  6  2  0
 26 25  2  0
 30 22  1  0
 34 36  1  0
 24 25  1  0
 24 23  1  0
  5  6  1  0
  5  4  1  0
 22 23  1  0
 22 21  1  0
  3  4  1  0
  3  2  1  0
 21 20  1  0
 11  2  1  0
 11 12  1  0
  2  1  2  0
 12 20  1  0
 12 13  1  0
 18 19  2  0
 18 17  1  0
 19 14  1  0
 17 16  2  0
 14 13  1  0
 14 15  2  0
 16 15  1  0
  4 51  1  0
  4 52  1  0
  6 53  1  0
  8 54  1  0
  9 55  1  0
 10 56  1  0
 11 57  1  0
 12 58  1  0
 13 59  1  0
 13 60  1  0
 15 61  1  0
 16 62  1  0
 17 63  1  0
 18 64  1  0
 19 65  1  0
 20 66  1  0
 20 67  1  0
 21 68  1  0
 21 69  1  0
 22 70  1  0
 23 71  1  0
 23 72  1  0
 25 73  1  0
 26 74  1  0
 27 75  1  0
 28 76  1  0
 29 77  1  0
 30 78  1  0
 33 79  1  0
 34 80  1  0
 35 81  1  0
 35 82  1  0
 35 83  1  0
 36 84  1  0
 36 85  1  0
 36 86  1  0
 37 87  1  0
 41 88  1  0
 41 89  1  0
 41 90  1  0
 42 91  1  0
 42 92  1  0
 45 93  1  0
 48 94  1  0
 49 95  1  0
 49 96  1  0
 49 97  1  0
 50 98  1  0
 50 99  1  0
 50100  1  0
A    1
O30
A    2
C29
A    3
O31
A    4
C32
A    5
C33
A    6
C38
A    7
N37
A    8
C36
A    9
C35
A   10
C34
A   11
N28
A   12
C20
A   13
C21
A   14
C22
A   15
C27
A   16
C26
A   17
C25
A   18
C24
A   19
C23
A   20
C19
A   21
C18
A   22
C17
A   23
C39
A   24
C40
A   25
C45
A   26
C44
A   27
C43
A   28
C42
A   29
C41
A   30
N16
A   31
C14
A   32
O15
A   33
C13
A   34
C46
A   35
C48
A   36
C47
A   37
N12
A   38
C10
A   39
O11
A   40
N08
A   41
C09
A   42
C07
A   43
C06
A   44
N05
A   45
C49
A   46
S50
A   47
C04
A   48
C02
A   49
C03
A   50
C01
M  END
