2RKU_R78_A_500
     RDKit          3D

 77 81  0  0  0  0  0  0  0  0999 V2000
  -42.7990   11.9460   18.0890 N   0  0  0  0  0  0  0  0  0  0  0  0
  -44.0660   13.8570   14.7150 N   0  0  0  0  0  0  0  0  0  0  0  0
  -41.8640   12.4240   17.2470 C   0  0  0  0  0  0  0  0  0  0  0  0
  -43.0960   14.3700   13.7230 C   0  0  0  0  0  0  0  0  0  0  0  0
  -41.6760   14.2910   14.1160 C   0  0  0  0  0  0  0  0  0  0  0  0
  -46.3230   11.5110   18.7200 C   0  0  0  0  0  0  0  0  0  0  0  0
  -45.5350   13.9590   14.5600 C   0  0  0  0  0  0  0  0  0  0  0  0
  -42.8550   11.8550   12.8690 C   0  0  0  0  0  0  0  0  0  0  0  0
  -47.3450   14.9390   13.3030 C   0  0  0  0  0  0  0  0  0  0  0  0
  -46.3390   12.7770   14.0340 C   0  0  0  0  0  0  0  0  0  0  0  0
  -48.2690   10.5240   19.7090 C   0  0  0  0  0  0  0  0  0  0  0  0
  -47.1180   12.2960   17.8890 C   0  0  0  0  0  0  0  0  0  0  0  0
  -50.5580   11.0550   19.0150 C   0  0  0  0  0  0  0  0  0  0  0  0
  -52.7790   10.9790   18.1120 C   0  0  0  0  0  0  0  0  0  0  0  0
  -54.9580   12.0160   17.5680 C   0  0  0  0  0  0  0  0  0  0  0  0
  -54.5930    9.7410   16.8070 C   0  0  0  0  0  0  0  0  0  0  0  0
  -50.9800   10.6510   20.0970 O   0  0  0  0  0  0  0  0  0  0  0  0
  -51.3460   11.2340   17.9720 N   0  0  0  0  0  0  0  0  0  0  0  0
  -53.0940    9.8630   17.1200 C   0  0  0  0  0  0  0  0  0  0  0  0
  -55.2150   11.0440   16.4880 N   0  0  0  0  0  0  0  0  0  0  0  0
  -56.6790   10.8900   16.4050 C   0  0  0  0  0  0  0  0  0  0  0  0
  -53.4540   12.2600   17.6620 C   0  0  0  0  0  0  0  0  0  0  0  0
  -49.0750   11.2810   18.8710 C   0  0  0  0  0  0  0  0  0  0  0  0
  -46.8900   10.6250   19.6330 C   0  0  0  0  0  0  0  0  0  0  0  0
  -46.0520    9.8690   20.4330 O   0  0  0  0  0  0  0  0  0  0  0  0
  -46.4850    8.7790   21.2670 C   0  0  0  0  0  0  0  0  0  0  0  0
  -48.5230   12.1720   17.9390 C   0  0  0  0  0  0  0  0  0  0  0  0
  -44.9550   11.5360   18.7390 N   0  0  0  0  0  0  0  0  0  0  0  0
  -44.1150   12.0470   17.8240 C   0  0  0  0  0  0  0  0  0  0  0  0
  -44.5370   12.6780   16.7250 N   0  0  0  0  0  0  0  0  0  0  0  0
  -43.6260   13.2120   15.8720 C   0  0  0  0  0  0  0  0  0  0  0  0
  -47.5600   13.4390   13.4150 C   0  0  0  0  0  0  0  0  0  0  0  0
  -45.9180   15.1950   13.7660 C   0  0  0  0  0  0  0  0  0  0  0  0
  -43.1500   13.3440   12.5470 C   0  0  0  0  0  0  0  0  0  0  0  0
  -40.8350   14.8060   13.3360 O   0  0  0  0  0  0  0  0  0  0  0  0
  -41.2990   13.6610   15.2350 N   0  0  0  0  0  0  0  0  0  0  0  0
  -39.8810   13.5230   15.6240 C   0  0  0  0  0  0  0  0  0  0  0  0
  -42.2670   13.0880   16.1130 C   0  0  0  0  0  0  0  0  0  0  0  0
  -40.7943   12.2855   17.4630 H   0  0  0  0  0  0  0  0  0  0  0  0
  -43.3663   15.4205   13.5403 H   0  0  0  0  0  0  0  0  0  0  0  0
  -45.8290   14.0016   15.6191 H   0  0  0  0  0  0  0  0  0  0  0  0
  -42.8271   11.7143   13.9596 H   0  0  0  0  0  0  0  0  0  0  0  0
  -43.6454   11.2231   12.4378 H   0  0  0  0  0  0  0  0  0  0  0  0
  -41.8834   11.5721   12.4378 H   0  0  0  0  0  0  0  0  0  0  0  0
  -47.4730   15.2665   12.2607 H   0  0  0  0  0  0  0  0  0  0  0  0
  -48.0719   15.4964   13.9121 H   0  0  0  0  0  0  0  0  0  0  0  0
  -45.7686   12.2160   13.2791 H   0  0  0  0  0  0  0  0  0  0  0  0
  -46.5931   12.0450   14.8148 H   0  0  0  0  0  0  0  0  0  0  0  0
  -48.7279    9.8398   20.4378 H   0  0  0  0  0  0  0  0  0  0  0  0
  -46.6521   13.0112   17.1951 H   0  0  0  0  0  0  0  0  0  0  0  0
  -53.0986   10.6988   19.1266 H   0  0  0  0  0  0  0  0  0  0  0  0
  -55.4728   12.9620   17.3443 H   0  0  0  0  0  0  0  0  0  0  0  0
  -55.3332   11.6210   18.5236 H   0  0  0  0  0  0  0  0  0  0  0  0
  -54.7194    9.0697   15.9448 H   0  0  0  0  0  0  0  0  0  0  0  0
  -55.0899    9.3456   17.7052 H   0  0  0  0  0  0  0  0  0  0  0  0
  -50.9572   11.5490   17.0717 H   0  0  0  0  0  0  0  0  0  0  0  0
  -52.5558   10.0658   16.1823 H   0  0  0  0  0  0  0  0  0  0  0  0
  -52.7766    8.9156   17.5801 H   0  0  0  0  0  0  0  0  0  0  0  0
  -57.1011   10.8456   17.4198 H   0  0  0  0  0  0  0  0  0  0  0  0
  -57.1080   11.7480   15.8666 H   0  0  0  0  0  0  0  0  0  0  0  0
  -56.9201    9.9615   15.8666 H   0  0  0  0  0  0  0  0  0  0  0  0
  -53.2538   13.0592   18.3908 H   0  0  0  0  0  0  0  0  0  0  0  0
  -53.0624   12.5642   16.6801 H   0  0  0  0  0  0  0  0  0  0  0  0
  -46.3734    9.0598   22.3247 H   0  0  0  0  0  0  0  0  0  0  0  0
  -47.5410    8.5536   21.0569 H   0  0  0  0  0  0  0  0  0  0  0  0
  -45.8716    7.8904   21.0569 H   0  0  0  0  0  0  0  0  0  0  0  0
  -49.1668   12.7575   17.2662 H   0  0  0  0  0  0  0  0  0  0  0  0
  -44.5111   11.1065   19.5633 H   0  0  0  0  0  0  0  0  0  0  0  0
  -48.4385   13.2443   14.0477 H   0  0  0  0  0  0  0  0  0  0  0  0
  -47.7214   13.0240   12.4092 H   0  0  0  0  0  0  0  0  0  0  0  0
  -45.8726   16.0920   14.4011 H   0  0  0  0  0  0  0  0  0  0  0  0
  -45.2352   15.3720   12.9220 H   0  0  0  0  0  0  0  0  0  0  0  0
  -44.1611   13.3920   12.1164 H   0  0  0  0  0  0  0  0  0  0  0  0
  -42.3325   13.6487   11.8770 H   0  0  0  0  0  0  0  0  0  0  0  0
  -39.8008   13.5152   16.7210 H   0  0  0  0  0  0  0  0  0  0  0  0
  -39.4800   12.5816   15.2203 H   0  0  0  0  0  0  0  0  0  0  0  0
  -39.3060   14.3694   15.2203 H   0  0  0  0  0  0  0  0  0  0  0  0
  1  3  2  0
  1 29  1  0
  2  4  1  0
  2  7  1  0
  2 31  1  0
  3 38  1  0
  4  5  1  0
  4 34  1  0
  5 35  2  0
  5 36  1  0
  6 12  1  0
  6 24  2  0
  6 28  1  0
  7 10  1  0
  7 33  1  0
  8 34  1  0
  9 32  1  0
  9 33  1  0
 10 32  1  0
 11 23  2  0
 11 24  1  0
 12 27  2  0
 13 17  2  0
 13 18  1  0
 13 23  1  0
 14 18  1  0
 14 19  1  0
 14 22  1  0
 15 20  1  0
 15 22  1  0
 16 19  1  0
 16 20  1  0
 20 21  1  0
 23 27  1  0
 24 25  1  0
 25 26  1  0
 28 29  1  0
 29 30  2  0
 30 31  1  0
 31 38  2  0
 36 37  1  0
 36 38  1  0
  3 39  1  0
  4 40  1  0
  7 41  1  0
  8 42  1  0
  8 43  1  0
  8 44  1  0
  9 45  1  0
  9 46  1  0
 10 47  1  0
 10 48  1  0
 11 49  1  0
 12 50  1  0
 14 51  1  0
 15 52  1  0
 15 53  1  0
 16 54  1  0
 16 55  1  0
 18 56  1  0
 19 57  1  0
 19 58  1  0
 21 59  1  0
 21 60  1  0
 21 61  1  0
 22 62  1  0
 22 63  1  0
 26 64  1  0
 26 65  1  0
 26 66  1  0
 27 67  1  0
 28 68  1  0
 32 69  1  0
 32 70  1  0
 33 71  1  0
 33 72  1  0
 34 73  1  0
 34 74  1  0
 37 75  1  0
 37 76  1  0
 37 77  1  0
A    1
N1
A    2
N3
A    3
C4
A    4
C5
A    5
C6
A    6
C7
A    7
C8
A    8
C10
A    9
C13
A   10
C15
A   11
C17
A   12
C20
A   13
C21
A   14
C22
A   15
C24
A   16
C28
A   17
O2
A   18
N6
A   19
C29
A   20
N7
A   21
C30
A   22
C23
A   23
C18
A   24
C16
A   25
O3
A   26
C31
A   27
C19
A   28
N5
A   29
C1
A   30
N2
A   31
C2
A   32
C14
A   33
C12
A   34
C9
A   35
O1
A   36
N4
A   37
C11
A   38
C3
M  END
