4I6H_1C8_A_401
     RDKit          3D

 52 56  0  0  0  0  0  0  0  0999 V2000
   13.7190    4.1170   10.1560 O   0  0  0  0  0  0  0  0  0  0  0  0
   12.6470    4.7280   10.2210 C   0  0  0  0  0  0  0  0  0  0  0  0
   11.4290    4.0220   10.0570 N   0  0  0  0  0  0  0  0  0  0  0  0
   11.4480    2.5900    9.7820 C   0  0  0  0  0  0  0  0  0  0  0  0
   10.2200    4.7080   10.0900 C   0  0  0  0  0  0  0  0  0  0  0  0
   12.6810    6.1780   10.4590 C   0  0  0  0  0  0  0  0  0  0  0  0
   13.4640    6.8790    9.3500 C   0  0  0  0  0  0  0  0  0  0  0  0
   12.8110    6.8680    7.9960 C   0  0  0  0  0  0  0  0  0  0  0  0
   11.4000    6.8470   10.5220 N   0  0  0  0  0  0  0  0  0  0  0  0
   11.3590    8.2610   10.8260 C   0  0  0  0  0  0  0  0  0  0  0  0
   11.3430    9.3510    9.7660 C   0  0  0  0  0  0  0  0  0  0  0  0
   11.9910   10.5470   10.4440 C   0  0  0  0  0  0  0  0  0  0  0  0
   12.6490   10.0870   11.7400 C   0  0  0  0  0  0  0  0  0  0  0  0
   12.3450    8.6210   11.9150 C   0  0  0  0  0  0  0  0  0  0  0  0
   10.2220    6.1480   10.3360 C   0  0  0  0  0  0  0  0  0  0  0  0
    9.0650    6.7850   10.3830 N   0  0  0  0  0  0  0  0  0  0  0  0
    7.9150    6.1180   10.2400 C   0  0  0  0  0  0  0  0  0  0  0  0
    7.8890    4.8060    9.9920 N   0  0  0  0  0  0  0  0  0  0  0  0
    9.0010    4.0900    9.9040 C   0  0  0  0  0  0  0  0  0  0  0  0
    6.7890    6.7850   10.2650 N   0  0  0  0  0  0  0  0  0  0  0  0
    5.8230    6.4940    9.4430 C   0  0  0  0  0  0  0  0  0  0  0  0
    4.8280    7.4100    9.7070 C   0  0  0  0  0  0  0  0  0  0  0  0
    5.2380    8.2350   10.6630 N   0  0  0  0  0  0  0  0  0  0  0  0
    6.4710    7.8390   10.9530 C   0  0  0  0  0  0  0  0  0  0  0  0
    7.2610    8.5140   12.0130 C   0  0  0  0  0  0  0  0  0  0  0  0
    7.8530    7.7130   12.9620 C   0  0  0  0  0  0  0  0  0  0  0  0
    8.5830    8.9010   13.9330 S   0  0  0  0  0  0  0  0  0  0  0  0
    8.0650   10.2810   13.0560 C   0  0  0  0  0  0  0  0  0  0  0  0
    7.3370    9.8640   12.0330 N   0  0  0  0  0  0  0  0  0  0  0  0
   11.4554    2.0344   10.7313 H   0  0  0  0  0  0  0  0  0  0  0  0
   10.5534    2.3158    9.2036 H   0  0  0  0  0  0  0  0  0  0  0  0
   12.3495    2.3396    9.2036 H   0  0  0  0  0  0  0  0  0  0  0  0
   13.1472    6.2548   11.4524 H   0  0  0  0  0  0  0  0  0  0  0  0
   14.4420    6.3838    9.2595 H   0  0  0  0  0  0  0  0  0  0  0  0
   13.5306    7.9362    9.6466 H   0  0  0  0  0  0  0  0  0  0  0  0
   11.7178    6.8496    8.1163 H   0  0  0  0  0  0  0  0  0  0  0  0
   13.1036    7.7712    7.4405 H   0  0  0  0  0  0  0  0  0  0  0  0
   13.1338    5.9752    7.4405 H   0  0  0  0  0  0  0  0  0  0  0  0
   10.3002    8.2964   11.1220 H   0  0  0  0  0  0  0  0  0  0  0  0
   10.3115    9.5860    9.4648 H   0  0  0  0  0  0  0  0  0  0  0  0
   11.8714    9.0518    8.8488 H   0  0  0  0  0  0  0  0  0  0  0  0
   12.7515   10.9810    9.7782 H   0  0  0  0  0  0  0  0  0  0  0  0
   11.2276   11.3076   10.6646 H   0  0  0  0  0  0  0  0  0  0  0  0
   13.7369   10.2394   11.6821 H   0  0  0  0  0  0  0  0  0  0  0  0
   12.2632   10.6643   12.5932 H   0  0  0  0  0  0  0  0  0  0  0  0
   11.9023    8.4390   12.9054 H   0  0  0  0  0  0  0  0  0  0  0  0
   13.2581    8.0115   11.8461 H   0  0  0  0  0  0  0  0  0  0  0  0
    8.9521    3.0132    9.6847 H   0  0  0  0  0  0  0  0  0  0  0  0
    5.8046    5.6873    8.6954 H   0  0  0  0  0  0  0  0  0  0  0  0
    3.8498    7.4511    9.2055 H   0  0  0  0  0  0  0  0  0  0  0  0
    7.8536    6.6177   13.0632 H   0  0  0  0  0  0  0  0  0  0  0  0
    8.2971   11.3280   13.3009 H   0  0  0  0  0  0  0  0  0  0  0  0
  8  7  1  0
  7  6  1  0
 21 22  2  0
 21 20  1  0
 22 23  1  0
 11 12  1  0
 11 10  1  0
  4  3  1  0
 19 18  2  0
 19  5  1  0
 18 17  1  0
  3  5  1  0
  3  2  1  0
  5 15  2  0
  1  2  2  0
  2  6  1  0
 17 20  1  0
 17 16  2  0
 20 24  1  0
 15 16  1  0
 15  9  1  0
 12 13  1  0
  6  9  1  0
  9 10  1  0
 23 24  2  0
 10 14  1  0
 24 25  1  0
 13 14  1  0
 25 29  1  0
 25 26  2  0
 29 28  2  0
 26 27  1  0
 28 27  1  0
  4 30  1  0
  4 31  1  0
  4 32  1  0
  6 33  1  0
  7 34  1  0
  7 35  1  0
  8 36  1  0
  8 37  1  0
  8 38  1  0
 10 39  1  0
 11 40  1  0
 11 41  1  0
 12 42  1  0
 12 43  1  0
 13 44  1  0
 13 45  1  0
 14 46  1  0
 14 47  1  0
 19 48  1  0
 21 49  1  0
 22 50  1  0
 26 51  1  0
 28 52  1  0
A    1
O12
A    2
C9
A    3
N10
A    4
C11
A    5
C2
A    6
C8
A    7
C13
A    8
C14
A    9
N7
A   10
C15
A   11
C19
A   12
C18
A   13
C17
A   14
C16
A   15
C3
A   16
N4
A   17
C5
A   18
N6
A   19
C1
A   20
N20
A   21
C24
A   22
C23
A   23
N22
A   24
C21
A   25
C25
A   26
C29
A   27
S28
A   28
C27
A   29
N26
M  END
