4I6Q_1DT_A_1202
     RDKit          3D

 42 45  0  0  0  0  0  0  0  0999 V2000
    0.5090  -13.2080   -4.1710 C   0  0  0  0  0  0  0  0  0  0  0  0
    0.0160  -11.9270   -3.8610 C   0  0  0  0  0  0  0  0  0  0  0  0
   -1.2630  -12.0820   -3.4430 N   0  0  0  0  0  0  0  0  0  0  0  0
   -0.5380  -14.1740   -3.8890 C   0  0  0  0  0  0  0  0  0  0  0  0
   -1.6410  -13.3940   -3.4540 C   0  0  0  0  0  0  0  0  0  0  0  0
   -2.8020  -13.9700   -3.1100 N   0  0  0  0  0  0  0  0  0  0  0  0
   -2.9150  -15.2870   -3.1930 C   0  0  0  0  0  0  0  0  0  0  0  0
   -1.8490  -16.0740   -3.6720 C   0  0  0  0  0  0  0  0  0  0  0  0
   -0.6730  -15.5440   -3.9710 N   0  0  0  0  0  0  0  0  0  0  0  0
    1.8040  -13.5650   -4.6850 C   0  0  0  0  0  0  0  0  0  0  0  0
    2.0280  -14.8860   -4.8890 N   0  0  0  0  0  0  0  0  0  0  0  0
    2.6720  -12.7520   -4.9000 O   0  0  0  0  0  0  0  0  0  0  0  0
    3.2620  -15.5060   -5.4140 C   0  0  0  0  0  0  0  0  0  0  0  0
    3.2850  -15.6750   -6.9440 C   0  0  0  0  0  0  0  0  0  0  0  0
    3.4490  -16.8740   -4.6640 C   0  0  0  0  0  0  0  0  0  0  0  0
    2.0070  -16.1400   -7.6250 C   0  0  0  0  0  0  0  0  0  0  0  0
    2.5270  -14.7340   -7.8900 C   0  0  0  0  0  0  0  0  0  0  0  0
   -2.0730  -17.4230   -3.6550 O   0  0  0  0  0  0  0  0  0  0  0  0
   -1.0910  -18.2510   -4.2050 C   0  0  0  0  0  0  0  0  0  0  0  0
   -0.4840  -18.0130   -5.4340 C   0  0  0  0  0  0  0  0  0  0  0  0
    0.4340  -18.9510   -5.9860 C   0  0  0  0  0  0  0  0  0  0  0  0
    0.7160  -20.1480   -5.3320 C   0  0  0  0  0  0  0  0  0  0  0  0
    0.0720  -20.4190   -4.1210 C   0  0  0  0  0  0  0  0  0  0  0  0
   -0.8450  -19.5100   -3.5670 C   0  0  0  0  0  0  0  0  0  0  0  0
    0.5661  -10.9779   -3.9428 H   0  0  0  0  0  0  0  0  0  0  0  0
   -1.8749  -11.3060   -3.1527 H   0  0  0  0  0  0  0  0  0  0  0  0
   -3.8526  -15.7723   -2.8842 H   0  0  0  0  0  0  0  0  0  0  0  0
    1.2559  -15.5256   -4.6530 H   0  0  0  0  0  0  0  0  0  0  0  0
    4.1076  -14.8298   -5.2197 H   0  0  0  0  0  0  0  0  0  0  0  0
    4.3346  -15.9996   -6.8893 H   0  0  0  0  0  0  0  0  0  0  0  0
    3.4256  -16.7028   -3.5777 H   0  0  0  0  0  0  0  0  0  0  0  0
    2.6363  -17.5601   -4.9446 H   0  0  0  0  0  0  0  0  0  0  0  0
    4.4160  -17.3168   -4.9446 H   0  0  0  0  0  0  0  0  0  0  0  0
    1.0911  -16.2835   -7.0330 H   0  0  0  0  0  0  0  0  0  0  0  0
    1.7346  -16.9972   -8.2583 H   0  0  0  0  0  0  0  0  0  0  0  0
    2.9526  -14.4800   -8.8720 H   0  0  0  0  0  0  0  0  0  0  0  0
    2.1082  -13.7199   -7.8106 H   0  0  0  0  0  0  0  0  0  0  0  0
   -0.7159  -17.0899   -5.9854 H   0  0  0  0  0  0  0  0  0  0  0  0
    0.9278  -18.7270   -6.9431 H   0  0  0  0  0  0  0  0  0  0  0  0
    1.4312  -20.8659   -5.7598 H   0  0  0  0  0  0  0  0  0  0  0  0
    0.2869  -21.3598   -3.5930 H   0  0  0  0  0  0  0  0  0  0  0  0
   -1.3767  -19.7663   -2.6388 H   0  0  0  0  0  0  0  0  0  0  0  0
 17 16  1  0
 17 14  1  0
 16 14  1  0
 14 13  1  0
 21 20  2  0
 21 22  1  0
 20 19  1  0
 13 11  1  0
 13 15  1  0
 22 23  2  0
 12 10  2  0
 11 10  1  0
 10  1  1  0
 19 18  1  0
 19 24  2  0
  1  4  1  0
  1  2  2  0
 23 24  1  0
  9  4  2  0
  9  8  1  0
  4  5  1  0
  2  3  1  0
  8 18  1  0
  8  7  2  0
  5  3  1  0
  5  6  2  0
  7  6  1  0
  2 25  1  0
  3 26  1  0
  7 27  1  0
 11 28  1  0
 13 29  1  0
 14 30  1  0
 15 31  1  0
 15 32  1  0
 15 33  1  0
 16 34  1  0
 16 35  1  0
 17 36  1  0
 17 37  1  0
 20 38  1  0
 21 39  1  0
 22 40  1  0
 23 41  1  0
 24 42  1  0
A    1
C1
A    2
C2
A    3
N3
A    4
C4
A    5
C5
A    6
N6
A    7
C7
A    8
C8
A    9
N9
A   10
C10
A   11
N11
A   12
O12
A   13
C13
A   14
C14
A   15
C15
A   16
C16
A   17
C17
A   18
O18
A   19
C19
A   20
C20
A   21
C21
A   22
C22
A   23
C23
A   24
C24
M  END
