4I7F_NVE_A_601
     RDKit          3D

 70 73  0  0  0  0  0  0  0  0999 V2000
   12.5980   12.0990   15.1900 C   0  0  0  0  0  0  0  0  0  0  0  0
   12.5710   13.3150   16.1420 C   0  0  0  0  0  0  0  0  0  0  0  0
   11.2480   13.8000   16.6510 N   0  0  0  0  0  0  0  0  0  0  0  0
   11.1920   14.8250   17.6520 C   0  0  0  0  0  0  0  0  0  0  0  0
   10.4640   14.6860   18.9080 C   0  0  0  0  0  0  0  0  0  0  0  0
    9.7490   13.4950   19.2660 N   0  0  0  0  0  0  0  0  0  0  0  0
    9.7630   13.1390   20.7370 C   0  0  0  0  0  0  0  0  0  0  0  0
    9.0540   12.6430   18.4350 C   0  0  0  0  0  0  0  0  0  0  0  0
    8.4840   11.6380   18.9060 O   0  0  0  0  0  0  0  0  0  0  0  0
    8.9230   12.8420   16.9860 C   0  0  0  0  0  0  0  0  0  0  0  0
    7.6870   12.4980   16.3620 C   0  0  0  0  0  0  0  0  0  0  0  0
    7.4930   12.6920   14.9240 C   0  0  0  0  0  0  0  0  0  0  0  0
    8.5450   13.2210   14.1460 C   0  0  0  0  0  0  0  0  0  0  0  0
    9.7130   13.5440   14.7590 N   0  0  0  0  0  0  0  0  0  0  0  0
    9.9690   13.3900   16.1360 C   0  0  0  0  0  0  0  0  0  0  0  0
   10.4770   15.8210   19.8170 C   0  0  0  0  0  0  0  0  0  0  0  0
   11.1710   17.0200   19.5100 C   0  0  0  0  0  0  0  0  0  0  0  0
   11.8800   17.1010   18.2630 C   0  0  0  0  0  0  0  0  0  0  0  0
   11.8660   16.0190   17.3850 N   0  0  0  0  0  0  0  0  0  0  0  0
    6.2420    2.5690   11.6860 C   0  0  0  0  0  0  0  0  0  0  0  0
    6.0890    3.3960   12.9980 C   0  0  0  0  0  0  0  0  0  0  0  0
    6.4130    2.5900   14.2150 O   0  0  0  0  0  0  0  0  0  0  0  0
    7.4430    3.3090   15.3020 P   0  0  0  0  0  0  0  0  0  0  0  0
    6.6950    4.9040   15.6710 C   0  0  0  0  0  0  0  0  0  0  0  0
    7.2870    5.8700   14.8150 O   0  0  0  0  0  0  0  0  0  0  0  0
    6.8070    7.1600   14.9080 C   0  0  0  0  0  0  0  0  0  0  0  0
    6.7980    7.9060   13.6720 C   0  0  0  0  0  0  0  0  0  0  0  0
    6.3200    9.2420   13.6360 C   0  0  0  0  0  0  0  0  0  0  0  0
    5.8230    9.8840   14.8690 C   0  0  0  0  0  0  0  0  0  0  0  0
    5.8240    9.1470   16.1280 C   0  0  0  0  0  0  0  0  0  0  0  0
    6.3120    7.7860   16.1650 C   0  0  0  0  0  0  0  0  0  0  0  0
    5.2960   11.3350   14.8730 C   0  0  0  0  0  0  0  0  0  0  0  0
    6.1600   12.3720   14.0910 C   0  0  0  0  0  0  0  0  0  0  0  0
    8.9320    3.4580   14.6400 O   0  0  0  0  0  0  0  0  0  0  0  0
    9.4530    2.1700   14.0550 C   0  0  0  0  0  0  0  0  0  0  0  0
   10.1510    1.2270   15.0600 C   0  0  0  0  0  0  0  0  0  0  0  0
    7.5040    2.5850   16.6190 O   0  0  0  0  0  0  0  0  0  0  0  0
   12.6186   11.1713   15.7807 H   0  0  0  0  0  0  0  0  0  0  0  0
   11.6994   12.1099   14.5557 H   0  0  0  0  0  0  0  0  0  0  0  0
   13.4952   12.1498   14.5557 H   0  0  0  0  0  0  0  0  0  0  0  0
   13.1794   13.0526   17.0200 H   0  0  0  0  0  0  0  0  0  0  0  0
   12.9410   14.1465   15.5243 H   0  0  0  0  0  0  0  0  0  0  0  0
    9.7268   14.0599   21.3375 H   0  0  0  0  0  0  0  0  0  0  0  0
    8.8887   12.5139   20.9713 H   0  0  0  0  0  0  0  0  0  0  0  0
   10.6836   12.5845   20.9713 H   0  0  0  0  0  0  0  0  0  0  0  0
    6.8695   12.0818   16.9690 H   0  0  0  0  0  0  0  0  0  0  0  0
    8.4212   13.3690   13.0631 H   0  0  0  0  0  0  0  0  0  0  0  0
    9.9330   15.7480   20.7703 H   0  0  0  0  0  0  0  0  0  0  0  0
   11.1663   17.8680   20.2106 H   0  0  0  0  0  0  0  0  0  0  0  0
   12.4328   18.0154   18.0018 H   0  0  0  0  0  0  0  0  0  0  0  0
    6.4368    1.5159   11.9370 H   0  0  0  0  0  0  0  0  0  0  0  0
    5.3154    2.6403   11.0975 H   0  0  0  0  0  0  0  0  0  0  0  0
    7.0817    2.9671   11.0975 H   0  0  0  0  0  0  0  0  0  0  0  0
    6.7690    4.2595   12.9537 H   0  0  0  0  0  0  0  0  0  0  0  0
    5.0394    3.7162   13.0747 H   0  0  0  0  0  0  0  0  0  0  0  0
    6.8818    5.1707   16.7217 H   0  0  0  0  0  0  0  0  0  0  0  0
    5.6074    4.8643   15.5111 H   0  0  0  0  0  0  0  0  0  0  0  0
    7.1653    7.4342   12.7487 H   0  0  0  0  0  0  0  0  0  0  0  0
    6.3199    9.7999   12.6880 H   0  0  0  0  0  0  0  0  0  0  0  0
    5.4545    9.6253   17.0471 H   0  0  0  0  0  0  0  0  0  0  0  0
    6.3174    7.2211   17.1089 H   0  0  0  0  0  0  0  0  0  0  0  0
    5.2330   11.6685   15.9193 H   0  0  0  0  0  0  0  0  0  0  0  0
    4.3260   11.3025   14.3552 H   0  0  0  0  0  0  0  0  0  0  0  0
    6.4317   11.9571   13.1091 H   0  0  0  0  0  0  0  0  0  0  0  0
    5.5837   13.2983   13.9503 H   0  0  0  0  0  0  0  0  0  0  0  0
    8.6034    1.6284   13.6135 H   0  0  0  0  0  0  0  0  0  0  0  0
   10.2205    2.4562   13.3208 H   0  0  0  0  0  0  0  0  0  0  0  0
    9.9153    1.5455   16.0862 H   0  0  0  0  0  0  0  0  0  0  0  0
    9.7955    0.1977   14.9047 H   0  0  0  0  0  0  0  0  0  0  0  0
   11.2393    1.2664   14.9047 H   0  0  0  0  0  0  0  0  0  0  0  0
 20 21  1  0
 21 22  1  0
 28 27  1  0
 28 29  2  0
 27 26  2  0
 35 34  1  0
 35 36  1  0
 33 32  1  0
 33 12  1  0
 13 14  1  0
 13 12  2  0
 22 23  1  0
 34 23  1  0
 14 15  2  0
 25 26  1  0
 25 24  1  0
 29 32  1  0
 29 30  1  0
 26 31  1  0
 12 11  1  0
  1  2  1  0
 23 24  1  0
 23 37  2  0
 30 31  2  0
 15  3  1  0
 15 10  1  0
  2  3  1  0
 11 10  2  0
  3  4  1  0
 10  8  1  0
 19  4  1  0
 19 18  2  0
  4  5  2  0
 18 17  1  0
  8  9  2  0
  8  6  1  0
  5  6  1  0
  5 16  1  0
  6  7  1  0
 17 16  2  0
  1 38  1  0
  1 39  1  0
  1 40  1  0
  2 41  1  0
  2 42  1  0
  7 43  1  0
  7 44  1  0
  7 45  1  0
 11 46  1  0
 13 47  1  0
 16 48  1  0
 17 49  1  0
 18 50  1  0
 20 51  1  0
 20 52  1  0
 20 53  1  0
 21 54  1  0
 21 55  1  0
 24 56  1  0
 24 57  1  0
 27 58  1  0
 28 59  1  0
 30 60  1  0
 31 61  1  0
 32 62  1  0
 32 63  1  0
 33 64  1  0
 33 65  1  0
 35 66  1  0
 35 67  1  0
 36 68  1  0
 36 69  1  0
 36 70  1  0
A    1
C1
A    2
C2
A    3
N3
A    4
C4
A    5
C5
A    6
N6
A    7
C7
A    8
C8
A    9
O9
A   10
C10
A   11
C11
A   12
C12
A   13
C13
A   14
N14
A   15
C15
A   16
C16
A   17
C17
A   18
C18
A   19
N19
A   20
C20
A   21
C21
A   22
O22
A   23
P23
A   24
C24
A   25
O25
A   26
C26
A   27
C27
A   28
C28
A   29
C29
A   30
C30
A   31
C31
A   32
C32
A   33
C33
A   34
O34
A   35
C35
A   36
C36
A   37
O37
M  END
