4I8Z_G08_A_101
     RDKit          3D

 77 80  0  0  0  0  0  0  0  0999 V2000
  -17.2240    0.5750   -2.6400 O   0  0  0  0  0  0  0  0  0  0  0  0
  -18.2990    1.0550   -2.9940 C   0  0  0  0  0  0  0  0  0  0  0  0
  -18.6020    1.0790   -4.3500 O   0  0  0  0  0  0  0  0  0  0  0  0
  -17.6440    0.9740   -5.3270 C   0  0  0  0  0  0  0  0  0  0  0  0
  -17.3790    2.3080   -5.9130 C   0  0  0  0  0  0  0  0  0  0  0  0
  -17.4080    3.5630   -5.1090 C   0  0  0  0  0  0  0  0  0  0  0  0
  -18.9560    3.8420   -5.1140 C   0  0  0  0  0  0  0  0  0  0  0  0
  -19.2760    3.5360   -6.4770 O   0  0  0  0  0  0  0  0  0  0  0  0
  -18.4740    2.4590   -6.8530 C   0  0  0  0  0  0  0  0  0  0  0  0
  -19.0890    1.2120   -6.9970 O   0  0  0  0  0  0  0  0  0  0  0  0
  -18.2230    0.2170   -6.4880 C   0  0  0  0  0  0  0  0  0  0  0  0
  -19.3720    1.2320   -2.1370 N   0  0  0  0  0  0  0  0  0  0  0  0
  -19.1480    1.2430   -0.7080 C   0  0  0  0  0  0  0  0  0  0  0  0
  -19.4460    2.6330   -0.1550 C   0  0  0  0  0  0  0  0  0  0  0  0
  -18.4730    3.6290   -0.7850 C   0  0  0  0  0  0  0  0  0  0  0  0
  -18.9050    4.6210   -1.6990 C   0  0  0  0  0  0  0  0  0  0  0  0
  -17.9990    5.5120   -2.2620 C   0  0  0  0  0  0  0  0  0  0  0  0
  -16.6610    5.4140   -1.9370 C   0  0  0  0  0  0  0  0  0  0  0  0
  -16.2080    4.4590   -1.0340 C   0  0  0  0  0  0  0  0  0  0  0  0
  -17.1180    3.5640   -0.4560 C   0  0  0  0  0  0  0  0  0  0  0  0
  -20.1150    0.2160   -0.1090 C   0  0  0  0  0  0  0  0  0  0  0  0
  -21.3940    0.6420   -0.4130 O   0  0  0  0  0  0  0  0  0  0  0  0
  -19.8950   -0.1690    1.3600 C   0  0  0  0  0  0  0  0  0  0  0  0
  -18.5710   -0.8420    1.4390 N   0  0  0  0  0  0  0  0  0  0  0  0
  -18.5810   -2.2980    1.7250 C   0  0  0  0  0  0  0  0  0  0  0  0
  -18.8960   -3.0900    0.4450 C   0  0  0  0  0  0  0  0  0  0  0  0
  -19.2360   -4.5130    0.8770 C   0  0  0  0  0  0  0  0  0  0  0  0
  -17.6620   -3.1830   -0.3960 C   0  0  0  0  0  0  0  0  0  0  0  0
  -17.4060   -0.0590    2.3700 S   0  0  0  0  0  0  0  0  0  0  0  0
  -17.5300    1.3790    2.2000 O   0  0  0  0  0  0  0  0  0  0  0  0
  -16.1320   -0.5190    1.9030 O   0  0  0  0  0  0  0  0  0  0  0  0
  -17.5900   -0.4480    4.1070 C   0  0  0  0  0  0  0  0  0  0  0  0
  -16.7650   -1.4600    4.5850 C   0  0  0  0  0  0  0  0  0  0  0  0
  -16.8460   -1.8720    5.9090 C   0  0  0  0  0  0  0  0  0  0  0  0
  -18.5970    0.2030    4.8240 C   0  0  0  0  0  0  0  0  0  0  0  0
  -18.6580   -0.2240    6.1750 C   0  0  0  0  0  0  0  0  0  0  0  0
  -17.8040   -1.2440    6.6880 C   0  0  0  0  0  0  0  0  0  0  0  0
  -17.8740   -1.6870    8.1280 C   0  0  0  0  0  0  0  0  0  0  0  0
  -18.8800   -1.4640    8.7190 O   0  0  0  0  0  0  0  0  0  0  0  0
  -16.8060   -2.3630    8.8090 N   0  0  0  0  0  0  0  0  0  0  0  0
  -16.7543    0.5085   -4.8778 H   0  0  0  0  0  0  0  0  0  0  0  0
  -16.3269    2.2582   -6.2301 H   0  0  0  0  0  0  0  0  0  0  0  0
  -17.0230    3.4064   -4.0906 H   0  0  0  0  0  0  0  0  0  0  0  0
  -16.7845    4.3815   -5.4979 H   0  0  0  0  0  0  0  0  0  0  0  0
  -19.1797    4.8912   -4.8707 H   0  0  0  0  0  0  0  0  0  0  0  0
  -19.5264    3.2661   -4.3704 H   0  0  0  0  0  0  0  0  0  0  0  0
  -18.1499    2.7375   -7.8666 H   0  0  0  0  0  0  0  0  0  0  0  0
  -18.7717   -0.6791   -6.1626 H   0  0  0  0  0  0  0  0  0  0  0  0
  -17.4891   -0.1804   -7.2046 H   0  0  0  0  0  0  0  0  0  0  0  0
  -20.3225    1.3549   -2.5142 H   0  0  0  0  0  0  0  0  0  0  0  0
  -18.1057    0.9949   -0.4589 H   0  0  0  0  0  0  0  0  0  0  0  0
  -19.3190    2.6319    0.9376 H   0  0  0  0  0  0  0  0  0  0  0  0
  -20.4813    2.9177   -0.3938 H   0  0  0  0  0  0  0  0  0  0  0  0
  -19.9700    4.6870   -1.9664 H   0  0  0  0  0  0  0  0  0  0  0  0
  -18.3451    6.2883   -2.9603 H   0  0  0  0  0  0  0  0  0  0  0  0
  -15.9405    6.1038   -2.4007 H   0  0  0  0  0  0  0  0  0  0  0  0
  -15.1403    4.4062   -0.7745 H   0  0  0  0  0  0  0  0  0  0  0  0
  -16.7634    2.8075    0.2595 H   0  0  0  0  0  0  0  0  0  0  0  0
  -19.9122   -0.7601   -0.5739 H   0  0  0  0  0  0  0  0  0  0  0  0
  -21.8942    0.8086    0.4249 H   0  0  0  0  0  0  0  0  0  0  0  0
  -19.8993    0.7317    1.9914 H   0  0  0  0  0  0  0  0  0  0  0  0
  -20.6956   -0.8342    1.7158 H   0  0  0  0  0  0  0  0  0  0  0  0
  -19.3479   -2.5138    2.4835 H   0  0  0  0  0  0  0  0  0  0  0  0
  -17.5898   -2.5970    2.0965 H   0  0  0  0  0  0  0  0  0  0  0  0
  -19.7103   -2.6055   -0.1137 H   0  0  0  0  0  0  0  0  0  0  0  0
  -19.2495   -4.5694    1.9755 H   0  0  0  0  0  0  0  0  0  0  0  0
  -20.2254   -4.7891    0.4835 H   0  0  0  0  0  0  0  0  0  0  0  0
  -18.4783   -5.2066    0.4835 H   0  0  0  0  0  0  0  0  0  0  0  0
  -16.7783   -3.2496    0.2557 H   0  0  0  0  0  0  0  0  0  0  0  0
  -17.7177   -4.0795   -1.0310 H   0  0  0  0  0  0  0  0  0  0  0  0
  -17.5827   -2.2883   -1.0310 H   0  0  0  0  0  0  0  0  0  0  0  0
  -16.0416   -1.9387    3.9085 H   0  0  0  0  0  0  0  0  0  0  0  0
  -16.1867   -2.6528    6.3160 H   0  0  0  0  0  0  0  0  0  0  0  0
  -19.2663    0.9605    4.3901 H   0  0  0  0  0  0  0  0  0  0  0  0
  -19.3882    0.2473    6.8493 H   0  0  0  0  0  0  0  0  0  0  0  0
  -16.7804   -2.3792    9.8386 H   0  0  0  0  0  0  0  0  0  0  0  0
  -16.0654   -2.8318    8.2680 H   0  0  0  0  0  0  0  0  0  0  0  0
 10  9  1  0
 10 11  1  0
  9  8  1  0
  9  5  1  0
 11  4  1  0
  8  7  1  0
  5  4  1  0
  5  6  1  0
  4  3  1  0
  7  6  1  0
  3  2  1  0
  2  1  2  0
  2 12  1  0
 17 18  1  0
 17 16  2  0
 12 13  1  0
 18 19  2  0
 16 15  1  0
 19 20  1  0
 15 20  2  0
 15 14  1  0
 13 14  1  0
 13 21  1  0
 22 21  1  0
 28 26  1  0
 21 23  1  0
 26 27  1  0
 26 25  1  0
 23 24  1  0
 24 25  1  0
 24 29  1  0
 31 29  2  0
 30 29  2  0
 29 32  1  0
 32 33  2  0
 32 35  1  0
 33 34  1  0
 35 36  2  0
 34 37  2  0
 36 37  1  0
 37 38  1  0
 38 39  2  0
 38 40  1  0
  4 41  1  0
  5 42  1  0
  6 43  1  0
  6 44  1  0
  7 45  1  0
  7 46  1  0
  9 47  1  0
 11 48  1  0
 11 49  1  0
 12 50  1  0
 13 51  1  0
 14 52  1  0
 14 53  1  0
 16 54  1  0
 17 55  1  0
 18 56  1  0
 19 57  1  0
 20 58  1  0
 21 59  1  0
 22 60  1  0
 23 61  1  0
 23 62  1  0
 25 63  1  0
 25 64  1  0
 26 65  1  0
 27 66  1  0
 27 67  1  0
 27 68  1  0
 28 69  1  0
 28 70  1  0
 28 71  1  0
 33 72  1  0
 34 73  1  0
 35 74  1  0
 36 75  1  0
 40 76  1  0
 40 77  1  0
A    1
O22
A    2
C21
A    3
O23
A    4
C24
A    5
C31
A    6
C30
A    7
C29
A    8
O28
A    9
C27
A   10
O26
A   11
C25
A   12
N20
A   13
C19
A   14
C32
A   15
C38
A   16
C37
A   17
C36
A   18
C35
A   19
C34
A   20
C33
A   21
C17
A   22
O18
A   23
C16
A   24
N11
A   25
C12
A   26
C13
A   27
C15
A   28
C14
A   29
S8
A   30
O9
A   31
O10
A   32
C5
A   33
C4
A   34
C3
A   35
C6
A   36
C7
A   37
C2
A   38
C1
A   39
O1
A   40
N1
M  END
