4I9I_1DY_A_1402
     RDKit          3D

 55 58  0  0  0  0  0  0  0  0999 V2000
   35.7040   25.8820   18.2710 N   0  0  0  0  0  0  0  0  0  0  0  0
   35.9180   25.5960   16.9930 C   0  0  0  0  0  0  0  0  0  0  0  0
   36.6710   24.6830   16.6820 O   0  0  0  0  0  0  0  0  0  0  0  0
   35.2460   26.4510   16.0480 C   0  0  0  0  0  0  0  0  0  0  0  0
   35.4240   26.2140   14.6570 C   0  0  0  0  0  0  0  0  0  0  0  0
   34.7440   27.1060   13.7530 C   0  0  0  0  0  0  0  0  0  0  0  0
   33.9280   28.1850   14.2250 C   0  0  0  0  0  0  0  0  0  0  0  0
   33.7420   28.4270   15.6280 C   0  0  0  0  0  0  0  0  0  0  0  0
   34.4210   27.5310   16.5290 C   0  0  0  0  0  0  0  0  0  0  0  0
   34.2940   27.7070   17.8590 N   0  0  0  0  0  0  0  0  0  0  0  0
   34.9230   26.8960   18.7210 C   0  0  0  0  0  0  0  0  0  0  0  0
   34.7570   27.1120   20.2110 C   0  0  0  0  0  0  0  0  0  0  0  0
   33.2680   27.1630   20.4880 C   0  0  0  0  0  0  0  0  0  0  0  0
   32.7050   25.8360   20.9710 C   0  0  0  0  0  0  0  0  0  0  0  0
   32.1820   25.0610   20.1730 O   0  0  0  0  0  0  0  0  0  0  0  0
   32.8290   25.6060   22.3310 N   0  0  0  0  0  0  0  0  0  0  0  0
   32.6250   24.4490   23.0110 C   0  0  0  0  0  0  0  0  0  0  0  0
   33.2020   24.3870   24.3220 C   0  0  0  0  0  0  0  0  0  0  0  0
   32.9980   23.1710   25.0880 C   0  0  0  0  0  0  0  0  0  0  0  0
   31.8610   23.3570   22.4370 C   0  0  0  0  0  0  0  0  0  0  0  0
   31.6520   22.1590   23.1730 C   0  0  0  0  0  0  0  0  0  0  0  0
   32.2210   22.0950   24.4810 C   0  0  0  0  0  0  0  0  0  0  0  0
   31.9160   20.8600   25.2130 C   0  0  0  0  0  0  0  0  0  0  0  0
   31.4480   19.8620   24.6760 O   0  0  0  0  0  0  0  0  0  0  0  0
   32.1530   20.8820   26.5510 N   0  0  0  0  0  0  0  0  0  0  0  0
   32.1590   19.8290   27.4520 C   0  0  0  0  0  0  0  0  0  0  0  0
   31.7480   18.4780   27.1670 C   0  0  0  0  0  0  0  0  0  0  0  0
   31.8160   17.4890   28.2420 C   0  0  0  0  0  0  0  0  0  0  0  0
   32.2820   17.8220   29.5650 C   0  0  0  0  0  0  0  0  0  0  0  0
   32.6950   19.1690   29.8600 C   0  0  0  0  0  0  0  0  0  0  0  0
   32.6170   20.1480   28.7750 C   0  0  0  0  0  0  0  0  0  0  0  0
   32.9160   21.4880   28.7470 O   0  0  0  0  0  0  0  0  0  0  0  0
   33.0190   22.2070   29.9700 C   0  0  0  0  0  0  0  0  0  0  0  0
   36.1661   25.2889   18.9750 H   0  0  0  0  0  0  0  0  0  0  0  0
   36.0512   25.3887   14.2889 H   0  0  0  0  0  0  0  0  0  0  0  0
   34.8544   26.9544   12.6691 H   0  0  0  0  0  0  0  0  0  0  0  0
   33.4327   28.8430   13.4958 H   0  0  0  0  0  0  0  0  0  0  0  0
   33.1146   29.2525   15.9953 H   0  0  0  0  0  0  0  0  0  0  0  0
   35.2296   28.0591   20.5104 H   0  0  0  0  0  0  0  0  0  0  0  0
   35.2348   26.3015   20.7808 H   0  0  0  0  0  0  0  0  0  0  0  0
   32.7490   27.4466   19.5605 H   0  0  0  0  0  0  0  0  0  0  0  0
   33.1089   27.8982   21.2906 H   0  0  0  0  0  0  0  0  0  0  0  0
   33.1124   26.4168   22.8994 H   0  0  0  0  0  0  0  0  0  0  0  0
   33.7779   25.2297   24.7322 H   0  0  0  0  0  0  0  0  0  0  0  0
   33.4178   23.0634   26.0990 H   0  0  0  0  0  0  0  0  0  0  0  0
   31.4407   23.4570   21.4254 H   0  0  0  0  0  0  0  0  0  0  0  0
   31.0780   21.3194   22.7539 H   0  0  0  0  0  0  0  0  0  0  0  0
   32.3562   21.8093   26.9506 H   0  0  0  0  0  0  0  0  0  0  0  0
   31.3916   18.1972   26.1649 H   0  0  0  0  0  0  0  0  0  0  0  0
   31.5009   16.4558   28.0341 H   0  0  0  0  0  0  0  0  0  0  0  0
   32.3218   17.0491   30.3467 H   0  0  0  0  0  0  0  0  0  0  0  0
   33.0547   19.4511   30.8605 H   0  0  0  0  0  0  0  0  0  0  0  0
   32.9191   21.5097   30.8148 H   0  0  0  0  0  0  0  0  0  0  0  0
   33.9978   22.7063   30.0205 H   0  0  0  0  0  0  0  0  0  0  0  0
   32.2197   22.9610   30.0205 H   0  0  0  0  0  0  0  0  0  0  0  0
 33 32  1  0
 30 29  2  0
 30 31  1  0
 29 28  1  0
 32 31  1  0
 31 26  2  0
 28 27  2  0
 26 27  1  0
 26 25  1  0
 25 23  1  0
 23 24  2  0
 23 22  1  0
 19 22  1  0
 19 18  2  0
 22 21  2  0
 18 17  1  0
 21 20  1  0
 17 20  2  0
 17 16  1  0
 16 14  1  0
 14 13  1  0
 14 15  2  0
 13 12  1  0
 12 11  1  0
 11  1  1  0
 11 10  2  0
  1  2  1  0
 10  9  1  0
  2  3  2  0
  2  4  1  0
  9  4  2  0
  9  8  1  0
  4  5  1  0
  8  7  2  0
  5  6  2  0
  7  6  1  0
  1 34  1  0
  5 35  1  0
  6 36  1  0
  7 37  1  0
  8 38  1  0
 12 39  1  0
 12 40  1  0
 13 41  1  0
 13 42  1  0
 16 43  1  0
 18 44  1  0
 19 45  1  0
 20 46  1  0
 21 47  1  0
 25 48  1  0
 27 49  1  0
 28 50  1  0
 29 51  1  0
 30 52  1  0
 33 53  1  0
 33 54  1  0
 33 55  1  0
A    1
N1
A    2
C1
A    3
O1
A    4
C2
A    5
C3
A    6
C4
A    7
C5
A    8
C6
A    9
C7
A   10
N2
A   11
C8
A   12
C9
A   13
C10
A   14
C11
A   15
O2
A   16
N3
A   17
C12
A   18
C13
A   19
C14
A   20
C15
A   21
C16
A   22
C17
A   23
C18
A   24
O3
A   25
N4
A   26
C19
A   27
C20
A   28
C21
A   29
C22
A   30
C23
A   31
C24
A   32
O4
A   33
C25
M  END
