4I9N_1E5_A_402
     RDKit          3D

 31 32  0  0  0  0  0  0  0  0999 V2000
   11.7250   12.9210   43.3550 C   0  0  0  0  0  0  0  0  0  0  0  0
   12.4160   11.6920   42.8770 C   0  0  0  0  0  0  0  0  0  0  0  0
   12.9110   11.6520   41.5620 C   0  0  0  0  0  0  0  0  0  0  0  0
   12.7840   12.7300   40.6820 C   0  0  0  0  0  0  0  0  0  0  0  0
   12.1200   13.9300   41.1210 C   0  0  0  0  0  0  0  0  0  0  0  0
   11.6090   13.9930   42.4470 C   0  0  0  0  0  0  0  0  0  0  0  0
   11.9210   15.1070   40.3590 O   0  0  0  0  0  0  0  0  0  0  0  0
   12.5440   15.2490   39.0700 C   0  0  0  0  0  0  0  0  0  0  0  0
   14.1470   15.7440   39.1230 C   0  0  0  0  0  0  0  0  0  0  0  0
   14.8130   15.8910   38.1600 O   0  0  0  0  0  0  0  0  0  0  0  0
   14.6610   15.7210   40.3600 O   0  0  0  0  0  0  0  0  0  0  0  0
   11.2320   12.9910   44.7590 C   0  0  0  0  0  0  0  0  0  0  0  0
   11.0130   14.2630   45.2710 N   0  0  0  0  0  0  0  0  0  0  0  0
   10.5960   14.4720   46.5390 C   0  0  0  0  0  0  0  0  0  0  0  0
   10.3650   13.3760   47.4190 C   0  0  0  0  0  0  0  0  0  0  0  0
   10.5730   12.0310   46.9280 C   0  0  0  0  0  0  0  0  0  0  0  0
   11.0090   11.8610   45.5910 C   0  0  0  0  0  0  0  0  0  0  0  0
    9.9380   13.6410   48.7930 C   0  0  0  0  0  0  0  0  0  0  0  0
    9.5400   12.5740   49.5110 O   0  0  0  0  0  0  0  0  0  0  0  0
   10.3710   14.8320   49.4270 O   0  0  0  0  0  0  0  0  0  0  0  0
   13.5300   10.5530   41.1470 F   0  0  0  0  0  0  0  0  0  0  0  0
   12.5377   10.8262   43.5445 H   0  0  0  0  0  0  0  0  0  0  0  0
   13.1883   12.6624   39.6612 H   0  0  0  0  0  0  0  0  0  0  0  0
   11.1042   14.9131   42.7764 H   0  0  0  0  0  0  0  0  0  0  0  0
   11.9739   15.9918   38.4927 H   0  0  0  0  0  0  0  0  0  0  0  0
   12.5398   14.2505   38.6086 H   0  0  0  0  0  0  0  0  0  0  0  0
   14.0601   15.7479   41.1463 H   0  0  0  0  0  0  0  0  0  0  0  0
   10.4331   15.4997   46.8957 H   0  0  0  0  0  0  0  0  0  0  0  0
   10.3967   11.1610   47.5776 H   0  0  0  0  0  0  0  0  0  0  0  0
   11.1759   10.8485   45.1947 H   0  0  0  0  0  0  0  0  0  0  0  0
    9.5535   12.6101   50.5002 H   0  0  0  0  0  0  0  0  0  0  0  0
 10  9  2  0
  8  9  1  0
  8  7  1  0
  9 11  1  0
  7  5  1  0
  4  5  2  0
  4  3  1  0
  5  6  1  0
 21  3  1  0
  3  2  2  0
  6  1  2  0
  2  1  1  0
  1 12  1  0
 12 13  2  0
 12 17  1  0
 13 14  1  0
 17 16  2  0
 14 15  2  0
 16 15  1  0
 15 18  1  0
 18 20  2  0
 18 19  1  0
  2 22  1  0
  4 23  1  0
  6 24  1  0
  8 25  1  0
  8 26  1  0
 11 27  1  0
 14 28  1  0
 16 29  1  0
 17 30  1  0
 19 31  1  0
A    1
C1
A    2
C2
A    3
C3
A    4
C4
A    5
C5
A    6
C6
A    7
O7
A    8
C8
A    9
C9
A   10
O12
A   11
O13
A   12
C17
A   13
N18
A   14
C19
A   15
C20
A   16
C21
A   17
C22
A   18
C23
A   19
O24
A   20
O25
A   21
F31
M  END
