4I9Z_5BA_A_901
     RDKit          3D

 62 64  0  0  0  0  0  0  0  0999 V2000
  -41.5040   14.4420   48.9880 C   0  0  0  0  0  0  0  0  0  0  0  0
  -40.2560   14.0480   49.7080 C   0  0  0  0  0  0  0  0  0  0  0  0
  -39.0870   14.7480   49.2230 N   0  0  0  0  0  0  0  0  0  0  0  0
  -37.7810   14.1780   49.5900 C   0  0  0  0  0  0  0  0  0  0  0  0
  -39.2550   15.3050   47.9060 C   0  0  0  0  0  0  0  0  0  0  0  0
  -40.0930   14.4180   47.0420 C   0  0  0  0  0  0  0  0  0  0  0  0
  -41.4320   14.2750   47.5540 N   0  0  0  0  0  0  0  0  0  0  0  0
  -42.5080   14.8770   46.7740 C   0  0  0  0  0  0  0  0  0  0  0  0
  -42.5990   14.7670   45.2710 C   0  0  0  0  0  0  0  0  0  0  0  0
  -41.7050   14.2860   44.5790 O   0  0  0  0  0  0  0  0  0  0  0  0
  -43.8410   15.3350   44.6020 C   0  0  0  0  0  0  0  0  0  0  0  0
  -43.8240   15.5780   43.2190 C   0  0  0  0  0  0  0  0  0  0  0  0
  -45.0000   15.6490   45.3550 C   0  0  0  0  0  0  0  0  0  0  0  0
  -46.1280   16.1810   44.7080 C   0  0  0  0  0  0  0  0  0  0  0  0
  -46.1010   16.4170   43.3300 C   0  0  0  0  0  0  0  0  0  0  0  0
  -47.1990   16.9480   42.6780 O   0  0  0  0  0  0  0  0  0  0  0  0
  -48.2950   17.4820   43.3530 C   0  0  0  0  0  0  0  0  0  0  0  0
  -49.3290   18.0810   42.4250 C   0  0  0  0  0  0  0  0  0  0  0  0
  -48.8110   18.9390   41.4360 C   0  0  0  0  0  0  0  0  0  0  0  0
  -44.9450   16.0890   42.5720 C   0  0  0  0  0  0  0  0  0  0  0  0
  -44.7940   16.3410   41.1010 C   0  0  0  0  0  0  0  0  0  0  0  0
  -44.3430   15.3830   40.2650 N   0  0  0  0  0  0  0  0  0  0  0  0
  -45.0250   17.6080   40.6460 N   0  0  0  0  0  0  0  0  0  0  0  0
  -44.8570   17.9290   39.3450 C   0  0  0  0  0  0  0  0  0  0  0  0
  -45.1230   19.2170   38.9280 O   0  0  0  0  0  0  0  0  0  0  0  0
  -44.4200   16.9730   38.4480 C   0  0  0  0  0  0  0  0  0  0  0  0
  -44.1390   17.4300   36.5800 Br  0  0  0  0  0  0  0  0  0  0  0  0
  -44.1530   15.6480   38.9690 C   0  0  0  0  0  0  0  0  0  0  0  0
  -43.6590   14.5220   38.0160 C   0  0  0  0  0  0  0  0  0  0  0  0
  -44.8460   13.7880   37.3930 C   0  0  0  0  0  0  0  0  0  0  0  0
  -42.6260   13.6300   38.5800 C   0  0  0  0  0  0  0  0  0  0  0  0
  -41.7080   15.5013   49.2032 H   0  0  0  0  0  0  0  0  0  0  0  0
  -42.3026   13.7760   49.3467 H   0  0  0  0  0  0  0  0  0  0  0  0
  -40.3814   14.2716   50.7777 H   0  0  0  0  0  0  0  0  0  0  0  0
  -40.0965   12.9738   49.5328 H   0  0  0  0  0  0  0  0  0  0  0  0
  -37.6926   14.1394   50.6858 H   0  0  0  0  0  0  0  0  0  0  0  0
  -37.6963   13.1611   49.1793 H   0  0  0  0  0  0  0  0  0  0  0  0
  -36.9778   14.8074   49.1793 H   0  0  0  0  0  0  0  0  0  0  0  0
  -38.2660   15.4277   47.4403 H   0  0  0  0  0  0  0  0  0  0  0  0
  -39.7637   16.2755   48.0026 H   0  0  0  0  0  0  0  0  0  0  0  0
  -39.6237   13.4244   46.9923 H   0  0  0  0  0  0  0  0  0  0  0  0
  -40.1577   14.8776   46.0447 H   0  0  0  0  0  0  0  0  0  0  0  0
  -42.4773   15.9537   46.9971 H   0  0  0  0  0  0  0  0  0  0  0  0
  -43.3713   14.2730   47.0900 H   0  0  0  0  0  0  0  0  0  0  0  0
  -42.9138   15.3619   42.6403 H   0  0  0  0  0  0  0  0  0  0  0  0
  -45.0163   15.4769   46.4413 H   0  0  0  0  0  0  0  0  0  0  0  0
  -47.0344   16.4124   45.2867 H   0  0  0  0  0  0  0  0  0  0  0  0
  -47.9377   18.2688   44.0336 H   0  0  0  0  0  0  0  0  0  0  0  0
  -48.7798   16.6571   43.8957 H   0  0  0  0  0  0  0  0  0  0  0  0
  -50.0440   18.6537   43.0340 H   0  0  0  0  0  0  0  0  0  0  0  0
  -49.7903   17.2372   41.8910 H   0  0  0  0  0  0  0  0  0  0  0  0
  -48.2996   19.7860   41.9167 H   0  0  0  0  0  0  0  0  0  0  0  0
  -48.0955   18.3864   40.8094 H   0  0  0  0  0  0  0  0  0  0  0  0
  -49.6332   19.3148   40.8094 H   0  0  0  0  0  0  0  0  0  0  0  0
  -45.3337   18.3335   41.3088 H   0  0  0  0  0  0  0  0  0  0  0  0
  -43.1121   15.0215   37.2028 H   0  0  0  0  0  0  0  0  0  0  0  0
  -45.4903   13.3896   38.1906 H   0  0  0  0  0  0  0  0  0  0  0  0
  -45.4234   14.4870   36.7700 H   0  0  0  0  0  0  0  0  0  0  0  0
  -44.4786   12.9592   36.7700 H   0  0  0  0  0  0  0  0  0  0  0  0
  -42.6693   13.6674   39.6785 H   0  0  0  0  0  0  0  0  0  0  0  0
  -42.8066   12.5993   38.2408 H   0  0  0  0  0  0  0  0  0  0  0  0
  -41.6326   13.9589   38.2408 H   0  0  0  0  0  0  0  0  0  0  0  0
 27 26  1  0
 30 29  1  0
 29 31  1  0
 29 28  1  0
 26 28  2  0
 26 24  1  0
 25 24  2  0
 28 22  1  0
 24 23  1  0
 22 21  2  0
 23 21  1  0
 21 20  1  0
 19 18  1  0
 18 17  1  0
 20 12  2  0
 20 15  1  0
 16 15  1  0
 16 17  1  0
 12 11  1  0
 15 14  2  0
 10  9  2  0
 11  9  1  0
 11 13  2  0
 14 13  1  0
  9  8  1  0
  8  7  1  0
  6  7  1  0
  6  5  1  0
  7  1  1  0
  5  3  1  0
  1  2  1  0
  3  4  1  0
  3  2  1  0
  1 32  1  0
  1 33  1  0
  2 34  1  0
  2 35  1  0
  4 36  1  0
  4 37  1  0
  4 38  1  0
  5 39  1  0
  5 40  1  0
  6 41  1  0
  6 42  1  0
  8 43  1  0
  8 44  1  0
 12 45  1  0
 13 46  1  0
 14 47  1  0
 17 48  1  0
 17 49  1  0
 18 50  1  0
 18 51  1  0
 19 52  1  0
 19 53  1  0
 19 54  1  0
 23 55  1  0
 29 56  1  0
 30 57  1  0
 30 58  1  0
 30 59  1  0
 31 60  1  0
 31 61  1  0
 31 62  1  0
A    1
CAO
A    2
CAM
A    3
NBD
A    4
CAD
A    5
CAN
A    6
CAP
A    7
N
A    8
CA
A    9
C
A   10
O
A   11
CAV
A   12
CAJ
A   13
CAH
A   14
CAI
A   15
CAW
A   16
OAT
A   17
CAL
A   18
CAK
A   19
CAA
A   20
CAY
A   21
CAZ
A   22
NAR
A   23
NAS
A   24
CBB
A   25
OAF
A   26
CAX
A   27
BR
A   28
CBA
A   29
CBC
A   30
CAC
A   31
CAB
M  END
