4IA9_IA9_A_401
     RDKit          3D

 48 50  0  0  0  0  0  0  0  0999 V2000
    8.1610   25.7870   -1.4980 Cl  0  0  0  0  0  0  0  0  0  0  0  0
    8.5080   27.3630   -1.7120 C   0  0  0  0  0  0  0  0  0  0  0  0
    7.4730   28.3370   -1.6300 C   0  0  0  0  0  0  0  0  0  0  0  0
    6.1080   27.9860   -1.3680 C   0  0  0  0  0  0  0  0  0  0  0  0
    7.8010   29.6890   -1.8140 C   0  0  0  0  0  0  0  0  0  0  0  0
    6.8750   30.6510   -1.7460 F   0  0  0  0  0  0  0  0  0  0  0  0
    9.1050   30.0660   -2.0710 C   0  0  0  0  0  0  0  0  0  0  0  0
   10.1100   29.1090   -2.1570 C   0  0  0  0  0  0  0  0  0  0  0  0
    9.8470   27.7540   -1.9700 C   0  0  0  0  0  0  0  0  0  0  0  0
   10.9500   26.8550   -2.0920 C   0  0  0  0  0  0  0  0  0  0  0  0
   10.8980   25.9140   -2.8920 O   0  0  0  0  0  0  0  0  0  0  0  0
   12.0410   27.1380   -1.3180 N   0  0  0  0  0  0  0  0  0  0  0  0
   13.2070   26.4260   -1.4200 C   0  0  0  0  0  0  0  0  0  0  0  0
   13.9370   26.4830   -2.6190 C   0  0  0  0  0  0  0  0  0  0  0  0
   15.1540   25.8070   -2.7690 C   0  0  0  0  0  0  0  0  0  0  0  0
   15.8470   25.8500   -3.9430 N   0  0  0  0  0  0  0  0  0  0  0  0
   15.1520   26.0340   -5.1430 O   0  0  0  0  0  0  0  0  0  0  0  0
   17.2480   25.6880   -3.9450 O   0  0  0  0  0  0  0  0  0  0  0  0
   15.6470   25.0780   -1.6960 C   0  0  0  0  0  0  0  0  0  0  0  0
   14.9420   25.0220   -0.4860 C   0  0  0  0  0  0  0  0  0  0  0  0
   13.7210   25.7030   -0.3160 C   0  0  0  0  0  0  0  0  0  0  0  0
   13.0990   25.5510    0.8810 N   0  0  0  0  0  0  0  0  0  0  0  0
   11.7440   24.9840    0.8880 C   0  0  0  0  0  0  0  0  0  0  0  0
   11.0290   25.4320    2.0880 C   0  0  0  0  0  0  0  0  0  0  0  0
   11.6510   24.8930    3.2760 N   0  0  0  0  0  0  0  0  0  0  0  0
   11.0220   25.2160    4.5500 C   0  0  0  0  0  0  0  0  0  0  0  0
   12.8360   25.8110    3.4270 C   0  0  0  0  0  0  0  0  0  0  0  0
   13.8000   25.6290    2.1720 C   0  0  0  0  0  0  0  0  0  0  0  0
    5.9424   27.9434   -0.2814 H   0  0  0  0  0  0  0  0  0  0  0  0
    5.4434   28.7425   -1.8108 H   0  0  0  0  0  0  0  0  0  0  0  0
    5.8908   27.0028   -1.8108 H   0  0  0  0  0  0  0  0  0  0  0  0
    9.3496   31.1296   -2.2084 H   0  0  0  0  0  0  0  0  0  0  0  0
   11.1386   29.4300   -2.3783 H   0  0  0  0  0  0  0  0  0  0  0  0
   11.9846   27.9095   -0.6379 H   0  0  0  0  0  0  0  0  0  0  0  0
   13.5431   27.0727   -3.4599 H   0  0  0  0  0  0  0  0  0  0  0  0
   16.6005   24.5388   -1.7962 H   0  0  0  0  0  0  0  0  0  0  0  0
   15.3510   24.4337    0.3486 H   0  0  0  0  0  0  0  0  0  0  0  0
   11.2018   25.3203   -0.0081 H   0  0  0  0  0  0  0  0  0  0  0  0
   11.8077   23.8858    0.8895 H   0  0  0  0  0  0  0  0  0  0  0  0
   11.0512   26.5308    2.1340 H   0  0  0  0  0  0  0  0  0  0  0  0
    9.9892   25.0766    2.0372 H   0  0  0  0  0  0  0  0  0  0  0  0
   11.6704   24.8831    5.3739 H   0  0  0  0  0  0  0  0  0  0  0  0
   10.8707   26.3034    4.6190 H   0  0  0  0  0  0  0  0  0  0  0  0
   10.0501   24.7054    4.6190 H   0  0  0  0  0  0  0  0  0  0  0  0
   13.3808   25.5605    4.3492 H   0  0  0  0  0  0  0  0  0  0  0  0
   12.4918   26.8543    3.4815 H   0  0  0  0  0  0  0  0  0  0  0  0
   14.3743   24.7010    2.3096 H   0  0  0  0  0  0  0  0  0  0  0  0
   14.4395   26.5231    2.1316 H   0  0  0  0  0  0  0  0  0  0  0  0
 17 16  2  0
 18 16  1  0
 16 15  1  0
 11 10  2  0
 15 14  2  0
 15 19  1  0
 14 13  1  0
  8  7  2  0
  8  9  1  0
 10  9  1  0
 10 12  1  0
  7  5  1  0
  9  2  2  0
  5  6  1  0
  5  3  2  0
  2  3  1  0
  2  1  1  0
 19 20  2  0
  3  4  1  0
 13 12  1  0
 13 21  2  0
 20 21  1  0
 21 22  1  0
 22 23  1  0
 22 28  1  0
 23 24  1  0
 24 25  1  0
 28 27  1  0
 25 27  1  0
 25 26  1  0
  4 29  1  0
  4 30  1  0
  4 31  1  0
  7 32  1  0
  8 33  1  0
 12 34  1  0
 14 35  1  0
 19 36  1  0
 20 37  1  0
 23 38  1  0
 23 39  1  0
 24 40  1  0
 24 41  1  0
 26 42  1  0
 26 43  1  0
 26 44  1  0
 27 45  1  0
 27 46  1  0
 28 47  1  0
 28 48  1  0
M  CHG  2  16   1  18  -1
A    1
CLG
A    2
CAX
A    3
CAS
A    4
CAA
A    5
CAT
A    6
FAF
A    7
CAH
A    8
CAJ
A    9
CAW
A   10
CAR
A   11
OAC
A   12
NAQ
A   13
CAV
A   14
CAL
A   15
CAU
A   16
NBB
A   17
OAE
A   18
OAD
A   19
CAI
A   20
CAK
A   21
CAY
A   22
NBA
A   23
CAO
A   24
CAM
A   25
NAZ
A   26
CAB
A   27
CAN
A   28
CAP
M  END
