3TBG_RTZ_A_1
     RDKit          3D

 51 54  0  0  0  0  0  0  0  0999 V2000
    8.1120   30.7460   -7.3900 C   0  0  0  0  0  0  0  0  0  0  0  0
   -0.1090   29.0690   -6.6130 C   0  0  0  0  0  0  0  0  0  0  0  0
    8.4010   24.1110   -5.9570 C   0  0  0  0  0  0  0  0  0  0  0  0
    8.0620   23.2530   -4.8860 C   0  0  0  0  0  0  0  0  0  0  0  0
    4.1680   31.9880   -8.0760 C   0  0  0  0  0  0  0  0  0  0  0  0
    5.2280   32.9830   -8.0570 C   0  0  0  0  0  0  0  0  0  0  0  0
    4.3700   30.9710   -6.8850 C   0  0  0  0  0  0  0  0  0  0  0  0
    7.6180   25.2730   -6.2420 C   0  0  0  0  0  0  0  0  0  0  0  0
    6.9250   23.5450   -4.0780 C   0  0  0  0  0  0  0  0  0  0  0  0
    1.3660   26.2880   -5.3280 C   0  0  0  0  0  0  0  0  0  0  0  0
    2.2270   25.6730   -4.3930 C   0  0  0  0  0  0  0  0  0  0  0  0
    5.8870   29.3830   -5.7400 C   0  0  0  0  0  0  0  0  0  0  0  0
    6.5520   32.2980   -8.2070 C   0  0  0  0  0  0  0  0  0  0  0  0
    6.2970   27.9640   -6.2150 C   0  0  0  0  0  0  0  0  0  0  0  0
    3.3430   27.2070   -6.5050 C   0  0  0  0  0  0  0  0  0  0  0  0
    5.7230   30.2820   -6.9790 C   0  0  0  0  0  0  0  0  0  0  0  0
    1.9330   27.0560   -6.3800 C   0  0  0  0  0  0  0  0  0  0  0  0
    6.4730   25.5740   -5.4320 C   0  0  0  0  0  0  0  0  0  0  0  0
    4.2180   26.5890   -5.5660 C   0  0  0  0  0  0  0  0  0  0  0  0
    6.1360   24.6940   -4.3430 C   0  0  0  0  0  0  0  0  0  0  0  0
    3.6350   25.8170   -4.4990 C   0  0  0  0  0  0  0  0  0  0  0  0
    6.7880   31.3000   -7.0830 N   0  0  0  0  0  0  0  0  0  0  0  0
    5.6520   26.7340   -5.6680 N   0  0  0  0  0  0  0  0  0  0  0  0
    0.8630   27.8640   -7.5750 S   0  0  0  0  0  0  0  0  0  0  0  0
    4.7000   25.0340   -3.2840 S   0  0  0  0  0  0  0  0  0  0  0  0
    8.6429   30.5239   -6.4525 H   0  0  0  0  0  0  0  0  0  0  0  0
    7.9960   29.8209   -7.9738 H   0  0  0  0  0  0  0  0  0  0  0  0
    8.6894   31.4780   -7.9738 H   0  0  0  0  0  0  0  0  0  0  0  0
    0.0391   28.8854   -5.5386 H   0  0  0  0  0  0  0  0  0  0  0  0
    0.2227   30.0883   -6.8599 H   0  0  0  0  0  0  0  0  0  0  0  0
   -1.1754   28.9605   -6.8599 H   0  0  0  0  0  0  0  0  0  0  0  0
    9.2786   23.8818   -6.5793 H   0  0  0  0  0  0  0  0  0  0  0  0
    8.6737   22.3630   -4.6770 H   0  0  0  0  0  0  0  0  0  0  0  0
    3.1946   32.4888   -7.9678 H   0  0  0  0  0  0  0  0  0  0  0  0
    4.1988   31.4417   -9.0302 H   0  0  0  0  0  0  0  0  0  0  0  0
    5.0836   33.6898   -8.8875 H   0  0  0  0  0  0  0  0  0  0  0  0
    5.2023   33.5310   -7.1036 H   0  0  0  0  0  0  0  0  0  0  0  0
    4.3099   31.5169   -5.9319 H   0  0  0  0  0  0  0  0  0  0  0  0
    3.5824   30.2051   -6.9412 H   0  0  0  0  0  0  0  0  0  0  0  0
    7.8923   25.9329   -7.0783 H   0  0  0  0  0  0  0  0  0  0  0  0
    6.6581   22.8771   -3.2458 H   0  0  0  0  0  0  0  0  0  0  0  0
    0.2752   26.1744   -5.2433 H   0  0  0  0  0  0  0  0  0  0  0  0
    1.8017   25.0755   -3.5732 H   0  0  0  0  0  0  0  0  0  0  0  0
    4.9354   29.3303   -5.1907 H   0  0  0  0  0  0  0  0  0  0  0  0
    6.6583   29.7957   -5.0731 H   0  0  0  0  0  0  0  0  0  0  0  0
    6.5731   31.7656   -9.1693 H   0  0  0  0  0  0  0  0  0  0  0  0
    7.3441   33.0603   -8.1668 H   0  0  0  0  0  0  0  0  0  0  0  0
    6.1309   27.9423   -7.3022 H   0  0  0  0  0  0  0  0  0  0  0  0
    7.3246   27.8781   -5.8321 H   0  0  0  0  0  0  0  0  0  0  0  0
    3.7587   27.8036   -7.3304 H   0  0  0  0  0  0  0  0  0  0  0  0
    5.7928   29.6518   -7.8778 H   0  0  0  0  0  0  0  0  0  0  0  0
  1 22  1  0
  2 24  1  0
  3  4  2  0
  3  8  1  0
  4  9  1  0
  5  6  1  0
  5  7  1  0
  6 13  1  0
  7 16  1  0
  8 18  2  0
  9 20  2  0
 10 11  1  0
 10 17  2  0
 11 21  2  0
 12 14  1  0
 12 16  1  0
 13 22  1  0
 14 23  1  0
 15 17  1  0
 15 19  2  0
 16 22  1  0
 17 24  1  0
 18 20  1  0
 18 23  1  0
 19 21  1  0
 19 23  1  0
 20 25  1  0
 21 25  1  0
  1 26  1  0
  1 27  1  0
  1 28  1  0
  2 29  1  0
  2 30  1  0
  2 31  1  0
  3 32  1  0
  4 33  1  0
  5 34  1  0
  5 35  1  0
  6 36  1  0
  6 37  1  0
  7 38  1  0
  7 39  1  0
  8 40  1  0
  9 41  1  0
 10 42  1  0
 11 43  1  0
 12 44  1  0
 12 45  1  0
 13 46  1  0
 13 47  1  0
 14 48  1  0
 14 49  1  0
 15 50  1  0
 16 51  1  0
A    1
CAA
A    2
CAB
A    3
CAC
A    4
CAD
A    5
CAE
A    6
CAF
A    7
CAG
A    8
CAH
A    9
CAI
A   10
CAJ
A   11
CAK
A   12
CAL
A   13
CAM
A   14
CAN
A   15
CAO
A   16
CAP
A   17
CAQ
A   18
CAR
A   19
CAS
A   20
CAT
A   21
CAU
A   22
NAV
A   23
NAW
A   24
SAX
A   25
SAY
M  END
