4IAQ_2GM_A_2001
     RDKit          3D

 80 87  0  0  0  0  0  0  0  0999 V2000
  -22.3420    8.3580   21.8580 C   0  0  0  0  0  0  0  0  0  0  0  0
  -22.8430    6.9450   22.1060 C   0  0  0  0  0  0  0  0  0  0  0  0
  -23.4630    6.6390   23.4800 C   0  0  0  0  0  0  0  0  0  0  0  0
  -23.6870    5.3280   23.7700 C   0  0  0  0  0  0  0  0  0  0  0  0
  -23.9100    7.5930   24.4550 C   0  0  0  0  0  0  0  0  0  0  0  0
  -24.5290    7.1330   25.6790 C   0  0  0  0  0  0  0  0  0  0  0  0
  -24.6860    5.7510   25.8990 C   0  0  0  0  0  0  0  0  0  0  0  0
  -24.2660    4.8720   24.9440 C   0  0  0  0  0  0  0  0  0  0  0  0
  -24.2860    3.4730   24.8370 N   0  0  0  0  0  0  0  0  0  0  0  0
  -23.6880    3.1020   23.6590 C   0  0  0  0  0  0  0  0  0  0  0  0
  -23.3150    4.2400   22.9740 C   0  0  0  0  0  0  0  0  0  0  0  0
  -22.6610    4.4610   21.6540 C   0  0  0  0  0  0  0  0  0  0  0  0
  -21.9180    5.8040   21.5990 C   0  0  0  0  0  0  0  0  0  0  0  0
  -21.2840    6.0290   20.2040 N   0  0  0  0  0  0  0  0  0  0  0  0
  -20.0460    5.3110   19.9460 C   0  0  0  0  0  0  0  0  0  0  0  0
  -20.9560    7.4750   19.9030 C   0  0  0  0  0  0  0  0  0  0  0  0
  -21.9280    8.5430   20.4090 C   0  0  0  0  0  0  0  0  0  0  0  0
  -21.2490    9.8980   20.2910 C   0  0  0  0  0  0  0  0  0  0  0  0
  -20.1690   10.1000   20.8480 O   0  0  0  0  0  0  0  0  0  0  0  0
  -21.9620   10.9300   19.5000 N   0  0  0  0  0  0  0  0  0  0  0  0
  -21.3990   12.2910   19.2980 C   0  0  0  0  0  0  0  0  0  0  0  0
  -22.2410   12.9830   18.2460 C   0  0  0  0  0  0  0  0  0  0  0  0
  -19.9590   12.2080   18.7880 O   0  0  0  0  0  0  0  0  0  0  0  0
  -21.2850   13.0700   20.5700 C   0  0  0  0  0  0  0  0  0  0  0  0
  -22.2600   13.3630   21.2730 O   0  0  0  0  0  0  0  0  0  0  0  0
  -19.9980   13.3240   20.7670 N   0  0  0  0  0  0  0  0  0  0  0  0
  -19.0830   12.8690   19.8090 C   0  0  0  0  0  0  0  0  0  0  0  0
  -18.2640   11.8930   20.3390 O   0  0  0  0  0  0  0  0  0  0  0  0
  -18.1680   13.9810   19.2330 C   0  0  0  0  0  0  0  0  0  0  0  0
  -16.7730   13.6500   18.5840 C   0  0  0  0  0  0  0  0  0  0  0  0
  -16.1600   15.1410   18.4940 C   0  0  0  0  0  0  0  0  0  0  0  0
  -16.8040   15.8710   19.6450 C   0  0  0  0  0  0  0  0  0  0  0  0
  -17.8330   14.9540   20.1170 N   0  0  0  0  0  0  0  0  0  0  0  0
  -18.4330   15.0820   21.4280 C   0  0  0  0  0  0  0  0  0  0  0  0
  -18.0740   15.9950   22.1890 O   0  0  0  0  0  0  0  0  0  0  0  0
  -19.4760   14.1100   21.9430 C   0  0  0  0  0  0  0  0  0  0  0  0
  -19.0900   13.4480   23.2650 C   0  0  0  0  0  0  0  0  0  0  0  0
  -20.2130   12.6920   23.9710 C   0  0  0  0  0  0  0  0  0  0  0  0
  -20.0320   11.3240   24.2750 C   0  0  0  0  0  0  0  0  0  0  0  0
  -21.0430   10.6100   24.9240 C   0  0  0  0  0  0  0  0  0  0  0  0
  -22.2260   11.2680   25.2900 C   0  0  0  0  0  0  0  0  0  0  0  0
  -22.4160   12.6290   25.0290 C   0  0  0  0  0  0  0  0  0  0  0  0
  -21.4010   13.3480   24.3720 C   0  0  0  0  0  0  0  0  0  0  0  0
  -21.4752    8.5513   22.5071 H   0  0  0  0  0  0  0  0  0  0  0  0
  -23.1565    9.0626   22.0821 H   0  0  0  0  0  0  0  0  0  0  0  0
  -23.7130    6.9506   21.4329 H   0  0  0  0  0  0  0  0  0  0  0  0
  -23.7823    8.6701   24.2721 H   0  0  0  0  0  0  0  0  0  0  0  0
  -24.8742    7.8570   26.4318 H   0  0  0  0  0  0  0  0  0  0  0  0
  -25.1422    5.3843   26.8304 H   0  0  0  0  0  0  0  0  0  0  0  0
  -24.6861    2.8270   25.5324 H   0  0  0  0  0  0  0  0  0  0  0  0
  -23.5318    2.0681   23.3173 H   0  0  0  0  0  0  0  0  0  0  0  0
  -23.4316    4.4488   20.8691 H   0  0  0  0  0  0  0  0  0  0  0  0
  -21.9248    3.6583   21.5004 H   0  0  0  0  0  0  0  0  0  0  0  0
  -21.0609    5.7975   22.2884 H   0  0  0  0  0  0  0  0  0  0  0  0
  -19.5747    5.0377   20.9016 H   0  0  0  0  0  0  0  0  0  0  0  0
  -20.2640    4.3992   19.3706 H   0  0  0  0  0  0  0  0  0  0  0  0
  -19.3628    5.9531   19.3706 H   0  0  0  0  0  0  0  0  0  0  0  0
  -19.9725    7.6885   20.3470 H   0  0  0  0  0  0  0  0  0  0  0  0
  -21.0054    7.5498   18.8067 H   0  0  0  0  0  0  0  0  0  0  0  0
  -22.8374    8.4626   19.7953 H   0  0  0  0  0  0  0  0  0  0  0  0
  -22.8727   10.6974   19.0788 H   0  0  0  0  0  0  0  0  0  0  0  0
  -23.0013   13.6078   18.7375 H   0  0  0  0  0  0  0  0  0  0  0  0
  -21.5963   13.6157   17.6183 H   0  0  0  0  0  0  0  0  0  0  0  0
  -22.7369   12.2280   17.6183 H   0  0  0  0  0  0  0  0  0  0  0  0
  -18.2986   11.9342   21.3275 H   0  0  0  0  0  0  0  0  0  0  0  0
  -18.8763   14.2548   18.4371 H   0  0  0  0  0  0  0  0  0  0  0  0
  -16.8814   13.1903   17.5906 H   0  0  0  0  0  0  0  0  0  0  0  0
  -16.1594   12.9243   19.1380 H   0  0  0  0  0  0  0  0  0  0  0  0
  -15.0660   15.1213   18.6067 H   0  0  0  0  0  0  0  0  0  0  0  0
  -16.3574   15.6218   17.5245 H   0  0  0  0  0  0  0  0  0  0  0  0
  -16.0694   16.0750   20.4379 H   0  0  0  0  0  0  0  0  0  0  0  0
  -17.2132   16.8482   19.3489 H   0  0  0  0  0  0  0  0  0  0  0  0
  -20.3860   14.5896   22.3327 H   0  0  0  0  0  0  0  0  0  0  0  0
  -18.2761   12.7360   23.0632 H   0  0  0  0  0  0  0  0  0  0  0  0
  -18.8034   14.2665   23.9417 H   0  0  0  0  0  0  0  0  0  0  0  0
  -19.0936   10.8201   24.0003 H   0  0  0  0  0  0  0  0  0  0  0  0
  -20.9118    9.5406   25.1459 H   0  0  0  0  0  0  0  0  0  0  0  0
  -23.0227   10.7010   25.7938 H   0  0  0  0  0  0  0  0  0  0  0  0
  -23.3466   13.1303   25.3334 H   0  0  0  0  0  0  0  0  0  0  0  0
  -21.5309   14.4214   24.1697 H   0  0  0  0  0  0  0  0  0  0  0  0
 22 21  1  0
 31 30  1  0
 31 32  1  0
 30 29  1  0
 23 21  1  0
 23 27  1  0
 29 27  1  0
 29 33  1  0
 21 20  1  0
 21 24  1  0
 20 18  1  0
 32 33  1  0
 27 28  1  0
 27 26  1  0
 16 14  1  0
 16 17  1  0
 15 14  1  0
 33 34  1  0
 14 13  1  0
 18 17  1  0
 18 19  2  0
 17  1  1  0
 24 26  1  0
 24 25  2  0
 26 36  1  0
 34 36  1  0
 34 35  2  0
 13 12  1  0
 13  2  1  0
 12 11  1  0
  1  2  1  0
 36 37  1  0
  2  3  1  0
 11 10  2  0
 11  4  1  0
 37 38  1  0
  3  4  2  0
  3  5  1  0
 10  9  1  0
  4  8  1  0
 38 39  2  0
 38 43  1  0
 39 40  1  0
 43 42  2  0
  5  6  2  0
  9  8  1  0
 40 41  2  0
  8  7  2  0
 42 41  1  0
  6  7  1  0
  1 44  1  0
  1 45  1  0
  2 46  1  0
  5 47  1  0
  6 48  1  0
  7 49  1  0
  9 50  1  0
 10 51  1  0
 12 52  1  0
 12 53  1  0
 13 54  1  0
 15 55  1  0
 15 56  1  0
 15 57  1  0
 16 58  1  0
 16 59  1  0
 17 60  1  0
 20 61  1  0
 22 62  1  0
 22 63  1  0
 22 64  1  0
 28 65  1  0
 29 66  1  0
 30 67  1  0
 30 68  1  0
 31 69  1  0
 31 70  1  0
 32 71  1  0
 32 72  1  0
 36 73  1  0
 37 74  1  0
 37 75  1  0
 39 76  1  0
 40 77  1  0
 41 78  1  0
 42 79  1  0
 43 80  1  0
A    1
C10
A    2
C11
A    3
C12
A    4
C17
A    5
C13
A    6
C14
A    7
C15
A    8
C16
A    9
N1
A   10
C2
A   11
C3
A   12
C4
A   13
C5
A   14
N6
A   15
C7
A   16
C8
A   17
C9
A   18
C18
A   19
O19
A   20
N20
A   21
C21
A   22
C22
A   23
O43
A   24
C23
A   25
O24
A   26
N25
A   27
C41
A   28
O42
A   29
C40
A   30
C39
A   31
C38
A   32
C37
A   33
N36
A   34
C34
A   35
O35
A   36
C26
A   37
C27
A   38
C28
A   39
C29
A   40
C30
A   41
C31
A   42
C32
A   43
C33
M  END
