4IAR_ERM_A_2001
     RDKit          3D

 78 85  0  0  0  0  0  0  0  0999 V2000
   -5.2790  -20.6210   23.2280 C   0  0  0  0  0  0  0  0  0  0  0  0
   -5.7670  -21.0350   24.4180 N   0  0  0  0  0  0  0  0  0  0  0  0
  -11.8370  -16.8650   19.9650 O   0  0  0  0  0  0  0  0  0  0  0  0
   -9.6800  -19.7850   23.9700 C   0  0  0  0  0  0  0  0  0  0  0  0
   -9.4030  -20.4110   25.2090 C   0  0  0  0  0  0  0  0  0  0  0  0
   -8.0790  -20.8960   25.4780 C   0  0  0  0  0  0  0  0  0  0  0  0
   -7.1240  -20.7260   24.5240 C   0  0  0  0  0  0  0  0  0  0  0  0
   -7.4020  -20.0990   23.3010 C   0  0  0  0  0  0  0  0  0  0  0  0
   -6.8680  -16.9170   19.0890 C   0  0  0  0  0  0  0  0  0  0  0  0
  -11.5890  -17.8930   19.3670 C   0  0  0  0  0  0  0  0  0  0  0  0
  -13.7950  -17.9920   18.1670 C   0  0  0  0  0  0  0  0  0  0  0  0
  -14.7410  -17.9310   19.3350 C   0  0  0  0  0  0  0  0  0  0  0  0
  -16.0000  -16.1500   20.4370 C   0  0  0  0  0  0  0  0  0  0  0  0
   -7.7210  -18.0660   19.4930 N   0  0  0  0  0  0  0  0  0  0  0  0
   -6.2520  -20.0180   22.4920 C   0  0  0  0  0  0  0  0  0  0  0  0
  -13.7620  -16.6430   17.6890 O   0  0  0  0  0  0  0  0  0  0  0  0
  -16.8590  -15.0360   19.8170 C   0  0  0  0  0  0  0  0  0  0  0  0
  -17.2520  -13.4310   17.9460 C   0  0  0  0  0  0  0  0  0  0  0  0
  -16.2330  -12.6660   17.1290 C   0  0  0  0  0  0  0  0  0  0  0  0
  -14.9800  -13.5870   17.0410 C   0  0  0  0  0  0  0  0  0  0  0  0
  -15.4570  -14.8580   17.7680 C   0  0  0  0  0  0  0  0  0  0  0  0
  -14.4270  -15.6970   18.5240 C   0  0  0  0  0  0  0  0  0  0  0  0
  -14.2680  -18.9810   17.1160 C   0  0  0  0  0  0  0  0  0  0  0  0
  -15.3640  -15.6280   21.7010 C   0  0  0  0  0  0  0  0  0  0  0  0
  -14.7530  -16.6600   22.6300 C   0  0  0  0  0  0  0  0  0  0  0  0
  -13.4090  -16.4960   23.0340 C   0  0  0  0  0  0  0  0  0  0  0  0
   -6.3190  -19.4240   21.1140 C   0  0  0  0  0  0  0  0  0  0  0  0
  -12.4630  -18.4930   18.5240 N   0  0  0  0  0  0  0  0  0  0  0  0
  -15.1470  -18.8790   19.9770 O   0  0  0  0  0  0  0  0  0  0  0  0
  -12.8000  -17.4230   23.9000 C   0  0  0  0  0  0  0  0  0  0  0  0
  -13.5570  -18.4870   24.4090 C   0  0  0  0  0  0  0  0  0  0  0  0
  -14.9100  -18.6200   24.0440 C   0  0  0  0  0  0  0  0  0  0  0  0
  -15.5160  -17.7270   23.1430 C   0  0  0  0  0  0  0  0  0  0  0  0
   -7.5530  -18.4590   20.9550 C   0  0  0  0  0  0  0  0  0  0  0  0
  -15.0470  -16.6310   19.4630 N   0  0  0  0  0  0  0  0  0  0  0  0
  -17.8450  -14.6000   20.4360 O   0  0  0  0  0  0  0  0  0  0  0  0
   -9.0990  -17.6460   19.0530 C   0  0  0  0  0  0  0  0  0  0  0  0
  -16.5410  -14.4900   18.6520 N   0  0  0  0  0  0  0  0  0  0  0  0
  -13.4960  -14.9000   19.1730 O   0  0  0  0  0  0  0  0  0  0  0  0
  -10.1970  -18.5720   19.5430 C   0  0  0  0  0  0  0  0  0  0  0  0
   -9.9840  -19.1230   20.9300 C   0  0  0  0  0  0  0  0  0  0  0  0
   -8.8430  -18.9920   21.6000 C   0  0  0  0  0  0  0  0  0  0  0  0
   -8.6950  -19.6030   22.9850 C   0  0  0  0  0  0  0  0  0  0  0  0
   -4.2377  -20.7533   22.8991 H   0  0  0  0  0  0  0  0  0  0  0  0
   -5.2149  -21.5119   25.1451 H   0  0  0  0  0  0  0  0  0  0  0  0
  -10.7016  -19.4288   23.7716 H   0  0  0  0  0  0  0  0  0  0  0  0
  -10.1975  -20.5251   25.9611 H   0  0  0  0  0  0  0  0  0  0  0  0
   -7.8427  -21.3923   26.4308 H   0  0  0  0  0  0  0  0  0  0  0  0
   -6.4897  -16.4074   19.9875 H   0  0  0  0  0  0  0  0  0  0  0  0
   -6.0205  -17.2822   18.4903 H   0  0  0  0  0  0  0  0  0  0  0  0
   -7.4628  -16.2114   18.4903 H   0  0  0  0  0  0  0  0  0  0  0  0
  -16.6144  -17.0179   20.7184 H   0  0  0  0  0  0  0  0  0  0  0  0
  -17.7365  -12.7575   18.6683 H   0  0  0  0  0  0  0  0  0  0  0  0
  -18.0316  -13.8543   17.2955 H   0  0  0  0  0  0  0  0  0  0  0  0
  -15.9775  -11.7184   17.6257 H   0  0  0  0  0  0  0  0  0  0  0  0
  -16.6212  -12.4148   16.1309 H   0  0  0  0  0  0  0  0  0  0  0  0
  -14.7157  -13.8016   15.9950 H   0  0  0  0  0  0  0  0  0  0  0  0
  -14.0741  -13.1422   17.4787 H   0  0  0  0  0  0  0  0  0  0  0  0
  -15.7567  -15.5377   16.9567 H   0  0  0  0  0  0  0  0  0  0  0  0
  -14.6919  -19.8672   17.6109 H   0  0  0  0  0  0  0  0  0  0  0  0
  -15.0376  -18.5085   16.4879 H   0  0  0  0  0  0  0  0  0  0  0  0
  -13.4171  -19.2836   16.4879 H   0  0  0  0  0  0  0  0  0  0  0  0
  -14.5671  -14.9282   21.4092 H   0  0  0  0  0  0  0  0  0  0  0  0
  -16.1862  -15.1733   22.2731 H   0  0  0  0  0  0  0  0  0  0  0  0
  -12.8323  -15.6340   22.6674 H   0  0  0  0  0  0  0  0  0  0  0  0
   -6.4058  -20.2377   20.3789 H   0  0  0  0  0  0  0  0  0  0  0  0
   -5.4025  -18.8388   20.9480 H   0  0  0  0  0  0  0  0  0  0  0  0
  -12.1658  -19.3809   18.0949 H   0  0  0  0  0  0  0  0  0  0  0  0
  -11.7405  -17.3136   24.1747 H   0  0  0  0  0  0  0  0  0  0  0  0
  -13.0954  -19.2158   25.0915 H   0  0  0  0  0  0  0  0  0  0  0  0
  -15.5054  -19.4396   24.4726 H   0  0  0  0  0  0  0  0  0  0  0  0
  -16.5664  -17.8591   22.8443 H   0  0  0  0  0  0  0  0  0  0  0  0
   -7.3373  -17.5449   21.5275 H   0  0  0  0  0  0  0  0  0  0  0  0
   -9.2960  -16.6357   19.4410 H   0  0  0  0  0  0  0  0  0  0  0  0
   -9.1129  -17.6794   17.9536 H   0  0  0  0  0  0  0  0  0  0  0  0
  -13.6063  -14.9944   20.1523 H   0  0  0  0  0  0  0  0  0  0  0  0
  -10.1598  -19.4676   18.9055 H   0  0  0  0  0  0  0  0  0  0  0  0
  -10.8141  -19.6603   21.4119 H   0  0  0  0  0  0  0  0  0  0  0  0
 20 19  1  0
 20 21  1  0
 23 11  1  0
 19 18  1  0
 16 11  1  0
 16 22  1  0
 21 22  1  0
 21 38  1  0
 18 38  1  0
 11 28  1  0
 11 12  1  0
 22 39  1  0
 22 35  1  0
 28 10  1  0
 38 17  1  0
 37 14  1  0
 37 40  1  0
  9 14  1  0
 12 35  1  0
 12 29  2  0
 10 40  1  0
 10  3  2  0
 35 13  1  0
 14 34  1  0
 40 41  1  0
 17 36  2  0
 17 13  1  0
 13 24  1  0
 41 42  2  0
 34 27  1  0
 34 42  1  0
 27 15  1  0
 42 43  1  0
 24 25  1  0
 15  1  2  0
 15  8  1  0
 25 26  2  0
 25 33  1  0
 43  8  2  0
 43  4  1  0
 26 30  1  0
 33 32  2  0
  1  2  1  0
  8  7  1  0
 30 31  2  0
  4  5  2  0
 32 31  1  0
  2  7  1  0
  7  6  2  0
  5  6  1  0
  1 44  1  0
  2 45  1  0
  4 46  1  0
  5 47  1  0
  6 48  1  0
  9 49  1  0
  9 50  1  0
  9 51  1  0
 13 52  1  0
 18 53  1  0
 18 54  1  0
 19 55  1  0
 19 56  1  0
 20 57  1  0
 20 58  1  0
 21 59  1  0
 23 60  1  0
 23 61  1  0
 23 62  1  0
 24 63  1  0
 24 64  1  0
 26 65  1  0
 27 66  1  0
 27 67  1  0
 28 68  1  0
 30 69  1  0
 31 70  1  0
 32 71  1  0
 33 72  1  0
 34 73  1  0
 37 74  1  0
 37 75  1  0
 39 76  1  0
 40 77  1  0
 41 78  1  0
A    1
C1
A    2
N1
A    3
O1
A    4
C10
A    5
C11
A    6
C12
A    7
C13
A    8
C14
A    9
C15
A   10
C16
A   11
C17
A   12
C18
A   13
C19
A   14
N2
A   15
C2
A   16
O2
A   17
C20
A   18
C21
A   19
C22
A   20
C23
A   21
C24
A   22
C25
A   23
C26
A   24
C27
A   25
C28
A   26
C29
A   27
C3
A   28
N3
A   29
O3
A   30
C30
A   31
C31
A   32
C32
A   33
C33
A   34
C4
A   35
N4
A   36
O4
A   37
C5
A   38
N5
A   39
O5
A   40
C6
A   41
C7
A   42
C8
A   43
C9
M  END
