4IBC_12G_A_401
     RDKit          3D

 50 53  0  0  0  0  0  0  0  0999 V2000
    3.0620   24.3680    1.0870 Cl  0  0  0  0  0  0  0  0  0  0  0  0
    2.2250   23.4680    2.3010 C   0  0  0  0  0  0  0  0  0  0  0  0
    1.4750   24.1800    3.2280 C   0  0  0  0  0  0  0  0  0  0  0  0
    0.7890   23.5130    4.2270 C   0  0  0  0  0  0  0  0  0  0  0  0
    0.8480   22.1300    4.3020 C   0  0  0  0  0  0  0  0  0  0  0  0
    1.5980   21.4130    3.3830 C   0  0  0  0  0  0  0  0  0  0  0  0
    2.2850   22.0760    2.3730 C   0  0  0  0  0  0  0  0  0  0  0  0
    3.0740   21.2310    1.4250 C   0  0  0  0  0  0  0  0  0  0  0  0
    2.4490   20.3910    0.5870 N   0  0  0  0  0  0  0  0  0  0  0  0
    1.3350   20.7420   -0.2420 C   0  0  0  0  0  0  0  0  0  0  0  0
    0.0820   20.2280    0.0490 C   0  0  0  0  0  0  0  0  0  0  0  0
   -1.0010   20.5620   -0.7510 C   0  0  0  0  0  0  0  0  0  0  0  0
   -0.8290   21.4110   -1.8340 C   0  0  0  0  0  0  0  0  0  0  0  0
   -2.0040   21.7520   -2.6870 C   0  0  0  0  0  0  0  0  0  0  0  0
   -2.5440   20.6210   -3.5010 C   0  0  0  0  0  0  0  0  0  0  0  0
   -1.8150   20.0660   -4.3720 O   0  0  0  0  0  0  0  0  0  0  0  0
   -3.7210   20.2130   -3.3090 O   0  0  0  0  0  0  0  0  0  0  0  0
    0.4260   21.9240   -2.1290 C   0  0  0  0  0  0  0  0  0  0  0  0
    1.5110   21.5880   -1.3280 C   0  0  0  0  0  0  0  0  0  0  0  0
    3.0730   19.2060    0.5470 C   0  0  0  0  0  0  0  0  0  0  0  0
    2.6840   18.1130   -0.1920 O   0  0  0  0  0  0  0  0  0  0  0  0
    4.1870   19.2720    1.3710 C   0  0  0  0  0  0  0  0  0  0  0  0
    5.1000   18.2700    1.5980 O   0  0  0  0  0  0  0  0  0  0  0  0
    4.1990   20.5610    1.9030 C   0  0  0  0  0  0  0  0  0  0  0  0
    5.3240   21.2370    2.6160 C   0  0  0  0  0  0  0  0  0  0  0  0
    5.3390   22.4510    2.6590 O   0  0  0  0  0  0  0  0  0  0  0  0
    6.4360   20.5100    3.2890 C   0  0  0  0  0  0  0  0  0  0  0  0
    6.1750   19.5610    4.2730 C   0  0  0  0  0  0  0  0  0  0  0  0
    4.5470   19.1700    4.7230 Cl  0  0  0  0  0  0  0  0  0  0  0  0
    7.2320   18.9110    4.8940 C   0  0  0  0  0  0  0  0  0  0  0  0
    8.5350   19.2210    4.5360 C   0  0  0  0  0  0  0  0  0  0  0  0
    8.7940   20.1790    3.5630 C   0  0  0  0  0  0  0  0  0  0  0  0
    7.7450   20.8280    2.9390 C   0  0  0  0  0  0  0  0  0  0  0  0
    1.4263   25.2773    3.1677 H   0  0  0  0  0  0  0  0  0  0  0  0
    0.1973   24.0794    4.9612 H   0  0  0  0  0  0  0  0  0  0  0  0
    0.2978   21.5999    5.0934 H   0  0  0  0  0  0  0  0  0  0  0  0
    1.6496   20.3165    3.4532 H   0  0  0  0  0  0  0  0  0  0  0  0
    3.3793   22.1171    0.8491 H   0  0  0  0  0  0  0  0  0  0  0  0
   -0.0537   19.5579    0.9107 H   0  0  0  0  0  0  0  0  0  0  0  0
   -1.9971   20.1531   -0.5261 H   0  0  0  0  0  0  0  0  0  0  0  0
   -1.7037   22.5552   -3.3760 H   0  0  0  0  0  0  0  0  0  0  0  0
   -2.8091   22.0458   -1.9974 H   0  0  0  0  0  0  0  0  0  0  0  0
   -4.0598   20.0955   -2.3862 H   0  0  0  0  0  0  0  0  0  0  0  0
    0.5614   22.5927   -2.9918 H   0  0  0  0  0  0  0  0  0  0  0  0
    2.5086   21.9923   -1.5547 H   0  0  0  0  0  0  0  0  0  0  0  0
    5.3334   18.0138    2.5253 H   0  0  0  0  0  0  0  0  0  0  0  0
    7.0369   18.1531    5.6670 H   0  0  0  0  0  0  0  0  0  0  0  0
    9.3723   18.7035    5.0270 H   0  0  0  0  0  0  0  0  0  0  0  0
    9.8319   20.4204    3.2899 H   0  0  0  0  0  0  0  0  0  0  0  0
    7.9434   21.5904    2.1713 H   0  0  0  0  0  0  0  0  0  0  0  0
 16 15  2  0
 14 15  1  0
 14 13  1  0
 15 17  1  0
 18 13  2  0
 18 19  1  0
 13 12  1  0
 19 10  2  0
 12 11  2  0
 10 11  1  0
 10  9  1  0
 21 20  2  0
  9 20  1  0
  9  8  1  0
 20 22  1  0
  1  2  1  0
  8 24  1  0
  8  7  1  0
 22 23  1  0
 22 24  2  0
 24 25  1  0
  7  2  2  0
  7  6  1  0
  2  3  1  0
 25 26  2  0
 25 27  1  0
 33 27  1  0
 33 32  2  0
 27 28  2  0
  6  5  2  0
  3  4  2  0
 32 31  1  0
 28 29  1  0
 28 30  1  0
  5  4  1  0
 31 30  2  0
  3 34  1  0
  4 35  1  0
  5 36  1  0
  6 37  1  0
  8 38  1  0
 11 39  1  0
 12 40  1  0
 14 41  1  0
 14 42  1  0
 17 43  1  0
 18 44  1  0
 19 45  1  0
 23 46  1  0
 30 47  1  0
 31 48  1  0
 32 49  1  0
 33 50  1  0
A    1
CLA
A    2
CBB
A    3
CAM
A    4
CAI
A    5
CAK
A    6
CAO
A    7
CBE
A    8
CBF
A    9
NBG
A   10
CBC
A   11
CAR
A   12
CAP
A   13
CAZ
A   14
CAT
A   15
CAU
A   16
OAD
A   17
OAA
A   18
CAQ
A   19
CAS
A   20
CAX
A   21
OAC
A   22
CAW
A   23
OAE
A   24
CAY
A   25
CAV
A   26
OAB
A   27
CBD
A   28
CBA
A   29
CL2
A   30
CAL
A   31
CAH
A   32
CAJ
A   33
CAN
M  END
