4IBE_11Y_A_401
     RDKit          3D

 44 47  0  0  0  0  0  0  0  0999 V2000
   -3.0920   19.3980    0.8200 O   0  0  0  0  0  0  0  0  0  0  0  0
   -3.0870   20.1360   -0.2030 C   0  0  0  0  0  0  0  0  0  0  0  0
   -4.1910   20.4370   -0.7220 O   0  0  0  0  0  0  0  0  0  0  0  0
   -1.7790   20.6570   -0.7260 C   0  0  0  0  0  0  0  0  0  0  0  0
   -0.6330   20.2620   -0.0440 C   0  0  0  0  0  0  0  0  0  0  0  0
   -1.6550   21.4970   -1.8400 C   0  0  0  0  0  0  0  0  0  0  0  0
   -3.0090   22.0540   -2.7630 Cl  0  0  0  0  0  0  0  0  0  0  0  0
   -0.3910   21.9140   -2.2400 C   0  0  0  0  0  0  0  0  0  0  0  0
    0.7460   21.5100   -1.5550 C   0  0  0  0  0  0  0  0  0  0  0  0
    0.6250   20.6780   -0.4520 C   0  0  0  0  0  0  0  0  0  0  0  0
    1.7890   20.2730    0.2710 N   0  0  0  0  0  0  0  0  0  0  0  0
    2.6830   21.1460    0.7560 C   0  0  0  0  0  0  0  0  0  0  0  0
    2.1360   22.2140    1.6390 C   0  0  0  0  0  0  0  0  0  0  0  0
    1.4280   21.8610    3.1180 S   0  0  0  0  0  0  0  0  0  0  0  0
    1.0270   23.4180    3.6100 C   0  0  0  0  0  0  0  0  0  0  0  0
    1.4700   24.2570    2.5810 C   0  0  0  0  0  0  0  0  0  0  0  0
    1.2510   26.1750    2.6690 Br  0  0  0  0  0  0  0  0  0  0  0  0
    2.0930   23.6040    1.4700 C   0  0  0  0  0  0  0  0  0  0  0  0
    2.1110   19.0180    0.5890 C   0  0  0  0  0  0  0  0  0  0  0  0
    1.3640   17.9030    0.2710 O   0  0  0  0  0  0  0  0  0  0  0  0
    3.3260   19.0660    1.2750 C   0  0  0  0  0  0  0  0  0  0  0  0
    4.0330   17.9920    1.7660 O   0  0  0  0  0  0  0  0  0  0  0  0
    3.7030   20.4120    1.3470 C   0  0  0  0  0  0  0  0  0  0  0  0
    4.9520   21.0530    1.8590 C   0  0  0  0  0  0  0  0  0  0  0  0
    5.2360   22.1620    1.4260 O   0  0  0  0  0  0  0  0  0  0  0  0
    5.8590   20.4410    2.8700 C   0  0  0  0  0  0  0  0  0  0  0  0
    7.2270   20.6260    2.7300 C   0  0  0  0  0  0  0  0  0  0  0  0
    8.1110   20.0920    3.6520 C   0  0  0  0  0  0  0  0  0  0  0  0
    7.6160   19.3720    4.7280 C   0  0  0  0  0  0  0  0  0  0  0  0
    6.2480   19.1900    4.8800 C   0  0  0  0  0  0  0  0  0  0  0  0
    5.3630   19.7300    3.9530 C   0  0  0  0  0  0  0  0  0  0  0  0
   -4.9676   20.6487   -0.1457 H   0  0  0  0  0  0  0  0  0  0  0  0
   -0.7265   19.6076    0.8352 H   0  0  0  0  0  0  0  0  0  0  0  0
   -0.2904   22.5749   -3.1136 H   0  0  0  0  0  0  0  0  0  0  0  0
    1.7392   21.8482   -1.8854 H   0  0  0  0  0  0  0  0  0  0  0  0
    3.0674   21.7400   -0.0862 H   0  0  0  0  0  0  0  0  0  0  0  0
    0.5236   23.7142    4.5422 H   0  0  0  0  0  0  0  0  0  0  0  0
    2.4902   24.1303    0.5895 H   0  0  0  0  0  0  0  0  0  0  0  0
    4.1191   17.8612    2.7435 H   0  0  0  0  0  0  0  0  0  0  0  0
    7.6134   21.2033    1.8771 H   0  0  0  0  0  0  0  0  0  0  0  0
    9.1947   20.2376    3.5319 H   0  0  0  0  0  0  0  0  0  0  0  0
    8.3105   18.9427    5.4652 H   0  0  0  0  0  0  0  0  0  0  0  0
    5.8629   18.6169    5.7363 H   0  0  0  0  0  0  0  0  0  0  0  0
    4.2785   19.5944    4.0775 H   0  0  0  0  0  0  0  0  0  0  0  0
 29 30  2  0
 29 28  1  0
 30 31  1  0
 28 27  2  0
 31 26  2  0
 15 14  1  0
 15 16  2  0
 14 13  1  0
 27 26  1  0
 26 24  1  0
 17 16  1  0
 16 18  1  0
 22 21  1  0
 24 25  2  0
 24 23  1  0
 13 18  2  0
 13 12  1  0
 23 21  2  0
 23 12  1  0
 21 19  1  0
 19 20  2  0
 19 11  1  0
 12 11  1  0
  1  2  2  0
 11 10  1  0
  5 10  1  0
  5  4  2  0
  2  4  1  0
  2  3  1  0
 10  9  2  0
  4  6  1  0
  9  8  1  0
  6  8  2  0
  6  7  1  0
  3 32  1  0
  5 33  1  0
  8 34  1  0
  9 35  1  0
 12 36  1  0
 15 37  1  0
 18 38  1  0
 22 39  1  0
 27 40  1  0
 28 41  1  0
 29 42  1  0
 30 43  1  0
 31 44  1  0
A    1
OAA
A    2
CAS
A    3
OAD
A    4
CBC
A    5
CAQ
A    6
CAY
A    7
CLA
A    8
CAM
A    9
CAN
A   10
CBB
A   11
NBE
A   12
CBD
A   13
CBA
A   14
SAR
A   15
CAO
A   16
CAX
A   17
BRA
A   18
CAP
A   19
CAV
A   20
OAC
A   21
CAU
A   22
OAE
A   23
CAW
A   24
CAT
A   25
OAB
A   26
CAZ
A   27
CAK
A   28
CAI
A   29
CAH
A   30
CAJ
A   31
CAL
M  END
