4IBG_1D6_A_401
     RDKit          3D

 56 60  0  0  0  0  0  0  0  0999 V2000
    9.3490   20.8180    3.5640 C   0  0  0  0  0  0  0  0  0  0  0  0
    7.8930   20.4450    3.6740 C   0  0  0  0  0  0  0  0  0  0  0  0
    6.9900   21.0040    2.7970 C   0  0  0  0  0  0  0  0  0  0  0  0
    7.4520   19.5580    4.6370 C   0  0  0  0  0  0  0  0  0  0  0  0
    6.1000   19.2300    4.7160 C   0  0  0  0  0  0  0  0  0  0  0  0
    5.2010   19.8020    3.8350 C   0  0  0  0  0  0  0  0  0  0  0  0
    5.6450   20.6730    2.8650 C   0  0  0  0  0  0  0  0  0  0  0  0
    4.6970   21.3200    1.8970 C   0  0  0  0  0  0  0  0  0  0  0  0
    4.9090   22.4740    1.5130 O   0  0  0  0  0  0  0  0  0  0  0  0
    3.4460   20.6470    1.3650 C   0  0  0  0  0  0  0  0  0  0  0  0
    3.1890   19.2840    1.1750 C   0  0  0  0  0  0  0  0  0  0  0  0
    3.9850   18.1710    1.5770 O   0  0  0  0  0  0  0  0  0  0  0  0
    1.9840   19.2100    0.5050 C   0  0  0  0  0  0  0  0  0  0  0  0
    1.3640   18.0330    0.1200 O   0  0  0  0  0  0  0  0  0  0  0  0
    1.5370   20.4580    0.3020 N   0  0  0  0  0  0  0  0  0  0  0  0
    0.3410   20.7860   -0.4930 C   0  0  0  0  0  0  0  0  0  0  0  0
    0.4160   21.7450   -1.5140 C   0  0  0  0  0  0  0  0  0  0  0  0
   -0.7270   22.0440   -2.2620 C   0  0  0  0  0  0  0  0  0  0  0  0
   -1.9330   21.3750   -1.9750 C   0  0  0  0  0  0  0  0  0  0  0  0
   -3.1740   21.6610   -2.7620 C   0  0  0  0  0  0  0  0  0  0  0  0
   -3.7550   20.4660   -3.3870 C   0  0  0  0  0  0  0  0  0  0  0  0
   -4.8270   19.9950   -2.9490 O   0  0  0  0  0  0  0  0  0  0  0  0
   -3.1580   19.9120   -4.3470 O   0  0  0  0  0  0  0  0  0  0  0  0
   -2.0090   20.4220   -0.9780 C   0  0  0  0  0  0  0  0  0  0  0  0
   -0.8640   20.1290   -0.2150 C   0  0  0  0  0  0  0  0  0  0  0  0
    2.3740   21.3630    0.8370 C   0  0  0  0  0  0  0  0  0  0  0  0
    1.7720   22.3570    1.7880 C   0  0  0  0  0  0  0  0  0  0  0  0
    1.1680   21.8110    2.9250 C   0  0  0  0  0  0  0  0  0  0  0  0
    0.5990   22.6460    3.8580 C   0  0  0  0  0  0  0  0  0  0  0  0
   -0.0560   22.4370    5.0400 O   0  0  0  0  0  0  0  0  0  0  0  0
   -0.3950   23.6220    5.5520 C   0  0  0  0  0  0  0  0  0  0  0  0
    0.0040   24.5940    4.7420 O   0  0  0  0  0  0  0  0  0  0  0  0
    0.6360   24.0360    3.6630 C   0  0  0  0  0  0  0  0  0  0  0  0
    1.2410   24.5850    2.5460 C   0  0  0  0  0  0  0  0  0  0  0  0
    1.2610   26.2990    2.3680 Cl  0  0  0  0  0  0  0  0  0  0  0  0
    1.8200   23.7300    1.5870 C   0  0  0  0  0  0  0  0  0  0  0  0
    9.7766   20.9275    4.5716 H   0  0  0  0  0  0  0  0  0  0  0  0
    9.8895   20.0293    3.0201 H   0  0  0  0  0  0  0  0  0  0  0  0
    9.4437   21.7694    3.0201 H   0  0  0  0  0  0  0  0  0  0  0  0
    7.3384   21.7186    2.0367 H   0  0  0  0  0  0  0  0  0  0  0  0
    8.1684   19.1105    5.3417 H   0  0  0  0  0  0  0  0  0  0  0  0
    5.7489   18.5179    5.4773 H   0  0  0  0  0  0  0  0  0  0  0  0
    4.1302   19.5612    3.9089 H   0  0  0  0  0  0  0  0  0  0  0  0
    4.1207   17.9813    2.5391 H   0  0  0  0  0  0  0  0  0  0  0  0
    1.3662   22.2576   -1.7245 H   0  0  0  0  0  0  0  0  0  0  0  0
   -0.6849   22.7936   -3.0659 H   0  0  0  0  0  0  0  0  0  0  0  0
   -2.9264   22.3834   -3.5537 H   0  0  0  0  0  0  0  0  0  0  0  0
   -3.9215   22.0562   -2.0584 H   0  0  0  0  0  0  0  0  0  0  0  0
   -4.9765   19.9293   -1.9726 H   0  0  0  0  0  0  0  0  0  0  0  0
   -2.9558   19.8972   -0.7825 H   0  0  0  0  0  0  0  0  0  0  0  0
   -0.9150   19.3875    0.5959 H   0  0  0  0  0  0  0  0  0  0  0  0
    2.7040   22.0451    0.0397 H   0  0  0  0  0  0  0  0  0  0  0  0
    1.1481   20.7211    3.0721 H   0  0  0  0  0  0  0  0  0  0  0  0
    0.0845   23.7457    6.5342 H   0  0  0  0  0  0  0  0  0  0  0  0
   -1.4883   23.6692    5.6637 H   0  0  0  0  0  0  0  0  0  0  0  0
    2.3038   24.1451    0.6906 H   0  0  0  0  0  0  0  0  0  0  0  0
 23 21  2  0
 21 22  1  0
 21 20  1  0
 20 19  1  0
 18 19  1  0
 18 17  2  0
 19 24  2  0
 17 16  1  0
 24 25  1  0
 16 25  2  0
 16 15  1  0
 14 13  2  0
 15 13  1  0
 15 26  1  0
 13 11  1  0
 26 10  1  0
 26 27  1  0
 11 10  2  0
 11 12  1  0
 10  8  1  0
  9  8  2  0
 36 27  1  0
 36 34  2  0
 27 28  2  0
  8  7  1  0
 35 34  1  0
 34 33  1  0
  3  7  1  0
  3  2  2  0
  7  6  2  0
 28 29  1  0
  1  2  1  0
 33 29  2  0
 33 32  1  0
  2  4  1  0
 29 30  1  0
  6  5  1  0
  4  5  2  0
 32 31  1  0
 30 31  1  0
  1 37  1  0
  1 38  1  0
  1 39  1  0
  3 40  1  0
  4 41  1  0
  5 42  1  0
  6 43  1  0
 12 44  1  0
 17 45  1  0
 18 46  1  0
 20 47  1  0
 20 48  1  0
 22 49  1  0
 24 50  1  0
 25 51  1  0
 26 52  1  0
 28 53  1  0
 31 54  1  0
 31 55  1  0
 36 56  1  0
A    1
CAA
A    2
CBA
A    3
CAO
A    4
CAI
A    5
CAH
A    6
CAJ
A    7
CBD
A    8
CAW
A    9
OAC
A   10
CAZ
A   11
CAY
A   12
OAF
A   13
CAX
A   14
OAD
A   15
NBJ
A   16
CBF
A   17
CAM
A   18
CAK
A   19
CBB
A   20
CAS
A   21
CAV
A   22
OAE
A   23
OAB
A   24
CAL
A   25
CAN
A   26
CBI
A   27
CBE
A   28
CAQ
A   29
CBG
A   30
OAT
A   31
CAR
A   32
OAU
A   33
CBH
A   34
CBC
A   35
CLA
A   36
CAP
M  END
