4IBM_IR1_A_1301
     RDKit          3D

 35 39  0  0  0  0  0  0  0  0999 V2000
    2.7030  -12.8020    9.7470 O   0  0  0  0  0  0  0  0  0  0  0  0
    2.0280  -12.4600    8.5030 C   0  0  0  0  0  0  0  0  0  0  0  0
    0.8790  -13.0400    8.1270 N   0  0  0  0  0  0  0  0  0  0  0  0
    0.5590  -12.4610    6.8800 N   0  0  0  0  0  0  0  0  0  0  0  0
    1.4590  -11.5290    6.5130 C   0  0  0  0  0  0  0  0  0  0  0  0
    1.5750  -10.7400    5.4320 N   0  0  0  0  0  0  0  0  0  0  0  0
    2.5060  -11.4650    7.5420 C   0  0  0  0  0  0  0  0  0  0  0  0
    3.5840  -10.6010    7.4530 C   0  0  0  0  0  0  0  0  0  0  0  0
    3.6170   -9.8040    6.3070 C   0  0  0  0  0  0  0  0  0  0  0  0
    2.6580   -9.8730    5.3510 N   0  0  0  0  0  0  0  0  0  0  0  0
    4.6890   -8.8180    6.0740 C   0  0  0  0  0  0  0  0  0  0  0  0
    4.9040   -8.0790    4.8150 C   0  0  0  0  0  0  0  0  0  0  0  0
    4.2830   -8.1330    3.5700 C   0  0  0  0  0  0  0  0  0  0  0  0
    4.7700   -7.2940    2.5690 C   0  0  0  0  0  0  0  0  0  0  0  0
    5.8620   -6.4670    2.8590 C   0  0  0  0  0  0  0  0  0  0  0  0
    6.4500   -6.4860    4.1230 C   0  0  0  0  0  0  0  0  0  0  0  0
    5.7130   -8.2890    7.0190 C   0  0  0  0  0  0  0  0  0  0  0  0
    6.4590   -7.3740    6.3540 N   0  0  0  0  0  0  0  0  0  0  0  0
    5.9450   -7.3030    5.0660 N   0  0  0  0  0  0  0  0  0  0  0  0
    5.9510   -8.6370    8.4380 C   0  0  0  0  0  0  0  0  0  0  0  0
    7.0540   -9.4080    8.7830 C   0  0  0  0  0  0  0  0  0  0  0  0
    5.0840   -8.1280    9.4020 C   0  0  0  0  0  0  0  0  0  0  0  0
    5.3080   -8.4250   10.7470 C   0  0  0  0  0  0  0  0  0  0  0  0
    6.4310   -9.1960   11.1030 C   0  0  0  0  0  0  0  0  0  0  0  0
    7.2900   -9.6890   10.1280 C   0  0  0  0  0  0  0  0  0  0  0  0
    4.3601  -10.5462    8.2306 H   0  0  0  0  0  0  0  0  0  0  0  0
    3.4388   -8.8130    3.3831 H   0  0  0  0  0  0  0  0  0  0  0  0
    4.3059   -7.2819    1.5717 H   0  0  0  0  0  0  0  0  0  0  0  0
    6.2594   -5.7965    2.0828 H   0  0  0  0  0  0  0  0  0  0  0  0
    7.3139   -5.8428    4.3463 H   0  0  0  0  0  0  0  0  0  0  0  0
    7.7316   -9.7914    8.0059 H   0  0  0  0  0  0  0  0  0  0  0  0
    4.2317   -7.4986    9.1062 H   0  0  0  0  0  0  0  0  0  0  0  0
    4.6153   -8.0610   11.5201 H   0  0  0  0  0  0  0  0  0  0  0  0
    6.6305   -9.4103   12.1633 H   0  0  0  0  0  0  0  0  0  0  0  0
    8.1567  -10.3013   10.4177 H   0  0  0  0  0  0  0  0  0  0  0  0
 14 15  1  0
 14 13  2  0
 15 16  2  0
 13 12  1  0
 16 19  1  0
 12 19  1  0
 12 11  2  0
 19 18  1  0
 10  6  2  0
 10  9  1  0
  6  5  1  0
 11  9  1  0
 11 17  1  0
  9  8  2  0
 18 17  2  0
  5  4  1  0
  5  7  2  0
  4  3  2  0
 17 20  1  0
  8  7  1  0
  7  2  1  0
  3  2  1  0
 20 21  2  0
 20 22  1  0
  2  1  2  0
 21 25  1  0
 22 23  2  0
 25 24  2  0
 23 24  1  0
  8 26  1  0
 13 27  1  0
 14 28  1  0
 15 29  1  0
 16 30  1  0
 21 31  1  0
 22 32  1  0
 23 33  1  0
 24 34  1  0
 25 35  1  0
A    1
O28
A    2
C27
A    3
N26
A    4
N25
A    5
C15
A    6
N14
A    7
C16
A    8
C17
A    9
C18
A   10
N13
A   11
C24
A   12
C12
A   13
C11
A   14
C10
A   15
C9
A   16
C8
A   17
C23
A   18
N22
A   19
N7
A   20
C6
A   21
C1
A   22
C5
A   23
C4
A   24
C3
A   25
C2
M  END
