4IDV_13V_A_701
     RDKit          3D

 49 51  0  0  0  0  0  0  0  0999 V2000
   19.5890   10.9270   88.6120 N   0  0  0  0  0  0  0  0  0  0  0  0
   19.7440   12.1660   88.1280 C   0  0  0  0  0  0  0  0  0  0  0  0
   18.6350   12.8400   87.8910 N   0  0  0  0  0  0  0  0  0  0  0  0
   20.9710   12.5790   87.9580 N   0  0  0  0  0  0  0  0  0  0  0  0
   21.1440   13.8250   87.4710 C   0  0  0  0  0  0  0  0  0  0  0  0
   20.0640   14.6500   87.1370 C   0  0  0  0  0  0  0  0  0  0  0  0
   20.1930   15.9660   86.6530 O   0  0  0  0  0  0  0  0  0  0  0  0
   21.1930   16.5670   85.8670 C   0  0  0  0  0  0  0  0  0  0  0  0
   20.7460   17.9990   85.4810 C   0  0  0  0  0  0  0  0  0  0  0  0
   19.8450   18.1280   84.3770 O   0  0  0  0  0  0  0  0  0  0  0  0
   18.8890   19.1670   84.3330 C   0  0  0  0  0  0  0  0  0  0  0  0
   18.7510   14.1000   87.3960 C   0  0  0  0  0  0  0  0  0  0  0  0
   17.4830   14.8770   87.0480 C   0  0  0  0  0  0  0  0  0  0  0  0
   17.4360   16.1270   86.4700 C   0  0  0  0  0  0  0  0  0  0  0  0
   16.1650   16.4690   86.2600 N   0  0  0  0  0  0  0  0  0  0  0  0
   16.1520   14.4570   87.1460 C   0  0  0  0  0  0  0  0  0  0  0  0
   15.3260   15.4890   86.6500 C   0  0  0  0  0  0  0  0  0  0  0  0
   13.9440   15.4360   86.6140 C   0  0  0  0  0  0  0  0  0  0  0  0
   13.3290   14.3050   87.0880 C   0  0  0  0  0  0  0  0  0  0  0  0
   15.4880   13.3350   87.6150 C   0  0  0  0  0  0  0  0  0  0  0  0
   14.0940   13.2790   87.5980 C   0  0  0  0  0  0  0  0  0  0  0  0
   13.5040   12.1150   88.0770 C   0  0  0  0  0  0  0  0  0  0  0  0
   12.9780   11.0900   88.4670 C   0  0  0  0  0  0  0  0  0  0  0  0
   12.3450    9.8140   88.9100 C   0  0  0  0  0  0  0  0  0  0  0  0
   12.2530    9.8640   90.3890 C   0  0  0  0  0  0  0  0  0  0  0  0
   13.1870    8.6670   88.4140 C   0  0  0  0  0  0  0  0  0  0  0  0
   11.0750    9.7010   88.3860 O   0  0  0  0  0  0  0  0  0  0  0  0
   19.5694   10.7704   89.6298 H   0  0  0  0  0  0  0  0  0  0  0  0
   19.4894   10.1306   87.9664 H   0  0  0  0  0  0  0  0  0  0  0  0
   22.1669   14.2049   87.3319 H   0  0  0  0  0  0  0  0  0  0  0  0
   21.3509   15.9726   84.9550 H   0  0  0  0  0  0  0  0  0  0  0  0
   22.1324   16.6144   86.4373 H   0  0  0  0  0  0  0  0  0  0  0  0
   21.6517   18.5740   85.2378 H   0  0  0  0  0  0  0  0  0  0  0  0
   20.1813   18.3639   86.3516 H   0  0  0  0  0  0  0  0  0  0  0  0
   18.6190   19.4605   85.3582 H   0  0  0  0  0  0  0  0  0  0  0  0
   19.3127   20.0329   83.8033 H   0  0  0  0  0  0  0  0  0  0  0  0
   17.9908   18.8167   83.8033 H   0  0  0  0  0  0  0  0  0  0  0  0
   18.3106   16.7458   86.2209 H   0  0  0  0  0  0  0  0  0  0  0  0
   15.8632   17.3656   85.8527 H   0  0  0  0  0  0  0  0  0  0  0  0
   13.3555   16.2762   86.2169 H   0  0  0  0  0  0  0  0  0  0  0  0
   12.2328   14.2180   87.0610 H   0  0  0  0  0  0  0  0  0  0  0  0
   16.0640   12.4822   88.0036 H   0  0  0  0  0  0  0  0  0  0  0  0
   13.1392    9.3824   90.8280 H   0  0  0  0  0  0  0  0  0  0  0  0
   12.2047   10.9125   90.7181 H   0  0  0  0  0  0  0  0  0  0  0  0
   11.3469    9.3342   90.7181 H   0  0  0  0  0  0  0  0  0  0  0  0
   13.5939    8.1127   89.2726 H   0  0  0  0  0  0  0  0  0  0  0  0
   12.5669    7.9940   87.8037 H   0  0  0  0  0  0  0  0  0  0  0  0
   14.0149    9.0570   87.8037 H   0  0  0  0  0  0  0  0  0  0  0  0
   10.4176    9.6425   89.1239 H   0  0  0  0  0  0  0  0  0  0  0  0
 11 10  1  0
 10  9  1  0
  9  8  1  0
  8  7  1  0
 15 14  1  0
 15 17  1  0
 14 13  2  0
 18 17  2  0
 18 19  1  0
 17 16  1  0
  7  6  1  0
 13 16  1  0
 13 12  1  0
 19 21  2  0
  6 12  2  0
  6  5  1  0
 16 20  2  0
 12  3  1  0
  5  4  2  0
 21 20  1  0
 21 22  1  0
  3  2  2  0
  4  2  1  0
 22 23  3  0
  2  1  1  0
 27 24  1  0
 26 24  1  0
 23 24  1  0
 24 25  1  0
  1 28  1  0
  1 29  1  0
  5 30  1  0
  8 31  1  0
  8 32  1  0
  9 33  1  0
  9 34  1  0
 11 35  1  0
 11 36  1  0
 11 37  1  0
 14 38  1  0
 15 39  1  0
 18 40  1  0
 19 41  1  0
 20 42  1  0
 25 43  1  0
 25 44  1  0
 25 45  1  0
 26 46  1  0
 26 47  1  0
 26 48  1  0
 27 49  1  0
A    1
N3
A    2
C15
A    3
N2
A    4
N4
A    5
C16
A    6
C17
A    7
O2
A    8
C18
A    9
C19
A   10
O3
A   11
C20
A   12
C14
A   13
C11
A   14
C10
A   15
N1
A   16
C12
A   17
C9
A   18
C8
A   19
C7
A   20
C13
A   21
C6
A   22
C5
A   23
C4
A   24
C1
A   25
C3
A   26
C2
A   27
O1
M  END
