4IE3_1EE_A_405
     RDKit          3D

 50 50  0  0  0  0  0  0  0  0999 V2000
   35.0640   88.9480   72.0690 O   0  0  0  0  0  0  0  0  0  0  0  0
   34.0030   88.6990   71.4440 C   0  0  0  0  0  0  0  0  0  0  0  0
   33.1580   89.5830   71.1310 O   0  0  0  0  0  0  0  0  0  0  0  0
   33.7260   87.2660   71.0510 C   0  0  0  0  0  0  0  0  0  0  0  0
   32.2870   87.1380   70.7650 N   0  0  0  0  0  0  0  0  0  0  0  0
   34.4860   86.8730   69.7850 C   0  0  0  0  0  0  0  0  0  0  0  0
   35.9660   86.5570   69.9690 C   0  0  0  0  0  0  0  0  0  0  0  0
   36.5890   86.0880   68.6420 C   0  0  0  0  0  0  0  0  0  0  0  0
   36.9210   87.2520   67.7050 C   0  0  0  0  0  0  0  0  0  0  0  0
   37.2650   86.7360   66.2380 B   0  0  0  0  0  0  0  0  0  0  0  0
   37.9230   87.6890   65.2630 O   0  0  0  0  0  0  0  0  0  0  0  0
   36.2690   85.8020   65.5980 O   0  0  0  0  0  0  0  0  0  0  0  0
   38.4400   85.7840   66.5260 O   0  0  0  0  0  0  0  0  0  0  0  0
   34.0990   86.3800   72.2360 C   0  0  0  0  0  0  0  0  0  0  0  0
   33.1420   86.6740   73.3840 C   0  0  0  0  0  0  0  0  0  0  0  0
   33.3170   85.7530   74.5140 N   0  0  0  0  0  0  0  0  0  0  0  0
   32.1910   85.9190   75.4550 C   0  0  0  0  0  0  0  0  0  0  0  0
   32.2960   84.8890   76.5810 C   0  0  0  0  0  0  0  0  0  0  0  0
   33.5980   85.1090   77.3370 C   0  0  0  0  0  0  0  0  0  0  0  0
   33.7580   84.0830   78.3230 O   0  0  0  0  0  0  0  0  0  0  0  0
   34.7790   85.0830   76.3630 C   0  0  0  0  0  0  0  0  0  0  0  0
   34.5880   86.0590   75.2020 C   0  0  0  0  0  0  0  0  0  0  0  0
   35.0668   88.9487   73.0590 H   0  0  0  0  0  0  0  0  0  0  0  0
   31.7637   87.0915   71.6509 H   0  0  0  0  0  0  0  0  0  0  0  0
   31.9709   87.9542   70.2220 H   0  0  0  0  0  0  0  0  0  0  0  0
   34.4053   87.7059   69.0710 H   0  0  0  0  0  0  0  0  0  0  0  0
   34.0225   85.9380   69.4373 H   0  0  0  0  0  0  0  0  0  0  0  0
   36.0750   85.7613   70.7207 H   0  0  0  0  0  0  0  0  0  0  0  0
   36.4845   87.4684   70.3016 H   0  0  0  0  0  0  0  0  0  0  0  0
   35.8774   85.4195   68.1353 H   0  0  0  0  0  0  0  0  0  0  0  0
   37.5309   85.5719   68.8796 H   0  0  0  0  0  0  0  0  0  0  0  0
   37.7883   87.7976   68.1052 H   0  0  0  0  0  0  0  0  0  0  0  0
   36.0412   87.9094   67.6437 H   0  0  0  0  0  0  0  0  0  0  0  0
   38.4080   88.3914   65.7645 H   0  0  0  0  0  0  0  0  0  0  0  0
   35.7621   85.3266   66.3031 H   0  0  0  0  0  0  0  0  0  0  0  0
   38.5562   85.6899   67.5046 H   0  0  0  0  0  0  0  0  0  0  0  0
   34.0173   85.3217   71.9474 H   0  0  0  0  0  0  0  0  0  0  0  0
   35.1336   86.5859   72.5477 H   0  0  0  0  0  0  0  0  0  0  0  0
   33.3187   87.7011   73.7359 H   0  0  0  0  0  0  0  0  0  0  0  0
   32.1173   86.5460   73.0050 H   0  0  0  0  0  0  0  0  0  0  0  0
   32.2202   86.9317   75.8834 H   0  0  0  0  0  0  0  0  0  0  0  0
   31.2439   85.7701   74.9157 H   0  0  0  0  0  0  0  0  0  0  0  0
   31.4460   85.0075   77.2691 H   0  0  0  0  0  0  0  0  0  0  0  0
   32.2803   83.8739   76.1574 H   0  0  0  0  0  0  0  0  0  0  0  0
   33.5674   86.0901   77.8336 H   0  0  0  0  0  0  0  0  0  0  0  0
   33.6958   84.4816   79.2271 H   0  0  0  0  0  0  0  0  0  0  0  0
   34.8824   84.0656   75.9578 H   0  0  0  0  0  0  0  0  0  0  0  0
   35.6807   85.3859   76.9155 H   0  0  0  0  0  0  0  0  0  0  0  0
   35.4235   85.9565   74.4939 H   0  0  0  0  0  0  0  0  0  0  0  0
   34.5615   87.0894   75.5861 H   0  0  0  0  0  0  0  0  0  0  0  0
 11 10  1  0
 12 10  1  0
 10 13  1  0
 10  9  1  0
  9  8  1  0
  8  7  1  0
  6  7  1  0
  6  4  1  0
  5  4  1  0
  4  2  1  0
  4 14  1  0
  3  2  2  0
  2  1  1  0
 14 15  1  0
 15 16  1  0
 16 22  1  0
 16 17  1  0
 22 21  1  0
 17 18  1  0
 21 19  1  0
 18 19  1  0
 19 20  1  0
  1 23  1  0
  5 24  1  0
  5 25  1  0
  6 26  1  0
  6 27  1  0
  7 28  1  0
  7 29  1  0
  8 30  1  0
  8 31  1  0
  9 32  1  0
  9 33  1  0
 11 34  1  0
 12 35  1  0
 13 36  1  0
 14 37  1  0
 14 38  1  0
 15 39  1  0
 15 40  1  0
 17 41  1  0
 17 42  1  0
 18 43  1  0
 18 44  1  0
 19 45  1  0
 20 46  1  0
 21 47  1  0
 21 48  1  0
 22 49  1  0
 22 50  1  0
M  CHG  1  10  -1
A    1
O3
A    2
C1
A    3
O2
A    4
C4
A    5
N5
A    6
C6
A    7
C7
A    8
C8
A    9
C9
A   10
B10
A   11
O22
A   12
O12
A   13
O11
A   14
C13
A   15
C14
A   16
N15
A   17
C20
A   18
C19
A   19
C18
A   20
O21
A   21
C17
A   22
C16
M  END
