4IF7_HCM_A_403
     RDKit          3D

 21 20  0  0  0  0  0  0  0  0999 V2000
   37.6390  -15.0250    4.8040 C   0  0  0  0  0  0  0  0  0  0  0  0
   39.0200  -13.9000    4.9370 S   0  0  0  0  0  0  0  0  0  0  0  0
   40.5130  -15.0330    5.7020 S   0  0  0  0  0  0  0  0  0  0  0  0
   40.2640  -15.1050    7.5060 C   0  0  0  0  0  0  0  0  0  0  0  0
   39.7130  -13.7730    7.9910 C   0  0  0  0  0  0  0  0  0  0  0  0
   40.5360  -13.0660    9.0850 C   0  0  0  0  0  0  0  0  0  0  0  0
   41.9450  -13.6010    9.3610 C   0  0  0  0  0  0  0  0  0  0  0  0
   42.2860  -13.4850   10.5700 O   0  0  0  0  0  0  0  0  0  0  0  0
   42.6650  -14.0530    8.4340 O   0  0  0  0  0  0  0  0  0  0  0  0
   40.4660  -11.6080    8.9410 N   0  0  0  0  0  0  0  0  0  0  0  0
   37.2956  -15.3047    5.8109 H   0  0  0  0  0  0  0  0  0  0  0  0
   36.8182  -14.5352    4.2596 H   0  0  0  0  0  0  0  0  0  0  0  0
   37.9527  -15.9279    4.2596 H   0  0  0  0  0  0  0  0  0  0  0  0
   39.5509  -15.9072    7.7468 H   0  0  0  0  0  0  0  0  0  0  0  0
   41.2240  -15.3094    8.0026 H   0  0  0  0  0  0  0  0  0  0  0  0
   39.6518  -13.0975    7.1250 H   0  0  0  0  0  0  0  0  0  0  0  0
   38.7396  -14.0012    8.4496 H   0  0  0  0  0  0  0  0  0  0  0  0
   40.0319  -13.3436   10.0225 H   0  0  0  0  0  0  0  0  0  0  0  0
   41.6419  -13.7041   11.2892 H   0  0  0  0  0  0  0  0  0  0  0  0
   40.4450  -11.1715    9.8737 H   0  0  0  0  0  0  0  0  0  0  0  0
   41.2919  -11.2740    8.4241 H   0  0  0  0  0  0  0  0  0  0  0  0
  1  2  1  0
  2  3  1  0
  3  4  1  0
  4  5  1  0
  5  6  1  0
  9  7  2  0
 10  6  1  0
  6  7  1  0
  7  8  1  0
  1 11  1  0
  1 12  1  0
  1 13  1  0
  4 14  1  0
  4 15  1  0
  5 16  1  0
  5 17  1  0
  6 18  1  0
  8 19  1  0
 10 20  1  0
 10 21  1  0
A    1
C1
A    2
S2
A    3
SD
A    4
CG
A    5
CB
A    6
CA
A    7
C
A    8
OXT
A    9
O
A   10
N
M  END
