4IFN_12O_X_701
     RDKit          3D

 59 63  0  0  0  0  0  0  0  0999 V2000
   46.7960    6.6110   18.7330 O   0  0  0  0  0  0  0  0  0  0  0  0
   47.9200    6.7880   18.2220 C   0  0  0  0  0  0  0  0  0  0  0  0
   48.9700    6.3050   18.6880 O   0  0  0  0  0  0  0  0  0  0  0  0
   48.0220    7.5420   16.9270 C   0  0  0  0  0  0  0  0  0  0  0  0
   48.6320    8.9410   17.0360 C   0  0  0  0  0  0  0  0  0  0  0  0
   48.9630    9.4220   15.6310 C   0  0  0  0  0  0  0  0  0  0  0  0
   47.7260    9.3780   14.7160 C   0  0  0  0  0  0  0  0  0  0  0  0
   46.4620    8.8360   15.3930 C   0  0  0  0  0  0  0  0  0  0  0  0
   46.6770    7.5260   16.1890 C   0  0  0  0  0  0  0  0  0  0  0  0
   46.7400    6.2630   15.3360 C   0  0  0  0  0  0  0  0  0  0  0  0
   47.8220    5.7190   15.1160 O   0  0  0  0  0  0  0  0  0  0  0  0
   45.6340    5.6850   14.8540 N   0  0  0  0  0  0  0  0  0  0  0  0
   44.2580    6.1890   14.9320 C   0  0  0  0  0  0  0  0  0  0  0  0
   43.5990    5.3410   16.0290 C   0  0  0  0  0  0  0  0  0  0  0  0
   43.6850    3.8720   15.6210 C   0  0  0  0  0  0  0  0  0  0  0  0
   42.7330    2.9440   16.0500 C   0  0  0  0  0  0  0  0  0  0  0  0
   42.8390    1.6040   15.6550 C   0  0  0  0  0  0  0  0  0  0  0  0
   43.8700    1.1680   14.8190 C   0  0  0  0  0  0  0  0  0  0  0  0
   44.8400    2.0610   14.3620 C   0  0  0  0  0  0  0  0  0  0  0  0
   44.7850    3.4050   14.7350 C   0  0  0  0  0  0  0  0  0  0  0  0
   45.7940    4.3560   14.2250 C   0  0  0  0  0  0  0  0  0  0  0  0
   45.6880    4.5200   12.6900 C   0  0  0  0  0  0  0  0  0  0  0  0
   46.7540    5.4140   12.2380 N   0  0  0  0  0  0  0  0  0  0  0  0
   48.0810    5.1670   12.1270 C   0  0  0  0  0  0  0  0  0  0  0  0
   48.6020    4.0250   12.4170 O   0  0  0  0  0  0  0  0  0  0  0  0
   48.8860    6.3210   11.6360 C   0  0  0  0  0  0  0  0  0  0  0  0
   46.6000    6.6770   11.8330 C   0  0  0  0  0  0  0  0  0  0  0  0
   45.4290    7.2040   11.8140 O   0  0  0  0  0  0  0  0  0  0  0  0
   47.8700    7.3620   11.4240 C   0  0  0  0  0  0  0  0  0  0  0  0
   48.2480    8.6220   10.9610 C   0  0  0  0  0  0  0  0  0  0  0  0
   49.6100    8.8600   10.7030 C   0  0  0  0  0  0  0  0  0  0  0  0
   50.5740    7.8590   10.8980 C   0  0  0  0  0  0  0  0  0  0  0  0
   50.2270    6.5720   11.3610 C   0  0  0  0  0  0  0  0  0  0  0  0
   46.6969    6.5954   19.7179 H   0  0  0  0  0  0  0  0  0  0  0  0
   48.7588    6.9996   16.3164 H   0  0  0  0  0  0  0  0  0  0  0  0
   49.5488    8.9020   17.6426 H   0  0  0  0  0  0  0  0  0  0  0  0
   47.9227    9.6300   17.5179 H   0  0  0  0  0  0  0  0  0  0  0  0
   49.7453    8.7756   15.2065 H   0  0  0  0  0  0  0  0  0  0  0  0
   49.3095   10.4641   15.6946 H   0  0  0  0  0  0  0  0  0  0  0  0
   47.9577    8.7358   13.8535 H   0  0  0  0  0  0  0  0  0  0  0  0
   47.5091   10.4172   14.4278 H   0  0  0  0  0  0  0  0  0  0  0  0
   46.0870    9.6029   16.0867 H   0  0  0  0  0  0  0  0  0  0  0  0
   45.7495    8.6020   14.5882 H   0  0  0  0  0  0  0  0  0  0  0  0
   45.8018    7.4937   16.8546 H   0  0  0  0  0  0  0  0  0  0  0  0
   44.2492    7.2542   15.2062 H   0  0  0  0  0  0  0  0  0  0  0  0
   43.7296    6.1123   13.9703 H   0  0  0  0  0  0  0  0  0  0  0  0
   44.1258    5.4930   16.9826 H   0  0  0  0  0  0  0  0  0  0  0  0
   42.5470    5.6371   16.1543 H   0  0  0  0  0  0  0  0  0  0  0  0
   41.9025    3.2645   16.6961 H   0  0  0  0  0  0  0  0  0  0  0  0
   42.0931    0.8783   16.0114 H   0  0  0  0  0  0  0  0  0  0  0  0
   43.9175    0.1110   14.5183 H   0  0  0  0  0  0  0  0  0  0  0  0
   45.6490    1.7054   13.7070 H   0  0  0  0  0  0  0  0  0  0  0  0
   46.7808    3.9418   14.4793 H   0  0  0  0  0  0  0  0  0  0  0  0
   44.7095    4.9503   12.4306 H   0  0  0  0  0  0  0  0  0  0  0  0
   45.7890    3.5399   12.2010 H   0  0  0  0  0  0  0  0  0  0  0  0
   47.4985    9.4112   10.8013 H   0  0  0  0  0  0  0  0  0  0  0  0
   49.9256    9.8498   10.3414 H   0  0  0  0  0  0  0  0  0  0  0  0
   51.6293    8.0839   10.6840 H   0  0  0  0  0  0  0  0  0  0  0  0
   50.9911    5.7930   11.5000 H   0  0  0  0  0  0  0  0  0  0  0  0
 31 32  2  0
 31 30  1  0
 32 33  1  0
 30 29  2  0
 33 26  2  0
 29 26  1  0
 29 27  1  0
 26 24  1  0
 28 27  2  0
 27 23  1  0
 24 23  1  0
 24 25  2  0
 23 22  1  0
 22 21  1  0
 21 20  1  0
 21 12  1  0
 19 20  1  0
 19 18  2  0
  7  8  1  0
  7  6  1  0
 20 15  2  0
 18 17  1  0
 12 13  1  0
 12 10  1  0
 13 14  1  0
 11 10  2  0
 10  9  1  0
  8  9  1  0
 15 14  1  0
 15 16  1  0
  6  5  1  0
 17 16  2  0
  9  4  1  0
  4  5  1  0
  4  2  1  0
  2  3  2  0
  2  1  1  0
  1 34  1  0
  4 35  1  0
  5 36  1  0
  5 37  1  0
  6 38  1  0
  6 39  1  0
  7 40  1  0
  7 41  1  0
  8 42  1  0
  8 43  1  0
  9 44  1  0
 13 45  1  0
 13 46  1  0
 14 47  1  0
 14 48  1  0
 16 49  1  0
 17 50  1  0
 18 51  1  0
 19 52  1  0
 21 53  1  0
 22 54  1  0
 22 55  1  0
 30 56  1  0
 31 57  1  0
 32 58  1  0
 33 59  1  0
A    1
O33
A    2
C31
A    3
O32
A    4
C26
A    5
C27
A    6
C28
A    7
C29
A    8
C30
A    9
C25
A   10
C23
A   11
O24
A   12
N14
A   13
C15
A   14
C16
A   15
C17
A   16
C22
A   17
C21
A   18
C20
A   19
C19
A   20
C18
A   21
C13
A   22
C12
A   23
N8
A   24
C7
A   25
O11
A   26
C2
A   27
C9
A   28
O10
A   29
C3
A   30
C4
A   31
C5
A   32
C6
A   33
C1
M  END
