4IGH_1EA_A_503
     RDKit          3D

 53 56  0  0  0  0  0  0  0  0999 V2000
   -4.1000   37.0770   -6.4640 O   0  0  0  0  0  0  0  0  0  0  0  0
   -3.3580   37.3830   -5.5460 C   0  0  0  0  0  0  0  0  0  0  0  0
   -2.2470   37.8620   -5.6860 O   0  0  0  0  0  0  0  0  0  0  0  0
   -3.9050   37.1610   -4.1590 C   0  0  0  0  0  0  0  0  0  0  0  0
   -3.4840   37.9350   -2.9780 C   0  0  0  0  0  0  0  0  0  0  0  0
   -2.5670   38.9650   -2.9840 C   0  0  0  0  0  0  0  0  0  0  0  0
   -2.2440   39.6160   -1.8350 C   0  0  0  0  0  0  0  0  0  0  0  0
   -1.3560   40.5270   -1.8890 F   0  0  0  0  0  0  0  0  0  0  0  0
   -2.8550   39.2850   -0.6400 C   0  0  0  0  0  0  0  0  0  0  0  0
   -3.7710   38.2830   -0.5690 C   0  0  0  0  0  0  0  0  0  0  0  0
   -4.1510   37.5640   -1.7070 C   0  0  0  0  0  0  0  0  0  0  0  0
   -5.0430   36.5710   -1.6400 N   0  0  0  0  0  0  0  0  0  0  0  0
   -5.3880   35.9290   -2.7280 C   0  0  0  0  0  0  0  0  0  0  0  0
   -4.8310   36.1770   -3.9730 C   0  0  0  0  0  0  0  0  0  0  0  0
   -6.3820   34.8600   -2.6470 C   0  0  0  0  0  0  0  0  0  0  0  0
   -7.4660   34.9110   -3.5190 C   0  0  0  0  0  0  0  0  0  0  0  0
   -8.4300   33.9440   -3.5450 C   0  0  0  0  0  0  0  0  0  0  0  0
   -9.5690   34.2580   -4.4650 C   0  0  0  0  0  0  0  0  0  0  0  0
  -10.8520   34.2830   -3.7640 C   0  0  0  0  0  0  0  0  0  0  0  0
   -9.4810   34.8490   -5.6120 C   0  0  0  0  0  0  0  0  0  0  0  0
   -8.3670   32.8460   -2.6010 C   0  0  0  0  0  0  0  0  0  0  0  0
   -7.2740   32.7790   -1.7300 C   0  0  0  0  0  0  0  0  0  0  0  0
   -6.2990   33.7430   -1.7070 C   0  0  0  0  0  0  0  0  0  0  0  0
   -5.1570   33.6340   -0.7430 C   0  0  0  0  0  0  0  0  0  0  0  0
   -9.3180   31.8920   -2.6590 O   0  0  0  0  0  0  0  0  0  0  0  0
   -9.9940   31.4120   -1.6300 C   0  0  0  0  0  0  0  0  0  0  0  0
  -10.0570   32.0700   -0.4360 C   0  0  0  0  0  0  0  0  0  0  0  0
  -10.7760   31.5380    0.5740 C   0  0  0  0  0  0  0  0  0  0  0  0
  -11.4640   30.3700    0.3950 C   0  0  0  0  0  0  0  0  0  0  0  0
  -11.3780   29.7220   -0.7870 C   0  0  0  0  0  0  0  0  0  0  0  0
  -10.6660   30.2380   -1.7960 C   0  0  0  0  0  0  0  0  0  0  0  0
   -1.7050   38.0957   -4.8912 H   0  0  0  0  0  0  0  0  0  0  0  0
   -2.0912   39.2634   -3.9298 H   0  0  0  0  0  0  0  0  0  0  0  0
   -2.5949   39.8433    0.2714 H   0  0  0  0  0  0  0  0  0  0  0  0
   -4.2222   38.0328    0.4025 H   0  0  0  0  0  0  0  0  0  0  0  0
   -5.1435   35.5651   -4.8320 H   0  0  0  0  0  0  0  0  0  0  0  0
   -7.5491   35.7610   -4.2122 H   0  0  0  0  0  0  0  0  0  0  0  0
   -9.4109   33.4008   -5.1359 H   0  0  0  0  0  0  0  0  0  0  0  0
  -10.6766   34.2796   -2.6781 H   0  0  0  0  0  0  0  0  0  0  0  0
  -11.4048   35.1921   -4.0433 H   0  0  0  0  0  0  0  0  0  0  0  0
  -11.4398   33.3961   -4.0433 H   0  0  0  0  0  0  0  0  0  0  0  0
   -9.3206   35.9263   -5.4580 H   0  0  0  0  0  0  0  0  0  0  0  0
   -8.6354   34.4294   -6.1768 H   0  0  0  0  0  0  0  0  0  0  0  0
  -10.4121   34.6940   -6.1768 H   0  0  0  0  0  0  0  0  0  0  0  0
   -7.1942   31.9251   -1.0412 H   0  0  0  0  0  0  0  0  0  0  0  0
   -5.5417   33.6707    0.2869 H   0  0  0  0  0  0  0  0  0  0  0  0
   -4.6308   32.6815   -0.9041 H   0  0  0  0  0  0  0  0  0  0  0  0
   -4.4601   34.4697   -0.9041 H   0  0  0  0  0  0  0  0  0  0  0  0
   -9.5271   33.0241   -0.2986 H   0  0  0  0  0  0  0  0  0  0  0  0
  -10.8090   32.0474    1.5484 H   0  0  0  0  0  0  0  0  0  0  0  0
  -12.0828   29.9612    1.2074 H   0  0  0  0  0  0  0  0  0  0  0  0
  -11.8977   28.7619   -0.9215 H   0  0  0  0  0  0  0  0  0  0  0  0
  -10.6231   29.7132   -2.7618 H   0  0  0  0  0  0  0  0  0  0  0  0
  1  2  2  0
  3  2  1  0
 20 18  1  0
  2  4  1  0
 18 19  1  0
 18 17  1  0
  4 14  2  0
  4  5  1  0
 14 13  1  0
 17 16  2  0
 17 21  1  0
 16 15  1  0
  6  5  2  0
  6  7  1  0
  5 11  1  0
 13 15  1  0
 13 12  2  0
 25 21  1  0
 25 26  1  0
 15 23  2  0
 21 22  2  0
  8  7  1  0
  7  9  2  0
 31 26  1  0
 31 30  2  0
 22 23  1  0
 11 12  1  0
 11 10  2  0
 23 24  1  0
 26 27  2  0
 30 29  1  0
  9 10  1  0
 27 28  1  0
 29 28  2  0
  3 32  1  0
  6 33  1  0
  9 34  1  0
 10 35  1  0
 14 36  1  0
 16 37  1  0
 18 38  1  0
 19 39  1  0
 19 40  1  0
 19 41  1  0
 20 42  1  0
 20 43  1  0
 20 44  1  0
 22 45  1  0
 24 46  1  0
 24 47  1  0
 24 48  1  0
 27 49  1  0
 28 50  1  0
 29 51  1  0
 30 52  1  0
 31 53  1  0
A    1
O1
A    2
C22
A    3
O2
A    4
C3
A    5
C4
A    6
C5
A    7
C6
A    8
F1
A    9
C7
A   10
C8
A   11
C9
A   12
N1
A   13
C1
A   14
C2
A   15
C10
A   16
C15
A   17
C14
A   18
C24
A   19
C26
A   20
C25
A   21
C13
A   22
C12
A   23
C11
A   24
C23
A   25
O3
A   26
C16
A   27
C21
A   28
C20
A   29
C19
A   30
C18
A   31
C17
M  END
