4IGR_3ZA_A_901
     RDKit          3D

 33 32  0  0  0  0  0  0  0  0999 V2000
   -6.5720   30.4960  -15.9980 O   0  0  0  0  0  0  0  0  0  0  0  0
   -5.6530   28.2060  -17.6080 C   0  0  0  0  0  0  0  0  0  0  0  0
   -4.2030   28.0060  -15.4090 C   0  0  0  0  0  0  0  0  0  0  0  0
   -2.3900   31.8320  -12.8640 O   0  0  0  0  0  0  0  0  0  0  0  0
   -1.0700   30.3160  -13.9220 O   0  0  0  0  0  0  0  0  0  0  0  0
   -3.3770   26.8790  -14.7850 C   0  0  0  0  0  0  0  0  0  0  0  0
   -6.8890   28.1530  -16.7120 C   0  0  0  0  0  0  0  0  0  0  0  0
   -3.4370   29.7820  -13.6590 C   0  0  0  0  0  0  0  0  0  0  0  0
   -3.5970   29.3980  -15.1390 C   0  0  0  0  0  0  0  0  0  0  0  0
   -4.3660   27.6940  -16.9230 C   0  0  0  0  0  0  0  0  0  0  0  0
   -4.7450   30.3560  -13.1440 N   0  0  0  0  0  0  0  0  0  0  0  0
   -2.1770   30.7200  -13.4660 C   0  0  0  0  0  0  0  0  0  0  0  0
   -2.1250   27.0250  -14.7320 O   0  0  0  0  0  0  0  0  0  0  0  0
   -4.0530   25.8900  -14.3780 O   0  0  0  0  0  0  0  0  0  0  0  0
   -7.4540   27.0720  -16.5260 O   0  0  0  0  0  0  0  0  0  0  0  0
   -7.3450   29.3210  -16.1220 N   0  0  0  0  0  0  0  0  0  0  0  0
   -8.6680   29.5330  -15.5550 C   0  0  0  0  0  0  0  0  0  0  0  0
   -6.4364   30.7021  -15.0392 H   0  0  0  0  0  0  0  0  0  0  0  0
   -5.4912   29.2499  -17.9149 H   0  0  0  0  0  0  0  0  0  0  0  0
   -5.8476   27.5421  -18.4632 H   0  0  0  0  0  0  0  0  0  0  0  0
   -5.1969   28.0474  -14.9394 H   0  0  0  0  0  0  0  0  0  0  0  0
   -2.3965   31.8659  -11.8746 H   0  0  0  0  0  0  0  0  0  0  0  0
   -3.2287   28.8954  -13.0421 H   0  0  0  0  0  0  0  0  0  0  0  0
   -2.6012   29.4289  -15.6053 H   0  0  0  0  0  0  0  0  0  0  0  0
   -4.3106   30.1215  -15.5601 H   0  0  0  0  0  0  0  0  0  0  0  0
   -4.3388   26.6008  -17.0418 H   0  0  0  0  0  0  0  0  0  0  0  0
   -3.5444   28.2335  -17.4169 H   0  0  0  0  0  0  0  0  0  0  0  0
   -4.7392   30.3534  -12.1140 H   0  0  0  0  0  0  0  0  0  0  0  0
   -4.8536   31.3221  -13.4843 H   0  0  0  0  0  0  0  0  0  0  0  0
   -4.1618   25.7308  -13.4070 H   0  0  0  0  0  0  0  0  0  0  0  0
   -8.6023   29.5225  -14.4570 H   0  0  0  0  0  0  0  0  0  0  0  0
   -9.0589   30.5052  -15.8897 H   0  0  0  0  0  0  0  0  0  0  0  0
   -9.3431   28.7316  -15.8897 H   0  0  0  0  0  0  0  0  0  0  0  0
  2 10  1  0
  2  7  1  0
 10  3  1  0
  7 15  2  0
  7 16  1  0
 16  1  1  0
 16 17  1  0
  3  9  1  0
  3  6  1  0
  9  8  1  0
  6 13  2  0
  6 14  1  0
  5 12  2  0
  8 12  1  0
  8 11  1  0
 12  4  1  0
  1 18  1  0
  2 19  1  0
  2 20  1  0
  3 21  1  0
  4 22  1  0
  8 23  1  0
  9 24  1  0
  9 25  1  0
 10 26  1  0
 10 27  1  0
 11 28  1  0
 11 29  1  0
 14 30  1  0
 17 31  1  0
 17 32  1  0
 17 33  1  0
A    1
O6
A    2
C5
A    3
C3
A    4
O2
A    5
O1
A    6
C7
A    7
C8
A    8
C1
A    9
C2
A   10
C4
A   11
N1
A   12
C6
A   13
O3
A   14
O4
A   15
O5
A   16
N2
A   17
C9
M  END
