4IH5_12R_A_601
     RDKit          3D

 27 29  0  0  0  0  0  0  0  0999 V2000
  -31.7160   -9.0430   13.7160 C   0  0  0  0  0  0  0  0  0  0  0  0
  -35.8830   -9.9190   11.6850 C   0  0  0  0  0  0  0  0  0  0  0  0
  -31.9080   -7.6740   13.3210 C   0  0  0  0  0  0  0  0  0  0  0  0
  -30.9980   -6.7570   13.8830 C   0  0  0  0  0  0  0  0  0  0  0  0
  -32.7290   -6.8860   12.4790 C   0  0  0  0  0  0  0  0  0  0  0  0
  -34.8700   -9.8480   12.6390 C   0  0  0  0  0  0  0  0  0  0  0  0
  -30.0070   -7.1000   14.7310 N   0  0  0  0  0  0  0  0  0  0  0  0
  -30.7280   -9.3910   14.5640 N   0  0  0  0  0  0  0  0  0  0  0  0
  -29.9400   -8.4040   15.0060 C   0  0  0  0  0  0  0  0  0  0  0  0
  -31.3290   -5.5190   13.3570 N   0  0  0  0  0  0  0  0  0  0  0  0
  -32.3880   -5.6130   12.4970 N   0  0  0  0  0  0  0  0  0  0  0  0
  -32.5320  -10.0550   13.2120 N   0  0  0  0  0  0  0  0  0  0  0  0
  -33.5240   -9.9050   12.2200 N   0  0  0  0  0  0  0  0  0  0  0  0
  -37.2070   -9.7530   12.0670 C   0  0  0  0  0  0  0  0  0  0  0  0
  -37.5290   -9.5240   13.3910 C   0  0  0  0  0  0  0  0  0  0  0  0
  -36.5290   -9.4850   14.3470 C   0  0  0  0  0  0  0  0  0  0  0  0
  -35.2000   -9.6480   13.9780 C   0  0  0  0  0  0  0  0  0  0  0  0
  -35.6337  -10.1064   10.6301 H   0  0  0  0  0  0  0  0  0  0  0  0
  -33.5571   -7.2901   11.8782 H   0  0  0  0  0  0  0  0  0  0  0  0
  -29.1302   -8.7076   15.6857 H   0  0  0  0  0  0  0  0  0  0  0  0
  -30.8406   -4.6411   13.5843 H   0  0  0  0  0  0  0  0  0  0  0  0
  -32.3982  -10.9998   13.5999 H   0  0  0  0  0  0  0  0  0  0  0  0
  -33.2738   -9.8393   11.2230 H   0  0  0  0  0  0  0  0  0  0  0  0
  -38.0046   -9.8041   11.3112 H   0  0  0  0  0  0  0  0  0  0  0  0
  -38.5782   -9.3730   13.6847 H   0  0  0  0  0  0  0  0  0  0  0  0
  -36.7880   -9.3242   15.4039 H   0  0  0  0  0  0  0  0  0  0  0  0
  -34.4089   -9.6193   14.7418 H   0  0  0  0  0  0  0  0  0  0  0  0
  2 14  2  0
  2  6  1  0
 14 15  1  0
 13  6  1  0
 13 12  1  0
  5 11  2  0
  5  3  1  0
 11 10  1  0
  6 17  2  0
 12  1  1  0
  3  1  2  0
  3  4  1  0
 10  4  1  0
 15 16  2  0
  1  8  1  0
  4  7  2  0
 17 16  1  0
  8  9  2  0
  7  9  1  0
  2 18  1  0
  5 19  1  0
  9 20  1  0
 10 21  1  0
 12 22  1  0
 13 23  1  0
 14 24  1  0
 15 25  1  0
 16 26  1  0
 17 27  1  0
A    1
C4
A    2
C14
A    3
C5
A    4
C6
A    5
C10
A    6
C13
A    7
N1
A    8
N3
A    9
C2
A   10
N7
A   11
N9
A   12
N11
A   13
N12
A   14
C15
A   15
C16
A   16
C17
A   17
C18
M  END
