4IH7_1ER_A_602
     RDKit          3D

 34 35  0  0  0  0  0  0  0  0999 V2000
  -10.7330    6.0850    9.9460 O   0  0  0  0  0  0  0  0  0  0  0  0
  -11.2320    6.8760   10.7520 C   0  0  0  0  0  0  0  0  0  0  0  0
  -12.3290    6.4770   11.5130 N   0  0  0  0  0  0  0  0  0  0  0  0
  -12.9650    7.2550   12.4330 C   0  0  0  0  0  0  0  0  0  0  0  0
  -12.5530    8.5250   12.6690 C   0  0  0  0  0  0  0  0  0  0  0  0
  -11.4540    9.0310   11.9390 C   0  0  0  0  0  0  0  0  0  0  0  0
  -10.7940    8.2620   11.0070 C   0  0  0  0  0  0  0  0  0  0  0  0
   -9.6510    8.8130   10.2280 C   0  0  0  0  0  0  0  0  0  0  0  0
   -9.5770    8.6450    8.8450 C   0  0  0  0  0  0  0  0  0  0  0  0
   -8.4970    9.1470    8.1350 C   0  0  0  0  0  0  0  0  0  0  0  0
   -7.4850    9.8290    8.7960 C   0  0  0  0  0  0  0  0  0  0  0  0
   -8.6330    9.5110   10.8780 C   0  0  0  0  0  0  0  0  0  0  0  0
   -7.5400   10.0280   10.1750 C   0  0  0  0  0  0  0  0  0  0  0  0
   -6.4060   10.7630   10.9080 C   0  0  0  0  0  0  0  0  0  0  0  0
   -6.9030   11.4180   12.2040 C   0  0  0  0  0  0  0  0  0  0  0  0
   -5.8120   11.8860   10.0410 C   0  0  0  0  0  0  0  0  0  0  0  0
   -5.2880    9.7690   11.2810 C   0  0  0  0  0  0  0  0  0  0  0  0
  -12.6860    5.5216   11.3691 H   0  0  0  0  0  0  0  0  0  0  0  0
  -13.8219    6.8485   12.9903 H   0  0  0  0  0  0  0  0  0  0  0  0
  -13.0650    9.1502   13.4153 H   0  0  0  0  0  0  0  0  0  0  0  0
  -11.1181   10.0628   12.1195 H   0  0  0  0  0  0  0  0  0  0  0  0
  -10.3798    8.1114    8.3150 H   0  0  0  0  0  0  0  0  0  0  0  0
   -8.4422    9.0044    7.0457 H   0  0  0  0  0  0  0  0  0  0  0  0
   -6.6288   10.2174    8.2249 H   0  0  0  0  0  0  0  0  0  0  0  0
   -8.6911    9.6579   11.9666 H   0  0  0  0  0  0  0  0  0  0  0  0
   -6.4924   10.8769   13.0692 H   0  0  0  0  0  0  0  0  0  0  0  0
   -6.5709   12.4662   12.2358 H   0  0  0  0  0  0  0  0  0  0  0  0
   -8.0019   11.3804   12.2358 H   0  0  0  0  0  0  0  0  0  0  0  0
   -5.3971   12.6705   10.6909 H   0  0  0  0  0  0  0  0  0  0  0  0
   -5.0131   11.4754    9.4060 H   0  0  0  0  0  0  0  0  0  0  0  0
   -6.6010   12.3153    9.4060 H   0  0  0  0  0  0  0  0  0  0  0  0
   -5.2096    9.6993   12.3760 H   0  0  0  0  0  0  0  0  0  0  0  0
   -5.5251    8.7780   10.8666 H   0  0  0  0  0  0  0  0  0  0  0  0
   -4.3316   10.1205   10.8666 H   0  0  0  0  0  0  0  0  0  0  0  0
 10 11  1  0
 10  9  2  0
 11 13  2  0
  9  8  1  0
  1  2  2  0
 16 14  1  0
 13 12  1  0
 13 14  1  0
  8 12  2  0
  8  7  1  0
  2  7  1  0
  2  3  1  0
 14 17  1  0
 14 15  1  0
  7  6  2  0
  3  4  1  0
  6  5  1  0
  4  5  2  0
  3 18  1  0
  4 19  1  0
  5 20  1  0
  6 21  1  0
  9 22  1  0
 10 23  1  0
 11 24  1  0
 12 25  1  0
 15 26  1  0
 15 27  1  0
 15 28  1  0
 16 29  1  0
 16 30  1  0
 16 31  1  0
 17 32  1  0
 17 33  1  0
 17 34  1  0
A    1
O
A    2
C13
A    3
N
A    4
C12
A    5
C11
A    6
C10
A    7
C9
A    8
C8
A    9
C7
A   10
C6
A   11
C5
A   12
C14
A   13
C4
A   14
C1
A   15
C3
A   16
C2
A   17
C
M  END
