1IEX_TCB_A_617
     RDKit          3D

 45 46  0  0  0  0  0  0  0  0999 V2000
   25.3390   26.7870   36.4480 C   0  0  0  0  0  0  0  0  0  0  0  0
   24.3860   25.9050   37.4760 C   0  0  0  0  0  0  0  0  0  0  0  0
   23.7110   24.6490   36.7510 C   0  0  0  0  0  0  0  0  0  0  0  0
   23.1040   25.0400   35.2720 C   0  0  0  0  0  0  0  0  0  0  0  0
   24.2860   25.6920   34.3980 C   0  0  0  0  0  0  0  0  0  0  0  0
   23.9910   26.2070   32.9550 C   0  0  0  0  0  0  0  0  0  0  0  0
   25.1370   25.4730   38.5690 O   0  0  0  0  0  0  0  0  0  0  0  0
   22.6950   24.1400   37.6080 O   0  0  0  0  0  0  0  0  0  0  0  0
   22.5070   23.9430   34.6830 O   0  0  0  0  0  0  0  0  0  0  0  0
   24.6960   26.8790   35.1090 O   0  0  0  0  0  0  0  0  0  0  0  0
   23.1470   27.4020   32.9920 O   0  0  0  0  0  0  0  0  0  0  0  0
   26.1180   32.6270   35.1570 C   0  0  0  0  0  0  0  0  0  0  0  0
   25.1710   31.6800   34.2640 C   0  0  0  0  0  0  0  0  0  0  0  0
   24.6370   30.4130   35.1170 C   0  0  0  0  0  0  0  0  0  0  0  0
   25.8880   29.5430   35.9250 C   0  0  0  0  0  0  0  0  0  0  0  0
   26.8020   30.6650   36.6920 C   0  0  0  0  0  0  0  0  0  0  0  0
   28.1890   30.1770   37.3070 C   0  0  0  0  0  0  0  0  0  0  0  0
   26.7580   33.7070   34.3690 O   0  0  0  0  0  0  0  0  0  0  0  0
   24.0200   32.4000   33.7580 O   0  0  0  0  0  0  0  0  0  0  0  0
   23.8380   29.6860   34.0830 O   0  0  0  0  0  0  0  0  0  0  0  0
   25.3390   28.4090   37.2400 S   0  0  0  0  0  0  0  0  0  0  0  0
   27.1890   31.7790   35.7750 O   0  0  0  0  0  0  0  0  0  0  0  0
   28.0470   29.5460   38.5980 O   0  0  0  0  0  0  0  0  0  0  0  0
   26.3409   26.3615   36.2891 H   0  0  0  0  0  0  0  0  0  0  0  0
   23.5743   26.5647   37.8165 H   0  0  0  0  0  0  0  0  0  0  0  0
   24.4756   23.8792   36.5696 H   0  0  0  0  0  0  0  0  0  0  0  0
   22.3022   25.7882   35.3573 H   0  0  0  0  0  0  0  0  0  0  0  0
   24.9970   24.8619   34.2743 H   0  0  0  0  0  0  0  0  0  0  0  0
   24.9414   26.4520   32.4582 H   0  0  0  0  0  0  0  0  0  0  0  0
   23.4613   25.4183   32.4006 H   0  0  0  0  0  0  0  0  0  0  0  0
   24.6806   25.7355   39.4074 H   0  0  0  0  0  0  0  0  0  0  0  0
   22.9619   24.2737   38.5519 H   0  0  0  0  0  0  0  0  0  0  0  0
   22.1740   23.3311   35.3865 H   0  0  0  0  0  0  0  0  0  0  0  0
   22.9703   27.6522   33.9334 H   0  0  0  0  0  0  0  0  0  0  0  0
   25.4874   33.1078   35.9193 H   0  0  0  0  0  0  0  0  0  0  0  0
   25.7873   31.3326   33.4217 H   0  0  0  0  0  0  0  0  0  0  0  0
   24.0251   30.6567   35.9980 H   0  0  0  0  0  0  0  0  0  0  0  0
   26.3883   28.9380   35.1545 H   0  0  0  0  0  0  0  0  0  0  0  0
   26.1288   30.9543   37.5125 H   0  0  0  0  0  0  0  0  0  0  0  0
   28.6447   29.4553   36.6131 H   0  0  0  0  0  0  0  0  0  0  0  0
   28.8174   31.0691   37.4460 H   0  0  0  0  0  0  0  0  0  0  0  0
   27.1535   34.3743   34.9841 H   0  0  0  0  0  0  0  0  0  0  0  0
   23.4815   32.7369   34.5174 H   0  0  0  0  0  0  0  0  0  0  0  0
   23.1843   29.0912   34.5291 H   0  0  0  0  0  0  0  0  0  0  0  0
   28.1978   30.2159   39.3111 H   0  0  0  0  0  0  0  0  0  0  0  0
  1  2  1  0
  1 10  1  0
  1 21  1  0
  2  3  1  0
  2  7  1  0
  3  4  1  0
  3  8  1  0
  4  5  1  0
  4  9  1  0
  5  6  1  0
  5 10  1  0
  6 11  1  0
 12 13  1  0
 12 18  1  0
 12 22  1  0
 13 14  1  0
 13 19  1  0
 14 15  1  0
 14 20  1  0
 15 16  1  0
 15 21  1  0
 16 17  1  0
 16 22  1  0
 17 23  1  0
  1 24  1  0
  2 25  1  0
  3 26  1  0
  4 27  1  0
  5 28  1  0
  6 29  1  0
  6 30  1  0
  7 31  1  0
  8 32  1  0
  9 33  1  0
 11 34  1  0
 12 35  1  0
 13 36  1  0
 14 37  1  0
 15 38  1  0
 16 39  1  0
 17 40  1  0
 17 41  1  0
 18 42  1  0
 19 43  1  0
 20 44  1  0
 23 45  1  0
A    1
C1
A    2
C2
A    3
C3
A    4
C4
A    5
C5
A    6
C6
A    7
O2
A    8
O3
A    9
O4
A   10
O5
A   11
O6
A   12
C1'
A   13
C2'
A   14
C3'
A   15
C4'
A   16
C5'
A   17
C6'
A   18
O1'
A   19
O2'
A   20
O3'
A   21
S4'
A   22
O5'
A   23
O6'
M  END
