4IJU_1EO_A_302
     RDKit          3D

 43 47  0  0  0  0  0  0  0  0999 V2000
   41.9920   61.8440   86.0890 C   0  0  0  0  0  0  0  0  0  0  0  0
   42.4090   63.0570   86.6140 C   0  0  0  0  0  0  0  0  0  0  0  0
   41.6120   63.7460   87.5390 C   0  0  0  0  0  0  0  0  0  0  0  0
   40.3850   63.1760   87.9160 C   0  0  0  0  0  0  0  0  0  0  0  0
   39.9650   61.9340   87.3950 C   0  0  0  0  0  0  0  0  0  0  0  0
   40.7750   61.2530   86.4660 C   0  0  0  0  0  0  0  0  0  0  0  0
   44.0990   61.1900   83.1610 C   0  0  0  0  0  0  0  0  0  0  0  0
   45.4060   61.0000   81.3950 C   0  0  0  0  0  0  0  0  0  0  0  0
   45.8990   60.2210   82.3360 N   0  0  0  0  0  0  0  0  0  0  0  0
   45.0480   60.3480   83.4900 N   0  0  0  0  0  0  0  0  0  0  0  0
   43.3970   62.5030   81.2740 C   0  0  0  0  0  0  0  0  0  0  0  0
   42.9580   61.6980   83.9310 C   0  0  0  0  0  0  0  0  0  0  0  0
   42.0970   62.5780   83.3530 C   0  0  0  0  0  0  0  0  0  0  0  0
   42.3350   63.0000   81.9440 C   0  0  0  0  0  0  0  0  0  0  0  0
   44.2750   61.6070   81.8640 N   0  0  0  0  0  0  0  0  0  0  0  0
   45.9690   61.1220   80.0160 C   0  0  0  0  0  0  0  0  0  0  0  0
   45.0770   60.4670   78.9340 C   0  0  0  0  0  0  0  0  0  0  0  0
   46.0510   60.1170   77.7950 C   0  0  0  0  0  0  0  0  0  0  0  0
   47.4000   60.6820   78.2800 C   0  0  0  0  0  0  0  0  0  0  0  0
   47.3290   62.2310   78.3450 C   0  0  0  0  0  0  0  0  0  0  0  0
   46.3950   62.5220   79.5410 C   0  0  0  0  0  0  0  0  0  0  0  0
   47.2100   60.2440   79.7470 C   0  0  0  0  0  0  0  0  0  0  0  0
   48.6190   60.1010   77.8310 O   0  0  0  0  0  0  0  0  0  0  0  0
   42.8280   61.2380   85.2040 O   0  0  0  0  0  0  0  0  0  0  0  0
   43.6020   63.5430   86.1950 F   0  0  0  0  0  0  0  0  0  0  0  0
   41.9394   64.7086   87.9588 H   0  0  0  0  0  0  0  0  0  0  0  0
   39.7396   63.7077   88.6306 H   0  0  0  0  0  0  0  0  0  0  0  0
   39.0066   61.4984   87.7139 H   0  0  0  0  0  0  0  0  0  0  0  0
   40.4632   60.2849   86.0471 H   0  0  0  0  0  0  0  0  0  0  0  0
   43.5697   62.8170   80.2340 H   0  0  0  0  0  0  0  0  0  0  0  0
   41.2385   62.9719   83.9168 H   0  0  0  0  0  0  0  0  0  0  0  0
   41.6521   63.7097   81.4541 H   0  0  0  0  0  0  0  0  0  0  0  0
   44.3074   61.1714   78.5853 H   0  0  0  0  0  0  0  0  0  0  0  0
   44.5393   59.5848   79.3117 H   0  0  0  0  0  0  0  0  0  0  0  0
   45.7415   60.5947   76.8537 H   0  0  0  0  0  0  0  0  0  0  0  0
   46.0917   59.0378   77.5860 H   0  0  0  0  0  0  0  0  0  0  0  0
   48.3273   62.6597   78.5172 H   0  0  0  0  0  0  0  0  0  0  0  0
   46.9611   62.6740   77.4077 H   0  0  0  0  0  0  0  0  0  0  0  0
   46.9314   63.0603   80.3363 H   0  0  0  0  0  0  0  0  0  0  0  0
   45.5407   63.1601   79.2709 H   0  0  0  0  0  0  0  0  0  0  0  0
   46.9998   59.1688   79.8460 H   0  0  0  0  0  0  0  0  0  0  0  0
   48.0687   60.3669   80.4234 H   0  0  0  0  0  0  0  0  0  0  0  0
   49.1675   59.8396   78.6126 H   0  0  0  0  0  0  0  0  0  0  0  0
 18 19  1  0
 18 17  1  0
 23 19  1  0
 19 20  1  0
 19 22  1  0
 20 21  1  0
 17 16  1  0
 21 16  1  0
 22 16  1  0
 16  8  1  0
 11 15  1  0
 11 14  2  0
  8 15  1  0
  8  9  2  0
 15  7  1  0
 14 13  1  0
  9 10  1  0
  7 10  2  0
  7 12  1  0
 13 12  2  0
 12 24  1  0
 24  1  1  0
  1  6  1  0
  1  2  2  0
 25  2  1  0
  6  5  2  0
  2  3  1  0
  5  4  1  0
  3  4  2  0
  3 26  1  0
  4 27  1  0
  5 28  1  0
  6 29  1  0
 11 30  1  0
 13 31  1  0
 14 32  1  0
 17 33  1  0
 17 34  1  0
 18 35  1  0
 18 36  1  0
 20 37  1  0
 20 38  1  0
 21 39  1  0
 21 40  1  0
 22 41  1  0
 22 42  1  0
 23 43  1  0
A    1
C1
A    2
C2
A    3
C3
A    4
C4
A    5
C5
A    6
C6
A    7
C7
A    8
C8
A    9
N9
A   10
N10
A   11
C11
A   12
C12
A   13
C13
A   14
C14
A   15
N15
A   16
C16
A   17
C17
A   18
C18
A   19
C19
A   20
C20
A   21
C21
A   22
C22
A   23
O23
A   24
O24
A   25
F25
M  END
