4IJV_1EN_A_302
     RDKit          3D

 42 46  0  0  0  0  0  0  0  0999 V2000
   45.7690   63.6760   81.0770 C   0  0  0  0  0  0  0  0  0  0  0  0
   45.0340   63.3320   82.1530 C   0  0  0  0  0  0  0  0  0  0  0  0
   45.0570   62.0510   82.6760 N   0  0  0  0  0  0  0  0  0  0  0  0
   45.8270   61.0640   82.1130 C   0  0  0  0  0  0  0  0  0  0  0  0
   46.6490   61.3880   80.9320 C   0  0  0  0  0  0  0  0  0  0  0  0
   46.6170   62.6480   80.4300 C   0  0  0  0  0  0  0  0  0  0  0  0
   44.4160   61.5150   83.7490 C   0  0  0  0  0  0  0  0  0  0  0  0
   44.7340   60.2490   83.8470 N   0  0  0  0  0  0  0  0  0  0  0  0
   45.6720   59.9560   82.7890 N   0  0  0  0  0  0  0  0  0  0  0  0
   43.4430   62.2430   84.6220 C   0  0  0  0  0  0  0  0  0  0  0  0
   42.2350   62.6770   83.8220 C   0  0  0  0  0  0  0  0  0  0  0  0
   43.2460   61.7660   86.0190 C   0  0  0  0  0  0  0  0  0  0  0  0
   43.9480   63.0590   85.7630 C   0  0  0  0  0  0  0  0  0  0  0  0
   41.6500   63.9290   84.0380 C   0  0  0  0  0  0  0  0  0  0  0  0
   40.5310   64.3080   83.2790 C   0  0  0  0  0  0  0  0  0  0  0  0
   40.0130   63.4460   82.2980 C   0  0  0  0  0  0  0  0  0  0  0  0
   40.5970   62.1920   82.0720 C   0  0  0  0  0  0  0  0  0  0  0  0
   41.7100   61.8160   82.8360 C   0  0  0  0  0  0  0  0  0  0  0  0
   38.6290   63.9340   81.3820 Cl  0  0  0  0  0  0  0  0  0  0  0  0
   47.4260   60.4100   80.3780 O   0  0  0  0  0  0  0  0  0  0  0  0
   47.6990   60.5390   79.0590 C   0  0  0  0  0  0  0  0  0  0  0  0
   49.0120   60.8400   78.6550 C   0  0  0  0  0  0  0  0  0  0  0  0
   49.3210   60.9870   77.2990 C   0  0  0  0  0  0  0  0  0  0  0  0
   48.2970   60.8320   76.3550 C   0  0  0  0  0  0  0  0  0  0  0  0
   46.9800   60.5400   76.7700 C   0  0  0  0  0  0  0  0  0  0  0  0
   46.6680   60.3850   78.1250 C   0  0  0  0  0  0  0  0  0  0  0  0
   49.9800   60.9830   79.5770 F   0  0  0  0  0  0  0  0  0  0  0  0
   45.7397   64.7036   80.6855 H   0  0  0  0  0  0  0  0  0  0  0  0
   44.3971   64.0918   82.6295 H   0  0  0  0  0  0  0  0  0  0  0  0
   47.2186   62.9053   79.5457 H   0  0  0  0  0  0  0  0  0  0  0  0
   42.2396   61.7650   86.4631 H   0  0  0  0  0  0  0  0  0  0  0  0
   43.4891   60.8442   86.5679 H   0  0  0  0  0  0  0  0  0  0  0  0
   45.0299   63.1430   85.9432 H   0  0  0  0  0  0  0  0  0  0  0  0
   43.8122   64.0981   86.0973 H   0  0  0  0  0  0  0  0  0  0  0  0
   42.0630   64.6109   84.7959 H   0  0  0  0  0  0  0  0  0  0  0  0
   40.0573   65.2853   83.4535 H   0  0  0  0  0  0  0  0  0  0  0  0
   40.1885   61.5144   81.3078 H   0  0  0  0  0  0  0  0  0  0  0  0
   42.1803   60.8365   82.6644 H   0  0  0  0  0  0  0  0  0  0  0  0
   50.3476   61.2197   76.9797 H   0  0  0  0  0  0  0  0  0  0  0  0
   48.5211   60.9386   75.2834 H   0  0  0  0  0  0  0  0  0  0  0  0
   46.1862   60.4326   76.0161 H   0  0  0  0  0  0  0  0  0  0  0  0
   45.6429   60.1491   78.4467 H   0  0  0  0  0  0  0  0  0  0  0  0
 24 25  2  0
 24 23  1  0
 25 26  1  0
 23 22  2  0
 26 21  2  0
 22 21  1  0
 22 27  1  0
 21 20  1  0
 20  5  1  0
  6  5  2  0
  6  1  1  0
  5  4  1  0
  1  2  2  0
 19 16  1  0
 17 16  2  0
 17 18  1  0
  4  3  1  0
  4  9  2  0
  2  3  1  0
 16 15  1  0
  3  7  1  0
  9  8  1  0
 18 11  2  0
 15 14  2  0
  7  8  2  0
  7 10  1  0
 11 14  1  0
 11 10  1  0
 10 13  1  0
 10 12  1  0
 13 12  1  0
  1 28  1  0
  2 29  1  0
  6 30  1  0
 12 31  1  0
 12 32  1  0
 13 33  1  0
 13 34  1  0
 14 35  1  0
 15 36  1  0
 17 37  1  0
 18 38  1  0
 23 39  1  0
 24 40  1  0
 25 41  1  0
 26 42  1  0
A    1
C1
A    2
C2
A    3
N3
A    4
C4
A    5
C5
A    6
C6
A    7
C7
A    8
N8
A    9
N9
A   10
C10
A   11
C11
A   12
C12
A   13
C13
A   14
C14
A   15
C15
A   16
C16
A   17
C17
A   18
C18
A   19
CL19
A   20
O20
A   21
C21
A   22
C22
A   23
C23
A   24
C24
A   25
C25
A   26
C26
A   27
F27
M  END
