4IJW_1EQ_A_302
     RDKit          3D

 38 42  0  0  0  0  0  0  0  0999 V2000
   45.7350   63.5420   80.3970 C   0  0  0  0  0  0  0  0  0  0  0  0
   45.0150   63.2860   81.5120 C   0  0  0  0  0  0  0  0  0  0  0  0
   45.0920   62.0590   82.1420 N   0  0  0  0  0  0  0  0  0  0  0  0
   45.9040   61.0700   81.6530 C   0  0  0  0  0  0  0  0  0  0  0  0
   46.7050   61.2930   80.4480 C   0  0  0  0  0  0  0  0  0  0  0  0
   46.6250   62.4840   79.8260 C   0  0  0  0  0  0  0  0  0  0  0  0
   44.4870   61.5690   83.2750 C   0  0  0  0  0  0  0  0  0  0  0  0
   44.8820   60.3350   83.4670 N   0  0  0  0  0  0  0  0  0  0  0  0
   45.8050   60.0180   82.4180 N   0  0  0  0  0  0  0  0  0  0  0  0
   43.5050   62.2810   84.1580 C   0  0  0  0  0  0  0  0  0  0  0  0
   42.2470   62.6790   83.4100 C   0  0  0  0  0  0  0  0  0  0  0  0
   43.3720   61.8120   85.5710 C   0  0  0  0  0  0  0  0  0  0  0  0
   44.0320   63.1130   85.2860 C   0  0  0  0  0  0  0  0  0  0  0  0
   41.6350   63.9120   83.6540 C   0  0  0  0  0  0  0  0  0  0  0  0
   40.4700   64.2430   82.9520 C   0  0  0  0  0  0  0  0  0  0  0  0
   39.9310   63.3610   82.0020 C   0  0  0  0  0  0  0  0  0  0  0  0
   40.5360   62.1320   81.7400 C   0  0  0  0  0  0  0  0  0  0  0  0
   41.6960   61.7990   82.4520 C   0  0  0  0  0  0  0  0  0  0  0  0
   38.4950   63.8010   81.1530 Cl  0  0  0  0  0  0  0  0  0  0  0  0
   47.5810   60.1660   79.9640 C   0  0  0  0  0  0  0  0  0  0  0  0
   48.9420   60.4750   79.4440 C   0  0  0  0  0  0  0  0  0  0  0  0
   47.8530   60.0490   78.5100 C   0  0  0  0  0  0  0  0  0  0  0  0
   45.6666   64.5262   79.9106 H   0  0  0  0  0  0  0  0  0  0  0  0
   44.3580   64.0663   81.9238 H   0  0  0  0  0  0  0  0  0  0  0  0
   47.2054   62.6764   78.9116 H   0  0  0  0  0  0  0  0  0  0  0  0
   42.3830   61.7917   86.0521 H   0  0  0  0  0  0  0  0  0  0  0  0
   43.6572   60.9001   86.1161 H   0  0  0  0  0  0  0  0  0  0  0  0
   45.1173   63.2216   85.4285 H   0  0  0  0  0  0  0  0  0  0  0  0
   43.8836   64.1498   85.6222 H   0  0  0  0  0  0  0  0  0  0  0  0
   42.0627   64.6119   84.3870 H   0  0  0  0  0  0  0  0  0  0  0  0
   39.9717   65.2041   83.1467 H   0  0  0  0  0  0  0  0  0  0  0  0
   40.1138   61.4424   80.9942 H   0  0  0  0  0  0  0  0  0  0  0  0
   42.1872   60.8334   82.2613 H   0  0  0  0  0  0  0  0  0  0  0  0
   47.1846   59.4927   80.7383 H   0  0  0  0  0  0  0  0  0  0  0  0
   49.7810   59.7966   79.6583 H   0  0  0  0  0  0  0  0  0  0  0  0
   49.6241   61.3357   79.5062 H   0  0  0  0  0  0  0  0  0  0  0  0
   47.4151   60.7742   77.8083 H   0  0  0  0  0  0  0  0  0  0  0  0
   47.7392   59.2536   77.7587 H   0  0  0  0  0  0  0  0  0  0  0  0
 22 21  1  0
 22 20  1  0
 21 20  1  0
  6  1  1  0
  6  5  2  0
 20  5  1  0
  1  2  2  0
  5  4  1  0
 19 16  1  0
  2  3  1  0
  4  3  1  0
  4  9  2  0
 17 16  2  0
 17 18  1  0
 16 15  1  0
  3  7  1  0
  9  8  1  0
 18 11  2  0
 15 14  2  0
  7  8  2  0
  7 10  1  0
 11 14  1  0
 11 10  1  0
 10 13  1  0
 10 12  1  0
 13 12  1  0
  1 23  1  0
  2 24  1  0
  6 25  1  0
 12 26  1  0
 12 27  1  0
 13 28  1  0
 13 29  1  0
 14 30  1  0
 15 31  1  0
 17 32  1  0
 18 33  1  0
 20 34  1  0
 21 35  1  0
 21 36  1  0
 22 37  1  0
 22 38  1  0
A    1
C1
A    2
C2
A    3
N3
A    4
C4
A    5
C5
A    6
C6
A    7
C7
A    8
N8
A    9
N9
A   10
C10
A   11
C11
A   12
C12
A   13
C13
A   14
C14
A   15
C15
A   16
C16
A   17
C17
A   18
C18
A   19
CL19
A   20
C20
A   21
C21
A   22
C22
M  END
