4IKP_4IK_A_501
     RDKit          3D

 53 55  0  0  0  0  0  0  0  0999 V2000
   14.3430   34.1050   13.3660 C   0  0  0  0  0  0  0  0  0  0  0  0
   16.6160   33.1530   13.1630 N   0  0  0  0  0  0  0  0  0  0  0  0
   14.7010   35.0470   14.1140 O   0  0  0  0  0  0  0  0  0  0  0  0
   16.2650   22.7520    9.9910 N   0  0  0  0  0  0  0  0  0  0  0  0
   15.8250   23.9690    9.4680 C   0  0  0  0  0  0  0  0  0  0  0  0
   15.1740   24.8210   10.3520 N   0  0  0  0  0  0  0  0  0  0  0  0
   15.0010   24.4730   11.6400 C   0  0  0  0  0  0  0  0  0  0  0  0
   15.4410   23.3010   12.1080 C   0  0  0  0  0  0  0  0  0  0  0  0
   16.0660   22.4570   11.2880 C   0  0  0  0  0  0  0  0  0  0  0  0
   16.4810   21.3070   11.8150 N   0  0  0  0  0  0  0  0  0  0  0  0
   15.1290   23.2220   13.3980 N   0  0  0  0  0  0  0  0  0  0  0  0
   14.5040   24.3410   13.7430 C   0  0  0  0  0  0  0  0  0  0  0  0
   14.4260   25.1140   12.6530 N   0  0  0  0  0  0  0  0  0  0  0  0
   15.1940   32.8150   13.3320 C   0  0  0  0  0  0  0  0  0  0  0  0
   15.0040   31.9500   14.5870 C   0  0  0  0  0  0  0  0  0  0  0  0
   13.3790   29.7790   18.0650 N   0  0  0  0  0  0  0  0  0  0  0  0
   11.8490   28.8070   12.3910 O   0  0  0  0  0  0  0  0  0  0  0  0
   11.4290   26.1840   12.2080 O   0  0  0  0  0  0  0  0  0  0  0  0
   14.0100   30.5630   16.9910 C   0  0  0  0  0  0  0  0  0  0  0  0
   13.6000   31.3310   14.6100 C   0  0  0  0  0  0  0  0  0  0  0  0
   14.2240   28.8740   15.1100 C   0  0  0  0  0  0  0  0  0  0  0  0
   14.6260   27.2930   13.3600 O   0  0  0  0  0  0  0  0  0  0  0  0
   13.4850   30.1500   15.6030 C   0  0  0  0  0  0  0  0  0  0  0  0
   12.3890   28.0540   13.4870 C   0  0  0  0  0  0  0  0  0  0  0  0
   12.4320   26.5500   13.1650 C   0  0  0  0  0  0  0  0  0  0  0  0
   13.8890   28.4770   13.6540 C   0  0  0  0  0  0  0  0  0  0  0  0
   13.8170   26.4540   12.5300 C   0  0  0  0  0  0  0  0  0  0  0  0
   13.3430   34.1270   12.6200 O   0  0  0  0  0  0  0  0  0  0  0  0
   17.0563   33.2577   14.0882 H   0  0  0  0  0  0  0  0  0  0  0  0
   17.0880   32.4008   12.6412 H   0  0  0  0  0  0  0  0  0  0  0  0
   15.9848   24.2389    8.4137 H   0  0  0  0  0  0  0  0  0  0  0  0
   16.5217   21.1943   12.8380 H   0  0  0  0  0  0  0  0  0  0  0  0
   16.7614   20.5300   11.1997 H   0  0  0  0  0  0  0  0  0  0  0  0
   14.1197   24.5883   14.7436 H   0  0  0  0  0  0  0  0  0  0  0  0
   14.8476   32.2209   12.4735 H   0  0  0  0  0  0  0  0  0  0  0  0
   15.7538   31.1451   14.5880 H   0  0  0  0  0  0  0  0  0  0  0  0
   15.1257   32.5852   15.4768 H   0  0  0  0  0  0  0  0  0  0  0  0
   13.6761   30.1481   18.9795 H   0  0  0  0  0  0  0  0  0  0  0  0
   12.3545   29.8474   17.9835 H   0  0  0  0  0  0  0  0  0  0  0  0
   11.3095   29.5594   12.7416 H   0  0  0  0  0  0  0  0  0  0  0  0
   10.6129   25.8862   12.6828 H   0  0  0  0  0  0  0  0  0  0  0  0
   13.7921   31.6291   17.1522 H   0  0  0  0  0  0  0  0  0  0  0  0
   15.0934   30.3745   17.0188 H   0  0  0  0  0  0  0  0  0  0  0  0
   12.8776   32.1076   14.9015 H   0  0  0  0  0  0  0  0  0  0  0  0
   13.3924   30.9401   13.6030 H   0  0  0  0  0  0  0  0  0  0  0  0
   15.3071   29.0529   15.1794 H   0  0  0  0  0  0  0  0  0  0  0  0
   13.8900   28.0448   15.7511 H   0  0  0  0  0  0  0  0  0  0  0  0
   12.4167   29.8972   15.6723 H   0  0  0  0  0  0  0  0  0  0  0  0
   11.7659   28.2413   14.3739 H   0  0  0  0  0  0  0  0  0  0  0  0
   12.2538   25.8964   14.0316 H   0  0  0  0  0  0  0  0  0  0  0  0
   14.1172   29.3397   13.0108 H   0  0  0  0  0  0  0  0  0  0  0  0
   13.7473   26.7092   11.4623 H   0  0  0  0  0  0  0  0  0  0  0  0
   12.4338   34.1470   13.0113 H   0  0  0  0  0  0  0  0  0  0  0  0
  3  1  2  0
  1 14  1  0
  1 28  1  0
 14  2  1  0
  9  4  2  0
  4  5  1  0
  6  5  2  0
  7  6  1  0
 13  7  1  0
  8  7  2  0
 11  8  1  0
  8  9  1  0
 10  9  1  0
 12 11  2  0
 12 13  1  0
 13 27  1  0
 15 14  1  0
 20 15  1  0
 16 19  1  0
 24 17  1  0
 25 18  1  0
 19 23  1  0
 23 20  1  0
 23 21  1  0
 21 26  1  0
 26 22  1  0
 22 27  1  0
 26 24  1  0
 24 25  1  0
 25 27  1  0
  2 29  1  0
  2 30  1  0
  5 31  1  0
 10 32  1  0
 10 33  1  0
 12 34  1  0
 14 35  1  0
 15 36  1  0
 15 37  1  0
 16 38  1  0
 16 39  1  0
 17 40  1  0
 18 41  1  0
 19 42  1  0
 19 43  1  0
 20 44  1  0
 20 45  1  0
 21 46  1  0
 21 47  1  0
 23 48  1  0
 24 49  1  0
 25 50  1  0
 26 51  1  0
 27 52  1  0
 28 53  1  0
A    1
C
A    2
N
A    3
O
A    4
N1
A    5
C2
A    6
N3
A    7
C4
A    8
C5
A    9
C6
A   10
N6
A   11
N7
A   12
C8
A   13
N9
A   14
CA
A   15
CB
A   16
NZ
A   17
O3'
A   18
O2'
A   19
CE
A   20
CG
A   21
C5'
A   22
O4'
A   23
CD
A   24
C3'
A   25
C2'
A   26
C4'
A   27
C1'
A   28
OXT
M  END
