4ILX_1EZ_A_303
     RDKit          3D

 48 51  0  0  0  0  0  0  0  0999 V2000
   17.8210    6.0380   12.8160 C   0  0  0  0  0  0  0  0  0  0  0  0
   19.4910    8.0940   12.6480 C   0  0  0  0  0  0  0  0  0  0  0  0
   19.0980   10.5830   12.9650 C   0  0  0  0  0  0  0  0  0  0  0  0
   21.3710    9.7480   12.5410 C   0  0  0  0  0  0  0  0  0  0  0  0
   19.2300   10.1720   14.3830 C   0  0  0  0  0  0  0  0  0  0  0  0
   19.6450    7.9520   14.0350 C   0  0  0  0  0  0  0  0  0  0  0  0
   20.8570    8.3940   12.0600 C   0  0  0  0  0  0  0  0  0  0  0  0
   17.5390    1.8980   15.5140 C   0  0  0  0  0  0  0  0  0  0  0  0
   15.8600   -0.7290   16.1160 N   0  0  0  0  0  0  0  0  0  0  0  0
   15.4000    0.7480   16.6980 S   0  0  0  0  0  0  0  0  0  0  0  0
   13.9660    0.9130   16.6430 O   0  0  0  0  0  0  0  0  0  0  0  0
   15.8350    0.8910   18.0850 O   0  0  0  0  0  0  0  0  0  0  0  0
   16.1690    2.0280   15.7480 C   0  0  0  0  0  0  0  0  0  0  0  0
   15.4400    3.1060   15.2520 C   0  0  0  0  0  0  0  0  0  0  0  0
   16.1250    4.0810   14.4970 C   0  0  0  0  0  0  0  0  0  0  0  0
   17.5050    3.9510   14.2760 C   0  0  0  0  0  0  0  0  0  0  0  0
   18.2950    4.8700   13.4990 N   0  0  0  0  0  0  0  0  0  0  0  0
   16.6560    6.4180   12.8440 O   0  0  0  0  0  0  0  0  0  0  0  0
   18.8750    6.8090   12.0370 C   0  0  0  0  0  0  0  0  0  0  0  0
   18.4680    9.2960   12.5080 C   0  0  0  0  0  0  0  0  0  0  0  0
   20.3810   10.8270   12.2940 C   0  0  0  0  0  0  0  0  0  0  0  0
   21.4940    9.3320   13.9580 C   0  0  0  0  0  0  0  0  0  0  0  0
   20.2060    9.0470   14.5650 C   0  0  0  0  0  0  0  0  0  0  0  0
   18.2100    2.8630   14.7720 C   0  0  0  0  0  0  0  0  0  0  0  0
   18.5668   11.5271   12.7738 H   0  0  0  0  0  0  0  0  0  0  0  0
   22.2704   10.1793   12.0772 H   0  0  0  0  0  0  0  0  0  0  0  0
   19.5737   11.0361   14.9705 H   0  0  0  0  0  0  0  0  0  0  0  0
   18.2450    9.8191   14.7225 H   0  0  0  0  0  0  0  0  0  0  0  0
   18.6576    7.7946   14.4934 H   0  0  0  0  0  0  0  0  0  0  0  0
   20.2995    7.0899   14.2311 H   0  0  0  0  0  0  0  0  0  0  0  0
   20.7820    8.4063   10.9626 H   0  0  0  0  0  0  0  0  0  0  0  0
   21.5600    7.6142   12.3881 H   0  0  0  0  0  0  0  0  0  0  0  0
   18.0868    1.0331   15.9163 H   0  0  0  0  0  0  0  0  0  0  0  0
   16.0572   -1.3623   16.9040 H   0  0  0  0  0  0  0  0  0  0  0  0
   15.1018   -1.1226   15.5407 H   0  0  0  0  0  0  0  0  0  0  0  0
   14.3604    3.1947   15.4436 H   0  0  0  0  0  0  0  0  0  0  0  0
   15.5789    4.9412   14.0824 H   0  0  0  0  0  0  0  0  0  0  0  0
   19.3024    4.6680   13.4264 H   0  0  0  0  0  0  0  0  0  0  0  0
   18.4169    7.0983   11.0797 H   0  0  0  0  0  0  0  0  0  0  0  0
   19.7246    6.1116   11.9939 H   0  0  0  0  0  0  0  0  0  0  0  0
   18.1679    9.3945   11.4543 H   0  0  0  0  0  0  0  0  0  0  0  0
   17.5890    9.0887   13.1361 H   0  0  0  0  0  0  0  0  0  0  0  0
   20.7960   11.7766   12.6628 H   0  0  0  0  0  0  0  0  0  0  0  0
   20.1888   10.8603   11.2114 H   0  0  0  0  0  0  0  0  0  0  0  0
   22.1161    8.4261   14.0075 H   0  0  0  0  0  0  0  0  0  0  0  0
   21.9498   10.1648   14.5137 H   0  0  0  0  0  0  0  0  0  0  0  0
   20.4146    8.8998   15.6350 H   0  0  0  0  0  0  0  0  0  0  0  0
   19.2887    2.7655   14.5798 H   0  0  0  0  0  0  0  0  0  0  0  0
 19  2  1  0
 19  1  1  0
  7  4  1  0
  7  2  1  0
 21  4  1  0
 21  3  1  0
 20  2  1  0
 20  3  1  0
  4 22  1  0
  2  6  1  0
  1 18  2  0
  1 17  1  0
  3  5  1  0
 17 16  1  0
 22 23  1  0
  6 23  1  0
 16 15  2  0
 16 24  1  0
  5 23  1  0
 15 14  1  0
 24  8  2  0
 14 13  2  0
  8 13  1  0
 13 10  1  0
  9 10  1  0
 11 10  2  0
 10 12  2  0
  3 25  1  0
  4 26  1  0
  5 27  1  0
  5 28  1  0
  6 29  1  0
  6 30  1  0
  7 31  1  0
  7 32  1  0
  8 33  1  0
  9 34  1  0
  9 35  1  0
 14 36  1  0
 15 37  1  0
 17 38  1  0
 19 39  1  0
 19 40  1  0
 20 41  1  0
 20 42  1  0
 21 43  1  0
 21 44  1  0
 22 45  1  0
 22 46  1  0
 23 47  1  0
 24 48  1  0
A    1
C10
A    2
C13
A    3
C15
A    4
C17
A    5
C20
A    6
C21
A    7
C22
A    8
C24
A    9
N01
A   10
S02
A   11
O03
A   12
O04
A   13
C05
A   14
C06
A   15
C07
A   16
C08
A   17
N09
A   18
O11
A   19
C12
A   20
C14
A   21
C16
A   22
C18
A   23
C19
A   24
C23
M  END
