3FZL_3FD_A_401
     RDKit          3D

 61 65  0  0  0  0  0  0  0  0999 V2000
   22.3800   -2.0350    2.4330 C   0  0  0  0  0  0  0  0  0  0  0  0
   23.2740   -2.7680    3.2190 C   0  0  0  0  0  0  0  0  0  0  0  0
   22.8130   -3.4510    4.3430 C   0  0  0  0  0  0  0  0  0  0  0  0
   23.9060   -4.3470    5.3070 Cl  0  0  0  0  0  0  0  0  0  0  0  0
   21.4720   -3.4240    4.6810 C   0  0  0  0  0  0  0  0  0  0  0  0
   20.5770   -2.6950    3.9070 C   0  0  0  0  0  0  0  0  0  0  0  0
   21.0350   -1.9920    2.7790 C   0  0  0  0  0  0  0  0  0  0  0  0
   20.0550   -1.1960    1.9320 C   0  0  0  0  0  0  0  0  0  0  0  0
   18.7500   -1.8680    1.9440 N   0  0  0  0  0  0  0  0  0  0  0  0
   18.4450   -2.7440    0.9860 C   0  0  0  0  0  0  0  0  0  0  0  0
   19.2670   -3.1480   -0.0020 N   0  0  0  0  0  0  0  0  0  0  0  0
   18.5960   -3.9940   -0.7730 C   0  0  0  0  0  0  0  0  0  0  0  0
   18.9450   -4.7020   -1.8820 C   0  0  0  0  0  0  0  0  0  0  0  0
   20.1740   -4.5930   -2.3860 N   0  0  0  0  0  0  0  0  0  0  0  0
   18.0380   -5.5010   -2.4690 N   0  0  0  0  0  0  0  0  0  0  0  0
   16.8080   -5.6150   -1.9610 C   0  0  0  0  0  0  0  0  0  0  0  0
   16.4590   -4.9400   -0.8710 N   0  0  0  0  0  0  0  0  0  0  0  0
   17.3370   -4.1310   -0.2650 C   0  0  0  0  0  0  0  0  0  0  0  0
   17.2460   -3.3630    0.8150 N   0  0  0  0  0  0  0  0  0  0  0  0
   16.0120   -3.2070    1.6900 C   0  0  0  0  0  0  0  0  0  0  0  0
   15.7020   -1.8070    1.8630 O   0  0  0  0  0  0  0  0  0  0  0  0
   16.3130   -3.6990    3.0880 C   0  0  0  0  0  0  0  0  0  0  0  0
   16.1420   -5.1160    3.1450 O   0  0  0  0  0  0  0  0  0  0  0  0
   15.2690   -3.0580    3.9110 C   0  0  0  0  0  0  0  0  0  0  0  0
   14.1110   -3.8700    3.8930 O   0  0  0  0  0  0  0  0  0  0  0  0
   14.9790   -1.7160    3.1880 C   0  0  0  0  0  0  0  0  0  0  0  0
   15.5540   -0.5090    4.0060 C   0  0  0  0  0  0  0  0  0  0  0  0
   16.9950   -0.6260    4.0570 O   0  0  0  0  0  0  0  0  0  0  0  0
   17.5550    0.3470    4.9460 C   0  0  0  0  0  0  0  0  0  0  0  0
   18.8680    0.1820    5.4160 C   0  0  0  0  0  0  0  0  0  0  0  0
   19.8650    1.0690    5.0150 C   0  0  0  0  0  0  0  0  0  0  0  0
   21.1690    0.9010    5.4640 C   0  0  0  0  0  0  0  0  0  0  0  0
   21.4900   -0.1640    6.3200 C   0  0  0  0  0  0  0  0  0  0  0  0
   22.8510   -0.3190    6.7980 C   0  0  0  0  0  0  0  0  0  0  0  0
   23.9390   -0.4370    7.1390 N   0  0  0  0  0  0  0  0  0  0  0  0
   20.4930   -1.0590    6.7290 C   0  0  0  0  0  0  0  0  0  0  0  0
   19.1790   -0.8880    6.2800 C   0  0  0  0  0  0  0  0  0  0  0  0
   20.9200   -4.3100    6.0730 Cl  0  0  0  0  0  0  0  0  0  0  0  0
   22.7397   -1.4948    1.5448 H   0  0  0  0  0  0  0  0  0  0  0  0
   24.3401   -2.8057    2.9506 H   0  0  0  0  0  0  0  0  0  0  0  0
   19.5109   -2.6681    4.1768 H   0  0  0  0  0  0  0  0  0  0  0  0
   19.9505   -0.1820    2.3454 H   0  0  0  0  0  0  0  0  0  0  0  0
   20.4275   -1.1306    0.8991 H   0  0  0  0  0  0  0  0  0  0  0  0
   18.0711   -1.6633    2.6911 H   0  0  0  0  0  0  0  0  0  0  0  0
   20.9849   -4.5211   -1.7550 H   0  0  0  0  0  0  0  0  0  0  0  0
   20.3129   -4.5807   -3.4065 H   0  0  0  0  0  0  0  0  0  0  0  0
   16.0762   -6.2747   -2.4502 H   0  0  0  0  0  0  0  0  0  0  0  0
   15.1943   -3.7633    1.2083 H   0  0  0  0  0  0  0  0  0  0  0  0
   17.3375   -3.4670    3.4144 H   0  0  0  0  0  0  0  0  0  0  0  0
   16.1070   -5.4064    4.0908 H   0  0  0  0  0  0  0  0  0  0  0  0
   15.5705   -2.9128    4.9589 H   0  0  0  0  0  0  0  0  0  0  0  0
   13.8311   -4.0663    4.8221 H   0  0  0  0  0  0  0  0  0  0  0  0
   13.8974   -1.5536    3.0710 H   0  0  0  0  0  0  0  0  0  0  0  0
   15.2767    0.4358    3.5156 H   0  0  0  0  0  0  0  0  0  0  0  0
   15.1415   -0.5177    5.0257 H   0  0  0  0  0  0  0  0  0  0  0  0
   17.5219    1.3142    4.4230 H   0  0  0  0  0  0  0  0  0  0  0  0
   16.9422    0.2489    5.8542 H   0  0  0  0  0  0  0  0  0  0  0  0
   19.6192    1.9036    4.3419 H   0  0  0  0  0  0  0  0  0  0  0  0
   21.9526    1.6051    5.1475 H   0  0  0  0  0  0  0  0  0  0  0  0
   20.7424   -1.8935    7.4009 H   0  0  0  0  0  0  0  0  0  0  0  0
   18.3912   -1.5859    6.5999 H   0  0  0  0  0  0  0  0  0  0  0  0
  1  2  2  0
  1  7  1  0
  2  3  1  0
  3  4  1  0
  3  5  2  0
  5  6  1  0
  5 38  1  0
  6  7  2  0
  7  8  1  0
  8  9  1  0
  9 10  1  0
 10 11  2  0
 10 19  1  0
 11 12  1  0
 12 13  2  0
 12 18  1  0
 13 14  1  0
 13 15  1  0
 15 16  2  0
 16 17  1  0
 17 18  2  0
 18 19  1  0
 19 20  1  0
 20 21  1  0
 20 22  1  0
 21 26  1  0
 22 23  1  0
 22 24  1  0
 24 25  1  0
 24 26  1  0
 26 27  1  0
 27 28  1  0
 28 29  1  0
 29 30  1  0
 30 31  2  0
 30 37  1  0
 31 32  1  0
 32 33  2  0
 33 34  1  0
 33 36  1  0
 34 35  3  0
 36 37  2  0
  1 39  1  0
  2 40  1  0
  6 41  1  0
  8 42  1  0
  8 43  1  0
  9 44  1  0
 14 45  1  0
 14 46  1  0
 16 47  1  0
 20 48  1  0
 22 49  1  0
 23 50  1  0
 24 51  1  0
 25 52  1  0
 26 53  1  0
 27 54  1  0
 27 55  1  0
 29 56  1  0
 29 57  1  0
 31 58  1  0
 32 59  1  0
 36 60  1  0
 37 61  1  0
A    1
C18
A    2
C17
A    3
C16
A    4
CL20
A    5
C15
A    6
C14
A    7
C13
A    8
C12
A    9
N11
A   10
C6
A   11
N7
A   12
C8
A   13
C4
A   14
N10
A   15
N1
A   16
C2
A   17
N3
A   18
C9
A   19
N5
A   20
C21
A   21
O22
A   22
C24
A   23
O26
A   24
C25
A   25
O27
A   26
C23
A   27
C28
A   28
O29
A   29
C30
A   30
C31
A   31
C32
A   32
C33
A   33
C34
A   34
C37
A   35
N38
A   36
C35
A   37
C36
A   38
CL21
M  END
