4IPF_1F0_A_201
     RDKit          3D

 97101  0  0  0  0  0  0  0  0999 V2000
   12.5930    8.4480   35.6800 N   0  0  0  0  0  0  0  0  0  0  0  0
   11.6930    9.0880   34.7370 C   0  0  0  0  0  0  0  0  0  0  0  0
   10.6480    8.1090   34.1730 C   0  0  0  0  0  0  0  0  0  0  0  0
   12.5190    9.7250   33.6330 C   0  0  0  0  0  0  0  0  0  0  0  0
   11.0400   10.1620   35.6600 C   0  0  0  0  0  0  0  0  0  0  0  0
    9.7150    9.6460   36.2220 C   0  0  0  0  0  0  0  0  0  0  0  0
   10.8030   11.4630   34.9430 C   0  0  0  0  0  0  0  0  0  0  0  0
   11.9970   10.3170   36.7720 N   0  0  0  0  0  0  0  0  0  0  0  0
   12.8170    9.3230   36.8000 C   0  0  0  0  0  0  0  0  0  0  0  0
   13.8480    9.0940   37.8320 C   0  0  0  0  0  0  0  0  0  0  0  0
   13.8950    9.9110   33.8140 C   0  0  0  0  0  0  0  0  0  0  0  0
   14.6510   10.5850   32.8470 C   0  0  0  0  0  0  0  0  0  0  0  0
   14.0230   11.0690   31.6990 C   0  0  0  0  0  0  0  0  0  0  0  0
   14.9490   12.0200   30.5330 Cl  0  0  0  0  0  0  0  0  0  0  0  0
   12.6640   10.8230   31.4760 C   0  0  0  0  0  0  0  0  0  0  0  0
   11.9130   10.1510   32.4430 C   0  0  0  0  0  0  0  0  0  0  0  0
    9.5430   11.7220   34.3940 C   0  0  0  0  0  0  0  0  0  0  0  0
    9.3140   12.9070   33.7010 C   0  0  0  0  0  0  0  0  0  0  0  0
   10.3530   13.8250   33.5590 C   0  0  0  0  0  0  0  0  0  0  0  0
   10.0880   15.3050   32.6470 Cl  0  0  0  0  0  0  0  0  0  0  0  0
   11.6080   13.5830   34.1220 C   0  0  0  0  0  0  0  0  0  0  0  0
   11.8280   12.4000   34.8190 C   0  0  0  0  0  0  0  0  0  0  0  0
   13.0660    7.0970   35.4780 C   0  0  0  0  0  0  0  0  0  0  0  0
   13.3310    6.7080   34.3340 O   0  0  0  0  0  0  0  0  0  0  0  0
   13.2410    6.2470   36.5800 N   0  0  0  0  0  0  0  0  0  0  0  0
   13.8940    4.9610   36.3600 C   0  0  0  0  0  0  0  0  0  0  0  0
   14.7730    4.6360   37.5540 C   0  0  0  0  0  0  0  0  0  0  0  0
   13.9860    4.6500   38.8110 N   0  0  0  0  0  0  0  0  0  0  0  0
   13.3380    5.9800   39.0310 C   0  0  0  0  0  0  0  0  0  0  0  0
   12.4680    6.3950   37.8190 C   0  0  0  0  0  0  0  0  0  0  0  0
   13.5640    9.4060   39.1630 C   0  0  0  0  0  0  0  0  0  0  0  0
   14.5320    9.2370   40.1560 C   0  0  0  0  0  0  0  0  0  0  0  0
   15.8000    8.7430   39.8310 C   0  0  0  0  0  0  0  0  0  0  0  0
   16.8240    8.5630   40.9220 C   0  0  0  0  0  0  0  0  0  0  0  0
   17.7970    9.7470   40.9110 C   0  0  0  0  0  0  0  0  0  0  0  0
   17.6040    7.2640   40.6970 C   0  0  0  0  0  0  0  0  0  0  0  0
   16.1090    8.4270   38.5040 C   0  0  0  0  0  0  0  0  0  0  0  0
   15.1270    8.6120   37.5190 C   0  0  0  0  0  0  0  0  0  0  0  0
   15.4220    8.3400   36.2110 O   0  0  0  0  0  0  0  0  0  0  0  0
   16.7390    7.8810   35.9490 C   0  0  0  0  0  0  0  0  0  0  0  0
   16.8820    7.5420   34.4590 C   0  0  0  0  0  0  0  0  0  0  0  0
   16.1170    8.5010   42.2790 C   0  0  0  0  0  0  0  0  0  0  0  0
   14.1050    4.2660   41.2850 C   0  0  0  0  0  0  0  0  0  0  0  0
   15.0680    3.7860   42.3820 C   0  0  0  0  0  0  0  0  0  0  0  0
   14.4700    4.2170   43.9960 S   0  0  0  0  0  0  0  0  0  0  0  0
   15.5690    3.4180   45.1430 C   0  0  0  0  0  0  0  0  0  0  0  0
   13.1380    3.6560   44.1630 O   0  0  0  0  0  0  0  0  0  0  0  0
   14.5940    5.6660   44.1580 O   0  0  0  0  0  0  0  0  0  0  0  0
   14.8370    4.2230   39.9420 C   0  0  0  0  0  0  0  0  0  0  0  0
   10.1217    7.6159   35.0036 H   0  0  0  0  0  0  0  0  0  0  0  0
    9.9237    8.6611   33.5562 H   0  0  0  0  0  0  0  0  0  0  0  0
   11.1518    7.3502   33.5562 H   0  0  0  0  0  0  0  0  0  0  0  0
    9.7525    9.6606   37.3213 H   0  0  0  0  0  0  0  0  0  0  0  0
    8.8937   10.2900   35.8745 H   0  0  0  0  0  0  0  0  0  0  0  0
    9.5456    8.6162   35.8745 H   0  0  0  0  0  0  0  0  0  0  0  0
   14.3846    9.5257   34.7205 H   0  0  0  0  0  0  0  0  0  0  0  0
   15.7316   10.7317   32.9914 H   0  0  0  0  0  0  0  0  0  0  0  0
   12.1885   11.1577   30.5422 H   0  0  0  0  0  0  0  0  0  0  0  0
   10.8443    9.9557   32.2705 H   0  0  0  0  0  0  0  0  0  0  0  0
    8.7319   10.9881   34.5101 H   0  0  0  0  0  0  0  0  0  0  0  0
    8.3239   13.1167   33.2701 H   0  0  0  0  0  0  0  0  0  0  0  0
   12.4157   14.3220   34.0150 H   0  0  0  0  0  0  0  0  0  0  0  0
   12.8107   12.2034   35.2725 H   0  0  0  0  0  0  0  0  0  0  0  0
   13.1316    4.1771   36.2403 H   0  0  0  0  0  0  0  0  0  0  0  0
   14.5104    5.0107   35.4503 H   0  0  0  0  0  0  0  0  0  0  0  0
   15.2130    3.6374   37.4159 H   0  0  0  0  0  0  0  0  0  0  0  0
   15.5632    5.3979   37.6260 H   0  0  0  0  0  0  0  0  0  0  0  0
   14.1204    6.7376   39.1854 H   0  0  0  0  0  0  0  0  0  0  0  0
   12.6862    5.9045   39.9139 H   0  0  0  0  0  0  0  0  0  0  0  0
   12.1585    7.4443   37.9335 H   0  0  0  0  0  0  0  0  0  0  0  0
   11.5782    5.7499   37.7720 H   0  0  0  0  0  0  0  0  0  0  0  0
   12.5684    9.7886   39.4323 H   0  0  0  0  0  0  0  0  0  0  0  0
   14.2960    9.4938   41.1992 H   0  0  0  0  0  0  0  0  0  0  0  0
   18.0345   10.0360   41.9454 H   0  0  0  0  0  0  0  0  0  0  0  0
   18.7213    9.4572   40.3898 H   0  0  0  0  0  0  0  0  0  0  0  0
   17.3335   10.5976   40.3898 H   0  0  0  0  0  0  0  0  0  0  0  0
   17.8691    6.8225   41.6690 H   0  0  0  0  0  0  0  0  0  0  0  0
   16.9815    6.5560   40.1302 H   0  0  0  0  0  0  0  0  0  0  0  0
   18.5215    7.4807   40.1302 H   0  0  0  0  0  0  0  0  0  0  0  0
   17.1038    8.0405   38.2374 H   0  0  0  0  0  0  0  0  0  0  0  0
   16.9388    6.9813   36.5495 H   0  0  0  0  0  0  0  0  0  0  0  0
   17.4589    8.6694   36.2139 H   0  0  0  0  0  0  0  0  0  0  0  0
   17.3075    6.5333   34.3517 H   0  0  0  0  0  0  0  0  0  0  0  0
   15.8930    7.5758   33.9787 H   0  0  0  0  0  0  0  0  0  0  0  0
   17.5480    8.2739   33.9787 H   0  0  0  0  0  0  0  0  0  0  0  0
   16.8632    8.5664   43.0845 H   0  0  0  0  0  0  0  0  0  0  0  0
   15.4115    9.3407   42.3636 H   0  0  0  0  0  0  0  0  0  0  0  0
   15.5684    7.5513   42.3636 H   0  0  0  0  0  0  0  0  0  0  0  0
   13.7828    5.2958   41.4989 H   0  0  0  0  0  0  0  0  0  0  0  0
   13.2184    3.6158   41.2515 H   0  0  0  0  0  0  0  0  0  0  0  0
   15.1690    2.6926   42.3172 H   0  0  0  0  0  0  0  0  0  0  0  0
   16.0411    4.2757   42.2293 H   0  0  0  0  0  0  0  0  0  0  0  0
   15.2545    3.6466   46.1720 H   0  0  0  0  0  0  0  0  0  0  0  0
   15.5380    2.3301   44.9833 H   0  0  0  0  0  0  0  0  0  0  0  0
   16.5943    3.7830   44.9833 H   0  0  0  0  0  0  0  0  0  0  0  0
   15.1740    3.1921   39.7584 H   0  0  0  0  0  0  0  0  0  0  0  0
   15.6823    4.9243   40.0033 H   0  0  0  0  0  0  0  0  0  0  0  0
 14 13  1  0
 15 13  2  0
 15 16  1  0
 13 12  1  0
 16  4  2  0
 20 19  1  0
 12 11  2  0
 19 18  1  0
 19 21  2  0
  4 11  1  0
  4  2  1  0
 18 17  2  0
 21 22  1  0
  3  2  1  0
 24 23  2  0
 17  7  1  0
 41 40  1  0
  2  5  1  0
  2  1  1  0
 22  7  2  0
  7  5  1  0
 23  1  1  0
 23 25  1  0
  5  6  1  0
  5  8  1  0
  1  9  1  0
 40 39  1  0
 39 38  1  0
 26 25  1  0
 26 27  1  0
 25 30  1  0
  8  9  2  0
  9 10  1  0
 38 10  1  0
 38 37  2  0
 27 28  1  0
 30 29  1  0
 10 31  2  0
 37 33  1  0
 28 29  1  0
 28 49  1  0
 31 32  1  0
 33 32  2  0
 33 34  1  0
 49 43  1  0
 36 34  1  0
 35 34  1  0
 34 42  1  0
 43 44  1  0
 44 45  1  0
 45 48  2  0
 45 47  2  0
 45 46  1  0
  3 50  1  0
  3 51  1  0
  3 52  1  0
  6 53  1  0
  6 54  1  0
  6 55  1  0
 11 56  1  0
 12 57  1  0
 15 58  1  0
 16 59  1  0
 17 60  1  0
 18 61  1  0
 21 62  1  0
 22 63  1  0
 26 64  1  0
 26 65  1  0
 27 66  1  0
 27 67  1  0
 29 68  1  0
 29 69  1  0
 30 70  1  0
 30 71  1  0
 31 72  1  0
 32 73  1  0
 35 74  1  0
 35 75  1  0
 35 76  1  0
 36 77  1  0
 36 78  1  0
 36 79  1  0
 37 80  1  0
 40 81  1  0
 40 82  1  0
 41 83  1  0
 41 84  1  0
 41 85  1  0
 42 86  1  0
 42 87  1  0
 42 88  1  0
 43 89  1  0
 43 90  1  0
 44 91  1  0
 44 92  1  0
 46 93  1  0
 46 94  1  0
 46 95  1  0
 49 96  1  0
 49 97  1  0
A    1
N1
A    2
C5
A    3
C57
A    4
C51
A    5
C4
A    6
C47
A    7
C41
A    8
N3
A    9
C2
A   10
C21
A   11
C56
A   12
C55
A   13
C54
A   14
CL5
A   15
C53
A   16
C52
A   17
C42
A   18
C43
A   19
C44
A   20
CL4
A   21
C45
A   22
C46
A   23
C10
A   24
O10
A   25
N10
A   26
C14
A   27
C13
A   28
N12
A   29
C12
A   30
C11
A   31
C22
A   32
C23
A   33
C24
A   34
C30
A   35
C33
A   36
C31
A   37
C25
A   38
C26
A   39
O27
A   40
C28
A   41
C29
A   42
C32
A   43
C16
A   44
C17
A   45
S17
A   46
C19
A   47
O17
A   48
O18
A   49
C15
M  END
