4IPH_1FJ_A_201
     RDKit          3D

 38 41  0  0  0  0  0  0  0  0999 V2000
   13.8490   10.0590   23.3820 C   0  0  0  0  0  0  0  0  0  0  0  0
   19.3920   10.7710   20.2220 C   0  0  0  0  0  0  0  0  0  0  0  0
   19.8330   11.6990   19.2640 C   0  0  0  0  0  0  0  0  0  0  0  0
    9.9520   13.0550   23.4930 C   0  0  0  0  0  0  0  0  0  0  0  0
   11.2110   10.8650   24.5930 C   0  0  0  0  0  0  0  0  0  0  0  0
    9.9180   11.1670   24.9760 C   0  0  0  0  0  0  0  0  0  0  0  0
    9.2890   12.2640   24.4220 C   0  0  0  0  0  0  0  0  0  0  0  0
   17.2220   10.2840   21.6410 N   0  0  0  0  0  0  0  0  0  0  0  0
   15.9570   10.6760   21.9110 C   0  0  0  0  0  0  0  0  0  0  0  0
   15.2410    9.8830   22.8930 C   0  0  0  0  0  0  0  0  0  0  0  0
   17.6260    9.1420   22.3750 C   0  0  0  0  0  0  0  0  0  0  0  0
   18.0160   10.9860   20.6920 C   0  0  0  0  0  0  0  0  0  0  0  0
   17.4380   12.1050   20.0540 C   0  0  0  0  0  0  0  0  0  0  0  0
   15.3980   11.7650   21.2940 N   0  0  0  0  0  0  0  0  0  0  0  0
   16.3310    8.6870   23.3510 S   0  0  0  0  0  0  0  0  0  0  0  0
   16.1020   12.4840   20.3760 C   0  0  0  0  0  0  0  0  0  0  0  0
   13.2280   11.3430   23.2480 N   0  0  0  0  0  0  0  0  0  0  0  0
   18.5570   12.7760   18.9700 S   0  0  0  0  0  0  0  0  0  0  0  0
   11.8840   11.6460   23.6610 C   0  0  0  0  0  0  0  0  0  0  0  0
   19.1370    8.2450   22.3970 S   0  0  0  0  0  0  0  0  0  0  0  0
   11.2640   12.7540   23.0970 C   0  0  0  0  0  0  0  0  0  0  0  0
   15.5990   13.4570   19.8300 O   0  0  0  0  0  0  0  0  0  0  0  0
   13.2770    9.0930   23.8640 O   0  0  0  0  0  0  0  0  0  0  0  0
   12.0580   13.5500   22.0890 C   0  0  0  0  0  0  0  0  0  0  0  0
    9.2020   14.2180   22.9530 C   0  0  0  0  0  0  0  0  0  0  0  0
   20.0249    9.9502   20.5904 H   0  0  0  0  0  0  0  0  0  0  0  0
   20.8257   11.7226   18.7907 H   0  0  0  0  0  0  0  0  0  0  0  0
   11.7157    9.9923   25.0330 H   0  0  0  0  0  0  0  0  0  0  0  0
    9.3958   10.5404   25.7140 H   0  0  0  0  0  0  0  0  0  0  0  0
    8.2590   12.5124   24.7175 H   0  0  0  0  0  0  0  0  0  0  0  0
   16.2042    7.6569   24.2452 H   0  0  0  0  0  0  0  0  0  0  0  0
   13.7825   12.1019   22.8266 H   0  0  0  0  0  0  0  0  0  0  0  0
   12.7397   14.2334   22.6164 H   0  0  0  0  0  0  0  0  0  0  0  0
   12.6422   12.8639   21.4581 H   0  0  0  0  0  0  0  0  0  0  0  0
   11.3705   14.1325   21.4581 H   0  0  0  0  0  0  0  0  0  0  0  0
    8.8126   14.8219   23.7859 H   0  0  0  0  0  0  0  0  0  0  0  0
    9.8738   14.8334   22.3366 H   0  0  0  0  0  0  0  0  0  0  0  0
    8.3642   13.8599   22.3366 H   0  0  0  0  0  0  0  0  0  0  0  0
 18  3  1  0
 18 13  1  0
  3  2  2  0
 22 16  2  0
 13 16  1  0
 13 12  2  0
  2 12  1  0
 16 14  1  0
 12  8  1  0
 14  9  2  0
  8  9  1  0
  8 11  1  0
  9 10  1  0
 24 21  1  0
 11 20  2  0
 11 15  1  0
 10 15  2  0
 10  1  1  0
 25  4  1  0
 21  4  2  0
 21 19  1  0
 17  1  1  0
 17 19  1  0
  1 23  2  0
  4  7  1  0
 19  5  2  0
  7  6  2  0
  5  6  1  0
  2 26  1  0
  3 27  1  0
  5 28  1  0
  6 29  1  0
  7 30  1  0
 15 31  1  0
 17 32  1  0
 24 33  1  0
 24 34  1  0
 24 35  1  0
 25 36  1  0
 25 37  1  0
 25 38  1  0
A    1
C10
A    2
C13
A    3
C17
A    4
C20
A    5
C21
A    6
C22
A    7
C24
A    8
N01
A    9
C02
A   10
C03
A   11
C04
A   12
C05
A   13
C06
A   14
N07
A   15
S08
A   16
C09
A   17
N11
A   18
S12
A   19
C14
A   20
S15
A   21
C16
A   22
O18
A   23
O19
A   24
C23
A   25
C25
M  END
