4IQ6_IQ6_A_501
     RDKit          3D

 42 45  0  0  0  0  0  0  0  0999 V2000
   40.8950   -5.4570  -35.6210 C   0  0  0  0  0  0  0  0  0  0  0  0
   40.0090   -6.4270  -35.1990 C   0  0  0  0  0  0  0  0  0  0  0  0
   37.4520   -8.0540  -34.2280 C   0  0  0  0  0  0  0  0  0  0  0  0
   37.2720  -10.2230  -35.1320 C   0  0  0  0  0  0  0  0  0  0  0  0
   41.4280   -5.5230  -36.8910 C   0  0  0  0  0  0  0  0  0  0  0  0
   38.9510   -9.1600  -37.3540 C   0  0  0  0  0  0  0  0  0  0  0  0
   39.7010   -7.4250  -36.1160 C   0  0  0  0  0  0  0  0  0  0  0  0
   37.8820   -8.9870  -35.1380 C   0  0  0  0  0  0  0  0  0  0  0  0
   38.8440   -8.5620  -36.1200 C   0  0  0  0  0  0  0  0  0  0  0  0
   40.2940   -7.3670  -37.3670 C   0  0  0  0  0  0  0  0  0  0  0  0
   36.4810   -8.3290  -33.2900 C   0  0  0  0  0  0  0  0  0  0  0  0
   36.2940  -10.4340  -34.1800 C   0  0  0  0  0  0  0  0  0  0  0  0
   38.5190   -4.8500  -29.7810 C   0  0  0  0  0  0  0  0  0  0  0  0
   39.2100   -5.6730  -30.8550 C   0  0  0  0  0  0  0  0  0  0  0  0
   37.2680   -5.5420  -29.2490 C   0  0  0  0  0  0  0  0  0  0  0  0
   38.2410   -6.0530  -31.9590 C   0  0  0  0  0  0  0  0  0  0  0  0
   36.3370   -6.0410  -30.3520 C   0  0  0  0  0  0  0  0  0  0  0  0
   37.0730   -6.8690  -31.4040 C   0  0  0  0  0  0  0  0  0  0  0  0
   41.1640   -6.4550  -37.8170 N   0  0  0  0  0  0  0  0  0  0  0  0
   35.8770   -9.5340  -33.2710 N   0  0  0  0  0  0  0  0  0  0  0  0
   39.8580   -8.4450  -38.0790 N   0  0  0  0  0  0  0  0  0  0  0  0
   36.1050   -7.2600  -32.4340 N   0  0  0  0  0  0  0  0  0  0  0  0
   35.4990  -11.9600  -34.1570 Cl  0  0  0  0  0  0  0  0  0  0  0  0
   41.1751   -4.6342  -34.9468 H   0  0  0  0  0  0  0  0  0  0  0  0
   39.5699   -6.4113  -34.1906 H   0  0  0  0  0  0  0  0  0  0  0  0
   37.8992   -7.0492  -34.2483 H   0  0  0  0  0  0  0  0  0  0  0  0
   37.5514  -11.0057  -35.8526 H   0  0  0  0  0  0  0  0  0  0  0  0
   42.1400   -4.7329  -37.1716 H   0  0  0  0  0  0  0  0  0  0  0  0
   38.4047  -10.0521  -37.6940 H   0  0  0  0  0  0  0  0  0  0  0  0
   38.2328   -3.8774  -30.2077 H   0  0  0  0  0  0  0  0  0  0  0  0
   39.2211   -4.7252  -28.9435 H   0  0  0  0  0  0  0  0  0  0  0  0
   40.0326   -5.0834  -31.2860 H   0  0  0  0  0  0  0  0  0  0  0  0
   39.5953   -6.5950  -30.3952 H   0  0  0  0  0  0  0  0  0  0  0  0
   36.7144   -4.8280  -28.6216 H   0  0  0  0  0  0  0  0  0  0  0  0
   37.6005   -6.4231  -28.6806 H   0  0  0  0  0  0  0  0  0  0  0  0
   38.7720   -6.6517  -32.7137 H   0  0  0  0  0  0  0  0  0  0  0  0
   37.8430   -5.1317  -32.4093 H   0  0  0  0  0  0  0  0  0  0  0  0
   35.5525   -6.6639  -29.8974 H   0  0  0  0  0  0  0  0  0  0  0  0
   35.9109   -5.1607  -30.8555 H   0  0  0  0  0  0  0  0  0  0  0  0
   37.5020   -7.7873  -30.9765 H   0  0  0  0  0  0  0  0  0  0  0  0
   40.1699   -8.6855  -39.0307 H   0  0  0  0  0  0  0  0  0  0  0  0
   35.1974   -6.7829  -32.5317 H   0  0  0  0  0  0  0  0  0  0  0  0
 17 15  1  0
 17 18  1  0
 15 13  1  0
 13 14  1  0
 18 22  1  0
 18 16  1  0
 22 11  1  0
 16 14  1  0
 11 20  1  0
 11  3  2  0
 20 12  2  0
  3  8  1  0
  2  1  2  0
  2  7  1  0
  1  5  1  0
 12 23  1  0
 12  4  1  0
  8  4  2  0
  8  9  1  0
  7  9  1  0
  7 10  2  0
  9  6  2  0
  5 19  2  0
 10 19  1  0
 10 21  1  0
  6 21  1  0
  1 24  1  0
  2 25  1  0
  3 26  1  0
  4 27  1  0
  5 28  1  0
  6 29  1  0
 13 30  1  0
 13 31  1  0
 14 32  1  0
 14 33  1  0
 15 34  1  0
 15 35  1  0
 16 36  1  0
 16 37  1  0
 17 38  1  0
 17 39  1  0
 18 40  1  0
 21 41  1  0
 22 42  1  0
A    1
C1
A    2
C2
A    3
C3
A    4
C4
A    5
C5
A    6
C6
A    7
C7
A    8
C8
A    9
C9
A   10
C10
A   11
C11
A   12
C12
A   13
C13
A   14
C14
A   15
C15
A   16
C16
A   17
C17
A   18
C18
A   19
N19
A   20
N20
A   21
N21
A   22
N22
A   23
CL1
M  END
