4IQ9_1GB_A_410
     RDKit          3D

 45 48  0  0  0  0  0  0  0  0999 V2000
    9.3350   21.5080   -0.9800 O   0  0  0  0  0  0  0  0  0  0  0  0
    9.0390   20.2990   -0.9270 C   0  0  0  0  0  0  0  0  0  0  0  0
    9.9460   19.1850   -1.3480 C   0  0  0  0  0  0  0  0  0  0  0  0
   10.1230   19.1260   -2.9400 C   0  0  0  0  0  0  0  0  0  0  0  0
   11.2910   18.2350   -3.2340 C   0  0  0  0  0  0  0  0  0  0  0  0
   11.2200   16.8510   -3.4390 C   0  0  0  0  0  0  0  0  0  0  0  0
   12.3300   16.0280   -3.6830 C   0  0  0  0  0  0  0  0  0  0  0  0
   13.6730   16.6810   -3.6720 C   0  0  0  0  0  0  0  0  0  0  0  0
   14.8290   16.0080   -3.8760 O   0  0  0  0  0  0  0  0  0  0  0  0
   13.7580   18.0600   -3.4590 C   0  0  0  0  0  0  0  0  0  0  0  0
   12.5710   18.8340   -3.2620 C   0  0  0  0  0  0  0  0  0  0  0  0
    9.4970   17.8750   -0.9510 N   0  0  0  0  0  0  0  0  0  0  0  0
    8.3390   17.4730   -0.4720 C   0  0  0  0  0  0  0  0  0  0  0  0
    8.1640   16.2870   -0.2170 O   0  0  0  0  0  0  0  0  0  0  0  0
    7.7590   19.9680   -0.4130 N   0  0  0  0  0  0  0  0  0  0  0  0
    7.2570   18.5620   -0.2560 C   0  0  0  0  0  0  0  0  0  0  0  0
    5.9090   18.2410   -1.1190 C   0  0  0  0  0  0  0  0  0  0  0  0
    6.0890   18.8360   -2.4980 C   0  0  0  0  0  0  0  0  0  0  0  0
    6.8050   18.3220   -3.5420 C   0  0  0  0  0  0  0  0  0  0  0  0
    7.5570   17.1100   -3.7060 C   0  0  0  0  0  0  0  0  0  0  0  0
    8.2070   16.8840   -4.9690 C   0  0  0  0  0  0  0  0  0  0  0  0
    8.0860   17.8390   -6.0480 C   0  0  0  0  0  0  0  0  0  0  0  0
    7.3320   19.0150   -5.8390 C   0  0  0  0  0  0  0  0  0  0  0  0
    6.6980   19.2640   -4.6100 C   0  0  0  0  0  0  0  0  0  0  0  0
    5.9490   20.3060   -4.2280 N   0  0  0  0  0  0  0  0  0  0  0  0
    5.5630   20.0670   -2.9200 C   0  0  0  0  0  0  0  0  0  0  0  0
   10.8910   19.4215   -0.8371 H   0  0  0  0  0  0  0  0  0  0  0  0
   10.3129   20.1354   -3.3338 H   0  0  0  0  0  0  0  0  0  0  0  0
    9.2109   18.7363   -3.4156 H   0  0  0  0  0  0  0  0  0  0  0  0
   10.2276   16.3777   -3.4065 H   0  0  0  0  0  0  0  0  0  0  0  0
   12.2161   14.9507   -3.8737 H   0  0  0  0  0  0  0  0  0  0  0  0
   15.3636   15.6968   -3.1031 H   0  0  0  0  0  0  0  0  0  0  0  0
   14.7417   18.5521   -3.4428 H   0  0  0  0  0  0  0  0  0  0  0  0
   12.6566   19.9226   -3.1290 H   0  0  0  0  0  0  0  0  0  0  0  0
   10.1989   17.1291   -1.0602 H   0  0  0  0  0  0  0  0  0  0  0  0
    7.1367   20.7386   -0.1306 H   0  0  0  0  0  0  0  0  0  0  0  0
    6.9731   18.5105    0.8055 H   0  0  0  0  0  0  0  0  0  0  0  0
    5.0343   18.6925   -0.6281 H   0  0  0  0  0  0  0  0  0  0  0  0
    5.7467   17.1552   -1.1877 H   0  0  0  0  0  0  0  0  0  0  0  0
    7.6337   16.3762   -2.8901 H   0  0  0  0  0  0  0  0  0  0  0  0
    8.8044   15.9721   -5.1161 H   0  0  0  0  0  0  0  0  0  0  0  0
    8.5735   17.6526   -7.0163 H   0  0  0  0  0  0  0  0  0  0  0  0
    7.2395   19.7491   -6.6530 H   0  0  0  0  0  0  0  0  0  0  0  0
    5.7062   21.1286   -4.7984 H   0  0  0  0  0  0  0  0  0  0  0  0
    4.9415   20.7368   -2.3075 H   0  0  0  0  0  0  0  0  0  0  0  0
 22 23  2  0
 22 21  1  0
 23 24  1  0
 21 20  2  0
 24 25  1  0
 24 19  2  0
 25 26  1  0
  9  8  1  0
 20 19  1  0
  7  8  1  0
  7  6  2  0
  8 10  2  0
 19 18  1  0
 10 11  1  0
  6  5  1  0
 11  5  2  0
  5  4  1  0
  4  3  1  0
 26 18  2  0
 18 17  1  0
  3 12  1  0
  3  2  1  0
 17 16  1  0
  1  2  2  0
 12 13  1  0
  2 15  1  0
 13 16  1  0
 13 14  2  0
 15 16  1  0
  3 27  1  0
  4 28  1  0
  4 29  1  0
  6 30  1  0
  7 31  1  0
  9 32  1  0
 10 33  1  0
 11 34  1  0
 12 35  1  0
 15 36  1  0
 16 37  1  0
 17 38  1  0
 17 39  1  0
 20 40  1  0
 21 41  1  0
 22 42  1  0
 23 43  1  0
 25 44  1  0
 26 45  1  0
A    1
OB
A    2
CB
A    3
CAB
A    4
CBB
A    5
CGB
A    6
CD4
A    7
CE4
A    8
CZB
A    9
OHB
A   10
CE3
A   11
CD3
A   12
NB
A   13
CA
A   14
OA
A   15
NA
A   16
CAA
A   17
CBA
A   18
CGA
A   19
CD2
A   20
CE2
A   21
CZ3
A   22
CH2
A   23
CZ2
A   24
CE1
A   25
NE1
A   26
CD1
M  END
