4IQK_IQK_A_701
     RDKit          3D

 56 59  0  0  0  0  0  0  0  0999 V2000
  -52.8870    2.2110  -10.0860 C   0  0  0  0  0  0  0  0  0  0  0  0
  -46.7310    0.9870  -14.1580 N   0  0  0  0  0  0  0  0  0  0  0  0
  -51.5400    2.4590   -9.6760 O   0  0  0  0  0  0  0  0  0  0  0  0
  -46.8800    0.6400  -12.5790 S   0  0  0  0  0  0  0  0  0  0  0  0
  -50.4430    2.0120  -10.3770 C   0  0  0  0  0  0  0  0  0  0  0  0
  -45.1760    6.1360  -15.4340 N   0  0  0  0  0  0  0  0  0  0  0  0
  -49.3550    8.6830  -10.8250 O   0  0  0  0  0  0  0  0  0  0  0  0
  -45.2090    7.5510  -14.6680 S   0  0  0  0  0  0  0  0  0  0  0  0
  -49.2160    2.6340  -10.1720 C   0  0  0  0  0  0  0  0  0  0  0  0
  -45.1740    8.5620  -15.6960 O   0  0  0  0  0  0  0  0  0  0  0  0
  -48.0940    2.2040  -10.8700 C   0  0  0  0  0  0  0  0  0  0  0  0
  -43.9660    7.5780  -13.9660 O   0  0  0  0  0  0  0  0  0  0  0  0
  -48.1870    1.1550  -11.7900 C   0  0  0  0  0  0  0  0  0  0  0  0
  -45.7160    1.1820  -11.9480 O   0  0  0  0  0  0  0  0  0  0  0  0
  -46.5580    2.2710  -14.5640 C   0  0  0  0  0  0  0  0  0  0  0  0
  -46.8140   -0.7890  -12.5430 O   0  0  0  0  0  0  0  0  0  0  0  0
  -45.3010    2.5480  -15.1120 C   0  0  0  0  0  0  0  0  0  0  0  0
  -44.4230    1.5040  -15.3970 C   0  0  0  0  0  0  0  0  0  0  0  0
  -43.1860    1.7320  -15.9750 C   0  0  0  0  0  0  0  0  0  0  0  0
  -42.7980    3.0150  -16.2660 C   0  0  0  0  0  0  0  0  0  0  0  0
  -43.6480    4.0730  -16.0010 C   0  0  0  0  0  0  0  0  0  0  0  0
  -44.9120    3.8550  -15.4210 C   0  0  0  0  0  0  0  0  0  0  0  0
  -45.7670    4.9320  -15.1730 C   0  0  0  0  0  0  0  0  0  0  0  0
  -46.3820    7.8570  -13.6050 C   0  0  0  0  0  0  0  0  0  0  0  0
  -47.3240    8.8630  -13.8400 C   0  0  0  0  0  0  0  0  0  0  0  0
  -48.3100    9.1250  -12.9080 C   0  0  0  0  0  0  0  0  0  0  0  0
  -48.3550    8.3870  -11.7230 C   0  0  0  0  0  0  0  0  0  0  0  0
  -49.7150    7.8710   -9.7010 C   0  0  0  0  0  0  0  0  0  0  0  0
  -47.3980    7.3950  -11.4770 C   0  0  0  0  0  0  0  0  0  0  0  0
  -46.4130    7.1330  -12.4140 C   0  0  0  0  0  0  0  0  0  0  0  0
  -47.0130    4.6810  -14.5700 C   0  0  0  0  0  0  0  0  0  0  0  0
  -47.4010    3.3550  -14.2570 C   0  0  0  0  0  0  0  0  0  0  0  0
  -49.4110    0.5330  -11.9910 C   0  0  0  0  0  0  0  0  0  0  0  0
  -50.5390    0.9640  -11.2920 C   0  0  0  0  0  0  0  0  0  0  0  0
  -53.5250    2.0935   -9.1976 H   0  0  0  0  0  0  0  0  0  0  0  0
  -53.2488    3.0576  -10.6879 H   0  0  0  0  0  0  0  0  0  0  0  0
  -52.9236    1.2910  -10.6879 H   0  0  0  0  0  0  0  0  0  0  0  0
  -46.7679    0.2295  -14.8550 H   0  0  0  0  0  0  0  0  0  0  0  0
  -44.5973    6.1385  -16.2860 H   0  0  0  0  0  0  0  0  0  0  0  0
  -49.1338    3.4662   -9.4574 H   0  0  0  0  0  0  0  0  0  0  0  0
  -47.1240    2.6932  -10.6973 H   0  0  0  0  0  0  0  0  0  0  0  0
  -44.7205    0.4726  -15.1566 H   0  0  0  0  0  0  0  0  0  0  0  0
  -42.5172    0.8881  -16.1999 H   0  0  0  0  0  0  0  0  0  0  0  0
  -41.8095    3.2025  -16.7107 H   0  0  0  0  0  0  0  0  0  0  0  0
  -43.3325    5.0978  -16.2465 H   0  0  0  0  0  0  0  0  0  0  0  0
  -47.2801    9.4482  -14.7704 H   0  0  0  0  0  0  0  0  0  0  0  0
  -49.0558    9.9109  -13.0984 H   0  0  0  0  0  0  0  0  0  0  0  0
  -49.4773    8.4070   -8.7703 H   0  0  0  0  0  0  0  0  0  0  0  0
  -50.7931    7.6553   -9.7348 H   0  0  0  0  0  0  0  0  0  0  0  0
  -49.1510    6.9272   -9.7348 H   0  0  0  0  0  0  0  0  0  0  0  0
  -47.4288    6.8230  -10.5379 H   0  0  0  0  0  0  0  0  0  0  0  0
  -45.6581    6.3569  -12.2196 H   0  0  0  0  0  0  0  0  0  0  0  0
  -47.6889    5.5180  -14.3406 H   0  0  0  0  0  0  0  0  0  0  0  0
  -48.3699    3.1711  -13.7697 H   0  0  0  0  0  0  0  0  0  0  0  0
  -49.4922   -0.3016  -12.7029 H   0  0  0  0  0  0  0  0  0  0  0  0
  -51.5091    0.4746  -11.4636 H   0  0  0  0  0  0  0  0  0  0  0  0
  1  3  1  0
  2  4  1  0
  2 15  1  0
  3  5  1  0
  4 13  1  0
  4 14  2  0
  4 16  2  0
  5  9  2  0
  5 34  1  0
  6  8  1  0
  6 23  1  0
  7 27  1  0
  7 28  1  0
  8 10  2  0
  8 12  2  0
  8 24  1  0
  9 11  1  0
 11 13  2  0
 13 33  1  0
 15 17  1  0
 15 32  2  0
 17 18  2  0
 17 22  1  0
 18 19  1  0
 19 20  2  0
 20 21  1  0
 21 22  2  0
 22 23  1  0
 23 31  2  0
 24 25  2  0
 24 30  1  0
 25 26  1  0
 26 27  2  0
 27 29  1  0
 29 30  2  0
 31 32  1  0
 33 34  2  0
  1 35  1  0
  1 36  1  0
  1 37  1  0
  2 38  1  0
  6 39  1  0
  9 40  1  0
 11 41  1  0
 18 42  1  0
 19 43  1  0
 20 44  1  0
 21 45  1  0
 25 46  1  0
 26 47  1  0
 28 48  1  0
 28 49  1  0
 28 50  1  0
 29 51  1  0
 30 52  1  0
 31 53  1  0
 32 54  1  0
 33 55  1  0
 34 56  1  0
A    1
C1
A    2
N1
A    3
O1
A    4
S1
A    5
C2
A    6
N2
A    7
O2
A    8
S2
A    9
C3
A   10
O3
A   11
C4
A   12
O4
A   13
C5
A   14
O5
A   15
C6
A   16
O6
A   17
C7
A   18
C8
A   19
C9
A   20
C10
A   21
C11
A   22
C12
A   23
C13
A   24
C14
A   25
C15
A   26
C16
A   27
C17
A   28
C18
A   29
C19
A   30
C20
A   31
C21
A   32
C22
A   33
C23
A   34
C24
M  END
