4IR4_IR4_A_2001
     RDKit          3D

 43 46  0  0  0  0  0  0  0  0999 V2000
   25.5290    8.6560    1.1030 O   0  0  0  0  0  0  0  0  0  0  0  0
   26.3190    9.5510    0.7830 C   0  0  0  0  0  0  0  0  0  0  0  0
   25.7940   10.8880    0.3680 C   0  0  0  0  0  0  0  0  0  0  0  0
   27.8130    9.4850    0.7780 C   0  0  0  0  0  0  0  0  0  0  0  0
   28.5940    8.3920    1.0040 N   0  0  0  0  0  0  0  0  0  0  0  0
   29.9300    8.8470    0.8910 C   0  0  0  0  0  0  0  0  0  0  0  0
   30.0230   10.2180    0.6090 C   0  0  0  0  0  0  0  0  0  0  0  0
   31.2180   10.9740    0.4620 C   0  0  0  0  0  0  0  0  0  0  0  0
   32.3310   10.5550    1.0970 N   0  0  0  0  0  0  0  0  0  0  0  0
   33.4570   11.2800    0.9370 C   0  0  0  0  0  0  0  0  0  0  0  0
   33.5210   12.4270    0.1590 C   0  0  0  0  0  0  0  0  0  0  0  0
   32.3470   12.9200   -0.3610 C   0  0  0  0  0  0  0  0  0  0  0  0
   31.1820   12.1510   -0.2740 C   0  0  0  0  0  0  0  0  0  0  0  0
   28.6840   10.6050    0.5150 C   0  0  0  0  0  0  0  0  0  0  0  0
   28.3030    7.0660    1.2990 C   0  0  0  0  0  0  0  0  0  0  0  0
   29.3350    6.1720    1.4790 C   0  0  0  0  0  0  0  0  0  0  0  0
   30.6700    6.5830    1.3620 C   0  0  0  0  0  0  0  0  0  0  0  0
   30.9430    7.9310    1.0840 C   0  0  0  0  0  0  0  0  0  0  0  0
   31.7730    5.6750    1.5490 N   0  0  0  0  0  0  0  0  0  0  0  0
   31.5370    4.2390    1.7560 C   0  0  0  0  0  0  0  0  0  0  0  0
   32.6600    3.4100    1.1810 C   0  0  0  0  0  0  0  0  0  0  0  0
   33.9280    3.8860    1.5940 O   0  0  0  0  0  0  0  0  0  0  0  0
   34.1350    5.1840    1.0580 C   0  0  0  0  0  0  0  0  0  0  0  0
   33.1540    6.1800    1.6300 C   0  0  0  0  0  0  0  0  0  0  0  0
   25.5600   11.4838    1.2626 H   0  0  0  0  0  0  0  0  0  0  0  0
   26.5539   11.4102   -0.2319 H   0  0  0  0  0  0  0  0  0  0  0  0
   24.8819   10.7536   -0.2319 H   0  0  0  0  0  0  0  0  0  0  0  0
   34.3709   10.9449    1.4493 H   0  0  0  0  0  0  0  0  0  0  0  0
   34.4813   12.9268   -0.0360 H   0  0  0  0  0  0  0  0  0  0  0  0
   32.3245   13.9096   -0.8407 H   0  0  0  0  0  0  0  0  0  0  0  0
   30.2579   12.4714   -0.7773 H   0  0  0  0  0  0  0  0  0  0  0  0
   28.3413   11.6221    0.2740 H   0  0  0  0  0  0  0  0  0  0  0  0
   27.2583    6.7333    1.3880 H   0  0  0  0  0  0  0  0  0  0  0  0
   29.1088    5.1223    1.7176 H   0  0  0  0  0  0  0  0  0  0  0  0
   31.9890    8.2649    1.0185 H   0  0  0  0  0  0  0  0  0  0  0  0
   30.5947    3.9562    1.2640 H   0  0  0  0  0  0  0  0  0  0  0  0
   31.4836    4.0484    2.8380 H   0  0  0  0  0  0  0  0  0  0  0  0
   32.6053    3.4485    0.0830 H   0  0  0  0  0  0  0  0  0  0  0  0
   32.5459    2.3786    1.5459 H   0  0  0  0  0  0  0  0  0  0  0  0
   35.1576    5.5111    1.2975 H   0  0  0  0  0  0  0  0  0  0  0  0
   33.9848    5.1367   -0.0307 H   0  0  0  0  0  0  0  0  0  0  0  0
   33.4063    6.3670    2.6842 H   0  0  0  0  0  0  0  0  0  0  0  0
   33.2198    7.1089    1.0444 H   0  0  0  0  0  0  0  0  0  0  0  0
 12 13  2  0
 12 11  1  0
 13  8  1  0
 11 10  2  0
  3  2  1  0
  8  7  1  0
  8  9  2  0
 14  7  1  0
 14  4  2  0
  7  6  2  0
  4  2  1  0
  4  5  1  0
  2  1  2  0
  6  5  1  0
  6 18  1  0
 10  9  1  0
  5 15  1  0
 23 22  1  0
 23 24  1  0
 18 17  2  0
 21 22  1  0
 21 20  1  0
 15 16  2  0
 17 16  1  0
 17 19  1  0
 19 24  1  0
 19 20  1  0
  3 25  1  0
  3 26  1  0
  3 27  1  0
 10 28  1  0
 11 29  1  0
 12 30  1  0
 13 31  1  0
 14 32  1  0
 15 33  1  0
 16 34  1  0
 18 35  1  0
 20 36  1  0
 20 37  1  0
 21 38  1  0
 21 39  1  0
 23 40  1  0
 23 41  1  0
 24 42  1  0
 24 43  1  0
A    1
O
A    2
C1
A    3
C
A    4
C2
A    5
N1
A    6
C10
A    7
C4
A    8
C5
A    9
N
A   10
C9
A   11
C8
A   12
C7
A   13
C6
A   14
C3
A   15
C14
A   16
C13
A   17
C12
A   18
C11
A   19
N2
A   20
C18
A   21
C17
A   22
O1
A   23
C16
A   24
C15
M  END
