4IR6_IR6_A_2007
     RDKit          3D

 48 51  0  0  0  0  0  0  0  0999 V2000
   24.5890   10.8720    0.7340 C   0  0  0  0  0  0  0  0  0  0  0  0
   25.1130    9.4220    0.9070 C   0  0  0  0  0  0  0  0  0  0  0  0
   24.3530    8.4960    1.1620 O   0  0  0  0  0  0  0  0  0  0  0  0
   26.4810    9.2420    0.7720 C   0  0  0  0  0  0  0  0  0  0  0  0
   27.4160   10.2800    0.5670 C   0  0  0  0  0  0  0  0  0  0  0  0
   28.7140    9.6460    0.4790 C   0  0  0  0  0  0  0  0  0  0  0  0
   29.9870   10.3540    0.3800 C   0  0  0  0  0  0  0  0  0  0  0  0
   30.5610   10.6050    1.6150 C   0  0  0  0  0  0  0  0  0  0  0  0
   31.7770   11.2380    1.6990 C   0  0  0  0  0  0  0  0  0  0  0  0
   32.3900   11.7330    0.5730 C   0  0  0  0  0  0  0  0  0  0  0  0
   31.8400   11.5200   -0.6640 C   0  0  0  0  0  0  0  0  0  0  0  0
   30.6250   10.8590   -0.7520 C   0  0  0  0  0  0  0  0  0  0  0  0
   29.9800   10.6450   -2.3770 S   0  0  0  0  0  0  0  0  0  0  0  0
   28.6670   11.8080   -2.5650 C   0  0  0  0  0  0  0  0  0  0  0  0
   31.0210   10.9970   -3.3100 O   0  0  0  0  0  0  0  0  0  0  0  0
   29.4230    9.3240   -2.4670 O   0  0  0  0  0  0  0  0  0  0  0  0
   28.5060    8.2670    0.7030 C   0  0  0  0  0  0  0  0  0  0  0  0
   29.4040    7.1670    0.7630 C   0  0  0  0  0  0  0  0  0  0  0  0
   28.8870    5.9380    0.9730 C   0  0  0  0  0  0  0  0  0  0  0  0
   29.6650    4.7710    1.0380 O   0  0  0  0  0  0  0  0  0  0  0  0
   31.0470    4.8090    1.2250 C   0  0  0  0  0  0  0  0  0  0  0  0
   31.8730    4.3930    0.1920 C   0  0  0  0  0  0  0  0  0  0  0  0
   33.2480    4.4030    0.3720 C   0  0  0  0  0  0  0  0  0  0  0  0
   33.7950    4.8100    1.5740 C   0  0  0  0  0  0  0  0  0  0  0  0
   32.9700    5.2040    2.6050 C   0  0  0  0  0  0  0  0  0  0  0  0
   31.5830    5.2160    2.4370 C   0  0  0  0  0  0  0  0  0  0  0  0
   27.5320    5.7180    1.1340 C   0  0  0  0  0  0  0  0  0  0  0  0
   26.6620    6.7760    1.0610 C   0  0  0  0  0  0  0  0  0  0  0  0
   27.1340    8.0400    0.8210 N   0  0  0  0  0  0  0  0  0  0  0  0
   24.4259   11.3234    1.7237 H   0  0  0  0  0  0  0  0  0  0  0  0
   25.3295   11.4656    0.1778 H   0  0  0  0  0  0  0  0  0  0  0  0
   23.6401   10.8551    0.1778 H   0  0  0  0  0  0  0  0  0  0  0  0
   27.2008   11.3560    0.4896 H   0  0  0  0  0  0  0  0  0  0  0  0
   30.0404   10.2958    2.5334 H   0  0  0  0  0  0  0  0  0  0  0  0
   32.2655   11.3500    2.6782 H   0  0  0  0  0  0  0  0  0  0  0  0
   33.3264   12.3028    0.6651 H   0  0  0  0  0  0  0  0  0  0  0  0
   32.3543   11.8679   -1.5720 H   0  0  0  0  0  0  0  0  0  0  0  0
   28.3114   12.1230   -1.5729 H   0  0  0  0  0  0  0  0  0  0  0  0
   29.0310   12.6854   -3.1197 H   0  0  0  0  0  0  0  0  0  0  0  0
   27.8399   11.3408   -3.1197 H   0  0  0  0  0  0  0  0  0  0  0  0
   30.4876    7.3128    0.6420 H   0  0  0  0  0  0  0  0  0  0  0  0
   31.4412    4.0578   -0.7625 H   0  0  0  0  0  0  0  0  0  0  0  0
   33.9082    4.0846   -0.4482 H   0  0  0  0  0  0  0  0  0  0  0  0
   34.8868    4.8194    1.7075 H   0  0  0  0  0  0  0  0  0  0  0  0
   33.4064    5.5112    3.5669 H   0  0  0  0  0  0  0  0  0  0  0  0
   30.9252    5.5440    3.2554 H   0  0  0  0  0  0  0  0  0  0  0  0
   27.1540    4.7018    1.3193 H   0  0  0  0  0  0  0  0  0  0  0  0
   25.5830    6.6095    1.1954 H   0  0  0  0  0  0  0  0  0  0  0  0
 15 13  2  0
 14 13  1  0
 16 13  2  0
 13 12  1  0
 12 11  2  0
 12  7  1  0
 11 10  1  0
 22 23  2  0
 22 21  1  0
 23 24  1  0
  7  6  1  0
  7  8  2  0
  6  5  1  0
  6 17  2  0
  5  4  2  0
 10  9  2  0
 17 18  1  0
 17 29  1  0
  1  2  1  0
 18 19  2  0
  4 29  1  0
  4  2  1  0
 29 28  1  0
  2  3  2  0
 19 20  1  0
 19 27  1  0
 20 21  1  0
 28 27  2  0
 21 26  2  0
 24 25  2  0
  8  9  1  0
 26 25  1  0
  1 30  1  0
  1 31  1  0
  1 32  1  0
  5 33  1  0
  8 34  1  0
  9 35  1  0
 10 36  1  0
 11 37  1  0
 14 38  1  0
 14 39  1  0
 14 40  1  0
 18 41  1  0
 22 42  1  0
 23 43  1  0
 24 44  1  0
 25 45  1  0
 26 46  1  0
 27 47  1  0
 28 48  1  0
A    1
C01
A    2
C02
A    3
O01
A    4
C03
A    5
C04
A    6
C05
A    7
C06
A    8
C07
A    9
C08
A   10
C09
A   11
C10
A   12
C11
A   13
S
A   14
C12
A   15
O02
A   16
O03
A   17
C13
A   18
C14
A   19
C15
A   20
O1
A   21
C16
A   22
C17
A   23
C18
A   24
C19
A   25
C20
A   26
C21
A   27
C22
A   28
C1
A   29
N1
M  END
