2VES_GVR_A_1296
     RDKit          3D

 50 53  0  0  0  0  0  0  0  0999 V2000
   56.6260   40.6320   19.8480 O   0  0  0  0  0  0  0  0  0  0  0  0
   57.2700   40.9120   18.8440 C   0  0  0  0  0  0  0  0  0  0  0  0
   58.0360   41.9940   18.8380 N   0  0  0  0  0  0  0  0  0  0  0  0
   58.0640   42.7640   20.0090 O   0  0  0  0  0  0  0  0  0  0  0  0
   57.2090   40.0420   17.6240 C   0  0  0  0  0  0  0  0  0  0  0  0
   55.9780   40.3330   16.7840 C   0  0  0  0  0  0  0  0  0  0  0  0
   55.7390   39.2430   15.7540 C   0  0  0  0  0  0  0  0  0  0  0  0
   55.7900   39.5510   14.3940 C   0  0  0  0  0  0  0  0  0  0  0  0
   55.5540   38.5720   13.4300 C   0  0  0  0  0  0  0  0  0  0  0  0
   55.2520   37.2720   13.8180 C   0  0  0  0  0  0  0  0  0  0  0  0
   55.0110   36.2580   12.8880 C   0  0  0  0  0  0  0  0  0  0  0  0
   55.1940   36.9440   15.2580 C   0  0  0  0  0  0  0  0  0  0  0  0
   54.8950   35.6490   15.6630 C   0  0  0  0  0  0  0  0  0  0  0  0
   54.6620   34.6650   14.6980 C   0  0  0  0  0  0  0  0  0  0  0  0
   54.7070   34.9750   13.3380 C   0  0  0  0  0  0  0  0  0  0  0  0
   55.4340   37.9570   16.1780 C   0  0  0  0  0  0  0  0  0  0  0  0
   58.3580   40.2140   16.7710 N   0  0  0  0  0  0  0  0  0  0  0  0
   59.5880   39.2370   16.9260 S   0  0  0  0  0  0  0  0  0  0  0  0
   59.9550   39.1580   18.3100 O   0  0  0  0  0  0  0  0  0  0  0  0
   60.6530   39.7420   16.1070 O   0  0  0  0  0  0  0  0  0  0  0  0
   59.1350   37.7910   16.3640 C   0  0  0  0  0  0  0  0  0  0  0  0
   58.8990   37.6600   14.9870 C   0  0  0  0  0  0  0  0  0  0  0  0
   58.5080   36.4400   14.4220 C   0  0  0  0  0  0  0  0  0  0  0  0
   58.3470   35.3150   15.2220 C   0  0  0  0  0  0  0  0  0  0  0  0
   57.9630   34.0860   14.6880 C   0  0  0  0  0  0  0  0  0  0  0  0
   58.5910   35.4380   16.6780 C   0  0  0  0  0  0  0  0  0  0  0  0
   58.9790   36.6750   17.2050 C   0  0  0  0  0  0  0  0  0  0  0  0
   58.4250   34.3010   17.4750 C   0  0  0  0  0  0  0  0  0  0  0  0
   58.0240   33.0900   16.8960 C   0  0  0  0  0  0  0  0  0  0  0  0
   57.8080   32.9790   15.5230 C   0  0  0  0  0  0  0  0  0  0  0  0
   58.5869   42.2575   18.0086 H   0  0  0  0  0  0  0  0  0  0  0  0
   58.0423   42.1661   20.7977 H   0  0  0  0  0  0  0  0  0  0  0  0
   57.1776   39.0115   18.0074 H   0  0  0  0  0  0  0  0  0  0  0  0
   55.1012   40.3991   17.4450 H   0  0  0  0  0  0  0  0  0  0  0  0
   56.1387   41.2824   16.2521 H   0  0  0  0  0  0  0  0  0  0  0  0
   56.0194   40.5795   14.0785 H   0  0  0  0  0  0  0  0  0  0  0  0
   55.6068   38.8285   12.3616 H   0  0  0  0  0  0  0  0  0  0  0  0
   55.0608   36.4706   11.8099 H   0  0  0  0  0  0  0  0  0  0  0  0
   54.8421   35.4004   16.7332 H   0  0  0  0  0  0  0  0  0  0  0  0
   54.4407   33.6349   15.0140 H   0  0  0  0  0  0  0  0  0  0  0  0
   54.4968   34.1853   12.6017 H   0  0  0  0  0  0  0  0  0  0  0  0
   55.3817   37.7374   17.2546 H   0  0  0  0  0  0  0  0  0  0  0  0
   58.0266   40.1282   15.7995 H   0  0  0  0  0  0  0  0  0  0  0  0
   59.0243   38.5373   14.3354 H   0  0  0  0  0  0  0  0  0  0  0  0
   58.3273   36.3716   13.3391 H   0  0  0  0  0  0  0  0  0  0  0  0
   57.7820   33.9888   13.6074 H   0  0  0  0  0  0  0  0  0  0  0  0
   59.1632   36.7750   18.2848 H   0  0  0  0  0  0  0  0  0  0  0  0
   58.6095   34.3576   18.5579 H   0  0  0  0  0  0  0  0  0  0  0  0
   57.8765   32.2088   17.5376 H   0  0  0  0  0  0  0  0  0  0  0  0
   57.5127   32.0100   15.0943 H   0  0  0  0  0  0  0  0  0  0  0  0
  1  2  2  0
  2  3  1  0
  2  5  1  0
  3  4  1  0
  5  6  1  0
  5 17  1  0
  6  7  1  0
  7  8  2  0
  7 16  1  0
  8  9  1  0
  9 10  2  0
 10 11  1  0
 10 12  1  0
 11 15  2  0
 12 13  1  0
 12 16  2  0
 13 14  2  0
 14 15  1  0
 17 18  1  0
 18 19  2  0
 18 20  2  0
 18 21  1  0
 21 22  2  0
 21 27  1  0
 22 23  1  0
 23 24  2  0
 24 25  1  0
 24 26  1  0
 25 30  2  0
 26 27  2  0
 26 28  1  0
 28 29  2  0
 29 30  1  0
  3 31  1  0
  4 32  1  0
  5 33  1  0
  6 34  1  0
  6 35  1  0
  8 36  1  0
  9 37  1  0
 11 38  1  0
 13 39  1  0
 14 40  1  0
 15 41  1  0
 16 42  1  0
 17 43  1  0
 22 44  1  0
 23 45  1  0
 25 46  1  0
 27 47  1  0
 28 48  1  0
 29 49  1  0
 30 50  1  0
A    1
O28
A    2
C27
A    3
N29
A    4
O30
A    5
C26
A    6
C25
A    7
C15
A    8
C16
A    9
C17
A   10
C20
A   11
C21
A   12
C19
A   13
C24
A   14
C23
A   15
C22
A   16
C18
A   17
N1
A   18
S2
A   19
O13
A   20
O14
A   21
C3
A   22
C4
A   23
C5
A   24
C8
A   25
C9
A   26
C7
A   27
C6
A   28
C12
A   29
C11
A   30
C10
M  END
