4ISE_1FW_A_501
     RDKit          3D

 49 52  0  0  0  0  0  0  0  0999 V2000
   -8.7650   34.7080   52.8380 O   0  0  0  0  0  0  0  0  0  0  0  0
   -9.2120   35.5480   52.0210 C   0  0  0  0  0  0  0  0  0  0  0  0
  -10.5070   35.3620   51.3260 C   0  0  0  0  0  0  0  0  0  0  0  0
  -11.3140   34.2530   51.5200 C   0  0  0  0  0  0  0  0  0  0  0  0
  -10.9380   36.4170   50.3790 C   0  0  0  0  0  0  0  0  0  0  0  0
  -10.1550   37.4910   50.1820 N   0  0  0  0  0  0  0  0  0  0  0  0
  -12.1440   36.2840   49.7020 C   0  0  0  0  0  0  0  0  0  0  0  0
  -12.9230   35.1550   49.9290 C   0  0  0  0  0  0  0  0  0  0  0  0
  -12.5140   34.1580   50.8210 C   0  0  0  0  0  0  0  0  0  0  0  0
  -13.2860   33.0780   51.0160 F   0  0  0  0  0  0  0  0  0  0  0  0
   -8.4990   36.7220   51.7170 N   0  0  0  0  0  0  0  0  0  0  0  0
   -8.9920   37.6330   50.8350 C   0  0  0  0  0  0  0  0  0  0  0  0
   -7.2030   36.9870   52.3570 C   0  0  0  0  0  0  0  0  0  0  0  0
   -7.3100   37.9990   53.4590 C   0  0  0  0  0  0  0  0  0  0  0  0
   -6.4140   37.9240   54.4480 N   0  0  0  0  0  0  0  0  0  0  0  0
   -6.2670   38.8950   55.3570 C   0  0  0  0  0  0  0  0  0  0  0  0
   -5.2300   38.9920   56.0810 N   0  0  0  0  0  0  0  0  0  0  0  0
   -5.2260   40.0030   56.8620 C   0  0  0  0  0  0  0  0  0  0  0  0
   -6.3110   40.7700   56.7740 C   0  0  0  0  0  0  0  0  0  0  0  0
   -7.3370   40.1510   55.6340 S   0  0  0  0  0  0  0  0  0  0  0  0
   -8.1440   38.8790   53.3470 O   0  0  0  0  0  0  0  0  0  0  0  0
   -6.2440   37.5490   51.3060 C   0  0  0  0  0  0  0  0  0  0  0  0
   -6.0700   36.6320   50.0850 C   0  0  0  0  0  0  0  0  0  0  0  0
   -5.2250   37.3660   49.0510 C   0  0  0  0  0  0  0  0  0  0  0  0
   -5.0420   36.5150   47.8050 C   0  0  0  0  0  0  0  0  0  0  0  0
   -4.3560   35.1990   48.1470 C   0  0  0  0  0  0  0  0  0  0  0  0
   -5.1360   34.4420   49.2150 C   0  0  0  0  0  0  0  0  0  0  0  0
   -5.4070   35.3010   50.4470 C   0  0  0  0  0  0  0  0  0  0  0  0
  -11.0106   33.4580   52.2171 H   0  0  0  0  0  0  0  0  0  0  0  0
  -12.4773   37.0600   48.9972 H   0  0  0  0  0  0  0  0  0  0  0  0
  -13.8793   35.0436   49.3970 H   0  0  0  0  0  0  0  0  0  0  0  0
   -8.4009   38.5412   50.6459 H   0  0  0  0  0  0  0  0  0  0  0  0
   -6.8439   36.0389   52.7838 H   0  0  0  0  0  0  0  0  0  0  0  0
   -5.8150   37.0886   54.5128 H   0  0  0  0  0  0  0  0  0  0  0  0
   -4.3957   40.2216   57.5496 H   0  0  0  0  0  0  0  0  0  0  0  0
   -6.4965   41.6767   57.3686 H   0  0  0  0  0  0  0  0  0  0  0  0
   -5.2598   37.6954   51.7750 H   0  0  0  0  0  0  0  0  0  0  0  0
   -6.6769   38.4931   50.9436 H   0  0  0  0  0  0  0  0  0  0  0  0
   -7.0662   36.3943   49.6836 H   0  0  0  0  0  0  0  0  0  0  0  0
   -4.2387   37.5897   49.4836 H   0  0  0  0  0  0  0  0  0  0  0  0
   -5.7389   38.2974   48.7709 H   0  0  0  0  0  0  0  0  0  0  0  0
   -4.4254   37.0655   47.0792 H   0  0  0  0  0  0  0  0  0  0  0  0
   -6.0318   36.2969   47.3776 H   0  0  0  0  0  0  0  0  0  0  0  0
   -4.2923   34.5795   47.2403 H   0  0  0  0  0  0  0  0  0  0  0  0
   -3.3497   35.4169   48.5342 H   0  0  0  0  0  0  0  0  0  0  0  0
   -6.0976   34.1191   48.7895 H   0  0  0  0  0  0  0  0  0  0  0  0
   -4.5289   33.5806   49.5303 H   0  0  0  0  0  0  0  0  0  0  0  0
   -6.0711   34.7470   51.1268 H   0  0  0  0  0  0  0  0  0  0  0  0
   -4.4415   35.5221   50.9254 H   0  0  0  0  0  0  0  0  0  0  0  0
 25 26  1  0
 25 24  1  0
 26 27  1  0
 24 23  1  0
 27 28  1  0
  7  8  2  0
  7  5  1  0
  8  9  1  0
 23 28  1  0
 23 22  1  0
  6  5  1  0
  6 12  2  0
  5  3  2  0
  9 10  1  0
  9  4  2  0
 12 11  1  0
 22 13  1  0
  3  4  1  0
  3  2  1  0
 11  2  1  0
 11 13  1  0
  2  1  2  0
 13 14  1  0
 21 14  2  0
 14 15  1  0
 15 16  1  0
 16 20  1  0
 16 17  2  0
 20 19  1  0
 17 18  1  0
 19 18  2  0
  4 29  1  0
  7 30  1  0
  8 31  1  0
 12 32  1  0
 13 33  1  0
 15 34  1  0
 18 35  1  0
 19 36  1  0
 22 37  1  0
 22 38  1  0
 23 39  1  0
 24 40  1  0
 24 41  1  0
 25 42  1  0
 25 43  1  0
 26 44  1  0
 26 45  1  0
 27 46  1  0
 27 47  1  0
 28 48  1  0
 28 49  1  0
A    1
O26
A    2
C25
A    3
C27
A    4
C28
A    5
C5
A    6
N6
A    7
C4
A    8
C3
A    9
C2
A   10
F1
A   11
N8
A   12
C7
A   13
C9
A   14
C17
A   15
N19
A   16
C20
A   17
N21
A   18
C22
A   19
C23
A   20
S24
A   21
O18
A   22
C10
A   23
C11
A   24
C12
A   25
C13
A   26
C14
A   27
C15
A   28
C16
M  END
