4ITF_TFY_A_501
     RDKit          3D

 85 88  0  0  0  0  0  0  0  0999 V2000
  -13.2790   -8.9380   29.7270 O   0  0  0  0  0  0  0  0  0  0  0  0
  -14.1740   -8.2640   30.6220 C   0  0  0  0  0  0  0  0  0  0  0  0
  -14.7630   -9.1980   31.7020 C   0  0  0  0  0  0  0  0  0  0  0  0
  -13.7960   -9.7840   32.7280 C   0  0  0  0  0  0  0  0  0  0  0  0
  -12.9530  -10.9450   32.2240 C   0  0  0  0  0  0  0  0  0  0  0  0
  -13.7230  -12.1590   31.9270 N   0  0  0  0  0  0  0  0  0  0  0  0
  -14.7840  -12.7500   32.4900 C   0  0  0  0  0  0  0  0  0  0  0  0
  -15.0580  -13.8670   31.7650 N   0  0  0  0  0  0  0  0  0  0  0  0
  -14.1140  -13.9760   30.7150 N   0  0  0  0  0  0  0  0  0  0  0  0
  -13.2570  -12.8720   30.8110 N   0  0  0  0  0  0  0  0  0  0  0  0
  -15.8150   -8.4450   32.5110 C   0  0  0  0  0  0  0  0  0  0  0  0
  -16.8640   -8.0210   31.6360 O   0  0  0  0  0  0  0  0  0  0  0  0
  -15.2030   -7.2350   33.2310 C   0  0  0  0  0  0  0  0  0  0  0  0
  -13.5220   -7.0920   31.3030 C   0  0  0  0  0  0  0  0  0  0  0  0
  -12.2550   -6.7710   31.0620 C   0  0  0  0  0  0  0  0  0  0  0  0
  -14.3560   -6.3860   32.2950 C   0  0  0  0  0  0  0  0  0  0  0  0
  -14.4440   -5.0480   32.4590 C   0  0  0  0  0  0  0  0  0  0  0  0
  -13.7470   -4.0130   31.6930 C   0  0  0  0  0  0  0  0  0  0  0  0
  -13.4880   -2.8100   32.2370 C   0  0  0  0  0  0  0  0  0  0  0  0
  -13.8860   -2.4940   33.6690 C   0  0  0  0  0  0  0  0  0  0  0  0
  -12.7290   -1.8280   34.4310 C   0  0  0  0  0  0  0  0  0  0  0  0
  -12.7690   -1.7150   31.4810 C   0  0  0  0  0  0  0  0  0  0  0  0
  -12.3460   -1.8800   30.0090 C   0  0  0  0  0  0  0  0  0  0  0  0
  -11.1970   -0.8660   29.8390 C   0  0  0  0  0  0  0  0  0  0  0  0
  -10.9680   -0.2750   31.2470 C   0  0  0  0  0  0  0  0  0  0  0  0
  -11.5020   -1.3240   32.2250 C   0  0  0  0  0  0  0  0  0  0  0  0
  -10.5240   -2.5070   32.3330 C   0  0  0  0  0  0  0  0  0  0  0  0
  -11.9090   -0.8120   33.6100 C   0  0  0  0  0  0  0  0  0  0  0  0
   -9.5910    0.3450   31.5670 C   0  0  0  0  0  0  0  0  0  0  0  0
   -9.6430    1.8360   31.2220 C   0  0  0  0  0  0  0  0  0  0  0  0
   -8.3330   -0.3210   30.9740 C   0  0  0  0  0  0  0  0  0  0  0  0
   -7.1160   -0.0620   31.8830 C   0  0  0  0  0  0  0  0  0  0  0  0
   -5.9740   -1.0540   31.6630 C   0  0  0  0  0  0  0  0  0  0  0  0
   -4.5880   -0.5820   32.1050 C   0  0  0  0  0  0  0  0  0  0  0  0
   -4.2310    0.6060   31.3740 O   0  0  0  0  0  0  0  0  0  0  0  0
   -4.5760   -0.2730   33.5980 C   0  0  0  0  0  0  0  0  0  0  0  0
   -3.5420   -1.6480   31.8030 C   0  0  0  0  0  0  0  0  0  0  0  0
  -12.6077   -9.4436   30.2503 H   0  0  0  0  0  0  0  0  0  0  0  0
  -14.9938   -7.9057   29.9821 H   0  0  0  0  0  0  0  0  0  0  0  0
  -15.1467  -10.0409   31.1085 H   0  0  0  0  0  0  0  0  0  0  0  0
  -13.1153   -8.9831   33.0522 H   0  0  0  0  0  0  0  0  0  0  0  0
  -14.4168  -10.1847   33.5429 H   0  0  0  0  0  0  0  0  0  0  0  0
  -12.2058  -11.1892   32.9935 H   0  0  0  0  0  0  0  0  0  0  0  0
  -12.4966  -10.6189   31.2778 H   0  0  0  0  0  0  0  0  0  0  0  0
  -15.3328  -12.3971   33.3756 H   0  0  0  0  0  0  0  0  0  0  0  0
  -16.2200   -9.1199   33.2794 H   0  0  0  0  0  0  0  0  0  0  0  0
  -17.6354   -7.7092   32.1725 H   0  0  0  0  0  0  0  0  0  0  0  0
  -14.5699   -7.5947   34.0555 H   0  0  0  0  0  0  0  0  0  0  0  0
  -16.0264   -6.6098   33.6067 H   0  0  0  0  0  0  0  0  0  0  0  0
  -11.7994   -5.9094   31.5719 H   0  0  0  0  0  0  0  0  0  0  0  0
  -11.6620   -7.3669   30.3526 H   0  0  0  0  0  0  0  0  0  0  0  0
  -15.1143   -4.6968   33.2573 H   0  0  0  0  0  0  0  0  0  0  0  0
  -13.4312   -4.2215   30.6601 H   0  0  0  0  0  0  0  0  0  0  0  0
  -14.7495   -1.8126   33.6598 H   0  0  0  0  0  0  0  0  0  0  0  0
  -14.1420   -3.4358   34.1763 H   0  0  0  0  0  0  0  0  0  0  0  0
  -12.0466   -2.6191   34.7751 H   0  0  0  0  0  0  0  0  0  0  0  0
  -13.1883   -1.2602   35.2536 H   0  0  0  0  0  0  0  0  0  0  0  0
  -13.5830   -0.9764   31.4377 H   0  0  0  0  0  0  0  0  0  0  0  0
  -13.1806   -1.6431   29.3328 H   0  0  0  0  0  0  0  0  0  0  0  0
  -12.0434   -2.9094   29.7668 H   0  0  0  0  0  0  0  0  0  0  0  0
  -10.2877   -1.3699   29.4795 H   0  0  0  0  0  0  0  0  0  0  0  0
  -11.4409   -0.0878   29.1008 H   0  0  0  0  0  0  0  0  0  0  0  0
  -11.5266    0.6681   31.3397 H   0  0  0  0  0  0  0  0  0  0  0  0
  -10.3373   -2.7328   33.3933 H   0  0  0  0  0  0  0  0  0  0  0  0
  -10.9600   -3.3892   31.8415 H   0  0  0  0  0  0  0  0  0  0  0  0
   -9.5755   -2.2447   31.8415 H   0  0  0  0  0  0  0  0  0  0  0  0
  -10.9955   -0.5680   34.1722 H   0  0  0  0  0  0  0  0  0  0  0  0
  -12.5519    0.0664   33.4515 H   0  0  0  0  0  0  0  0  0  0  0  0
   -9.4461    0.1607   32.6417 H   0  0  0  0  0  0  0  0  0  0  0  0
   -9.6636    2.4265   32.1498 H   0  0  0  0  0  0  0  0  0  0  0  0
   -8.7538    2.1076   30.6342 H   0  0  0  0  0  0  0  0  0  0  0  0
  -10.5490    2.0450   30.6342 H   0  0  0  0  0  0  0  0  0  0  0  0
   -8.5005   -1.4050   30.8909 H   0  0  0  0  0  0  0  0  0  0  0  0
   -8.1357    0.1055   29.9794 H   0  0  0  0  0  0  0  0  0  0  0  0
   -6.7405    0.9524   31.6829 H   0  0  0  0  0  0  0  0  0  0  0  0
   -7.4550   -0.1814   32.9226 H   0  0  0  0  0  0  0  0  0  0  0  0
   -6.2119   -1.9717   32.2210 H   0  0  0  0  0  0  0  0  0  0  0  0
   -5.9079   -1.1968   30.5743 H   0  0  0  0  0  0  0  0  0  0  0  0
   -4.0128    1.3321   32.0106 H   0  0  0  0  0  0  0  0  0  0  0  0
   -4.6125   -1.2135   34.1674 H   0  0  0  0  0  0  0  0  0  0  0  0
   -3.6559    0.2738   33.8519 H   0  0  0  0  0  0  0  0  0  0  0  0
   -5.4509    0.3435   33.8519 H   0  0  0  0  0  0  0  0  0  0  0  0
   -3.1463   -2.0512   32.7468 H   0  0  0  0  0  0  0  0  0  0  0  0
   -4.0033   -2.4602   31.2221 H   0  0  0  0  0  0  0  0  0  0  0  0
   -2.7212   -1.2021   31.2221 H   0  0  0  0  0  0  0  0  0  0  0  0
  1  2  1  0
 24 23  1  0
 24 25  1  0
 23 22  1  0
  2 14  1  0
  2  3  1  0
  9 10  2  0
  9  8  1  0
 10  6  1  0
 31 29  1  0
 31 32  1  0
 15 14  2  0
 30 29  1  0
 25 29  1  0
 25 26  1  0
 14 16  1  0
 35 34  1  0
 22 26  1  0
 22 19  1  0
 12 11  1  0
 33 32  1  0
 33 34  1  0
 18 19  2  0
 18 17  1  0
  3 11  1  0
  3  4  1  0
  8  7  2  0
 37 34  1  0
  6  5  1  0
  6  7  1  0
 34 36  1  0
  5  4  1  0
 26 27  1  0
 26 28  1  0
 19 20  1  0
 16 17  2  0
 16 13  1  0
 11 13  1  0
 28 21  1  0
 20 21  1  0
  1 38  1  0
  2 39  1  0
  3 40  1  0
  4 41  1  0
  4 42  1  0
  5 43  1  0
  5 44  1  0
  7 45  1  0
 11 46  1  0
 12 47  1  0
 13 48  1  0
 13 49  1  0
 15 50  1  0
 15 51  1  0
 17 52  1  0
 18 53  1  0
 20 54  1  0
 20 55  1  0
 21 56  1  0
 21 57  1  0
 22 58  1  0
 23 59  1  0
 23 60  1  0
 24 61  1  0
 24 62  1  0
 25 63  1  0
 27 64  1  0
 27 65  1  0
 27 66  1  0
 28 67  1  0
 28 68  1  0
 29 69  1  0
 30 70  1  0
 30 71  1  0
 30 72  1  0
 31 73  1  0
 31 74  1  0
 32 75  1  0
 32 76  1  0
 33 77  1  0
 33 78  1  0
 35 79  1  0
 36 80  1  0
 36 81  1  0
 36 82  1  0
 37 83  1  0
 37 84  1  0
 37 85  1  0
A    1
O31
A    2
C27
A    3
C26
A    4
C30
A    5
C32
A    6
N33
A    7
C37
A    8
N36
A    9
N35
A   10
N34
A   11
C25
A   12
O29
A   13
C24
A   14
C28
A   15
C39
A   16
C23
A   17
C11
A   18
C10
A   19
C4
A   20
C3
A   21
C2
A   22
C5
A   23
C8
A   24
C9
A   25
C7
A   26
C6
A   27
C13
A   28
C1
A   29
C14
A   30
C16
A   31
C15
A   32
C17
A   33
C18
A   34
C19
A   35
O22
A   36
C21
A   37
C20
M  END
