4ITI_1HW_A_301
     RDKit          3D

 49 52  0  0  0  0  0  0  0  0999 V2000
  -22.5000    6.3330  -23.4730 C   0  0  0  0  0  0  0  0  0  0  0  0
  -22.7090    7.4050  -22.6200 C   0  0  0  0  0  0  0  0  0  0  0  0
  -21.6460    7.7570  -21.6500 C   0  0  0  0  0  0  0  0  0  0  0  0
  -20.4750    7.0160  -21.6070 C   0  0  0  0  0  0  0  0  0  0  0  0
  -20.3140    5.9480  -22.4840 C   0  0  0  0  0  0  0  0  0  0  0  0
  -21.8990    8.9140  -20.7420 C   0  0  0  0  0  0  0  0  0  0  0  0
  -23.2520   10.5130  -19.6150 C   0  0  0  0  0  0  0  0  0  0  0  0
  -21.3090    5.6140  -23.4000 C   0  0  0  0  0  0  0  0  0  0  0  0
  -23.9920    8.2110  -22.6720 C   0  0  0  0  0  0  0  0  0  0  0  0
  -23.0690    9.8160  -20.9620 C   0  0  0  0  0  0  0  0  0  0  0  0
  -27.3090    5.6490  -16.3230 F   0  0  0  0  0  0  0  0  0  0  0  0
  -27.0140    6.8300  -15.8140 C   0  0  0  0  0  0  0  0  0  0  0  0
  -25.7270    6.8840  -15.5380 F   0  0  0  0  0  0  0  0  0  0  0  0
  -27.7090    7.0200  -14.7110 F   0  0  0  0  0  0  0  0  0  0  0  0
  -27.3350    7.8470  -16.7580 O   0  0  0  0  0  0  0  0  0  0  0  0
  -26.3410    8.4850  -17.4460 C   0  0  0  0  0  0  0  0  0  0  0  0
  -26.6470    9.7010  -18.2370 C   0  0  0  0  0  0  0  0  0  0  0  0
  -27.8990   10.1810  -18.2840 F   0  0  0  0  0  0  0  0  0  0  0  0
  -25.6230   10.3310  -18.9260 C   0  0  0  0  0  0  0  0  0  0  0  0
  -25.0350    8.0130  -17.4180 C   0  0  0  0  0  0  0  0  0  0  0  0
  -24.0420    8.6820  -18.1270 C   0  0  0  0  0  0  0  0  0  0  0  0
  -24.3290    9.8250  -18.8710 C   0  0  0  0  0  0  0  0  0  0  0  0
  -24.2520    8.9360  -21.3510 C   0  0  0  0  0  0  0  0  0  0  0  0
  -21.9570   10.2040  -19.0210 N   0  0  0  0  0  0  0  0  0  0  0  0
  -21.4850   10.7980  -17.9310 C   0  0  0  0  0  0  0  0  0  0  0  0
  -22.0720   11.7000  -17.3570 O   0  0  0  0  0  0  0  0  0  0  0  0
  -20.1540   10.3070  -17.4180 C   0  0  0  0  0  0  0  0  0  0  0  0
  -19.6310   11.2540  -16.4810 O   0  0  0  0  0  0  0  0  0  0  0  0
  -21.2360    9.2270  -19.7250 N   0  0  0  0  0  0  0  0  0  0  0  0
  -19.1600    5.2160  -22.4450 O   0  0  0  0  0  0  0  0  0  0  0  0
  -18.0940    5.6200  -21.5870 C   0  0  0  0  0  0  0  0  0  0  0  0
  -23.2714    6.0510  -24.2047 H   0  0  0  0  0  0  0  0  0  0  0  0
  -19.6823    7.2696  -20.8877 H   0  0  0  0  0  0  0  0  0  0  0  0
  -23.5155   11.5806  -19.6421 H   0  0  0  0  0  0  0  0  0  0  0  0
  -21.1509    4.7642  -24.0803 H   0  0  0  0  0  0  0  0  0  0  0  0
  -23.9145    8.9548  -23.4787 H   0  0  0  0  0  0  0  0  0  0  0  0
  -24.8271    7.5192  -22.8563 H   0  0  0  0  0  0  0  0  0  0  0  0
  -22.9532   10.5637  -21.7605 H   0  0  0  0  0  0  0  0  0  0  0  0
  -25.8343   11.2337  -19.5180 H   0  0  0  0  0  0  0  0  0  0  0  0
  -24.7863    7.1127  -16.8369 H   0  0  0  0  0  0  0  0  0  0  0  0
  -23.0103    8.3013  -18.0997 H   0  0  0  0  0  0  0  0  0  0  0  0
  -25.1476    9.5657  -21.4577 H   0  0  0  0  0  0  0  0  0  0  0  0
  -24.3989    8.1823  -20.5634 H   0  0  0  0  0  0  0  0  0  0  0  0
  -20.2873    9.3342  -16.9220 H   0  0  0  0  0  0  0  0  0  0  0  0
  -19.4535   10.1941  -18.2585 H   0  0  0  0  0  0  0  0  0  0  0  0
  -19.8058   10.9374  -15.5594 H   0  0  0  0  0  0  0  0  0  0  0  0
  -18.4032    5.5028  -20.5379 H   0  0  0  0  0  0  0  0  0  0  0  0
  -17.2102    4.9945  -21.7808 H   0  0  0  0  0  0  0  0  0  0  0  0
  -17.8468    6.6742  -21.7808 H   0  0  0  0  0  0  0  0  0  0  0  0
  1  8  2  0
  1  2  1  0
  8  5  1  0
  9  2  1  0
  9 23  1  0
  2  3  2  0
  5 30  1  0
  5  4  2  0
 30 31  1  0
  3  4  1  0
  3  6  1  0
 23 10  1  0
 10  6  1  0
 10  7  1  0
  6 29  2  0
 29 24  1  0
  7 24  1  0
  7 22  1  0
 24 25  1  0
 19 22  2  0
 19 17  1  0
 22 21  1  0
 18 17  1  0
 17 16  2  0
 21 20  2  0
 25 27  1  0
 25 26  2  0
 16 20  1  0
 16 15  1  0
 27 28  1  0
 15 12  1  0
 11 12  1  0
 12 13  1  0
 12 14  1  0
  1 32  1  0
  4 33  1  0
  7 34  1  0
  8 35  1  0
  9 36  1  0
  9 37  1  0
 10 38  1  0
 19 39  1  0
 20 40  1  0
 21 41  1  0
 23 42  1  0
 23 43  1  0
 27 44  1  0
 27 45  1  0
 28 46  1  0
 31 47  1  0
 31 48  1  0
 31 49  1  0
A    1
C1
A    2
C2
A    3
C3
A    4
C4
A    5
C5
A    6
C10
A    7
C11
A    8
C6
A    9
C7
A   10
C9
A   11
F31
A   12
C28
A   13
F29
A   14
F30
A   15
O27
A   16
C17
A   17
C16
A   18
F26
A   19
C15
A   20
C18
A   21
C19
A   22
C14
A   23
C8
A   24
N12
A   25
C20
A   26
O23
A   27
C21
A   28
O22
A   29
N13
A   30
O24
A   31
C25
M  END
