4ITJ_1HX_A_301
     RDKit          3D

 34 35  0  0  0  0  0  0  0  0999 V2000
   18.3600   -1.1210   53.0890 C   0  0  0  0  0  0  0  0  0  0  0  0
   18.2780    1.0230   54.2500 C   0  0  0  0  0  0  0  0  0  0  0  0
   17.1550    0.6190   54.9480 C   0  0  0  0  0  0  0  0  0  0  0  0
   17.2430   -1.5240   53.8020 C   0  0  0  0  0  0  0  0  0  0  0  0
   16.6520   -0.6520   54.7080 C   0  0  0  0  0  0  0  0  0  0  0  0
   18.8540    0.1550   53.3230 C   0  0  0  0  0  0  0  0  0  0  0  0
   18.9820   -2.0500   52.0990 C   0  0  0  0  0  0  0  0  0  0  0  0
   20.2240   -3.6450   53.4150 C   0  0  0  0  0  0  0  0  0  0  0  0
   20.2990    0.7270   52.4630 Cl  0  0  0  0  0  0  0  0  0  0  0  0
   16.7170   -2.7500   53.6060 F   0  0  0  0  0  0  0  0  0  0  0  0
   18.0530   -2.1470   50.8860 C   0  0  0  0  0  0  0  0  0  0  0  0
   19.1540   -3.3660   52.6790 N   0  0  0  0  0  0  0  0  0  0  0  0
   20.9580   -2.7570   53.8230 O   0  0  0  0  0  0  0  0  0  0  0  0
   20.5710   -5.0630   53.7450 C   0  0  0  0  0  0  0  0  0  0  0  0
   20.2170   -6.1910   52.9760 C   0  0  0  0  0  0  0  0  0  0  0  0
   20.7370   -7.3210   53.5840 C   0  0  0  0  0  0  0  0  0  0  0  0
   21.3650   -6.7890   54.7000 C   0  0  0  0  0  0  0  0  0  0  0  0
   22.0410   -7.5100   55.6050 C   0  0  0  0  0  0  0  0  0  0  0  0
   22.6710   -8.1500   56.3500 N   0  0  0  0  0  0  0  0  0  0  0  0
   21.2970   -5.4660   54.8060 N   0  0  0  0  0  0  0  0  0  0  0  0
   21.8930   -4.6620   55.9180 C   0  0  0  0  0  0  0  0  0  0  0  0
   18.7124    2.0185   54.4240 H   0  0  0  0  0  0  0  0  0  0  0  0
   16.6723    1.2883   55.6754 H   0  0  0  0  0  0  0  0  0  0  0  0
   15.7550   -0.9802   55.2536 H   0  0  0  0  0  0  0  0  0  0  0  0
   19.9701   -1.6679   51.8029 H   0  0  0  0  0  0  0  0  0  0  0  0
   17.0132   -2.2556   51.2282 H   0  0  0  0  0  0  0  0  0  0  0  0
   18.1459   -1.2343   50.2791 H   0  0  0  0  0  0  0  0  0  0  0  0
   18.3324   -3.0209   50.2791 H   0  0  0  0  0  0  0  0  0  0  0  0
   18.4406   -4.0916   52.5194 H   0  0  0  0  0  0  0  0  0  0  0  0
   19.6264   -6.1756   52.0481 H   0  0  0  0  0  0  0  0  0  0  0  0
   20.6693   -8.3712   53.2639 H   0  0  0  0  0  0  0  0  0  0  0  0
   21.5800   -5.0842   56.8843 H   0  0  0  0  0  0  0  0  0  0  0  0
   22.9901   -4.6902   55.8436 H   0  0  0  0  0  0  0  0  0  0  0  0
   21.5471   -3.6205   55.8436 H   0  0  0  0  0  0  0  0  0  0  0  0
 11  7  1  0
  7 12  1  0
  7  1  1  0
  9  6  1  0
 12  8  1  0
 15 16  1  0
 15 14  2  0
  1  6  1  0
  1  4  2  0
  6  2  2  0
  8 14  1  0
  8 13  2  0
 16 17  2  0
 10  4  1  0
 14 20  1  0
  4  5  1  0
  2  3  1  0
 17 20  1  0
 17 18  1  0
  5  3  2  0
 20 21  1  0
 18 19  3  0
  2 22  1  0
  3 23  1  0
  5 24  1  0
  7 25  1  0
 11 26  1  0
 11 27  1  0
 11 28  1  0
 12 29  1  0
 15 30  1  0
 16 31  1  0
 21 32  1  0
 21 33  1  0
 21 34  1  0
A    1
C4
A    2
C6
A    3
C1
A    4
C3
A    5
C2
A    6
C5
A    7
C7
A    8
C9
A    9
CL2
A   10
F20
A   11
C10
A   12
N8
A   13
O11
A   14
C12
A   15
C16
A   16
C15
A   17
C14
A   18
C18
A   19
N19
A   20
N13
A   21
C17
M  END
