4IU6_FZ1_A_405
     RDKit          3D

 53 57  0  0  0  0  0  0  0  0999 V2000
   20.1730   14.6410   24.5520 C   0  0  0  0  0  0  0  0  0  0  0  0
   21.1980   14.7790   23.5700 O   0  0  0  0  0  0  0  0  0  0  0  0
   20.9260   15.3020   22.3340 C   0  0  0  0  0  0  0  0  0  0  0  0
   21.3470   16.5980   22.0290 C   0  0  0  0  0  0  0  0  0  0  0  0
   21.0820   17.1410   20.7720 C   0  0  0  0  0  0  0  0  0  0  0  0
   20.3800   16.3650   19.8260 C   0  0  0  0  0  0  0  0  0  0  0  0
   19.9640   15.0550   20.1300 C   0  0  0  0  0  0  0  0  0  0  0  0
   20.2400   14.5320   21.3900 C   0  0  0  0  0  0  0  0  0  0  0  0
   20.1170   16.9000   18.5610 N   0  0  0  0  0  0  0  0  0  0  0  0
   19.0950   17.9330   18.3800 C   0  0  0  0  0  0  0  0  0  0  0  0
   19.8970   19.1750   18.0170 C   0  0  0  0  0  0  0  0  0  0  0  0
   20.8240   18.8190   16.9350 N   0  0  0  0  0  0  0  0  0  0  0  0
   21.7290   17.6760   17.0760 C   0  0  0  0  0  0  0  0  0  0  0  0
   20.8860   16.4480   17.3990 C   0  0  0  0  0  0  0  0  0  0  0  0
   20.8430   19.5710   15.7330 C   0  0  0  0  0  0  0  0  0  0  0  0
   21.3680   19.0370   14.6190 N   0  0  0  0  0  0  0  0  0  0  0  0
   21.3530   19.7050   13.4140 C   0  0  0  0  0  0  0  0  0  0  0  0
   22.0280   19.0230   12.3320 C   0  0  0  0  0  0  0  0  0  0  0  0
   22.5190   17.7250   12.5520 C   0  0  0  0  0  0  0  0  0  0  0  0
   23.2160   17.0720   11.5420 C   0  0  0  0  0  0  0  0  0  0  0  0
   23.3830   17.8270   10.3800 C   0  0  0  0  0  0  0  0  0  0  0  0
   22.9050   19.1490   10.2620 C   0  0  0  0  0  0  0  0  0  0  0  0
   22.2050   19.7890   11.2270 N   0  0  0  0  0  0  0  0  0  0  0  0
   20.9070   20.9560   13.1040 N   0  0  0  0  0  0  0  0  0  0  0  0
   20.3490   21.5900   14.1980 C   0  0  0  0  0  0  0  0  0  0  0  0
   20.2930   20.9500   15.5680 C   0  0  0  0  0  0  0  0  0  0  0  0
   19.8410   22.8820   14.1150 C   0  0  0  0  0  0  0  0  0  0  0  0
   19.2990   23.5420   15.2250 C   0  0  0  0  0  0  0  0  0  0  0  0
   19.2440   22.9250   16.4770 C   0  0  0  0  0  0  0  0  0  0  0  0
   19.7430   21.6420   16.6460 C   0  0  0  0  0  0  0  0  0  0  0  0
   20.6172   14.7008   25.5566 H   0  0  0  0  0  0  0  0  0  0  0  0
   19.4358   15.4480   24.4284 H   0  0  0  0  0  0  0  0  0  0  0  0
   19.6755   13.6678   24.4284 H   0  0  0  0  0  0  0  0  0  0  0  0
   21.8882   17.1912   22.7808 H   0  0  0  0  0  0  0  0  0  0  0  0
   21.4154   18.1590   20.5220 H   0  0  0  0  0  0  0  0  0  0  0  0
   19.4280   14.4527   19.3817 H   0  0  0  0  0  0  0  0  0  0  0  0
   19.9179   13.5112   21.6435 H   0  0  0  0  0  0  0  0  0  0  0  0
   18.5275   18.0903   19.3091 H   0  0  0  0  0  0  0  0  0  0  0  0
   18.3513   17.6671   17.6143 H   0  0  0  0  0  0  0  0  0  0  0  0
   20.4631   19.5228   18.8937 H   0  0  0  0  0  0  0  0  0  0  0  0
   19.2238   19.9820   17.6922 H   0  0  0  0  0  0  0  0  0  0  0  0
   22.2780   17.5158   16.1363 H   0  0  0  0  0  0  0  0  0  0  0  0
   22.4586   17.8616   17.8780 H   0  0  0  0  0  0  0  0  0  0  0  0
   20.2246   16.1859   16.5600 H   0  0  0  0  0  0  0  0  0  0  0  0
   21.4794   15.5410   17.5868 H   0  0  0  0  0  0  0  0  0  0  0  0
   22.3526   17.2279   13.5190 H   0  0  0  0  0  0  0  0  0  0  0  0
   23.6028   16.0479   11.6494 H   0  0  0  0  0  0  0  0  0  0  0  0
   23.9065   17.3746    9.5249 H   0  0  0  0  0  0  0  0  0  0  0  0
   23.1140   19.6925    9.3288 H   0  0  0  0  0  0  0  0  0  0  0  0
   19.8657   23.4024   13.1462 H   0  0  0  0  0  0  0  0  0  0  0  0
   18.9098   24.5643   15.1088 H   0  0  0  0  0  0  0  0  0  0  0  0
   18.8033   23.4586   17.3320 H   0  0  0  0  0  0  0  0  0  0  0  0
   19.7045   21.1672   17.6375 H   0  0  0  0  0  0  0  0  0  0  0  0
 22 21  2  0
 22 23  1  0
 21 20  1  0
 23 18  2  0
 20 19  2  0
 18 19  1  0
 18 17  1  0
 24 17  1  0
 24 25  2  0
 17 16  2  0
 27 25  1  0
 27 28  2  0
 25 26  1  0
 16 15  1  0
 28 29  1  0
 26 15  2  0
 26 30  1  0
 15 12  1  0
 29 30  2  0
 12 13  1  0
 12 11  1  0
 13 14  1  0
 14  9  1  0
 11 10  1  0
 10  9  1  0
  9  6  1  0
  6  7  2  0
  6  5  1  0
  7  8  1  0
  5  4  2  0
  8  3  2  0
  4  3  1  0
  3  2  1  0
  2  1  1  0
  1 31  1  0
  1 32  1  0
  1 33  1  0
  4 34  1  0
  5 35  1  0
  7 36  1  0
  8 37  1  0
 10 38  1  0
 10 39  1  0
 11 40  1  0
 11 41  1  0
 13 42  1  0
 13 43  1  0
 14 44  1  0
 14 45  1  0
 19 46  1  0
 20 47  1  0
 21 48  1  0
 22 49  1  0
 27 50  1  0
 28 51  1  0
 29 52  1  0
 30 53  1  0
A    1
C52
A    2
O31
A    3
C50
A    4
C43
A    5
C4
A    6
C5
A    7
C1
A    8
C42
A    9
N6
A   10
C2
A   11
C7
A   12
N9
A   13
C8
A   14
C3
A   15
C22
A   16
N23
A   17
C24
A   18
C28
A   19
C29
A   20
C30
A   21
C31
A   22
C32
A   23
N33
A   24
N25
A   25
C26
A   26
C27
A   27
C37
A   28
C36
A   29
C35
A   30
C34
M  END
