4IUE_AJ4_A_1204
     RDKit          3D

 31 33  0  0  0  0  0  0  0  0999 V2000
    5.6550  -12.1620  -14.0950 C   0  0  0  0  0  0  0  0  0  0  0  0
    4.1680  -12.1670  -13.6220 C   0  0  0  0  0  0  0  0  0  0  0  0
    3.1370  -12.3490  -14.5700 C   0  0  0  0  0  0  0  0  0  0  0  0
    1.8010  -12.3480  -14.1670 C   0  0  0  0  0  0  0  0  0  0  0  0
    0.8650  -12.5260  -14.9580 O   0  0  0  0  0  0  0  0  0  0  0  0
    1.4970  -12.1660  -12.8020 N   0  0  0  0  0  0  0  0  0  0  0  0
    2.5030  -11.9900  -11.8470 C   0  0  0  0  0  0  0  0  0  0  0  0
    2.1490  -11.8050  -10.5090 C   0  0  0  0  0  0  0  0  0  0  0  0
    3.8510  -11.9830  -12.2460 C   0  0  0  0  0  0  0  0  0  0  0  0
    4.8400  -11.7740  -11.2390 C   0  0  0  0  0  0  0  0  0  0  0  0
    4.4700  -11.6100   -9.8830 C   0  0  0  0  0  0  0  0  0  0  0  0
    3.1170  -11.6130   -9.5170 C   0  0  0  0  0  0  0  0  0  0  0  0
    2.6980  -11.4820   -8.1820 C   0  0  0  0  0  0  0  0  0  0  0  0
    3.1420  -10.3990   -7.4080 C   0  0  0  0  0  0  0  0  0  0  0  0
    2.7400  -10.2350   -6.0880 C   0  0  0  0  0  0  0  0  0  0  0  0
    1.8950  -11.1610   -5.4970 C   0  0  0  0  0  0  0  0  0  0  0  0
    1.4450  -12.2700   -6.2350 C   0  0  0  0  0  0  0  0  0  0  0  0
    1.8160  -12.4460   -7.5810 C   0  0  0  0  0  0  0  0  0  0  0  0
    1.3250  -13.5600   -8.2320 F   0  0  0  0  0  0  0  0  0  0  0  0
    6.3188  -12.1598  -13.2178 H   0  0  0  0  0  0  0  0  0  0  0  0
    5.8503  -13.0595  -14.7003 H   0  0  0  0  0  0  0  0  0  0  0  0
    5.8442  -11.2632  -14.7003 H   0  0  0  0  0  0  0  0  0  0  0  0
    3.3884  -12.4922  -15.6313 H   0  0  0  0  0  0  0  0  0  0  0  0
    0.5117  -12.1626  -12.5018 H   0  0  0  0  0  0  0  0  0  0  0  0
    1.0854  -11.8103  -10.2285 H   0  0  0  0  0  0  0  0  0  0  0  0
    5.9029  -11.7399  -11.5201 H   0  0  0  0  0  0  0  0  0  0  0  0
    5.2461  -11.4799   -9.1144 H   0  0  0  0  0  0  0  0  0  0  0  0
    3.8245   -9.6623   -7.8569 H   0  0  0  0  0  0  0  0  0  0  0  0
    3.0934   -9.3679   -5.5106 H   0  0  0  0  0  0  0  0  0  0  0  0
    1.5769  -11.0286   -4.4524 H   0  0  0  0  0  0  0  0  0  0  0  0
    0.7922  -13.0122   -5.7523 H   0  0  0  0  0  0  0  0  0  0  0  0
  5  4  2  0
  3  4  1  0
  3  2  2  0
  4  6  1  0
  1  2  1  0
  2  9  1  0
  6  7  1  0
  9  7  2  0
  9 10  1  0
  7  8  1  0
 10 11  2  0
  8 12  2  0
 11 12  1  0
 12 13  1  0
 19 18  1  0
 13 18  1  0
 13 14  2  0
 18 17  2  0
 14 15  1  0
 17 16  1  0
 15 16  2  0
  1 20  1  0
  1 21  1  0
  1 22  1  0
  3 23  1  0
  6 24  1  0
  8 25  1  0
 10 26  1  0
 11 27  1  0
 14 28  1  0
 15 29  1  0
 16 30  1  0
 17 31  1  0
A    1
CAA
A    2
CAM
A    3
CAJ
A    4
CAQ
A    5
OAB
A    6
NAL
A    7
CAR
A    8
CAK
A    9
CAS
A   10
CAI
A   11
CAH
A   12
CAO
A   13
CAP
A   14
CAG
A   15
CAE
A   16
CAD
A   17
CAF
A   18
CAN
A   19
FAC
M  END
