4IV2_1GR_A_601
     RDKit          3D

 42 44  0  0  0  0  0  0  0  0999 V2000
   18.1010    9.3900    5.9050 C   0  0  0  0  0  0  0  0  0  0  0  0
   18.5390    9.8600    7.2890 C   0  0  0  0  0  0  0  0  0  0  0  0
   17.6350    9.1430    8.2950 C   0  0  0  0  0  0  0  0  0  0  0  0
   18.3920   11.3810    7.3680 C   0  0  0  0  0  0  0  0  0  0  0  0
   19.0750   12.1310    6.2760 N   0  0  0  0  0  0  0  0  0  0  0  0
   18.4300   12.3670    5.3540 N   0  0  0  0  0  0  0  0  0  0  0  0
   20.3440   12.6000    6.1350 C   0  0  0  0  0  0  0  0  0  0  0  0
   21.4880   12.5910    6.9290 C   0  0  0  0  0  0  0  0  0  0  0  0
   21.5590   11.9900    8.2350 C   0  0  0  0  0  0  0  0  0  0  0  0
   20.6290   12.5150    9.0180 F   0  0  0  0  0  0  0  0  0  0  0  0
   21.4080   10.6490    8.3170 F   0  0  0  0  0  0  0  0  0  0  0  0
   22.7490   12.1970    8.8090 F   0  0  0  0  0  0  0  0  0  0  0  0
   22.6540   13.2110    6.4100 C   0  0  0  0  0  0  0  0  0  0  0  0
   22.6340   13.8190    5.1360 C   0  0  0  0  0  0  0  0  0  0  0  0
   21.4430   13.7920    4.3950 C   0  0  0  0  0  0  0  0  0  0  0  0
   20.3390   13.1950    4.9060 C   0  0  0  0  0  0  0  0  0  0  0  0
   19.1010   13.0170    4.4030 C   0  0  0  0  0  0  0  0  0  0  0  0
   18.5410   13.4320    3.2430 C   0  0  0  0  0  0  0  0  0  0  0  0
   19.3440   13.6440    2.0880 C   0  0  0  0  0  0  0  0  0  0  0  0
   18.7420   14.1170    0.8960 C   0  0  0  0  0  0  0  0  0  0  0  0
   17.3500   14.3790    0.8470 C   0  0  0  0  0  0  0  0  0  0  0  0
   16.7760   14.8280   -0.3070 O   0  0  0  0  0  0  0  0  0  0  0  0
   16.5430   14.1740    1.9770 C   0  0  0  0  0  0  0  0  0  0  0  0
   17.1530   13.7110    3.1500 C   0  0  0  0  0  0  0  0  0  0  0  0
   16.3740   13.5170    4.2460 O   0  0  0  0  0  0  0  0  0  0  0  0
   17.3544    8.5889    6.0091 H   0  0  0  0  0  0  0  0  0  0  0  0
   17.6593   10.2335    5.3541 H   0  0  0  0  0  0  0  0  0  0  0  0
   18.9735    9.0088    5.3541 H   0  0  0  0  0  0  0  0  0  0  0  0
   19.5919    9.6247    7.5034 H   0  0  0  0  0  0  0  0  0  0  0  0
   17.9525    9.3948    9.3177 H   0  0  0  0  0  0  0  0  0  0  0  0
   16.5934    9.4632    8.1451 H   0  0  0  0  0  0  0  0  0  0  0  0
   17.7096    8.0558    8.1451 H   0  0  0  0  0  0  0  0  0  0  0  0
   18.8115   11.7162    8.3280 H   0  0  0  0  0  0  0  0  0  0  0  0
   17.3177   11.5947    7.2664 H   0  0  0  0  0  0  0  0  0  0  0  0
   23.5797   13.2180    7.0042 H   0  0  0  0  0  0  0  0  0  0  0  0
   23.5347   14.3045    4.7322 H   0  0  0  0  0  0  0  0  0  0  0  0
   21.4053   14.2559    3.3983 H   0  0  0  0  0  0  0  0  0  0  0  0
   20.4248   13.4421    2.1202 H   0  0  0  0  0  0  0  0  0  0  0  0
   19.3600   14.2823    0.0012 H   0  0  0  0  0  0  0  0  0  0  0  0
   15.9968   15.4375   -0.2677 H   0  0  0  0  0  0  0  0  0  0  0  0
   15.4614   14.3715    1.9424 H   0  0  0  0  0  0  0  0  0  0  0  0
   16.7613   13.6135    5.1520 H   0  0  0  0  0  0  0  0  0  0  0  0
 22 21  1  0
 21 20  1  0
 21 23  2  0
 20 19  2  0
 23 24  1  0
 19 18  1  0
 24 18  2  0
 24 25  1  0
 18 17  1  0
 15 16  1  0
 15 14  2  0
 17 16  1  0
 17  6  2  0
 16  7  2  0
 14 13  1  0
  6  5  1  0
  1  2  1  0
  7  5  1  0
  7  8  1  0
  5  4  1  0
 13  8  2  0
  8  9  1  0
  2  4  1  0
  2  3  1  0
  9 11  1  0
  9 12  1  0
  9 10  1  0
  1 26  1  0
  1 27  1  0
  1 28  1  0
  2 29  1  0
  3 30  1  0
  3 31  1  0
  3 32  1  0
  4 33  1  0
  4 34  1  0
 13 35  1  0
 14 36  1  0
 15 37  1  0
 19 38  1  0
 20 39  1  0
 22 40  1  0
 23 41  1  0
 25 42  1  0
A    1
C01
A    2
C02
A    3
C03
A    4
C04
A    5
N01
A    6
N02
A    7
C05
A    8
C06
A    9
C07
A   10
F01
A   11
F02
A   12
F03
A   13
C08
A   14
C09
A   15
C10
A   16
C11
A   17
C12
A   18
C13
A   19
C14
A   20
C15
A   21
C16
A   22
O01
A   23
C17
A   24
C18
A   25
O02
M  END
