4IVD_15T_A_1201
     RDKit          3D

 48 51  0  0  0  0  0  0  0  0999 V2000
   10.9360   57.1740   -1.8440 C   0  0  0  0  0  0  0  0  0  0  0  0
    9.9700   56.5840   -0.8150 C   0  0  0  0  0  0  0  0  0  0  0  0
   10.6130   56.2930    0.4450 O   0  0  0  0  0  0  0  0  0  0  0  0
    8.8450   57.5490   -0.5420 C   0  0  0  0  0  0  0  0  0  0  0  0
    7.6750   57.2440    0.0900 N   0  0  0  0  0  0  0  0  0  0  0  0
    6.9300   58.4180    0.1480 C   0  0  0  0  0  0  0  0  0  0  0  0
    7.7240   59.3940   -0.4850 C   0  0  0  0  0  0  0  0  0  0  0  0
    8.8660   58.7910   -0.8720 N   0  0  0  0  0  0  0  0  0  0  0  0
    7.2640   60.7060   -0.6080 C   0  0  0  0  0  0  0  0  0  0  0  0
    6.0890   61.0690   -0.1470 N   0  0  0  0  0  0  0  0  0  0  0  0
    5.2820   60.1980    0.4530 C   0  0  0  0  0  0  0  0  0  0  0  0
    5.6680   58.8470    0.6280 C   0  0  0  0  0  0  0  0  0  0  0  0
    4.5470   58.2090    1.3050 C   0  0  0  0  0  0  0  0  0  0  0  0
    3.5950   59.1410    1.4860 C   0  0  0  0  0  0  0  0  0  0  0  0
    4.0400   60.3410    0.9860 N   0  0  0  0  0  0  0  0  0  0  0  0
    7.3530   55.8940    0.5970 C   0  0  0  0  0  0  0  0  0  0  0  0
    7.0900   55.9390    2.1100 C   0  0  0  0  0  0  0  0  0  0  0  0
    6.8020   54.5180    2.6310 C   0  0  0  0  0  0  0  0  0  0  0  0
    5.6480   53.8370    1.8670 C   0  0  0  0  0  0  0  0  0  0  0  0
    5.9200   53.8370    0.3510 C   0  0  0  0  0  0  0  0  0  0  0  0
    6.1650   55.2660   -0.1520 C   0  0  0  0  0  0  0  0  0  0  0  0
    5.5420   52.4030    2.4220 C   0  0  0  0  0  0  0  0  0  0  0  0
    4.1190   51.8240    2.3810 C   0  0  0  0  0  0  0  0  0  0  0  0
    3.7990   51.3150    1.0390 C   0  0  0  0  0  0  0  0  0  0  0  0
    3.6010   51.0020   -0.0390 N   0  0  0  0  0  0  0  0  0  0  0  0
   11.7629   57.6790   -1.3232 H   0  0  0  0  0  0  0  0  0  0  0  0
   11.3380   56.3671   -2.4743 H   0  0  0  0  0  0  0  0  0  0  0  0
   10.4017   57.9001   -2.4743 H   0  0  0  0  0  0  0  0  0  0  0  0
    9.5941   55.6455   -1.2486 H   0  0  0  0  0  0  0  0  0  0  0  0
   10.0180   56.5623    1.1890 H   0  0  0  0  0  0  0  0  0  0  0  0
    7.9009   61.4539   -1.1029 H   0  0  0  0  0  0  0  0  0  0  0  0
    4.4897   57.1545    1.6128 H   0  0  0  0  0  0  0  0  0  0  0  0
    2.6165   58.9702    1.9587 H   0  0  0  0  0  0  0  0  0  0  0  0
    3.5083   61.2228    1.0115 H   0  0  0  0  0  0  0  0  0  0  0  0
    8.2257   55.2508    0.4108 H   0  0  0  0  0  0  0  0  0  0  0  0
    7.9750   56.3438    2.6228 H   0  0  0  0  0  0  0  0  0  0  0  0
    6.2203   56.5825    2.3090 H   0  0  0  0  0  0  0  0  0  0  0  0
    6.5335   54.5794    3.6960 H   0  0  0  0  0  0  0  0  0  0  0  0
    7.7086   53.9138    2.4794 H   0  0  0  0  0  0  0  0  0  0  0  0
    4.7009   54.3779    2.0096 H   0  0  0  0  0  0  0  0  0  0  0  0
    5.0504   53.4132   -0.1726 H   0  0  0  0  0  0  0  0  0  0  0  0
    6.8161   53.2312    0.1507 H   0  0  0  0  0  0  0  0  0  0  0  0
    6.3870   55.2395   -1.2290 H   0  0  0  0  0  0  0  0  0  0  0  0
    5.2645   55.8709    0.0299 H   0  0  0  0  0  0  0  0  0  0  0  0
    6.1985   51.7515    1.8265 H   0  0  0  0  0  0  0  0  0  0  0  0
    5.8389   52.4470    3.4803 H   0  0  0  0  0  0  0  0  0  0  0  0
    3.4009   52.6135    2.6476 H   0  0  0  0  0  0  0  0  0  0  0  0
    4.0572   50.9913    3.0971 H   0  0  0  0  0  0  0  0  0  0  0  0
  1  2  1  0
  8  4  2  0
  8  7  1  0
  2  4  1  0
  2  3  1  0
  9  7  2  0
  9 10  1  0
  4  5  1  0
  7  6  1  0
 21 20  1  0
 21 16  1  0
 10 11  2  0
 25 24  3  0
  5  6  1  0
  5 16  1  0
  6 12  2  0
 20 19  1  0
 11 12  1  0
 11 15  1  0
 16 17  1  0
 12 13  1  0
 15 14  1  0
 24 23  1  0
 13 14  2  0
 19 22  1  0
 19 18  1  0
 17 18  1  0
 23 22  1  0
  1 26  1  0
  1 27  1  0
  1 28  1  0
  2 29  1  0
  3 30  1  0
  9 31  1  0
 13 32  1  0
 14 33  1  0
 15 34  1  0
 16 35  1  0
 17 36  1  0
 17 37  1  0
 18 38  1  0
 18 39  1  0
 19 40  1  0
 20 41  1  0
 20 42  1  0
 21 43  1  0
 21 44  1  0
 22 45  1  0
 22 46  1  0
 23 47  1  0
 23 48  1  0
A    1
C1
A    2
C2
A    3
O4
A    4
C5
A    5
N6
A    6
C7
A    7
C8
A    8
N9
A    9
C10
A   10
N11
A   11
C12
A   12
C13
A   13
C14
A   14
C15
A   15
N16
A   16
C18
A   17
C20
A   18
C21
A   19
C22
A   20
C24
A   21
C25
A   22
C26
A   23
C27
A   24
C28
A   25
N29
M  END
