4IVR_N50_A_501
     RDKit          3D

 33 33  0  0  0  0  0  0  0  0999 V2000
   21.2220   20.9640   64.0700 N   0  0  0  0  0  0  0  0  0  0  0  0
   22.9070   19.5390   63.3250 O   0  0  0  0  0  0  0  0  0  0  0  0
   21.7750   18.6630   63.3210 C   0  0  0  0  0  0  0  0  0  0  0  0
   23.9800   23.9640   64.3750 O   0  0  0  0  0  0  0  0  0  0  0  0
   25.3090   23.7680   63.8770 C   0  0  0  0  0  0  0  0  0  0  0  0
   23.5330   21.7440   63.7990 N   0  0  0  0  0  0  0  0  0  0  0  0
   22.5330   20.8090   63.7420 C   0  0  0  0  0  0  0  0  0  0  0  0
   23.1030   22.9670   64.2360 C   0  0  0  0  0  0  0  0  0  0  0  0
   21.7880   23.2710   64.6000 C   0  0  0  0  0  0  0  0  0  0  0  0
   21.4180   24.6410   65.0730 C   0  0  0  0  0  0  0  0  0  0  0  0
   20.8610   22.2070   64.4990 C   0  0  0  0  0  0  0  0  0  0  0  0
   19.4590   22.3900   64.8840 C   0  0  0  0  0  0  0  0  0  0  0  0
   18.3640   22.0340   64.1910 C   0  0  0  0  0  0  0  0  0  0  0  0
   17.1010   22.8280   64.3540 C   0  0  0  0  0  0  0  0  0  0  0  0
   18.2340   20.6950   63.5220 C   0  0  0  0  0  0  0  0  0  0  0  0
   16.2380   21.9860   65.0320 O   0  0  0  0  0  0  0  0  0  0  0  0
   18.8200   19.7190   64.3610 O   0  0  0  0  0  0  0  0  0  0  0  0
   21.4827   18.4368   64.3571 H   0  0  0  0  0  0  0  0  0  0  0  0
   20.9365   19.1498   62.8014 H   0  0  0  0  0  0  0  0  0  0  0  0
   22.0358   17.7292   62.8014 H   0  0  0  0  0  0  0  0  0  0  0  0
   26.0057   23.6652   64.7220 H   0  0  0  0  0  0  0  0  0  0  0  0
   25.3398   22.8556   63.2633 H   0  0  0  0  0  0  0  0  0  0  0  0
   25.6019   24.6327   63.2633 H   0  0  0  0  0  0  0  0  0  0  0  0
   21.4128   24.6602   66.1728 H   0  0  0  0  0  0  0  0  0  0  0  0
   22.1516   25.3693   64.6970 H   0  0  0  0  0  0  0  0  0  0  0  0
   20.4175   24.9009   64.6970 H   0  0  0  0  0  0  0  0  0  0  0  0
   19.2820   22.8761   65.8548 H   0  0  0  0  0  0  0  0  0  0  0  0
   17.2900   23.7408   64.9380 H   0  0  0  0  0  0  0  0  0  0  0  0
   16.6885   23.1541   63.3878 H   0  0  0  0  0  0  0  0  0  0  0  0
   17.1710   20.4599   63.3645 H   0  0  0  0  0  0  0  0  0  0  0  0
   18.7413   20.7088   62.5461 H   0  0  0  0  0  0  0  0  0  0  0  0
   16.3596   22.1046   66.0073 H   0  0  0  0  0  0  0  0  0  0  0  0
   18.6717   19.9660   65.3081 H   0  0  0  0  0  0  0  0  0  0  0  0
  3  2  1  0
  2  7  1  0
 15 13  1  0
 15 17  1  0
  7  6  1  0
  7  1  2  0
  6  8  2  0
  5  4  1  0
  1 11  1  0
 13 14  1  0
 13 12  2  0
  8  4  1  0
  8  9  1  0
 14 16  1  0
 11  9  2  0
 11 12  1  0
  9 10  1  0
  3 18  1  0
  3 19  1  0
  3 20  1  0
  5 21  1  0
  5 22  1  0
  5 23  1  0
 10 24  1  0
 10 25  1  0
 10 26  1  0
 12 27  1  0
 14 28  1  0
 14 29  1  0
 15 30  1  0
 15 31  1  0
 16 32  1  0
 17 33  1  0
A    1
N1
A    2
O1
A    3
C01
A    4
O2
A    5
C02
A    6
N2
A    7
C1
A    8
C2
A    9
C3
A   10
C4
A   11
C5
A   12
C11
A   13
C12
A   14
C13
A   15
C14
A   16
O3
A   17
O4
M  END
