4IVW_1GJ_A_601
     RDKit          3D

 43 46  0  0  0  0  0  0  0  0999 V2000
   17.1670   -0.6580   -0.2490 O   0  0  0  0  0  0  0  0  0  0  0  0
   17.6330   -1.0330    1.0560 C   0  0  0  0  0  0  0  0  0  0  0  0
   16.6990   -1.1420    2.1330 C   0  0  0  0  0  0  0  0  0  0  0  0
   17.1890   -1.5310    3.4680 C   0  0  0  0  0  0  0  0  0  0  0  0
   18.6210   -1.8030    3.6580 C   0  0  0  0  0  0  0  0  0  0  0  0
   19.1140   -2.1850    5.0290 C   0  0  0  0  0  0  0  0  0  0  0  0
   18.6320   -3.3180    5.8810 C   0  0  0  0  0  0  0  0  0  0  0  0
   17.5710   -4.4050    5.7100 C   0  0  0  0  0  0  0  0  0  0  0  0
   17.3610   -5.3870    6.7860 C   0  0  0  0  0  0  0  0  0  0  0  0
   18.1600   -5.3050    8.0340 C   0  0  0  0  0  0  0  0  0  0  0  0
   19.2080   -4.2200    8.1770 C   0  0  0  0  0  0  0  0  0  0  0  0
   20.1330   -4.0190    9.4770 C   0  0  0  0  0  0  0  0  0  0  0  0
   19.9890   -2.6960    9.9030 F   0  0  0  0  0  0  0  0  0  0  0  0
   21.4750   -4.2190    9.1230 F   0  0  0  0  0  0  0  0  0  0  0  0
   19.7400   -4.8830   10.4330 F   0  0  0  0  0  0  0  0  0  0  0  0
   19.4260   -3.2420    7.1180 C   0  0  0  0  0  0  0  0  0  0  0  0
   20.3460   -2.1340    7.0430 N   0  0  0  0  0  0  0  0  0  0  0  0
   20.1350   -1.4870    5.7450 N   0  0  0  0  0  0  0  0  0  0  0  0
   20.8820   -0.2950    5.2530 C   0  0  0  0  0  0  0  0  0  0  0  0
   22.4450   -0.6620    5.3130 C   0  0  0  0  0  0  0  0  0  0  0  0
   23.4160    0.3750    5.6320 C   0  0  0  0  0  0  0  0  0  0  0  0
   24.8460    0.0230    5.6840 C   0  0  0  0  0  0  0  0  0  0  0  0
   25.2760   -1.3550    5.4210 C   0  0  0  0  0  0  0  0  0  0  0  0
   24.2960   -2.3940    5.1080 C   0  0  0  0  0  0  0  0  0  0  0  0
   22.8700   -2.0480    5.0560 C   0  0  0  0  0  0  0  0  0  0  0  0
   19.5530   -1.6920    2.5970 C   0  0  0  0  0  0  0  0  0  0  0  0
   20.9440   -1.9620    2.8180 O   0  0  0  0  0  0  0  0  0  0  0  0
   19.0640   -1.2980    1.2600 C   0  0  0  0  0  0  0  0  0  0  0  0
   16.3991   -0.0401   -0.3417 H   0  0  0  0  0  0  0  0  0  0  0  0
   15.6306   -0.9386    1.9680 H   0  0  0  0  0  0  0  0  0  0  0  0
   16.4902   -1.6168    4.3132 H   0  0  0  0  0  0  0  0  0  0  0  0
   16.9694   -4.4529    4.7903 H   0  0  0  0  0  0  0  0  0  0  0  0
   16.6110   -6.1826    6.6651 H   0  0  0  0  0  0  0  0  0  0  0  0
   17.9929   -6.0256    8.8481 H   0  0  0  0  0  0  0  0  0  0  0  0
   20.6730    0.5733    5.8952 H   0  0  0  0  0  0  0  0  0  0  0  0
   20.5785   -0.0374    4.2276 H   0  0  0  0  0  0  0  0  0  0  0  0
   23.0871    1.4056    5.8312 H   0  0  0  0  0  0  0  0  0  0  0  0
   25.5929    0.7952    5.9205 H   0  0  0  0  0  0  0  0  0  0  0  0
   26.3456   -1.6088    5.4597 H   0  0  0  0  0  0  0  0  0  0  0  0
   24.6241   -3.4257    4.9132 H   0  0  0  0  0  0  0  0  0  0  0  0
   22.1222   -2.8212    4.8259 H   0  0  0  0  0  0  0  0  0  0  0  0
   21.2944   -2.0300    3.7414 H   0  0  0  0  0  0  0  0  0  0  0  0
   19.7683   -1.2033    0.4203 H   0  0  0  0  0  0  0  0  0  0  0  0
  1  2  1  0
  2 28  2  0
  2  3  1  0
 28 26  1  0
  3  4  2  0
 26 27  1  0
 26  5  2  0
  4  5  1  0
  5  6  1  0
  6 18  1  0
  6  7  2  0
 25 24  2  0
 25 20  1  0
 24 23  1  0
 19 20  1  0
 19 18  1  0
 20 21  2  0
 23 22  2  0
 21 22  1  0
  8  7  1  0
  8  9  2  0
 18 17  1  0
  7 16  1  0
  9 10  1  0
 17 16  2  0
 16 11  1  0
 10 11  2  0
 11 12  1  0
 14 12  1  0
 12 13  1  0
 12 15  1  0
  1 29  1  0
  3 30  1  0
  4 31  1  0
  8 32  1  0
  9 33  1  0
 10 34  1  0
 19 35  1  0
 19 36  1  0
 21 37  1  0
 22 38  1  0
 23 39  1  0
 24 40  1  0
 25 41  1  0
 27 42  1  0
 28 43  1  0
A    1
O01
A    2
C02
A    3
C03
A    4
C04
A    5
C05
A    6
C06
A    7
C07
A    8
C08
A    9
C09
A   10
C10
A   11
C11
A   12
C12
A   13
F13
A   14
F14
A   15
F15
A   16
C16
A   17
N17
A   18
N18
A   19
C19
A   20
C20
A   21
C21
A   22
C22
A   23
C23
A   24
C24
A   25
C25
A   26
C26
A   27
O27
A   28
C28
M  END
