4IVY_1GT_A_601
     RDKit          3D

 40 42  0  0  0  0  0  0  0  0999 V2000
   16.7340   -8.2950    7.5490 C   0  0  0  0  0  0  0  0  0  0  0  0
   17.6410   -7.2030    7.8470 C   0  0  0  0  0  0  0  0  0  0  0  0
   17.4910   -5.8040    7.0690 C   0  0  0  0  0  0  0  0  0  0  0  0
   18.4190   -4.6410    7.5120 C   0  0  0  0  0  0  0  0  0  0  0  0
   18.8730   -3.7150    6.3800 N   0  0  0  0  0  0  0  0  0  0  0  0
   18.0900   -3.4430    5.2200 N   0  0  0  0  0  0  0  0  0  0  0  0
   18.8220   -2.5350    4.3440 C   0  0  0  0  0  0  0  0  0  0  0  0
   18.3390   -2.0430    3.1080 C   0  0  0  0  0  0  0  0  0  0  0  0
   19.2920   -1.7480    1.9160 C   0  0  0  0  0  0  0  0  0  0  0  0
   18.7510   -1.2470    0.6690 C   0  0  0  0  0  0  0  0  0  0  0  0
   17.2240   -1.0110    0.5230 C   0  0  0  0  0  0  0  0  0  0  0  0
   16.6600   -0.5010   -0.7490 O   0  0  0  0  0  0  0  0  0  0  0  0
   16.3130   -1.2990    1.6660 C   0  0  0  0  0  0  0  0  0  0  0  0
   16.8870   -1.8210    2.9720 C   0  0  0  0  0  0  0  0  0  0  0  0
   16.0120   -2.1020    4.0810 O   0  0  0  0  0  0  0  0  0  0  0  0
   20.1210   -2.2390    4.9920 C   0  0  0  0  0  0  0  0  0  0  0  0
   21.3220   -1.3730    4.5900 C   0  0  0  0  0  0  0  0  0  0  0  0
   22.4610   -1.2910    5.4490 C   0  0  0  0  0  0  0  0  0  0  0  0
   22.4780   -2.0600    6.7530 C   0  0  0  0  0  0  0  0  0  0  0  0
   21.3120   -2.9080    7.1400 C   0  0  0  0  0  0  0  0  0  0  0  0
   21.3460   -3.6960    8.5150 C   0  0  0  0  0  0  0  0  0  0  0  0
   20.1560   -3.3870    9.2650 F   0  0  0  0  0  0  0  0  0  0  0  0
   22.4640   -3.2890    9.2480 F   0  0  0  0  0  0  0  0  0  0  0  0
   21.4200   -5.0860    8.2850 F   0  0  0  0  0  0  0  0  0  0  0  0
   20.1410   -2.9830    6.2650 C   0  0  0  0  0  0  0  0  0  0  0  0
   16.8340   -9.2534    8.0795 H   0  0  0  0  0  0  0  0  0  0  0  0
   15.9462   -8.1647    6.7925 H   0  0  0  0  0  0  0  0  0  0  0  0
   18.4294   -7.3317    8.6033 H   0  0  0  0  0  0  0  0  0  0  0  0
   16.4523   -5.4648    7.1959 H   0  0  0  0  0  0  0  0  0  0  0  0
   17.7876   -6.0235    6.0327 H   0  0  0  0  0  0  0  0  0  0  0  0
   19.3151   -5.0767    7.9779 H   0  0  0  0  0  0  0  0  0  0  0  0
   17.8293   -4.0200    8.2024 H   0  0  0  0  0  0  0  0  0  0  0  0
   20.3737   -1.9191    2.0190 H   0  0  0  0  0  0  0  0  0  0  0  0
   19.4231   -1.0336   -0.1752 H   0  0  0  0  0  0  0  0  0  0  0  0
   15.9258    0.1629   -0.7340 H   0  0  0  0  0  0  0  0  0  0  0  0
   15.2301   -1.1345    1.5648 H   0  0  0  0  0  0  0  0  0  0  0  0
   16.3398   -1.9967    5.0092 H   0  0  0  0  0  0  0  0  0  0  0  0
   21.3063   -0.8159    3.6416 H   0  0  0  0  0  0  0  0  0  0  0  0
   23.3233   -0.6706    5.1635 H   0  0  0  0  0  0  0  0  0  0  0  0
   23.3522   -1.9937    7.4173 H   0  0  0  0  0  0  0  0  0  0  0  0
 12 11  1  0
 11 10  1  0
 11 13  2  0
 10  9  2  0
 13 14  1  0
  9  8  1  0
 14  8  2  0
 14 15  1  0
  8  7  1  0
  7 16  1  0
  7  6  2  0
 17 16  1  0
 17 18  2  0
 16 25  2  0
  6  5  1  0
 18 19  1  0
 25  5  1  0
 25 20  1  0
  5  4  1  0
 19 20  2  0
  3  4  1  0
  3  2  1  0
 20 21  1  0
  1  2  2  3
 24 21  1  0
 21 23  1  0
 21 22  1  0
  1 26  1  0
  1 27  1  0
  2 28  1  0
  3 29  1  0
  3 30  1  0
  4 31  1  0
  4 32  1  0
  9 33  1  0
 10 34  1  0
 12 35  1  0
 13 36  1  0
 15 37  1  0
 17 38  1  0
 18 39  1  0
 19 40  1  0
A    1
C01
A    2
C02
A    3
C03
A    4
C04
A    5
N05
A    6
N06
A    7
C07
A    8
C08
A    9
C09
A   10
C10
A   11
C11
A   12
O12
A   13
C13
A   14
C14
A   15
O15
A   16
C16
A   17
C17
A   18
C18
A   19
C19
A   20
C20
A   21
C21
A   22
F22
A   23
F23
A   24
F24
A   25
C25
M  END
