4IWD_1JC_A_1401
     RDKit          3D

 67 72  0  0  0  0  0  0  0  0999 V2000
   -3.5650   -8.5290  -16.5910 C   0  0  0  0  0  0  0  0  0  0  0  0
   -4.6650   -9.2760  -17.0390 C   0  0  0  0  0  0  0  0  0  0  0  0
   -5.9120   -9.1320  -16.4790 N   0  0  0  0  0  0  0  0  0  0  0  0
   -6.0960   -8.2430  -15.4640 C   0  0  0  0  0  0  0  0  0  0  0  0
   -5.0510   -7.4750  -14.9340 C   0  0  0  0  0  0  0  0  0  0  0  0
   -3.8130   -7.6680  -15.5330 C   0  0  0  0  0  0  0  0  0  0  0  0
   -7.4570   -8.2120  -15.0570 C   0  0  0  0  0  0  0  0  0  0  0  0
   -8.0200   -7.1690  -14.2730 C   0  0  0  0  0  0  0  0  0  0  0  0
   -7.4990   -5.9920  -13.6890 C   0  0  0  0  0  0  0  0  0  0  0  0
   -6.1640   -5.6980  -13.4680 C   0  0  0  0  0  0  0  0  0  0  0  0
   -5.0640   -6.5170  -13.8250 C   0  0  0  0  0  0  0  0  0  0  0  0
   -8.4030   -4.9850  -13.2880 C   0  0  0  0  0  0  0  0  0  0  0  0
   -8.0220   -3.7610  -12.7060 C   0  0  0  0  0  0  0  0  0  0  0  0
   -6.6710   -3.4940  -12.4820 C   0  0  0  0  0  0  0  0  0  0  0  0
   -5.7900   -4.4600  -12.8720 C   0  0  0  0  0  0  0  0  0  0  0  0
   -6.1270   -2.2150  -11.8610 C   0  0  0  0  0  0  0  0  0  0  0  0
   -5.6840   -1.2620  -13.3020 S   0  0  0  0  0  0  0  0  0  0  0  0
   -5.3610    0.2600  -12.6410 N   0  0  0  0  0  0  0  0  0  0  0  0
   -3.9820   -6.3010  -13.1980 O   0  0  0  0  0  0  0  0  0  0  0  0
   -4.3020   -1.8620  -13.8580 O   0  0  0  0  0  0  0  0  0  0  0  0
   -6.9290   -1.1650  -14.2870 O   0  0  0  0  0  0  0  0  0  0  0  0
   -2.2150   -8.6270  -17.1880 C   0  0  0  0  0  0  0  0  0  0  0  0
   -1.9830   -9.2190  -18.4010 C   0  0  0  0  0  0  0  0  0  0  0  0
   -0.6430   -9.1380  -18.6360 N   0  0  0  0  0  0  0  0  0  0  0  0
    0.0080   -8.5080  -17.6650 N   0  0  0  0  0  0  0  0  0  0  0  0
   -0.9380   -8.2040  -16.7840 C   0  0  0  0  0  0  0  0  0  0  0  0
   -3.9460    0.5500  -12.2710 C   0  0  0  0  0  0  0  0  0  0  0  0
   -3.8700    1.3370  -10.9670 C   0  0  0  0  0  0  0  0  0  0  0  0
   -2.6670    1.8440  -10.6350 N   0  0  0  0  0  0  0  0  0  0  0  0
   -2.4990    2.5910   -9.4780 C   0  0  0  0  0  0  0  0  0  0  0  0
   -3.5570    2.8110   -8.6070 C   0  0  0  0  0  0  0  0  0  0  0  0
   -4.8320    2.2720   -8.9460 C   0  0  0  0  0  0  0  0  0  0  0  0
   -4.9880    1.5400  -10.1170 C   0  0  0  0  0  0  0  0  0  0  0  0
    0.0800   -9.6380  -19.8260 C   0  0  0  0  0  0  0  0  0  0  0  0
    1.1180  -10.6950  -19.3630 C   0  0  0  0  0  0  0  0  0  0  0  0
    2.2010  -11.0330  -20.4050 C   0  0  0  0  0  0  0  0  0  0  0  0
    2.7680   -9.8420  -21.1120 N   0  0  0  0  0  0  0  0  0  0  0  0
    1.8690   -8.6880  -21.4790 C   0  0  0  0  0  0  0  0  0  0  0  0
    0.7910   -8.3730  -20.4490 C   0  0  0  0  0  0  0  0  0  0  0  0
   -4.5259   -9.9954  -17.8595 H   0  0  0  0  0  0  0  0  0  0  0  0
   -2.9629   -7.0929  -15.1372 H   0  0  0  0  0  0  0  0  0  0  0  0
   -8.1108   -9.0410  -15.3658 H   0  0  0  0  0  0  0  0  0  0  0  0
   -9.0938   -7.3077  -14.0785 H   0  0  0  0  0  0  0  0  0  0  0  0
   -9.4768   -5.1688  -13.4404 H   0  0  0  0  0  0  0  0  0  0  0  0
   -8.7855   -3.0190  -12.4293 H   0  0  0  0  0  0  0  0  0  0  0  0
   -4.7180   -4.2696  -12.7154 H   0  0  0  0  0  0  0  0  0  0  0  0
   -5.2485   -2.4188  -11.2311 H   0  0  0  0  0  0  0  0  0  0  0  0
   -6.8404   -1.7069  -11.1955 H   0  0  0  0  0  0  0  0  0  0  0  0
   -5.6531    0.9669  -13.3309 H   0  0  0  0  0  0  0  0  0  0  0  0
   -2.7361   -9.6740  -19.0611 H   0  0  0  0  0  0  0  0  0  0  0  0
   -0.7424   -7.6770  -15.8385 H   0  0  0  0  0  0  0  0  0  0  0  0
   -3.4045   -0.3998  -12.1495 H   0  0  0  0  0  0  0  0  0  0  0  0
   -3.4924    1.1540  -13.0707 H   0  0  0  0  0  0  0  0  0  0  0  0
   -1.5110    3.0159   -9.2472 H   0  0  0  0  0  0  0  0  0  0  0  0
   -3.4152    3.3859   -7.6800 H   0  0  0  0  0  0  0  0  0  0  0  0
   -5.6927    2.4354   -8.2808 H   0  0  0  0  0  0  0  0  0  0  0  0
   -5.9699    1.1215  -10.3827 H   0  0  0  0  0  0  0  0  0  0  0  0
   -0.5785  -10.1165  -20.5659 H   0  0  0  0  0  0  0  0  0  0  0  0
    0.5777  -11.6212  -19.1176 H   0  0  0  0  0  0  0  0  0  0  0  0
    1.6424  -10.2583  -18.5003 H   0  0  0  0  0  0  0  0  0  0  0  0
    1.7582  -11.7019  -21.1576 H   0  0  0  0  0  0  0  0  0  0  0  0
    3.0324  -11.4987  -19.8557 H   0  0  0  0  0  0  0  0  0  0  0  0
    3.1839  -10.1863  -21.9891 H   0  0  0  0  0  0  0  0  0  0  0  0
    2.4947   -7.7923  -21.6061 H   0  0  0  0  0  0  0  0  0  0  0  0
    1.3445   -8.9813  -22.4004 H   0  0  0  0  0  0  0  0  0  0  0  0
    1.2558   -7.8040  -19.6304 H   0  0  0  0  0  0  0  0  0  0  0  0
    0.0101   -7.8096  -20.9807 H   0  0  0  0  0  0  0  0  0  0  0  0
 38 37  1  0
 38 39  1  0
 37 36  1  0
 39 34  1  0
 36 35  1  0
 34 35  1  0
 34 24  1  0
 24 23  1  0
 24 25  1  0
 23 22  2  0
 25 26  2  0
 22 26  1  0
 22  1  1  0
  2  1  2  0
  2  3  1  0
  1  6  1  0
  3  4  2  0
  6  5  2  0
  4  7  1  0
  4  5  1  0
  7  8  2  0
  5 11  1  0
 21 17  2  0
  8  9  1  0
 20 17  2  0
 11 10  1  0
 11 19  2  0
  9 10  2  0
  9 12  1  0
 10 15  1  0
 17 18  1  0
 17 16  1  0
 12 13  2  0
 15 14  2  0
 13 14  1  0
 18 27  1  0
 14 16  1  0
 27 28  1  0
 28 29  2  0
 28 33  1  0
 29 30  1  0
 33 32  2  0
 30 31  2  0
 32 31  1  0
  2 40  1  0
  6 41  1  0
  7 42  1  0
  8 43  1  0
 12 44  1  0
 13 45  1  0
 15 46  1  0
 16 47  1  0
 16 48  1  0
 18 49  1  0
 23 50  1  0
 26 51  1  0
 27 52  1  0
 27 53  1  0
 30 54  1  0
 31 55  1  0
 32 56  1  0
 33 57  1  0
 34 58  1  0
 35 59  1  0
 35 60  1  0
 36 61  1  0
 36 62  1  0
 37 63  1  0
 38 64  1  0
 38 65  1  0
 39 66  1  0
 39 67  1  0
A    1
C
A    2
C1
A    3
N
A    4
C2
A    5
C3
A    6
C4
A    7
C5
A    8
C6
A    9
C7
A   10
C8
A   11
C9
A   12
C10
A   13
C11
A   14
C12
A   15
C13
A   16
C14
A   17
S
A   18
N15
A   19
O
A   20
O16
A   21
O17
A   22
C18
A   23
C19
A   24
N20
A   25
N21
A   26
C22
A   27
C23
A   28
C24
A   29
N25
A   30
C26
A   31
C27
A   32
C28
A   33
C29
A   34
C30
A   35
C31
A   36
C32
A   37
N33
A   38
C34
A   39
C35
M  END
