4IWO_1H4_A_701
     RDKit          3D

 65 69  0  0  0  0  0  0  0  0999 V2000
  -25.7940  -15.3910   18.3870 C   0  0  0  0  0  0  0  0  0  0  0  0
  -25.0450  -17.7430   16.1910 C   0  0  0  0  0  0  0  0  0  0  0  0
  -24.2280  -17.7420   14.1760 C   0  0  0  0  0  0  0  0  0  0  0  0
  -25.7760  -16.6710   16.2750 C   0  0  0  0  0  0  0  0  0  0  0  0
  -26.5800  -16.2340   17.5440 C   0  0  0  0  0  0  0  0  0  0  0  0
  -29.7520  -10.9790   14.6370 C   0  0  0  0  0  0  0  0  0  0  0  0
  -28.5510  -10.2250   15.2500 C   0  0  0  0  0  0  0  0  0  0  0  0
  -28.9260  -10.8410   16.5880 C   0  0  0  0  0  0  0  0  0  0  0  0
  -29.8860  -11.6480   15.8780 C   0  0  0  0  0  0  0  0  0  0  0  0
  -29.4260  -13.0550   15.7930 C   0  0  0  0  0  0  0  0  0  0  0  0
  -29.3450  -13.6330   17.0600 O   0  0  0  0  0  0  0  0  0  0  0  0
  -29.2130  -13.3830   14.4800 N   0  0  0  0  0  0  0  0  0  0  0  0
  -29.1510  -14.7940   14.0890 C   0  0  0  0  0  0  0  0  0  0  0  0
  -28.0420  -14.9800   13.0320 C   0  0  0  0  0  0  0  0  0  0  0  0
  -26.8200  -14.2070   13.4990 C   0  0  0  0  0  0  0  0  0  0  0  0
  -26.5070  -14.6300   14.8380 N   0  0  0  0  0  0  0  0  0  0  0  0
  -25.7770  -15.8680   15.0130 C   0  0  0  0  0  0  0  0  0  0  0  0
  -24.9180  -16.4560   13.8450 N   0  0  0  0  0  0  0  0  0  0  0  0
  -24.4180  -18.1490   15.2990 N   0  0  0  0  0  0  0  0  0  0  0  0
  -26.0390  -16.8400   18.7200 C   0  0  0  0  0  0  0  0  0  0  0  0
  -23.3780  -18.4490   13.2530 N   0  0  0  0  0  0  0  0  0  0  0  0
  -23.4620  -18.3170   11.8010 C   0  0  0  0  0  0  0  0  0  0  0  0
  -22.4840  -19.1550   10.8210 C   0  0  0  0  0  0  0  0  0  0  0  0
  -22.6930  -18.9060    9.3690 C   0  0  0  0  0  0  0  0  0  0  0  0
  -23.6030  -18.0740    9.1170 C   0  0  0  0  0  0  0  0  0  0  0  0
  -24.3380  -17.4380    9.7870 C   0  0  0  0  0  0  0  0  0  0  0  0
  -24.4310  -17.4100   11.0780 C   0  0  0  0  0  0  0  0  0  0  0  0
  -21.9180  -19.5590    8.3480 N   0  0  0  0  0  0  0  0  0  0  0  0
  -22.4190  -19.9760    7.0420 C   0  0  0  0  0  0  0  0  0  0  0  0
  -21.2230  -20.4990    6.2560 C   0  0  0  0  0  0  0  0  0  0  0  0
  -20.0650  -20.5530    7.1920 C   0  0  0  0  0  0  0  0  0  0  0  0
  -20.5000  -19.8970    8.4510 C   0  0  0  0  0  0  0  0  0  0  0  0
  -19.7820  -19.6830    9.4170 O   0  0  0  0  0  0  0  0  0  0  0  0
  -24.7972  -15.0569   18.0634 H   0  0  0  0  0  0  0  0  0  0  0  0
  -25.9429  -14.4287   18.8986 H   0  0  0  0  0  0  0  0  0  0  0  0
  -25.0148  -18.3596   17.1014 H   0  0  0  0  0  0  0  0  0  0  0  0
  -27.5925  -16.1547   17.1215 H   0  0  0  0  0  0  0  0  0  0  0  0
  -30.6051  -10.3397   14.3660 H   0  0  0  0  0  0  0  0  0  0  0  0
  -29.6663  -11.5301   13.6889 H   0  0  0  0  0  0  0  0  0  0  0  0
  -27.5694  -10.5348   14.8622 H   0  0  0  0  0  0  0  0  0  0  0  0
  -28.4292   -9.1385   15.1289 H   0  0  0  0  0  0  0  0  0  0  0  0
  -28.1189  -11.4093   17.0734 H   0  0  0  0  0  0  0  0  0  0  0  0
  -29.2164  -10.2207   17.4488 H   0  0  0  0  0  0  0  0  0  0  0  0
  -30.9005  -11.7270   16.2957 H   0  0  0  0  0  0  0  0  0  0  0  0
  -29.0973  -12.6432   13.7727 H   0  0  0  0  0  0  0  0  0  0  0  0
  -30.1185  -15.1010   13.6650 H   0  0  0  0  0  0  0  0  0  0  0  0
  -28.9279  -15.4122   14.9711 H   0  0  0  0  0  0  0  0  0  0  0  0
  -28.3819  -14.5912   12.0608 H   0  0  0  0  0  0  0  0  0  0  0  0
  -27.7996  -16.0464   12.9134 H   0  0  0  0  0  0  0  0  0  0  0  0
  -25.9696  -14.4168   12.8336 H   0  0  0  0  0  0  0  0  0  0  0  0
  -27.0228  -13.1261   13.4790 H   0  0  0  0  0  0  0  0  0  0  0  0
  -26.7947  -14.0668   15.6509 H   0  0  0  0  0  0  0  0  0  0  0  0
  -26.6982  -17.1134   19.5570 H   0  0  0  0  0  0  0  0  0  0  0  0
  -25.4108  -17.7162   18.9380 H   0  0  0  0  0  0  0  0  0  0  0  0
  -22.6678  -19.0864   13.6405 H   0  0  0  0  0  0  0  0  0  0  0  0
  -21.7237  -19.8544   11.1990 H   0  0  0  0  0  0  0  0  0  0  0  0
  -23.7440  -17.9023    8.0397 H   0  0  0  0  0  0  0  0  0  0  0  0
  -25.0351  -16.7835    9.2432 H   0  0  0  0  0  0  0  0  0  0  0  0
  -25.1579  -16.7761   11.6070 H   0  0  0  0  0  0  0  0  0  0  0  0
  -22.8704  -19.1200    6.5190 H   0  0  0  0  0  0  0  0  0  0  0  0
  -23.1918  -20.7519    7.1459 H   0  0  0  0  0  0  0  0  0  0  0  0
  -21.4394  -21.5049    5.8669 H   0  0  0  0  0  0  0  0  0  0  0  0
  -21.0020  -19.8423    5.4016 H   0  0  0  0  0  0  0  0  0  0  0  0
  -19.7843  -21.5985    7.3872 H   0  0  0  0  0  0  0  0  0  0  0  0
  -19.1881  -20.0447    6.7647 H   0  0  0  0  0  0  0  0  0  0  0  0
 30 29  1  0
 30 31  1  0
 29 28  1  0
 31 32  1  0
 28 32  1  0
 28 24  1  0
 32 33  2  0
 25 24  1  0
 25 26  2  0
 24 23  2  0
 26 27  1  0
 23 22  1  0
 27 22  2  0
 22 21  1  0
 14 15  1  0
 14 13  1  0
 21  3  1  0
 15 16  1  0
 18  3  2  0
 18 17  1  0
 13 12  1  0
  3 19  1  0
 12 10  1  0
  6  7  1  0
  6  9  1  0
 16 17  1  0
 17  4  2  0
  7  8  1  0
 19  2  2  0
 10  9  1  0
 10 11  2  0
  9  8  1  0
  2  4  1  0
  4  5  1  0
  5  1  1  0
  5 20  1  0
  1 20  1  0
  1 34  1  0
  1 35  1  0
  2 36  1  0
  5 37  1  0
  6 38  1  0
  6 39  1  0
  7 40  1  0
  7 41  1  0
  8 42  1  0
  8 43  1  0
  9 44  1  0
 12 45  1  0
 13 46  1  0
 13 47  1  0
 14 48  1  0
 14 49  1  0
 15 50  1  0
 15 51  1  0
 16 52  1  0
 20 53  1  0
 20 54  1  0
 21 55  1  0
 23 56  1  0
 25 57  1  0
 26 58  1  0
 27 59  1  0
 29 60  1  0
 29 61  1  0
 30 62  1  0
 30 63  1  0
 31 64  1  0
 31 65  1  0
A    1
C14
A    2
C11
A    3
C10
A    4
C12
A    5
C13
A    6
C01
A    7
C02
A    8
C03
A    9
C04
A   10
C05
A   11
O01
A   12
N01
A   13
C06
A   14
C07
A   15
C08
A   16
N02
A   17
C09
A   18
N03
A   19
N04
A   20
C15
A   21
N05
A   22
C16
A   23
C17
A   24
C18
A   25
C19
A   26
C20
A   27
C21
A   28
N
A   29
C22
A   30
C23
A   31
C24
A   32
C
A   33
O
M  END
