4IM0_1FV_A_701
     RDKit          3D

 70 74  0  0  0  0  0  0  0  0999 V2000
  103.8840    9.8990  -29.2550 C   0  0  0  0  0  0  0  0  0  0  0  0
  105.2070    9.1630  -29.4820 C   0  0  0  0  0  0  0  0  0  0  0  0
  105.3730    9.8940  -30.8150 C   0  0  0  0  0  0  0  0  0  0  0  0
  104.2680   10.8560  -30.3770 C   0  0  0  0  0  0  0  0  0  0  0  0
  104.8360   12.1550  -29.7950 C   0  0  0  0  0  0  0  0  0  0  0  0
  105.4680   12.8840  -30.5640 O   0  0  0  0  0  0  0  0  0  0  0  0
  104.5850   12.3350  -28.4680 N   0  0  0  0  0  0  0  0  0  0  0  0
  104.9690   13.4630  -27.5570 C   0  0  0  0  0  0  0  0  0  0  0  0
  106.0470   14.2880  -28.2100 C   0  0  0  0  0  0  0  0  0  0  0  0
  107.3770   13.5580  -28.3920 C   0  0  0  0  0  0  0  0  0  0  0  0
  107.9450   14.4600  -29.3760 N   0  0  0  0  0  0  0  0  0  0  0  0
  108.7210   15.5080  -29.3500 C   0  0  0  0  0  0  0  0  0  0  0  0
  109.2680   16.0670  -28.2820 N   0  0  0  0  0  0  0  0  0  0  0  0
  108.9430   16.0060  -30.6050 C   0  0  0  0  0  0  0  0  0  0  0  0
  108.2360   15.2510  -31.7380 C   0  0  0  0  0  0  0  0  0  0  0  0
  108.5120   15.7360  -33.1540 C   0  0  0  0  0  0  0  0  0  0  0  0
  107.1660   16.0300  -32.4860 C   0  0  0  0  0  0  0  0  0  0  0  0
  109.7330   17.1320  -30.7480 C   0  0  0  0  0  0  0  0  0  0  0  0
  110.2680   17.6600  -29.6510 N   0  0  0  0  0  0  0  0  0  0  0  0
  110.0580   17.1460  -28.4180 C   0  0  0  0  0  0  0  0  0  0  0  0
  110.6400   17.7410  -27.3560 N   0  0  0  0  0  0  0  0  0  0  0  0
  110.5330   17.3840  -26.0560 C   0  0  0  0  0  0  0  0  0  0  0  0
  111.2740   18.1090  -25.1260 C   0  0  0  0  0  0  0  0  0  0  0  0
  109.7750   16.3000  -25.5950 C   0  0  0  0  0  0  0  0  0  0  0  0
  109.7040   15.9640  -24.2520 C   0  0  0  0  0  0  0  0  0  0  0  0
  110.4380   16.7100  -23.3440 C   0  0  0  0  0  0  0  0  0  0  0  0
  111.2230   17.7730  -23.7780 C   0  0  0  0  0  0  0  0  0  0  0  0
  111.9980   18.5530  -22.7130 C   0  0  0  0  0  0  0  0  0  0  0  0
  113.2430   17.8470  -22.3710 N   0  0  0  0  0  0  0  0  0  0  0  0
  113.8840   18.4760  -21.2130 C   0  0  0  0  0  0  0  0  0  0  0  0
  115.1750   17.7230  -20.8810 C   0  0  0  0  0  0  0  0  0  0  0  0
  116.0890   17.7450  -22.0010 O   0  0  0  0  0  0  0  0  0  0  0  0
  115.4560   17.1220  -23.1310 C   0  0  0  0  0  0  0  0  0  0  0  0
  114.1730   17.8580  -23.5100 C   0  0  0  0  0  0  0  0  0  0  0  0
  103.7906   10.3718  -28.2662 H   0  0  0  0  0  0  0  0  0  0  0  0
  102.9241    9.3619  -29.2684 H   0  0  0  0  0  0  0  0  0  0  0  0
  105.1052    8.0718  -29.5761 H   0  0  0  0  0  0  0  0  0  0  0  0
  106.0027    9.1942  -28.7232 H   0  0  0  0  0  0  0  0  0  0  0  0
  105.1256    9.2891  -31.6998 H   0  0  0  0  0  0  0  0  0  0  0  0
  106.3550   10.2648  -31.1439 H   0  0  0  0  0  0  0  0  0  0  0  0
  103.5280   11.2162  -31.1068 H   0  0  0  0  0  0  0  0  0  0  0  0
  104.0478   11.5785  -28.0207 H   0  0  0  0  0  0  0  0  0  0  0  0
  104.0894   14.0948  -27.3641 H   0  0  0  0  0  0  0  0  0  0  0  0
  105.3427   13.0564  -26.6057 H   0  0  0  0  0  0  0  0  0  0  0  0
  106.2248   15.1770  -27.5870 H   0  0  0  0  0  0  0  0  0  0  0  0
  105.6847   14.5367  -29.2184 H   0  0  0  0  0  0  0  0  0  0  0  0
  107.2465   12.5381  -28.7828 H   0  0  0  0  0  0  0  0  0  0  0  0
  107.9713   13.3866  -27.4824 H   0  0  0  0  0  0  0  0  0  0  0  0
  107.6655   14.2103  -30.3354 H   0  0  0  0  0  0  0  0  0  0  0  0
  108.2815   14.2746  -31.2334 H   0  0  0  0  0  0  0  0  0  0  0  0
  108.5699   15.0141  -33.9820 H   0  0  0  0  0  0  0  0  0  0  0  0
  109.2948   16.3441  -33.6309 H   0  0  0  0  0  0  0  0  0  0  0  0
  106.9164   17.0564  -32.1789 H   0  0  0  0  0  0  0  0  0  0  0  0
  106.1121   15.8523  -32.7463 H   0  0  0  0  0  0  0  0  0  0  0  0
  109.9131   17.5768  -31.7378 H   0  0  0  0  0  0  0  0  0  0  0  0
  111.2323   18.5590  -27.5581 H   0  0  0  0  0  0  0  0  0  0  0  0
  111.9010   18.9493  -25.4588 H   0  0  0  0  0  0  0  0  0  0  0  0
  109.2167   15.6943  -26.3240 H   0  0  0  0  0  0  0  0  0  0  0  0
  109.0790   15.1240  -23.9147 H   0  0  0  0  0  0  0  0  0  0  0  0
  110.3997   16.4601  -22.2735 H   0  0  0  0  0  0  0  0  0  0  0  0
  112.2422   19.5529  -23.1009 H   0  0  0  0  0  0  0  0  0  0  0  0
  111.3762   18.6418  -21.8099 H   0  0  0  0  0  0  0  0  0  0  0  0
  114.1197   19.5245  -21.4475 H   0  0  0  0  0  0  0  0  0  0  0  0
  113.2033   18.4407  -20.3496 H   0  0  0  0  0  0  0  0  0  0  0  0
  114.9300   16.6788  -20.6368 H   0  0  0  0  0  0  0  0  0  0  0  0
  115.6580   18.2154  -20.0241 H   0  0  0  0  0  0  0  0  0  0  0  0
  115.2121   16.0797  -22.8780 H   0  0  0  0  0  0  0  0  0  0  0  0
  116.1476   17.1577  -23.9856 H   0  0  0  0  0  0  0  0  0  0  0  0
  114.4127   18.8979  -23.7768 H   0  0  0  0  0  0  0  0  0  0  0  0
  113.7042   17.3560  -24.3692 H   0  0  0  0  0  0  0  0  0  0  0  0
 16 17  1  0
 16 15  1  0
 17 15  1  0
 15 14  1  0
  3  4  1  0
  3  2  1  0
 18 14  2  0
 18 19  1  0
 14 12  1  0
  6  5  2  0
  4  5  1  0
  4  1  1  0
  5  7  1  0
 19 20  2  0
  2  1  1  0
 11 12  1  0
 11 10  1  0
 12 13  2  0
  7  8  1  0
 20 13  1  0
 20 21  1  0
 10  9  1  0
  9  8  1  0
 21 22  1  0
 22 24  1  0
 22 23  2  0
 24 25  2  0
 23 27  1  0
 25 26  1  0
 27 26  2  0
 27 28  1  0
 34 33  1  0
 34 29  1  0
 33 32  1  0
 28 29  1  0
 29 30  1  0
 32 31  1  0
 30 31  1  0
  1 35  1  0
  1 36  1  0
  2 37  1  0
  2 38  1  0
  3 39  1  0
  3 40  1  0
  4 41  1  0
  7 42  1  0
  8 43  1  0
  8 44  1  0
  9 45  1  0
  9 46  1  0
 10 47  1  0
 10 48  1  0
 11 49  1  0
 15 50  1  0
 16 51  1  0
 16 52  1  0
 17 53  1  0
 17 54  1  0
 18 55  1  0
 21 56  1  0
 23 57  1  0
 24 58  1  0
 25 59  1  0
 26 60  1  0
 28 61  1  0
 28 62  1  0
 30 63  1  0
 30 64  1  0
 31 65  1  0
 31 66  1  0
 33 67  1  0
 33 68  1  0
 34 69  1  0
 34 70  1  0
A    1
CAM
A    2
CAH
A    3
CAN
A    4
CBF
A    5
CAZ
A    6
OAA
A    7
NAV
A    8
CAI
A    9
CAG
A   10
CAJ
A   11
NAW
A   12
C4
A   13
N3
A   14
C5
A   15
CBG
A   16
CAO
A   17
CAP
A   18
C6
A   19
N1
A   20
C2
A   21
NAX
A   22
CBB
A   23
CAF
A   24
CAD
A   25
CAB
A   26
CAC
A   27
CBA
A   28
CAS
A   29
NBH
A   30
CAQ
A   31
CAK
A   32
OAY
A   33
CAL
A   34
CAR
M  END
