4IXC_1JD_A_503
     RDKit          3D

 55 58  0  0  0  0  0  0  0  0999 V2000
   55.5760   10.3870   14.9480 C   0  0  0  0  0  0  0  0  0  0  0  0
   56.4590   11.4910   15.4830 C   0  0  0  0  0  0  0  0  0  0  0  0
   57.8290   11.4370   15.4070 C   0  0  0  0  0  0  0  0  0  0  0  0
   58.5740   12.4990   15.9280 C   0  0  0  0  0  0  0  0  0  0  0  0
   57.8900   13.5800   16.5080 C   0  0  0  0  0  0  0  0  0  0  0  0
   56.5620   13.5850   16.5610 N   0  0  0  0  0  0  0  0  0  0  0  0
   55.8910   12.5640   16.0570 C   0  0  0  0  0  0  0  0  0  0  0  0
   58.5600   14.7170   17.0850 N   0  0  0  0  0  0  0  0  0  0  0  0
   59.8390   15.0540   16.9230 C   0  0  0  0  0  0  0  0  0  0  0  0
   60.6610   14.4180   16.2260 O   0  0  0  0  0  0  0  0  0  0  0  0
   60.2490   16.3200   17.6810 C   0  0  0  0  0  0  0  0  0  0  0  0
   59.6980   17.5930   17.0950 C   0  0  0  0  0  0  0  0  0  0  0  0
   60.0510   18.6360   17.9880 O   0  0  0  0  0  0  0  0  0  0  0  0
   60.1320   19.9100   17.3620 C   0  0  0  0  0  0  0  0  0  0  0  0
   61.4650   20.0540   16.6700 C   0  0  0  0  0  0  0  0  0  0  0  0
   59.9910   20.9860   18.4350 C   0  0  0  0  0  0  0  0  0  0  0  0
   61.6710   16.4570   17.7050 O   0  0  0  0  0  0  0  0  0  0  0  0
   62.3480   15.6390   18.5260 C   0  0  0  0  0  0  0  0  0  0  0  0
   63.7340   15.5520   18.4320 C   0  0  0  0  0  0  0  0  0  0  0  0
   64.8130   16.0850   17.6850 C   0  0  0  0  0  0  0  0  0  0  0  0
   65.9600   15.5810   18.0860 N   0  0  0  0  0  0  0  0  0  0  0  0
   65.6580   14.7290   19.1210 N   0  0  0  0  0  0  0  0  0  0  0  0
   64.3180   14.6630   19.3310 C   0  0  0  0  0  0  0  0  0  0  0  0
   63.7030   13.9180   20.2570 N   0  0  0  0  0  0  0  0  0  0  0  0
   62.4000   14.1110   20.2200 C   0  0  0  0  0  0  0  0  0  0  0  0
   61.6920   14.9170   19.4230 N   0  0  0  0  0  0  0  0  0  0  0  0
   66.6910   13.9780   19.7180 C   0  0  0  0  0  0  0  0  0  0  0  0
   67.1260   12.8190   19.1310 C   0  0  0  0  0  0  0  0  0  0  0  0
   68.1110   12.0840   19.7170 C   0  0  0  0  0  0  0  0  0  0  0  0
   68.6290   12.5490   20.9040 C   0  0  0  0  0  0  0  0  0  0  0  0
   68.1440   13.7240   21.4610 C   0  0  0  0  0  0  0  0  0  0  0  0
   67.1620   14.4550   20.8810 N   0  0  0  0  0  0  0  0  0  0  0  0
   66.3700   12.3760   17.6370 Cl  0  0  0  0  0  0  0  0  0  0  0  0
   55.1325    9.8325   15.7882 H   0  0  0  0  0  0  0  0  0  0  0  0
   54.7750   10.8235   14.3332 H   0  0  0  0  0  0  0  0  0  0  0  0
   56.1778    9.7015   14.3332 H   0  0  0  0  0  0  0  0  0  0  0  0
   58.3309   10.5742   14.9448 H   0  0  0  0  0  0  0  0  0  0  0  0
   59.6731   12.4883   15.8846 H   0  0  0  0  0  0  0  0  0  0  0  0
   54.7928   12.5952   16.1114 H   0  0  0  0  0  0  0  0  0  0  0  0
   57.9922   15.3328   17.6844 H   0  0  0  0  0  0  0  0  0  0  0  0
   59.8288   16.1868   18.6888 H   0  0  0  0  0  0  0  0  0  0  0  0
   60.1387   17.7765   16.1040 H   0  0  0  0  0  0  0  0  0  0  0  0
   58.6071   17.5316   16.9681 H   0  0  0  0  0  0  0  0  0  0  0  0
   59.3312   20.0142   16.6151 H   0  0  0  0  0  0  0  0  0  0  0  0
   62.2618   20.1401   17.4234 H   0  0  0  0  0  0  0  0  0  0  0  0
   61.6490   19.1705   16.0410 H   0  0  0  0  0  0  0  0  0  0  0  0
   61.4560   20.9564   16.0410 H   0  0  0  0  0  0  0  0  0  0  0  0
   60.0519   20.5215   19.4303 H   0  0  0  0  0  0  0  0  0  0  0  0
   60.8003   21.7227   18.3241 H   0  0  0  0  0  0  0  0  0  0  0  0
   59.0192   21.4893   18.3241 H   0  0  0  0  0  0  0  0  0  0  0  0
   64.7059   16.8230   16.8763 H   0  0  0  0  0  0  0  0  0  0  0  0
   61.8139   13.5280   20.9456 H   0  0  0  0  0  0  0  0  0  0  0  0
   68.4787   11.1539   19.2590 H   0  0  0  0  0  0  0  0  0  0  0  0
   69.4281   11.9890   21.4118 H   0  0  0  0  0  0  0  0  0  0  0  0
   68.5738   14.0755   22.4106 H   0  0  0  0  0  0  0  0  0  0  0  0
  1  2  1  0
  3  2  2  0
  3  4  1  0
  2  7  1  0
  4  5  2  0
  7  6  2  0
 10  9  2  0
  5  6  1  0
  5  8  1  0
 15 14  1  0
  9  8  1  0
  9 11  1  0
 12 11  1  0
 12 13  1  0
 14 13  1  0
 14 16  1  0
 33 28  1  0
 11 17  1  0
 20 21  2  0
 20 19  1  0
 17 18  1  0
 21 22  1  0
 19 18  2  0
 19 23  1  0
 18 26  1  0
 22 23  1  0
 22 27  1  0
 28 29  2  0
 28 27  1  0
 23 24  2  0
 26 25  2  0
 29 30  1  0
 27 32  2  0
 25 24  1  0
 32 31  1  0
 30 31  2  0
  1 34  1  0
  1 35  1  0
  1 36  1  0
  3 37  1  0
  4 38  1  0
  7 39  1  0
  8 40  1  0
 11 41  1  0
 12 42  1  0
 12 43  1  0
 14 44  1  0
 15 45  1  0
 15 46  1  0
 15 47  1  0
 16 48  1  0
 16 49  1  0
 16 50  1  0
 20 51  1  0
 25 52  1  0
 29 53  1  0
 30 54  1  0
 31 55  1  0
A    1
C1
A    2
C2
A    3
C3
A    4
C4
A    5
C5
A    6
N1
A    7
C6
A    8
N2
A    9
C7
A   10
O1
A   11
C8
A   12
C9
A   13
O2
A   14
C10
A   15
C11
A   16
C12
A   17
O3
A   18
C13
A   19
C14
A   20
C15
A   21
N3
A   22
N4
A   23
C16
A   24
N5
A   25
C17
A   26
N6
A   27
C18
A   28
C19
A   29
C20
A   30
C21
A   31
C22
A   32
N7
A   33
CL1
M  END
