4IXF_IXF_X_302
     RDKit          3D

 43 45  0  0  0  0  0  0  0  0999 V2000
   -3.1310    5.5280    7.4410 C   0  0  0  0  0  0  0  0  0  0  0  0
   -2.1900    4.3990    7.9440 C   0  0  0  0  0  0  0  0  0  0  0  0
   -1.9510    3.3260    6.8560 C   0  0  0  0  0  0  0  0  0  0  0  0
   -2.7420    3.7290    9.2530 C   0  0  0  0  0  0  0  0  0  0  0  0
   -1.8520    3.3780   10.2600 C   0  0  0  0  0  0  0  0  0  0  0  0
   -2.3060    2.7760   11.4600 C   0  0  0  0  0  0  0  0  0  0  0  0
   -4.0970    3.4460    9.4520 C   0  0  0  0  0  0  0  0  0  0  0  0
   -4.5260    2.8550   10.6290 C   0  0  0  0  0  0  0  0  0  0  0  0
   -3.6640    2.4910   11.6510 C   0  0  0  0  0  0  0  0  0  0  0  0
   -4.1560    1.8430   12.8000 N   0  0  0  0  0  0  0  0  0  0  0  0
   -4.0980    2.4540   14.1230 C   0  0  0  0  0  0  0  0  0  0  0  0
   -4.9840    0.7630   12.6030 C   0  0  0  0  0  0  0  0  0  0  0  0
   -6.1220    0.5510   13.4530 C   0  0  0  0  0  0  0  0  0  0  0  0
   -6.9320   -0.5440   13.1760 C   0  0  0  0  0  0  0  0  0  0  0  0
   -8.1090   -0.8590   13.9530 C   0  0  0  0  0  0  0  0  0  0  0  0
   -8.5200   -0.0870   15.0040 N   0  0  0  0  0  0  0  0  0  0  0  0
   -8.8320   -1.8920   13.5500 N   0  0  0  0  0  0  0  0  0  0  0  0
   -8.5260   -2.6820   12.4870 C   0  0  0  0  0  0  0  0  0  0  0  0
   -9.2660   -3.7560   12.0920 N   0  0  0  0  0  0  0  0  0  0  0  0
   -7.4010   -2.4270   11.7930 N   0  0  0  0  0  0  0  0  0  0  0  0
   -6.6250   -1.3670   12.0660 C   0  0  0  0  0  0  0  0  0  0  0  0
   -5.5160   -1.1780   11.2510 N   0  0  0  0  0  0  0  0  0  0  0  0
   -4.7430   -0.1310   11.5440 C   0  0  0  0  0  0  0  0  0  0  0  0
   -3.5681    6.0524    8.3035 H   0  0  0  0  0  0  0  0  0  0  0  0
   -2.5557    6.2405    6.8317 H   0  0  0  0  0  0  0  0  0  0  0  0
   -3.9355    5.0905    6.8317 H   0  0  0  0  0  0  0  0  0  0  0  0
   -1.2248    4.8722    8.1771 H   0  0  0  0  0  0  0  0  0  0  0  0
   -1.7357    2.3595    7.3352 H   0  0  0  0  0  0  0  0  0  0  0  0
   -2.8503    3.2324    6.2295 H   0  0  0  0  0  0  0  0  0  0  0  0
   -1.0970    3.6229    6.2295 H   0  0  0  0  0  0  0  0  0  0  0  0
   -0.7775    3.5704   10.1239 H   0  0  0  0  0  0  0  0  0  0  0  0
   -1.5828    2.5295   12.2513 H   0  0  0  0  0  0  0  0  0  0  0  0
   -4.8275    3.6946    8.6681 H   0  0  0  0  0  0  0  0  0  0  0  0
   -5.6018    2.6657   10.7585 H   0  0  0  0  0  0  0  0  0  0  0  0
   -4.1723    1.6710   14.8921 H   0  0  0  0  0  0  0  0  0  0  0  0
   -3.1448    2.9910   14.2374 H   0  0  0  0  0  0  0  0  0  0  0  0
   -4.9331    3.1608   14.2374 H   0  0  0  0  0  0  0  0  0  0  0  0
   -6.3439    1.2287   14.2905 H   0  0  0  0  0  0  0  0  0  0  0  0
   -8.3526   -0.4015   15.9704 H   0  0  0  0  0  0  0  0  0  0  0  0
   -8.9970    0.8090   14.8293 H   0  0  0  0  0  0  0  0  0  0  0  0
   -9.6923   -4.3748   12.7964 H   0  0  0  0  0  0  0  0  0  0  0  0
   -9.3990   -3.9490   11.0890 H   0  0  0  0  0  0  0  0  0  0  0  0
   -3.8577    0.0451   10.9153 H   0  0  0  0  0  0  0  0  0  0  0  0
  3  2  1  0
  1  2  1  0
  2  4  1  0
  4  7  2  0
  4  5  1  0
  7  8  1  0
  5  6  2  0
  8  9  2  0
 22 23  2  0
 22 21  1  0
  6  9  1  0
 23 12  1  0
  9 10  1  0
 20 21  1  0
 20 18  2  0
 21 14  2  0
 19 18  1  0
 18 17  1  0
 12 10  1  0
 12 13  2  0
 10 11  1  0
 14 13  1  0
 14 15  1  0
 17 15  2  0
 15 16  1  0
  1 24  1  0
  1 25  1  0
  1 26  1  0
  2 27  1  0
  3 28  1  0
  3 29  1  0
  3 30  1  0
  5 31  1  0
  6 32  1  0
  7 33  1  0
  8 34  1  0
 11 35  1  0
 11 36  1  0
 11 37  1  0
 13 38  1  0
 16 39  1  0
 16 40  1  0
 19 41  1  0
 19 42  1  0
 23 43  1  0
A    1
CAA
A    2
CAV
A    3
CAB
A    4
CAQ
A    5
CAG
A    6
CAI
A    7
CAF
A    8
CAH
A    9
CAR
A   10
NAW
A   11
CAC
A   12
CAS
A   13
CAK
A   14
C5
A   15
C6
A   16
NAE
A   17
N1
A   18
C2
A   19
NAD
A   20
N3
A   21
C4
A   22
NAL
A   23
CAJ
M  END
