4IXG_IXG_X_302
     RDKit          3D

 34 36  0  0  0  0  0  0  0  0999 V2000
   16.4570    3.7460    9.2790 C   0  0  0  0  0  0  0  0  0  0  0  0
   17.2620    3.1350   10.2500 C   0  0  0  0  0  0  0  0  0  0  0  0
   16.6650    2.5080   11.3540 C   0  0  0  0  0  0  0  0  0  0  0  0
   15.0660    3.6630    9.4020 C   0  0  0  0  0  0  0  0  0  0  0  0
   14.4770    3.0270   10.5080 C   0  0  0  0  0  0  0  0  0  0  0  0
   15.2610    2.4510   11.4960 C   0  0  0  0  0  0  0  0  0  0  0  0
   14.6660    1.8040   12.5430 N   0  0  0  0  0  0  0  0  0  0  0  0
   14.9310    2.2340   13.8900 C   0  0  0  0  0  0  0  0  0  0  0  0
   13.7980    0.7680   12.3240 C   0  0  0  0  0  0  0  0  0  0  0  0
   12.7020    0.5820   13.1690 C   0  0  0  0  0  0  0  0  0  0  0  0
   11.8450   -0.5040   12.9410 C   0  0  0  0  0  0  0  0  0  0  0  0
   10.7230   -0.7230   13.7920 C   0  0  0  0  0  0  0  0  0  0  0  0
   10.4170    0.1130   14.8590 N   0  0  0  0  0  0  0  0  0  0  0  0
    9.9470   -1.7820   13.4110 N   0  0  0  0  0  0  0  0  0  0  0  0
   10.1970   -2.5640   12.2950 C   0  0  0  0  0  0  0  0  0  0  0  0
    9.4450   -3.6510   11.9580 N   0  0  0  0  0  0  0  0  0  0  0  0
   11.2850   -2.3920   11.5470 N   0  0  0  0  0  0  0  0  0  0  0  0
   12.0760   -1.3420   11.8200 C   0  0  0  0  0  0  0  0  0  0  0  0
   13.1340   -1.1730   10.9990 N   0  0  0  0  0  0  0  0  0  0  0  0
   13.9680   -0.1370   11.2290 C   0  0  0  0  0  0  0  0  0  0  0  0
   16.9119    4.2825    8.4333 H   0  0  0  0  0  0  0  0  0  0  0  0
   18.3571    3.1470   10.1470 H   0  0  0  0  0  0  0  0  0  0  0  0
   17.3035    2.0515   12.1247 H   0  0  0  0  0  0  0  0  0  0  0  0
   14.4250    4.1013    8.6229 H   0  0  0  0  0  0  0  0  0  0  0  0
   13.3809    2.9856   10.5910 H   0  0  0  0  0  0  0  0  0  0  0  0
   14.4891    1.5169   14.5974 H   0  0  0  0  0  0  0  0  0  0  0  0
   16.0179    2.2857   14.0513 H   0  0  0  0  0  0  0  0  0  0  0  0
   14.4887    3.2282   14.0513 H   0  0  0  0  0  0  0  0  0  0  0  0
   12.5139    1.2768   14.0008 H   0  0  0  0  0  0  0  0  0  0  0  0
   10.5390   -0.2204   15.8259 H   0  0  0  0  0  0  0  0  0  0  0  0
   10.0682    1.0660   14.6830 H   0  0  0  0  0  0  0  0  0  0  0  0
    9.0357   -4.2426   12.6951 H   0  0  0  0  0  0  0  0  0  0  0  0
    9.2865   -3.8802   10.9664 H   0  0  0  0  0  0  0  0  0  0  0  0
   14.8152    0.0183   10.5448 H   0  0  0  0  0  0  0  0  0  0  0  0
  1  4  2  0
  1  2  1  0
  4  5  1  0
  2  3  2  0
  5  6  2  0
 19 20  2  0
 19 18  1  0
 20  9  1  0
  3  6  1  0
  6  7  1  0
 17 18  1  0
 17 15  2  0
 18 11  2  0
 16 15  1  0
 15 14  1  0
  9  7  1  0
  9 10  2  0
  7  8  1  0
 11 10  1  0
 11 12  1  0
 14 12  2  0
 12 13  1  0
  1 21  1  0
  2 22  1  0
  3 23  1  0
  4 24  1  0
  5 25  1  0
  8 26  1  0
  8 27  1  0
  8 28  1  0
 10 29  1  0
 13 30  1  0
 13 31  1  0
 16 32  1  0
 16 33  1  0
 20 34  1  0
A    1
CAQ
A    2
CAG
A    3
CAI
A    4
CAF
A    5
CAH
A    6
CAR
A    7
NAW
A    8
CAC
A    9
CAS
A   10
CAK
A   11
C5
A   12
C6
A   13
NAE
A   14
N1
A   15
C2
A   16
NAD
A   17
N3
A   18
C4
A   19
NAL
A   20
CAJ
M  END
