4IXH_Q21_A_504
     RDKit          3D

 50 54  0  0  0  0  0  0  0  0999 V2000
   18.0730  -24.8320   12.7250 O   0  0  0  0  0  0  0  0  0  0  0  0
   18.1760  -24.2280   11.6700 C   0  0  0  0  0  0  0  0  0  0  0  0
   17.0990  -24.3990   10.6380 C   0  0  0  0  0  0  0  0  0  0  0  0
   15.9150  -23.5140   11.0030 C   0  0  0  0  0  0  0  0  0  0  0  0
   16.6620  -25.7590   10.6190 O   0  0  0  0  0  0  0  0  0  0  0  0
   17.4130  -26.7340   10.0130 C   0  0  0  0  0  0  0  0  0  0  0  0
   18.4890  -26.4050    9.1940 C   0  0  0  0  0  0  0  0  0  0  0  0
   19.2460  -27.4080    8.6000 C   0  0  0  0  0  0  0  0  0  0  0  0
   18.9290  -28.7450    8.8290 C   0  0  0  0  0  0  0  0  0  0  0  0
   17.0960  -28.0650   10.2350 C   0  0  0  0  0  0  0  0  0  0  0  0
   16.0190  -28.3840   11.0550 C   0  0  0  0  0  0  0  0  0  0  0  0
   15.7030  -29.7210   11.2750 C   0  0  0  0  0  0  0  0  0  0  0  0
   16.4540  -30.7290   10.6790 C   0  0  0  0  0  0  0  0  0  0  0  0
   17.5320  -30.4110    9.8640 C   0  0  0  0  0  0  0  0  0  0  0  0
   17.8500  -29.0750    9.6410 C   0  0  0  0  0  0  0  0  0  0  0  0
   19.1830  -23.4060   11.3350 N   0  0  0  0  0  0  0  0  0  0  0  0
   20.2720  -23.0920   12.0910 C   0  0  0  0  0  0  0  0  0  0  0  0
   21.2360  -22.2830   11.4940 C   0  0  0  0  0  0  0  0  0  0  0  0
   22.3910  -21.8980   12.1720 C   0  0  0  0  0  0  0  0  0  0  0  0
   22.5560  -22.3460   13.4720 C   0  0  0  0  0  0  0  0  0  0  0  0
   21.6210  -23.1510   14.0870 C   0  0  0  0  0  0  0  0  0  0  0  0
   20.4670  -23.5350   13.4110 C   0  0  0  0  0  0  0  0  0  0  0  0
   23.5750  -22.0880   14.2650 O   0  0  0  0  0  0  0  0  0  0  0  0
   23.3390  -22.7260   15.4590 C   0  0  0  0  0  0  0  0  0  0  0  0
   22.1380  -23.3700   15.3260 N   0  0  0  0  0  0  0  0  0  0  0  0
   24.1450  -22.7290   16.5950 C   0  0  0  0  0  0  0  0  0  0  0  0
   23.7420  -23.4440   17.7250 C   0  0  0  0  0  0  0  0  0  0  0  0
   24.5510  -23.4460   18.8580 C   0  0  0  0  0  0  0  0  0  0  0  0
   25.7060  -22.7670   18.8640 N   0  0  0  0  0  0  0  0  0  0  0  0
   26.1140  -22.0740   17.7860 C   0  0  0  0  0  0  0  0  0  0  0  0
   25.3520  -22.0360   16.6210 C   0  0  0  0  0  0  0  0  0  0  0  0
   17.4949  -24.1213    9.6500 H   0  0  0  0  0  0  0  0  0  0  0  0
   15.8290  -23.4497   12.0977 H   0  0  0  0  0  0  0  0  0  0  0  0
   16.0680  -22.5071   10.5875 H   0  0  0  0  0  0  0  0  0  0  0  0
   14.9926  -23.9458   10.5875 H   0  0  0  0  0  0  0  0  0  0  0  0
   18.7409  -25.3491    9.0164 H   0  0  0  0  0  0  0  0  0  0  0  0
   20.0941  -27.1464    7.9501 H   0  0  0  0  0  0  0  0  0  0  0  0
   19.5328  -29.5400    8.3671 H   0  0  0  0  0  0  0  0  0  0  0  0
   15.4232  -27.5876   11.5248 H   0  0  0  0  0  0  0  0  0  0  0  0
   14.8543  -29.9826   11.9241 H   0  0  0  0  0  0  0  0  0  0  0  0
   16.1925  -31.7830   10.8543 H   0  0  0  0  0  0  0  0  0  0  0  0
   18.1297  -31.2086    9.3985 H   0  0  0  0  0  0  0  0  0  0  0  0
   19.1262  -22.9650   10.4059 H   0  0  0  0  0  0  0  0  0  0  0  0
   21.0816  -21.9391   10.4606 H   0  0  0  0  0  0  0  0  0  0  0  0
   23.1465  -21.2596   11.6907 H   0  0  0  0  0  0  0  0  0  0  0  0
   19.7190  -24.1751   13.9017 H   0  0  0  0  0  0  0  0  0  0  0  0
   22.7934  -24.0009   17.7198 H   0  0  0  0  0  0  0  0  0  0  0  0
   24.2407  -24.0072   19.7517 H   0  0  0  0  0  0  0  0  0  0  0  0
   27.0675  -21.5269   17.8253 H   0  0  0  0  0  0  0  0  0  0  0  0
   25.6959  -21.4715   15.7418 H   0  0  0  0  0  0  0  0  0  0  0  0
  4  3  1  0
 19 18  2  0
 19 20  1  0
 18 17  1  0
 20 23  1  0
 20 21  2  0
 23 24  1  0
 16 17  1  0
 16  2  1  0
 17 22  2  0
  3  2  1  0
  3  5  1  0
 31 30  2  0
 31 26  1  0
 21 22  1  0
 21 25  1  0
  2  1  2  0
 24 26  1  0
 24 25  2  0
 30 29  1  0
 26 27  2  0
 29 28  2  0
 27 28  1  0
  5  6  1  0
  7  6  2  0
  7  8  1  0
  6 10  1  0
  8  9  2  0
 10 11  2  0
 10 15  1  0
 11 12  1  0
  9 15  1  0
 15 14  2  0
 12 13  2  0
 14 13  1  0
  3 32  1  0
  4 33  1  0
  4 34  1  0
  4 35  1  0
  7 36  1  0
  8 37  1  0
  9 38  1  0
 11 39  1  0
 12 40  1  0
 13 41  1  0
 14 42  1  0
 16 43  1  0
 18 44  1  0
 19 45  1  0
 22 46  1  0
 27 47  1  0
 28 48  1  0
 30 49  1  0
 31 50  1  0
A    1
O2
A    2
C13
A    3
C14
A    4
C15
A    5
O3
A    6
C16
A    7
C17
A    8
C18
A    9
C19
A   10
C21
A   11
C46
A   12
C45
A   13
C44
A   14
C43
A   15
C20
A   16
N3
A   17
C10
A   18
C11
A   19
C12
A   20
C7
A   21
C8
A   22
C9
A   23
O1
A   24
C1
A   25
N1
A   26
C2
A   27
C3
A   28
C4
A   29
N2
A   30
C5
A   31
C6
M  END
