4J0P_1H8_A_504
     RDKit          3D

 42 44  0  0  0  0  0  0  0  0999 V2000
  -21.0880  -43.2250   -1.5400 C   0  0  0  0  0  0  0  0  0  0  0  0
  -20.1660  -42.2490   -1.9490 C   0  0  0  0  0  0  0  0  0  0  0  0
  -20.4010  -41.6840   -3.1290 N   0  0  0  0  0  0  0  0  0  0  0  0
  -21.4520  -41.9270   -3.8810 C   0  0  0  0  0  0  0  0  0  0  0  0
  -22.3970  -42.8990   -3.5370 C   0  0  0  0  0  0  0  0  0  0  0  0
  -22.2380  -43.5490   -2.3270 C   0  0  0  0  0  0  0  0  0  0  0  0
  -20.8760  -43.8770   -0.2680 C   0  0  0  0  0  0  0  0  0  0  0  0
  -18.9420  -39.7490   -7.3190 C   0  0  0  0  0  0  0  0  0  0  0  0
  -20.9720  -39.2920   -9.1390 C   0  0  0  0  0  0  0  0  0  0  0  0
  -20.2840  -40.0140   -6.9610 C   0  0  0  0  0  0  0  0  0  0  0  0
  -21.3220  -39.7760   -7.8810 C   0  0  0  0  0  0  0  0  0  0  0  0
  -17.0680  -38.9370   -8.8440 C   0  0  0  0  0  0  0  0  0  0  0  0
  -16.5760  -41.3110   -9.3870 C   0  0  0  0  0  0  0  0  0  0  0  0
  -15.6210  -40.2180   -7.4150 C   0  0  0  0  0  0  0  0  0  0  0  0
  -21.5670  -41.2520   -5.1850 C   0  0  0  0  0  0  0  0  0  0  0  0
  -22.6380  -41.2830   -5.7460 O   0  0  0  0  0  0  0  0  0  0  0  0
  -20.4590  -40.6490   -5.7090 N   0  0  0  0  0  0  0  0  0  0  0  0
  -20.7260  -44.4000    0.7370 N   0  0  0  0  0  0  0  0  0  0  0  0
  -18.5640  -39.2220   -8.5320 C   0  0  0  0  0  0  0  0  0  0  0  0
  -19.6180  -38.9720   -9.4490 C   0  0  0  0  0  0  0  0  0  0  0  0
  -19.3290  -38.4540  -10.6720 F   0  0  0  0  0  0  0  0  0  0  0  0
  -16.8440  -37.5170   -9.3240 C   0  0  0  0  0  0  0  0  0  0  0  0
  -16.2710  -39.1060   -7.6240 N   0  0  0  0  0  0  0  0  0  0  0  0
  -16.5200  -39.9010   -9.9380 C   0  0  0  0  0  0  0  0  0  0  0  0
  -15.6280  -41.2570   -8.2860 O   0  0  0  0  0  0  0  0  0  0  0  0
  -14.9290  -40.3560   -6.2510 N   0  0  0  0  0  0  0  0  0  0  0  0
  -19.3009  -41.9685   -1.3302 H   0  0  0  0  0  0  0  0  0  0  0  0
  -23.2372  -43.1380   -4.2056 H   0  0  0  0  0  0  0  0  0  0  0  0
  -22.9721  -44.2914   -1.9806 H   0  0  0  0  0  0  0  0  0  0  0  0
  -18.1550  -39.9774   -6.5852 H   0  0  0  0  0  0  0  0  0  0  0  0
  -21.7508  -39.1548   -9.9036 H   0  0  0  0  0  0  0  0  0  0  0  0
  -22.3726  -39.9656   -7.6158 H   0  0  0  0  0  0  0  0  0  0  0  0
  -17.5865  -41.5582   -9.0296 H   0  0  0  0  0  0  0  0  0  0  0  0
  -16.3374  -42.0830  -10.1333 H   0  0  0  0  0  0  0  0  0  0  0  0
  -19.6269  -40.6580   -5.1021 H   0  0  0  0  0  0  0  0  0  0  0  0
  -16.7386  -36.8490   -8.4564 H   0  0  0  0  0  0  0  0  0  0  0  0
  -15.9282  -37.4756   -9.9320 H   0  0  0  0  0  0  0  0  0  0  0  0
  -17.7026  -37.1957   -9.9320 H   0  0  0  0  0  0  0  0  0  0  0  0
  -15.4807  -39.6364  -10.1826 H   0  0  0  0  0  0  0  0  0  0  0  0
  -17.1238  -39.8235  -10.8542 H   0  0  0  0  0  0  0  0  0  0  0  0
  -15.4152  -40.2590   -5.3482 H   0  0  0  0  0  0  0  0  0  0  0  0
  -13.9191  -40.5574   -6.2730 H   0  0  0  0  0  0  0  0  0  0  0  0
 21 20  1  0
 24 13  1  0
 24 12  1  0
 20  9  2  0
 20 19  1  0
 13 25  1  0
 22 12  1  0
  9 11  1  0
 12 19  1  0
 12 23  1  0
 19  8  2  0
 25 14  1  0
 11 10  2  0
 23 14  2  0
 14 26  1  0
  8 10  1  0
 10 17  1  0
 16 15  2  0
 17 15  1  0
 15  4  1  0
  4  5  2  0
  4  3  1  0
  5  6  1  0
  3  2  2  0
  6  1  2  0
  2  1  1  0
  1  7  1  0
  7 18  3  0
  2 27  1  0
  5 28  1  0
  6 29  1  0
  8 30  1  0
  9 31  1  0
 11 32  1  0
 13 33  1  0
 13 34  1  0
 17 35  1  0
 22 36  1  0
 22 37  1  0
 22 38  1  0
 24 39  1  0
 24 40  1  0
 26 41  1  0
 26 42  1  0
A    1
C1
A    2
C2
A    3
N3
A    4
C4
A    5
C5
A    6
C6
A    7
C10
A    8
C14
A    9
C15
A   10
C16
A   11
C17
A   12
C19
A   13
C23
A   14
C25
A   15
C7
A   16
O8
A   17
N9
A   18
N11
A   19
C12
A   20
C13
A   21
F18
A   22
C20
A   23
N21
A   24
C22
A   25
O24
A   26
N26
M  END
