4J3D_1JS_A_303
     RDKit          3D

 56 57  0  0  0  0  0  0  0  0999 V2000
   -3.0780   11.4870   27.5640 C   0  0  0  0  0  0  0  0  0  0  0  0
   -1.9020   12.1340   27.9460 C   0  0  0  0  0  0  0  0  0  0  0  0
   -0.8270   12.2690   27.0760 C   0  0  0  0  0  0  0  0  0  0  0  0
    0.1540   11.8100   24.8150 C   0  0  0  0  0  0  0  0  0  0  0  0
    1.0130   11.8590   24.0150 C   0  0  0  0  0  0  0  0  0  0  0  0
    2.0560   11.9040   23.0210 C   0  0  0  0  0  0  0  0  0  0  0  0
    3.3930   12.1530   23.3760 C   0  0  0  0  0  0  0  0  0  0  0  0
    4.3930   12.1780   22.4330 C   0  0  0  0  0  0  0  0  0  0  0  0
    4.0750   11.9510   21.0770 C   0  0  0  0  0  0  0  0  0  0  0  0
    2.7420   11.6840   20.7320 C   0  0  0  0  0  0  0  0  0  0  0  0
    1.7500   11.6570   21.6820 C   0  0  0  0  0  0  0  0  0  0  0  0
    5.1270   11.9790   20.0320 C   0  0  0  0  0  0  0  0  0  0  0  0
    5.8460   10.5390   16.8170 C   0  0  0  0  0  0  0  0  0  0  0  0
    5.3650    9.3230   17.6110 C   0  0  0  0  0  0  0  0  0  0  0  0
    6.5500    8.4550   17.9830 C   0  0  0  0  0  0  0  0  0  0  0  0
    5.7550    8.2660   22.7740 C   0  0  0  0  0  0  0  0  0  0  0  0
    5.7170    6.8290   22.7470 O   0  0  0  0  0  0  0  0  0  0  0  0
   -0.9260   11.7340   25.7660 C   0  0  0  0  0  0  0  0  0  0  0  0
   -2.1000   11.0600   25.3870 C   0  0  0  0  0  0  0  0  0  0  0  0
   -3.1650   10.9500   26.2790 C   0  0  0  0  0  0  0  0  0  0  0  0
    6.2860   12.1440   20.4030 O   0  0  0  0  0  0  0  0  0  0  0  0
    4.8180   11.8110   18.7050 N   0  0  0  0  0  0  0  0  0  0  0  0
    5.8330   11.8320   17.6150 C   0  0  0  0  0  0  0  0  0  0  0  0
    7.4440    8.2910   17.1800 O   0  0  0  0  0  0  0  0  0  0  0  0
    6.6530    7.8160   19.1760 N   0  0  0  0  0  0  0  0  0  0  0  0
    5.6660    7.9190   20.2610 C   0  0  0  0  0  0  0  0  0  0  0  0
    6.2290    8.7780   21.4110 C   0  0  0  0  0  0  0  0  0  0  0  0
    5.5620   12.8980   16.5880 C   0  0  0  0  0  0  0  0  0  0  0  0
    4.4210   13.1540   16.2050 O   0  0  0  0  0  0  0  0  0  0  0  0
    6.6160   13.5680   16.0610 N   0  0  0  0  0  0  0  0  0  0  0  0
    6.4020   14.5690   15.0980 O   0  0  0  0  0  0  0  0  0  0  0  0
   -3.9222   11.4018   28.2641 H   0  0  0  0  0  0  0  0  0  0  0  0
   -1.8240   12.5478   28.9622 H   0  0  0  0  0  0  0  0  0  0  0  0
    0.0895   12.7844   27.3992 H   0  0  0  0  0  0  0  0  0  0  0  0
    3.6448   12.3318   24.4318 H   0  0  0  0  0  0  0  0  0  0  0  0
    5.4331   12.3734   22.7331 H   0  0  0  0  0  0  0  0  0  0  0  0
    2.4857   11.4924   19.6796 H   0  0  0  0  0  0  0  0  0  0  0  0
    0.7128   11.4403   21.3867 H   0  0  0  0  0  0  0  0  0  0  0  0
    6.8757   10.3489   16.4801 H   0  0  0  0  0  0  0  0  0  0  0  0
    5.1481   10.6718   15.9772 H   0  0  0  0  0  0  0  0  0  0  0  0
    4.8578    9.6614   18.5266 H   0  0  0  0  0  0  0  0  0  0  0  0
    4.6649    8.7394   16.9952 H   0  0  0  0  0  0  0  0  0  0  0  0
    6.4513    8.6018   23.5566 H   0  0  0  0  0  0  0  0  0  0  0  0
    4.7511    8.6602   22.9904 H   0  0  0  0  0  0  0  0  0  0  0  0
    5.7078    6.4817   23.6740 H   0  0  0  0  0  0  0  0  0  0  0  0
   -2.1783   10.6179   24.3828 H   0  0  0  0  0  0  0  0  0  0  0  0
   -4.0848   10.4339   25.9665 H   0  0  0  0  0  0  0  0  0  0  0  0
    3.8313   11.6625   18.4494 H   0  0  0  0  0  0  0  0  0  0  0  0
    6.7815   12.0062   18.1442 H   0  0  0  0  0  0  0  0  0  0  0  0
    7.4778    7.2190   19.3317 H   0  0  0  0  0  0  0  0  0  0  0  0
    4.7479    8.3856   19.8744 H   0  0  0  0  0  0  0  0  0  0  0  0
    5.4428    6.9111   20.6410 H   0  0  0  0  0  0  0  0  0  0  0  0
    7.3280    8.7440   21.3783 H   0  0  0  0  0  0  0  0  0  0  0  0
    5.8665    9.8086   21.2830 H   0  0  0  0  0  0  0  0  0  0  0  0
    7.5737   13.3435   16.3663 H   0  0  0  0  0  0  0  0  0  0  0  0
    6.2180   15.4295   15.5517 H   0  0  0  0  0  0  0  0  0  0  0  0
 31 30  1  0
 30 28  1  0
 29 28  2  0
 28 23  1  0
 13 14  1  0
 13 23  1  0
 24 15  2  0
 14 15  1  0
 23 22  1  0
 15 25  1  0
 22 12  1  0
 25 26  1  0
 12 21  2  0
 12  9  1  0
 26 27  1  0
 10  9  2  0
 10 11  1  0
  9  8  1  0
 27 16  1  0
 11  6  2  0
  8  7  2  0
 17 16  1  0
  6  7  1  0
  6  5  1  0
  5  4  3  0
  4 18  1  0
 19 18  2  0
 19 20  1  0
 18  3  1  0
 20  1  2  0
  3  2  2  0
  1  2  1  0
  1 32  1  0
  2 33  1  0
  3 34  1  0
  7 35  1  0
  8 36  1  0
 10 37  1  0
 11 38  1  0
 13 39  1  0
 13 40  1  0
 14 41  1  0
 14 42  1  0
 16 43  1  0
 16 44  1  0
 17 45  1  0
 19 46  1  0
 20 47  1  0
 22 48  1  0
 23 49  1  0
 25 50  1  0
 26 51  1  0
 26 52  1  0
 27 53  1  0
 27 54  1  0
 30 55  1  0
 31 56  1  0
A    1
C1
A    2
C2
A    3
C3
A    4
C7
A    5
C8
A    6
C9
A    7
C10
A    8
C11
A    9
C12
A   10
C13
A   11
C14
A   12
C15
A   13
C20
A   14
C21
A   15
C22
A   16
C27
A   17
O28
A   18
C4
A   19
C5
A   20
C6
A   21
O16
A   22
N17
A   23
C18
A   24
O23
A   25
N24
A   26
C25
A   27
C26
A   28
C29
A   29
O30
A   30
N31
A   31
O32
M  END
