4J3J_D3C_A_801
     RDKit          3D

 50 52  0  0  0  0  0  0  0  0999 V2000
    8.7670   16.1120  -29.0690 F   0  0  0  0  0  0  0  0  0  0  0  0
    9.0950   17.3780  -29.3020 C   0  0  0  0  0  0  0  0  0  0  0  0
   10.3840   17.5610  -29.0270 F   0  0  0  0  0  0  0  0  0  0  0  0
    8.8720   17.6550  -30.5860 F   0  0  0  0  0  0  0  0  0  0  0  0
    8.2460   18.2960  -28.4090 C   0  0  0  0  0  0  0  0  0  0  0  0
    7.5140   19.3190  -28.8490 C   0  0  0  0  0  0  0  0  0  0  0  0
    6.9090   19.8940  -27.8070 C   0  0  0  0  0  0  0  0  0  0  0  0
    7.2530   19.2420  -26.6990 C   0  0  0  0  0  0  0  0  0  0  0  0
    6.8210   19.5180  -25.2690 C   0  0  0  0  0  0  0  0  0  0  0  0
    8.1200   18.1900  -27.0230 N   0  0  0  0  0  0  0  0  0  0  0  0
    8.7010   17.2470  -26.0100 C   0  0  0  0  0  0  0  0  0  0  0  0
    8.2720   17.5530  -24.5580 C   0  0  0  0  0  0  0  0  0  0  0  0
    6.9550   18.2400  -24.5360 N   0  0  0  0  0  0  0  0  0  0  0  0
    5.8920   17.7260  -23.9070 C   0  0  0  0  0  0  0  0  0  0  0  0
    4.8380   18.3640  -23.9590 O   0  0  0  0  0  0  0  0  0  0  0  0
    6.0060   16.5750  -23.2400 N   0  0  0  0  0  0  0  0  0  0  0  0
    4.8770   15.9420  -22.5320 C   0  0  0  0  0  0  0  0  0  0  0  0
    4.3580   16.8230  -21.3850 C   0  0  0  0  0  0  0  0  0  0  0  0
    3.3190   16.0820  -20.5390 C   0  0  0  0  0  0  0  0  0  0  0  0
    2.5240   17.0470  -19.7650 N   0  0  0  0  0  0  0  0  0  0  0  0
    4.0490   15.1240  -19.5880 C   0  0  0  0  0  0  0  0  0  0  0  0
    3.0900   14.3310  -18.7010 C   0  0  0  0  0  0  0  0  0  0  0  0
    2.3200   13.3310  -19.2990 C   0  0  0  0  0  0  0  0  0  0  0  0
    1.4310   12.5760  -18.5380 C   0  0  0  0  0  0  0  0  0  0  0  0
    0.6880   11.6150  -19.1200 F   0  0  0  0  0  0  0  0  0  0  0  0
    1.3090   12.8140  -17.1740 C   0  0  0  0  0  0  0  0  0  0  0  0
    0.4520   12.0810  -16.4470 F   0  0  0  0  0  0  0  0  0  0  0  0
    2.0750   13.8060  -16.5670 C   0  0  0  0  0  0  0  0  0  0  0  0
    2.9630   14.5590  -17.3320 C   0  0  0  0  0  0  0  0  0  0  0  0
    3.7020   15.5210  -16.7450 F   0  0  0  0  0  0  0  0  0  0  0  0
    7.4232   19.6373  -29.8980 H   0  0  0  0  0  0  0  0  0  0  0  0
    6.2369   20.7634  -27.8562 H   0  0  0  0  0  0  0  0  0  0  0  0
    7.4680   20.2846  -24.8177 H   0  0  0  0  0  0  0  0  0  0  0  0
    5.7873   19.8922  -25.2308 H   0  0  0  0  0  0  0  0  0  0  0  0
    8.3766   16.2261  -26.2600 H   0  0  0  0  0  0  0  0  0  0  0  0
    9.7940   17.3629  -26.0531 H   0  0  0  0  0  0  0  0  0  0  0  0
    8.1973   16.6099  -23.9967 H   0  0  0  0  0  0  0  0  0  0  0  0
    9.0233   18.2113  -24.0974 H   0  0  0  0  0  0  0  0  0  0  0  0
    6.9237   16.1078  -23.2188 H   0  0  0  0  0  0  0  0  0  0  0  0
    4.0592   15.7702  -23.2473 H   0  0  0  0  0  0  0  0  0  0  0  0
    5.2311   14.9935  -22.1019 H   0  0  0  0  0  0  0  0  0  0  0  0
    5.2038   17.1099  -20.7430 H   0  0  0  0  0  0  0  0  0  0  0  0
    3.8797   17.7128  -21.8204 H   0  0  0  0  0  0  0  0  0  0  0  0
    2.6423   15.5130  -21.1935 H   0  0  0  0  0  0  0  0  0  0  0  0
    2.6634   16.8778  -18.7586 H   0  0  0  0  0  0  0  0  0  0  0  0
    2.8250   18.0043  -19.9971 H   0  0  0  0  0  0  0  0  0  0  0  0
    4.6411   14.4165  -20.1870 H   0  0  0  0  0  0  0  0  0  0  0  0
    4.6868   15.7312  -18.9289 H   0  0  0  0  0  0  0  0  0  0  0  0
    2.4163   13.1385  -20.3777 H   0  0  0  0  0  0  0  0  0  0  0  0
    1.9793   13.9943  -15.4875 H   0  0  0  0  0  0  0  0  0  0  0  0
  4  2  1  0
  2  1  1  0
  2  3  1  0
  2  5  1  0
  6  5  2  0
  6  7  1  0
  5 10  1  0
  7  8  2  0
 10  8  1  0
 10 11  1  0
  8  9  1  0
 11 12  1  0
  9 13  1  0
 12 13  1  0
 13 14  1  0
 15 14  2  0
 14 16  1  0
 16 17  1  0
 17 18  1  0
 18 19  1  0
 19 20  1  0
 19 21  1  0
 21 22  1  0
 23 22  2  0
 23 24  1  0
 25 24  1  0
 22 29  1  0
 24 26  2  0
 29 30  1  0
 29 28  2  0
 26 28  1  0
 26 27  1  0
  6 31  1  0
  7 32  1  0
  9 33  1  0
  9 34  1  0
 11 35  1  0
 11 36  1  0
 12 37  1  0
 12 38  1  0
 16 39  1  0
 17 40  1  0
 17 41  1  0
 18 42  1  0
 18 43  1  0
 19 44  1  0
 20 45  1  0
 20 46  1  0
 21 47  1  0
 21 48  1  0
 23 49  1  0
 28 50  1  0
A    1
FBB
A    2
CBA
A    3
FBC
A    4
FBD
A    5
CAX
A    6
CAY
A    7
CAZ
A    8
CAV
A    9
CAU
A   10
NAW
A   11
CAT
A   12
CAS
A   13
NAQ
A   14
CAP
A   15
OAR
A   16
NAO
A   17
CAN
A   18
CAL
A   19
CAK
A   20
NAM
A   21
CAJ
A   22
CAD
A   23
CAC
A   24
CAB
A   25
FAI
A   26
CAA
A   27
FAH
A   28
CAF
A   29
CAE
A   30
FAG
M  END
