4J3M_AJ8_A_1204
     RDKit          3D

 34 36  0  0  0  0  0  0  0  0999 V2000
    8.3370   11.3810  -13.7720 C   0  0  0  0  0  0  0  0  0  0  0  0
    7.7520   11.6690  -11.4630 C   0  0  0  0  0  0  0  0  0  0  0  0
    7.1360   11.8770   -9.1460 C   0  0  0  0  0  0  0  0  0  0  0  0
    6.2640   11.0870   -5.5660 C   0  0  0  0  0  0  0  0  0  0  0  0
    7.6690   10.9900   -3.5060 C   0  0  0  0  0  0  0  0  0  0  0  0
    6.1990   12.9030   -9.4620 C   0  0  0  0  0  0  0  0  0  0  0  0
    6.0680   13.3030  -10.7520 C   0  0  0  0  0  0  0  0  0  0  0  0
    5.7610   14.1850  -13.5610 C   0  0  0  0  0  0  0  0  0  0  0  0
    6.7040   13.0560  -13.2230 C   0  0  0  0  0  0  0  0  0  0  0  0
    7.4010   12.4590  -14.2240 C   0  0  0  0  0  0  0  0  0  0  0  0
    9.0630   10.7660  -14.5930 O   0  0  0  0  0  0  0  0  0  0  0  0
    8.4790   11.0480  -12.4930 N   0  0  0  0  0  0  0  0  0  0  0  0
    7.8960   11.2730  -10.1330 C   0  0  0  0  0  0  0  0  0  0  0  0
    7.2760   11.5740   -7.6890 C   0  0  0  0  0  0  0  0  0  0  0  0
    6.1280   11.2850   -6.9210 C   0  0  0  0  0  0  0  0  0  0  0  0
    7.5280   11.1800   -4.9680 C   0  0  0  0  0  0  0  0  0  0  0  0
    8.5130   11.3030   -2.7860 O   0  0  0  0  0  0  0  0  0  0  0  0
    6.8330   10.4540   -2.7590 O   0  0  0  0  0  0  0  0  0  0  0  0
    8.6780   11.4470   -5.6740 C   0  0  0  0  0  0  0  0  0  0  0  0
    8.5230   11.6790   -7.0340 C   0  0  0  0  0  0  0  0  0  0  0  0
   10.0000   11.9630   -7.8220 Cl  0  0  0  0  0  0  0  0  0  0  0  0
    6.8400   12.7090  -11.7960 C   0  0  0  0  0  0  0  0  0  0  0  0
    5.3808   10.8558   -4.9524 H   0  0  0  0  0  0  0  0  0  0  0  0
    5.5900   13.3646   -8.6708 H   0  0  0  0  0  0  0  0  0  0  0  0
    5.3524   14.1012  -10.9985 H   0  0  0  0  0  0  0  0  0  0  0  0
    5.3830   14.6375  -12.6324 H   0  0  0  0  0  0  0  0  0  0  0  0
    6.2957   14.9459  -14.1485 H   0  0  0  0  0  0  0  0  0  0  0  0
    4.9170   13.7944  -14.1485 H   0  0  0  0  0  0  0  0  0  0  0  0
    7.2873   12.7440  -15.2804 H   0  0  0  0  0  0  0  0  0  0  0  0
    9.1487   10.3051  -12.2470 H   0  0  0  0  0  0  0  0  0  0  0  0
    8.6128   10.4815   -9.8688 H   0  0  0  0  0  0  0  0  0  0  0  0
    5.1392   11.2190   -7.3983 H   0  0  0  0  0  0  0  0  0  0  0  0
    8.3733   11.2512   -1.8073 H   0  0  0  0  0  0  0  0  0  0  0  0
    9.6646   11.4751   -5.1885 H   0  0  0  0  0  0  0  0  0  0  0  0
 18  5  2  0
 17  5  1  0
  5 16  1  0
 16  4  2  0
 16 19  1  0
  4 15  1  0
 19 20  2  0
 20 14  1  0
 20 21  1  0
 15 14  2  0
 14  3  1  0
  3  6  2  0
  3 13  1  0
  6  7  1  0
 13  2  2  0
  7 22  2  0
  2 22  1  0
  2 12  1  0
 22  9  1  0
 12  1  1  0
  9  8  1  0
  9 10  2  0
  1 10  1  0
  1 11  2  0
  4 23  1  0
  6 24  1  0
  7 25  1  0
  8 26  1  0
  8 27  1  0
  8 28  1  0
 10 29  1  0
 12 30  1  0
 13 31  1  0
 15 32  1  0
 17 33  1  0
 19 34  1  0
A    1
C4
A    2
C8
A    3
C10
A    4
C13
A    5
C15
A    6
C21
A    7
C22
A    8
C1
A    9
C2
A   10
C3
A   11
O5
A   12
N6
A   13
C9
A   14
C11
A   15
C12
A   16
C14
A   17
O16
A   18
O17
A   19
C18
A   20
C19
A   21
CL
A   22
C23
M  END
