4J51_N75_A_401
     RDKit          3D

 56 60  0  0  0  0  0  0  0  0999 V2000
   31.6580   -5.3800   35.1020 C   0  0  0  0  0  0  0  0  0  0  0  0
   31.5460   -4.0430   35.4700 C   0  0  0  0  0  0  0  0  0  0  0  0
   32.5200   -3.4850   36.3140 C   0  0  0  0  0  0  0  0  0  0  0  0
   33.5780   -4.2730   36.7580 C   0  0  0  0  0  0  0  0  0  0  0  0
   33.6590   -5.6040   36.3720 C   0  0  0  0  0  0  0  0  0  0  0  0
   32.7130   -6.1530   35.5510 C   0  0  0  0  0  0  0  0  0  0  0  0
   34.5290   -6.6310   36.6040 C   0  0  0  0  0  0  0  0  0  0  0  0
   34.0040   -7.7000   35.9020 C   0  0  0  0  0  0  0  0  0  0  0  0
   32.9560   -7.3480   35.3190 O   0  0  0  0  0  0  0  0  0  0  0  0
   34.4720   -8.9890   35.7850 C   0  0  0  0  0  0  0  0  0  0  0  0
   34.1400   -9.9460   36.7400 C   0  0  0  0  0  0  0  0  0  0  0  0
   34.5900  -11.2450   36.6660 C   0  0  0  0  0  0  0  0  0  0  0  0
   35.4060  -11.6880   35.6350 C   0  0  0  0  0  0  0  0  0  0  0  0
   35.7390  -10.7310   34.6750 C   0  0  0  0  0  0  0  0  0  0  0  0
   35.2870   -9.4290   34.7500 C   0  0  0  0  0  0  0  0  0  0  0  0
   35.8230  -13.0140   35.6350 O   0  0  0  0  0  0  0  0  0  0  0  0
   35.1570  -13.9710   34.8240 C   0  0  0  0  0  0  0  0  0  0  0  0
   34.3140  -14.9250   35.6640 C   0  0  0  0  0  0  0  0  0  0  0  0
   35.0560  -15.9260   36.2700 N   0  0  0  0  0  0  0  0  0  0  0  0
   33.1120  -14.8080   35.7900 O   0  0  0  0  0  0  0  0  0  0  0  0
   34.4780  -16.9440   37.1360 C   0  0  0  0  0  0  0  0  0  0  0  0
   35.3920  -18.1470   37.0300 C   0  0  0  0  0  0  0  0  0  0  0  0
   35.0810  -17.4760   38.3670 C   0  0  0  0  0  0  0  0  0  0  0  0
   35.6220   -6.5110   37.3690 C   0  0  0  0  0  0  0  0  0  0  0  0
   36.6620   -6.4150   38.0130 C   0  0  0  0  0  0  0  0  0  0  0  0
   37.8210   -6.3150   38.6450 C   0  0  0  0  0  0  0  0  0  0  0  0
   38.9900   -6.2040   37.9020 C   0  0  0  0  0  0  0  0  0  0  0  0
   40.2090   -6.0950   38.5320 C   0  0  0  0  0  0  0  0  0  0  0  0
   40.2820   -6.0960   39.9050 C   0  0  0  0  0  0  0  0  0  0  0  0
   39.1280   -6.2070   40.6550 C   0  0  0  0  0  0  0  0  0  0  0  0
   39.2410   -6.2090   42.3790 Cl  0  0  0  0  0  0  0  0  0  0  0  0
   37.8880   -6.3170   40.0300 C   0  0  0  0  0  0  0  0  0  0  0  0
   32.4660   -2.1710   36.7190 C   0  0  0  0  0  0  0  0  0  0  0  0
   33.2760   -1.3480   36.3810 O   0  0  0  0  0  0  0  0  0  0  0  0
   31.4990   -1.6690   37.5270 O   0  0  0  0  0  0  0  0  0  0  0  0
   30.4650   -3.3570   34.9730 O   0  0  0  0  0  0  0  0  0  0  0  0
   30.8976   -5.8280   34.4454 H   0  0  0  0  0  0  0  0  0  0  0  0
   34.3487   -3.8417   37.4137 H   0  0  0  0  0  0  0  0  0  0  0  0
   33.4960   -9.6542   37.5827 H   0  0  0  0  0  0  0  0  0  0  0  0
   34.2925  -11.9559   37.4510 H   0  0  0  0  0  0  0  0  0  0  0  0
   36.3821  -11.0237   33.8319 H   0  0  0  0  0  0  0  0  0  0  0  0
   35.5817   -8.7171   33.9649 H   0  0  0  0  0  0  0  0  0  0  0  0
   34.5014  -13.4444   34.1149 H   0  0  0  0  0  0  0  0  0  0  0  0
   35.9172  -14.5604   34.2905 H   0  0  0  0  0  0  0  0  0  0  0  0
   36.0713  -15.9514   36.0987 H   0  0  0  0  0  0  0  0  0  0  0  0
   33.4386  -16.6072   37.0089 H   0  0  0  0  0  0  0  0  0  0  0  0
   34.9796  -19.1398   36.7969 H   0  0  0  0  0  0  0  0  0  0  0  0
   36.3014  -18.4016   36.4659 H   0  0  0  0  0  0  0  0  0  0  0  0
   34.4519  -17.9929   39.1066 H   0  0  0  0  0  0  0  0  0  0  0  0
   35.6885  -17.0489   39.1785 H   0  0  0  0  0  0  0  0  0  0  0  0
   38.9409   -6.2032   36.8031 H   0  0  0  0  0  0  0  0  0  0  0  0
   41.1284   -6.0067   37.9346 H   0  0  0  0  0  0  0  0  0  0  0  0
   41.2579   -6.0085   40.4050 H   0  0  0  0  0  0  0  0  0  0  0  0
   36.9701   -6.4047   40.6298 H   0  0  0  0  0  0  0  0  0  0  0  0
   31.5994   -1.7211   38.5105 H   0  0  0  0  0  0  0  0  0  0  0  0
   29.8134   -2.9435   35.5931 H   0  0  0  0  0  0  0  0  0  0  0  0
 14 15  2  0
 14 13  1  0
 15 10  1  0
 17 16  1  0
 17 18  1  0
 36  2  1  0
  1  2  2  0
  1  6  1  0
  9  6  1  0
  9  8  1  0
  2  3  1  0
  6  5  2  0
 13 16  1  0
 13 12  2  0
 18 20  2  0
 18 19  1  0
 10  8  1  0
 10 11  2  0
  8  7  2  0
 19 21  1  0
  3 33  1  0
  3  4  2  0
  5  7  1  0
  5  4  1  0
 34 33  2  0
  7 24  1  0
 12 11  1  0
 33 35  1  0
 22 21  1  0
 22 23  1  0
 21 23  1  0
 24 25  3  0
 27 28  2  0
 27 26  1  0
 25 26  1  0
 28 29  1  0
 26 32  2  0
 29 30  2  0
 32 30  1  0
 30 31  1  0
  1 37  1  0
  4 38  1  0
 11 39  1  0
 12 40  1  0
 14 41  1  0
 15 42  1  0
 17 43  1  0
 17 44  1  0
 19 45  1  0
 21 46  1  0
 22 47  1  0
 22 48  1  0
 23 49  1  0
 23 50  1  0
 27 51  1  0
 28 52  1  0
 29 53  1  0
 32 54  1  0
 35 55  1  0
 36 56  1  0
A    1
C1
A    2
C2
A    3
C3
A    4
C4
A    5
C5
A    6
C6
A    7
C7
A    8
C8
A    9
O1
A   10
C9
A   11
C10
A   12
C11
A   13
C12
A   14
C13
A   15
C14
A   16
O2
A   17
C15
A   18
C16
A   19
N1
A   20
O3
A   21
C17
A   22
C18
A   23
C19
A   24
C20
A   25
C21
A   26
C22
A   27
C23
A   28
C24
A   29
C25
A   30
C26
A   31
CL
A   32
C27
A   33
C28
A   34
O4
A   35
O5
A   36
O6
M  END
