4J53_1J4_A_403
     RDKit          3D

 74 78  0  0  0  0  0  0  0  0999 V2000
   51.0580   11.3520   31.0740 O   0  0  0  0  0  0  0  0  0  0  0  0
   50.5810   11.2080   32.1790 C   0  0  0  0  0  0  0  0  0  0  0  0
   51.3450   10.9450   33.2460 N   0  0  0  0  0  0  0  0  0  0  0  0
   52.8080   10.8340   33.2340 C   0  0  0  0  0  0  0  0  0  0  0  0
   53.3570   12.0100   34.0400 C   0  0  0  0  0  0  0  0  0  0  0  0
   54.8580   11.8870   34.2810 C   0  0  0  0  0  0  0  0  0  0  0  0
   55.1960   10.6100   34.9330 N   0  0  0  0  0  0  0  0  0  0  0  0
   56.6620   10.5090   35.1010 C   0  0  0  0  0  0  0  0  0  0  0  0
   54.7010    9.4710   34.1330 C   0  0  0  0  0  0  0  0  0  0  0  0
   53.1860    9.5450   33.9560 C   0  0  0  0  0  0  0  0  0  0  0  0
   49.0810   11.2980   32.3360 C   0  0  0  0  0  0  0  0  0  0  0  0
   48.2710   10.5160   31.5070 C   0  0  0  0  0  0  0  0  0  0  0  0
   46.8740   10.5570   31.6280 C   0  0  0  0  0  0  0  0  0  0  0  0
   46.0670    9.7880   30.8160 O   0  0  0  0  0  0  0  0  0  0  0  0
   46.3230    8.4080   30.5410 C   0  0  0  0  0  0  0  0  0  0  0  0
   48.4700   12.1330   33.2810 C   0  0  0  0  0  0  0  0  0  0  0  0
   49.1810   12.9220   34.1120 F   0  0  0  0  0  0  0  0  0  0  0  0
   47.0830   12.1710   33.3910 C   0  0  0  0  0  0  0  0  0  0  0  0
   46.2700   11.3880   32.5680 C   0  0  0  0  0  0  0  0  0  0  0  0
   44.9100   11.3330   32.6530 N   0  0  0  0  0  0  0  0  0  0  0  0
   44.1140   11.8970   33.6060 C   0  0  0  0  0  0  0  0  0  0  0  0
   42.7820   11.7280   33.4670 N   0  0  0  0  0  0  0  0  0  0  0  0
   41.9170   12.2540   34.3240 C   0  0  0  0  0  0  0  0  0  0  0  0
   42.3690   12.9840   35.4180 C   0  0  0  0  0  0  0  0  0  0  0  0
   41.4050   13.5860   36.2650 N   0  0  0  0  0  0  0  0  0  0  0  0
   40.2360   14.1190   35.5470 C   0  0  0  0  0  0  0  0  0  0  0  0
   41.4980   13.7860   37.5920 C   0  0  0  0  0  0  0  0  0  0  0  0
   40.5760   14.3630   38.1640 O   0  0  0  0  0  0  0  0  0  0  0  0
   44.5830   12.6080   34.6520 N   0  0  0  0  0  0  0  0  0  0  0  0
   43.7490   13.1800   35.5530 C   0  0  0  0  0  0  0  0  0  0  0  0
   44.2670   13.9240   36.6490 N   0  0  0  0  0  0  0  0  0  0  0  0
   44.0210   13.1510   37.8750 C   0  0  0  0  0  0  0  0  0  0  0  0
   42.6290   13.3160   38.4840 C   0  0  0  0  0  0  0  0  0  0  0  0
   42.7160   14.1890   39.4740 F   0  0  0  0  0  0  0  0  0  0  0  0
   42.3060   12.1350   38.9790 F   0  0  0  0  0  0  0  0  0  0  0  0
   45.7070   14.3130   36.5210 C   0  0  0  0  0  0  0  0  0  0  0  0
   46.0100   15.5460   37.3760 C   0  0  0  0  0  0  0  0  0  0  0  0
   47.3040   15.3080   38.1360 C   0  0  0  0  0  0  0  0  0  0  0  0
   47.6230   13.8280   38.0240 C   0  0  0  0  0  0  0  0  0  0  0  0
   46.7380   13.2490   36.9280 C   0  0  0  0  0  0  0  0  0  0  0  0
   50.8674   10.8096   34.1484 H   0  0  0  0  0  0  0  0  0  0  0  0
   53.2044   10.8338   32.2079 H   0  0  0  0  0  0  0  0  0  0  0  0
   53.1612   12.9410   33.4879 H   0  0  0  0  0  0  0  0  0  0  0  0
   52.8552   12.0145   35.0189 H   0  0  0  0  0  0  0  0  0  0  0  0
   55.3813   11.9450   33.3152 H   0  0  0  0  0  0  0  0  0  0  0  0
   55.1699   12.7071   34.9445 H   0  0  0  0  0  0  0  0  0  0  0  0
   56.9079   10.4921   36.1730 H   0  0  0  0  0  0  0  0  0  0  0  0
   57.0225    9.5839   34.6275 H   0  0  0  0  0  0  0  0  0  0  0  0
   57.1459   11.3759   34.6275 H   0  0  0  0  0  0  0  0  0  0  0  0
   54.9580    8.5324   34.6458 H   0  0  0  0  0  0  0  0  0  0  0  0
   55.1725    9.5087   33.1399 H   0  0  0  0  0  0  0  0  0  0  0  0
   52.7024    9.5254   34.9438 H   0  0  0  0  0  0  0  0  0  0  0  0
   52.8496    8.6845   33.3590 H   0  0  0  0  0  0  0  0  0  0  0  0
   48.7335    9.8624   30.7528 H   0  0  0  0  0  0  0  0  0  0  0  0
   46.4250    7.8582   31.4882 H   0  0  0  0  0  0  0  0  0  0  0  0
   45.4874    7.9884   29.9616 H   0  0  0  0  0  0  0  0  0  0  0  0
   47.2535    8.3161   29.9616 H   0  0  0  0  0  0  0  0  0  0  0  0
   46.6186   12.8296   34.1397 H   0  0  0  0  0  0  0  0  0  0  0  0
   44.4283   10.8044   31.9117 H   0  0  0  0  0  0  0  0  0  0  0  0
   40.8373   12.1122   34.1687 H   0  0  0  0  0  0  0  0  0  0  0  0
   39.4844   14.4617   36.2734 H   0  0  0  0  0  0  0  0  0  0  0  0
   40.5475   14.9641   34.9155 H   0  0  0  0  0  0  0  0  0  0  0  0
   39.8023   13.3296   34.9155 H   0  0  0  0  0  0  0  0  0  0  0  0
   44.1647   12.0861   37.6397 H   0  0  0  0  0  0  0  0  0  0  0  0
   44.7280   13.5367   38.6243 H   0  0  0  0  0  0  0  0  0  0  0  0
   45.8174   14.4875   35.4406 H   0  0  0  0  0  0  0  0  0  0  0  0
   46.1187   16.4280   36.7277 H   0  0  0  0  0  0  0  0  0  0  0  0
   45.1870   15.7214   38.0844 H   0  0  0  0  0  0  0  0  0  0  0  0
   48.1162   15.9034   37.6935 H   0  0  0  0  0  0  0  0  0  0  0  0
   47.1995   15.6069   39.1894 H   0  0  0  0  0  0  0  0  0  0  0  0
   47.4137   13.3256   38.9799 H   0  0  0  0  0  0  0  0  0  0  0  0
   48.6857   13.6786   37.7823 H   0  0  0  0  0  0  0  0  0  0  0  0
   46.2196   12.3545   37.3036 H   0  0  0  0  0  0  0  0  0  0  0  0
   47.3505   12.9659   36.0592 H   0  0  0  0  0  0  0  0  0  0  0  0
 15 14  1  0
 14 13  1  0
  1  2  2  0
 12 13  2  0
 12 11  1  0
 13 19  1  0
  2 11  1  0
  2  3  1  0
 11 16  2  0
 19 20  1  0
 19 18  2  0
 20 21  1  0
  4  3  1  0
  4 10  1  0
  4  5  1  0
 16 18  1  0
 16 17  1  0
 22 21  2  0
 22 23  1  0
 21 29  1  0
 10  9  1  0
  5  6  1  0
  9  7  1  0
  6  7  1  0
 23 24  2  0
 29 30  2  0
  7  8  1  0
 24 30  1  0
 24 25  1  0
 26 25  1  0
 30 31  1  0
 25 27  1  0
 36 31  1  0
 36 40  1  0
 36 37  1  0
 31 32  1  0
 40 39  1  0
 37 38  1  0
 27 28  2  0
 27 33  1  0
 32 33  1  0
 39 38  1  0
 33 35  1  0
 33 34  1  0
  3 41  1  0
  4 42  1  0
  5 43  1  0
  5 44  1  0
  6 45  1  0
  6 46  1  0
  8 47  1  0
  8 48  1  0
  8 49  1  0
  9 50  1  0
  9 51  1  0
 10 52  1  0
 10 53  1  0
 12 54  1  0
 15 55  1  0
 15 56  1  0
 15 57  1  0
 18 58  1  0
 20 59  1  0
 23 60  1  0
 26 61  1  0
 26 62  1  0
 26 63  1  0
 32 64  1  0
 32 65  1  0
 36 66  1  0
 37 67  1  0
 37 68  1  0
 38 69  1  0
 38 70  1  0
 39 71  1  0
 39 72  1  0
 40 73  1  0
 40 74  1  0
A    1
O7
A    2
C6
A    3
N8
A    4
C9
A    5
C10
A    6
C11
A    7
N12
A    8
C13
A    9
C14
A   10
C15
A   11
C5
A   12
C4
A   13
C3
A   14
O2
A   15
C1
A   16
C16
A   17
F17
A   18
C18
A   19
C19
A   20
N20
A   21
C21
A   22
N22
A   23
C23
A   24
C24
A   25
N25
A   26
C26
A   27
C27
A   28
O28
A   29
N40
A   30
C39
A   31
N33
A   32
C32
A   33
C29
A   34
F30
A   35
F31
A   36
C34
A   37
C35
A   38
C36
A   39
C37
A   40
C38
M  END
