4J5D_728_X_301
     RDKit          3D

 50 52  0  0  0  0  0  0  0  0999 V2000
    1.7840   16.5360   20.7500 C   0  0  0  0  0  0  0  0  0  0  0  0
    1.5920   16.0660   22.0540 C   0  0  0  0  0  0  0  0  0  0  0  0
    0.5070   15.2420   22.3560 C   0  0  0  0  0  0  0  0  0  0  0  0
    0.3190   14.7900   23.6030 N   0  0  0  0  0  0  0  0  0  0  0  0
   -0.3760   14.8870   21.3380 C   0  0  0  0  0  0  0  0  0  0  0  0
   -0.1810   15.3540   20.0380 C   0  0  0  0  0  0  0  0  0  0  0  0
    0.8970   16.1780   19.7280 C   0  0  0  0  0  0  0  0  0  0  0  0
    1.0830   16.6820   18.2770 C   0  0  0  0  0  0  0  0  0  0  0  0
    1.4320   18.1010   18.3730 N   0  0  0  0  0  0  0  0  0  0  0  0
    2.5580   18.6070   17.8790 C   0  0  0  0  0  0  0  0  0  0  0  0
    3.3450   17.9590   17.1850 O   0  0  0  0  0  0  0  0  0  0  0  0
    2.7190   19.9040   18.0490 N   0  0  0  0  0  0  0  0  0  0  0  0
    3.9250   20.5390   17.5380 C   0  0  0  0  0  0  0  0  0  0  0  0
    4.9860   20.5230   18.6530 C   0  0  0  0  0  0  0  0  0  0  0  0
    4.7490   20.0870   19.7850 O   0  0  0  0  0  0  0  0  0  0  0  0
    6.2150   20.8190   18.2850 N   0  0  0  0  0  0  0  0  0  0  0  0
    7.4100   20.6810   19.0830 C   0  0  0  0  0  0  0  0  0  0  0  0
    8.3620   21.7430   18.5360 C   0  0  0  0  0  0  0  0  0  0  0  0
    8.2000   21.0060   17.1840 C   0  0  0  0  0  0  0  0  0  0  0  0
    6.6280   21.1510   16.9290 C   0  0  0  0  0  0  0  0  0  0  0  0
    6.3550   22.6840   16.8320 C   0  0  0  0  0  0  0  0  0  0  0  0
    5.9710   23.5720   17.8530 C   0  0  0  0  0  0  0  0  0  0  0  0
    5.6920   24.9060   17.5630 C   0  0  0  0  0  0  0  0  0  0  0  0
    5.7000   25.3730   16.2570 C   0  0  0  0  0  0  0  0  0  0  0  0
    6.0090   24.5020   15.2250 C   0  0  0  0  0  0  0  0  0  0  0  0
    6.3070   23.1690   15.5050 C   0  0  0  0  0  0  0  0  0  0  0  0
    6.7050   22.0650   13.9970 Br  0  0  0  0  0  0  0  0  0  0  0  0
    2.6384   17.1917   20.5264 H   0  0  0  0  0  0  0  0  0  0  0  0
    2.3011   16.3479   22.8463 H   0  0  0  0  0  0  0  0  0  0  0  0
    0.5656   15.3829   24.4083 H   0  0  0  0  0  0  0  0  0  0  0  0
   -0.0721   13.8496   23.7564 H   0  0  0  0  0  0  0  0  0  0  0  0
   -1.2327   14.2340   21.5611 H   0  0  0  0  0  0  0  0  0  0  0  0
   -0.8892   15.0670   19.2468 H   0  0  0  0  0  0  0  0  0  0  0  0
    0.1495   16.5576   17.7086 H   0  0  0  0  0  0  0  0  0  0  0  0
    1.8667   16.1133   17.7550 H   0  0  0  0  0  0  0  0  0  0  0  0
    0.7741   18.7372   18.8456 H   0  0  0  0  0  0  0  0  0  0  0  0
    2.0020   20.4601   18.5363 H   0  0  0  0  0  0  0  0  0  0  0  0
    4.2957   19.9847   16.6632 H   0  0  0  0  0  0  0  0  0  0  0  0
    3.7097   21.5737   17.2330 H   0  0  0  0  0  0  0  0  0  0  0  0
    7.1913   20.8653   20.1452 H   0  0  0  0  0  0  0  0  0  0  0  0
    7.8362   19.6686   19.0252 H   0  0  0  0  0  0  0  0  0  0  0  0
    9.3768   21.7241   18.9600 H   0  0  0  0  0  0  0  0  0  0  0  0
    8.1852   22.8223   18.6537 H   0  0  0  0  0  0  0  0  0  0  0  0
    8.4986   19.9503   17.2634 H   0  0  0  0  0  0  0  0  0  0  0  0
    8.8251   21.4109   16.3745 H   0  0  0  0  0  0  0  0  0  0  0  0
    6.1949   20.6027   16.0794 H   0  0  0  0  0  0  0  0  0  0  0  0
    5.8903   23.2104   18.8887 H   0  0  0  0  0  0  0  0  0  0  0  0
    5.4614   25.6008   18.3840 H   0  0  0  0  0  0  0  0  0  0  0  0
    5.4631   26.4256   16.0426 H   0  0  0  0  0  0  0  0  0  0  0  0
    6.0192   24.8617   14.1855 H   0  0  0  0  0  0  0  0  0  0  0  0
 27 26  1  0
 25 26  2  0
 25 24  1  0
 26 21  1  0
 24 23  2  0
 21 20  1  0
 21 22  2  0
 20 19  1  0
 20 16  1  0
 19 18  1  0
 11 10  2  0
 13 12  1  0
 13 14  1  0
 23 22  1  0
 10 12  1  0
 10  9  1  0
  8  9  1  0
  8  7  1  0
 16 14  1  0
 16 17  1  0
 18 17  1  0
 14 15  2  0
  7  6  1  0
  7  1  2  0
  6  5  2  0
  1  2  1  0
  5  3  1  0
  2  3  2  0
  3  4  1  0
  1 28  1  0
  2 29  1  0
  4 30  1  0
  4 31  1  0
  5 32  1  0
  6 33  1  0
  8 34  1  0
  8 35  1  0
  9 36  1  0
 12 37  1  0
 13 38  1  0
 13 39  1  0
 17 40  1  0
 17 41  1  0
 18 42  1  0
 18 43  1  0
 19 44  1  0
 19 45  1  0
 20 46  1  0
 22 47  1  0
 23 48  1  0
 24 49  1  0
 25 50  1  0
A    1
CAA
A    2
CAB
A    3
CAC
A    4
NAG
A    5
CAD
A    6
CAE
A    7
CAF
A    8
CAH
A    9
NAI
A   10
CAJ
A   11
OAL
A   12
N
A   13
CA
A   14
C
A   15
O
A   16
NAP
A   17
CAQ
A   18
CAR
A   19
CAS
A   20
CAT
A   21
CAU
A   22
CAX
A   23
CAW
A   24
CAV
A   25
CAY
A   26
CAZ
A   27
BR
M  END
