4J5E_7B7_X_301
     RDKit          3D

 54 56  0  0  0  0  0  0  0  0999 V2000
    6.7160   22.3060   13.1620 C   0  0  0  0  0  0  0  0  0  0  0  0
    6.8480   22.0140   14.5970 O   0  0  0  0  0  0  0  0  0  0  0  0
    6.5810   23.0120   15.5140 C   0  0  0  0  0  0  0  0  0  0  0  0
    6.3240   24.3190   15.1080 C   0  0  0  0  0  0  0  0  0  0  0  0
    6.0370   25.2680   16.0890 C   0  0  0  0  0  0  0  0  0  0  0  0
    6.0080   24.9430   17.4400 C   0  0  0  0  0  0  0  0  0  0  0  0
    6.2680   23.6160   17.8060 C   0  0  0  0  0  0  0  0  0  0  0  0
    6.5770   22.6350   16.8340 C   0  0  0  0  0  0  0  0  0  0  0  0
    6.9010   21.2450   17.1330 C   0  0  0  0  0  0  0  0  0  0  0  0
    8.4510   20.9570   17.2640 C   0  0  0  0  0  0  0  0  0  0  0  0
    8.7130   21.3680   18.6830 C   0  0  0  0  0  0  0  0  0  0  0  0
    7.5830   20.7080   19.4630 C   0  0  0  0  0  0  0  0  0  0  0  0
    6.4450   20.8650   18.5440 N   0  0  0  0  0  0  0  0  0  0  0  0
    5.1860   20.5270   18.8910 C   0  0  0  0  0  0  0  0  0  0  0  0
    4.9460   20.0900   20.0420 O   0  0  0  0  0  0  0  0  0  0  0  0
    4.1260   20.6440   17.8010 C   0  0  0  0  0  0  0  0  0  0  0  0
    2.8860   20.0170   18.2140 N   0  0  0  0  0  0  0  0  0  0  0  0
    2.7300   18.7050   18.0010 C   0  0  0  0  0  0  0  0  0  0  0  0
    3.5180   18.0210   17.3580 O   0  0  0  0  0  0  0  0  0  0  0  0
    1.5800   18.1870   18.4900 N   0  0  0  0  0  0  0  0  0  0  0  0
    1.1930   16.8100   18.4930 C   0  0  0  0  0  0  0  0  0  0  0  0
    0.9760   16.3540   19.8680 C   0  0  0  0  0  0  0  0  0  0  0  0
   -0.0790   15.5430   20.1920 C   0  0  0  0  0  0  0  0  0  0  0  0
   -0.2840   15.1080   21.5000 C   0  0  0  0  0  0  0  0  0  0  0  0
    0.6420   15.4040   22.5370 C   0  0  0  0  0  0  0  0  0  0  0  0
    0.4840   14.8990   23.7970 N   0  0  0  0  0  0  0  0  0  0  0  0
    1.7820   16.1480   22.2130 C   0  0  0  0  0  0  0  0  0  0  0  0
    1.9190   16.6130   20.8990 C   0  0  0  0  0  0  0  0  0  0  0  0
    6.2662   23.3011   13.0302 H   0  0  0  0  0  0  0  0  0  0  0  0
    7.7100   22.2876   12.6911 H   0  0  0  0  0  0  0  0  0  0  0  0
    6.0731   21.5477   12.6911 H   0  0  0  0  0  0  0  0  0  0  0  0
    6.3467   24.5952   14.0435 H   0  0  0  0  0  0  0  0  0  0  0  0
    5.8275   26.3040   15.7845 H   0  0  0  0  0  0  0  0  0  0  0  0
    5.7871   25.7064   18.2006 H   0  0  0  0  0  0  0  0  0  0  0  0
    6.2313   23.3315   18.8679 H   0  0  0  0  0  0  0  0  0  0  0  0
    6.4240   20.7025   16.3035 H   0  0  0  0  0  0  0  0  0  0  0  0
    8.6765   19.8920   17.1060 H   0  0  0  0  0  0  0  0  0  0  0  0
    9.0693   21.4847   16.5229 H   0  0  0  0  0  0  0  0  0  0  0  0
    9.6921   21.0003   19.0237 H   0  0  0  0  0  0  0  0  0  0  0  0
    8.7405   22.4599   18.8130 H   0  0  0  0  0  0  0  0  0  0  0  0
    7.4007   21.2247   20.4169 H   0  0  0  0  0  0  0  0  0  0  0  0
    7.7873   19.6637   19.7418 H   0  0  0  0  0  0  0  0  0  0  0  0
    4.4922   20.1508   16.8885 H   0  0  0  0  0  0  0  0  0  0  0  0
    3.9338   21.7104   17.6115 H   0  0  0  0  0  0  0  0  0  0  0  0
    2.1409   20.5694   18.6618 H   0  0  0  0  0  0  0  0  0  0  0  0
    0.9131   18.8542   18.9036 H   0  0  0  0  0  0  0  0  0  0  0  0
    0.2622   16.6919   17.9188 H   0  0  0  0  0  0  0  0  0  0  0  0
    1.9925   16.2091   18.0350 H   0  0  0  0  0  0  0  0  0  0  0  0
   -0.7788   15.2286   19.4037 H   0  0  0  0  0  0  0  0  0  0  0  0
   -1.1842   14.5214   21.7356 H   0  0  0  0  0  0  0  0  0  0  0  0
    0.6700   15.4936   24.6172 H   0  0  0  0  0  0  0  0  0  0  0  0
    0.1789   13.9238   23.9264 H   0  0  0  0  0  0  0  0  0  0  0  0
    2.5504   16.3620   22.9705 H   0  0  0  0  0  0  0  0  0  0  0  0
    2.8071   17.2128   20.6510 H   0  0  0  0  0  0  0  0  0  0  0  0
  1  2  1  0
  2  3  1  0
  4  3  2  0
  4  5  1  0
  3  8  1  0
  5  6  2  0
  8  9  1  0
  8  7  2  0
  9 10  1  0
  9 13  1  0
 10 11  1  0
 19 18  2  0
  6  7  1  0
 16 17  1  0
 16 14  1  0
 18 17  1  0
 18 20  1  0
 20 21  1  0
 21 22  1  0
 13 14  1  0
 13 12  1  0
 11 12  1  0
 14 15  2  0
 22 23  2  0
 22 28  1  0
 23 24  1  0
 28 27  2  0
 24 25  2  0
 27 25  1  0
 25 26  1  0
  1 29  1  0
  1 30  1  0
  1 31  1  0
  4 32  1  0
  5 33  1  0
  6 34  1  0
  7 35  1  0
  9 36  1  0
 10 37  1  0
 10 38  1  0
 11 39  1  0
 11 40  1  0
 12 41  1  0
 12 42  1  0
 16 43  1  0
 16 44  1  0
 17 45  1  0
 20 46  1  0
 21 47  1  0
 21 48  1  0
 23 49  1  0
 24 50  1  0
 26 51  1  0
 26 52  1  0
 27 53  1  0
 28 54  1  0
A    1
CAA
A    2
OAT
A    3
CAY
A    4
CAG
A    5
CAE
A    6
CAF
A    7
CAH
A    8
CAZ
A    9
CBA
A   10
CAP
A   11
CAM
A   12
CAQ
A   13
NBB
A   14
C
A   15
O
A   16
CA
A   17
N
A   18
CAU
A   19
OAC
A   20
NAS
A   21
CAO
A   22
CAX
A   23
CAK
A   24
CAI
A   25
CAW
A   26
NAB
A   27
CAJ
A   28
CAL
M  END
