4J7T_1JO_A_203
     RDKit          3D

 59 59  0  0  0  0  0  0  0  0999 V2000
   13.7860  -18.7070   -4.0360 O   0  0  0  0  0  0  0  0  0  0  0  0
   14.0570  -18.5830   -5.2380 C   0  0  0  0  0  0  0  0  0  0  0  0
   13.1690  -18.2320   -6.0490 O   0  0  0  0  0  0  0  0  0  0  0  0
   15.4370  -18.8560   -5.7190 C   0  0  0  0  0  0  0  0  0  0  0  0
   15.9680  -17.6860   -6.3830 N   0  0  0  0  0  0  0  0  0  0  0  0
   15.4220  -20.0120   -6.6680 C   0  0  0  0  0  0  0  0  0  0  0  0
   16.5500  -21.0160   -6.5990 C   0  0  0  0  0  0  0  0  0  0  0  0
   17.0280  -21.4530   -5.2290 C   0  0  0  0  0  0  0  0  0  0  0  0
   17.6490  -20.6610   -4.5260 O   0  0  0  0  0  0  0  0  0  0  0  0
   16.7650  -22.7990   -4.7320 N   0  0  0  0  0  0  0  0  0  0  0  0
   16.3760  -23.8600   -5.5930 C   0  0  0  0  0  0  0  0  0  0  0  0
   14.8920  -23.8420   -5.7750 C   0  0  0  0  0  0  0  0  0  0  0  0
   14.3170  -24.7620   -6.3610 O   0  0  0  0  0  0  0  0  0  0  0  0
   14.1530  -22.7130   -5.2590 N   0  0  0  0  0  0  0  0  0  0  0  0
   12.7500  -22.5640   -5.4870 C   0  0  0  0  0  0  0  0  0  0  0  0
   11.8850  -23.6790   -4.9140 C   0  0  0  0  0  0  0  0  0  0  0  0
   10.9970  -24.2270   -5.6510 O   0  0  0  0  0  0  0  0  0  0  0  0
   12.0610  -24.0820   -3.7040 O   0  0  0  0  0  0  0  0  0  0  0  0
   16.8590  -25.1670   -4.9970 C   0  0  0  0  0  0  0  0  0  0  0  0
   18.5030  -25.0900   -4.2020 S   0  0  0  0  0  0  0  0  0  0  0  0
   19.1220  -26.6830   -3.8200 C   0  0  0  0  0  0  0  0  0  0  0  0
   20.5450  -26.9560   -4.1950 C   0  0  0  0  0  0  0  0  0  0  0  0
   21.0650  -26.2540   -5.4110 C   0  0  0  0  0  0  0  0  0  0  0  0
   20.4540  -26.6680   -6.7850 C   0  0  0  0  0  0  0  0  0  0  0  0
   21.4050  -27.1060   -7.8800 C   0  0  0  0  0  0  0  0  0  0  0  0
   21.3750  -26.4570   -9.1080 C   0  0  0  0  0  0  0  0  0  0  0  0
   22.3840  -26.6680  -10.0220 C   0  0  0  0  0  0  0  0  0  0  0  0
   23.4000  -27.5500   -9.7370 C   0  0  0  0  0  0  0  0  0  0  0  0
   23.5040  -28.0940   -8.4670 C   0  0  0  0  0  0  0  0  0  0  0  0
   22.5290  -27.8130   -7.5360 C   0  0  0  0  0  0  0  0  0  0  0  0
   14.4344  -18.4103   -3.3492 H   0  0  0  0  0  0  0  0  0  0  0  0
   16.0757  -19.1017   -4.8578 H   0  0  0  0  0  0  0  0  0  0  0  0
   16.2783  -17.0023   -5.6779 H   0  0  0  0  0  0  0  0  0  0  0  0
   16.7677  -17.9588   -6.9720 H   0  0  0  0  0  0  0  0  0  0  0  0
   15.4191  -19.5962   -7.6864 H   0  0  0  0  0  0  0  0  0  0  0  0
   14.5308  -20.5876   -6.3775 H   0  0  0  0  0  0  0  0  0  0  0  0
   16.2183  -21.9185   -7.1334 H   0  0  0  0  0  0  0  0  0  0  0  0
   17.4122  -20.4925   -7.0377 H   0  0  0  0  0  0  0  0  0  0  0  0
   16.8646  -22.9863   -3.7241 H   0  0  0  0  0  0  0  0  0  0  0  0
   16.8296  -23.7426   -6.5882 H   0  0  0  0  0  0  0  0  0  0  0  0
   14.6507  -21.9961   -4.7120 H   0  0  0  0  0  0  0  0  0  0  0  0
   12.4290  -21.6149   -5.0329 H   0  0  0  0  0  0  0  0  0  0  0  0
   12.6098  -22.5945   -6.5776 H   0  0  0  0  0  0  0  0  0  0  0  0
   11.8062  -23.4985   -2.9459 H   0  0  0  0  0  0  0  0  0  0  0  0
   16.1282  -25.4880   -4.2401 H   0  0  0  0  0  0  0  0  0  0  0  0
   16.9551  -25.8716   -5.8362 H   0  0  0  0  0  0  0  0  0  0  0  0
   19.0300  -26.8251   -2.7331 H   0  0  0  0  0  0  0  0  0  0  0  0
   18.5235  -27.3798   -4.4252 H   0  0  0  0  0  0  0  0  0  0  0  0
   20.6430  -28.0380   -4.3670 H   0  0  0  0  0  0  0  0  0  0  0  0
   21.1446  -26.5685   -3.3581 H   0  0  0  0  0  0  0  0  0  0  0  0
   22.1485  -26.4368   -5.4614 H   0  0  0  0  0  0  0  0  0  0  0  0
   20.7773  -25.2008   -5.2769 H   0  0  0  0  0  0  0  0  0  0  0  0
   19.8904  -25.8039   -7.1667 H   0  0  0  0  0  0  0  0  0  0  0  0
   19.8571  -27.5648   -6.5627 H   0  0  0  0  0  0  0  0  0  0  0  0
   20.5464  -25.7753   -9.3503 H   0  0  0  0  0  0  0  0  0  0  0  0
   22.3770  -26.1300  -10.9815 H   0  0  0  0  0  0  0  0  0  0  0  0
   24.1280  -27.8228  -10.5152 H   0  0  0  0  0  0  0  0  0  0  0  0
   24.3539  -28.7416   -8.2059 H   0  0  0  0  0  0  0  0  0  0  0  0
   22.6535  -28.1610   -6.5000 H   0  0  0  0  0  0  0  0  0  0  0  0
 27 28  2  0
 27 26  1  0
 28 29  1  0
 26 25  2  0
 29 30  2  0
 25 30  1  0
 25 24  1  0
 24 23  1  0
  6  7  1  0
  6  4  1  0
  7  8  1  0
  5  4  1  0
 13 12  2  0
  3  2  2  0
 12 11  1  0
 12 14  1  0
  4  2  1  0
 17 16  2  0
 11 19  1  0
 11 10  1  0
 15 14  1  0
 15 16  1  0
 23 22  1  0
  2  1  1  0
  8 10  1  0
  8  9  2  0
 19 20  1  0
 16 18  1  0
 20 21  1  0
 22 21  1  0
  1 31  1  0
  4 32  1  0
  5 33  1  0
  5 34  1  0
  6 35  1  0
  6 36  1  0
  7 37  1  0
  7 38  1  0
 10 39  1  0
 11 40  1  0
 14 41  1  0
 15 42  1  0
 15 43  1  0
 18 44  1  0
 19 45  1  0
 19 46  1  0
 21 47  1  0
 21 48  1  0
 22 49  1  0
 22 50  1  0
 23 51  1  0
 23 52  1  0
 24 53  1  0
 24 54  1  0
 26 55  1  0
 27 56  1  0
 28 57  1  0
 29 58  1  0
 30 59  1  0
A    1
O
A    2
C
A    3
OXT
A    4
CA
A    5
N
A    6
CB
A    7
CG
A    8
CD
A    9
OE1
A   10
NE2
A   11
CBD
A   12
CBA
A   13
OAE
A   14
NAU
A   15
CAQ
A   16
CAX
A   17
OAF
A   18
OAB
A   19
CAT
A   20
SAW
A   21
CAO
A   22
CAM
A   23
CAN
A   24
CAR
A   25
CBB
A   26
CAK
A   27
CAI
A   28
CAH
A   29
CAJ
A   30
CAL
M  END
