4J7Y_1JP_A_203
     RDKit          3D

 58 58  0  0  0  0  0  0  0  0999 V2000
   12.9920   -4.3400  -66.0480 O   0  0  0  0  0  0  0  0  0  0  0  0
   14.1830   -4.4500  -65.6460 C   0  0  0  0  0  0  0  0  0  0  0  0
   14.5160   -4.0330  -64.5120 O   0  0  0  0  0  0  0  0  0  0  0  0
   15.1760   -5.1270  -66.5310 C   0  0  0  0  0  0  0  0  0  0  0  0
   14.4560   -6.0770  -67.3440 N   0  0  0  0  0  0  0  0  0  0  0  0
   16.2140   -5.9030  -65.7850 C   0  0  0  0  0  0  0  0  0  0  0  0
   17.0770   -5.2340  -64.7770 C   0  0  0  0  0  0  0  0  0  0  0  0
   16.8650   -5.7420  -63.3870 C   0  0  0  0  0  0  0  0  0  0  0  0
   16.4240   -6.8780  -63.2540 O   0  0  0  0  0  0  0  0  0  0  0  0
   17.1550   -4.9380  -62.2430 N   0  0  0  0  0  0  0  0  0  0  0  0
   16.9000   -5.4870  -60.9470 C   0  0  0  0  0  0  0  0  0  0  0  0
   15.4370   -5.6750  -60.8550 C   0  0  0  0  0  0  0  0  0  0  0  0
   14.7270   -4.7860  -61.3010 O   0  0  0  0  0  0  0  0  0  0  0  0
   14.9210   -6.8870  -60.2770 N   0  0  0  0  0  0  0  0  0  0  0  0
   13.5280   -7.1860  -60.1380 C   0  0  0  0  0  0  0  0  0  0  0  0
   12.4930   -6.2920  -60.7290 C   0  0  0  0  0  0  0  0  0  0  0  0
   11.5330   -5.8740  -60.0350 O   0  0  0  0  0  0  0  0  0  0  0  0
   12.6020   -5.9350  -61.9300 O   0  0  0  0  0  0  0  0  0  0  0  0
   17.2730   -4.5860  -59.8210 C   0  0  0  0  0  0  0  0  0  0  0  0
   18.9610   -4.1250  -59.5630 S   0  0  0  0  0  0  0  0  0  0  0  0
   19.2480   -4.0040  -57.8310 C   0  0  0  0  0  0  0  0  0  0  0  0
   20.4750   -4.6760  -57.3400 C   0  0  0  0  0  0  0  0  0  0  0  0
   21.4240   -4.6190  -58.3420 O   0  0  0  0  0  0  0  0  0  0  0  0
   20.1640   -6.1050  -57.0480 C   0  0  0  0  0  0  0  0  0  0  0  0
   20.6970   -7.1400  -57.9730 C   0  0  0  0  0  0  0  0  0  0  0  0
   21.7600   -8.0460  -57.4450 C   0  0  0  0  0  0  0  0  0  0  0  0
   22.3730   -8.9690  -58.2740 C   0  0  0  0  0  0  0  0  0  0  0  0
   23.3610   -9.8010  -57.7590 C   0  0  0  0  0  0  0  0  0  0  0  0
   23.7270   -9.7090  -56.4240 C   0  0  0  0  0  0  0  0  0  0  0  0
   23.1070   -8.7820  -55.5980 C   0  0  0  0  0  0  0  0  0  0  0  0
   22.1180   -7.9530  -56.1120 C   0  0  0  0  0  0  0  0  0  0  0  0
   14.1634   -4.4745  -63.6991 H   0  0  0  0  0  0  0  0  0  0  0  0
   15.6871   -4.3403  -67.1053 H   0  0  0  0  0  0  0  0  0  0  0  0
   13.9542   -6.7391  -66.7352 H   0  0  0  0  0  0  0  0  0  0  0  0
   13.7797   -5.5770  -67.9386 H   0  0  0  0  0  0  0  0  0  0  0  0
   15.6855   -6.7122  -65.2598 H   0  0  0  0  0  0  0  0  0  0  0  0
   16.9274   -6.1834  -66.5740 H   0  0  0  0  0  0  0  0  0  0  0  0
   18.1289   -5.3998  -65.0527 H   0  0  0  0  0  0  0  0  0  0  0  0
   16.8117   -4.1665  -64.7779 H   0  0  0  0  0  0  0  0  0  0  0  0
   17.5378   -3.9876  -62.3483 H   0  0  0  0  0  0  0  0  0  0  0  0
   17.4983   -6.4053  -60.8533 H   0  0  0  0  0  0  0  0  0  0  0  0
   13.2179   -8.0868  -59.5881 H   0  0  0  0  0  0  0  0  0  0  0  0
   11.5890   -5.8984  -59.0469 H   0  0  0  0  0  0  0  0  0  0  0  0
   16.7095   -3.6523  -59.9643 H   0  0  0  0  0  0  0  0  0  0  0  0
   17.0429   -5.1918  -58.9322 H   0  0  0  0  0  0  0  0  0  0  0  0
   19.3192   -2.9371  -57.5728 H   0  0  0  0  0  0  0  0  0  0  0  0
   18.4059   -4.5212  -57.3480 H   0  0  0  0  0  0  0  0  0  0  0  0
   20.8448   -4.1847  -56.4280 H   0  0  0  0  0  0  0  0  0  0  0  0
   22.3266   -4.5648  -57.9389 H   0  0  0  0  0  0  0  0  0  0  0  0
   19.0687   -6.2062  -57.0406 H   0  0  0  0  0  0  0  0  0  0  0  0
   20.6694   -6.3056  -56.0918 H   0  0  0  0  0  0  0  0  0  0  0  0
   21.1114   -6.6191  -58.8488 H   0  0  0  0  0  0  0  0  0  0  0  0
   19.8419   -7.7992  -58.1833 H   0  0  0  0  0  0  0  0  0  0  0  0
   22.0810   -9.0439  -59.3319 H   0  0  0  0  0  0  0  0  0  0  0  0
   23.8544  -10.5352  -58.4129 H   0  0  0  0  0  0  0  0  0  0  0  0
   24.5080  -10.3703  -56.0205 H   0  0  0  0  0  0  0  0  0  0  0  0
   23.3977   -8.7040  -54.5400 H   0  0  0  0  0  0  0  0  0  0  0  0
   21.6191   -7.2221  -55.4586 H   0  0  0  0  0  0  0  0  0  0  0  0
  5  4  1  0
  4  6  1  0
  4  2  1  0
  1  2  2  0
  6  7  1  0
  2  3  1  0
  7  8  1  0
  8  9  2  0
  8 10  1  0
 10 11  1  0
 18 16  2  0
 13 12  2  0
 11 12  1  0
 11 19  1  0
 12 14  1  0
 16 15  1  0
 16 17  1  0
 14 15  2  0
 19 20  1  0
 20 21  1  0
 23 22  1  0
 27 28  1  0
 27 26  2  0
 25 26  1  0
 25 24  1  0
 21 22  1  0
 28 29  2  0
 26 31  1  0
 22 24  1  0
 29 30  1  0
 31 30  2  0
  3 32  1  0
  4 33  1  0
  5 34  1  0
  5 35  1  0
  6 36  1  0
  6 37  1  0
  7 38  1  0
  7 39  1  0
 10 40  1  0
 11 41  1  0
 15 42  1  0
 17 43  1  0
 19 44  1  0
 19 45  1  0
 21 46  1  0
 21 47  1  0
 22 48  1  0
 23 49  1  0
 24 50  1  0
 24 51  1  0
 25 52  1  0
 25 53  1  0
 27 54  1  0
 28 55  1  0
 29 56  1  0
 30 57  1  0
 31 58  1  0
A    1
O
A    2
C
A    3
OXT
A    4
CA
A    5
N
A    6
CB
A    7
CG
A    8
CD
A    9
OE1
A   10
NE2
A   11
CBE
A   12
CBA
A   13
OAE
A   14
NAU
A   15
CAO
A   16
CAX
A   17
OAF
A   18
OAB
A   19
CAT
A   20
S1
A   21
CAS
A   22
CBD
A   23
OAH
A   24
CAR
A   25
CAP
A   26
CBB
A   27
CAL
A   28
CAJ
A   29
CAI
A   30
CAK
A   31
CAM
M  END
