3WGZ_DLE_B_400
     RDKit          3D

 22 21  0  0  0  0  0  0  0  0999 V2000
   17.4940   48.8940   36.0930 N   0  0  0  0  0  0  0  0  0  0  0  0
   17.0030   47.5110   36.0020 C   0  0  0  0  0  0  0  0  0  0  0  0
   17.9570   46.5400   36.7010 C   0  0  0  0  0  0  0  0  0  0  0  0
   18.0890   46.9170   38.1780 C   0  0  0  0  0  0  0  0  0  0  0  0
   16.7280   46.7820   38.8660 C   0  0  0  0  0  0  0  0  0  0  0  0
   19.0920   45.9810   38.8550 C   0  0  0  0  0  0  0  0  0  0  0  0
   16.8580   47.1150   34.5310 C   0  0  0  0  0  0  0  0  0  0  0  0
   17.7980   47.4180   33.7650 O   0  0  0  0  0  0  0  0  0  0  0  0
   15.8010   46.5370   34.2020 O   0  0  0  0  0  0  0  0  0  0  0  0
   17.5885   49.1603   37.0835 H   0  0  0  0  0  0  0  0  0  0  0  0
   18.4112   48.9639   35.6296 H   0  0  0  0  0  0  0  0  0  0  0  0
   16.0255   47.4575   36.5036 H   0  0  0  0  0  0  0  0  0  0  0  0
   17.5615   45.5168   36.6191 H   0  0  0  0  0  0  0  0  0  0  0  0
   18.9459   46.5943   36.2223 H   0  0  0  0  0  0  0  0  0  0  0  0
   18.4400   47.9564   38.2586 H   0  0  0  0  0  0  0  0  0  0  0  0
   16.8658   46.7957   39.9572 H   0  0  0  0  0  0  0  0  0  0  0  0
   16.0815   47.6204   38.5675 H   0  0  0  0  0  0  0  0  0  0  0  0
   16.2588   45.8329   38.5675 H   0  0  0  0  0  0  0  0  0  0  0  0
   18.9969   46.0698   39.9473 H   0  0  0  0  0  0  0  0  0  0  0  0
   18.8874   44.9435   38.5523 H   0  0  0  0  0  0  0  0  0  0  0  0
   20.1129   46.2567   38.5523 H   0  0  0  0  0  0  0  0  0  0  0  0
   15.1839   46.1995   34.8987 H   0  0  0  0  0  0  0  0  0  0  0  0
  1  2  1  0
  2  3  1  0
  2  7  1  0
  3  4  1  0
  4  5  1  0
  4  6  1  0
  7  8  2  0
  7  9  1  0
  1 10  1  0
  1 11  1  0
  2 12  1  0
  3 13  1  0
  3 14  1  0
  4 15  1  0
  5 16  1  0
  5 17  1  0
  5 18  1  0
  6 19  1  0
  6 20  1  0
  6 21  1  0
  9 22  1  0
A    1
N
A    2
CA
A    3
CB
A    4
CG
A    5
CD1
A    6
CD2
A    7
C
A    8
O
A    9
OXT
M  END
