4JAI_XU2_A_401
     RDKit          3D

 49 53  0  0  0  0  0  0  0  0999 V2000
   -3.9670  -34.2600    4.6070 O   0  0  0  0  0  0  0  0  0  0  0  0
   -4.3490  -33.2850    5.1070 C   0  0  0  0  0  0  0  0  0  0  0  0
   -4.8950  -32.1210    4.4420 C   0  0  0  0  0  0  0  0  0  0  0  0
   -5.0150  -32.0340    3.0820 C   0  0  0  0  0  0  0  0  0  0  0  0
   -5.5670  -30.9480    2.4370 C   0  0  0  0  0  0  0  0  0  0  0  0
   -6.0160  -29.9210    3.2160 C   0  0  0  0  0  0  0  0  0  0  0  0
   -5.8480  -30.0220    4.5940 C   0  0  0  0  0  0  0  0  0  0  0  0
   -5.3230  -31.1340    5.2110 C   0  0  0  0  0  0  0  0  0  0  0  0
   -5.1650  -31.2920    6.6150 C   0  0  0  0  0  0  0  0  0  0  0  0
   -4.2160  -33.3880    6.3750 N   0  0  0  0  0  0  0  0  0  0  0  0
   -4.6090  -32.3870    7.1780 C   0  0  0  0  0  0  0  0  0  0  0  0
   -4.3850  -32.6160    8.4760 N   0  0  0  0  0  0  0  0  0  0  0  0
   -4.6790  -31.6400    9.2750 C   0  0  0  0  0  0  0  0  0  0  0  0
   -5.2230  -30.4930    8.8310 C   0  0  0  0  0  0  0  0  0  0  0  0
   -5.4490  -30.3320    7.4930 C   0  0  0  0  0  0  0  0  0  0  0  0
   -6.0590  -29.2090    7.0100 N   0  0  0  0  0  0  0  0  0  0  0  0
   -7.1550  -28.6290    7.7030 C   0  0  0  0  0  0  0  0  0  0  0  0
   -8.3450  -29.2220    8.1340 C   0  0  0  0  0  0  0  0  0  0  0  0
   -9.2700  -28.4380    8.8480 C   0  0  0  0  0  0  0  0  0  0  0  0
   -6.9540  -27.2920    8.0110 C   0  0  0  0  0  0  0  0  0  0  0  0
   -7.8330  -26.5270    8.7230 C   0  0  0  0  0  0  0  0  0  0  0  0
   -9.0010  -27.1070    9.1640 C   0  0  0  0  0  0  0  0  0  0  0  0
   -9.8200  -26.1810    9.8750 N   0  0  0  0  0  0  0  0  0  0  0  0
   -9.6610  -24.7700   10.1670 C   0  0  0  0  0  0  0  0  0  0  0  0
   -9.1640  -23.7580    9.5590 O   0  0  0  0  0  0  0  0  0  0  0  0
  -10.4340  -24.5710   11.4360 C   0  0  0  0  0  0  0  0  0  0  0  0
  -11.0630  -23.3260   11.7190 C   0  0  0  0  0  0  0  0  0  0  0  0
  -11.8630  -23.1550   12.8440 C   0  0  0  0  0  0  0  0  0  0  0  0
  -12.0090  -24.2610   13.6730 C   0  0  0  0  0  0  0  0  0  0  0  0
  -11.3980  -25.4900   13.4150 C   0  0  0  0  0  0  0  0  0  0  0  0
  -10.6330  -25.6870   12.2720 C   0  0  0  0  0  0  0  0  0  0  0  0
   -4.6522  -32.8741    2.4716 H   0  0  0  0  0  0  0  0  0  0  0  0
   -5.6425  -30.9106    1.3402 H   0  0  0  0  0  0  0  0  0  0  0  0
   -6.4967  -29.0390    2.7677 H   0  0  0  0  0  0  0  0  0  0  0  0
   -6.1501  -29.1702    5.2210 H   0  0  0  0  0  0  0  0  0  0  0  0
   -3.8062  -34.2414    6.7809 H   0  0  0  0  0  0  0  0  0  0  0  0
   -4.4774  -31.7528   10.3505 H   0  0  0  0  0  0  0  0  0  0  0  0
   -5.4836  -29.6919    9.5383 H   0  0  0  0  0  0  0  0  0  0  0  0
   -5.7216  -28.7796    6.1367 H   0  0  0  0  0  0  0  0  0  0  0  0
   -8.5543  -30.2804    7.9194 H   0  0  0  0  0  0  0  0  0  0  0  0
  -10.2247  -28.8843    9.1632 H   0  0  0  0  0  0  0  0  0  0  0  0
   -6.0265  -26.8169    7.6590 H   0  0  0  0  0  0  0  0  0  0  0  0
   -7.6127  -25.4712    8.9393 H   0  0  0  0  0  0  0  0  0  0  0  0
  -10.6865  -26.5915   10.2514 H   0  0  0  0  0  0  0  0  0  0  0  0
  -10.9131  -22.4797   11.0324 H   0  0  0  0  0  0  0  0  0  0  0  0
  -12.3538  -22.1958   13.0657 H   0  0  0  0  0  0  0  0  0  0  0  0
  -12.6340  -24.1639   14.5729 H   0  0  0  0  0  0  0  0  0  0  0  0
  -11.5246  -26.3168   14.1294 H   0  0  0  0  0  0  0  0  0  0  0  0
  -10.2023  -26.6700   12.0309 H   0  0  0  0  0  0  0  0  0  0  0  0
  5  4  1  0
  5  6  2  0
  4  3  2  0
  6  7  1  0
  3  2  1  0
  3  8  1  0
  7  8  2  0
  1  2  2  0
  2 10  1  0
  8  9  1  0
 10 11  1  0
  9 11  2  0
  9 15  1  0
 16 15  1  0
 16 17  1  0
 11 12  1  0
 15 14  2  0
 17 20  1  0
 17 18  2  0
 20 21  2  0
 18 19  1  0
 12 13  2  0
 21 22  1  0
 14 13  1  0
 19 22  2  0
 22 23  1  0
 25 24  2  0
 23 24  1  0
 24 26  1  0
 26 27  2  0
 26 31  1  0
 27 28  1  0
 31 30  2  0
 28 29  2  0
 30 29  1  0
  4 32  1  0
  5 33  1  0
  6 34  1  0
  7 35  1  0
 10 36  1  0
 13 37  1  0
 14 38  1  0
 16 39  1  0
 18 40  1  0
 19 41  1  0
 20 42  1  0
 21 43  1  0
 23 44  1  0
 27 45  1  0
 28 46  1  0
 29 47  1  0
 30 48  1  0
 31 49  1  0
A    1
O12
A    2
C8
A    3
C7
A    4
C6
A    5
C5
A    6
C1
A    7
C2
A    8
C3
A    9
C4
A   10
N1
A   11
C9
A   12
N2
A   13
C10
A   14
C11
A   15
C12
A   16
N3
A   17
C13
A   18
C14
A   19
C15
A   20
C18
A   21
C17
A   22
C16
A   23
N4
A   24
C19
A   25
O38
A   26
C20
A   27
C21
A   28
C22
A   29
C23
A   30
C24
A   31
C25
M  END
