4JBS_P52_A_1009
     RDKit          3D

 73 75  0  0  0  0  0  0  0  0999 V2000
   20.5360    5.5820    0.7930 O   0  0  0  0  0  0  0  0  0  0  0  0
   20.1780    3.2700    0.2710 O   0  0  0  0  0  0  0  0  0  0  0  0
   16.8340    3.4090    3.0480 C   0  0  0  0  0  0  0  0  0  0  0  0
   15.8140    2.2780    3.0250 C   0  0  0  0  0  0  0  0  0  0  0  0
   14.4530    2.4320    2.8050 C   0  0  0  0  0  0  0  0  0  0  0  0
   13.6460    1.2870    2.7930 C   0  0  0  0  0  0  0  0  0  0  0  0
   14.1200    0.0270    2.9840 C   0  0  0  0  0  0  0  0  0  0  0  0
   15.4950   -0.1410    3.2040 C   0  0  0  0  0  0  0  0  0  0  0  0
   17.6300    5.1390    0.5840 N   0  0  0  0  0  0  0  0  0  0  0  0
   16.3150    0.9970    3.2190 C   0  0  0  0  0  0  0  0  0  0  0  0
   17.6830    3.3060    1.7870 C   0  0  0  0  0  0  0  0  0  0  0  0
   19.5300    1.0650    2.3080 O   0  0  0  0  0  0  0  0  0  0  0  0
   18.2340    4.5180    1.5380 C   0  0  0  0  0  0  0  0  0  0  0  0
   20.5060    1.3720    2.9700 C   0  0  0  0  0  0  0  0  0  0  0  0
   20.6630    3.9370    2.6540 C   0  0  0  0  0  0  0  0  0  0  0  0
   21.3810    2.5530    2.5660 C   0  0  0  0  0  0  0  0  0  0  0  0
   20.6530    0.7810    4.2640 N   0  0  0  0  0  0  0  0  0  0  0  0
   22.6460    2.6050    3.4800 C   0  0  0  0  0  0  0  0  0  0  0  0
   23.9490    2.1440    2.8080 C   0  0  0  0  0  0  0  0  0  0  0  0
   24.9390    3.3000    2.6390 C   0  0  0  0  0  0  0  0  0  0  0  0
   23.5850    1.5330    1.4510 C   0  0  0  0  0  0  0  0  0  0  0  0
   21.0760   -0.3830    5.0410 C   0  0  0  0  0  0  0  0  0  0  0  0
   18.8140   -2.0220    1.4600 N   0  0  0  0  0  0  0  0  0  0  0  0
   19.9710    4.3240    1.2620 P   0  0  0  0  0  0  0  0  0  0  0  0
   22.4550   -0.8760    4.6060 C   0  0  0  0  0  0  0  0  0  0  0  0
   20.0550   -1.5140    4.9130 C   0  0  0  0  0  0  0  0  0  0  0  0
   19.7780   -1.8930    3.4870 C   0  0  0  0  0  0  0  0  0  0  0  0
   18.7280   -1.4770    2.7220 C   0  0  0  0  0  0  0  0  0  0  0  0
   20.5720   -2.7490    2.6480 C   0  0  0  0  0  0  0  0  0  0  0  0
   19.9360   -2.8080    1.3900 C   0  0  0  0  0  0  0  0  0  0  0  0
   21.7540   -3.4770    2.8410 C   0  0  0  0  0  0  0  0  0  0  0  0
   20.4450   -3.5650    0.3260 C   0  0  0  0  0  0  0  0  0  0  0  0
   22.2550   -4.2280    1.7780 C   0  0  0  0  0  0  0  0  0  0  0  0
   21.6000   -4.2630    0.5420 C   0  0  0  0  0  0  0  0  0  0  0  0
   22.8200   -0.7700    3.4380 O   0  0  0  0  0  0  0  0  0  0  0  0
   23.2750   -1.6050    5.5220 N   0  0  0  0  0  0  0  0  0  0  0  0
   20.3467    2.4110    0.7332 H   0  0  0  0  0  0  0  0  0  0  0  0
   16.3152    4.3787    3.0700 H   0  0  0  0  0  0  0  0  0  0  0  0
   17.4692    3.3313    3.9427 H   0  0  0  0  0  0  0  0  0  0  0  0
   14.0179    3.4293    2.6438 H   0  0  0  0  0  0  0  0  0  0  0  0
   12.5673    1.4145    2.6191 H   0  0  0  0  0  0  0  0  0  0  0  0
   13.4420   -0.8390    2.9664 H   0  0  0  0  0  0  0  0  0  0  0  0
   15.9209   -1.1429    3.3613 H   0  0  0  0  0  0  0  0  0  0  0  0
   16.9678    5.8198    0.9826 H   0  0  0  0  0  0  0  0  0  0  0  0
   18.3226    5.6331    0.0034 H   0  0  0  0  0  0  0  0  0  0  0  0
   17.3941    0.8704    3.3906 H   0  0  0  0  0  0  0  0  0  0  0  0
   18.4782    2.5606    1.9353 H   0  0  0  0  0  0  0  0  0  0  0  0
   17.0579    2.9951    0.9369 H   0  0  0  0  0  0  0  0  0  0  0  0
   18.1028    5.1639    2.4187 H   0  0  0  0  0  0  0  0  0  0  0  0
   19.8917    3.8913    3.4370 H   0  0  0  0  0  0  0  0  0  0  0  0
   21.4151    4.7035    2.8925 H   0  0  0  0  0  0  0  0  0  0  0  0
   21.6414    2.3845    1.5106 H   0  0  0  0  0  0  0  0  0  0  0  0
   20.3138    1.4773    4.9429 H   0  0  0  0  0  0  0  0  0  0  0  0
   22.7832    3.6438    3.8149 H   0  0  0  0  0  0  0  0  0  0  0  0
   22.4593    1.9025    4.3056 H   0  0  0  0  0  0  0  0  0  0  0  0
   24.4482    1.3978    3.4436 H   0  0  0  0  0  0  0  0  0  0  0  0
   25.2505    3.6637    3.6293 H   0  0  0  0  0  0  0  0  0  0  0  0
   25.8210    2.9491    2.0832 H   0  0  0  0  0  0  0  0  0  0  0  0
   24.4567    4.1175    2.0832 H   0  0  0  0  0  0  0  0  0  0  0  0
   23.0278    0.5976    1.6077 H   0  0  0  0  0  0  0  0  0  0  0  0
   22.9614    2.2410    0.8855 H   0  0  0  0  0  0  0  0  0  0  0  0
   24.5045    1.3217    0.8855 H   0  0  0  0  0  0  0  0  0  0  0  0
   21.1397   -0.0715    6.0940 H   0  0  0  0  0  0  0  0  0  0  0  0
   18.1445   -1.8649    0.6932 H   0  0  0  0  0  0  0  0  0  0  0  0
   20.4418   -2.3974    5.4421 H   0  0  0  0  0  0  0  0  0  0  0  0
   19.1104   -1.1566    5.3488 H   0  0  0  0  0  0  0  0  0  0  0  0
   17.9281   -0.8036    3.0636 H   0  0  0  0  0  0  0  0  0  0  0  0
   22.2750   -3.4565    3.8096 H   0  0  0  0  0  0  0  0  0  0  0  0
   19.9336   -3.5962   -0.6474 H   0  0  0  0  0  0  0  0  0  0  0  0
   23.1825   -4.8036    1.9138 H   0  0  0  0  0  0  0  0  0  0  0  0
   22.0243   -4.8660   -0.2743 H   0  0  0  0  0  0  0  0  0  0  0  0
   23.1432   -1.4878    6.5368 H   0  0  0  0  0  0  0  0  0  0  0  0
   23.9977   -2.2475    5.1673 H   0  0  0  0  0  0  0  0  0  0  0  0
 36 25  1  0
 22 25  1  0
 22 17  1  0
 22 26  1  0
 25 35  2  0
  3  4  1  0
  3 11  1  0
 17 14  1  0
 10  4  1  0
 10  8  2  0
  4  5  2  0
 18 16  1  0
 18 19  1  0
 15 16  1  0
 15 24  1  0
 20 19  1  0
  8  7  1  0
 26 27  1  0
  5  6  1  0
  7  6  2  0
 14 16  1  0
 14 12  2  0
 19 21  1  0
 13 11  1  0
 13 24  1  0
 13  9  1  0
  1 24  2  0
 24  2  1  0
 27 29  1  0
 27 28  2  0
 31 29  1  0
 31 33  2  0
 29 30  2  0
 28 23  1  0
 33 34  1  0
 30 23  1  0
 30 32  1  0
 34 32  2  0
  2 37  1  0
  3 38  1  0
  3 39  1  0
  5 40  1  0
  6 41  1  0
  7 42  1  0
  8 43  1  0
  9 44  1  0
  9 45  1  0
 10 46  1  0
 11 47  1  0
 11 48  1  0
 13 49  1  0
 15 50  1  0
 15 51  1  0
 16 52  1  0
 17 53  1  0
 18 54  1  0
 18 55  1  0
 19 56  1  0
 20 57  1  0
 20 58  1  0
 20 59  1  0
 21 60  1  0
 21 61  1  0
 21 62  1  0
 22 63  1  0
 23 64  1  0
 26 65  1  0
 26 66  1  0
 28 67  1  0
 31 68  1  0
 32 69  1  0
 33 70  1  0
 34 71  1  0
 36 72  1  0
 36 73  1  0
A    1
O1
A    2
O2
A    3
C1
A    4
C2
A    5
C3
A    6
C4
A    7
C5
A    8
C6
A    9
N1
A   10
C7
A   11
C8
A   12
O3
A   13
C9
A   14
C10
A   15
C11
A   16
C12
A   17
N2
A   18
C13
A   19
C14
A   20
C15
A   21
C16
A   22
C17
A   23
N3
A   24
P1
A   25
C18
A   26
C19
A   27
C20
A   28
C21
A   29
C22
A   30
C23
A   31
C24
A   32
C25
A   33
C26
A   34
C27
A   35
O4
A   36
N4
M  END
