1G2A_BB2_A_1001
     RDKit          3D

 62 62  0  0  0  0  0  0  0  0999 V2000
   42.4640    3.5630   14.5930 C   0  0  0  0  0  0  0  0  0  0  0  0
   42.2320    3.0330   16.0140 C   0  0  0  0  0  0  0  0  0  0  0  0
   41.2580    3.5170   16.6180 O   0  0  0  0  0  0  0  0  0  0  0  0
   42.8500    1.9350   16.4260 N   0  0  0  0  0  0  0  0  0  0  0  0
   42.7700    1.4900   17.5700 O   0  0  0  0  0  0  0  0  0  0  0  0
   43.3060    4.8970   14.6740 C   0  0  0  0  0  0  0  0  0  0  0  0
   43.4070    5.6930   13.3660 C   0  0  0  0  0  0  0  0  0  0  0  0
   43.2940    5.1690   12.2660 O   0  0  0  0  0  0  0  0  0  0  0  0
   44.7560    4.3510   14.9070 C   0  0  0  0  0  0  0  0  0  0  0  0
   45.7250    5.5210   15.1510 C   0  0  0  0  0  0  0  0  0  0  0  0
   47.1440    5.0270   15.4050 C   0  0  0  0  0  0  0  0  0  0  0  0
   48.0630    6.1120   15.9640 C   0  0  0  0  0  0  0  0  0  0  0  0
   48.2490    7.2670   15.0410 C   0  0  0  0  0  0  0  0  0  0  0  0
   43.3670    7.0010   13.5050 N   0  0  0  0  0  0  0  0  0  0  0  0
   43.6770    7.9330   12.4360 C   0  0  0  0  0  0  0  0  0  0  0  0
   42.4910    8.8180   12.0470 C   0  0  0  0  0  0  0  0  0  0  0  0
   41.8520    9.4370   13.2720 C   0  0  0  0  0  0  0  0  0  0  0  0
   41.4970    7.9190   11.3110 C   0  0  0  0  0  0  0  0  0  0  0  0
   44.8490    8.7940   12.9120 C   0  0  0  0  0  0  0  0  0  0  0  0
   44.9400    9.1160   14.0910 O   0  0  0  0  0  0  0  0  0  0  0  0
   45.7120    9.1780   11.9970 N   0  0  0  0  0  0  0  0  0  0  0  0
   46.8910    9.9700   12.3090 C   0  0  0  0  0  0  0  0  0  0  0  0
   45.6620    8.7700   10.5660 C   0  0  0  0  0  0  0  0  0  0  0  0
   46.8650    9.4690    9.9800 C   0  0  0  0  0  0  0  0  0  0  0  0
   47.8080    9.6480   11.1280 C   0  0  0  0  0  0  0  0  0  0  0  0
   46.6350   11.4650   12.4260 C   0  0  0  0  0  0  0  0  0  0  0  0
   47.5670   12.1760   12.9050 O   0  0  0  0  0  0  0  0  0  0  0  0
   43.0149    2.8140   14.0052 H   0  0  0  0  0  0  0  0  0  0  0  0
   41.4972    3.7621   14.1077 H   0  0  0  0  0  0  0  0  0  0  0  0
   43.4322    1.4237   15.7474 H   0  0  0  0  0  0  0  0  0  0  0  0
   42.9021    2.2250   18.2200 H   0  0  0  0  0  0  0  0  0  0  0  0
   42.8524    5.5645   15.4214 H   0  0  0  0  0  0  0  0  0  0  0  0
   44.7587    3.6866   15.7837 H   0  0  0  0  0  0  0  0  0  0  0  0
   45.0798    3.7933   14.0158 H   0  0  0  0  0  0  0  0  0  0  0  0
   45.7269    6.1741   14.2659 H   0  0  0  0  0  0  0  0  0  0  0  0
   45.3859    6.0700   16.0419 H   0  0  0  0  0  0  0  0  0  0  0  0
   47.1025    4.1972   16.1259 H   0  0  0  0  0  0  0  0  0  0  0  0
   47.5601    4.7100   14.4373 H   0  0  0  0  0  0  0  0  0  0  0  0
   47.6305    6.4840   16.9045 H   0  0  0  0  0  0  0  0  0  0  0  0
   49.0519    5.6537   16.1121 H   0  0  0  0  0  0  0  0  0  0  0  0
   48.3969    8.1854   15.6281 H   0  0  0  0  0  0  0  0  0  0  0  0
   49.1304    7.0913   14.4068 H   0  0  0  0  0  0  0  0  0  0  0  0
   47.3570    7.3769   14.4068 H   0  0  0  0  0  0  0  0  0  0  0  0
   43.1010    7.3848   14.4231 H   0  0  0  0  0  0  0  0  0  0  0  0
   43.9314    7.3631   11.5302 H   0  0  0  0  0  0  0  0  0  0  0  0
   42.8176    9.6509   11.4070 H   0  0  0  0  0  0  0  0  0  0  0  0
   42.3000    9.0031   14.1781 H   0  0  0  0  0  0  0  0  0  0  0  0
   42.0208   10.5239   13.2640 H   0  0  0  0  0  0  0  0  0  0  0  0
   40.7710    9.2337   13.2640 H   0  0  0  0  0  0  0  0  0  0  0  0
   40.8884    7.3686   12.0435 H   0  0  0  0  0  0  0  0  0  0  0  0
   40.8413    8.5370   10.6800 H   0  0  0  0  0  0  0  0  0  0  0  0
   42.0462    7.2047   10.6800 H   0  0  0  0  0  0  0  0  0  0  0  0
   47.3036    9.7226   13.2982 H   0  0  0  0  0  0  0  0  0  0  0  0
   45.7475    7.6783   10.4615 H   0  0  0  0  0  0  0  0  0  0  0  0
   44.7174    9.0357   10.0689 H   0  0  0  0  0  0  0  0  0  0  0  0
   47.3255    8.8522    9.1943 H   0  0  0  0  0  0  0  0  0  0  0  0
   46.5977   10.4280    9.5122 H   0  0  0  0  0  0  0  0  0  0  0  0
   48.5053   10.4769   10.9364 H   0  0  0  0  0  0  0  0  0  0  0  0
   48.4338    8.7610   11.3058 H   0  0  0  0  0  0  0  0  0  0  0  0
   46.4157   11.8432   11.4166 H   0  0  0  0  0  0  0  0  0  0  0  0
   45.8097   11.5557   13.1476 H   0  0  0  0  0  0  0  0  0  0  0  0
   47.5292   12.1471   13.8939 H   0  0  0  0  0  0  0  0  0  0  0  0
  1  2  1  0
  1  6  1  0
  2  3  2  0
  2  4  1  0
  4  5  1  0
  6  7  1  0
  6  9  1  0
  7  8  2  0
  7 14  1  0
  9 10  1  0
 10 11  1  0
 11 12  1  0
 12 13  1  0
 14 15  1  0
 15 16  1  0
 15 19  1  0
 16 17  1  0
 16 18  1  0
 19 20  2  0
 19 21  1  0
 21 22  1  0
 21 23  1  0
 22 25  1  0
 22 26  1  0
 23 24  1  0
 24 25  1  0
 26 27  1  0
  1 28  1  0
  1 29  1  0
  4 30  1  0
  5 31  1  0
  6 32  1  0
  9 33  1  0
  9 34  1  0
 10 35  1  0
 10 36  1  0
 11 37  1  0
 11 38  1  0
 12 39  1  0
 12 40  1  0
 13 41  1  0
 13 42  1  0
 13 43  1  0
 14 44  1  0
 15 45  1  0
 16 46  1  0
 17 47  1  0
 17 48  1  0
 17 49  1  0
 18 50  1  0
 18 51  1  0
 18 52  1  0
 22 53  1  0
 23 54  1  0
 23 55  1  0
 24 56  1  0
 24 57  1  0
 25 58  1  0
 25 59  1  0
 26 60  1  0
 26 61  1  0
 27 62  1  0
A    1
C5
A    2
C3
A    3
O4
A    4
N1
A    5
O2
A    6
C6
A    7
C12
A    8
O13
A    9
C7
A   10
C8
A   11
C9
A   12
C10
A   13
C11
A   14
N14
A   15
C15
A   16
C16
A   17
C18
A   18
C17
A   19
C19
A   20
O20
A   21
N21
A   22
C22
A   23
C23
A   24
C24
A   25
C25
A   26
C26
A   27
O27
M  END
