4JEW_P00_A_501
     RDKit          3D

 42 42  0  0  0  0  0  0  0  0999 V2000
   68.1710   40.1260   37.0620 O   0  0  0  0  0  0  0  0  0  0  0  0
   67.7080   41.5640   37.1000 P   0  0  0  0  0  0  0  0  0  0  0  0
   68.8210   42.5810   37.2370 O   0  0  0  0  0  0  0  0  0  0  0  0
   66.8070   41.9370   35.9670 O   0  0  0  0  0  0  0  0  0  0  0  0
   66.8640   41.6240   38.4900 O   0  0  0  0  0  0  0  0  0  0  0  0
   66.0470   42.7970   38.7560 C   0  0  0  0  0  0  0  0  0  0  0  0
   65.7790   42.8400   40.2540 C   0  0  0  0  0  0  0  0  0  0  0  0
   64.4790   42.5760   40.6750 C   0  0  0  0  0  0  0  0  0  0  0  0
   64.1840   42.5960   41.9950 N   0  0  0  0  0  0  0  0  0  0  0  0
   65.1010   42.8540   42.9250 C   0  0  0  0  0  0  0  0  0  0  0  0
   64.6340   42.8330   44.3500 C   0  0  0  0  0  0  0  0  0  0  0  0
   66.4260   43.1380   42.5640 C   0  0  0  0  0  0  0  0  0  0  0  0
   67.3370   43.4290   43.5110 O   0  0  0  0  0  0  0  0  0  0  0  0
   66.7620   43.1380   41.2010 C   0  0  0  0  0  0  0  0  0  0  0  0
   68.1290   43.4350   40.6950 C   0  0  0  0  0  0  0  0  0  0  0  0
   69.0000   44.1560   41.3680 N   0  0  0  0  0  0  0  0  0  0  0  0
   70.1820   44.3200   40.7690 O   0  0  0  0  0  0  0  0  0  0  0  0
   70.9910   45.4510   41.0880 C   0  0  0  0  0  0  0  0  0  0  0  0
   70.6330   46.5930   40.1480 C   0  0  0  0  0  0  0  0  0  0  0  0
   71.0410   46.3250   38.6940 C   0  0  0  0  0  0  0  0  0  0  0  0
   72.5020   46.0710   38.5910 N   0  0  0  0  0  0  0  0  0  0  0  0
   70.6190   47.4930   37.8340 C   0  0  0  0  0  0  0  0  0  0  0  0
   69.6330   47.3550   37.0970 O   0  0  0  0  0  0  0  0  0  0  0  0
   71.2520   48.5670   37.8950 O   0  0  0  0  0  0  0  0  0  0  0  0
   68.2793   39.7896   37.9868 H   0  0  0  0  0  0  0  0  0  0  0  0
   69.0013   42.7457   38.1964 H   0  0  0  0  0  0  0  0  0  0  0  0
   66.5826   43.7059   38.4444 H   0  0  0  0  0  0  0  0  0  0  0  0
   65.1020   42.7453   38.1954 H   0  0  0  0  0  0  0  0  0  0  0  0
   63.6945   42.3520   39.9372 H   0  0  0  0  0  0  0  0  0  0  0  0
   65.5043   42.8721   45.0217 H   0  0  0  0  0  0  0  0  0  0  0  0
   63.9873   43.7030   44.5368 H   0  0  0  0  0  0  0  0  0  0  0  0
   64.0680   41.9085   44.5368 H   0  0  0  0  0  0  0  0  0  0  0  0
   67.0974   43.3525   44.4685 H   0  0  0  0  0  0  0  0  0  0  0  0
   68.4249   43.0340   39.7144 H   0  0  0  0  0  0  0  0  0  0  0  0
   72.0530   45.1916   40.9664 H   0  0  0  0  0  0  0  0  0  0  0  0
   70.8124   45.7555   42.1298 H   0  0  0  0  0  0  0  0  0  0  0  0
   71.1442   47.5039   40.4930 H   0  0  0  0  0  0  0  0  0  0  0  0
   69.5387   46.7030   40.1669 H   0  0  0  0  0  0  0  0  0  0  0  0
   70.5312   45.4194   38.3334 H   0  0  0  0  0  0  0  0  0  0  0  0
   72.9057   46.0008   39.5360 H   0  0  0  0  0  0  0  0  0  0  0  0
   72.6623   45.1895   38.0828 H   0  0  0  0  0  0  0  0  0  0  0  0
   71.4818   48.9568   38.7755 H   0  0  0  0  0  0  0  0  0  0  0  0
  4  2  2  0
  1  2  1  0
 23 22  2  0
  2  3  1  0
  2  5  1  0
 22 24  1  0
 22 20  1  0
  5  6  1  0
 21 20  1  0
 20 19  1  0
  6  7  1  0
 19 18  1  0
  7  8  2  0
  7 14  1  0
  8  9  1  0
 15 14  1  0
 15 16  2  0
 17 18  1  0
 17 16  1  0
 14 12  2  0
  9 10  2  0
 12 10  1  0
 12 13  1  0
 10 11  1  0
  1 25  1  0
  3 26  1  0
  6 27  1  0
  6 28  1  0
  8 29  1  0
 11 30  1  0
 11 31  1  0
 11 32  1  0
 13 33  1  0
 15 34  1  0
 18 35  1  0
 18 36  1  0
 19 37  1  0
 19 38  1  0
 20 39  1  0
 21 40  1  0
 21 41  1  0
 24 42  1  0
A    1
O23
A    2
P21
A    3
O24
A    4
O22
A    5
O20
A    6
C19
A    7
C5
A    8
C6
A    9
N1
A   10
C2
A   11
C7
A   12
C3
A   13
O8
A   14
C4
A   15
C9
A   16
N10
A   17
O11
A   18
C12
A   19
C13
A   20
C14
A   21
N16
A   22
C15
A   23
O18
A   24
O17
M  END
