4JFI_1KT_A_201
     RDKit          3D

 70 74  0  0  0  0  0  0  0  0999 V2000
   33.0840   13.0470  -16.9900 O   0  0  0  0  0  0  0  0  0  0  0  0
   32.0100   12.5710  -17.2590 C   0  0  0  0  0  0  0  0  0  0  0  0
   30.8540   13.1660  -16.7030 C   0  0  0  0  0  0  0  0  0  0  0  0
   31.8830   11.4380  -17.9970 N   0  0  0  0  0  0  0  0  0  0  0  0
   32.9930   10.9040  -18.7870 C   0  0  0  0  0  0  0  0  0  0  0  0
   32.6740   11.5930  -20.1930 C   0  0  0  0  0  0  0  0  0  0  0  0
   31.3540   11.0640  -20.6970 C   0  0  0  0  0  0  0  0  0  0  0  0
   31.1020   10.9140  -22.0410 C   0  0  0  0  0  0  0  0  0  0  0  0
   29.8900   10.3820  -22.4720 C   0  0  0  0  0  0  0  0  0  0  0  0
   29.6080   10.2390  -23.8220 O   0  0  0  0  0  0  0  0  0  0  0  0
   30.5780   10.8570  -24.6730 C   0  0  0  0  0  0  0  0  0  0  0  0
   28.9590    9.8650  -21.5870 C   0  0  0  0  0  0  0  0  0  0  0  0
   29.2280    9.9710  -20.2340 C   0  0  0  0  0  0  0  0  0  0  0  0
   28.4510    9.4330  -19.2870 O   0  0  0  0  0  0  0  0  0  0  0  0
   27.2110    8.7150  -19.6970 C   0  0  0  0  0  0  0  0  0  0  0  0
   30.4090   10.6070  -19.7590 C   0  0  0  0  0  0  0  0  0  0  0  0
   30.6300   10.7290  -18.2680 C   0  0  0  0  0  0  0  0  0  0  0  0
   29.4540   11.3930  -17.5040 C   0  0  0  0  0  0  0  0  0  0  0  0
   29.2470   10.8670  -16.1040 C   0  0  0  0  0  0  0  0  0  0  0  0
   30.3620   11.2500  -15.1880 C   0  0  0  0  0  0  0  0  0  0  0  0
   30.6830   12.7360  -15.2690 C   0  0  0  0  0  0  0  0  0  0  0  0
   29.6570   12.8580  -17.4740 N   0  0  0  0  0  0  0  0  0  0  0  0
   28.8370   13.7640  -18.0640 C   0  0  0  0  0  0  0  0  0  0  0  0
   29.1160   15.0100  -18.0200 O   0  0  0  0  0  0  0  0  0  0  0  0
   27.5860   13.2880  -18.7420 C   0  0  0  0  0  0  0  0  0  0  0  0
   26.6450   13.0260  -18.0230 O   0  0  0  0  0  0  0  0  0  0  0  0
   27.5690   13.1990  -20.2020 C   0  0  0  0  0  0  0  0  0  0  0  0
   28.6880   13.6840  -20.9280 C   0  0  0  0  0  0  0  0  0  0  0  0
   26.4380   12.6320  -20.8260 C   0  0  0  0  0  0  0  0  0  0  0  0
   26.3970   12.5900  -22.2240 C   0  0  0  0  0  0  0  0  0  0  0  0
   25.3040   12.0790  -22.8960 O   0  0  0  0  0  0  0  0  0  0  0  0
   24.1430   11.6720  -22.1800 C   0  0  0  0  0  0  0  0  0  0  0  0
   27.4830   13.0840  -22.9650 C   0  0  0  0  0  0  0  0  0  0  0  0
   27.4770   13.0680  -24.3690 O   0  0  0  0  0  0  0  0  0  0  0  0
   26.9690   11.9060  -25.0510 C   0  0  0  0  0  0  0  0  0  0  0  0
   28.6040   13.5960  -22.3340 C   0  0  0  0  0  0  0  0  0  0  0  0
   29.5990   13.9730  -23.1600 O   0  0  0  0  0  0  0  0  0  0  0  0
   30.7460   14.5130  -22.5550 C   0  0  0  0  0  0  0  0  0  0  0  0
   30.9938   14.2565  -16.7377 H   0  0  0  0  0  0  0  0  0  0  0  0
   32.9598    9.8064  -18.8513 H   0  0  0  0  0  0  0  0  0  0  0  0
   33.9954   11.1086  -18.3828 H   0  0  0  0  0  0  0  0  0  0  0  0
   33.4697   11.3520  -20.9133 H   0  0  0  0  0  0  0  0  0  0  0  0
   32.6215   12.6853  -20.0741 H   0  0  0  0  0  0  0  0  0  0  0  0
   31.8610   11.2156  -22.7778 H   0  0  0  0  0  0  0  0  0  0  0  0
   31.3468   11.3468  -24.0574 H   0  0  0  0  0  0  0  0  0  0  0  0
   31.0491   10.0922  -25.3079 H   0  0  0  0  0  0  0  0  0  0  0  0
   30.0839   11.6071  -25.3079 H   0  0  0  0  0  0  0  0  0  0  0  0
   28.0366    9.3862  -21.9475 H   0  0  0  0  0  0  0  0  0  0  0  0
   26.6590    8.3954  -18.8008 H   0  0  0  0  0  0  0  0  0  0  0  0
   26.5793    9.3871  -20.2964 H   0  0  0  0  0  0  0  0  0  0  0  0
   27.4794    7.8326  -20.2964 H   0  0  0  0  0  0  0  0  0  0  0  0
   30.6904    9.6993  -17.8857 H   0  0  0  0  0  0  0  0  0  0  0  0
   28.5374   11.1342  -18.0544 H   0  0  0  0  0  0  0  0  0  0  0  0
   28.3061   11.2759  -15.7073 H   0  0  0  0  0  0  0  0  0  0  0  0
   29.2149    9.7687  -16.1568 H   0  0  0  0  0  0  0  0  0  0  0  0
   30.0730   11.0050  -14.1553 H   0  0  0  0  0  0  0  0  0  0  0  0
   31.2592   10.6918  -15.4937 H   0  0  0  0  0  0  0  0  0  0  0  0
   31.6145   12.9348  -14.7188 H   0  0  0  0  0  0  0  0  0  0  0  0
   29.8504   13.3025  -14.8265 H   0  0  0  0  0  0  0  0  0  0  0  0
   29.5704   14.1045  -20.4235 H   0  0  0  0  0  0  0  0  0  0  0  0
   25.6068   12.2318  -20.2269 H   0  0  0  0  0  0  0  0  0  0  0  0
   24.3362   11.7397  -21.0992 H   0  0  0  0  0  0  0  0  0  0  0  0
   23.3007   12.3284  -22.4437 H   0  0  0  0  0  0  0  0  0  0  0  0
   23.8949   10.6333  -22.4437 H   0  0  0  0  0  0  0  0  0  0  0  0
   26.6429   11.1600  -24.3113 H   0  0  0  0  0  0  0  0  0  0  0  0
   26.1151   12.1949  -25.6814 H   0  0  0  0  0  0  0  0  0  0  0  0
   27.7610   11.4754  -25.6814 H   0  0  0  0  0  0  0  0  0  0  0  0
   30.6413   14.4637  -21.4611 H   0  0  0  0  0  0  0  0  0  0  0  0
   31.6300   13.9365  -22.8651 H   0  0  0  0  0  0  0  0  0  0  0  0
   30.8649   15.5617  -22.8651 H   0  0  0  0  0  0  0  0  0  0  0  0
 35 34  1  0
 11 10  1  0
 34 33  1  0
 10  9  1  0
 37 38  1  0
 37 36  1  0
 33 36  1  0
 33 30  2  0
 31 30  1  0
 31 32  1  0
  9  8  2  0
  9 12  1  0
 36 28  2  0
 30 29  1  0
  8  7  1  0
 12 13  2  0
 28 27  1  0
 29 27  2  0
  7  6  1  0
  7 16  2  0
 13 16  1  0
 13 14  1  0
 27 25  1  0
  6  5  1  0
 16 17  1  0
 15 14  1  0
  5  4  1  0
 25 23  1  0
 25 26  2  0
 17  4  1  0
 17 18  1  0
 23 24  2  0
 23 22  1  0
  4  2  1  0
 18 22  1  0
 18 19  1  0
 22  3  1  0
  2  1  2  0
  2  3  1  0
  3 21  1  0
 19 20  1  0
 21 20  1  0
  3 39  1  0
  5 40  1  0
  5 41  1  0
  6 42  1  0
  6 43  1  0
  8 44  1  0
 11 45  1  0
 11 46  1  0
 11 47  1  0
 12 48  1  0
 15 49  1  0
 15 50  1  0
 15 51  1  0
 17 52  1  0
 18 53  1  0
 19 54  1  0
 19 55  1  0
 20 56  1  0
 20 57  1  0
 21 58  1  0
 21 59  1  0
 28 60  1  0
 29 61  1  0
 32 62  1  0
 32 63  1  0
 32 64  1  0
 35 65  1  0
 35 66  1  0
 35 67  1  0
 38 68  1  0
 38 69  1  0
 38 70  1  0
A    1
O3
A    2
C11
A    3
C12
A    4
N10
A    5
C9
A    6
C8
A    7
C7
A    8
C6
A    9
C5
A   10
O2
A   11
C27
A   12
C4
A   13
C3
A   14
O1
A   15
C26
A   16
C2
A   17
C1
A   18
C16
A   19
C15
A   20
C14
A   21
C13
A   22
N17
A   23
C18
A   24
O4
A   25
C19
A   26
O5
A   27
C20
A   28
C21
A   29
C25
A   30
C24
A   31
O8
A   32
C30
A   33
C23
A   34
O7
A   35
C29
A   36
C22
A   37
O6
A   38
C28
M  END
