4JFJ_1KU_A_201
     RDKit          3D

 65 69  0  0  0  0  0  0  0  0999 V2000
    9.7600   40.0780   17.9400 C   0  0  0  0  0  0  0  0  0  0  0  0
   12.1960   40.3520   18.1350 N   0  0  0  0  0  0  0  0  0  0  0  0
    8.6780   40.3930   17.4660 O   0  0  0  0  0  0  0  0  0  0  0  0
   11.0020   40.7080   17.3160 C   0  0  0  0  0  0  0  0  0  0  0  0
   11.1040   40.2700   15.8600 C   0  0  0  0  0  0  0  0  0  0  0  0
    5.3490   44.8200   20.3450 C   0  0  0  0  0  0  0  0  0  0  0  0
    4.3270   43.9620   19.8420 O   0  0  0  0  0  0  0  0  0  0  0  0
    4.7510   42.6790   19.7080 C   0  0  0  0  0  0  0  0  0  0  0  0
    5.9430   42.2600   20.2850 C   0  0  0  0  0  0  0  0  0  0  0  0
    3.9690   41.7840   18.9930 C   0  0  0  0  0  0  0  0  0  0  0  0
    2.8010   42.2250   18.4350 O   0  0  0  0  0  0  0  0  0  0  0  0
    1.7600   41.2570   18.5460 C   0  0  0  0  0  0  0  0  0  0  0  0
    4.3990   40.4660   18.8600 C   0  0  0  0  0  0  0  0  0  0  0  0
    5.5990   40.0450   19.4340 C   0  0  0  0  0  0  0  0  0  0  0  0
    6.3800   40.9460   20.1520 C   0  0  0  0  0  0  0  0  0  0  0  0
    7.5700   40.5960   20.7380 O   0  0  0  0  0  0  0  0  0  0  0  0
    7.9220   39.2020   20.7640 C   0  0  0  0  0  0  0  0  0  0  0  0
    8.3930   38.6830   19.4040 C   0  0  0  0  0  0  0  0  0  0  0  0
    9.7030   39.2240   18.9700 N   0  0  0  0  0  0  0  0  0  0  0  0
   10.9180   38.7490   19.6590 C   0  0  0  0  0  0  0  0  0  0  0  0
   11.8350   37.9970   18.6890 C   0  0  0  0  0  0  0  0  0  0  0  0
   12.7360   38.9760   17.9270 C   0  0  0  0  0  0  0  0  0  0  0  0
   12.7780   38.5460   16.4630 C   0  0  0  0  0  0  0  0  0  0  0  0
   11.4280   38.7890   15.8060 C   0  0  0  0  0  0  0  0  0  0  0  0
   13.3740   41.5500   18.2230 S   0  0  0  0  0  0  0  0  0  0  0  0
   12.7700   42.8460   17.8250 O   0  0  0  0  0  0  0  0  0  0  0  0
   14.5800   41.1900   17.4140 O   0  0  0  0  0  0  0  0  0  0  0  0
   13.8030   41.5760   19.9160 C   0  0  0  0  0  0  0  0  0  0  0  0
   14.9200   40.8840   20.3320 C   0  0  0  0  0  0  0  0  0  0  0  0
   15.3030   40.8600   21.6700 C   0  0  0  0  0  0  0  0  0  0  0  0
   16.5900   40.1320   22.4830 S   0  0  0  0  0  0  0  0  0  0  0  0
   16.1690   40.6970   24.0190 C   0  0  0  0  0  0  0  0  0  0  0  0
   15.0530   41.4310   23.8810 N   0  0  0  0  0  0  0  0  0  0  0  0
   14.5530   41.5460   22.6310 C   0  0  0  0  0  0  0  0  0  0  0  0
   13.4220   42.2430   22.2050 C   0  0  0  0  0  0  0  0  0  0  0  0
   13.0490   42.2510   20.8630 C   0  0  0  0  0  0  0  0  0  0  0  0
   10.9390   41.8062   17.3128 H   0  0  0  0  0  0  0  0  0  0  0  0
   10.1462   40.4558   15.3520 H   0  0  0  0  0  0  0  0  0  0  0  0
   11.8987   40.8407   15.3573 H   0  0  0  0  0  0  0  0  0  0  0  0
    5.3316   44.8054   21.4448 H   0  0  0  0  0  0  0  0  0  0  0  0
    6.3293   44.4703   19.9891 H   0  0  0  0  0  0  0  0  0  0  0  0
    5.1744   45.8461   19.9891 H   0  0  0  0  0  0  0  0  0  0  0  0
    6.5505   42.9779   20.8556 H   0  0  0  0  0  0  0  0  0  0  0  0
    1.5514   41.0631   19.6085 H   0  0  0  0  0  0  0  0  0  0  0  0
    0.8511   41.6383   18.0576 H   0  0  0  0  0  0  0  0  0  0  0  0
    2.0743   40.3229   18.0576 H   0  0  0  0  0  0  0  0  0  0  0  0
    3.7853   39.7484   18.2957 H   0  0  0  0  0  0  0  0  0  0  0  0
    5.9277   39.0016   19.3192 H   0  0  0  0  0  0  0  0  0  0  0  0
    8.7316   39.0577   21.4946 H   0  0  0  0  0  0  0  0  0  0  0  0
    7.0185   38.6378   21.0385 H   0  0  0  0  0  0  0  0  0  0  0  0
    8.4737   37.5875   19.4615 H   0  0  0  0  0  0  0  0  0  0  0  0
    7.6512   39.0163   18.6633 H   0  0  0  0  0  0  0  0  0  0  0  0
   11.4600   39.6130   20.0711 H   0  0  0  0  0  0  0  0  0  0  0  0
   10.6203   38.0633   20.4659 H   0  0  0  0  0  0  0  0  0  0  0  0
   12.4633   37.2949   19.2567 H   0  0  0  0  0  0  0  0  0  0  0  0
   11.2126   37.4515   17.9644 H   0  0  0  0  0  0  0  0  0  0  0  0
   13.7742   38.9742   18.2905 H   0  0  0  0  0  0  0  0  0  0  0  0
   13.5488   39.1270   15.9355 H   0  0  0  0  0  0  0  0  0  0  0  0
   13.0152   37.4732   16.4104 H   0  0  0  0  0  0  0  0  0  0  0  0
   10.6515   38.2231   16.3415 H   0  0  0  0  0  0  0  0  0  0  0  0
   11.4630   38.4572   14.7578 H   0  0  0  0  0  0  0  0  0  0  0  0
   15.5221   40.3387   19.5903 H   0  0  0  0  0  0  0  0  0  0  0  0
   16.7086   40.5002   24.9571 H   0  0  0  0  0  0  0  0  0  0  0  0
   12.8162   42.7941   22.9394 H   0  0  0  0  0  0  0  0  0  0  0  0
   12.1471   42.7984   20.5517 H   0  0  0  0  0  0  0  0  0  0  0  0
  4  1  1  0
  3  1  2  0
  1 19  1  0
  4  2  1  0
 22  2  1  0
  2 25  1  0
  5  4  1  0
 24  5  1  0
  7  6  1  0
  8  7  1  0
 10  8  2  0
  8  9  1  0
 15  9  2  0
 11 10  1  0
 13 10  1  0
 11 12  1  0
 13 14  2  0
 14 15  1  0
 15 16  1  0
 16 17  1  0
 18 17  1  0
 19 18  1  0
 19 20  1  0
 21 20  1  0
 22 21  1  0
 23 22  1  0
 24 23  1  0
 27 25  2  0
 26 25  2  0
 25 28  1  0
 28 29  2  0
 28 36  1  0
 29 30  1  0
 30 31  1  0
 30 34  2  0
 31 32  1  0
 33 32  2  0
 34 33  1  0
 35 34  1  0
 36 35  2  0
  4 37  1  0
  5 38  1  0
  5 39  1  0
  6 40  1  0
  6 41  1  0
  6 42  1  0
  9 43  1  0
 12 44  1  0
 12 45  1  0
 12 46  1  0
 13 47  1  0
 14 48  1  0
 17 49  1  0
 17 50  1  0
 18 51  1  0
 18 52  1  0
 20 53  1  0
 20 54  1  0
 21 55  1  0
 21 56  1  0
 22 57  1  0
 23 58  1  0
 23 59  1  0
 24 60  1  0
 24 61  1  0
 29 62  1  0
 32 63  1  0
 35 64  1  0
 36 65  1  0
A    1
C
A    2
N
A    3
O
A    4
CA
A    5
CB
A    6
CAA
A    7
OAB
A    8
CAC
A    9
CAD
A   10
CAE
A   11
OAF
A   12
CAG
A   13
CAH
A   14
CAI
A   15
CAJ
A   16
OAK
A   17
CAL
A   18
CAM
A   19
NAN
A   20
CAQ
A   21
CAR
A   22
CAS
A   23
CAT
A   24
CAU
A   25
SAY
A   26
OAZ
A   27
OBA
A   28
CBB
A   29
CBC
A   30
CBD
A   31
SBE
A   32
CBF
A   33
NBG
A   34
CBH
A   35
CBI
A   36
CBJ
M  END
