4JFK_JFK_A_201
     RDKit          3D

 66 70  0  0  0  0  0  0  0  0999 V2000
   11.3330  -14.2970  -17.9040 C   0  0  0  0  0  0  0  0  0  0  0  0
    8.9850  -14.0180  -18.1440 N   0  0  0  0  0  0  0  0  0  0  0  0
   12.4180  -14.0440  -17.3880 O   0  0  0  0  0  0  0  0  0  0  0  0
   10.1920  -13.6970  -17.3300 C   0  0  0  0  0  0  0  0  0  0  0  0
   10.0560  -14.1450  -15.8830 C   0  0  0  0  0  0  0  0  0  0  0  0
   19.0940  -13.1060  -17.6740 C   0  0  0  0  0  0  0  0  0  0  0  0
   15.9110   -9.6510  -20.3990 C   0  0  0  0  0  0  0  0  0  0  0  0
    6.2230  -11.6080  -25.5340 O   0  0  0  0  0  0  0  0  0  0  0  0
    8.4240  -11.4810  -17.8280 O   0  0  0  0  0  0  0  0  0  0  0  0
    6.6180  -13.1830  -17.3090 O   0  0  0  0  0  0  0  0  0  0  0  0
   15.5980  -14.4320  -19.4120 C   0  0  0  0  0  0  0  0  0  0  0  0
   16.8120  -14.0090  -18.8640 C   0  0  0  0  0  0  0  0  0  0  0  0
    6.0940  -13.5180  -20.1110 C   0  0  0  0  0  0  0  0  0  0  0  0
    5.5500  -13.5410  -21.3840 C   0  0  0  0  0  0  0  0  0  0  0  0
   15.1710  -12.1890  -20.1480 C   0  0  0  0  0  0  0  0  0  0  0  0
    7.7040  -11.9750  -20.8470 C   0  0  0  0  0  0  0  0  0  0  0  0
    9.7310  -15.6250  -15.8600 C   0  0  0  0  0  0  0  0  0  0  0  0
   13.2260  -15.2260  -20.7210 C   0  0  0  0  0  0  0  0  0  0  0  0
    8.3830  -15.8680  -16.5170 C   0  0  0  0  0  0  0  0  0  0  0  0
    9.2710  -16.3600  -18.8360 C   0  0  0  0  0  0  0  0  0  0  0  0
   12.6950  -15.6750  -19.3560 C   0  0  0  0  0  0  0  0  0  0  0  0
   10.1690  -15.5030  -19.7340 C   0  0  0  0  0  0  0  0  0  0  0  0
    5.6550  -12.7040  -23.6240 N   0  0  0  0  0  0  0  0  0  0  0  0
   18.3600  -12.1590  -18.4520 O   0  0  0  0  0  0  0  0  0  0  0  0
   16.8070  -10.4840  -19.6590 O   0  0  0  0  0  0  0  0  0  0  0  0
   13.5640  -13.8600  -20.6150 O   0  0  0  0  0  0  0  0  0  0  0  0
    7.5170  -11.2530  -23.4650 S   0  0  0  0  0  0  0  0  0  0  0  0
   14.7710  -13.5170  -20.0600 C   0  0  0  0  0  0  0  0  0  0  0  0
    7.1800  -12.7420  -19.8180 C   0  0  0  0  0  0  0  0  0  0  0  0
   17.1960  -12.6740  -18.9550 C   0  0  0  0  0  0  0  0  0  0  0  0
   16.3710  -11.7710  -19.6000 C   0  0  0  0  0  0  0  0  0  0  0  0
    6.3920  -11.8660  -24.3470 C   0  0  0  0  0  0  0  0  0  0  0  0
    6.0760  -12.7940  -22.3460 C   0  0  0  0  0  0  0  0  0  0  0  0
    7.1450  -12.0180  -22.0690 C   0  0  0  0  0  0  0  0  0  0  0  0
    8.4320  -15.3950  -17.9690 C   0  0  0  0  0  0  0  0  0  0  0  0
   11.3560  -15.1200  -18.9740 N   0  0  0  0  0  0  0  0  0  0  0  0
    7.7870  -12.7950  -18.1780 S   0  0  0  0  0  0  0  0  0  0  0  0
   10.2980  -12.6021  -17.3284 H   0  0  0  0  0  0  0  0  0  0  0  0
   11.0012  -13.9655  -15.3497 H   0  0  0  0  0  0  0  0  0  0  0  0
    9.2532  -13.5777  -15.3894 H   0  0  0  0  0  0  0  0  0  0  0  0
   18.9364  -12.9027  -16.6045 H   0  0  0  0  0  0  0  0  0  0  0  0
   18.7455  -14.1225  -17.9092 H   0  0  0  0  0  0  0  0  0  0  0  0
   20.1653  -13.0221  -17.9092 H   0  0  0  0  0  0  0  0  0  0  0  0
   15.2881   -9.0719  -19.7014 H   0  0  0  0  0  0  0  0  0  0  0  0
   16.4893   -8.9623  -21.0325 H   0  0  0  0  0  0  0  0  0  0  0  0
   15.2662  -10.2779  -21.0325 H   0  0  0  0  0  0  0  0  0  0  0  0
   15.2956  -15.4866  -19.3318 H   0  0  0  0  0  0  0  0  0  0  0  0
   17.4669  -14.7340  -18.3586 H   0  0  0  0  0  0  0  0  0  0  0  0
    5.6435  -14.1361  -19.3205 H   0  0  0  0  0  0  0  0  0  0  0  0
    4.6803  -14.1796  -21.5981 H   0  0  0  0  0  0  0  0  0  0  0  0
   14.5252  -11.4605  -20.6600 H   0  0  0  0  0  0  0  0  0  0  0  0
    8.5770  -11.3313  -20.6638 H   0  0  0  0  0  0  0  0  0  0  0  0
   10.5086  -16.1778  -16.4074 H   0  0  0  0  0  0  0  0  0  0  0  0
    9.6934  -15.9716  -14.8167 H   0  0  0  0  0  0  0  0  0  0  0  0
   12.4507  -15.3628  -21.4893 H   0  0  0  0  0  0  0  0  0  0  0  0
   14.1043  -15.8216  -21.0106 H   0  0  0  0  0  0  0  0  0  0  0  0
    8.1498  -16.9426  -16.4890 H   0  0  0  0  0  0  0  0  0  0  0  0
    7.6050  -15.3100  -15.9754 H   0  0  0  0  0  0  0  0  0  0  0  0
    8.6081  -16.9845  -19.4529 H   0  0  0  0  0  0  0  0  0  0  0  0
    9.8757  -17.0260  -18.2029 H   0  0  0  0  0  0  0  0  0  0  0  0
   12.6175  -16.7722  -19.3659 H   0  0  0  0  0  0  0  0  0  0  0  0
   13.4071  -15.2895  -18.6115 H   0  0  0  0  0  0  0  0  0  0  0  0
   10.4671  -16.0816  -20.6208 H   0  0  0  0  0  0  0  0  0  0  0  0
    9.6258  -14.6044  -20.0619 H   0  0  0  0  0  0  0  0  0  0  0  0
    4.8508  -13.2270  -23.9989 H   0  0  0  0  0  0  0  0  0  0  0  0
    7.3810  -15.3799  -18.2935 H   0  0  0  0  0  0  0  0  0  0  0  0
 36  1  1  0
  1  3  2  0
  1  4  1  0
 37  2  1  0
  2 35  1  0
  2  4  1  0
  4  5  1  0
  5 17  1  0
 24  6  1  0
  7 25  1  0
  8 32  2  0
 37  9  2  0
 37 10  2  0
 28 11  2  0
 11 12  1  0
 30 12  2  0
 14 13  2  0
 13 29  1  0
 33 14  1  0
 15 28  1  0
 15 31  2  0
 34 16  1  0
 16 29  2  0
 19 17  1  0
 18 26  1  0
 18 21  1  0
 35 19  1  0
 22 20  1  0
 20 35  1  0
 21 36  1  0
 22 36  1  0
 32 23  1  0
 23 33  1  0
 30 24  1  0
 25 31  1  0
 26 28  1  0
 32 27  1  0
 27 34  1  0
 29 37  1  0
 31 30  1  0
 33 34  2  0
  4 38  1  0
  5 39  1  0
  5 40  1  0
  6 41  1  0
  6 42  1  0
  6 43  1  0
  7 44  1  0
  7 45  1  0
  7 46  1  0
 11 47  1  0
 12 48  1  0
 13 49  1  0
 14 50  1  0
 15 51  1  0
 16 52  1  0
 17 53  1  0
 17 54  1  0
 18 55  1  0
 18 56  1  0
 19 57  1  0
 19 58  1  0
 20 59  1  0
 20 60  1  0
 21 61  1  0
 21 62  1  0
 22 63  1  0
 22 64  1  0
 23 65  1  0
 35 66  1  0
A    1
C
A    2
N
A    3
O
A    4
CA
A    5
CB
A    6
CAA
A    7
CAB
A    8
OAD
A    9
OAE
A   10
OAF
A   11
CAG
A   12
CAH
A   13
CAI
A   14
CAJ
A   15
CAK
A   16
CAL
A   17
CAM
A   18
CAN
A   19
CAO
A   20
CAQ
A   21
CAR
A   22
CAS
A   23
NAT
A   24
OAU
A   25
OAV
A   26
OAW
A   27
SAX
A   28
CAZ
A   29
CBA
A   30
CBB
A   31
CBC
A   32
CBD
A   33
CBE
A   34
CBF
A   35
CBG
A   36
NBI
A   37
SBK
M  END
