4JFL_1KY_A_201
     RDKit          3D

 63 67  0  0  0  0  0  0  0  0999 V2000
   11.2910  -14.2790  -17.5280 C   0  0  0  0  0  0  0  0  0  0  0  0
    9.1300  -13.8320  -18.0610 N   0  0  0  0  0  0  0  0  0  0  0  0
   12.4150  -13.8470  -17.2910 O   0  0  0  0  0  0  0  0  0  0  0  0
   10.1720  -13.5930  -17.0540 C   0  0  0  0  0  0  0  0  0  0  0  0
    9.7810  -14.0850  -15.6840 C   0  0  0  0  0  0  0  0  0  0  0  0
   18.9910  -13.2400  -17.8350 C   0  0  0  0  0  0  0  0  0  0  0  0
   16.9250  -10.4000  -20.9670 C   0  0  0  0  0  0  0  0  0  0  0  0
    4.2210  -14.1070  -24.6980 O   0  0  0  0  0  0  0  0  0  0  0  0
    8.2450  -11.3690  -17.6210 O   0  0  0  0  0  0  0  0  0  0  0  0
    6.6000  -13.2540  -17.2770 O   0  0  0  0  0  0  0  0  0  0  0  0
   15.3920  -14.6560  -19.2740 C   0  0  0  0  0  0  0  0  0  0  0  0
   16.6650  -14.2280  -18.8950 C   0  0  0  0  0  0  0  0  0  0  0  0
    7.9510  -11.9860  -20.8030 C   0  0  0  0  0  0  0  0  0  0  0  0
    7.4960  -12.0560  -22.1140 C   0  0  0  0  0  0  0  0  0  0  0  0
   14.8440  -12.4160  -19.9010 C   0  0  0  0  0  0  0  0  0  0  0  0
    6.2390  -13.4870  -20.2330 C   0  0  0  0  0  0  0  0  0  0  0  0
    9.6740  -15.5510  -15.7420 C   0  0  0  0  0  0  0  0  0  0  0  0
   12.9240  -15.5260  -20.2050 C   0  0  0  0  0  0  0  0  0  0  0  0
    8.4900  -15.8060  -16.6620 C   0  0  0  0  0  0  0  0  0  0  0  0
   12.4650  -15.9900  -18.8010 C   0  0  0  0  0  0  0  0  0  0  0  0
    9.9190  -16.0130  -18.7020 C   0  0  0  0  0  0  0  0  0  0  0  0
    5.9140  -12.9740  -23.6810 N   0  0  0  0  0  0  0  0  0  0  0  0
   18.2380  -12.3690  -18.6780 O   0  0  0  0  0  0  0  0  0  0  0  0
   16.5080  -10.6900  -19.6280 O   0  0  0  0  0  0  0  0  0  0  0  0
   13.2020  -14.1340  -20.1590 O   0  0  0  0  0  0  0  0  0  0  0  0
    4.5940  -14.3600  -22.2340 S   0  0  0  0  0  0  0  0  0  0  0  0
   14.4670  -13.7520  -19.7820 C   0  0  0  0  0  0  0  0  0  0  0  0
    7.3000  -12.7140  -19.8250 C   0  0  0  0  0  0  0  0  0  0  0  0
   17.0210  -12.8880  -19.0190 C   0  0  0  0  0  0  0  0  0  0  0  0
   16.1070  -11.9880  -19.5260 C   0  0  0  0  0  0  0  0  0  0  0  0
    4.8720  -13.8080  -23.6980 C   0  0  0  0  0  0  0  0  0  0  0  0
    6.4550  -12.8150  -22.4540 C   0  0  0  0  0  0  0  0  0  0  0  0
    5.8330  -13.5300  -21.5030 C   0  0  0  0  0  0  0  0  0  0  0  0
    8.7700  -15.2490  -18.0580 C   0  0  0  0  0  0  0  0  0  0  0  0
   11.1940  -15.3610  -18.3370 N   0  0  0  0  0  0  0  0  0  0  0  0
    7.7840  -12.7370  -18.0890 S   0  0  0  0  0  0  0  0  0  0  0  0
   10.3554  -12.5160  -16.9262 H   0  0  0  0  0  0  0  0  0  0  0  0
   10.5476  -13.7952  -14.9503 H   0  0  0  0  0  0  0  0  0  0  0  0
    8.8211  -13.6432  -15.3784 H   0  0  0  0  0  0  0  0  0  0  0  0
   18.7838  -13.0003  -16.7816 H   0  0  0  0  0  0  0  0  0  0  0  0
   18.7054  -14.2829  -18.0368 H   0  0  0  0  0  0  0  0  0  0  0  0
   20.0643  -13.1082  -18.0368 H   0  0  0  0  0  0  0  0  0  0  0  0
   17.8279   -9.7721  -20.9420 H   0  0  0  0  0  0  0  0  0  0  0  0
   17.1465  -11.3399  -21.4937 H   0  0  0  0  0  0  0  0  0  0  0  0
   16.1209   -9.8652  -21.4937 H   0  0  0  0  0  0  0  0  0  0  0  0
   15.1189  -15.7165  -19.1699 H   0  0  0  0  0  0  0  0  0  0  0  0
   17.3903  -14.9527  -18.4965 H   0  0  0  0  0  0  0  0  0  0  0  0
    8.8180  -11.3594  -20.5468 H   0  0  0  0  0  0  0  0  0  0  0  0
    8.0083  -11.4698  -22.8911 H   0  0  0  0  0  0  0  0  0  0  0  0
   14.1243  -11.6864  -20.3007 H   0  0  0  0  0  0  0  0  0  0  0  0
    5.7054  -14.0920  -19.4852 H   0  0  0  0  0  0  0  0  0  0  0  0
   10.5920  -15.9925  -16.1571 H   0  0  0  0  0  0  0  0  0  0  0  0
    9.5381  -16.0018  -14.7479 H   0  0  0  0  0  0  0  0  0  0  0  0
   12.1265  -15.7197  -20.9374 H   0  0  0  0  0  0  0  0  0  0  0  0
   13.8274  -16.0778  -20.5041 H   0  0  0  0  0  0  0  0  0  0  0  0
    8.3128  -16.8893  -16.7329 H   0  0  0  0  0  0  0  0  0  0  0  0
    7.6026  -15.3040  -16.2490 H   0  0  0  0  0  0  0  0  0  0  0  0
   12.3214  -17.0803  -18.8273 H   0  0  0  0  0  0  0  0  0  0  0  0
   13.2485  -15.6817  -18.0931 H   0  0  0  0  0  0  0  0  0  0  0  0
    9.8003  -16.0049  -19.7956 H   0  0  0  0  0  0  0  0  0  0  0  0
    9.9187  -17.0541  -18.3468 H   0  0  0  0  0  0  0  0  0  0  0  0
    6.2707  -12.4980  -24.5219 H   0  0  0  0  0  0  0  0  0  0  0  0
    7.8310  -15.3675  -18.6185 H   0  0  0  0  0  0  0  0  0  0  0  0
 35  1  1  0
  1  3  2  0
  1  4  1  0
 36  2  1  0
  2 34  1  0
  2  4  1  0
  4  5  1  0
 17  5  1  0
 23  6  1  0
  7 24  1  0
  8 31  2  0
 36  9  2  0
 36 10  2  0
 27 11  2  0
 11 12  1  0
 29 12  2  0
 14 13  2  0
 13 28  1  0
 32 14  1  0
 15 27  1  0
 15 30  2  0
 33 16  1  0
 16 28  2  0
 19 17  1  0
 18 25  1  0
 18 20  1  0
 34 19  1  0
 20 35  1  0
 21 35  1  0
 21 34  1  0
 31 22  1  0
 22 32  1  0
 29 23  1  0
 24 30  1  0
 25 27  1  0
 31 26  1  0
 26 33  1  0
 28 36  1  0
 30 29  1  0
 32 33  2  0
  4 37  1  0
  5 38  1  0
  5 39  1  0
  6 40  1  0
  6 41  1  0
  6 42  1  0
  7 43  1  0
  7 44  1  0
  7 45  1  0
 11 46  1  0
 12 47  1  0
 13 48  1  0
 14 49  1  0
 15 50  1  0
 16 51  1  0
 17 52  1  0
 17 53  1  0
 18 54  1  0
 18 55  1  0
 19 56  1  0
 19 57  1  0
 20 58  1  0
 20 59  1  0
 21 60  1  0
 21 61  1  0
 22 62  1  0
 34 63  1  0
A    1
C
A    2
N
A    3
O
A    4
CA
A    5
CB
A    6
CAA
A    7
CAB
A    8
OAD
A    9
OAE
A   10
OAF
A   11
CAG
A   12
CAH
A   13
CAI
A   14
CAJ
A   15
CAK
A   16
CAL
A   17
CAM
A   18
CAN
A   19
CAO
A   20
CAQ
A   21
CAR
A   22
NAS
A   23
OAT
A   24
OAU
A   25
OAV
A   26
SAW
A   27
CAY
A   28
CAZ
A   29
CBA
A   30
CBB
A   31
CBC
A   32
CBD
A   33
CBE
A   34
CBF
A   35
NBH
A   36
SBJ
M  END
