4JFM_1KZ_A_201
     RDKit          3D

 61 64  0  0  0  0  0  0  0  0999 V2000
    6.1240   19.6950   20.3490 C   0  0  0  0  0  0  0  0  0  0  0  0
    6.3010   19.0420   21.6000 O   0  0  0  0  0  0  0  0  0  0  0  0
    7.6210   18.7160   21.8160 C   0  0  0  0  0  0  0  0  0  0  0  0
    8.4070   18.2160   20.7660 C   0  0  0  0  0  0  0  0  0  0  0  0
    8.1570   18.8600   23.1220 C   0  0  0  0  0  0  0  0  0  0  0  0
    7.3640   19.3190   24.1360 O   0  0  0  0  0  0  0  0  0  0  0  0
    7.3600   20.7680   24.2750 C   0  0  0  0  0  0  0  0  0  0  0  0
    9.4870   18.5150   23.3460 C   0  0  0  0  0  0  0  0  0  0  0  0
   10.2740   18.0280   22.2950 C   0  0  0  0  0  0  0  0  0  0  0  0
    9.7290   17.8870   21.0040 C   0  0  0  0  0  0  0  0  0  0  0  0
   10.4390   17.4240   19.9540 O   0  0  0  0  0  0  0  0  0  0  0  0
   11.2320   16.3970   20.4180 C   0  0  0  0  0  0  0  0  0  0  0  0
   11.7950   15.8680   19.1660 C   0  0  0  0  0  0  0  0  0  0  0  0
   10.7830   15.0820   18.5630 O   0  0  0  0  0  0  0  0  0  0  0  0
   11.0880   14.3770   17.5240 C   0  0  0  0  0  0  0  0  0  0  0  0
   12.2050   14.2100   17.1070 O   0  0  0  0  0  0  0  0  0  0  0  0
    9.9540   13.8030   16.8230 C   0  0  0  0  0  0  0  0  0  0  0  0
   10.0200   14.1370   15.3780 C   0  0  0  0  0  0  0  0  0  0  0  0
    9.6530   15.6150   15.1200 C   0  0  0  0  0  0  0  0  0  0  0  0
    8.2870   15.9950   15.6630 C   0  0  0  0  0  0  0  0  0  0  0  0
    8.1920   15.6080   17.1320 C   0  0  0  0  0  0  0  0  0  0  0  0
    8.5850   14.1810   17.2470 N   0  0  0  0  0  0  0  0  0  0  0  0
    7.6320   13.1760   18.0740 S   0  0  0  0  0  0  0  0  0  0  0  0
    8.2250   11.9030   17.9950 O   0  0  0  0  0  0  0  0  0  0  0  0
    6.3030   13.3030   17.5370 O   0  0  0  0  0  0  0  0  0  0  0  0
    7.5340   13.7220   19.7090 C   0  0  0  0  0  0  0  0  0  0  0  0
    6.4850   14.4870   20.1330 C   0  0  0  0  0  0  0  0  0  0  0  0
    6.4200   14.8530   21.4160 C   0  0  0  0  0  0  0  0  0  0  0  0
    5.2450   15.7570   22.2800 S   0  0  0  0  0  0  0  0  0  0  0  0
    6.0680   15.6820   23.7080 C   0  0  0  0  0  0  0  0  0  0  0  0
    5.7130   16.1590   24.7820 O   0  0  0  0  0  0  0  0  0  0  0  0
    7.2170   14.9820   23.5360 N   0  0  0  0  0  0  0  0  0  0  0  0
    7.4330   14.5180   22.2900 C   0  0  0  0  0  0  0  0  0  0  0  0
    8.5190   13.8200   21.9020 C   0  0  0  0  0  0  0  0  0  0  0  0
    8.5610   13.4030   20.5520 C   0  0  0  0  0  0  0  0  0  0  0  0
    5.8397   20.7438   20.5198 H   0  0  0  0  0  0  0  0  0  0  0  0
    7.0646   19.6581   19.7798 H   0  0  0  0  0  0  0  0  0  0  0  0
    5.3308   19.1882   19.7798 H   0  0  0  0  0  0  0  0  0  0  0  0
    7.9752   18.0870   19.7626 H   0  0  0  0  0  0  0  0  0  0  0  0
    7.3593   21.0340   25.3424 H   0  0  0  0  0  0  0  0  0  0  0  0
    8.2570   21.1850   23.7938 H   0  0  0  0  0  0  0  0  0  0  0  0
    6.4607   21.1800   23.7938 H   0  0  0  0  0  0  0  0  0  0  0  0
    9.9207   18.6252   24.3509 H   0  0  0  0  0  0  0  0  0  0  0  0
   11.3234   17.7541   22.4787 H   0  0  0  0  0  0  0  0  0  0  0  0
   10.6363   15.6359   20.9432 H   0  0  0  0  0  0  0  0  0  0  0  0
   11.9894   16.7128   21.1506 H   0  0  0  0  0  0  0  0  0  0  0  0
   12.6786   15.2487   19.3799 H   0  0  0  0  0  0  0  0  0  0  0  0
   12.1113   16.6838   18.4994 H   0  0  0  0  0  0  0  0  0  0  0  0
   10.0731   12.7381   17.0715 H   0  0  0  0  0  0  0  0  0  0  0  0
    9.3161   13.4933   14.8301 H   0  0  0  0  0  0  0  0  0  0  0  0
   11.0516   13.9728   15.0331 H   0  0  0  0  0  0  0  0  0  0  0  0
   10.4100   16.2523   15.6004 H   0  0  0  0  0  0  0  0  0  0  0  0
    9.6234   15.7593   14.0299 H   0  0  0  0  0  0  0  0  0  0  0  0
    8.1422   17.0806   15.5610 H   0  0  0  0  0  0  0  0  0  0  0  0
    7.5091   15.4632   15.0956 H   0  0  0  0  0  0  0  0  0  0  0  0
    8.8717   16.2335   17.7293 H   0  0  0  0  0  0  0  0  0  0  0  0
    7.1682   15.7579   17.5054 H   0  0  0  0  0  0  0  0  0  0  0  0
    5.7022   14.7983   19.4257 H   0  0  0  0  0  0  0  0  0  0  0  0
    7.8800   14.8163   24.3066 H   0  0  0  0  0  0  0  0  0  0  0  0
    9.3340   13.5860   22.6028 H   0  0  0  0  0  0  0  0  0  0  0  0
    9.4187   12.8229   20.1808 H   0  0  0  0  0  0  0  0  0  0  0  0
 19 18  1  0
 19 20  1  0
 18 17  1  0
 20 21  1  0
 17 22  1  0
 17 15  1  0
 16 15  2  0
 21 22  1  0
 22 23  1  0
 15 14  1  0
 25 23  2  0
 24 23  2  0
 14 13  1  0
 13 12  1  0
 26 27  2  0
 26 35  1  0
 11 12  1  0
 11 10  1  0
 27 28  1  0
  1  2  1  0
 35 34  2  0
  4 10  1  0
  4  3  2  0
 10  9  2  0
 28 29  1  0
 28 33  2  0
  2  3  1  0
  3  5  1  0
 34 33  1  0
 29 30  1  0
 33 32  1  0
  9  8  1  0
  5  8  2  0
  5  6  1  0
 32 30  1  0
 30 31  2  0
  6  7  1  0
 23 26  1  0
  1 36  1  0
  1 37  1  0
  1 38  1  0
  4 39  1  0
  7 40  1  0
  7 41  1  0
  7 42  1  0
  8 43  1  0
  9 44  1  0
 12 45  1  0
 12 46  1  0
 13 47  1  0
 13 48  1  0
 17 49  1  0
 18 50  1  0
 18 51  1  0
 19 52  1  0
 19 53  1  0
 20 54  1  0
 20 55  1  0
 21 56  1  0
 21 57  1  0
 27 58  1  0
 32 59  1  0
 34 60  1  0
 35 61  1  0
A    1
CAB
A    2
OAU
A    3
CBC
A    4
CAK
A    5
CBB
A    6
OAT
A    7
CAA
A    8
CAH
A    9
CAG
A   10
CAZ
A   11
OAW
A   12
CAP
A   13
CAO
A   14
OAV
A   15
C
A   16
O
A   17
CA
A   18
CB
A   19
CAM
A   20
CAN
A   21
CAR
A   22
N
A   23
S1
A   24
OAE
A   25
OAF
A   26
CBA
A   27
CAL
A   28
CBF
A   29
SAX
A   30
CBD
A   31
OAD
A   32
NAS
A   33
CBE
A   34
CAJ
A   35
CAI
M  END
