4JH0_1MD_A_801
     RDKit          3D

 47 49  0  0  0  0  0  0  0  0999 V2000
   48.1730   50.1170   35.3990 C   0  0  0  0  0  0  0  0  0  0  0  0
   47.1440   50.8880   34.7480 C   0  0  0  0  0  0  0  0  0  0  0  0
   47.4070   51.4600   33.4580 C   0  0  0  0  0  0  0  0  0  0  0  0
   48.5600   51.2460   32.7850 N   0  0  0  0  0  0  0  0  0  0  0  0
   49.3750   49.9770   34.7070 C   0  0  0  0  0  0  0  0  0  0  0  0
   49.5200   50.5450   33.4480 C   0  0  0  0  0  0  0  0  0  0  0  0
   50.8990   50.3260   32.9490 C   0  0  0  0  0  0  0  0  0  0  0  0
   51.4650   49.5310   34.0270 N   0  0  0  0  0  0  0  0  0  0  0  0
   50.6310   49.3320   35.0640 C   0  0  0  0  0  0  0  0  0  0  0  0
   52.6410   48.6600   33.9380 C   0  0  0  0  0  0  0  0  0  0  0  0
   52.2580   47.4020   33.1460 C   0  0  0  0  0  0  0  0  0  0  0  0
   46.4890   52.3870   32.7320 C   0  0  0  0  0  0  0  0  0  0  0  0
   48.0560   49.6090   36.7950 C   0  0  0  0  0  0  0  0  0  0  0  0
   45.7540   51.0100   35.3220 C   0  0  0  0  0  0  0  0  0  0  0  0
   45.6990   51.8600   36.5090 N   0  0  0  0  0  0  0  0  0  0  0  0
   47.4410   48.3470   37.0770 C   0  0  0  0  0  0  0  0  0  0  0  0
   47.3590   47.9240   38.4580 C   0  0  0  0  0  0  0  0  0  0  0  0
   47.8810   48.7450   39.5120 C   0  0  0  0  0  0  0  0  0  0  0  0
   48.4800   50.0440   39.2760 C   0  0  0  0  0  0  0  0  0  0  0  0
   48.5310   50.4060   37.8950 C   0  0  0  0  0  0  0  0  0  0  0  0
   49.2330   51.9130   37.6040 Cl  0  0  0  0  0  0  0  0  0  0  0  0
   47.8160   48.1780   41.1200 Cl  0  0  0  0  0  0  0  0  0  0  0  0
   53.3280   46.5760   32.8840 N   0  0  0  0  0  0  0  0  0  0  0  0
   53.2030   45.2730   32.1460 C   0  0  0  0  0  0  0  0  0  0  0  0
   51.0660   47.1990   32.8010 O   0  0  0  0  0  0  0  0  0  0  0  0
   50.9730   48.7140   36.0820 O   0  0  0  0  0  0  0  0  0  0  0  0
   54.6110   46.9730   33.5230 C   0  0  0  0  0  0  0  0  0  0  0  0
   50.9007   49.7745   31.9973 H   0  0  0  0  0  0  0  0  0  0  0  0
   51.4529   51.2509   32.7306 H   0  0  0  0  0  0  0  0  0  0  0  0
   52.9696   48.3762   34.9487 H   0  0  0  0  0  0  0  0  0  0  0  0
   53.4628   49.1877   33.4320 H   0  0  0  0  0  0  0  0  0  0  0  0
   45.9087   52.9730   33.4599 H   0  0  0  0  0  0  0  0  0  0  0  0
   47.0791   53.0675   32.1006 H   0  0  0  0  0  0  0  0  0  0  0  0
   45.8028   51.8035   32.1006 H   0  0  0  0  0  0  0  0  0  0  0  0
   45.0937   51.4381   34.5534 H   0  0  0  0  0  0  0  0  0  0  0  0
   45.4331   50.0021   35.6240 H   0  0  0  0  0  0  0  0  0  0  0  0
   45.7370   51.2724   37.3541 H   0  0  0  0  0  0  0  0  0  0  0  0
   46.4998   52.5077   36.5049 H   0  0  0  0  0  0  0  0  0  0  0  0
   47.0427   47.7177   36.2675 H   0  0  0  0  0  0  0  0  0  0  0  0
   46.8900   46.9597   38.7031 H   0  0  0  0  0  0  0  0  0  0  0  0
   48.8588   50.6888   40.0827 H   0  0  0  0  0  0  0  0  0  0  0  0
   53.1239   44.4481   32.8693 H   0  0  0  0  0  0  0  0  0  0  0  0
   52.3028   45.2943   31.5142 H   0  0  0  0  0  0  0  0  0  0  0  0
   54.0909   45.1228   31.5142 H   0  0  0  0  0  0  0  0  0  0  0  0
   54.5016   46.9392   34.6170 H   0  0  0  0  0  0  0  0  0  0  0  0
   55.4056   46.2787   33.2123 H   0  0  0  0  0  0  0  0  0  0  0  0
   54.8746   47.9947   33.2123 H   0  0  0  0  0  0  0  0  0  0  0  0
 24 23  1  0
 12  3  1  0
  4  6  2  0
  4  3  1  0
 25 11  2  0
 23 11  1  0
 23 27  1  0
  7  6  1  0
  7  8  1  0
 11 10  1  0
  6  5  1  0
  3  2  2  0
 10  8  1  0
  8  9  1  0
  5  9  1  0
  5  1  2  0
  2 14  1  0
  2  1  1  0
  9 26  2  0
 14 15  1  0
  1 13  1  0
 13 16  2  0
 13 20  1  0
 16 17  1  0
 21 20  1  0
 20 19  2  0
 17 18  2  0
 19 18  1  0
 18 22  1  0
  7 28  1  0
  7 29  1  0
 10 30  1  0
 10 31  1  0
 12 32  1  0
 12 33  1  0
 12 34  1  0
 14 35  1  0
 14 36  1  0
 15 37  1  0
 15 38  1  0
 16 39  1  0
 17 40  1  0
 19 41  1  0
 24 42  1  0
 24 43  1  0
 24 44  1  0
 27 45  1  0
 27 46  1  0
 27 47  1  0
A    1
C1
A    2
C2
A    3
C3
A    4
N4
A    5
C4
A    6
C6
A    7
C5
A    8
N1
A    9
C9
A   10
C10
A   11
C7
A   12
C13
A   13
C14
A   14
C15
A   15
N16
A   16
C17
A   17
C18
A   18
C19
A   19
C20
A   20
C21
A   21
CL1
A   22
CL2
A   23
N2
A   24
C25
A   25
O2
A   26
O1
A   27
C8
M  END
