4JHQ_B6F_A_201
     RDKit          3D

 80 91  0  0  0  0  0  0  0  0999 V2000
    5.4230    1.7790  -13.0850 Fe  0  0  0  0  0 10  0  0  0  0  0  0
    4.0260   -6.2680   -7.3020 C   0  0  0  0  0  0  0  0  0  0  0  0
   -0.3370  -12.0720    0.1430 N   0  0  0  0  0  0  0  0  0  0  0  0
    2.7090   -9.9120   -0.9120 S   0  0  0  0  0  0  0  0  0  0  0  0
    1.7210  -10.5000   -2.3300 C   0  0  0  0  0  0  0  0  0  0  0  0
    0.6500  -12.7710   -1.6510 N   0  0  0  0  0  0  0  0  0  0  0  0
   -0.0360  -13.1630   -0.5580 C   0  0  0  0  0  0  0  0  0  0  0  0
    3.5140    0.5330   -7.1270 N   0  0  0  0  0  0  0  0  0  0  0  0
   -0.3500  -14.3160   -0.2180 O   0  0  0  0  0  0  0  0  0  0  0  0
    0.5510  -11.3230   -1.7860 C   0  0  0  0  0  0  0  0  0  0  0  0
    0.2950  -10.8860   -0.3690 C   0  0  0  0  0  0  0  0  0  0  0  0
    1.5990  -10.5590    0.2930 C   0  0  0  0  0  0  0  0  0  0  0  0
    2.3560  -11.1950   -3.5240 C   0  0  0  0  0  0  0  0  0  0  0  0
    3.3600  -10.2550   -4.1410 C   0  0  0  0  0  0  0  0  0  0  0  0
    4.0600  -10.7730   -5.4000 C   0  0  0  0  0  0  0  0  0  0  0  0
    5.0270   -9.7990   -6.0580 C   0  0  0  0  0  0  0  0  0  0  0  0
    4.2660   -8.5750   -6.5480 C   0  0  0  0  0  0  0  0  0  0  0  0
    3.0600   -8.6490   -6.6460 O   0  0  0  0  0  0  0  0  0  0  0  0
    4.6020   -4.8620   -7.3670 C   0  0  0  0  0  0  0  0  0  0  0  0
    4.2920   -4.0710   -8.6770 C   0  0  0  0  0  0  0  0  0  0  0  0
    3.1990   -2.9750   -8.6460 C   0  0  0  0  0  0  0  0  0  0  0  0
    3.3900   -1.8480   -7.6230 C   0  0  0  0  0  0  0  0  0  0  0  0
    2.9990   -0.4130   -7.9580 C   0  0  0  0  0  0  0  0  0  0  0  0
    2.2500   -0.1580   -8.9090 O   0  0  0  0  0  0  0  0  0  0  0  0
    3.2930    1.9740   -7.2310 C   0  0  0  0  0  0  0  0  0  0  0  0
    3.3640    2.5160   -8.6680 C   0  0  0  0  0  0  0  0  0  0  0  0
    2.0120    2.4420   -9.4040 C   0  0  0  0  0  0  0  0  0  0  0  0
    1.7020    3.6090  -10.3460 C   0  0  0  0  0  0  0  0  0  0  0  0
    2.8410    3.9090  -11.3450 C   0  0  0  0  0  0  0  0  0  0  0  0
    2.6750    3.2990  -12.7390 C   0  0  0  0  0  0  0  0  0  0  0  0
    1.5730    3.0600  -13.1890 O   0  0  0  0  0  0  0  0  0  0  0  0
    3.8860    2.9920  -13.5700 C   0  0  0  0  0  0  0  0  0  0  0  0
    4.0070    1.9560  -14.4910 C   0  0  0  0  0  0  0  0  0  0  0  0
    5.2670    2.0160  -15.0580 C   0  0  0  0  0  0  0  0  0  0  0  0
    5.9240    3.0880  -14.4940 C   0  0  0  0  0  0  0  0  0  0  0  0
    5.0800    3.6910  -13.5800 C   0  0  0  0  0  0  0  0  0  0  0  0
    5.5170   -0.1690  -12.6480 C   0  0  0  0  0  0  0  0  0  0  0  0
    4.7340    0.4960  -11.7270 C   0  0  0  0  0  0  0  0  0  0  0  0
    5.5220    1.4520  -11.1180 C   0  0  0  0  0  0  0  0  0  0  0  0
    6.7770    1.3650  -11.6690 C   0  0  0  0  0  0  0  0  0  0  0  0
    4.9230   -7.3710   -6.8600 N   0  0  0  0  0  0  0  0  0  0  0  0
    6.7760    0.3690  -12.6150 C   0  0  0  0  0  0  0  0  0  0  0  0
    3.1741   -6.2407   -6.6067 H   0  0  0  0  0  0  0  0  0  0  0  0
    3.7824   -6.5137   -8.3462 H   0  0  0  0  0  0  0  0  0  0  0  0
   -0.9572  -12.0768    0.9654 H   0  0  0  0  0  0  0  0  0  0  0  0
    1.4475   -9.5531   -2.8183 H   0  0  0  0  0  0  0  0  0  0  0  0
    1.1627  -13.3959   -2.2893 H   0  0  0  0  0  0  0  0  0  0  0  0
    4.1129    0.2045   -6.3560 H   0  0  0  0  0  0  0  0  0  0  0  0
   -0.2058  -11.1342   -2.5617 H   0  0  0  0  0  0  0  0  0  0  0  0
   -0.3119   -9.9801   -0.2237 H   0  0  0  0  0  0  0  0  0  0  0  0
    2.0263  -11.4707    0.7359 H   0  0  0  0  0  0  0  0  0  0  0  0
    1.4363   -9.8139    1.0857 H   0  0  0  0  0  0  0  0  0  0  0  0
    2.8616  -12.1143   -3.1935 H   0  0  0  0  0  0  0  0  0  0  0  0
    1.5844  -11.4619   -4.2612 H   0  0  0  0  0  0  0  0  0  0  0  0
    2.8362   -9.3239   -4.4032 H   0  0  0  0  0  0  0  0  0  0  0  0
    4.1512  -10.1215   -3.3885 H   0  0  0  0  0  0  0  0  0  0  0  0
    4.6231  -11.6777   -5.1271 H   0  0  0  0  0  0  0  0  0  0  0  0
    3.2634  -10.9529   -6.1369 H   0  0  0  0  0  0  0  0  0  0  0  0
    5.7877   -9.4884   -5.3267 H   0  0  0  0  0  0  0  0  0  0  0  0
    5.5157  -10.2909   -6.9120 H   0  0  0  0  0  0  0  0  0  0  0  0
    4.1954   -4.2892   -6.5205 H   0  0  0  0  0  0  0  0  0  0  0  0
    5.6951   -4.9807   -7.3362 H   0  0  0  0  0  0  0  0  0  0  0  0
    5.2279   -3.5854   -8.9905 H   0  0  0  0  0  0  0  0  0  0  0  0
    3.8849   -4.8332   -9.3577 H   0  0  0  0  0  0  0  0  0  0  0  0
    3.1570   -2.5163   -9.6449 H   0  0  0  0  0  0  0  0  0  0  0  0
    2.2767   -3.4916   -8.3419 H   0  0  0  0  0  0  0  0  0  0  0  0
    2.8095   -2.1313   -6.7326 H   0  0  0  0  0  0  0  0  0  0  0  0
    4.4843   -1.7866   -7.5300 H   0  0  0  0  0  0  0  0  0  0  0  0
    2.2964    2.2012   -6.8246 H   0  0  0  0  0  0  0  0  0  0  0  0
    4.1020    2.4613   -6.6670 H   0  0  0  0  0  0  0  0  0  0  0  0
    3.6866    3.5670   -8.6312 H   0  0  0  0  0  0  0  0  0  0  0  0
    4.0768    1.8883   -9.2229 H   0  0  0  0  0  0  0  0  0  0  0  0
    2.0013    1.5164   -9.9983 H   0  0  0  0  0  0  0  0  0  0  0  0
    1.2420    2.4784   -8.6193 H   0  0  0  0  0  0  0  0  0  0  0  0
    0.7933    3.3653  -10.9160 H   0  0  0  0  0  0  0  0  0  0  0  0
    1.5728    4.5053   -9.7216 H   0  0  0  0  0  0  0  0  0  0  0  0
    2.9121    5.0007  -11.4595 H   0  0  0  0  0  0  0  0  0  0  0  0
    3.7441    3.4470  -10.9197 H   0  0  0  0  0  0  0  0  0  0  0  0
    5.3436   -1.2214  -12.9171 H   0  0  0  0  0  0  0  0  0  0  0  0
    5.9446   -7.2611   -6.7883 H   0  0  0  0  0  0  0  0  0  0  0  0
  1 32  1  0
  1 33  1  0
  1 34  1  0
  1 35  1  0
  1 36  1  0
  1 37  1  0
  1 38  1  0
  1 39  1  0
  2 19  1  0
  2 41  1  0
  3  7  1  0
  3 11  1  0
  4  5  1  0
  4 12  1  0
  5 10  1  0
  5 13  1  0
  6  7  1  0
  6 10  1  0
  7  9  2  0
  8 23  1  0
  8 25  1  0
 10 11  1  0
 11 12  1  0
 13 14  1  0
 14 15  1  0
 15 16  1  0
 16 17  1  0
 17 18  2  0
 17 41  1  0
 19 20  1  0
 20 21  1  0
 21 22  1  0
 22 23  1  0
 23 24  2  0
 25 26  1  0
 26 27  1  0
 27 28  1  0
 28 29  1  0
 29 30  1  0
 30 31  2  0
 30 32  1  0
 32 33  1  0
 32 36  1  0
 33 34  2  0
 34 35  1  0
 35 36  2  0
 37 38  1  0
 37 42  1  0
 38 39  2  0
 39 40  1  0
 40 42  2  0
  1 40  1  0
  1 42  1  0
  2 43  1  0
  2 44  1  0
  3 45  1  0
  5 46  1  0
  6 47  1  0
  8 48  1  0
 10 49  1  0
 11 50  1  0
 12 51  1  0
 12 52  1  0
 13 53  1  0
 13 54  1  0
 14 55  1  0
 14 56  1  0
 15 57  1  0
 15 58  1  0
 16 59  1  0
 16 60  1  0
 19 61  1  0
 19 62  1  0
 20 63  1  0
 20 64  1  0
 21 65  1  0
 21 66  1  0
 22 67  1  0
 22 68  1  0
 25 69  1  0
 25 70  1  0
 26 71  1  0
 26 72  1  0
 27 73  1  0
 27 74  1  0
 28 75  1  0
 28 76  1  0
 29 77  1  0
 29 78  1  0
 37 79  1  0
 41 80  1  0
A    1
FE
A    2
C1
A    3
N1
A    4
S1
A    5
C2
A    6
N2
A    7
C3
A    8
N3
A    9
O3
A   10
C4
A   11
C5
A   12
C6
A   13
C7
A   14
C8
A   15
C9
A   16
C10
A   17
C11
A   18
O11
A   19
C12
A   20
C13
A   21
C14
A   22
C15
A   23
C16
A   24
O16
A   25
C17
A   26
C18
A   27
C19
A   28
C20
A   29
C21
A   30
C22
A   31
O22
A   32
C23
A   33
C24
A   34
C25
A   35
C26
A   36
C27
A   37
C28
A   38
C29
A   39
C30
A   40
C31
A   41
N31
A   42
C32
M  END
