4JHZ_1KV_A_701
     RDKit          3D

 63 66  0  0  0  0  0  0  0  0999 V2000
   83.9630  -33.7690  161.5390 C   0  0  0  0  0  0  0  0  0  0  0  0
   84.7740  -33.8210  162.6950 O   0  0  0  0  0  0  0  0  0  0  0  0
   84.4510  -32.8640  163.6770 C   0  0  0  0  0  0  0  0  0  0  0  0
   83.9420  -33.6420  164.9070 C   0  0  0  0  0  0  0  0  0  0  0  0
   83.7460  -32.8480  166.1950 C   0  0  0  0  0  0  0  0  0  0  0  0
   85.0870  -32.1600  166.4720 C   0  0  0  0  0  0  0  0  0  0  0  0
   84.9330  -31.2760  167.5710 O   0  0  0  0  0  0  0  0  0  0  0  0
   86.1470  -30.7110  168.0460 C   0  0  0  0  0  0  0  0  0  0  0  0
   85.5190  -31.2560  165.2830 C   0  0  0  0  0  0  0  0  0  0  0  0
   85.7330  -32.0210  163.9640 C   0  0  0  0  0  0  0  0  0  0  0  0
   85.9770  -31.1930  162.7660 N   0  0  0  0  0  0  0  0  0  0  0  0
   86.6220  -29.9930  162.5390 C   0  0  0  0  0  0  0  0  0  0  0  0
   87.1530  -29.3960  163.5390 O   0  0  0  0  0  0  0  0  0  0  0  0
   86.7480  -29.3630  161.1980 C   0  0  0  0  0  0  0  0  0  0  0  0
   86.3450  -30.3290  160.0230 N   0  0  0  0  0  0  0  0  0  0  0  0
   87.4850  -30.6600  158.9890 C   0  0  0  0  0  0  0  0  0  0  0  0
   87.0880  -31.7630  158.0730 C   0  0  0  0  0  0  0  0  0  0  0  0
   85.0660  -29.8850  159.2620 C   0  0  0  0  0  0  0  0  0  0  0  0
   84.5640  -31.0320  158.4500 C   0  0  0  0  0  0  0  0  0  0  0  0
   85.6580  -31.5320  157.3810 N   0  0  0  0  0  0  0  0  0  0  0  0
   85.2080  -32.7260  156.4130 C   0  0  0  0  0  0  0  0  0  0  0  0
   84.8590  -34.0980  156.9960 C   0  0  0  0  0  0  0  0  0  0  0  0
   85.6150  -35.2720  156.6960 C   0  0  0  0  0  0  0  0  0  0  0  0
   85.2530  -36.5030  157.2410 C   0  0  0  0  0  0  0  0  0  0  0  0
   85.8270  -37.7470  157.0970 O   0  0  0  0  0  0  0  0  0  0  0  0
   85.2140  -38.6420  158.0570 C   0  0  0  0  0  0  0  0  0  0  0  0
   84.0200  -37.9480  158.4810 O   0  0  0  0  0  0  0  0  0  0  0  0
   84.1520  -36.6500  158.0900 C   0  0  0  0  0  0  0  0  0  0  0  0
   83.3930  -35.5310  158.4010 C   0  0  0  0  0  0  0  0  0  0  0  0
   83.7660  -34.2850  157.8400 C   0  0  0  0  0  0  0  0  0  0  0  0
   82.9059  -33.7012  161.8355 H   0  0  0  0  0  0  0  0  0  0  0  0
   84.2334  -32.8863  160.9408 H   0  0  0  0  0  0  0  0  0  0  0  0
   84.1184  -34.6790  160.9408 H   0  0  0  0  0  0  0  0  0  0  0  0
   83.6642  -32.1609  163.3663 H   0  0  0  0  0  0  0  0  0  0  0  0
   82.9720  -34.0870  164.6404 H   0  0  0  0  0  0  0  0  0  0  0  0
   84.7368  -34.3671  165.1360 H   0  0  0  0  0  0  0  0  0  0  0  0
   82.9511  -32.0988  166.0655 H   0  0  0  0  0  0  0  0  0  0  0  0
   83.4460  -33.4991  167.0293 H   0  0  0  0  0  0  0  0  0  0  0  0
   85.8279  -32.9531  166.6514 H   0  0  0  0  0  0  0  0  0  0  0  0
   86.1460  -30.7115  169.1460 H   0  0  0  0  0  0  0  0  0  0  0  0
   86.9964  -31.3063  167.6799 H   0  0  0  0  0  0  0  0  0  0  0  0
   86.2385  -29.6778  167.6799 H   0  0  0  0  0  0  0  0  0  0  0  0
   86.4622  -30.7577  165.5515 H   0  0  0  0  0  0  0  0  0  0  0  0
   84.6995  -30.5430  165.1095 H   0  0  0  0  0  0  0  0  0  0  0  0
   86.6452  -32.6148  164.1230 H   0  0  0  0  0  0  0  0  0  0  0  0
   85.5773  -31.6011  161.9090 H   0  0  0  0  0  0  0  0  0  0  0  0
   87.7934  -29.0528  161.0535 H   0  0  0  0  0  0  0  0  0  0  0  0
   86.0575  -28.5071  161.1710 H   0  0  0  0  0  0  0  0  0  0  0  0
   88.3896  -30.9599  159.5384 H   0  0  0  0  0  0  0  0  0  0  0  0
   87.6737  -29.7607  158.3843 H   0  0  0  0  0  0  0  0  0  0  0  0
   87.0493  -32.6988  158.6499 H   0  0  0  0  0  0  0  0  0  0  0  0
   87.8364  -31.8023  157.2678 H   0  0  0  0  0  0  0  0  0  0  0  0
   85.3052  -29.0402  158.5994 H   0  0  0  0  0  0  0  0  0  0  0  0
   84.2946  -29.5714  159.9808 H   0  0  0  0  0  0  0  0  0  0  0  0
   83.6579  -30.7174  157.9115 H   0  0  0  0  0  0  0  0  0  0  0  0
   84.3481  -31.8662  159.1337 H   0  0  0  0  0  0  0  0  0  0  0  0
   86.0315  -32.8843  155.7011 H   0  0  0  0  0  0  0  0  0  0  0  0
   84.2479  -32.3732  156.0082 H   0  0  0  0  0  0  0  0  0  0  0  0
   86.4884  -35.2044  156.0307 H   0  0  0  0  0  0  0  0  0  0  0  0
   84.9596  -39.6031  157.5863 H   0  0  0  0  0  0  0  0  0  0  0  0
   85.8831  -38.8787  158.8974 H   0  0  0  0  0  0  0  0  0  0  0  0
   82.5217  -35.6096  159.0678 H   0  0  0  0  0  0  0  0  0  0  0  0
   83.1520  -33.4064  158.0870 H   0  0  0  0  0  0  0  0  0  0  0  0
 21 22  1  0
 21 20  1  0
 23 22  2  0
 23 24  1  0
 22 30  1  0
 25 24  1  0
 25 26  1  0
 24 28  2  0
 20 17  1  0
 20 19  1  0
 30 29  2  0
 26 27  1  0
 28 29  1  0
 28 27  1  0
 17 16  1  0
 19 18  1  0
 16 15  1  0
 18 15  1  0
 15 14  1  0
 14 12  1  0
  1  2  1  0
 12 11  1  0
 12 13  2  0
  2  3  1  0
 11 10  1  0
  3 10  1  0
  3  4  1  0
 10  9  1  0
  4  5  1  0
  9  6  1  0
  5  6  1  0
  6  7  1  0
  7  8  1  0
  1 31  1  0
  1 32  1  0
  1 33  1  0
  3 34  1  0
  4 35  1  0
  4 36  1  0
  5 37  1  0
  5 38  1  0
  6 39  1  0
  8 40  1  0
  8 41  1  0
  8 42  1  0
  9 43  1  0
  9 44  1  0
 10 45  1  0
 11 46  1  0
 14 47  1  0
 14 48  1  0
 16 49  1  0
 16 50  1  0
 17 51  1  0
 17 52  1  0
 18 53  1  0
 18 54  1  0
 19 55  1  0
 19 56  1  0
 21 57  1  0
 21 58  1  0
 23 59  1  0
 26 60  1  0
 26 61  1  0
 29 62  1  0
 30 63  1  0
A    1
CAB
A    2
OAS
A    3
CBB
A    4
CAH
A    5
CAG
A    6
CAZ
A    7
OAR
A    8
CAA
A    9
CAO
A   10
CBA
A   11
NAQ
A   12
C
A   13
O
A   14
CA
A   15
N
A   16
CAK
A   17
CAM
A   18
CAJ
A   19
CAL
A   20
NBD
A   21
CAP
A   22
CAW
A   23
CAF
A   24
CAY
A   25
OAU
A   26
CAI
A   27
OAT
A   28
CAX
A   29
CAE
A   30
CAD
M  END
