4JI9_1M3_A_1201
     RDKit          3D

 71 74  0  0  0  0  0  0  0  0999 V2000
   55.8460    8.8090   -0.0260 O   0  0  0  0  0  0  0  0  0  0  0  0
   55.6570    7.7490    0.9120 S   0  0  0  0  0  0  0  0  0  0  0  0
   54.3220    7.5730    1.4090 O   0  0  0  0  0  0  0  0  0  0  0  0
   56.4150    6.3340    0.1970 N   0  0  0  0  0  0  0  0  0  0  0  0
   56.1550    4.9520    0.5420 C   0  0  0  0  0  0  0  0  0  0  0  0
   54.8510    4.5300   -0.1210 C   0  0  0  0  0  0  0  0  0  0  0  0
   56.0730    4.7700    2.0510 C   0  0  0  0  0  0  0  0  0  0  0  0
   57.2960    4.1130   -0.0210 C   0  0  0  0  0  0  0  0  0  0  0  0
   56.6830    8.1270    2.3130 C   0  0  0  0  0  0  0  0  0  0  0  0
   56.2920    7.8340    3.6220 C   0  0  0  0  0  0  0  0  0  0  0  0
   57.1340    8.1920    4.6770 C   0  0  0  0  0  0  0  0  0  0  0  0
   58.3410    8.8460    4.4050 C   0  0  0  0  0  0  0  0  0  0  0  0
   57.8800    8.7710    2.0470 C   0  0  0  0  0  0  0  0  0  0  0  0
   58.7200    9.1300    3.0900 C   0  0  0  0  0  0  0  0  0  0  0  0
   59.8730    9.7840    2.7810 N   0  0  0  0  0  0  0  0  0  0  0  0
   60.8000   10.4070    3.5450 C   0  0  0  0  0  0  0  0  0  0  0  0
   60.4330   10.7670    4.7860 N   0  0  0  0  0  0  0  0  0  0  0  0
   61.3020   11.3860    5.5880 C   0  0  0  0  0  0  0  0  0  0  0  0
   62.5500   11.6660    5.1900 N   0  0  0  0  0  0  0  0  0  0  0  0
   62.9370   11.3230    3.9580 C   0  0  0  0  0  0  0  0  0  0  0  0
   62.0820   10.6730    3.0830 C   0  0  0  0  0  0  0  0  0  0  0  0
   62.5540   10.3060    1.6970 C   0  0  0  0  0  0  0  0  0  0  0  0
   60.9240   11.7500    6.8480 N   0  0  0  0  0  0  0  0  0  0  0  0
   59.7640   11.6270    7.5540 C   0  0  0  0  0  0  0  0  0  0  0  0
   58.6560   11.0270    6.9630 C   0  0  0  0  0  0  0  0  0  0  0  0
   57.4750   10.8830    7.6680 C   0  0  0  0  0  0  0  0  0  0  0  0
   57.3780   11.3490    8.9770 C   0  0  0  0  0  0  0  0  0  0  0  0
   58.4850   11.9480    9.5890 C   0  0  0  0  0  0  0  0  0  0  0  0
   59.6710   12.0860    8.8710 C   0  0  0  0  0  0  0  0  0  0  0  0
   56.1590   11.1520    9.6490 N   0  0  0  0  0  0  0  0  0  0  0  0
   55.2760   10.0250    9.2650 C   0  0  0  0  0  0  0  0  0  0  0  0
   54.8780    9.1000   10.4020 C   0  0  0  0  0  0  0  0  0  0  0  0
   54.2630    9.9070   11.4600 N   0  0  0  0  0  0  0  0  0  0  0  0
   53.8050    9.0070   12.5310 C   0  0  0  0  0  0  0  0  0  0  0  0
   55.2690   10.8490   11.9850 C   0  0  0  0  0  0  0  0  0  0  0  0
   55.7330   11.8260   10.9010 C   0  0  0  0  0  0  0  0  0  0  0  0
   57.4249    6.4636    0.3528 H   0  0  0  0  0  0  0  0  0  0  0  0
   54.1073    4.2893    0.6529 H   0  0  0  0  0  0  0  0  0  0  0  0
   54.4753    5.3524   -0.7475 H   0  0  0  0  0  0  0  0  0  0  0  0
   55.0283    3.6434   -0.7475 H   0  0  0  0  0  0  0  0  0  0  0  0
   56.4756    5.6635    2.5505 H   0  0  0  0  0  0  0  0  0  0  0  0
   55.0232    4.6264    2.3465 H   0  0  0  0  0  0  0  0  0  0  0  0
   56.6609    3.8885    2.3465 H   0  0  0  0  0  0  0  0  0  0  0  0
   57.8792    3.6842    0.8073 H   0  0  0  0  0  0  0  0  0  0  0  0
   56.8841    3.3010   -0.6383 H   0  0  0  0  0  0  0  0  0  0  0  0
   57.9482    4.7482   -0.6383 H   0  0  0  0  0  0  0  0  0  0  0  0
   55.3349    7.3287    3.8187 H   0  0  0  0  0  0  0  0  0  0  0  0
   56.8505    7.9616    5.7146 H   0  0  0  0  0  0  0  0  0  0  0  0
   58.9992    9.1400    5.2359 H   0  0  0  0  0  0  0  0  0  0  0  0
   58.1641    8.9975    1.0087 H   0  0  0  0  0  0  0  0  0  0  0  0
   60.0795    9.8096    1.7722 H   0  0  0  0  0  0  0  0  0  0  0  0
   63.9594   11.5626    3.6305 H   0  0  0  0  0  0  0  0  0  0  0  0
   63.4204    9.6323    1.7711 H   0  0  0  0  0  0  0  0  0  0  0  0
   61.7415    9.8001    1.1549 H   0  0  0  0  0  0  0  0  0  0  0  0
   62.8441   11.2181    1.1549 H   0  0  0  0  0  0  0  0  0  0  0  0
   61.6740   12.2165    7.3778 H   0  0  0  0  0  0  0  0  0  0  0  0
   58.7202   10.6643    5.9265 H   0  0  0  0  0  0  0  0  0  0  0  0
   56.6090   10.3986    7.1932 H   0  0  0  0  0  0  0  0  0  0  0  0
   58.4193   12.3064   10.6269 H   0  0  0  0  0  0  0  0  0  0  0  0
   60.5426   12.5608    9.3452 H   0  0  0  0  0  0  0  0  0  0  0  0
   54.3570   10.4453    8.8304 H   0  0  0  0  0  0  0  0  0  0  0  0
   55.8541    9.4105    8.5592 H   0  0  0  0  0  0  0  0  0  0  0  0
   54.1575    8.3526   10.0383 H   0  0  0  0  0  0  0  0  0  0  0  0
   55.7636    8.5767   10.7917 H   0  0  0  0  0  0  0  0  0  0  0  0
   54.0331    9.4553   13.5092 H   0  0  0  0  0  0  0  0  0  0  0  0
   52.7193    8.8539   12.4420 H   0  0  0  0  0  0  0  0  0  0  0  0
   54.3203    8.0392   12.4420 H   0  0  0  0  0  0  0  0  0  0  0  0
   56.1367   10.2802   12.3504 H   0  0  0  0  0  0  0  0  0  0  0  0
   54.8117   11.4269   12.8016 H   0  0  0  0  0  0  0  0  0  0  0  0
   56.5824   12.4050   11.2927 H   0  0  0  0  0  0  0  0  0  0  0  0
   54.8753   12.4678   10.6509 H   0  0  0  0  0  0  0  0  0  0  0  0
  6  5  1  0
  1  2  2  0
  8  5  1  0
  4  5  1  0
  4  2  1  0
  5  7  1  0
  2  3  2  0
  2  9  1  0
 22 21  1  0
 13  9  2  0
 13 14  1  0
  9 10  1  0
 15 14  1  0
 15 16  1  0
 21 16  1  0
 21 20  2  0
 14 12  2  0
 16 17  2  0
 10 11  2  0
 20 19  1  0
 12 11  1  0
 17 18  1  0
 19 18  2  0
 18 23  1  0
 23 24  1  0
 25 24  2  0
 25 26  1  0
 24 29  1  0
 26 27  2  0
 29 28  2  0
 27 28  1  0
 27 30  1  0
 31 30  1  0
 31 32  1  0
 30 36  1  0
 32 33  1  0
 36 35  1  0
 33 35  1  0
 33 34  1  0
  4 37  1  0
  6 38  1  0
  6 39  1  0
  6 40  1  0
  7 41  1  0
  7 42  1  0
  7 43  1  0
  8 44  1  0
  8 45  1  0
  8 46  1  0
 10 47  1  0
 11 48  1  0
 12 49  1  0
 13 50  1  0
 15 51  1  0
 20 52  1  0
 22 53  1  0
 22 54  1  0
 22 55  1  0
 23 56  1  0
 25 57  1  0
 26 58  1  0
 28 59  1  0
 29 60  1  0
 31 61  1  0
 31 62  1  0
 32 63  1  0
 32 64  1  0
 34 65  1  0
 34 66  1  0
 34 67  1  0
 35 68  1  0
 35 69  1  0
 36 70  1  0
 36 71  1  0
A    1
O2
A    2
S1
A    3
O1
A    4
N7
A    5
C23
A    6
C26
A    7
C25
A    8
C24
A    9
C21
A   10
C20
A   11
C19
A   12
C18
A   13
C22
A   14
C17
A   15
N1
A   16
C1
A   17
N3
A   18
C4
A   19
N2
A   20
C3
A   21
C2
A   22
C5
A   23
N4
A   24
C6
A   25
C11
A   26
C10
A   27
C9
A   28
C8
A   29
C7
A   30
N5
A   31
C15
A   32
C14
A   33
N6
A   34
C16
A   35
C13
A   36
C12
M  END
