4JIK_1KO_A_301
     RDKit          3D

 45 48  0  0  0  0  0  0  0  0999 V2000
   14.7660   -2.9850    8.2380 N   0  0  0  0  0  0  0  0  0  0  0  0
   15.1530   -2.0000    7.3650 C   0  0  0  0  0  0  0  0  0  0  0  0
   14.1210   -1.1750    7.1160 C   0  0  0  0  0  0  0  0  0  0  0  0
   13.0410   -1.6450    7.8430 N   0  0  0  0  0  0  0  0  0  0  0  0
   13.4920   -2.7540    8.5150 C   0  0  0  0  0  0  0  0  0  0  0  0
   11.7510   -1.2340    7.9920 C   0  0  0  0  0  0  0  0  0  0  0  0
   10.9030   -1.8390    8.7630 N   0  0  0  0  0  0  0  0  0  0  0  0
   11.3170   -2.9310    9.4290 C   0  0  0  0  0  0  0  0  0  0  0  0
   12.5880   -3.4330    9.3520 C   0  0  0  0  0  0  0  0  0  0  0  0
   12.9960   -4.5350   10.0400 N   0  0  0  0  0  0  0  0  0  0  0  0
   16.4990   -1.9590    6.8480 C   0  0  0  0  0  0  0  0  0  0  0  0
   11.2900   -0.0260    7.2650 C   0  0  0  0  0  0  0  0  0  0  0  0
   12.4670   -5.0050   11.2850 C   0  0  0  0  0  0  0  0  0  0  0  0
   12.7980   -4.0320   12.4410 C   0  0  0  0  0  0  0  0  0  0  0  0
   12.2150   -4.5370   13.6820 N   0  0  0  0  0  0  0  0  0  0  0  0
   12.7400   -5.8650   14.0300 C   0  0  0  0  0  0  0  0  0  0  0  0
   12.4120   -6.8700   12.8950 C   0  0  0  0  0  0  0  0  0  0  0  0
   13.0270   -6.3780   11.5870 C   0  0  0  0  0  0  0  0  0  0  0  0
   16.9450   -0.8470    6.0970 C   0  0  0  0  0  0  0  0  0  0  0  0
   18.2420   -0.8110    5.5990 C   0  0  0  0  0  0  0  0  0  0  0  0
   19.1060   -1.8780    5.8370 C   0  0  0  0  0  0  0  0  0  0  0  0
   18.6770   -2.9960    6.5830 C   0  0  0  0  0  0  0  0  0  0  0  0
   17.3690   -3.0330    7.0880 C   0  0  0  0  0  0  0  0  0  0  0  0
   20.7310   -1.8220    5.2240 Cl  0  0  0  0  0  0  0  0  0  0  0  0
   10.0500    0.3880    7.5580 N   0  0  0  0  0  0  0  0  0  0  0  0
   12.0050    0.5670    6.4580 O   0  0  0  0  0  0  0  0  0  0  0  0
   14.1327   -0.2931    6.4587 H   0  0  0  0  0  0  0  0  0  0  0  0
   10.5925   -3.4510   10.0729 H   0  0  0  0  0  0  0  0  0  0  0  0
   13.7609   -5.0850    9.6237 H   0  0  0  0  0  0  0  0  0  0  0  0
   11.3721   -5.0623   11.1960 H   0  0  0  0  0  0  0  0  0  0  0  0
   13.8894   -3.9535   12.5535 H   0  0  0  0  0  0  0  0  0  0  0  0
   12.3812   -3.0391   12.2165 H   0  0  0  0  0  0  0  0  0  0  0  0
   12.4349   -3.8810   14.4450 H   0  0  0  0  0  0  0  0  0  0  0  0
   12.2766   -6.2075   14.9670 H   0  0  0  0  0  0  0  0  0  0  0  0
   13.8307   -5.8036   14.1586 H   0  0  0  0  0  0  0  0  0  0  0  0
   11.3210   -6.9501   12.7800 H   0  0  0  0  0  0  0  0  0  0  0  0
   12.8273   -7.8569   13.1474 H   0  0  0  0  0  0  0  0  0  0  0  0
   12.7716   -7.0713   10.7721 H   0  0  0  0  0  0  0  0  0  0  0  0
   14.1221   -6.3288   11.6782 H   0  0  0  0  0  0  0  0  0  0  0  0
   16.2619   -0.0062    5.9060 H   0  0  0  0  0  0  0  0  0  0  0  0
   18.5857    0.0577    5.0183 H   0  0  0  0  0  0  0  0  0  0  0  0
   19.3648   -3.8344    6.7676 H   0  0  0  0  0  0  0  0  0  0  0  0
   17.0265   -3.9012    7.6702 H   0  0  0  0  0  0  0  0  0  0  0  0
    9.7584    0.4854    8.5410 H   0  0  0  0  0  0  0  0  0  0  0  0
    9.3883    0.6089    6.8002 H   0  0  0  0  0  0  0  0  0  0  0  0
 24 21  1  0
 20 21  1  0
 20 19  2  0
 21 22  2  0
 19 11  1  0
 26 12  2  0
 22 23  1  0
 11 23  2  0
 11  2  1  0
  3  2  2  0
  3  4  1  0
 12 25  1  0
 12  6  1  0
  2  1  1  0
  4  6  1  0
  4  5  1  0
  6  7  2  0
  1  5  2  0
  5  9  1  0
  7  8  1  0
  9  8  2  0
  9 10  1  0
 10 13  1  0
 13 18  1  0
 13 14  1  0
 18 17  1  0
 14 15  1  0
 17 16  1  0
 15 16  1  0
  3 27  1  0
  8 28  1  0
 10 29  1  0
 13 30  1  0
 14 31  1  0
 14 32  1  0
 15 33  1  0
 16 34  1  0
 16 35  1  0
 17 36  1  0
 17 37  1  0
 18 38  1  0
 18 39  1  0
 19 40  1  0
 20 41  1  0
 22 42  1  0
 23 43  1  0
 25 44  1  0
 25 45  1  0
A    1
N01
A    2
C02
A    3
C03
A    4
N04
A    5
C05
A    6
C06
A    7
N07
A    8
C08
A    9
C09
A   10
N10
A   11
C11
A   12
C12
A   13
C13
A   14
C14
A   15
N15
A   16
C16
A   17
C17
A   18
C18
A   19
C19
A   20
C20
A   21
C21
A   22
C22
A   23
C23
A   24
CL
A   25
N25
A   26
O26
M  END
