4JIN_1L7_A_301
     RDKit          3D

 33 34  0  0  0  0  0  0  0  0999 V2000
    9.7030   -3.0230    7.2510 C   0  0  0  0  0  0  0  0  0  0  0  0
    9.1460   -0.9330    8.7890 N   0  0  0  0  0  0  0  0  0  0  0  0
    8.8140   -3.6310    6.4790 C   0  0  0  0  0  0  0  0  0  0  0  0
    7.6950   -2.0000    4.8750 C   0  0  0  0  0  0  0  0  0  0  0  0
   15.9550   -2.4780   10.6780 C   0  0  0  0  0  0  0  0  0  0  0  0
   15.2630   -1.4830   11.3760 C   0  0  0  0  0  0  0  0  0  0  0  0
   14.0060   -1.0730   10.9880 C   0  0  0  0  0  0  0  0  0  0  0  0
   13.4460   -1.6520    9.8870 C   0  0  0  0  0  0  0  0  0  0  0  0
   14.1490   -2.6330    9.2000 C   0  0  0  0  0  0  0  0  0  0  0  0
   15.4050   -3.0630    9.5850 C   0  0  0  0  0  0  0  0  0  0  0  0
   13.4750   -3.2640    7.9510 C   0  0  0  0  0  0  0  0  0  0  0  0
   12.1150   -2.7450    7.9460 N   0  0  0  0  0  0  0  0  0  0  0  0
   11.1110   -3.5330    7.2590 C   0  0  0  0  0  0  0  0  0  0  0  0
    9.3840   -1.8280    8.1310 C   0  0  0  0  0  0  0  0  0  0  0  0
    7.5810   -2.9410    5.9240 C   0  0  0  0  0  0  0  0  0  0  0  0
    6.5010   -1.4020    4.4010 C   0  0  0  0  0  0  0  0  0  0  0  0
    5.3060   -1.6970    4.9050 N   0  0  0  0  0  0  0  0  0  0  0  0
    5.1730   -2.5870    5.8890 C   0  0  0  0  0  0  0  0  0  0  0  0
    6.2880   -3.2480    6.4420 C   0  0  0  0  0  0  0  0  0  0  0  0
   11.4250   -4.5810    6.7120 O   0  0  0  0  0  0  0  0  0  0  0  0
    8.9778   -4.6893    6.2276 H   0  0  0  0  0  0  0  0  0  0  0  0
    8.6733   -1.7419    4.4433 H   0  0  0  0  0  0  0  0  0  0  0  0
   16.9538   -2.7887   11.0184 H   0  0  0  0  0  0  0  0  0  0  0  0
   15.7329   -1.0171   12.2547 H   0  0  0  0  0  0  0  0  0  0  0  0
   13.4672   -0.2976   11.5523 H   0  0  0  0  0  0  0  0  0  0  0  0
   12.4463   -1.3445    9.5464 H   0  0  0  0  0  0  0  0  0  0  0  0
   15.9369   -3.8479    9.0274 H   0  0  0  0  0  0  0  0  0  0  0  0
   13.4686   -4.3612    8.0295 H   0  0  0  0  0  0  0  0  0  0  0  0
   14.0128   -3.0147    7.0244 H   0  0  0  0  0  0  0  0  0  0  0  0
   11.8767   -1.8570    8.4102 H   0  0  0  0  0  0  0  0  0  0  0  0
    6.5648   -0.6663    3.5857 H   0  0  0  0  0  0  0  0  0  0  0  0
    4.1688   -2.8106    6.2784 H   0  0  0  0  0  0  0  0  0  0  0  0
    6.1644   -3.9817    7.2522 H   0  0  0  0  0  0  0  0  0  0  0  0
 16  4  2  0
 16 17  1  0
  4 15  1  0
 17 18  2  0
 18 19  1  0
 15 19  2  0
 15  3  1  0
  3  1  2  0
 20 13  2  0
  1 13  1  0
  1 14  1  0
 13 12  1  0
 12 11  1  0
 11  9  1  0
 14  2  3  0
  9 10  1  0
  9  8  2  0
 10  5  2  0
  8  7  1  0
  5  6  1  0
  7  6  2  0
  3 21  1  0
  4 22  1  0
  5 23  1  0
  6 24  1  0
  7 25  1  0
  8 26  1  0
 10 27  1  0
 11 28  1  0
 11 29  1  0
 12 30  1  0
 16 31  1  0
 18 32  1  0
 19 33  1  0
A    1
C10
A    2
N12
A    3
C13
A    4
C15
A    5
C01
A    6
C02
A    7
C03
A    8
C04
A    9
C05
A   10
C06
A   11
C07
A   12
N08
A   13
C09
A   14
C11
A   15
C14
A   16
C16
A   17
N17
A   18
C18
A   19
C19
A   20
O20
M  END
