4JLC_SU6_A_701
     RDKit          3D

 41 43  0  0  0  0  0  0  0  0999 V2000
   25.8500   18.3760    6.4670 C   0  0  0  0  0  0  0  0  0  0  0  0
   24.9200   18.5930   12.4460 N   0  0  0  0  0  0  0  0  0  0  0  0
   24.6570   18.3170    6.0570 O   0  0  0  0  0  0  0  0  0  0  0  0
   26.1260   18.3590    7.9370 C   0  0  0  0  0  0  0  0  0  0  0  0
   26.2160   18.8200   16.7630 N   0  0  0  0  0  0  0  0  0  0  0  0
   26.8020   18.4470    5.6400 O   0  0  0  0  0  0  0  0  0  0  0  0
   25.0010   17.9470    8.8320 C   0  0  0  0  0  0  0  0  0  0  0  0
   24.7880   19.3640   14.9470 O   0  0  0  0  0  0  0  0  0  0  0  0
   25.1490   17.9920   10.3210 C   0  0  0  0  0  0  0  0  0  0  0  0
   24.5370   18.8800   11.1960 C   0  0  0  0  0  0  0  0  0  0  0  0
   23.6030   19.9700   10.7960 C   0  0  0  0  0  0  0  0  0  0  0  0
   25.9290   17.1550   11.1220 C   0  0  0  0  0  0  0  0  0  0  0  0
   26.7820   16.0320   10.6460 C   0  0  0  0  0  0  0  0  0  0  0  0
   25.7690   17.5620   12.4430 C   0  0  0  0  0  0  0  0  0  0  0  0
   26.4430   16.8860   13.6030 C   0  0  0  0  0  0  0  0  0  0  0  0
   26.5090   17.5530   14.9510 C   0  0  0  0  0  0  0  0  0  0  0  0
   25.7840   18.6120   15.5170 C   0  0  0  0  0  0  0  0  0  0  0  0
   27.4030   17.1330   15.9660 C   0  0  0  0  0  0  0  0  0  0  0  0
   27.1970   17.9370   17.0660 C   0  0  0  0  0  0  0  0  0  0  0  0
   27.9600   17.7450   18.2290 C   0  0  0  0  0  0  0  0  0  0  0  0
   28.9200   16.7480   18.2780 C   0  0  0  0  0  0  0  0  0  0  0  0
   29.1300   15.9360   17.1690 C   0  0  0  0  0  0  0  0  0  0  0  0
   28.3770   16.1250   16.0150 C   0  0  0  0  0  0  0  0  0  0  0  0
   24.6054   19.0949   13.2886 H   0  0  0  0  0  0  0  0  0  0  0  0
   23.9114   18.2801    6.7072 H   0  0  0  0  0  0  0  0  0  0  0  0
   26.9604   17.6635    8.1104 H   0  0  0  0  0  0  0  0  0  0  0  0
   26.3342   19.4062    8.2017 H   0  0  0  0  0  0  0  0  0  0  0  0
   25.8562   19.5451   17.3999 H   0  0  0  0  0  0  0  0  0  0  0  0
   24.1480   18.5950    8.5820 H   0  0  0  0  0  0  0  0  0  0  0  0
   24.9098   16.8698    8.6287 H   0  0  0  0  0  0  0  0  0  0  0  0
   23.1920   20.4496   11.6966 H   0  0  0  0  0  0  0  0  0  0  0  0
   24.1458   20.7169   10.1981 H   0  0  0  0  0  0  0  0  0  0  0  0
   22.7817   19.5481   10.1981 H   0  0  0  0  0  0  0  0  0  0  0  0
   27.1928   15.4912   11.5114 H   0  0  0  0  0  0  0  0  0  0  0  0
   26.1766   15.3441   10.0374 H   0  0  0  0  0  0  0  0  0  0  0  0
   27.6070   16.4307   10.0374 H   0  0  0  0  0  0  0  0  0  0  0  0
   26.8936   15.8919   13.4658 H   0  0  0  0  0  0  0  0  0  0  0  0
   27.7945   18.3893   19.1050 H   0  0  0  0  0  0  0  0  0  0  0  0
   29.5145   16.5990   19.1914 H   0  0  0  0  0  0  0  0  0  0  0  0
   29.8922   15.1436   17.2044 H   0  0  0  0  0  0  0  0  0  0  0  0
   28.5458   15.4822   15.1384 H   0  0  0  0  0  0  0  0  0  0  0  0
  6  1  2  0
  3  1  1  0
  1  4  1  0
  4  7  1  0
  7  9  1  0
  9 12  1  0
  9 10  2  0
 13 12  1  0
 11 10  1  0
 12 14  2  0
 10  2  1  0
 14  2  1  0
 14 15  1  0
 15 16  2  0
  8 17  2  0
 16 17  1  0
 16 18  1  0
 17  5  1  0
 18 23  2  0
 18 19  1  0
 23 22  1  0
  5 19  1  0
 19 20  2  0
 22 21  2  0
 20 21  1  0
  2 24  1  0
  3 25  1  0
  4 26  1  0
  4 27  1  0
  5 28  1  0
  7 29  1  0
  7 30  1  0
 11 31  1  0
 11 32  1  0
 11 33  1  0
 13 34  1  0
 13 35  1  0
 13 36  1  0
 15 37  1  0
 20 38  1  0
 21 39  1  0
 22 40  1  0
 23 41  1  0
A    1
C1
A    2
N1
A    3
O1
A    4
C2
A    5
N2
A    6
O2
A    7
C3
A    8
O3
A    9
C4
A   10
C5
A   11
C6
A   12
C7
A   13
C8
A   14
C9
A   15
C10
A   16
C11
A   17
C12
A   18
C13
A   19
C14
A   20
C15
A   21
C16
A   22
C17
A   23
C18
M  END
