4JLJ_1NM_A_301
     RDKit          3D

 45 47  0  0  0  0  0  0  0  0999 V2000
  -35.9100    8.4440    2.0140 F   0  0  0  0  0  0  0  0  0  0  0  0
  -36.4120    8.0900    0.5490 C   0  0  0  0  0  0  0  0  0  0  0  0
  -35.8030    9.0180   -0.5170 C   0  0  0  0  0  0  0  0  0  0  0  0
  -36.7030    9.0820   -1.6540 O   0  0  0  0  0  0  0  0  0  0  0  0
  -36.4710   10.0710   -2.5640 C   0  0  0  0  0  0  0  0  0  0  0  0
  -35.1850   10.4850   -2.9530 C   0  0  0  0  0  0  0  0  0  0  0  0
  -37.6160   10.6490   -3.1250 C   0  0  0  0  0  0  0  0  0  0  0  0
  -38.8160   10.1820   -2.7070 O   0  0  0  0  0  0  0  0  0  0  0  0
  -39.8940   10.8620   -3.3820 C   0  0  0  0  0  0  0  0  0  0  0  0
  -37.5220   11.6630   -4.0700 C   0  0  0  0  0  0  0  0  0  0  0  0
  -36.2490   12.0870   -4.4420 C   0  0  0  0  0  0  0  0  0  0  0  0
  -35.0940   11.5060   -3.9010 C   0  0  0  0  0  0  0  0  0  0  0  0
  -33.9400   12.0090   -4.3180 C   0  0  0  0  0  0  0  0  0  0  0  0
  -32.7530   11.8760   -3.7250 N   0  0  0  0  0  0  0  0  0  0  0  0
  -33.7910   12.9730   -5.6440 S   0  0  0  0  0  0  0  0  0  0  0  0
  -32.1390   13.2200   -5.4650 C   0  0  0  0  0  0  0  0  0  0  0  0
  -31.7700   12.5410   -4.3680 C   0  0  0  0  0  0  0  0  0  0  0  0
  -30.3100   12.5150   -3.8740 C   0  0  0  0  0  0  0  0  0  0  0  0
  -29.4760   10.9250   -4.2650 S   0  0  0  0  0  0  0  0  0  0  0  0
  -27.7830   11.2900   -4.1340 C   0  0  0  0  0  0  0  0  0  0  0  0
  -26.9000   10.2650   -4.2370 N   0  0  0  0  0  0  0  0  0  0  0  0
  -27.3620   12.5660   -3.9650 N   0  0  0  0  0  0  0  0  0  0  0  0
  -26.0600   12.8160   -3.8850 C   0  0  0  0  0  0  0  0  0  0  0  0
  -25.6720   14.0660   -3.7360 N   0  0  0  0  0  0  0  0  0  0  0  0
  -25.1240   11.7680   -3.9700 C   0  0  0  0  0  0  0  0  0  0  0  0
  -25.5900   10.4680   -4.1490 C   0  0  0  0  0  0  0  0  0  0  0  0
  -24.7310    9.4440   -4.2640 N   0  0  0  0  0  0  0  0  0  0  0  0
  -36.1281    7.0525    0.3188 H   0  0  0  0  0  0  0  0  0  0  0  0
  -37.5038    8.2221    0.5262 H   0  0  0  0  0  0  0  0  0  0  0  0
  -35.6677   10.0252   -0.0960 H   0  0  0  0  0  0  0  0  0  0  0  0
  -34.8256    8.6275   -0.8368 H   0  0  0  0  0  0  0  0  0  0  0  0
  -34.2834   10.0215   -2.5261 H   0  0  0  0  0  0  0  0  0  0  0  0
  -40.5786   11.2938   -2.6371 H   0  0  0  0  0  0  0  0  0  0  0  0
  -39.4836   11.6650   -4.0119 H   0  0  0  0  0  0  0  0  0  0  0  0
  -40.4420   10.1458   -4.0119 H   0  0  0  0  0  0  0  0  0  0  0  0
  -38.4230   12.1157   -4.5096 H   0  0  0  0  0  0  0  0  0  0  0  0
  -36.1473   12.8977   -5.1785 H   0  0  0  0  0  0  0  0  0  0  0  0
  -31.4882   13.8199   -6.1181 H   0  0  0  0  0  0  0  0  0  0  0  0
  -30.3018   12.6611   -2.7838 H   0  0  0  0  0  0  0  0  0  0  0  0
  -29.7640   13.3194   -4.3886 H   0  0  0  0  0  0  0  0  0  0  0  0
  -25.5502   14.4583   -2.7915 H   0  0  0  0  0  0  0  0  0  0  0  0
  -25.4904   14.6511   -4.5640 H   0  0  0  0  0  0  0  0  0  0  0  0
  -24.0456   11.9720   -3.8965 H   0  0  0  0  0  0  0  0  0  0  0  0
  -24.3521    8.9923   -3.4194 H   0  0  0  0  0  0  0  0  0  0  0  0
  -24.4504    9.1095   -5.1969 H   0  0  0  0  0  0  0  0  0  0  0  0
 24 23  1  0
 23 25  2  0
 23 22  1  0
 25 26  1  0
 22 20  2  0
 26 27  1  0
 26 21  2  0
 20 21  1  0
 20 19  1  0
 19 18  1  0
 18 17  1  0
  1  2  1  0
 17 14  1  0
 17 16  2  0
 14 13  2  0
 16 15  1  0
  2  3  1  0
 13 15  1  0
 13 12  1  0
  3  4  1  0
 12  6  1  0
 12 11  2  0
  6  5  2  0
  5  4  1  0
  5  7  1  0
 11 10  1  0
  7 10  2  0
  7  8  1  0
  8  9  1  0
  2 28  1  0
  2 29  1  0
  3 30  1  0
  3 31  1  0
  6 32  1  0
  9 33  1  0
  9 34  1  0
  9 35  1  0
 10 36  1  0
 11 37  1  0
 16 38  1  0
 18 39  1  0
 18 40  1  0
 24 41  1  0
 24 42  1  0
 25 43  1  0
 27 44  1  0
 27 45  1  0
A    1
FAD
A    2
CAJ
A    3
CAK
A    4
OAQ
A    5
CAZ
A    6
CAI
A    7
CAY
A    8
OAP
A    9
CAA
A   10
CAF
A   11
CAE
A   12
CAW
A   13
CBA
A   14
NAO
A   15
SAS
A   16
CAG
A   17
CAV
A   18
CAL
A   19
SAR
A   20
C2
A   21
N3
A   22
N1
A   23
C6
A   24
NAB
A   25
C5
A   26
C4
A   27
NAC
M  END
