4JMO_JAF_A_301
     RDKit          3D

 38 39  0  0  0  0  0  0  0  0999 V2000
   27.0910   13.2110   57.5710 C   0  0  0  0  0  0  0  0  0  0  0  0
   27.4740   11.8260   57.4430 C   0  0  0  0  0  0  0  0  0  0  0  0
   26.7780   10.8620   58.1770 C   0  0  0  0  0  0  0  0  0  0  0  0
   27.0990    9.4980   58.1030 C   0  0  0  0  0  0  0  0  0  0  0  0
   26.3290    8.6480   58.8180 O   0  0  0  0  0  0  0  0  0  0  0  0
   28.1270    9.0580   57.2670 C   0  0  0  0  0  0  0  0  0  0  0  0
   28.8550    9.9960   56.5230 C   0  0  0  0  0  0  0  0  0  0  0  0
   29.9100    9.5660   55.6990 C   0  0  0  0  0  0  0  0  0  0  0  0
   28.5220   11.3660   56.6200 C   0  0  0  0  0  0  0  0  0  0  0  0
   29.2270   12.2670   55.8900 N   0  0  0  0  0  0  0  0  0  0  0  0
   28.5670   12.7830   54.3300 S   0  0  0  0  0  0  0  0  0  0  0  0
   29.4160   13.8600   53.5850 O   0  0  0  0  0  0  0  0  0  0  0  0
   27.1080   13.2350   54.5530 O   0  0  0  0  0  0  0  0  0  0  0  0
   28.5480   11.4340   53.3480 C   0  0  0  0  0  0  0  0  0  0  0  0
   27.3410   10.7590   53.2360 C   0  0  0  0  0  0  0  0  0  0  0  0
   27.2930    9.6370   52.4260 C   0  0  0  0  0  0  0  0  0  0  0  0
   28.4140    9.2000   51.7300 C   0  0  0  0  0  0  0  0  0  0  0  0
   28.2000    8.0550   50.9710 O   0  0  0  0  0  0  0  0  0  0  0  0
   29.2470    7.6190   50.1140 C   0  0  0  0  0  0  0  0  0  0  0  0
   29.6360    9.8890   51.8650 C   0  0  0  0  0  0  0  0  0  0  0  0
   29.7010   11.0140   52.6710 C   0  0  0  0  0  0  0  0  0  0  0  0
   27.0182   13.4743   58.6365 H   0  0  0  0  0  0  0  0  0  0  0  0
   27.8471   13.8467   57.0870 H   0  0  0  0  0  0  0  0  0  0  0  0
   26.1157   13.3680   57.0870 H   0  0  0  0  0  0  0  0  0  0  0  0
   25.9542   11.1818   58.8321 H   0  0  0  0  0  0  0  0  0  0  0  0
   26.3515    8.6728   59.8074 H   0  0  0  0  0  0  0  0  0  0  0  0
   28.3630    7.9861   57.1932 H   0  0  0  0  0  0  0  0  0  0  0  0
   30.7480    9.2245   56.3244 H   0  0  0  0  0  0  0  0  0  0  0  0
   29.5647    8.7368   55.0639 H   0  0  0  0  0  0  0  0  0  0  0  0
   30.2427   10.4003   55.0639 H   0  0  0  0  0  0  0  0  0  0  0  0
   30.1228   12.6410   56.2344 H   0  0  0  0  0  0  0  0  0  0  0  0
   26.4472   11.1055   53.7756 H   0  0  0  0  0  0  0  0  0  0  0  0
   26.3489    9.0804   52.3314 H   0  0  0  0  0  0  0  0  0  0  0  0
   30.0942    7.2662   50.7204 H   0  0  0  0  0  0  0  0  0  0  0  0
   28.8832    6.7976   49.4792 H   0  0  0  0  0  0  0  0  0  0  0  0
   29.5737    8.4558   49.4792 H   0  0  0  0  0  0  0  0  0  0  0  0
   30.5323    9.5359   51.3339 H   0  0  0  0  0  0  0  0  0  0  0  0
   30.6443   11.5697   52.7781 H   0  0  0  0  0  0  0  0  0  0  0  0
 19 18  1  0
 18 17  1  0
 17 20  2  0
 17 16  1  0
 20 21  1  0
 16 15  2  0
 21 14  2  0
 15 14  1  0
 14 11  1  0
 12 11  2  0
 11 13  2  0
 11 10  1  0
  8  7  1  0
 10  9  1  0
  7  9  1  0
  7  6  2  0
  9  2  2  0
  6  4  1  0
  2  1  1  0
  2  3  1  0
  4  3  2  0
  4  5  1  0
  1 22  1  0
  1 23  1  0
  1 24  1  0
  3 25  1  0
  5 26  1  0
  6 27  1  0
  8 28  1  0
  8 29  1  0
  8 30  1  0
 10 31  1  0
 15 32  1  0
 16 33  1  0
 19 34  1  0
 19 35  1  0
 19 36  1  0
 20 37  1  0
 21 38  1  0
A    1
CAB
A    2
CAO
A    3
CAK
A    4
CAQ
A    5
OAF
A    6
CAL
A    7
CAP
A    8
CAC
A    9
CAT
A   10
NAM
A   11
SAU
A   12
OAD
A   13
OAE
A   14
CAS
A   15
CAI
A   16
CAG
A   17
CAR
A   18
OAN
A   19
CAA
A   20
CAH
A   21
CAJ
M  END
