4JMT_1LZ_A_302
     RDKit          3D

 19 20  0  0  0  0  0  0  0  0999 V2000
   30.2990   90.5690   47.9540 C   0  0  0  0  0  0  0  0  0  0  0  0
   31.2340   90.5640   49.0030 C   0  0  0  0  0  0  0  0  0  0  0  0
   32.3660   89.9870   48.5610 N   0  0  0  0  0  0  0  0  0  0  0  0
   32.2170   89.6140   47.2690 C   0  0  0  0  0  0  0  0  0  0  0  0
   30.9310   89.9670   46.8480 C   0  0  0  0  0  0  0  0  0  0  0  0
   30.5080   89.7050   45.5720 N   0  0  0  0  0  0  0  0  0  0  0  0
   31.3080   89.1120   44.6920 C   0  0  0  0  0  0  0  0  0  0  0  0
   32.5790   88.7450   45.0420 C   0  0  0  0  0  0  0  0  0  0  0  0
   33.0610   89.0070   46.3830 C   0  0  0  0  0  0  0  0  0  0  0  0
   33.4700   88.1130   44.0510 C   0  0  0  0  0  0  0  0  0  0  0  0
   34.3180   88.9790   43.3390 O   0  0  0  0  0  0  0  0  0  0  0  0
   29.2736   90.9656   47.9894 H   0  0  0  0  0  0  0  0  0  0  0  0
   31.0684   90.9641   50.0142 H   0  0  0  0  0  0  0  0  0  0  0  0
   33.2187   89.8497   49.1222 H   0  0  0  0  0  0  0  0  0  0  0  0
   30.9451   88.9143   43.6726 H   0  0  0  0  0  0  0  0  0  0  0  0
   34.0816   88.7240   46.6803 H   0  0  0  0  0  0  0  0  0  0  0  0
   32.8392   87.5851   43.3207 H   0  0  0  0  0  0  0  0  0  0  0  0
   34.1369   87.4573   44.6300 H   0  0  0  0  0  0  0  0  0  0  0  0
   34.8478   89.5201   43.9766 H   0  0  0  0  0  0  0  0  0  0  0  0
 11 10  1  0
 10  8  1  0
  7  8  2  0
  7  6  1  0
  8  9  1  0
  6  5  2  0
  9  4  2  0
  5  4  1  0
  5  1  1  0
  4  3  1  0
  1  2  2  0
  3  2  1  0
  1 12  1  0
  2 13  1  0
  3 14  1  0
  7 15  1  0
  9 16  1  0
 10 17  1  0
 10 18  1  0
 11 19  1  0
A    1
C01
A    2
C02
A    3
N03
A    4
C04
A    5
C05
A    6
N06
A    7
C07
A    8
C08
A    9
C09
A   10
C10
A   11
O11
M  END
