4JMZ_1M2_A_302
     RDKit          3D

 20 21  0  0  0  0  0  0  0  0999 V2000
   30.1440   88.6570   42.0120 C   0  0  0  0  0  0  0  0  0  0  0  0
   29.1160   89.4720   42.6390 N   0  0  0  0  0  0  0  0  0  0  0  0
   29.3230   89.9920   43.9930 C   0  0  0  0  0  0  0  0  0  0  0  0
   30.4920   89.9580   44.7140 N   0  0  0  0  0  0  0  0  0  0  0  0
   30.2500   90.5350   45.9420 C   0  0  0  0  0  0  0  0  0  0  0  0
   31.0940   90.7510   47.0880 C   0  0  0  0  0  0  0  0  0  0  0  0
   30.5550   91.3810   48.1960 C   0  0  0  0  0  0  0  0  0  0  0  0
   29.2050   91.7500   48.2020 C   0  0  0  0  0  0  0  0  0  0  0  0
   28.3750   91.5030   47.0960 C   0  0  0  0  0  0  0  0  0  0  0  0
   28.9250   90.9050   45.9590 C   0  0  0  0  0  0  0  0  0  0  0  0
   28.3730   90.5690   44.7460 N   0  0  0  0  0  0  0  0  0  0  0  0
   30.7537   88.1736   42.7896 H   0  0  0  0  0  0  0  0  0  0  0  0
   29.6700   87.8866   41.3860 H   0  0  0  0  0  0  0  0  0  0  0  0
   30.7860   89.2942   41.3860 H   0  0  0  0  0  0  0  0  0  0  0  0
   28.2444   89.6833   42.1325 H   0  0  0  0  0  0  0  0  0  0  0  0
   31.3906   89.5698   44.3934 H   0  0  0  0  0  0  0  0  0  0  0  0
   32.1438   90.4226   47.0831 H   0  0  0  0  0  0  0  0  0  0  0  0
   31.1871   91.5916   49.0713 H   0  0  0  0  0  0  0  0  0  0  0  0
   28.7853   92.2435   49.0910 H   0  0  0  0  0  0  0  0  0  0  0  0
   27.3097   91.7758   47.1244 H   0  0  0  0  0  0  0  0  0  0  0  0
  1  2  1  0
  2  3  1  0
  3  4  1  0
  3 11  2  0
  4  5  1  0
 11 10  1  0
  5 10  2  0
  5  6  1  0
 10  9  1  0
  6  7  2  0
  9  8  2  0
  7  8  1  0
  1 12  1  0
  1 13  1  0
  1 14  1  0
  2 15  1  0
  4 16  1  0
  6 17  1  0
  7 18  1  0
  8 19  1  0
  9 20  1  0
A    1
C01
A    2
N02
A    3
C03
A    4
N04
A    5
C05
A    6
C06
A    7
C07
A    8
C08
A    9
C09
A   10
C10
A   11
N11
M  END
