4JNM_1LJ_A_601
     RDKit          3D

 45 47  0  0  0  0  0  0  0  0999 V2000
   14.4820    4.8960   -4.4990 C   0  0  0  0  0  0  0  0  0  0  0  0
   13.8160    5.2090   -5.6690 C   0  0  0  0  0  0  0  0  0  0  0  0
   14.5250    5.3850   -6.8420 C   0  0  0  0  0  0  0  0  0  0  0  0
   14.1080    5.9200   -1.8810 C   0  0  0  0  0  0  0  0  0  0  0  0
   14.9720    7.8630   -0.0970 C   0  0  0  0  0  0  0  0  0  0  0  0
   15.1580    5.6520   -1.0230 C   0  0  0  0  0  0  0  0  0  0  0  0
   14.7060    9.7080    1.5000 C   0  0  0  0  0  0  0  0  0  0  0  0
   14.5880   11.5080    3.1530 C   0  0  0  0  0  0  0  0  0  0  0  0
   14.7360   11.1190    4.6010 C   0  0  0  0  0  0  0  0  0  0  0  0
   15.8900   10.4680    5.0290 C   0  0  0  0  0  0  0  0  0  0  0  0
   14.9540   10.4250    7.2270 C   0  0  0  0  0  0  0  0  0  0  0  0
   13.7370   11.3900    5.5130 C   0  0  0  0  0  0  0  0  0  0  0  0
   15.9010    5.2470   -6.8440 C   0  0  0  0  0  0  0  0  0  0  0  0
   16.5680    4.9330   -5.6750 C   0  0  0  0  0  0  0  0  0  0  0  0
   15.8580    4.7580   -4.5020 C   0  0  0  0  0  0  0  0  0  0  0  0
   13.5710    4.6750   -3.0070 S   0  0  0  0  0  0  0  0  0  0  0  0
   12.2170    4.9590   -3.3290 O   0  0  0  0  0  0  0  0  0  0  0  0
   13.9940    3.4430   -2.4410 O   0  0  0  0  0  0  0  0  0  0  0  0
   13.4890    7.1550   -1.8510 C   0  0  0  0  0  0  0  0  0  0  0  0
   13.9180    8.1270   -0.9660 C   0  0  0  0  0  0  0  0  0  0  0  0
   15.5880    6.6180   -0.1360 C   0  0  0  0  0  0  0  0  0  0  0  0
   15.4550    8.8020    0.8290 N   0  0  0  0  0  0  0  0  0  0  0  0
   13.5020    9.8190    1.3420 O   0  0  0  0  0  0  0  0  0  0  0  0
   15.3330   10.5170    2.3760 N   0  0  0  0  0  0  0  0  0  0  0  0
   16.0010   10.1160    6.3620 C   0  0  0  0  0  0  0  0  0  0  0  0
   13.8710   11.0440    6.7800 N   0  0  0  0  0  0  0  0  0  0  0  0
   15.0460   10.0820    8.5710 N   0  0  0  0  0  0  0  0  0  0  0  0
   12.7214    5.3180   -5.6664 H   0  0  0  0  0  0  0  0  0  0  0  0
   13.9954    5.6346   -7.7732 H   0  0  0  0  0  0  0  0  0  0  0  0
   15.6509    4.6689   -1.0471 H   0  0  0  0  0  0  0  0  0  0  0  0
   15.0038   12.5125    2.9854 H   0  0  0  0  0  0  0  0  0  0  0  0
   13.5295   11.5320    2.8547 H   0  0  0  0  0  0  0  0  0  0  0  0
   16.6988   10.2378    4.3198 H   0  0  0  0  0  0  0  0  0  0  0  0
   12.8201   11.8992    5.1814 H   0  0  0  0  0  0  0  0  0  0  0  0
   16.4656    5.3874   -7.7776 H   0  0  0  0  0  0  0  0  0  0  0  0
   17.6624    4.8225   -5.6780 H   0  0  0  0  0  0  0  0  0  0  0  0
   16.3876    4.5089   -3.5706 H   0  0  0  0  0  0  0  0  0  0  0  0
   12.6523    7.3656   -2.5333 H   0  0  0  0  0  0  0  0  0  0  0  0
   13.4253    9.1103   -0.9490 H   0  0  0  0  0  0  0  0  0  0  0  0
   16.4242    6.4009    0.5449 H   0  0  0  0  0  0  0  0  0  0  0  0
   16.4683    8.8011    1.0138 H   0  0  0  0  0  0  0  0  0  0  0  0
   16.3523   10.4367    2.5007 H   0  0  0  0  0  0  0  0  0  0  0  0
   16.8999    9.6013    6.7323 H   0  0  0  0  0  0  0  0  0  0  0  0
   14.8567   10.7879    9.2968 H   0  0  0  0  0  0  0  0  0  0  0  0
   15.3035    9.1220    8.8410 H   0  0  0  0  0  0  0  0  0  0  0  0
 13  3  1  0
 13 14  2  0
  3  2  2  0
 14 15  1  0
  2  1  1  0
 15  1  2  0
  1 16  1  0
 17 16  2  0
 16 18  2  0
 16  4  1  0
  4 19  1  0
  4  6  2  0
 19 20  2  0
  6 21  1  0
 20  5  1  0
 21  5  2  0
  5 22  1  0
 22  7  1  0
 23  7  2  0
  7 24  1  0
 24  8  1  0
  8  9  1  0
  9 10  2  0
  9 12  1  0
 10 25  1  0
 12 26  2  0
 25 11  2  0
 26 11  1  0
 11 27  1  0
  2 28  1  0
  3 29  1  0
  6 30  1  0
  8 31  1  0
  8 32  1  0
 10 33  1  0
 12 34  1  0
 13 35  1  0
 14 36  1  0
 15 37  1  0
 19 38  1  0
 20 39  1  0
 21 40  1  0
 22 41  1  0
 24 42  1  0
 25 43  1  0
 27 44  1  0
 27 45  1  0
A    1
C4
A    2
C5
A    3
C6
A    4
C10
A    5
C13
A    6
C15
A    7
C17
A    8
C20
A    9
C21
A   10
C22
A   11
C24
A   12
C26
A   13
C1
A   14
C2
A   15
C3
A   16
S7
A   17
O8
A   18
O9
A   19
C11
A   20
C12
A   21
C14
A   22
N16
A   23
O18
A   24
N19
A   25
C23
A   26
N25
A   27
N27
M  END
