4JPS_1LT_A_1102
     RDKit          3D

 52 54  0  0  0  0  0  0  0  0999 V2000
   -3.0800  -11.7290   15.7730 C   0  0  0  0  0  0  0  0  0  0  0  0
   -1.6030  -10.4210   14.7720 C   0  0  0  0  0  0  0  0  0  0  0  0
    0.0440   -8.8630   13.8080 C   0  0  0  0  0  0  0  0  0  0  0  0
    1.6100   -5.2050   13.6960 O   0  0  0  0  0  0  0  0  0  0  0  0
   -4.2730  -11.6290   18.7320 C   0  0  0  0  0  0  0  0  0  0  0  0
   -4.6390  -11.5270   20.0560 C   0  0  0  0  0  0  0  0  0  0  0  0
   -2.9160  -10.0900   20.5290 C   0  0  0  0  0  0  0  0  0  0  0  0
   -2.4780  -10.1140   19.1970 C   0  0  0  0  0  0  0  0  0  0  0  0
   -2.1400   -9.3030   21.6130 C   0  0  0  0  0  0  0  0  0  0  0  0
   -1.0640   -8.4030   20.9840 C   0  0  0  0  0  0  0  0  0  0  0  0
   -3.1110   -8.4460   22.4440 C   0  0  0  0  0  0  0  0  0  0  0  0
   -1.3810  -10.3370   22.6220 C   0  0  0  0  0  0  0  0  0  0  0  0
   -0.6820   -9.6680   23.5380 F   0  0  0  0  0  0  0  0  0  0  0  0
   -2.2190  -11.1320   23.2770 F   0  0  0  0  0  0  0  0  0  0  0  0
   -0.5360  -11.1320   21.9750 F   0  0  0  0  0  0  0  0  0  0  0  0
   -3.9910  -10.7690   20.9520 N   0  0  0  0  0  0  0  0  0  0  0  0
   -3.1840  -10.8900   18.2830 C   0  0  0  0  0  0  0  0  0  0  0  0
   -2.7500  -10.9380   16.8690 C   0  0  0  0  0  0  0  0  0  0  0  0
   -4.0520  -12.8640   15.7720 C   0  0  0  0  0  0  0  0  0  0  0  0
   -1.5770   -9.7460   16.3620 S   0  0  0  0  0  0  0  0  0  0  0  0
   -2.4190  -11.4290   14.5990 N   0  0  0  0  0  0  0  0  0  0  0  0
   -0.8290   -9.9580   13.7250 N   0  0  0  0  0  0  0  0  0  0  0  0
    0.1900   -8.2350   14.8460 O   0  0  0  0  0  0  0  0  0  0  0  0
    0.7390   -8.5170   12.6650 N   0  0  0  0  0  0  0  0  0  0  0  0
    1.6800   -7.3850   12.6910 C   0  0  0  0  0  0  0  0  0  0  0  0
    1.0160   -6.0450   13.0140 C   0  0  0  0  0  0  0  0  0  0  0  0
   -0.2270   -5.8810   12.5910 N   0  0  0  0  0  0  0  0  0  0  0  0
    2.3070   -7.3990   11.2880 C   0  0  0  0  0  0  0  0  0  0  0  0
    1.3280   -8.1590   10.4240 C   0  0  0  0  0  0  0  0  0  0  0  0
    0.6760   -9.1660   11.3460 C   0  0  0  0  0  0  0  0  0  0  0  0
   -4.8306  -12.2815   18.0441 H   0  0  0  0  0  0  0  0  0  0  0  0
   -5.5132  -12.1005   20.3978 H   0  0  0  0  0  0  0  0  0  0  0  0
   -1.5980   -9.5337   18.8825 H   0  0  0  0  0  0  0  0  0  0  0  0
   -0.4819   -7.9161   21.7803 H   0  0  0  0  0  0  0  0  0  0  0  0
   -0.3939   -9.0134   20.3608 H   0  0  0  0  0  0  0  0  0  0  0  0
   -1.5463   -7.6355   20.3608 H   0  0  0  0  0  0  0  0  0  0  0  0
   -2.9225   -8.6124   23.5149 H   0  0  0  0  0  0  0  0  0  0  0  0
   -2.9580   -7.3831   22.2056 H   0  0  0  0  0  0  0  0  0  0  0  0
   -4.1467   -8.7299   22.2056 H   0  0  0  0  0  0  0  0  0  0  0  0
   -4.2910  -13.1430   16.8088 H   0  0  0  0  0  0  0  0  0  0  0  0
   -4.9725  -12.5580   15.2532 H   0  0  0  0  0  0  0  0  0  0  0  0
   -3.6081  -13.7264   15.2532 H   0  0  0  0  0  0  0  0  0  0  0  0
   -0.8977  -10.4501   12.8228 H   0  0  0  0  0  0  0  0  0  0  0  0
    2.4230   -7.4943   13.4947 H   0  0  0  0  0  0  0  0  0  0  0  0
   -0.9935   -5.7799   13.2716 H   0  0  0  0  0  0  0  0  0  0  0  0
   -0.4281   -5.8545   11.5812 H   0  0  0  0  0  0  0  0  0  0  0  0
    3.2817   -7.9085   11.3062 H   0  0  0  0  0  0  0  0  0  0  0  0
    2.4874   -6.3825   10.9082 H   0  0  0  0  0  0  0  0  0  0  0  0
    0.5741   -7.4764   10.0048 H   0  0  0  0  0  0  0  0  0  0  0  0
    1.8261   -8.6462    9.5728 H   0  0  0  0  0  0  0  0  0  0  0  0
   -0.3666   -9.3529   11.0494 H   0  0  0  0  0  0  0  0  0  0  0  0
    1.1727  -10.1473   11.3277 H   0  0  0  0  0  0  0  0  0  0  0  0
 29 28  1  0
 29 30  1  0
 28 25  1  0
 30 24  1  0
 27 26  1  0
 24 25  1  0
 24  3  1  0
 25 26  1  0
 26  4  2  0
 22  3  1  0
 22  2  1  0
  3 23  2  0
 21  2  2  0
 21  1  1  0
  2 20  1  0
  1 19  1  0
  1 18  2  0
 20 18  1  0
 18 17  1  0
 17  5  2  0
 17  8  1  0
  5  6  1  0
  8  7  2  0
  6 16  2  0
  7 16  1  0
  7  9  1  0
 10  9  1  0
  9 11  1  0
  9 12  1  0
 15 12  1  0
 12 14  1  0
 12 13  1  0
  5 31  1  0
  6 32  1  0
  8 33  1  0
 10 34  1  0
 10 35  1  0
 10 36  1  0
 11 37  1  0
 11 38  1  0
 11 39  1  0
 19 40  1  0
 19 41  1  0
 19 42  1  0
 22 43  1  0
 25 44  1  0
 27 45  1  0
 27 46  1  0
 28 47  1  0
 28 48  1  0
 29 49  1  0
 29 50  1  0
 30 51  1  0
 30 52  1  0
A    1
C1
A    2
C2
A    3
C3
A    4
O1
A    5
C11
A    6
C12
A    7
C13
A    8
C14
A    9
C15
A   10
C16
A   11
C17
A   12
C18
A   13
F2
A   14
F
A   15
F1
A   16
N4
A   17
C10
A   18
C9
A   19
C
A   20
S
A   21
N
A   22
N1
A   23
O
A   24
N2
A   25
C7
A   26
C8
A   27
N3
A   28
C6
A   29
C5
A   30
C4
M  END
