4JQ8_KJ8_A_1001
     RDKit          3D

 70 74  0  0  0  0  0  0  0  0999 V2000
  155.6730  120.1920  196.2610 C   0  0  0  0  0  0  0  0  0  0  0  0
  154.3330  120.7330  196.5650 N   0  0  0  0  0  0  0  0  0  0  0  0
  153.2940  119.8090  196.0690 C   0  0  0  0  0  0  0  0  0  0  0  0
  154.1330  122.1350  196.1470 C   0  0  0  0  0  0  0  0  0  0  0  0
  153.4990  122.9410  197.2770 C   0  0  0  0  0  0  0  0  0  0  0  0
  152.1640  123.5670  196.7710 C   0  0  0  0  0  0  0  0  0  0  0  0
  152.1110  124.0380  195.6440 O   0  0  0  0  0  0  0  0  0  0  0  0
  151.1450  123.6630  197.6740 N   0  0  0  0  0  0  0  0  0  0  0  0
  149.9490  124.2320  197.3340 C   0  0  0  0  0  0  0  0  0  0  0  0
  149.0610  124.5510  198.3820 C   0  0  0  0  0  0  0  0  0  0  0  0
  149.5380  124.5230  196.0210 C   0  0  0  0  0  0  0  0  0  0  0  0
  148.2850  125.0940  195.7960 C   0  0  0  0  0  0  0  0  0  0  0  0
  147.4190  125.3870  196.8500 C   0  0  0  0  0  0  0  0  0  0  0  0
  147.7970  125.1300  198.1740 C   0  0  0  0  0  0  0  0  0  0  0  0
  146.9610  125.3930  199.2200 C   0  0  0  0  0  0  0  0  0  0  0  0
  146.5090  124.4600  200.1160 C   0  0  0  0  0  0  0  0  0  0  0  0
  146.3940  126.5800  199.5480 C   0  0  0  0  0  0  0  0  0  0  0  0
  146.5280  127.8050  199.0400 C   0  0  0  0  0  0  0  0  0  0  0  0
  147.5520  128.1700  198.1520 C   0  0  0  0  0  0  0  0  0  0  0  0
  147.6440  129.4830  197.7040 C   0  0  0  0  0  0  0  0  0  0  0  0
  146.7540  130.4470  198.1670 C   0  0  0  0  0  0  0  0  0  0  0  0
  145.7640  130.1090  199.0800 C   0  0  0  0  0  0  0  0  0  0  0  0
  145.6560  128.7960  199.5200 C   0  0  0  0  0  0  0  0  0  0  0  0
  145.6290  126.4140  200.6270 O   0  0  0  0  0  0  0  0  0  0  0  0
  145.6910  125.1240  200.9760 C   0  0  0  0  0  0  0  0  0  0  0  0
  145.0710  124.5160  201.9980 N   0  0  0  0  0  0  0  0  0  0  0  0
  145.2770  123.1540  202.2020 C   0  0  0  0  0  0  0  0  0  0  0  0
  146.1150  122.4720  201.3340 N   0  0  0  0  0  0  0  0  0  0  0  0
  146.7090  123.1240  200.3130 C   0  0  0  0  0  0  0  0  0  0  0  0
  147.4820  122.4160  199.4480 N   0  0  0  0  0  0  0  0  0  0  0  0
  147.8220  120.9760  199.6370 C   0  0  0  0  0  0  0  0  0  0  0  0
  148.7770  120.5070  198.5660 C   0  0  0  0  0  0  0  0  0  0  0  0
  150.0700  121.0460  198.8070 O   0  0  0  0  0  0  0  0  0  0  0  0
  146.6880  120.1040  199.6130 C   0  0  0  0  0  0  0  0  0  0  0  0
  145.4330  120.4960  199.1440 C   0  0  0  0  0  0  0  0  0  0  0  0
  144.3500  119.6110  199.1490 C   0  0  0  0  0  0  0  0  0  0  0  0
  144.4990  118.3090  199.6090 C   0  0  0  0  0  0  0  0  0  0  0  0
  145.7420  117.9030  200.0660 C   0  0  0  0  0  0  0  0  0  0  0  0
  146.8180  118.7910  200.0750 C   0  0  0  0  0  0  0  0  0  0  0  0
  156.2037  119.9777  197.2004 H   0  0  0  0  0  0  0  0  0  0  0  0
  155.5705  119.2648  195.6781 H   0  0  0  0  0  0  0  0  0  0  0  0
  156.2430  120.9305  195.6781 H   0  0  0  0  0  0  0  0  0  0  0  0
  152.7756  119.3479  196.9226 H   0  0  0  0  0  0  0  0  0  0  0  0
  152.5693  120.3664  195.4574 H   0  0  0  0  0  0  0  0  0  0  0  0
  153.7630  119.0241  195.4574 H   0  0  0  0  0  0  0  0  0  0  0  0
  155.1057  122.5781  195.8871 H   0  0  0  0  0  0  0  0  0  0  0  0
  153.4634  122.1555  195.2745 H   0  0  0  0  0  0  0  0  0  0  0  0
  153.2948  122.2793  198.1317 H   0  0  0  0  0  0  0  0  0  0  0  0
  154.1862  123.7397  197.5930 H   0  0  0  0  0  0  0  0  0  0  0  0
  151.2793  123.3003  198.6286 H   0  0  0  0  0  0  0  0  0  0  0  0
  149.3732  124.3359  199.4146 H   0  0  0  0  0  0  0  0  0  0  0  0
  150.2029  124.3010  195.1733 H   0  0  0  0  0  0  0  0  0  0  0  0
  147.9731  125.3181  194.7652 H   0  0  0  0  0  0  0  0  0  0  0  0
  146.4314  125.8233  196.6395 H   0  0  0  0  0  0  0  0  0  0  0  0
  148.2800  127.4190  197.8114 H   0  0  0  0  0  0  0  0  0  0  0  0
  148.4242  129.7610  196.9801 H   0  0  0  0  0  0  0  0  0  0  0  0
  146.8352  131.4834  197.8075 H   0  0  0  0  0  0  0  0  0  0  0  0
  145.0695  130.8764  199.4526 H   0  0  0  0  0  0  0  0  0  0  0  0
  144.8794  128.5295  200.2520 H   0  0  0  0  0  0  0  0  0  0  0  0
  144.7848  122.6303  203.0348 H   0  0  0  0  0  0  0  0  0  0  0  0
  147.8528  122.8996  198.6176 H   0  0  0  0  0  0  0  0  0  0  0  0
  148.2769  120.9230  200.6371 H   0  0  0  0  0  0  0  0  0  0  0  0
  148.4178  120.8445  197.5826 H   0  0  0  0  0  0  0  0  0  0  0  0
  148.8316  119.4085  198.5825 H   0  0  0  0  0  0  0  0  0  0  0  0
  150.2241  121.1102  199.7828 H   0  0  0  0  0  0  0  0  0  0  0  0
  145.2934  121.5187  198.7639 H   0  0  0  0  0  0  0  0  0  0  0  0
  143.3691  119.9500  198.7845 H   0  0  0  0  0  0  0  0  0  0  0  0
  143.6465  117.6138  199.6104 H   0  0  0  0  0  0  0  0  0  0  0  0
  145.8818  116.8725  200.4246 H   0  0  0  0  0  0  0  0  0  0  0  0
  147.7923  118.4497  200.4548 H   0  0  0  0  0  0  0  0  0  0  0  0
  7  6  2  0
 12 11  1  0
 12 13  2  0
 11  9  2  0
  3  2  1  0
  4  2  1  0
  4  5  1  0
  1  2  1  0
  6  5  1  0
  6  8  1  0
 13 14  1  0
  9  8  1  0
  9 10  1  0
 20 19  2  0
 20 21  1  0
 19 18  1  0
 21 22  2  0
 14 10  2  0
 14 15  1  0
 32 33  1  0
 32 31  1  0
 18 23  2  0
 18 17  1  0
 22 23  1  0
 35 36  2  0
 35 34  1  0
 36 37  1  0
 15 17  2  0
 15 16  1  0
 30 31  1  0
 30 29  1  0
 17 24  1  0
 37 38  2  0
 34 31  1  0
 34 39  2  0
 38 39  1  0
 16 29  1  0
 16 25  2  0
 29 28  2  0
 24 25  1  0
 25 26  1  0
 28 27  1  0
 26 27  2  0
  1 40  1  0
  1 41  1  0
  1 42  1  0
  3 43  1  0
  3 44  1  0
  3 45  1  0
  4 46  1  0
  4 47  1  0
  5 48  1  0
  5 49  1  0
  8 50  1  0
 10 51  1  0
 11 52  1  0
 12 53  1  0
 13 54  1  0
 19 55  1  0
 20 56  1  0
 21 57  1  0
 22 58  1  0
 23 59  1  0
 27 60  1  0
 30 61  1  0
 31 62  1  0
 32 63  1  0
 32 64  1  0
 33 65  1  0
 35 66  1  0
 36 67  1  0
 37 68  1  0
 38 69  1  0
 39 70  1  0
A    1
C35
A    2
N32
A    3
C34
A    4
C31
A    5
C30
A    6
C29
A    7
O33
A    8
N28
A    9
C26
A   10
C27
A   11
C25
A   12
C24
A   13
C23
A   14
C16
A   15
C1
A   16
C5
A   17
C2
A   18
C10
A   19
C11
A   20
C12
A   21
C13
A   22
C14
A   23
C15
A   24
O3
A   25
C4
A   26
N6
A   27
C7
A   28
N8
A   29
C9
A   30
N
A   31
CA
A   32
C
A   33
O
A   34
C17
A   35
C18
A   36
C19
A   37
C20
A   38
C21
A   39
C22
M  END
