4JQJ_1LM_A_302
     RDKit          3D

 19 20  0  0  0  0  0  0  0  0999 V2000
    8.8640    1.7670    3.1060 C   0  0  0  0  0  0  0  0  0  0  0  0
   10.0050    1.7460    3.9200 C   0  0  0  0  0  0  0  0  0  0  0  0
   10.0110    2.4000    5.1260 C   0  0  0  0  0  0  0  0  0  0  0  0
    8.8280    3.1180    5.5040 C   0  0  0  0  0  0  0  0  0  0  0  0
    7.7080    3.1350    4.7190 C   0  0  0  0  0  0  0  0  0  0  0  0
    7.7230    2.4530    3.4750 C   0  0  0  0  0  0  0  0  0  0  0  0
    6.5420    3.8590    5.0930 C   0  0  0  0  0  0  0  0  0  0  0  0
    6.5470    4.5170    6.3180 C   0  0  0  0  0  0  0  0  0  0  0  0
    7.7140    4.5280    7.0690 C   0  0  0  0  0  0  0  0  0  0  0  0
    8.8260    3.8520    6.6760 N   0  0  0  0  0  0  0  0  0  0  0  0
    5.3630    3.8600    4.2920 N   0  0  0  0  0  0  0  0  0  0  0  0
    8.8774    1.2237    2.1496 H   0  0  0  0  0  0  0  0  0  0  0  0
   10.9018    1.2014    3.5895 H   0  0  0  0  0  0  0  0  0  0  0  0
   10.8939    2.3746    5.7816 H   0  0  0  0  0  0  0  0  0  0  0  0
    6.8422    2.4701    2.8163 H   0  0  0  0  0  0  0  0  0  0  0  0
    5.6408    5.0206    6.6858 H   0  0  0  0  0  0  0  0  0  0  0  0
    7.7399    5.0997    8.0084 H   0  0  0  0  0  0  0  0  0  0  0  0
    4.4357    3.8608    4.7404 H   0  0  0  0  0  0  0  0  0  0  0  0
    5.4383    3.8599    3.2648 H   0  0  0  0  0  0  0  0  0  0  0  0
  1  6  2  0
  1  2  1  0
  6  5  1  0
  2  3  2  0
 11  7  1  0
  5  7  2  0
  5  4  1  0
  7  8  1  0
  3  4  1  0
  4 10  2  0
  8  9  2  0
 10  9  1  0
  1 12  1  0
  2 13  1  0
  3 14  1  0
  6 15  1  0
  8 16  1  0
  9 17  1  0
 11 18  1  0
 11 19  1  0
A    1
C01
A    2
C02
A    3
C03
A    4
C04
A    5
C05
A    6
C06
A    7
C07
A    8
C08
A    9
C09
A   10
N10
A   11
N11
M  END
