4JRG_I09_A_201
     RDKit          3D

 68 70  0  0  0  0  0  0  0  0999 V2000
   11.7810   10.7380   -1.0430 C   0  0  0  0  0  0  0  0  0  0  0  0
   12.4140   11.9570   -0.4310 C   0  0  0  0  0  0  0  0  0  0  0  0
   11.5560   12.8170    0.2200 N   0  0  0  0  0  0  0  0  0  0  0  0
   12.0330   14.0230    0.8900 C   0  0  0  0  0  0  0  0  0  0  0  0
   12.2410   15.1490   -0.1230 C   0  0  0  0  0  0  0  0  0  0  0  0
   12.6460   16.4230    0.6160 C   0  0  0  0  0  0  0  0  0  0  0  0
   11.5000   17.0540    1.1820 O   0  0  0  0  0  0  0  0  0  0  0  0
   13.4030   17.3850   -0.3100 C   0  0  0  0  0  0  0  0  0  0  0  0
   12.5640   17.8250   -1.3690 O   0  0  0  0  0  0  0  0  0  0  0  0
   13.6340   12.1920   -0.4790 O   0  0  0  0  0  0  0  0  0  0  0  0
   10.3500   10.6320   -0.5890 N   0  0  0  0  0  0  0  0  0  0  0  0
   12.4670    9.4660   -0.5490 C   0  0  0  0  0  0  0  0  0  0  0  0
   13.5950    9.0070   -1.4350 C   0  0  0  0  0  0  0  0  0  0  0  0
   13.6010    9.2920   -2.8020 C   0  0  0  0  0  0  0  0  0  0  0  0
   14.6410    8.8170   -3.6130 C   0  0  0  0  0  0  0  0  0  0  0  0
   14.6300    8.2690   -0.8770 C   0  0  0  0  0  0  0  0  0  0  0  0
   15.6690    7.8010   -1.6850 C   0  0  0  0  0  0  0  0  0  0  0  0
   16.9850    6.8940   -0.9550 Cl  0  0  0  0  0  0  0  0  0  0  0  0
   15.6780    8.0630   -3.0630 C   0  0  0  0  0  0  0  0  0  0  0  0
   11.3300    8.4560   -0.4380 C   0  0  0  0  0  0  0  0  0  0  0  0
   10.9650    7.9770   -1.7800 C   0  0  0  0  0  0  0  0  0  0  0  0
   10.6890    7.6040   -2.8200 N   0  0  0  0  0  0  0  0  0  0  0  0
   11.6620    7.2930    0.4690 C   0  0  0  0  0  0  0  0  0  0  0  0
   12.2180    7.5160    1.7450 C   0  0  0  0  0  0  0  0  0  0  0  0
   12.5380    6.4290    2.5610 C   0  0  0  0  0  0  0  0  0  0  0  0
   11.4260    5.9880    0.0240 C   0  0  0  0  0  0  0  0  0  0  0  0
   11.7420    4.9010    0.8410 C   0  0  0  0  0  0  0  0  0  0  0  0
   12.2990    5.1220    2.1040 C   0  0  0  0  0  0  0  0  0  0  0  0
   12.7180    3.7450    3.1190 Cl  0  0  0  0  0  0  0  0  0  0  0  0
   10.1870    9.3030    0.0950 C   0  0  0  0  0  0  0  0  0  0  0  0
    8.8160    8.6700   -0.2080 C   0  0  0  0  0  0  0  0  0  0  0  0
    7.7200    9.1860    0.7580 C   0  0  0  0  0  0  0  0  0  0  0  0
    7.8030   10.7240    0.8970 C   0  0  0  0  0  0  0  0  0  0  0  0
    7.9010    8.5440    2.1420 C   0  0  0  0  0  0  0  0  0  0  0  0
    6.3360    8.7960    0.2100 C   0  0  0  0  0  0  0  0  0  0  0  0
   11.8664   10.8360   -2.1353 H   0  0  0  0  0  0  0  0  0  0  0  0
   10.5487   12.6025    0.2342 H   0  0  0  0  0  0  0  0  0  0  0  0
   11.2906   14.3402    1.6371 H   0  0  0  0  0  0  0  0  0  0  0  0
   12.9926   13.8027    1.3804 H   0  0  0  0  0  0  0  0  0  0  0  0
   13.0350   14.8657   -0.8297 H   0  0  0  0  0  0  0  0  0  0  0  0
   11.3067   15.3247   -0.6764 H   0  0  0  0  0  0  0  0  0  0  0  0
   13.3279   16.1443    1.4329 H   0  0  0  0  0  0  0  0  0  0  0  0
   11.5594   17.0213    2.1697 H   0  0  0  0  0  0  0  0  0  0  0  0
   13.7388   18.2566    0.2710 H   0  0  0  0  0  0  0  0  0  0  0  0
   14.2675   16.8571   -0.7389 H   0  0  0  0  0  0  0  0  0  0  0  0
   11.7531   18.2503   -0.9926 H   0  0  0  0  0  0  0  0  0  0  0  0
    9.7188   10.6888   -1.4010 H   0  0  0  0  0  0  0  0  0  0  0  0
   12.9781    9.6200    0.4128 H   0  0  0  0  0  0  0  0  0  0  0  0
   12.7893    9.8895   -3.2426 H   0  0  0  0  0  0  0  0  0  0  0  0
   14.6395    9.0402   -4.6901 H   0  0  0  0  0  0  0  0  0  0  0  0
   14.6319    8.0527    0.2015 H   0  0  0  0  0  0  0  0  0  0  0  0
   16.4894    7.6802   -3.6995 H   0  0  0  0  0  0  0  0  0  0  0  0
   12.3991    8.5424    2.0966 H   0  0  0  0  0  0  0  0  0  0  0  0
   12.9750    6.5951    3.5567 H   0  0  0  0  0  0  0  0  0  0  0  0
   10.9905    5.8179   -0.9717 H   0  0  0  0  0  0  0  0  0  0  0  0
   11.5535    3.8749    0.4924 H   0  0  0  0  0  0  0  0  0  0  0  0
   10.2191    9.3955    1.1906 H   0  0  0  0  0  0  0  0  0  0  0  0
    8.8970    7.5779   -0.1044 H   0  0  0  0  0  0  0  0  0  0  0  0
    8.5287    8.9488   -1.2326 H   0  0  0  0  0  0  0  0  0  0  0  0
    7.8177   10.9956    1.9628 H   0  0  0  0  0  0  0  0  0  0  0  0
    8.7220   11.0868    0.4135 H   0  0  0  0  0  0  0  0  0  0  0  0
    6.9284   11.1836    0.4135 H   0  0  0  0  0  0  0  0  0  0  0  0
    7.6907    9.2900    2.9226 H   0  0  0  0  0  0  0  0  0  0  0  0
    7.2065    7.6975    2.2472 H   0  0  0  0  0  0  0  0  0  0  0  0
    8.9354    8.1849    2.2472 H   0  0  0  0  0  0  0  0  0  0  0  0
    5.6507    8.6029    1.0485 H   0  0  0  0  0  0  0  0  0  0  0  0
    5.9404    9.6176   -0.4051 H   0  0  0  0  0  0  0  0  0  0  0  0
    6.4276    7.8887   -0.4051 H   0  0  0  0  0  0  0  0  0  0  0  0
 34 32  1  0
 35 32  1  0
 32 33  1  0
 32 31  1  0
 31 30  1  0
 29 28  1  0
 25 28  1  0
 25 24  2  0
 30 11  1  0
 30 20  1  0
 28 27  2  0
 24 23  1  0
  7  6  1  0
 11  1  1  0
 27 26  1  0
  4  3  1  0
  4  5  1  0
 23 26  2  0
 23 20  1  0
  3  2  1  0
 20 21  1  0
 20 12  1  0
  6  5  1  0
  6  8  1  0
  1  2  1  0
  1 12  1  0
  2 10  2  0
 21 22  3  0
 12 13  1  0
  9  8  1  0
 13 16  1  0
 13 14  2  0
 16 17  2  0
 14 15  1  0
 17 18  1  0
 17 19  1  0
 15 19  2  0
  1 36  1  0
  3 37  1  0
  4 38  1  0
  4 39  1  0
  5 40  1  0
  5 41  1  0
  6 42  1  0
  7 43  1  0
  8 44  1  0
  8 45  1  0
  9 46  1  0
 11 47  1  0
 12 48  1  0
 14 49  1  0
 15 50  1  0
 16 51  1  0
 19 52  1  0
 24 53  1  0
 25 54  1  0
 26 55  1  0
 27 56  1  0
 30 57  1  0
 31 58  1  0
 31 59  1  0
 33 60  1  0
 33 61  1  0
 33 62  1  0
 34 63  1  0
 34 64  1  0
 34 65  1  0
 35 66  1  0
 35 67  1  0
 35 68  1  0
A    1
C1
A    2
C10
A    3
N11
A    4
C12
A    5
C13
A    6
C14
A    7
O14
A    8
C15
A    9
O15
A   10
O10
A   11
N1
A   12
C2
A   13
C21
A   14
C26
A   15
C25
A   16
C22
A   17
C23
A   18
CL2
A   19
C24
A   20
C3
A   21
C37
A   22
N37
A   23
C31
A   24
C32
A   25
C33
A   26
C36
A   27
C35
A   28
C34
A   29
CL3
A   30
C4
A   31
C41
A   32
C42
A   33
C45
A   34
C44
A   35
C43
M  END
