4JRV_KJV_A_1001
     RDKit          3D

 73 77  0  0  0  0  0  0  0  0999 V2000
  -26.7360  -48.0110   -7.9210 C   0  0  0  0  0  0  0  0  0  0  0  0
  -26.4660  -49.4550   -8.0070 N   0  0  0  0  0  0  0  0  0  0  0  0
  -27.2270  -50.0130   -9.1360 C   0  0  0  0  0  0  0  0  0  0  0  0
  -25.0120  -49.6800   -8.1880 C   0  0  0  0  0  0  0  0  0  0  0  0
  -24.3630  -50.1710   -6.8890 C   0  0  0  0  0  0  0  0  0  0  0  0
  -22.8430  -50.0140   -6.9330 C   0  0  0  0  0  0  0  0  0  0  0  0
  -22.3710  -49.5790   -5.5370 C   0  0  0  0  0  0  0  0  0  0  0  0
  -21.9280  -48.4440   -5.3580 O   0  0  0  0  0  0  0  0  0  0  0  0
  -22.5020  -50.5280   -4.5800 N   0  0  0  0  0  0  0  0  0  0  0  0
  -22.1700  -50.2890   -3.2950 C   0  0  0  0  0  0  0  0  0  0  0  0
  -21.9650  -51.3770   -2.4500 C   0  0  0  0  0  0  0  0  0  0  0  0
  -22.0720  -48.9950   -2.7650 C   0  0  0  0  0  0  0  0  0  0  0  0
  -21.7520  -48.8160   -1.4230 C   0  0  0  0  0  0  0  0  0  0  0  0
  -21.5450  -49.9120   -0.5880 C   0  0  0  0  0  0  0  0  0  0  0  0
  -21.6490  -51.2070   -1.0970 C   0  0  0  0  0  0  0  0  0  0  0  0
  -21.4590  -52.2770   -0.3020 C   0  0  0  0  0  0  0  0  0  0  0  0
  -22.4300  -53.1510    0.0770 C   0  0  0  0  0  0  0  0  0  0  0  0
  -20.2980  -52.6620    0.2630 C   0  0  0  0  0  0  0  0  0  0  0  0
  -19.0500  -52.1600    0.2010 C   0  0  0  0  0  0  0  0  0  0  0  0
  -18.6110  -51.2790   -0.7990 C   0  0  0  0  0  0  0  0  0  0  0  0
  -17.2920  -50.8190   -0.8130 C   0  0  0  0  0  0  0  0  0  0  0  0
  -16.3880  -51.2480    0.1550 C   0  0  0  0  0  0  0  0  0  0  0  0
  -16.8060  -52.1360    1.1410 C   0  0  0  0  0  0  0  0  0  0  0  0
  -18.1230  -52.5910    1.1580 C   0  0  0  0  0  0  0  0  0  0  0  0
  -20.5380  -53.7420    0.9600 O   0  0  0  0  0  0  0  0  0  0  0  0
  -21.8100  -54.0550    0.8650 C   0  0  0  0  0  0  0  0  0  0  0  0
  -22.4590  -55.0910    1.4260 N   0  0  0  0  0  0  0  0  0  0  0  0
  -23.8190  -55.2580    1.2080 C   0  0  0  0  0  0  0  0  0  0  0  0
  -24.4560  -54.3310    0.3990 N   0  0  0  0  0  0  0  0  0  0  0  0
  -23.7660  -53.3120   -0.1530 C   0  0  0  0  0  0  0  0  0  0  0  0
  -24.4510  -52.4300   -0.9080 N   0  0  0  0  0  0  0  0  0  0  0  0
  -25.8790  -52.6430   -1.2730 C   0  0  0  0  0  0  0  0  0  0  0  0
  -26.3680  -51.5350   -2.1850 C   0  0  0  0  0  0  0  0  0  0  0  0
  -25.3670  -51.4590   -3.2060 O   0  0  0  0  0  0  0  0  0  0  0  0
  -26.7360  -52.6930   -0.1480 C   0  0  0  0  0  0  0  0  0  0  0  0
  -26.2830  -52.4990    1.1640 C   0  0  0  0  0  0  0  0  0  0  0  0
  -27.1710  -52.5690    2.2340 C   0  0  0  0  0  0  0  0  0  0  0  0
  -28.5210  -52.8220    2.0120 C   0  0  0  0  0  0  0  0  0  0  0  0
  -28.9790  -53.0110    0.7120 C   0  0  0  0  0  0  0  0  0  0  0  0
  -28.0900  -52.9470   -0.3600 C   0  0  0  0  0  0  0  0  0  0  0  0
  -26.7921  -47.7108   -6.8643 H   0  0  0  0  0  0  0  0  0  0  0  0
  -25.9260  -47.4563   -8.4172 H   0  0  0  0  0  0  0  0  0  0  0  0
  -27.6917  -47.7865   -8.4172 H   0  0  0  0  0  0  0  0  0  0  0  0
  -28.0583  -50.6226   -8.7522 H   0  0  0  0  0  0  0  0  0  0  0  0
  -27.6269  -49.1925   -9.7499 H   0  0  0  0  0  0  0  0  0  0  0  0
  -26.5647  -50.6411   -9.7499 H   0  0  0  0  0  0  0  0  0  0  0  0
  -24.8605  -50.4355   -8.9731 H   0  0  0  0  0  0  0  0  0  0  0  0
  -24.5440  -48.7263   -8.4733 H   0  0  0  0  0  0  0  0  0  0  0  0
  -24.7594  -49.5850   -6.0467 H   0  0  0  0  0  0  0  0  0  0  0  0
  -24.5981  -51.2385   -6.7656 H   0  0  0  0  0  0  0  0  0  0  0  0
  -22.3762  -50.9727   -7.2032 H   0  0  0  0  0  0  0  0  0  0  0  0
  -22.5576  -49.2632   -7.6845 H   0  0  0  0  0  0  0  0  0  0  0  0
  -22.8646  -51.4563   -4.8402 H   0  0  0  0  0  0  0  0  0  0  0  0
  -22.0536  -52.3955   -2.8561 H   0  0  0  0  0  0  0  0  0  0  0  0
  -22.2480  -48.1215   -3.4099 H   0  0  0  0  0  0  0  0  0  0  0  0
  -21.6614  -47.7979   -1.0166 H   0  0  0  0  0  0  0  0  0  0  0  0
  -21.2995  -49.7563    0.4729 H   0  0  0  0  0  0  0  0  0  0  0  0
  -19.3120  -50.9475   -1.5792 H   0  0  0  0  0  0  0  0  0  0  0  0
  -16.9661  -50.1146   -1.5925 H   0  0  0  0  0  0  0  0  0  0  0  0
  -15.3491  -50.8869    0.1403 H   0  0  0  0  0  0  0  0  0  0  0  0
  -16.0962  -52.4793    1.9080 H   0  0  0  0  0  0  0  0  0  0  0  0
  -18.4398  -53.3008    1.9364 H   0  0  0  0  0  0  0  0  0  0  0  0
  -24.3708  -56.0951    1.6605 H   0  0  0  0  0  0  0  0  0  0  0  0
  -23.9717  -51.5821   -1.2430 H   0  0  0  0  0  0  0  0  0  0  0  0
  -25.9147  -53.6172   -1.7825 H   0  0  0  0  0  0  0  0  0  0  0  0
  -26.4422  -50.5832   -1.6387 H   0  0  0  0  0  0  0  0  0  0  0  0
  -27.3715  -51.7323   -2.5901 H   0  0  0  0  0  0  0  0  0  0  0  0
  -24.4727  -51.3911   -2.7869 H   0  0  0  0  0  0  0  0  0  0  0  0
  -25.2191  -52.2901    1.3495 H   0  0  0  0  0  0  0  0  0  0  0  0
  -26.8033  -52.4235    3.2605 H   0  0  0  0  0  0  0  0  0  0  0  0
  -29.2215  -52.8722    2.8586 H   0  0  0  0  0  0  0  0  0  0  0  0
  -30.0451  -53.2114    0.5295 H   0  0  0  0  0  0  0  0  0  0  0  0
  -28.4612  -53.0986   -1.3843 H   0  0  0  0  0  0  0  0  0  0  0  0
  3  2  1  0
  4  2  1  0
  4  5  1  0
  2  1  1  0
  6  5  1  0
  6  7  1  0
  7  8  2  0
  7  9  1  0
  9 10  1  0
 10 12  2  0
 10 11  1  0
 34 33  1  0
 12 13  1  0
 11 15  2  0
 33 32  1  0
 13 14  2  0
 32 31  1  0
 32 35  1  0
 15 14  1  0
 15 16  1  0
 31 30  1  0
 21 20  2  0
 21 22  1  0
 20 19  1  0
 40 35  1  0
 40 39  2  0
 16 17  1  0
 16 18  2  0
 30 17  1  0
 30 29  2  0
 35 36  2  0
 17 26  2  0
 22 23  2  0
 19 18  1  0
 19 24  2  0
 18 25  1  0
 29 28  1  0
 39 38  1  0
 26 25  1  0
 26 27  1  0
 23 24  1  0
 36 37  1  0
 28 27  2  0
 38 37  2  0
  1 41  1  0
  1 42  1  0
  1 43  1  0
  3 44  1  0
  3 45  1  0
  3 46  1  0
  4 47  1  0
  4 48  1  0
  5 49  1  0
  5 50  1  0
  6 51  1  0
  6 52  1  0
  9 53  1  0
 11 54  1  0
 12 55  1  0
 13 56  1  0
 14 57  1  0
 20 58  1  0
 21 59  1  0
 22 60  1  0
 23 61  1  0
 24 62  1  0
 28 63  1  0
 31 64  1  0
 32 65  1  0
 33 66  1  0
 33 67  1  0
 34 68  1  0
 36 69  1  0
 37 70  1  0
 38 71  1  0
 39 72  1  0
 40 73  1  0
A    1
C35
A    2
N34
A    3
C36
A    4
C33
A    5
C32
A    6
C31
A    7
C29
A    8
O30
A    9
N28
A   10
C21
A   11
C22
A   12
C20
A   13
C19
A   14
C18
A   15
C10
A   16
C7
A   17
C1
A   18
C8
A   19
C11
A   20
C23
A   21
C24
A   22
C25
A   23
C26
A   24
C27
A   25
O9
A   26
C2
A   27
N3
A   28
C4
A   29
N5
A   30
C6
A   31
N
A   32
CA
A   33
C
A   34
O
A   35
C12
A   36
C13
A   37
C14
A   38
C15
A   39
C16
A   40
C17
M  END
