4JSI_Q05_A_803
     RDKit          3D

 51 53  0  0  0  0  0  0  0  0999 V2000
   -0.0900    3.3370   27.9640 F   0  0  0  0  0  0  0  0  0  0  0  0
    0.8770    4.2740   27.9420 C   0  0  0  0  0  0  0  0  0  0  0  0
    0.5980    5.5950   28.3010 C   0  0  0  0  0  0  0  0  0  0  0  0
    1.6210    6.5450   28.2690 C   0  0  0  0  0  0  0  0  0  0  0  0
    2.1720    3.9170   27.5550 C   0  0  0  0  0  0  0  0  0  0  0  0
    3.1990    4.8640   27.5260 C   0  0  0  0  0  0  0  0  0  0  0  0
    2.9160    6.1870   27.8800 C   0  0  0  0  0  0  0  0  0  0  0  0
    4.6010    4.4750   27.0970 C   0  0  0  0  0  0  0  0  0  0  0  0
    5.1660    3.2590   27.8460 C   0  0  0  0  0  0  0  0  0  0  0  0
    6.2470    2.5630   27.1520 N   0  0  0  0  0  0  0  0  0  0  0  0
    6.1980    2.3100   25.7140 C   0  0  0  0  0  0  0  0  0  0  0  0
    7.2620    3.2090   25.1500 C   0  0  0  0  0  0  0  0  0  0  0  0
    6.9320    4.4700   24.6600 C   0  0  0  0  0  0  0  0  0  0  0  0
    7.9630    5.2780   24.1700 C   0  0  0  0  0  0  0  0  0  0  0  0
    9.2980    4.8360   24.1840 C   0  0  0  0  0  0  0  0  0  0  0  0
    8.5930    2.7720   25.1650 C   0  0  0  0  0  0  0  0  0  0  0  0
    9.6110    3.5740   24.6710 C   0  0  0  0  0  0  0  0  0  0  0  0
   10.9190    3.1660   24.6730 O   0  0  0  0  0  0  0  0  0  0  0  0
   11.3400    1.8100   24.8270 C   0  0  0  0  0  0  0  0  0  0  0  0
   12.5020    1.5470   23.8880 C   0  0  0  0  0  0  0  0  0  0  0  0
   13.3640    0.5590   24.1820 N   0  0  0  0  0  0  0  0  0  0  0  0
   14.4170    0.3130   23.3900 C   0  0  0  0  0  0  0  0  0  0  0  0
   15.2260   -0.6880   23.7690 N   0  0  0  0  0  0  0  0  0  0  0  0
   14.6230    1.0310   22.2170 C   0  0  0  0  0  0  0  0  0  0  0  0
   13.7150    2.0280   21.8700 C   0  0  0  0  0  0  0  0  0  0  0  0
   12.6680    2.2950   22.7250 C   0  0  0  0  0  0  0  0  0  0  0  0
   13.8630    2.8600   20.6170 C   0  0  0  0  0  0  0  0  0  0  0  0
   -0.4185    5.8842   28.6062 H   0  0  0  0  0  0  0  0  0  0  0  0
    1.4062    7.5858   28.5527 H   0  0  0  0  0  0  0  0  0  0  0  0
    2.3854    2.8764   27.2694 H   0  0  0  0  0  0  0  0  0  0  0  0
    3.7117    6.9460   27.8525 H   0  0  0  0  0  0  0  0  0  0  0  0
    4.5821    4.2417   26.0222 H   0  0  0  0  0  0  0  0  0  0  0  0
    5.2551    5.3274   27.3326 H   0  0  0  0  0  0  0  0  0  0  0  0
    5.5485    3.6028   28.8184 H   0  0  0  0  0  0  0  0  0  0  0  0
    4.3399    2.5383   27.9363 H   0  0  0  0  0  0  0  0  0  0  0  0
    6.3369    1.6425   27.6052 H   0  0  0  0  0  0  0  0  0  0  0  0
    5.2103    2.5689   25.3049 H   0  0  0  0  0  0  0  0  0  0  0  0
    6.3625    1.2513   25.4646 H   0  0  0  0  0  0  0  0  0  0  0  0
    5.8894    4.8208   24.6584 H   0  0  0  0  0  0  0  0  0  0  0  0
    7.7262    6.2740   23.7677 H   0  0  0  0  0  0  0  0  0  0  0  0
   10.0968    5.4922   23.8079 H   0  0  0  0  0  0  0  0  0  0  0  0
    8.8338    1.7797   25.5740 H   0  0  0  0  0  0  0  0  0  0  0  0
   10.5070    1.1346   24.5820 H   0  0  0  0  0  0  0  0  0  0  0  0
   11.6531    1.6326   25.8665 H   0  0  0  0  0  0  0  0  0  0  0  0
   15.3781   -0.8763   24.7702 H   0  0  0  0  0  0  0  0  0  0  0  0
   15.6949   -1.2682   23.0588 H   0  0  0  0  0  0  0  0  0  0  0  0
   15.4889    0.8149   21.5739 H   0  0  0  0  0  0  0  0  0  0  0  0
   11.9599    3.1027   22.4879 H   0  0  0  0  0  0  0  0  0  0  0  0
   14.0495    3.9084   20.8929 H   0  0  0  0  0  0  0  0  0  0  0  0
   14.7079    2.4813   20.0231 H   0  0  0  0  0  0  0  0  0  0  0  0
   12.9394    2.7959   20.0231 H   0  0  0  0  0  0  0  0  0  0  0  0
 27 25  1  0
 25 24  2  0
 25 26  1  0
 24 22  1  0
 26 20  2  0
 22 23  1  0
 22 21  2  0
 20 21  1  0
 20 19  1  0
 14 15  1  0
 14 13  2  0
 15 17  2  0
 13 12  1  0
 17 18  1  0
 17 16  1  0
 18 19  1  0
 12 16  2  0
 12 11  1  0
 11 10  1  0
  8  6  1  0
  8  9  1  0
 10  9  1  0
  6  5  1  0
  6  7  2  0
  5  2  2  0
  7  4  1  0
  2  1  1  0
  2  3  1  0
  4  3  2  0
  3 28  1  0
  4 29  1  0
  5 30  1  0
  7 31  1  0
  8 32  1  0
  8 33  1  0
  9 34  1  0
  9 35  1  0
 10 36  1  0
 11 37  1  0
 11 38  1  0
 13 39  1  0
 14 40  1  0
 15 41  1  0
 16 42  1  0
 19 43  1  0
 19 44  1  0
 23 45  1  0
 23 46  1  0
 24 47  1  0
 26 48  1  0
 27 49  1  0
 27 50  1  0
 27 51  1  0
A    1
F23
A    2
C23
A    3
C24
A    4
C25
A    5
C22
A    6
C21
A    7
C26
A    8
C20
A    9
C19
A   10
N18
A   11
C17
A   12
C15
A   13
C14
A   14
C13
A   15
C12
A   16
C16
A   17
C11
A   18
O09
A   19
C08
A   20
C06
A   21
N01
A   22
C02
A   23
N02
A   24
C03
A   25
C04
A   26
C05
A   27
C07
M  END
