4JSE_QJ2_A_803
     RDKit          3D

 45 46  0  0  0  0  0  0  0  0999 V2000
    6.1180   19.9870   20.8830 N   0  0  0  0  0  0  0  0  0  0  0  0
    5.2180   19.6360   21.8470 C   0  0  0  0  0  0  0  0  0  0  0  0
    4.0750   18.9060   21.4930 C   0  0  0  0  0  0  0  0  0  0  0  0
    3.1440   18.5400   22.4690 C   0  0  0  0  0  0  0  0  0  0  0  0
    1.9120   17.7510   22.0830 C   0  0  0  0  0  0  0  0  0  0  0  0
    3.3800   18.9140   23.8010 C   0  0  0  0  0  0  0  0  0  0  0  0
    5.4220   19.9900   23.1510 N   0  0  0  0  0  0  0  0  0  0  0  0
    4.5390   19.6410   24.1330 C   0  0  0  0  0  0  0  0  0  0  0  0
    4.7920   20.0600   25.5770 C   0  0  0  0  0  0  0  0  0  0  0  0
    5.7450   19.1160   26.3140 C   0  0  0  0  0  0  0  0  0  0  0  0
    5.3620   18.9330   27.7880 C   0  0  0  0  0  0  0  0  0  0  0  0
    6.5630   18.5470   28.6510 C   0  0  0  0  0  0  0  0  0  0  0  0
    6.7020   17.0360   28.8100 C   0  0  0  0  0  0  0  0  0  0  0  0
    8.1670   16.6600   28.9140 C   0  0  0  0  0  0  0  0  0  0  0  0
    8.8680   16.3670   27.7850 N   0  0  0  0  0  0  0  0  0  0  0  0
   10.1880   16.0270   27.8150 C   0  0  0  0  0  0  0  0  0  0  0  0
   10.8530   15.7530   26.6600 N   0  0  0  0  0  0  0  0  0  0  0  0
   10.8500   15.9570   29.0520 C   0  0  0  0  0  0  0  0  0  0  0  0
   10.1580   16.2510   30.2350 C   0  0  0  0  0  0  0  0  0  0  0  0
    8.8000   16.5970   30.1650 C   0  0  0  0  0  0  0  0  0  0  0  0
   10.8700   16.1820   31.5700 C   0  0  0  0  0  0  0  0  0  0  0  0
    7.0446   20.3484   21.1506 H   0  0  0  0  0  0  0  0  0  0  0  0
    5.8706   19.8905   19.8878 H   0  0  0  0  0  0  0  0  0  0  0  0
    3.9102   18.6203   20.4436 H   0  0  0  0  0  0  0  0  0  0  0  0
    1.3906   17.4171   22.9922 H   0  0  0  0  0  0  0  0  0  0  0  0
    1.2405   18.3875   21.4881 H   0  0  0  0  0  0  0  0  0  0  0  0
    2.2092   16.8748   21.4881 H   0  0  0  0  0  0  0  0  0  0  0  0
    2.6595   18.6391   24.5854 H   0  0  0  0  0  0  0  0  0  0  0  0
    5.2282   21.0698   25.5779 H   0  0  0  0  0  0  0  0  0  0  0  0
    3.8263   20.0301   26.1029 H   0  0  0  0  0  0  0  0  0  0  0  0
    6.7628   19.5301   26.2621 H   0  0  0  0  0  0  0  0  0  0  0  0
    5.6854   18.1315   25.8270 H   0  0  0  0  0  0  0  0  0  0  0  0
    4.6031   18.1401   27.8614 H   0  0  0  0  0  0  0  0  0  0  0  0
    4.9735   19.8931   28.1585 H   0  0  0  0  0  0  0  0  0  0  0  0
    6.4418   18.9976   29.6471 H   0  0  0  0  0  0  0  0  0  0  0  0
    7.4696   18.9167   28.1495 H   0  0  0  0  0  0  0  0  0  0  0  0
    6.2581   16.5352   27.9370 H   0  0  0  0  0  0  0  0  0  0  0  0
    6.1812   16.7191   29.7256 H   0  0  0  0  0  0  0  0  0  0  0  0
   11.8048   15.3608   26.6944 H   0  0  0  0  0  0  0  0  0  0  0  0
   10.4046   15.9378   25.7513 H   0  0  0  0  0  0  0  0  0  0  0  0
   11.9115   15.6714   29.0923 H   0  0  0  0  0  0  0  0  0  0  0  0
    8.2360   16.8171   31.0834 H   0  0  0  0  0  0  0  0  0  0  0  0
   10.1325   16.2535   32.3830 H   0  0  0  0  0  0  0  0  0  0  0  0
   11.4107   15.2273   31.6483 H   0  0  0  0  0  0  0  0  0  0  0  0
   11.5839   17.0152   31.6483 H   0  0  0  0  0  0  0  0  0  0  0  0
 21 19  1  0
 19 18  2  0
 19 20  1  0
 18 16  1  0
 20 14  2  0
  5  4  1  0
  3  4  1  0
  3  2  2  0
  1  2  1  0
  4  6  2  0
 16 17  1  0
 16 15  2  0
 14 15  1  0
 14 13  1  0
  2  7  1  0
 13 12  1  0
  6  8  1  0
 12 11  1  0
  7  8  2  0
 11 10  1  0
  8  9  1  0
 10  9  1  0
  1 22  1  0
  1 23  1  0
  3 24  1  0
  5 25  1  0
  5 26  1  0
  5 27  1  0
  6 28  1  0
  9 29  1  0
  9 30  1  0
 10 31  1  0
 10 32  1  0
 11 33  1  0
 11 34  1  0
 12 35  1  0
 12 36  1  0
 13 37  1  0
 13 38  1  0
 17 39  1  0
 17 40  1  0
 18 41  1  0
 20 42  1  0
 21 43  1  0
 21 44  1  0
 21 45  1  0
A    1
N22
A    2
C22
A    3
C23
A    4
C24
A    5
C27
A    6
C25
A    7
N21
A    8
C26
A    9
C12
A   10
C11
A   11
C10
A   12
C09
A   13
C08
A   14
C06
A   15
N01
A   16
C02
A   17
N02
A   18
C03
A   19
C04
A   20
C05
A   21
C07
M  END
