4JSF_QJ4_A_803
     RDKit          3D

 51 52  0  0  0  0  0  0  0  0999 V2000
    5.3750    8.0440   27.1760 N   0  0  0  0  0  0  0  0  0  0  0  0
    4.5830    6.9550   27.3180 C   0  0  0  0  0  0  0  0  0  0  0  0
    3.2350    7.1210   27.6070 C   0  0  0  0  0  0  0  0  0  0  0  0
    2.4240    6.0010   27.7500 C   0  0  0  0  0  0  0  0  0  0  0  0
    0.9580    6.1760   28.0570 C   0  0  0  0  0  0  0  0  0  0  0  0
    2.9720    4.7300   27.6050 C   0  0  0  0  0  0  0  0  0  0  0  0
    5.0940    5.7140   27.1760 N   0  0  0  0  0  0  0  0  0  0  0  0
    4.3300    4.6030   27.3190 C   0  0  0  0  0  0  0  0  0  0  0  0
    4.9460    3.2240   27.1610 C   0  0  0  0  0  0  0  0  0  0  0  0
    6.3810    3.3480   26.6550 C   0  0  0  0  0  0  0  0  0  0  0  0
    6.7110    2.4030   25.5000 C   0  0  0  0  0  0  0  0  0  0  0  0
    8.2270    2.3630   25.3060 C   0  0  0  0  0  0  0  0  0  0  0  0
    8.6670    1.6770   24.0100 C   0  0  0  0  0  0  0  0  0  0  0  0
   10.0300    0.9470   24.0400 C   0  0  0  0  0  0  0  0  0  0  0  0
   11.1810    1.8650   24.4290 C   0  0  0  0  0  0  0  0  0  0  0  0
   12.4460    1.5410   23.6400 C   0  0  0  0  0  0  0  0  0  0  0  0
   13.2930    0.5490   24.0040 N   0  0  0  0  0  0  0  0  0  0  0  0
   14.4280    0.3170   23.3140 C   0  0  0  0  0  0  0  0  0  0  0  0
   15.2380   -0.6650   23.7730 N   0  0  0  0  0  0  0  0  0  0  0  0
   14.7340    1.0540   22.1570 C   0  0  0  0  0  0  0  0  0  0  0  0
   13.8380    2.0560   21.7550 C   0  0  0  0  0  0  0  0  0  0  0  0
   12.7140    2.2860   22.5030 C   0  0  0  0  0  0  0  0  0  0  0  0
   14.0190    2.9320   20.5190 C   0  0  0  0  0  0  0  0  0  0  0  0
    5.7313    8.5339   28.0091 H   0  0  0  0  0  0  0  0  0  0  0  0
    5.6212    8.3825   26.2349 H   0  0  0  0  0  0  0  0  0  0  0  0
    2.8125    8.1301   27.7218 H   0  0  0  0  0  0  0  0  0  0  0  0
    0.8112    6.1935   29.1470 H   0  0  0  0  0  0  0  0  0  0  0  0
    0.6032    7.1229   27.6240 H   0  0  0  0  0  0  0  0  0  0  0  0
    0.3903    5.3393   27.6240 H   0  0  0  0  0  0  0  0  0  0  0  0
    2.3406    3.8360   27.7149 H   0  0  0  0  0  0  0  0  0  0  0  0
    4.3544    2.6413   26.4396 H   0  0  0  0  0  0  0  0  0  0  0  0
    4.9498    2.7163   28.1368 H   0  0  0  0  0  0  0  0  0  0  0  0
    7.0633    3.1277   27.4892 H   0  0  0  0  0  0  0  0  0  0  0  0
    6.4993    4.3732   26.2743 H   0  0  0  0  0  0  0  0  0  0  0  0
    6.2309    2.7650   24.5789 H   0  0  0  0  0  0  0  0  0  0  0  0
    6.3392    1.3933   25.7286 H   0  0  0  0  0  0  0  0  0  0  0  0
    8.6707    1.8201   26.1535 H   0  0  0  0  0  0  0  0  0  0  0  0
    8.5699    3.4066   25.2480 H   0  0  0  0  0  0  0  0  0  0  0  0
    8.7181    2.4468   23.2259 H   0  0  0  0  0  0  0  0  0  0  0  0
    7.9204    0.8891   23.8315 H   0  0  0  0  0  0  0  0  0  0  0  0
    9.9731    0.1257   24.7696 H   0  0  0  0  0  0  0  0  0  0  0  0
   10.2302    0.5761   23.0239 H   0  0  0  0  0  0  0  0  0  0  0  0
   11.3882    1.7432   25.5024 H   0  0  0  0  0  0  0  0  0  0  0  0
   10.8883    2.9007   24.2017 H   0  0  0  0  0  0  0  0  0  0  0  0
   15.3537   -0.8053   24.7868 H   0  0  0  0  0  0  0  0  0  0  0  0
   15.7388   -1.2721   23.1086 H   0  0  0  0  0  0  0  0  0  0  0  0
   15.6501    0.8509   21.5829 H   0  0  0  0  0  0  0  0  0  0  0  0
   12.0122    3.0755   22.1959 H   0  0  0  0  0  0  0  0  0  0  0  0
   14.2325    3.9653   20.8300 H   0  0  0  0  0  0  0  0  0  0  0  0
   14.8571    2.5494   19.9179 H   0  0  0  0  0  0  0  0  0  0  0  0
   13.0979    2.9129   19.9179 H   0  0  0  0  0  0  0  0  0  0  0  0
 23 21  1  0
 21 20  2  0
 21 22  1  0
 20 18  1  0
 22 16  2  0
 18 19  1  0
 18 17  2  0
 16 17  1  0
 16 15  1  0
 13 14  1  0
 13 12  1  0
 14 15  1  0
 12 11  1  0
 11 10  1  0
 10  9  1  0
  9  8  1  0
  7  2  2  0
  7  8  1  0
  1  2  1  0
  2  3  1  0
  8  6  2  0
  6  4  1  0
  3  4  2  0
  4  5  1  0
  1 24  1  0
  1 25  1  0
  3 26  1  0
  5 27  1  0
  5 28  1  0
  5 29  1  0
  6 30  1  0
  9 31  1  0
  9 32  1  0
 10 33  1  0
 10 34  1  0
 11 35  1  0
 11 36  1  0
 12 37  1  0
 12 38  1  0
 13 39  1  0
 13 40  1  0
 14 41  1  0
 14 42  1  0
 15 43  1  0
 15 44  1  0
 19 45  1  0
 19 46  1  0
 20 47  1  0
 22 48  1  0
 23 49  1  0
 23 50  1  0
 23 51  1  0
A    1
N22
A    2
C22
A    3
C23
A    4
C24
A    5
C27
A    6
C25
A    7
N21
A    8
C26
A    9
C14
A   10
C13
A   11
C12
A   12
C11
A   13
C10
A   14
C09
A   15
C08
A   16
C06
A   17
N01
A   18
C02
A   19
N02
A   20
C03
A   21
C04
A   22
C05
A   23
C07
M  END
