4JT8_1NR_A_402
     RDKit          3D

 54 56  0  0  0  0  0  0  0  0999 V2000
   24.3620   48.1330  -15.7750 C   0  0  0  0  0  0  0  0  0  0  0  0
   23.4820   47.2480  -14.9290 C   0  0  0  0  0  0  0  0  0  0  0  0
   22.9140   48.0810  -13.7810 C   0  0  0  0  0  0  0  0  0  0  0  0
   22.3370   46.7530  -15.7980 C   0  0  0  0  0  0  0  0  0  0  0  0
   24.3160   46.0840  -14.3640 C   0  0  0  0  0  0  0  0  0  0  0  0
   24.9770   46.2380  -13.3400 O   0  0  0  0  0  0  0  0  0  0  0  0
   24.2820   44.9270  -15.0450 N   0  0  0  0  0  0  0  0  0  0  0  0
   25.0530   43.7440  -14.6150 C   0  0  0  0  0  0  0  0  0  0  0  0
   24.1740   42.7190  -13.8550 C   0  0  0  0  0  0  0  0  0  0  0  0
   23.7290   43.2310  -12.4550 C   0  0  0  0  0  0  0  0  0  0  0  0
   22.6360   42.2990  -11.9010 C   0  0  0  0  0  0  0  0  0  0  0  0
   22.2080   42.7150  -10.4790 C   0  0  0  0  0  0  0  0  0  0  0  0
   24.9320   43.3580  -11.4740 C   0  0  0  0  0  0  0  0  0  0  0  0
   24.4530   43.7810  -10.0640 C   0  0  0  0  0  0  0  0  0  0  0  0
   23.4000   42.8280   -9.5890 N   0  0  0  0  0  0  0  0  0  0  0  0
   23.5590   42.1400   -8.4180 C   0  0  0  0  0  0  0  0  0  0  0  0
   24.4270   42.6770   -7.5330 N   0  0  0  0  0  0  0  0  0  0  0  0
   24.6810   42.0730   -6.3110 C   0  0  0  0  0  0  0  0  0  0  0  0
   24.0030   40.8880   -6.0390 N   0  0  0  0  0  0  0  0  0  0  0  0
   23.1320   40.3560   -6.9220 C   0  0  0  0  0  0  0  0  0  0  0  0
   22.4150   39.2150   -6.7630 C   0  0  0  0  0  0  0  0  0  0  0  0
   22.9170   40.9870   -8.1060 C   0  0  0  0  0  0  0  0  0  0  0  0
   21.7900   40.0240   -8.9220 S   0  0  0  0  0  0  0  0  0  0  0  0
   21.6170   38.8980   -7.7880 C   0  0  0  0  0  0  0  0  0  0  0  0
   20.7890   37.8470   -7.8850 C   0  0  0  0  0  0  0  0  0  0  0  0
   20.2420   37.5980   -8.9550 O   0  0  0  0  0  0  0  0  0  0  0  0
   20.5200   37.1670   -6.7650 N   0  0  0  0  0  0  0  0  0  0  0  0
   24.9863   48.7609  -15.1223 H   0  0  0  0  0  0  0  0  0  0  0  0
   25.0077   47.5086  -16.4100 H   0  0  0  0  0  0  0  0  0  0  0  0
   23.7340   48.7752  -16.4100 H   0  0  0  0  0  0  0  0  0  0  0  0
   23.2167   47.6371  -12.8211 H   0  0  0  0  0  0  0  0  0  0  0  0
   23.3002   49.1088  -13.8477 H   0  0  0  0  0  0  0  0  0  0  0  0
   21.8161   48.0968  -13.8477 H   0  0  0  0  0  0  0  0  0  0  0  0
   21.5167   46.3984  -15.1566 H   0  0  0  0  0  0  0  0  0  0  0  0
   21.9765   47.5756  -16.4331 H   0  0  0  0  0  0  0  0  0  0  0  0
   22.6893   45.9268  -16.4331 H   0  0  0  0  0  0  0  0  0  0  0  0
   23.7005   44.8632  -15.8928 H   0  0  0  0  0  0  0  0  0  0  0  0
   25.4785   43.2558  -15.5041 H   0  0  0  0  0  0  0  0  0  0  0  0
   25.8431   44.0857  -13.9302 H   0  0  0  0  0  0  0  0  0  0  0  0
   23.2761   42.5117  -14.4556 H   0  0  0  0  0  0  0  0  0  0  0  0
   24.7783   41.8129  -13.7007 H   0  0  0  0  0  0  0  0  0  0  0  0
   23.3149   44.2445  -12.5617 H   0  0  0  0  0  0  0  0  0  0  0  0
   21.7599   42.3409  -12.5649 H   0  0  0  0  0  0  0  0  0  0  0  0
   23.0429   41.2781  -11.8548 H   0  0  0  0  0  0  0  0  0  0  0  0
   21.6962   43.6876  -10.5245 H   0  0  0  0  0  0  0  0  0  0  0  0
   21.5304   41.9499  -10.0723 H   0  0  0  0  0  0  0  0  0  0  0  0
   25.4438   42.3868  -11.4041 H   0  0  0  0  0  0  0  0  0  0  0  0
   25.6183   44.1274  -11.8574 H   0  0  0  0  0  0  0  0  0  0  0  0
   25.3040   43.7645   -9.3672 H   0  0  0  0  0  0  0  0  0  0  0  0
   24.0353   44.7977  -10.1078 H   0  0  0  0  0  0  0  0  0  0  0  0
   25.3864   42.5104   -5.5891 H   0  0  0  0  0  0  0  0  0  0  0  0
   22.4852   38.5957   -5.8566 H   0  0  0  0  0  0  0  0  0  0  0  0
   20.6912   37.5997   -5.8461 H   0  0  0  0  0  0  0  0  0  0  0  0
   20.1417   36.2107   -6.8214 H   0  0  0  0  0  0  0  0  0  0  0  0
  1  2  1  0
  2  3  1  0
  2  4  1  0
  2  5  1  0
  5  6  2  0
  5  7  1  0
  7  8  1  0
  8  9  1  0
  9 10  1  0
 10 11  1  0
 10 13  1  0
 11 12  1  0
 12 15  1  0
 13 14  1  0
 14 15  1  0
 15 16  1  0
 16 17  2  0
 16 22  1  0
 17 18  1  0
 18 19  2  0
 19 20  1  0
 20 21  1  0
 20 22  2  0
 21 24  2  0
 22 23  1  0
 23 24  1  0
 24 25  1  0
 25 26  2  0
 25 27  1  0
  1 28  1  0
  1 29  1  0
  1 30  1  0
  3 31  1  0
  3 32  1  0
  3 33  1  0
  4 34  1  0
  4 35  1  0
  4 36  1  0
  7 37  1  0
  8 38  1  0
  8 39  1  0
  9 40  1  0
  9 41  1  0
 10 42  1  0
 11 43  1  0
 11 44  1  0
 12 45  1  0
 12 46  1  0
 13 47  1  0
 13 48  1  0
 14 49  1  0
 14 50  1  0
 18 51  1  0
 21 52  1  0
 27 53  1  0
 27 54  1  0
A    1
CAY
A    2
CAX
A    3
CAZ
A    4
CBA
A    5
CAA
A    6
OAC
A    7
NAB
A    8
CAD
A    9
CAE
A   10
CAF
A   11
CAK
A   12
CAJ
A   13
CAG
A   14
CAH
A   15
NAI
A   16
C6
A   17
N1
A   18
C2
A   19
N3
A   20
C4
A   21
CAR
A   22
C5
A   23
SAT
A   24
CAS
A   25
CAU
A   26
OAV
A   27
NAW
M  END
