4JTS_JTS_A_412
     RDKit          3D

 31 33  0  0  0  0  0  0  0  0999 V2000
   16.2170  -28.4920   23.4620 C   0  0  0  0  0  0  0  0  0  0  0  0
   17.9110  -28.3080   23.8120 S   0  0  0  0  0  0  0  0  0  0  0  0
   15.7090  -27.2960   23.0230 N   0  0  0  0  0  0  0  0  0  0  0  0
   16.5760  -26.2330   22.9410 C   0  0  0  0  0  0  0  0  0  0  0  0
   16.1900  -24.8530   22.4870 C   0  0  0  0  0  0  0  0  0  0  0  0
   17.9420  -26.6410   23.3770 C   0  0  0  0  0  0  0  0  0  0  0  0
   19.2140  -25.8620   23.4670 C   0  0  0  0  0  0  0  0  0  0  0  0
   19.7440  -25.8280   24.5680 O   0  0  0  0  0  0  0  0  0  0  0  0
   19.6780  -25.3150   22.4090 N   0  0  0  0  0  0  0  0  0  0  0  0
   20.8610  -24.5420   22.2880 C   0  0  0  0  0  0  0  0  0  0  0  0
   21.4450  -24.3840   21.0270 C   0  0  0  0  0  0  0  0  0  0  0  0
   22.6060  -23.6260   20.8810 C   0  0  0  0  0  0  0  0  0  0  0  0
   23.2210  -23.4490   19.6470 C   0  0  0  0  0  0  0  0  0  0  0  0
   24.3780  -22.6740   19.5550 C   0  0  0  0  0  0  0  0  0  0  0  0
   24.9430  -22.0670   20.6770 C   0  0  0  0  0  0  0  0  0  0  0  0
   24.3640  -22.2140   21.9340 C   0  0  0  0  0  0  0  0  0  0  0  0
   23.2100  -22.9780   22.0700 C   0  0  0  0  0  0  0  0  0  0  0  0
   22.6020  -23.1480   23.3020 C   0  0  0  0  0  0  0  0  0  0  0  0
   21.4440  -23.9140   23.3940 C   0  0  0  0  0  0  0  0  0  0  0  0
   15.6424  -29.4231   23.5752 H   0  0  0  0  0  0  0  0  0  0  0  0
   16.0115  -24.2147   23.3649 H   0  0  0  0  0  0  0  0  0  0  0  0
   17.0030  -24.4253   21.8819 H   0  0  0  0  0  0  0  0  0  0  0  0
   15.2731  -24.9091   21.8819 H   0  0  0  0  0  0  0  0  0  0  0  0
   19.1310  -25.4509   21.5469 H   0  0  0  0  0  0  0  0  0  0  0  0
   20.9867  -24.8595   20.1473 H   0  0  0  0  0  0  0  0  0  0  0  0
   22.7974  -23.9179   18.7466 H   0  0  0  0  0  0  0  0  0  0  0  0
   24.8562  -22.5384   18.5737 H   0  0  0  0  0  0  0  0  0  0  0  0
   25.8570  -21.4650   20.5668 H   0  0  0  0  0  0  0  0  0  0  0  0
   24.8154  -21.7299   22.8126 H   0  0  0  0  0  0  0  0  0  0  0  0
   23.0309  -22.6813   24.2010 H   0  0  0  0  0  0  0  0  0  0  0  0
   20.9666  -24.0308   24.3781 H   0  0  0  0  0  0  0  0  0  0  0  0
 14 13  2  0
 14 15  1  0
 13 12  1  0
 15 16  2  0
 12 11  2  0
 12 17  1  0
 11 10  1  0
 16 17  1  0
 17 18  2  0
 10  9  1  0
 10 19  2  0
  9  7  1  0
  5  4  1  0
  4  3  1  0
  4  6  2  0
  3  1  2  0
 18 19  1  0
  6  7  1  0
  6  2  1  0
  1  2  1  0
  7  8  2  0
  1 20  1  0
  5 21  1  0
  5 22  1  0
  5 23  1  0
  9 24  1  0
 11 25  1  0
 13 26  1  0
 14 27  1  0
 15 28  1  0
 16 29  1  0
 18 30  1  0
 19 31  1  0
A    1
C22
A    2
S21
A    3
N23
A    4
C24
A    5
C26
A    6
C20
A    7
C1
A    8
O8
A    9
N9
A   10
C10
A   11
C15
A   12
C14
A   13
C16
A   14
C17
A   15
C18
A   16
C19
A   17
C13
A   18
C12
A   19
C11
M  END
