4JTT_JTT_A_409
     RDKit          3D

 34 36  0  0  0  0  0  0  0  0999 V2000
  -32.1510   -4.3650    3.8880 O   0  0  0  0  0  0  0  0  0  0  0  0
  -31.7890   -3.9060    2.8150 C   0  0  0  0  0  0  0  0  0  0  0  0
  -31.6520   -2.4260    2.6850 C   0  0  0  0  0  0  0  0  0  0  0  0
  -30.1480   -1.7290    2.2020 S   0  0  0  0  0  0  0  0  0  0  0  0
  -32.6630   -1.3530    2.8950 C   0  0  0  0  0  0  0  0  0  0  0  0
  -34.0870   -1.5900    3.3200 C   0  0  0  0  0  0  0  0  0  0  0  0
  -32.1090   -0.1170    2.6590 N   0  0  0  0  0  0  0  0  0  0  0  0
  -30.7950   -0.1230    2.2820 C   0  0  0  0  0  0  0  0  0  0  0  0
  -29.8170    0.9690    1.9310 C   0  0  0  0  0  0  0  0  0  0  0  0
  -31.4830   -4.6460    1.7450 N   0  0  0  0  0  0  0  0  0  0  0  0
  -31.5130   -6.0510    1.6510 C   0  0  0  0  0  0  0  0  0  0  0  0
  -31.2690   -6.8640    2.7640 C   0  0  0  0  0  0  0  0  0  0  0  0
  -31.2730   -8.2530    2.6790 C   0  0  0  0  0  0  0  0  0  0  0  0
  -31.4980   -8.8580    1.4490 C   0  0  0  0  0  0  0  0  0  0  0  0
  -31.7390   -8.0050    0.2600 C   0  0  0  0  0  0  0  0  0  0  0  0
  -31.7300   -6.6220    0.3980 C   0  0  0  0  0  0  0  0  0  0  0  0
  -31.4980  -10.2400    1.3120 C   0  0  0  0  0  0  0  0  0  0  0  0
  -31.7250  -10.8010    0.0580 C   0  0  0  0  0  0  0  0  0  0  0  0
  -31.9530   -9.9980   -1.0570 C   0  0  0  0  0  0  0  0  0  0  0  0
  -31.9590   -8.6070   -0.9700 C   0  0  0  0  0  0  0  0  0  0  0  0
  -34.1450   -1.5997    4.4184 H   0  0  0  0  0  0  0  0  0  0  0  0
  -34.7259   -0.7858    2.9261 H   0  0  0  0  0  0  0  0  0  0  0  0
  -34.4310   -2.5577    2.9261 H   0  0  0  0  0  0  0  0  0  0  0  0
  -29.4180    1.4145    2.8542 H   0  0  0  0  0  0  0  0  0  0  0  0
  -28.9906    0.5455    1.3413 H   0  0  0  0  0  0  0  0  0  0  0  0
  -30.3287    1.7439    1.3413 H   0  0  0  0  0  0  0  0  0  0  0  0
  -31.1945   -4.1343    0.8989 H   0  0  0  0  0  0  0  0  0  0  0  0
  -31.0678   -6.3902    3.7361 H   0  0  0  0  0  0  0  0  0  0  0  0
  -31.0998   -8.8653    3.5763 H   0  0  0  0  0  0  0  0  0  0  0  0
  -31.8938   -5.9794   -0.4797 H   0  0  0  0  0  0  0  0  0  0  0  0
  -31.3205  -10.8849    2.1853 H   0  0  0  0  0  0  0  0  0  0  0  0
  -31.7243  -11.8953   -0.0538 H   0  0  0  0  0  0  0  0  0  0  0  0
  -32.1331  -10.4743   -2.0320 H   0  0  0  0  0  0  0  0  0  0  0  0
  -32.1361   -7.9940   -1.8660 H   0  0  0  0  0  0  0  0  0  0  0  0
 19 20  2  0
 19 18  1  0
 20 15  1  0
 18 17  2  0
 15 16  2  0
 15 14  1  0
 16 11  1  0
 17 14  1  0
 14 13  2  0
 11 10  1  0
 11 12  2  0
 10  2  1  0
  9  8  1  0
  4  8  1  0
  4  3  1  0
  8  7  2  0
  7  5  1  0
 13 12  1  0
  3  2  1  0
  3  5  2  0
  2  1  2  0
  5  6  1  0
  6 21  1  0
  6 22  1  0
  6 23  1  0
  9 24  1  0
  9 25  1  0
  9 26  1  0
 10 27  1  0
 12 28  1  0
 13 29  1  0
 16 30  1  0
 17 31  1  0
 18 32  1  0
 19 33  1  0
 20 34  1  0
A    1
O8
A    2
C1
A    3
C20
A    4
S21
A    5
C24
A    6
C26
A    7
N23
A    8
C22
A    9
C25
A   10
N9
A   11
C10
A   12
C11
A   13
C12
A   14
C13
A   15
C14
A   16
C15
A   17
C19
A   18
C18
A   19
C17
A   20
C16
M  END
