4JTU_JTU_A_407
     RDKit          3D

 45 47  0  0  0  0  0  0  0  0999 V2000
  -33.0440   -7.3950   -0.4610 C   0  0  0  0  0  0  0  0  0  0  0  0
  -32.7070   -6.9730    0.9580 C   0  0  0  0  0  0  0  0  0  0  0  0
  -31.5980   -7.8620    1.5150 C   0  0  0  0  0  0  0  0  0  0  0  0
  -31.0070   -7.1810    2.7670 C   0  0  0  0  0  0  0  0  0  0  0  0
  -32.0940   -9.1460    1.8180 C   0  0  0  0  0  0  0  0  0  0  0  0
  -33.0380   -9.3320    2.8340 C   0  0  0  0  0  0  0  0  0  0  0  0
  -33.5230  -10.6120    3.1160 C   0  0  0  0  0  0  0  0  0  0  0  0
  -31.6430  -10.2520    1.0870 C   0  0  0  0  0  0  0  0  0  0  0  0
  -32.1290  -11.5350    1.3700 C   0  0  0  0  0  0  0  0  0  0  0  0
  -33.0630  -11.7270    2.3990 C   0  0  0  0  0  0  0  0  0  0  0  0
  -33.5580  -13.0210    2.6500 C   0  0  0  0  0  0  0  0  0  0  0  0
  -34.0290  -13.6600    1.5630 N   0  0  0  0  0  0  0  0  0  0  0  0
  -34.5280  -14.8970    1.6310 C   0  0  0  0  0  0  0  0  0  0  0  0
  -34.9860  -15.4940    0.4510 C   0  0  0  0  0  0  0  0  0  0  0  0
  -35.5140  -16.7820    0.4890 C   0  0  0  0  0  0  0  0  0  0  0  0
  -35.5800  -17.4650    1.7050 C   0  0  0  0  0  0  0  0  0  0  0  0
  -36.3030  -19.1930    1.7410 Br  0  0  0  0  0  0  0  0  0  0  0  0
  -35.1220  -16.8740    2.8890 C   0  0  0  0  0  0  0  0  0  0  0  0
  -34.5870  -15.5790    2.8650 C   0  0  0  0  0  0  0  0  0  0  0  0
  -34.1130  -14.9570    4.0350 C   0  0  0  0  0  0  0  0  0  0  0  0
  -34.1770  -15.6120    5.2990 C   0  0  0  0  0  0  0  0  0  0  0  0
  -33.4090  -16.5410    5.5990 O   0  0  0  0  0  0  0  0  0  0  0  0
  -35.0080  -15.2680    6.1730 O   0  0  0  0  0  0  0  0  0  0  0  0
  -33.5950  -13.6530    3.9170 C   0  0  0  0  0  0  0  0  0  0  0  0
  -33.1180  -13.0000    5.0810 C   0  0  0  0  0  0  0  0  0  0  0  0
  -33.7302   -8.2543   -0.4348 H   0  0  0  0  0  0  0  0  0  0  0  0
  -33.5248   -6.5578   -0.9881 H   0  0  0  0  0  0  0  0  0  0  0  0
  -32.1211   -7.6787   -0.9881 H   0  0  0  0  0  0  0  0  0  0  0  0
  -32.3692   -5.9261    0.9567 H   0  0  0  0  0  0  0  0  0  0  0  0
  -33.6029   -7.0739    1.5882 H   0  0  0  0  0  0  0  0  0  0  0  0
  -30.8065   -7.9903    0.7619 H   0  0  0  0  0  0  0  0  0  0  0  0
  -31.4181   -7.6547    3.6706 H   0  0  0  0  0  0  0  0  0  0  0  0
  -29.9124   -7.2900    2.7615 H   0  0  0  0  0  0  0  0  0  0  0  0
  -31.2691   -6.1127    2.7615 H   0  0  0  0  0  0  0  0  0  0  0  0
  -33.3992   -8.4687    3.4121 H   0  0  0  0  0  0  0  0  0  0  0  0
  -34.2736  -10.7469    3.9087 H   0  0  0  0  0  0  0  0  0  0  0  0
  -30.9025  -10.1125    0.2856 H   0  0  0  0  0  0  0  0  0  0  0  0
  -31.7767  -12.3958    0.7827 H   0  0  0  0  0  0  0  0  0  0  0  0
  -34.9292  -14.9482   -0.5023 H   0  0  0  0  0  0  0  0  0  0  0  0
  -35.8770  -17.2585   -0.4336 H   0  0  0  0  0  0  0  0  0  0  0  0
  -35.1822  -17.4265    3.8383 H   0  0  0  0  0  0  0  0  0  0  0  0
  -34.7839  -15.3608    7.1328 H   0  0  0  0  0  0  0  0  0  0  0  0
  -33.4970  -13.5188    5.9738 H   0  0  0  0  0  0  0  0  0  0  0  0
  -32.0181  -13.0170    5.0863 H   0  0  0  0  0  0  0  0  0  0  0  0
  -33.4687  -11.9574    5.0863 H   0  0  0  0  0  0  0  0  0  0  0  0
  1  2  1  0
 14 15  2  0
 14 13  1  0
 15 16  1  0
  2  3  1  0
  8  9  1  0
  8  5  2  0
  9 10  2  0
  3  5  1  0
  3  4  1  0
 12 13  2  0
 12 11  1  0
 13 19  1  0
 16 17  1  0
 16 18  2  0
  5  6  1  0
 10 11  1  0
 10  7  1  0
 11 24  2  0
  6  7  2  0
 19 18  1  0
 19 20  2  0
 24 20  1  0
 24 25  1  0
 20 21  1  0
 21 22  2  0
 21 23  1  0
  1 26  1  0
  1 27  1  0
  1 28  1  0
  2 29  1  0
  2 30  1  0
  3 31  1  0
  4 32  1  0
  4 33  1  0
  4 34  1  0
  6 35  1  0
  7 36  1  0
  8 37  1  0
  9 38  1  0
 14 39  1  0
 15 40  1  0
 18 41  1  0
 23 42  1  0
 25 43  1  0
 25 44  1  0
 25 45  1  0
A    1
C1
A    2
C2
A    3
C3
A    4
C4
A    5
C5
A    6
C8
A    7
C9
A    8
C6
A    9
C7
A   10
C10
A   11
C11
A   12
N1
A   13
C12
A   14
C13
A   15
C14
A   16
C15
A   17
BR1
A   18
C16
A   19
C17
A   20
C18
A   21
C19
A   22
O1
A   23
O2
A   24
C20
A   25
C21
M  END
