4JVF_17X_B_201
     RDKit          3D

 90 97  0  0  0  0  0  0  0  0999 V2000
  -31.0950   10.0290   -4.4900 C   0  0  0  0  0  0  0  0  0  0  0  0
  -31.8820   10.9920   -3.8460 C   0  0  0  0  0  0  0  0  0  0  0  0
  -32.5500   10.6990   -2.6740 C   0  0  0  0  0  0  0  0  0  0  0  0
  -32.4210    9.4180   -2.1800 C   0  0  0  0  0  0  0  0  0  0  0  0
  -31.6440    8.4580   -2.8320 C   0  0  0  0  0  0  0  0  0  0  0  0
  -30.9700    8.7650   -3.9960 C   0  0  0  0  0  0  0  0  0  0  0  0
  -30.1890    7.8030   -4.6330 C   0  0  0  0  0  0  0  0  0  0  0  0
  -30.1600    7.9390   -6.1240 N   0  0  0  0  0  0  0  0  0  0  0  0
  -29.2170    8.6420   -6.7720 C   0  0  0  0  0  0  0  0  0  0  0  0
  -28.2100    9.4010   -6.3220 C   0  0  0  0  0  0  0  0  0  0  0  0
  -27.3440   10.0710   -7.1990 C   0  0  0  0  0  0  0  0  0  0  0  0
  -27.5860    9.9570   -8.5700 C   0  0  0  0  0  0  0  0  0  0  0  0
  -28.6860    9.1770   -8.9870 C   0  0  0  0  0  0  0  0  0  0  0  0
  -29.4560    8.5470   -8.0850 C   0  0  0  0  0  0  0  0  0  0  0  0
  -30.5200    7.7600   -8.2550 N   0  0  0  0  0  0  0  0  0  0  0  0
  -30.9390    7.3810   -7.0650 C   0  0  0  0  0  0  0  0  0  0  0  0
  -32.0320    6.6030   -6.9230 N   0  0  0  0  0  0  0  0  0  0  0  0
  -33.0790    6.9490   -5.9250 C   0  0  0  0  0  0  0  0  0  0  0  0
  -33.6270    5.6920   -5.2450 C   0  0  0  0  0  0  0  0  0  0  0  0
  -32.2820    5.4530   -7.8540 C   0  0  0  0  0  0  0  0  0  0  0  0
  -32.8630    4.2180   -7.1310 C   0  0  0  0  0  0  0  0  0  0  0  0
  -34.0600    4.5690   -6.2510 C   0  0  0  0  0  0  0  0  0  0  0  0
  -34.4880    3.3140   -5.4450 C   0  0  0  0  0  0  0  0  0  0  0  0
  -34.0470    3.1140   -4.3170 O   0  0  0  0  0  0  0  0  0  0  0  0
  -35.3200    2.3920   -6.0030 O   0  0  0  0  0  0  0  0  0  0  0  0
  -36.7040    2.5980   -5.9180 C   0  0  0  0  0  0  0  0  0  0  0  0
  -37.4500    2.0080   -4.7320 C   0  0  0  0  0  0  0  0  0  0  0  0
  -38.8660    2.2860   -5.2380 C   0  0  0  0  0  0  0  0  0  0  0  0
  -39.9110    2.1600   -4.1610 C   0  0  0  0  0  0  0  0  0  0  0  0
  -41.1300    2.8400   -4.7550 C   0  0  0  0  0  0  0  0  0  0  0  0
  -41.6240    2.0110   -5.8670 N   0  0  0  0  0  0  0  0  0  0  0  0
  -40.6350    1.5920   -6.8910 C   0  0  0  0  0  0  0  0  0  0  0  0
  -39.2030    1.4100   -6.4310 C   0  0  0  0  0  0  0  0  0  0  0  0
  -37.0830    2.8660   -3.4810 N   0  0  0  0  0  0  0  0  0  0  0  0
  -37.0110    4.2130   -3.4760 C   0  0  0  0  0  0  0  0  0  0  0  0
  -37.2120    5.1100   -4.4520 C   0  0  0  0  0  0  0  0  0  0  0  0
  -37.0120    6.4740   -4.1910 C   0  0  0  0  0  0  0  0  0  0  0  0
  -36.6150    6.9140   -2.9230 C   0  0  0  0  0  0  0  0  0  0  0  0
  -36.4130    5.9540   -1.9430 C   0  0  0  0  0  0  0  0  0  0  0  0
  -36.6180    4.6510   -2.2470 C   0  0  0  0  0  0  0  0  0  0  0  0
  -36.4870    3.5990   -1.4830 N   0  0  0  0  0  0  0  0  0  0  0  0
  -36.7600    2.5200   -2.2300 C   0  0  0  0  0  0  0  0  0  0  0  0
  -36.7250    1.2930   -1.6710 C   0  0  0  0  0  0  0  0  0  0  0  0
  -35.6070    0.9020   -0.8730 C   0  0  0  0  0  0  0  0  0  0  0  0
  -35.6080   -0.3870   -0.2590 C   0  0  0  0  0  0  0  0  0  0  0  0
  -36.7020   -1.2630   -0.4180 C   0  0  0  0  0  0  0  0  0  0  0  0
  -37.8070   -0.8490   -1.1810 C   0  0  0  0  0  0  0  0  0  0  0  0
  -37.8300    0.4210   -1.7840 C   0  0  0  0  0  0  0  0  0  0  0  0
  -30.5657   10.2990   -5.4157 H   0  0  0  0  0  0  0  0  0  0  0  0
  -31.9693   11.9984   -4.2813 H   0  0  0  0  0  0  0  0  0  0  0  0
  -33.1590   11.4548   -2.1564 H   0  0  0  0  0  0  0  0  0  0  0  0
  -32.9424    9.1459   -1.2504 H   0  0  0  0  0  0  0  0  0  0  0  0
  -31.5684    7.4441   -2.4121 H   0  0  0  0  0  0  0  0  0  0  0  0
  -30.5899    6.8096   -4.3830 H   0  0  0  0  0  0  0  0  0  0  0  0
  -29.1570    7.9418   -4.2784 H   0  0  0  0  0  0  0  0  0  0  0  0
  -28.0579    9.5018   -5.2372 H   0  0  0  0  0  0  0  0  0  0  0  0
  -26.5012   10.6672   -6.8191 H   0  0  0  0  0  0  0  0  0  0  0  0
  -26.9384   10.4603   -9.3030 H   0  0  0  0  0  0  0  0  0  0  0  0
  -28.9143    9.0845  -10.0591 H   0  0  0  0  0  0  0  0  0  0  0  0
  -32.6433    7.6100   -5.1613 H   0  0  0  0  0  0  0  0  0  0  0  0
  -33.9059    7.4538   -6.4460 H   0  0  0  0  0  0  0  0  0  0  0  0
  -34.5031    5.9763   -4.6437 H   0  0  0  0  0  0  0  0  0  0  0  0
  -32.8135    5.2778   -4.6313 H   0  0  0  0  0  0  0  0  0  0  0  0
  -31.3301    5.1690   -8.3264 H   0  0  0  0  0  0  0  0  0  0  0  0
  -33.0224    5.7820   -8.5980 H   0  0  0  0  0  0  0  0  0  0  0  0
  -33.1825    3.4845   -7.8859 H   0  0  0  0  0  0  0  0  0  0  0  0
  -32.0762    3.8094   -6.4799 H   0  0  0  0  0  0  0  0  0  0  0  0
  -34.8977    4.9138   -6.8750 H   0  0  0  0  0  0  0  0  0  0  0  0
  -36.8707    3.6851   -5.8992 H   0  0  0  0  0  0  0  0  0  0  0  0
  -37.1116    2.0625   -6.7881 H   0  0  0  0  0  0  0  0  0  0  0  0
  -37.2632    0.9632   -4.4432 H   0  0  0  0  0  0  0  0  0  0  0  0
  -38.8785    3.3370   -5.5625 H   0  0  0  0  0  0  0  0  0  0  0  0
  -40.1208    1.1029   -3.9409 H   0  0  0  0  0  0  0  0  0  0  0  0
  -39.5954    2.6108   -3.2085 H   0  0  0  0  0  0  0  0  0  0  0  0
  -40.8549    3.8376   -5.1280 H   0  0  0  0  0  0  0  0  0  0  0  0
  -41.9119    2.9537   -3.9897 H   0  0  0  0  0  0  0  0  0  0  0  0
  -42.3612    2.5455   -6.3484 H   0  0  0  0  0  0  0  0  0  0  0  0
  -40.6345    2.3549   -7.6834 H   0  0  0  0  0  0  0  0  0  0  0  0
  -40.9615    0.5914   -7.2105 H   0  0  0  0  0  0  0  0  0  0  0  0
  -39.0525    0.3570   -6.1506 H   0  0  0  0  0  0  0  0  0  0  0  0
  -38.5429    1.7027   -7.2609 H   0  0  0  0  0  0  0  0  0  0  0  0
  -37.5317    4.7787   -5.4510 H   0  0  0  0  0  0  0  0  0  0  0  0
  -37.1695    7.2083   -4.9947 H   0  0  0  0  0  0  0  0  0  0  0  0
  -36.4684    7.9835   -2.7114 H   0  0  0  0  0  0  0  0  0  0  0  0
  -36.0908    6.2472   -0.9329 H   0  0  0  0  0  0  0  0  0  0  0  0
  -34.7562    1.5851   -0.7332 H   0  0  0  0  0  0  0  0  0  0  0  0
  -34.7445   -0.7010    0.3458 H   0  0  0  0  0  0  0  0  0  0  0  0
  -36.6903   -2.2585    0.0498 H   0  0  0  0  0  0  0  0  0  0  0  0
  -38.6642   -1.5265   -1.3081 H   0  0  0  0  0  0  0  0  0  0  0  0
  -38.7182    0.7387   -2.3498 H   0  0  0  0  0  0  0  0  0  0  0  0
 13 12  2  0
 13 14  1  0
 12 11  1  0
 15 14  1  0
 15 16  2  0
 14  9  2  0
 20 21  1  0
 20 17  1  0
 11 10  2  0
 21 22  1  0
 16 17  1  0
 16  8  1  0
 17 18  1  0
 32 33  1  0
 32 31  1  0
  9 10  1  0
  9  8  1  0
 33 28  1  0
 22 23  1  0
 22 19  1  0
  8  7  1  0
 25 26  1  0
 25 23  1  0
 18 19  1  0
 26 27  1  0
 31 30  1  0
 23 24  2  0
 28 27  1  0
 28 29  1  0
 30 29  1  0
 27 34  1  0
  7  6  1  0
  1  6  2  0
  1  2  1  0
 36 37  2  0
 36 35  1  0
 37 38  1  0
  6  5  1  0
  2  3  2  0
 34 35  1  0
 34 42  1  0
 35 40  2  0
 38 39  2  0
  5  4  2  0
  3  4  1  0
 40 39  1  0
 40 41  1  0
 42 43  1  0
 42 41  2  0
 48 43  1  0
 48 47  2  0
 43 44  2  0
 47 46  1  0
 44 45  1  0
 46 45  2  0
  1 49  1  0
  2 50  1  0
  3 51  1  0
  4 52  1  0
  5 53  1  0
  7 54  1  0
  7 55  1  0
 10 56  1  0
 11 57  1  0
 12 58  1  0
 13 59  1  0
 18 60  1  0
 18 61  1  0
 19 62  1  0
 19 63  1  0
 20 64  1  0
 20 65  1  0
 21 66  1  0
 21 67  1  0
 22 68  1  0
 26 69  1  0
 26 70  1  0
 27 71  1  0
 28 72  1  0
 29 73  1  0
 29 74  1  0
 30 75  1  0
 30 76  1  0
 31 77  1  0
 32 78  1  0
 32 79  1  0
 33 80  1  0
 33 81  1  0
 36 82  1  0
 37 83  1  0
 38 84  1  0
 39 85  1  0
 44 86  1  0
 45 87  1  0
 46 88  1  0
 47 89  1  0
 48 90  1  0
A    1
CAI
A    2
CAJ
A    3
CAK
A    4
CAL
A    5
CAM
A    6
CAH
A    7
CAG
A    8
NAD
A    9
CAC
A   10
CAF
A   11
CAE
A   12
CAX
A   13
CAW
A   14
CAV
A   15
NAY
A   16
CAB
A   17
NAA
A   18
CAR
A   19
CAQ
A   20
CAN
A   21
CAO
A   22
CAP
A   23
CAS
A   24
OAT
A   25
OAU
A   26
CBP
A   27
CBO
A   28
CBQ
A   29
CBR
A   30
CBS
A   31
NBV
A   32
CBT
A   33
CBU
A   34
NBH
A   35
CBD
A   36
CBE
A   37
CAZ
A   38
CBA
A   39
CBB
A   40
CBC
A   41
NBF
A   42
CBG
A   43
CBI
A   44
CBJ
A   45
CBK
A   46
CBL
A   47
CBM
A   48
CBN
M  END
