3OSW_XDI_A_1
     RDKit          3D

 33 34  0  0  0  0  0  0  0  0999 V2000
   15.9390   16.5120    9.9090 C   0  0  0  0  0  0  0  0  0  0  0  0
   17.4180   18.4230    9.7330 C   0  0  0  0  0  0  0  0  0  0  0  0
   16.8920   17.3990   16.0080 O   0  0  0  0  0  0  0  0  0  0  0  0
   11.6980   21.1340    9.1540 O   0  0  0  0  0  0  0  0  0  0  0  0
   19.6530   17.1920   14.6440 Br  0  0  0  0  0  0  0  0  0  0  0  0
   13.9940   17.7720   15.3430 Br  0  0  0  0  0  0  0  0  0  0  0  0
   14.2170   22.7850    9.5690 Br  0  0  0  0  0  0  0  0  0  0  0  0
   10.8320   18.1990    9.1840 Br  0  0  0  0  0  0  0  0  0  0  0  0
   17.7210   17.5750   12.4340 C   0  0  0  0  0  0  0  0  0  0  0  0
   15.3340   17.8140   12.7500 C   0  0  0  0  0  0  0  0  0  0  0  0
   15.1030   20.0780    9.9870 C   0  0  0  0  0  0  0  0  0  0  0  0
   13.7160   18.1140    9.8380 C   0  0  0  0  0  0  0  0  0  0  0  0
   16.7710   17.5130   14.6490 C   0  0  0  0  0  0  0  0  0  0  0  0
   12.7690   20.3070    9.4530 C   0  0  0  0  0  0  0  0  0  0  0  0
   17.8940   17.4490   13.8230 C   0  0  0  0  0  0  0  0  0  0  0  0
   15.5040   17.6940   14.1250 C   0  0  0  0  0  0  0  0  0  0  0  0
   14.0110   20.8690    9.6800 C   0  0  0  0  0  0  0  0  0  0  0  0
   12.6130   18.9240    9.5310 C   0  0  0  0  0  0  0  0  0  0  0  0
   16.4350   17.7660   11.8960 C   0  0  0  0  0  0  0  0  0  0  0  0
   14.9690   18.7000   10.0750 C   0  0  0  0  0  0  0  0  0  0  0  0
   16.1940   17.8850   10.4110 C   0  0  0  0  0  0  0  0  0  0  0  0
   15.8119   15.8278   10.7609 H   0  0  0  0  0  0  0  0  0  0  0  0
   15.0250   16.5092    9.2970 H   0  0  0  0  0  0  0  0  0  0  0  0
   16.7911   16.1812    9.2970 H   0  0  0  0  0  0  0  0  0  0  0  0
   18.1468   18.7433   10.4921 H   0  0  0  0  0  0  0  0  0  0  0  0
   17.8641   17.6380    9.1047 H   0  0  0  0  0  0  0  0  0  0  0  0
   17.1413   19.2824    9.1047 H   0  0  0  0  0  0  0  0  0  0  0  0
   16.3163   17.9414   16.6034 H   0  0  0  0  0  0  0  0  0  0  0  0
   11.1690   21.5425    9.8844 H   0  0  0  0  0  0  0  0  0  0  0  0
   18.5932   17.5242   11.7657 H   0  0  0  0  0  0  0  0  0  0  0  0
   14.3247   17.9476   12.3336 H   0  0  0  0  0  0  0  0  0  0  0  0
   16.0837   20.5442   10.1625 H   0  0  0  0  0  0  0  0  0  0  0  0
   13.5992   17.0216    9.8929 H   0  0  0  0  0  0  0  0  0  0  0  0
  1 21  1  0
  2 21  1  0
 13  3  1  0
  4 14  1  0
 15  5  1  0
 16  6  1  0
  7 17  1  0
  8 18  1  0
 19  9  2  0
  9 15  1  0
 19 10  1  0
 10 16  2  0
 17 11  2  0
 11 20  1  0
 18 12  1  0
 12 20  2  0
 15 13  2  0
 16 13  1  0
 14 18  2  0
 14 17  1  0
 21 19  1  0
 20 21  1  0
  1 22  1  0
  1 23  1  0
  1 24  1  0
  2 25  1  0
  2 26  1  0
  2 27  1  0
  3 28  1  0
  4 29  1  0
  9 30  1  0
 10 31  1  0
 11 32  1  0
 12 33  1  0
A    1
CAA
A    2
CAB
A    3
OAC
A    4
OAD
A    5
BRAE
A    6
BRAF
A    7
BRAG
A    8
BRAH
A    9
CAI
A   10
CAJ
A   11
CAK
A   12
CAL
A   13
CAM
A   14
CAN
A   15
CAO
A   16
CAP
A   17
CAQ
A   18
CAR
A   19
CAS
A   20
CAT
A   21
CAU
M  END
