4JX7_1N6_A_401
     RDKit          3D

 51 54  0  0  0  0  0  0  0  0999 V2000
   22.2860  -41.6210   -5.8780 F   0  0  0  0  0  0  0  0  0  0  0  0
   21.5900  -40.8570   -4.9470 C   0  0  0  0  0  0  0  0  0  0  0  0
   20.4030  -41.4230   -4.7580 F   0  0  0  0  0  0  0  0  0  0  0  0
   21.3960  -39.5570   -5.4060 F   0  0  0  0  0  0  0  0  0  0  0  0
   22.3030  -40.8130   -3.7300 C   0  0  0  0  0  0  0  0  0  0  0  0
   21.6370  -40.4090   -2.5590 C   0  0  0  0  0  0  0  0  0  0  0  0
   23.6640  -41.1630   -3.6830 C   0  0  0  0  0  0  0  0  0  0  0  0
   24.3500  -41.1130   -2.4670 C   0  0  0  0  0  0  0  0  0  0  0  0
   23.6670  -40.7110   -1.3040 C   0  0  0  0  0  0  0  0  0  0  0  0
   22.3140  -40.3410   -1.3380 C   0  0  0  0  0  0  0  0  0  0  0  0
   21.7100  -39.9900   -0.1840 N   0  0  0  0  0  0  0  0  0  0  0  0
   20.8550  -38.9490   -0.0160 C   0  0  0  0  0  0  0  0  0  0  0  0
   20.3180  -38.1920   -1.0210 N   0  0  0  0  0  0  0  0  0  0  0  0
   20.5170  -38.6700    1.3260 C   0  0  0  0  0  0  0  0  0  0  0  0
   21.0130  -39.4050    2.4310 C   0  0  0  0  0  0  0  0  0  0  0  0
   21.8000  -40.3590    2.2860 O   0  0  0  0  0  0  0  0  0  0  0  0
   20.5940  -39.0470    3.7470 N   0  0  0  0  0  0  0  0  0  0  0  0
   19.7540  -38.0380    3.9540 C   0  0  0  0  0  0  0  0  0  0  0  0
   19.2560  -37.3000    2.8910 C   0  0  0  0  0  0  0  0  0  0  0  0
   19.6320  -37.6160    1.5850 C   0  0  0  0  0  0  0  0  0  0  0  0
   19.1370  -36.9000    0.5620 N   0  0  0  0  0  0  0  0  0  0  0  0
   19.4540  -37.1830   -0.7250 C   0  0  0  0  0  0  0  0  0  0  0  0
   18.8940  -36.3490   -1.6100 N   0  0  0  0  0  0  0  0  0  0  0  0
   18.3950  -36.5190   -2.9820 C   0  0  0  0  0  0  0  0  0  0  0  0
   19.1890  -35.5330   -3.8510 C   0  0  0  0  0  0  0  0  0  0  0  0
   18.5770  -35.4660   -5.2470 C   0  0  0  0  0  0  0  0  0  0  0  0
   18.6310  -36.8560   -5.8910 C   0  0  0  0  0  0  0  0  0  0  0  0
   18.0680  -36.7850   -7.2340 N   0  0  0  0  0  0  0  0  0  0  0  0
   17.9440  -37.9530   -5.0130 C   0  0  0  0  0  0  0  0  0  0  0  0
   18.4610  -37.9400   -3.5590 C   0  0  0  0  0  0  0  0  0  0  0  0
   20.5705  -40.1433   -2.6046 H   0  0  0  0  0  0  0  0  0  0  0  0
   24.1862  -41.4748   -4.5995 H   0  0  0  0  0  0  0  0  0  0  0  0
   25.4146  -41.3854   -2.4190 H   0  0  0  0  0  0  0  0  0  0  0  0
   24.2066  -40.6863   -0.3458 H   0  0  0  0  0  0  0  0  0  0  0  0
   21.9164  -40.5644    0.6456 H   0  0  0  0  0  0  0  0  0  0  0  0
   20.9496  -39.5811    4.5527 H   0  0  0  0  0  0  0  0  0  0  0  0
   19.4503  -37.7854    4.9806 H   0  0  0  0  0  0  0  0  0  0  0  0
   18.5643  -36.4652    3.0773 H   0  0  0  0  0  0  0  0  0  0  0  0
   18.7914  -35.3874   -1.2553 H   0  0  0  0  0  0  0  0  0  0  0  0
   17.3137  -36.3172   -2.9720 H   0  0  0  0  0  0  0  0  0  0  0  0
   20.2331  -35.8710   -3.9258 H   0  0  0  0  0  0  0  0  0  0  0  0
   19.1548  -34.5344   -3.3910 H   0  0  0  0  0  0  0  0  0  0  0  0
   19.1446  -34.7532   -5.8632 H   0  0  0  0  0  0  0  0  0  0  0  0
   17.5309  -35.1335   -5.1752 H   0  0  0  0  0  0  0  0  0  0  0  0
   19.6836  -37.1668   -5.9648 H   0  0  0  0  0  0  0  0  0  0  0  0
   17.0479  -36.6564   -7.1723 H   0  0  0  0  0  0  0  0  0  0  0  0
   18.4844  -35.9899   -7.7392 H   0  0  0  0  0  0  0  0  0  0  0  0
   16.8588  -37.7731   -5.0053 H   0  0  0  0  0  0  0  0  0  0  0  0
   18.1825  -38.9344   -5.4488 H   0  0  0  0  0  0  0  0  0  0  0  0
   17.8388  -38.6094   -2.9468 H   0  0  0  0  0  0  0  0  0  0  0  0
   19.5064  -38.2820   -3.5482 H   0  0  0  0  0  0  0  0  0  0  0  0
 28 27  1  0
 27 26  1  0
 27 29  1  0
  1  2  1  0
  4  2  1  0
 26 25  1  0
 29 30  1  0
  2  3  1  0
  2  5  1  0
 25 24  1  0
  5  7  2  0
  5  6  1  0
  7  8  1  0
 30 24  1  0
 24 23  1  0
  6 10  2  0
  8  9  2  0
 23 22  1  0
 10  9  1  0
 10 11  1  0
 13 22  2  0
 13 12  1  0
 22 21  1  0
 11 12  1  0
 12 14  2  0
 21 20  2  0
 14 20  1  0
 14 15  1  0
 20 19  1  0
 16 15  2  0
 15 17  1  0
 19 18  2  0
 17 18  1  0
  6 31  1  0
  7 32  1  0
  8 33  1  0
  9 34  1  0
 11 35  1  0
 17 36  1  0
 18 37  1  0
 19 38  1  0
 23 39  1  0
 24 40  1  0
 25 41  1  0
 25 42  1  0
 26 43  1  0
 26 44  1  0
 27 45  1  0
 28 46  1  0
 28 47  1  0
 29 48  1  0
 29 49  1  0
 30 50  1  0
 30 51  1  0
A    1
FAC
A    2
CBD
A    3
FAD
A    4
FAE
A    5
CAV
A    6
CAK
A    7
CAI
A    8
CAF
A    9
CAH
A   10
CAU
A   11
NAR
A   12
C6
A   13
N1
A   14
C5
A   15
CAY
A   16
OAB
A   17
NAT
A   18
CAG
A   19
CAJ
A   20
C4
A   21
N3
A   22
C2
A   23
NAS
A   24
CBC
A   25
CAN
A   26
CAL
A   27
CBB
A   28
NAA
A   29
CAM
A   30
CAO
M  END
