4JX8_AE6_A_301
     RDKit          3D

 48 52  0  0  0  0  0  0  0  0999 V2000
   -4.1810   14.4630  297.3520 O   0  0  0  0  0  0  0  0  0  0  0  0
   -3.4010   15.3240  296.9650 C   0  0  0  0  0  0  0  0  0  0  0  0
   -3.3600   16.5100  297.5690 N   0  0  0  0  0  0  0  0  0  0  0  0
   -2.5660   17.5300  297.1810 C   0  0  0  0  0  0  0  0  0  0  0  0
   -2.7060   18.7110  297.8140 N   0  0  0  0  0  0  0  0  0  0  0  0
   -1.9700   19.7800  297.4830 C   0  0  0  0  0  0  0  0  0  0  0  0
   -2.4990   15.0190  295.7850 C   0  0  0  0  0  0  0  0  0  0  0  0
   -1.4620   16.0930  295.4470 C   0  0  0  0  0  0  0  0  0  0  0  0
   -1.6440   17.4110  296.1560 C   0  0  0  0  0  0  0  0  0  0  0  0
   -0.8590   18.5150  295.7900 C   0  0  0  0  0  0  0  0  0  0  0  0
   -1.0240   19.7290  296.4610 C   0  0  0  0  0  0  0  0  0  0  0  0
   -0.2650   20.9860  296.1850 C   0  0  0  0  0  0  0  0  0  0  0  0
    0.6760   21.1590  295.2450 C   0  0  0  0  0  0  0  0  0  0  0  0
    1.2840   22.3670  295.0960 C   0  0  0  0  0  0  0  0  0  0  0  0
    0.9850   23.2850  295.8400 O   0  0  0  0  0  0  0  0  0  0  0  0
    2.3050   22.6360  294.1340 N   0  0  0  0  0  0  0  0  0  0  0  0
    2.2980   24.0290  293.6290 C   0  0  0  0  0  0  0  0  0  0  0  0
    2.1070   22.1230  292.7620 C   0  0  0  0  0  0  0  0  0  0  0  0
    2.2820   23.5250  292.1970 C   0  0  0  0  0  0  0  0  0  0  0  0
    1.2050   23.9720  291.2790 C   0  0  0  0  0  0  0  0  0  0  0  0
   -0.1020   24.0490  291.6840 O   0  0  0  0  0  0  0  0  0  0  0  0
   -0.8540   24.4940  290.5530 C   0  0  0  0  0  0  0  0  0  0  0  0
   -2.2260   24.7240  290.4840 C   0  0  0  0  0  0  0  0  0  0  0  0
   -2.7820   25.1590  289.2830 C   0  0  0  0  0  0  0  0  0  0  0  0
    1.2260   24.3840  289.8500 C   0  0  0  0  0  0  0  0  0  0  0  0
    2.3350   24.4990  288.8500 C   0  0  0  0  0  0  0  0  0  0  0  0
   -0.0670   24.7000  289.4380 C   0  0  0  0  0  0  0  0  0  0  0  0
   -0.6080   25.1310  288.2350 C   0  0  0  0  0  0  0  0  0  0  0  0
   -1.9820   25.3610  288.1630 C   0  0  0  0  0  0  0  0  0  0  0  0
   -3.9728   16.6582  298.3835 H   0  0  0  0  0  0  0  0  0  0  0  0
   -2.1160   20.7221  298.0318 H   0  0  0  0  0  0  0  0  0  0  0  0
   -2.5844   14.0859  295.2088 H   0  0  0  0  0  0  0  0  0  0  0  0
   -0.6413   15.9155  294.7364 H   0  0  0  0  0  0  0  0  0  0  0  0
   -0.1193   18.4251  294.9808 H   0  0  0  0  0  0  0  0  0  0  0  0
   -0.5014   21.8560  296.8153 H   0  0  0  0  0  0  0  0  0  0  0  0
    0.9575   20.3202  294.5914 H   0  0  0  0  0  0  0  0  0  0  0  0
    3.1987   24.6038  293.8905 H   0  0  0  0  0  0  0  0  0  0  0  0
    1.5300   24.7371  293.9735 H   0  0  0  0  0  0  0  0  0  0  0  0
    1.1108   21.6912  292.5857 H   0  0  0  0  0  0  0  0  0  0  0  0
    2.7274   21.2955  292.3873 H   0  0  0  0  0  0  0  0  0  0  0  0
    3.0966   23.8078  291.5141 H   0  0  0  0  0  0  0  0  0  0  0  0
   -2.8625   24.5642  291.3668 H   0  0  0  0  0  0  0  0  0  0  0  0
   -3.8644   25.3446  289.2197 H   0  0  0  0  0  0  0  0  0  0  0  0
    3.2953   24.5986  289.3772 H   0  0  0  0  0  0  0  0  0  0  0  0
    2.3548   23.5981  288.2192 H   0  0  0  0  0  0  0  0  0  0  0  0
    2.1695   25.3848  288.2192 H   0  0  0  0  0  0  0  0  0  0  0  0
    0.0339   25.2882  287.3556 H   0  0  0  0  0  0  0  0  0  0  0  0
   -2.4333   25.7024  287.2197 H   0  0  0  0  0  0  0  0  0  0  0  0
 29 28  2  0
 29 24  1  0
 28 27  1  0
 26 25  1  0
 24 23  2  0
 27 25  1  0
 27 22  2  0
 25 20  2  0
 23 22  1  0
 22 21  1  0
 20 21  1  0
 20 19  1  0
 19 18  1  0
 19 17  1  0
 18 16  1  0
 17 16  1  0
 16 14  1  0
 14 13  1  0
 14 15  2  0
 13 12  2  0
  8  7  2  0
  8  9  1  0
  7  2  1  0
 10  9  1  0
 10 11  2  0
  9  4  2  0
 12 11  1  0
 11  6  1  0
  2  1  2  0
  2  3  1  0
  4  3  1  0
  4  5  1  0
  6  5  2  0
  3 30  1  0
  6 31  1  0
  7 32  1  0
  8 33  1  0
 10 34  1  0
 12 35  1  0
 13 36  1  0
 17 37  1  0
 17 38  1  0
 18 39  1  0
 18 40  1  0
 19 41  1  0
 23 42  1  0
 24 43  1  0
 26 44  1  0
 26 45  1  0
 26 46  1  0
 28 47  1  0
 29 48  1  0
A    1
O3
A    2
C21
A    3
N3
A    4
C18
A    5
N2
A    6
C17
A    7
C22
A    8
C23
A    9
C19
A   10
C20
A   11
C16
A   12
C15
A   13
C14
A   14
C13
A   15
O2
A   16
N1
A   17
C11
A   18
C12
A   19
C10
A   20
C7
A   21
O1
A   22
C4
A   23
C3
A   24
C2
A   25
C8
A   26
C9
A   27
C5
A   28
C6
A   29
C1
M  END
