4JXS_18U_B_401
     RDKit          3D

 33 34  0  0  0  0  0  0  0  0999 V2000
   81.4410    4.3400   33.3640 C   0  0  0  0  0  0  0  0  0  0  0  0
   82.1210    4.0510   34.5500 C   0  0  0  0  0  0  0  0  0  0  0  0
   83.5060    4.2480   34.6170 C   0  0  0  0  0  0  0  0  0  0  0  0
   84.3080    3.9220   35.8790 C   0  0  0  0  0  0  0  0  0  0  0  0
   85.3430    3.2860   35.6680 O   0  0  0  0  0  0  0  0  0  0  0  0
   83.9250    4.2480   37.0190 O   0  0  0  0  0  0  0  0  0  0  0  0
   84.2010    4.7380   33.5060 C   0  0  0  0  0  0  0  0  0  0  0  0
   83.5320    5.0290   32.3160 C   0  0  0  0  0  0  0  0  0  0  0  0
   82.1450    4.8300   32.2520 C   0  0  0  0  0  0  0  0  0  0  0  0
   81.4240    5.1590   30.9390 C   0  0  0  0  0  0  0  0  0  0  0  0
   80.1520    4.3990   30.8310 N   0  0  0  0  0  0  0  0  0  0  0  0
   78.9000    5.4490   30.6160 S   0  0  0  0  0  0  0  0  0  0  0  0
   77.5920    4.7150   30.6840 O   0  0  0  0  0  0  0  0  0  0  0  0
   78.9900    6.4970   31.6990 O   0  0  0  0  0  0  0  0  0  0  0  0
   79.0990    6.2350   29.0700 C   0  0  0  0  0  0  0  0  0  0  0  0
   79.1530    7.5770   28.9860 C   0  0  0  0  0  0  0  0  0  0  0  0
   79.3120    8.0790   27.7540 C   0  0  0  0  0  0  0  0  0  0  0  0
   79.3810    6.7720   26.6680 S   0  0  0  0  0  0  0  0  0  0  0  0
   79.2230    5.5900   27.8420 C   0  0  0  0  0  0  0  0  0  0  0  0
   79.2240    4.1120   27.4840 C   0  0  0  0  0  0  0  0  0  0  0  0
   78.9770    3.2680   28.3610 O   0  0  0  0  0  0  0  0  0  0  0  0
   79.4630    3.8550   26.2790 O   0  0  0  0  0  0  0  0  0  0  0  0
   80.3540    4.1837   33.3013 H   0  0  0  0  0  0  0  0  0  0  0  0
   81.5725    3.6715   35.4247 H   0  0  0  0  0  0  0  0  0  0  0  0
   84.3702    3.8691   37.8180 H   0  0  0  0  0  0  0  0  0  0  0  0
   85.2877    4.8958   33.5711 H   0  0  0  0  0  0  0  0  0  0  0  0
   84.0833    5.4081   31.4429 H   0  0  0  0  0  0  0  0  0  0  0  0
   82.0756    4.8936   30.0934 H   0  0  0  0  0  0  0  0  0  0  0  0
   81.1946    6.2347   30.9226 H   0  0  0  0  0  0  0  0  0  0  0  0
   80.0014    3.8575   31.6942 H   0  0  0  0  0  0  0  0  0  0  0  0
   79.0717    8.2217   29.8736 H   0  0  0  0  0  0  0  0  0  0  0  0
   79.3848    9.1449   27.4920 H   0  0  0  0  0  0  0  0  0  0  0  0
   79.0486    3.5127   29.3176 H   0  0  0  0  0  0  0  0  0  0  0  0
 22 20  2  0
 18 17  1  0
 18 19  1  0
 20 19  1  0
 20 21  1  0
 17 16  2  0
 19 15  2  0
 16 15  1  0
 15 12  1  0
 12 13  2  0
 12 11  1  0
 12 14  2  0
 11 10  1  0
 10  9  1  0
  9  8  1  0
  9  1  2  0
  8  7  2  0
  1  2  1  0
  7  3  1  0
  2  3  2  0
  3  4  1  0
  5  4  2  0
  4  6  1  0
  1 23  1  0
  2 24  1  0
  6 25  1  0
  7 26  1  0
  8 27  1  0
 10 28  1  0
 10 29  1  0
 11 30  1  0
 16 31  1  0
 17 32  1  0
 21 33  1  0
A    1
C4
A    2
C6
A    3
C8
A    4
C9
A    5
O10
A    6
O11
A    7
C7
A    8
C5
A    9
C3
A   10
C2
A   11
N1
A   12
S13
A   13
O16
A   14
O17
A   15
C15
A   16
C19
A   17
C22
A   18
S20
A   19
C18
A   20
C21
A   21
O24
A   22
O23
M  END
