4JYM_KKN_A_301
     RDKit          3D

 17 18  0  0  0  0  0  0  0  0999 V2000
   88.8790  -54.0540  -28.3900 O   0  0  0  0  0  0  0  0  0  0  0  0
   88.3840  -53.0320  -27.5110 C   0  0  0  0  0  0  0  0  0  0  0  0
   87.1510  -53.3350  -26.7030 C   0  0  0  0  0  0  0  0  0  0  0  0
   86.5020  -54.5870  -26.8080 C   0  0  0  0  0  0  0  0  0  0  0  0
   86.9990  -55.6180  -27.6920 C   0  0  0  0  0  0  0  0  0  0  0  0
   88.2090  -55.3270  -28.4870 C   0  0  0  0  0  0  0  0  0  0  0  0
   85.3570  -54.6130  -25.9320 C   0  0  0  0  0  0  0  0  0  0  0  0
   85.3420  -53.3060  -25.2840 C   0  0  0  0  0  0  0  0  0  0  0  0
   84.5340  -52.9070  -24.4620 O   0  0  0  0  0  0  0  0  0  0  0  0
   86.4870  -52.4570  -25.7610 O   0  0  0  0  0  0  0  0  0  0  0  0
   84.3960  -55.7410  -25.7340 C   0  0  0  0  0  0  0  0  0  0  0  0
   88.8900  -52.0586  -27.4308 H   0  0  0  0  0  0  0  0  0  0  0  0
   86.4907  -56.5904  -27.7699 H   0  0  0  0  0  0  0  0  0  0  0  0
   88.6066  -56.0958  -29.1659 H   0  0  0  0  0  0  0  0  0  0  0  0
   84.2494  -55.9131  -24.6575 H   0  0  0  0  0  0  0  0  0  0  0  0
   83.4321  -55.4875  -26.1994 H   0  0  0  0  0  0  0  0  0  0  0  0
   84.7994  -56.6524  -26.1994 H   0  0  0  0  0  0  0  0  0  0  0  0
  6  1  1  0
  6  5  2  0
  1  2  1  0
  5  4  1  0
  2  3  2  0
  4  3  1  0
  4  7  2  0
  3 10  1  0
  7 11  1  0
  7  8  1  0
 10  8  1  0
  8  9  2  0
  2 12  1  0
  5 13  1  0
  6 14  1  0
 11 15  1  0
 11 16  1  0
 11 17  1  0
A    1
O01
A    2
C02
A    3
C03
A    4
C04
A    5
C05
A    6
C06
A    7
C07
A    8
C08
A    9
O09
A   10
O10
A   11
C11
M  END
