4JYW_T57_A_822
     RDKit          3D

 88 88  0  0  0  0  0  0  0  0999 V2000
   13.7270   48.6750   40.1870 O   0  0  0  0  0  0  0  0  0  0  0  0
   13.7690   47.4390   39.9750 C   0  0  0  0  0  0  0  0  0  0  0  0
   12.9500   46.8100   39.2600 O   0  0  0  0  0  0  0  0  0  0  0  0
   14.9240   46.6560   40.6810 C   0  0  0  0  0  0  0  0  0  0  0  0
   14.6720   45.1380   40.7510 C   0  0  0  0  0  0  0  0  0  0  0  0
   15.9650   44.4270   41.2750 C   0  0  0  0  0  0  0  0  0  0  0  0
   17.0180   44.5710   40.1800 C   0  0  0  0  0  0  0  0  0  0  0  0
   17.8910   45.4680   40.3110 O   0  0  0  0  0  0  0  0  0  0  0  0
   16.8910   43.7950   39.1940 O   0  0  0  0  0  0  0  0  0  0  0  0
   16.4190   44.9450   42.5800 N   0  0  0  0  0  0  0  0  0  0  0  0
   17.5300   43.9790   43.4650 P   0  0  0  0  0  0  0  0  0  0  0  0
   18.1670   43.0020   42.4130 O   0  0  0  0  0  0  0  0  0  0  0  0
   16.8620   43.2250   44.5530 O   0  0  0  0  0  0  0  0  0  0  0  0
   18.5940   45.0200   43.9810 O   0  0  0  0  0  0  0  0  0  0  0  0
   19.2710   45.9010   43.0900 C   0  0  0  0  0  0  0  0  0  0  0  0
   20.7700   45.5220   43.0790 C   0  0  0  0  0  0  0  0  0  0  0  0
   21.6260   46.6950   42.5130 C   0  0  0  0  0  0  0  0  0  0  0  0
   21.9860   47.6940   43.6160 C   0  0  0  0  0  0  0  0  0  0  0  0
   22.3450   46.9120   44.9180 C   0  0  0  0  0  0  0  0  0  0  0  0
   21.4120   46.6300   45.7080 O   0  0  0  0  0  0  0  0  0  0  0  0
   23.5470   46.5900   45.1010 O   0  0  0  0  0  0  0  0  0  0  0  0
   23.1240   48.5300   43.1620 N   0  0  0  0  0  0  0  0  0  0  0  0
   23.5600   49.5630   43.8770 C   0  0  0  0  0  0  0  0  0  0  0  0
   23.0610   49.9040   44.9530 O   0  0  0  0  0  0  0  0  0  0  0  0
   24.7870   50.3030   43.3060 C   0  0  0  0  0  0  0  0  0  0  0  0
   24.3080   51.3450   42.2990 C   0  0  0  0  0  0  0  0  0  0  0  0
   25.4410   52.3300   41.9640 C   0  0  0  0  0  0  0  0  0  0  0  0
   25.0770   53.0770   40.6690 C   0  0  0  0  0  0  0  0  0  0  0  0
   25.0710   54.3320   40.7260 O   0  0  0  0  0  0  0  0  0  0  0  0
   24.7690   52.3790   39.6580 O   0  0  0  0  0  0  0  0  0  0  0  0
   25.6850   53.2630   43.0940 N   0  0  0  0  0  0  0  0  0  0  0  0
   26.9290   53.6950   43.3820 C   0  0  0  0  0  0  0  0  0  0  0  0
   27.9210   53.3840   42.7130 O   0  0  0  0  0  0  0  0  0  0  0  0
   27.0700   54.6790   44.5750 C   0  0  0  0  0  0  0  0  0  0  0  0
   26.4750   54.1520   45.8860 C   0  0  0  0  0  0  0  0  0  0  0  0
   27.2900   53.0000   46.4870 C   0  0  0  0  0  0  0  0  0  0  0  0
   28.6710   53.4420   47.0100 C   0  0  0  0  0  0  0  0  0  0  0  0
   29.2630   52.1850   47.6570 C   0  0  0  0  0  0  0  0  0  0  0  0
   30.6860   52.2240   48.0740 N   0  0  0  0  0  0  0  0  0  0  0  0
   31.0070   51.9140   49.3390 C   0  0  0  0  0  0  0  0  0  0  0  0
   30.1590   51.6970   50.2040 O   0  0  0  0  0  0  0  0  0  0  0  0
   32.3880   51.8650   49.5780 C   0  0  0  0  0  0  0  0  0  0  0  0
   33.2150   52.7840   48.9420 C   0  0  0  0  0  0  0  0  0  0  0  0
   34.5970   52.7580   49.1370 C   0  0  0  0  0  0  0  0  0  0  0  0
   35.1690   51.7850   49.9540 C   0  0  0  0  0  0  0  0  0  0  0  0
   36.6210   51.7750   50.1300 F   0  0  0  0  0  0  0  0  0  0  0  0
   34.3420   50.8450   50.5830 C   0  0  0  0  0  0  0  0  0  0  0  0
   32.9600   50.8800   50.3830 C   0  0  0  0  0  0  0  0  0  0  0  0
   13.7154   49.0178   41.1157 H   0  0  0  0  0  0  0  0  0  0  0  0
   15.8564   46.8305   40.1241 H   0  0  0  0  0  0  0  0  0  0  0  0
   14.9858   47.0257   41.7152 H   0  0  0  0  0  0  0  0  0  0  0  0
   13.8363   44.9347   41.4368 H   0  0  0  0  0  0  0  0  0  0  0  0
   14.4201   44.7578   39.7500 H   0  0  0  0  0  0  0  0  0  0  0  0
   15.7618   43.3643   41.4733 H   0  0  0  0  0  0  0  0  0  0  0  0
   18.1721   45.7569   41.2152 H   0  0  0  0  0  0  0  0  0  0  0  0
   16.8668   45.8573   42.4124 H   0  0  0  0  0  0  0  0  0  0  0  0
   17.1675   43.5698   45.4293 H   0  0  0  0  0  0  0  0  0  0  0  0
   19.1524   46.9397   43.4322 H   0  0  0  0  0  0  0  0  0  0  0  0
   18.8503   45.8133   42.0774 H   0  0  0  0  0  0  0  0  0  0  0  0
   20.9137   44.6321   42.4486 H   0  0  0  0  0  0  0  0  0  0  0  0
   21.0913   45.3126   44.1100 H   0  0  0  0  0  0  0  0  0  0  0  0
   22.5518   46.2883   42.0799 H   0  0  0  0  0  0  0  0  0  0  0  0
   21.0383   47.2184   41.7445 H   0  0  0  0  0  0  0  0  0  0  0  0
   21.1329   48.3543   43.8311 H   0  0  0  0  0  0  0  0  0  0  0  0
   21.5607   46.6749   46.6857 H   0  0  0  0  0  0  0  0  0  0  0  0
   23.5882   48.3048   42.2705 H   0  0  0  0  0  0  0  0  0  0  0  0
   25.4526   49.5841   42.8059 H   0  0  0  0  0  0  0  0  0  0  0  0
   25.3386   50.7959   44.1202 H   0  0  0  0  0  0  0  0  0  0  0  0
   23.4605   51.9001   42.7276 H   0  0  0  0  0  0  0  0  0  0  0  0
   23.9975   50.8324   41.3766 H   0  0  0  0  0  0  0  0  0  0  0  0
   26.3805   51.7804   41.8051 H   0  0  0  0  0  0  0  0  0  0  0  0
   25.0688   54.7876   41.6049 H   0  0  0  0  0  0  0  0  0  0  0  0
   24.8914   53.5848   43.6663 H   0  0  0  0  0  0  0  0  0  0  0  0
   28.1398   54.8785   44.7353 H   0  0  0  0  0  0  0  0  0  0  0  0
   26.5073   55.5863   44.3099 H   0  0  0  0  0  0  0  0  0  0  0  0
   26.4420   54.9764   46.6136 H   0  0  0  0  0  0  0  0  0  0  0  0
   25.4698   53.7654   45.6621 H   0  0  0  0  0  0  0  0  0  0  0  0
   26.7210   52.5683   47.3236 H   0  0  0  0  0  0  0  0  0  0  0  0
   27.4632   52.2682   45.6842 H   0  0  0  0  0  0  0  0  0  0  0  0
   29.3068   53.7880   46.1818 H   0  0  0  0  0  0  0  0  0  0  0  0
   28.5987   54.2801   47.7188 H   0  0  0  0  0  0  0  0  0  0  0  0
   28.6647   51.9652   48.5535 H   0  0  0  0  0  0  0  0  0  0  0  0
   29.2286   51.4239   46.8636 H   0  0  0  0  0  0  0  0  0  0  0  0
   31.4193   52.4861   47.3999 H   0  0  0  0  0  0  0  0  0  0  0  0
   32.7747   53.5412   48.2767 H   0  0  0  0  0  0  0  0  0  0  0  0
   35.2353   53.5067   48.6450 H   0  0  0  0  0  0  0  0  0  0  0  0
   34.7823   50.0772   51.2362 H   0  0  0  0  0  0  0  0  0  0  0  0
   32.3189   50.1261   50.8633 H   0  0  0  0  0  0  0  0  0  0  0  0
  9  7  2  0
  3  2  2  0
 30 28  2  0
  2  1  1  0
  2  4  1  0
  7  8  1  0
  7  6  1  0
 28 29  1  0
 28 27  1  0
  4  5  1  0
  5  6  1  0
  6 10  1  0
 27 26  1  0
 27 31  1  0
 26 25  1  0
 12 11  2  0
 17 16  1  0
 17 18  1  0
 10 11  1  0
 33 32  2  0
 16 15  1  0
 15 14  1  0
 31 32  1  0
 22 18  1  0
 22 23  1  0
 25 23  1  0
 32 34  1  0
 11 14  1  0
 11 13  1  0
 18 19  1  0
 23 24  2  0
 34 35  1  0
 19 21  2  0
 19 20  1  0
 35 36  1  0
 36 37  1  0
 37 38  1  0
 38 39  1  0
 39 40  1  0
 43 44  1  0
 43 42  2  0
 44 45  2  0
 40 42  1  0
 40 41  2  0
 42 48  1  0
 45 46  1  0
 45 47  1  0
 48 47  2  0
  1 49  1  0
  4 50  1  0
  4 51  1  0
  5 52  1  0
  5 53  1  0
  6 54  1  0
  8 55  1  0
 10 56  1  0
 13 57  1  0
 15 58  1  0
 15 59  1  0
 16 60  1  0
 16 61  1  0
 17 62  1  0
 17 63  1  0
 18 64  1  0
 20 65  1  0
 22 66  1  0
 25 67  1  0
 25 68  1  0
 26 69  1  0
 26 70  1  0
 27 71  1  0
 29 72  1  0
 31 73  1  0
 34 74  1  0
 34 75  1  0
 35 76  1  0
 35 77  1  0
 36 78  1  0
 36 79  1  0
 37 80  1  0
 37 81  1  0
 38 82  1  0
 38 83  1  0
 39 84  1  0
 43 85  1  0
 44 86  1  0
 47 87  1  0
 48 88  1  0
A    1
OAA
A    2
CBJ
A    3
OAI
A    4
CAZ
A    5
CBC
A    6
CBU
A    7
CBM
A    8
OAL
A    9
OAD
A   10
NBH
A   11
PBV
A   12
OAM
A   13
OAH
A   14
OBI
A   15
CAX
A   16
CAV
A   17
CB
A   18
CA
A   19
C
A   20
OXT
A   21
O
A   22
N
A   23
CBO
A   24
OAF
A   25
CBA
A   26
CBD
A   27
CBT
A   28
CBL
A   29
OAK
A   30
OAC
A   31
NBG
A   32
CBN
A   33
OAE
A   34
CAY
A   35
CAU
A   36
CAS
A   37
CAT
A   38
CAW
A   39
NBE
A   40
CBP
A   41
OAG
A   42
CBR
A   43
CAQ
A   44
CAO
A   45
CBQ
A   46
FAN
A   47
CAP
A   48
CAR
M  END
