4JZ0_T01_A_818
     RDKit          3D

 63 63  0  0  0  0  0  0  0  0999 V2000
   25.4500   49.7760   40.7200 C   0  0  0  0  0  0  0  0  0  0  0  0
   25.4430   51.1900   40.6820 C   0  0  0  0  0  0  0  0  0  0  0  0
   25.0620   51.9050   41.8410 C   0  0  0  0  0  0  0  0  0  0  0  0
   25.0250   53.2490   41.8950 F   0  0  0  0  0  0  0  0  0  0  0  0
   24.6690   51.2390   42.9970 C   0  0  0  0  0  0  0  0  0  0  0  0
   24.6360   49.8560   43.0240 C   0  0  0  0  0  0  0  0  0  0  0  0
   25.0370   49.1250   41.9040 C   0  0  0  0  0  0  0  0  0  0  0  0
   24.9770   47.5830   42.1140 C   0  0  0  0  0  0  0  0  0  0  0  0
   25.0290   47.1350   43.2820 O   0  0  0  0  0  0  0  0  0  0  0  0
   24.8120   46.8190   41.0230 N   0  0  0  0  0  0  0  0  0  0  0  0
   24.6160   45.3430   41.0530 C   0  0  0  0  0  0  0  0  0  0  0  0
   25.0000   44.7990   39.6750 C   0  0  0  0  0  0  0  0  0  0  0  0
   24.6680   45.5370   38.7310 O   0  0  0  0  0  0  0  0  0  0  0  0
   25.5190   43.6580   39.5750 O   0  0  0  0  0  0  0  0  0  0  0  0
   23.1140   44.9820   41.1710 C   0  0  0  0  0  0  0  0  0  0  0  0
   22.3120   45.7360   42.2480 C   0  0  0  0  0  0  0  0  0  0  0  0
   22.5560   45.0300   43.5720 C   0  0  0  0  0  0  0  0  0  0  0  0
   23.5020   44.2090   43.6490 O   0  0  0  0  0  0  0  0  0  0  0  0
   21.6140   45.2120   44.5300 N   0  0  0  0  0  0  0  0  0  0  0  0
   20.5290   46.2390   44.5280 C   0  0  0  0  0  0  0  0  0  0  0  0
   20.2680   46.4460   46.0400 C   0  0  0  0  0  0  0  0  0  0  0  0
   20.8000   45.6340   46.8270 O   0  0  0  0  0  0  0  0  0  0  0  0
   19.5390   47.3950   46.3540 O   0  0  0  0  0  0  0  0  0  0  0  0
   19.2320   45.7700   43.8530 C   0  0  0  0  0  0  0  0  0  0  0  0
   18.5890   44.8480   44.7310 O   0  0  0  0  0  0  0  0  0  0  0  0
   17.4060   43.8930   44.2280 P   0  0  0  0  0  0  0  0  0  0  0  0
   18.0800   42.8890   43.2080 O   0  0  0  0  0  0  0  0  0  0  0  0
   16.8140   43.1100   45.4350 O   0  0  0  0  0  0  0  0  0  0  0  0
   16.3880   44.8780   43.3700 N   0  0  0  0  0  0  0  0  0  0  0  0
   15.8960   44.3830   42.0520 C   0  0  0  0  0  0  0  0  0  0  0  0
   16.9490   44.5010   40.9120 C   0  0  0  0  0  0  0  0  0  0  0  0
   16.7340   43.7160   39.9160 O   0  0  0  0  0  0  0  0  0  0  0  0
   17.8480   45.4100   40.9620 O   0  0  0  0  0  0  0  0  0  0  0  0
   14.5670   45.1390   41.5930 C   0  0  0  0  0  0  0  0  0  0  0  0
   14.8740   46.6770   41.4980 C   0  0  0  0  0  0  0  0  0  0  0  0
   13.7180   47.4370   40.7880 C   0  0  0  0  0  0  0  0  0  0  0  0
   12.9160   46.7810   40.0700 O   0  0  0  0  0  0  0  0  0  0  0  0
   13.6530   48.6810   40.9690 O   0  0  0  0  0  0  0  0  0  0  0  0
   25.7711   49.1938   39.8437 H   0  0  0  0  0  0  0  0  0  0  0  0
   25.7296   51.7253   39.7648 H   0  0  0  0  0  0  0  0  0  0  0  0
   24.3840   51.8126   43.8912 H   0  0  0  0  0  0  0  0  0  0  0  0
   24.2936   49.3320   43.9285 H   0  0  0  0  0  0  0  0  0  0  0  0
   24.8216   47.2843   40.1041 H   0  0  0  0  0  0  0  0  0  0  0  0
   25.2007   44.9420   41.8940 H   0  0  0  0  0  0  0  0  0  0  0  0
   25.7515   43.1468   40.3903 H   0  0  0  0  0  0  0  0  0  0  0  0
   22.6430   45.1866   40.1982 H   0  0  0  0  0  0  0  0  0  0  0  0
   23.0901   43.9251   41.4748 H   0  0  0  0  0  0  0  0  0  0  0  0
   22.6537   46.7798   42.3096 H   0  0  0  0  0  0  0  0  0  0  0  0
   21.2399   45.7415   42.0019 H   0  0  0  0  0  0  0  0  0  0  0  0
   21.6501   44.5782   45.3411 H   0  0  0  0  0  0  0  0  0  0  0  0
   20.8286   47.1359   43.9660 H   0  0  0  0  0  0  0  0  0  0  0  0
   20.7148   45.7640   47.8047 H   0  0  0  0  0  0  0  0  0  0  0  0
   18.5737   46.6319   43.6690 H   0  0  0  0  0  0  0  0  0  0  0  0
   19.4541   45.2894   42.8888 H   0  0  0  0  0  0  0  0  0  0  0  0
   17.1252   43.5215   46.2799 H   0  0  0  0  0  0  0  0  0  0  0  0
   16.8865   45.7632   43.2001 H   0  0  0  0  0  0  0  0  0  0  0  0
   15.6854   43.3160   42.2170 H   0  0  0  0  0  0  0  0  0  0  0  0
   18.1723   45.7379   41.8381 H   0  0  0  0  0  0  0  0  0  0  0  0
   13.7684   44.9651   42.3292 H   0  0  0  0  0  0  0  0  0  0  0  0
   14.2374   44.7599   40.6144 H   0  0  0  0  0  0  0  0  0  0  0  0
   15.8032   46.8231   40.9278 H   0  0  0  0  0  0  0  0  0  0  0  0
   14.9789   47.0755   42.5179 H   0  0  0  0  0  0  0  0  0  0  0  0
   13.6339   49.0471   41.8886 H   0  0  0  0  0  0  0  0  0  0  0  0
 13 12  2  0
 14 12  1  0
 12 11  1  0
 32 31  2  0
 37 36  2  0
  2  1  2  0
  2  3  1  0
  1  7  1  0
 36 38  1  0
 36 35  1  0
 31 33  1  0
 31 30  1  0
 10 11  1  0
 10  8  1  0
 11 15  1  0
 15 16  1  0
 35 34  1  0
 34 30  1  0
  3  4  1  0
  3  5  2  0
  7  8  1  0
  7  6  2  0
 30 29  1  0
  8  9  2  0
 16 17  1  0
  5  6  1  0
 27 26  2  0
 29 26  1  0
 17 18  2  0
 17 19  1  0
 24 20  1  0
 24 25  1  0
 26 25  1  0
 26 28  1  0
 20 19  1  0
 20 21  1  0
 21 23  2  0
 21 22  1  0
  1 39  1  0
  2 40  1  0
  5 41  1  0
  6 42  1  0
 10 43  1  0
 11 44  1  0
 14 45  1  0
 15 46  1  0
 15 47  1  0
 16 48  1  0
 16 49  1  0
 19 50  1  0
 20 51  1  0
 22 52  1  0
 24 53  1  0
 24 54  1  0
 28 55  1  0
 29 56  1  0
 30 57  1  0
 33 58  1  0
 34 59  1  0
 34 60  1  0
 35 61  1  0
 35 62  1  0
 38 63  1  0
A    1
CAP
A    2
CAN
A    3
CBG
A    4
FAM
A    5
CAO
A    6
CAQ
A    7
CBH
A    8
CBF
A    9
OAF
A   10
N
A   11
CA
A   12
C
A   13
OXT
A   14
O
A   15
CB
A   16
CG
A   17
CD
A   18
OE1
A   19
NE2
A   20
CBK
A   21
CBD
A   22
OAK
A   23
OAD
A   24
CAV
A   25
OAZ
A   26
PBL
A   27
OAL
A   28
OAG
A   29
NAY
A   30
CBJ
A   31
CBC
A   32
OAJ
A   33
OAC
A   34
CAT
A   35
CAR
A   36
CBA
A   37
OAH
A   38
OAA
M  END
