4JZD_1NJ_H_301
     RDKit          3D

 70 72  0  0  0  0  0  0  0  0999 V2000
   86.1770   39.6170   55.0000 O   0  0  0  0  0  0  0  0  0  0  0  0
   85.2330   40.0400   54.3390 C   0  0  0  0  0  0  0  0  0  0  0  0
   83.9650   39.5890   54.5090 N   0  0  0  0  0  0  0  0  0  0  0  0
   83.3660   39.0670   55.6870 C   0  0  0  0  0  0  0  0  0  0  0  0
   83.9110   39.2290   56.9580 C   0  0  0  0  0  0  0  0  0  0  0  0
   83.2380   38.7580   58.0750 C   0  0  0  0  0  0  0  0  0  0  0  0
   82.0210   38.0870   57.9440 C   0  0  0  0  0  0  0  0  0  0  0  0
   81.2390   37.6320   59.1510 C   0  0  0  0  0  0  0  0  0  0  0  0
   81.9140   37.7160   60.3630 N   0  0  0  0  0  0  0  0  0  0  0  0
   80.0060   37.2430   58.9870 N   0  0  0  0  0  0  0  0  0  0  0  0
   81.5170   37.8650   56.6630 C   0  0  0  0  0  0  0  0  0  0  0  0
   82.1820   38.3490   55.5460 C   0  0  0  0  0  0  0  0  0  0  0  0
   85.4760   40.9730   53.1850 C   0  0  0  0  0  0  0  0  0  0  0  0
   84.5690   41.9500   53.0120 N   0  0  0  0  0  0  0  0  0  0  0  0
   84.8060   42.8480   52.0540 C   0  0  0  0  0  0  0  0  0  0  0  0
   83.8680   43.7680   51.7500 O   0  0  0  0  0  0  0  0  0  0  0  0
   82.6830   43.8100   52.5460 C   0  0  0  0  0  0  0  0  0  0  0  0
   85.9510   42.8460   51.2550 C   0  0  0  0  0  0  0  0  0  0  0  0
   86.8580   41.8090   51.4140 C   0  0  0  0  0  0  0  0  0  0  0  0
   86.6520   40.8170   52.3790 C   0  0  0  0  0  0  0  0  0  0  0  0
   87.6390   39.6900   52.4760 C   0  0  0  0  0  0  0  0  0  0  0  0
   88.9790   40.0120   52.7370 C   0  0  0  0  0  0  0  0  0  0  0  0
   89.9540   39.0240   52.7940 C   0  0  0  0  0  0  0  0  0  0  0  0
   87.3060   38.3300   52.2920 C   0  0  0  0  0  0  0  0  0  0  0  0
   85.9360   37.8540   51.9020 C   0  0  0  0  0  0  0  0  0  0  0  0
   85.4310   38.4010   50.8180 O   0  0  0  0  0  0  0  0  0  0  0  0
   85.3590   36.9830   52.5480 O   0  0  0  0  0  0  0  0  0  0  0  0
   88.2880   37.3400   52.3890 C   0  0  0  0  0  0  0  0  0  0  0  0
   89.6180   37.6820   52.6230 C   0  0  0  0  0  0  0  0  0  0  0  0
   90.6410   36.5920   52.6570 C   0  0  0  0  0  0  0  0  0  0  0  0
   91.4880   36.5420   53.5470 O   0  0  0  0  0  0  0  0  0  0  0  0
   90.5610   35.6590   51.6900 N   0  0  0  0  0  0  0  0  0  0  0  0
   91.3630   34.4430   51.6040 C   0  0  0  0  0  0  0  0  0  0  0  0
   92.1570   34.4330   50.2320 C   0  0  0  0  0  0  0  0  0  0  0  0
   92.7410   35.6950   49.9690 O   0  0  0  0  0  0  0  0  0  0  0  0
   90.6050   33.1250   51.9370 C   0  0  0  0  0  0  0  0  0  0  0  0
   89.9240   33.2250   53.3130 C   0  0  0  0  0  0  0  0  0  0  0  0
   89.5340   32.8390   50.8740 C   0  0  0  0  0  0  0  0  0  0  0  0
   91.5960   31.9510   51.9620 C   0  0  0  0  0  0  0  0  0  0  0  0
   83.3586   39.6302   53.6774 H   0  0  0  0  0  0  0  0  0  0  0  0
   84.8812   39.7336   57.0766 H   0  0  0  0  0  0  0  0  0  0  0  0
   83.6678   38.9148   59.0753 H   0  0  0  0  0  0  0  0  0  0  0  0
   81.3922   37.6511   61.2487 H   0  0  0  0  0  0  0  0  0  0  0  0
   82.9360   37.8432   60.3755 H   0  0  0  0  0  0  0  0  0  0  0  0
   79.4532   36.9282   59.7971 H   0  0  0  0  0  0  0  0  0  0  0  0
   80.5818   37.2998   56.5368 H   0  0  0  0  0  0  0  0  0  0  0  0
   81.7710   38.1642   54.5425 H   0  0  0  0  0  0  0  0  0  0  0  0
   82.9564   43.8003   53.6114 H   0  0  0  0  0  0  0  0  0  0  0  0
   82.1217   44.7286   52.3198 H   0  0  0  0  0  0  0  0  0  0  0  0
   82.0581   42.9334   52.3198 H   0  0  0  0  0  0  0  0  0  0  0  0
   86.1287   43.6447   50.5198 H   0  0  0  0  0  0  0  0  0  0  0  0
   87.7510   41.7658   50.7731 H   0  0  0  0  0  0  0  0  0  0  0  0
   89.2621   41.0625   52.8990 H   0  0  0  0  0  0  0  0  0  0  0  0
   91.0022   39.3037   52.9760 H   0  0  0  0  0  0  0  0  0  0  0  0
   85.3755   37.0079   53.5375 H   0  0  0  0  0  0  0  0  0  0  0  0
   88.0082   36.2818   52.2796 H   0  0  0  0  0  0  0  0  0  0  0  0
   89.8705   35.8180   50.9424 H   0  0  0  0  0  0  0  0  0  0  0  0
   92.1005   34.4702   52.4197 H   0  0  0  0  0  0  0  0  0  0  0  0
   91.4619   34.1826   49.4171 H   0  0  0  0  0  0  0  0  0  0  0  0
   92.9606   33.6850   50.3003 H   0  0  0  0  0  0  0  0  0  0  0  0
   92.9500   36.1467   50.8248 H   0  0  0  0  0  0  0  0  0  0  0  0
   90.6794   33.1141   54.1049 H   0  0  0  0  0  0  0  0  0  0  0  0
   89.4334   34.2048   53.4089 H   0  0  0  0  0  0  0  0  0  0  0  0
   89.1724   32.4276   53.4089 H   0  0  0  0  0  0  0  0  0  0  0  0
   88.5848   32.5855   51.3688 H   0  0  0  0  0  0  0  0  0  0  0  0
   89.3933   33.7311   50.2459 H   0  0  0  0  0  0  0  0  0  0  0  0
   89.8568   31.9956   50.2459 H   0  0  0  0  0  0  0  0  0  0  0  0
   91.8216   31.6837   53.0049 H   0  0  0  0  0  0  0  0  0  0  0  0
   91.1516   31.0851   51.4495 H   0  0  0  0  0  0  0  0  0  0  0  0
   92.5242   32.2437   51.4495 H   0  0  0  0  0  0  0  0  0  0  0  0
 35 34  1  0
 34 33  1  0
 26 25  2  0
 38 36  1  0
 18 19  2  0
 18 15  1  0
 19 20  1  0
 33 32  1  0
 33 36  1  0
 32 30  1  0
 16 15  1  0
 16 17  1  0
 25 24  1  0
 25 27  1  0
 36 39  1  0
 36 37  1  0
 15 14  2  0
 24 28  2  0
 24 21  1  0
 20 21  1  0
 20 13  2  0
 28 29  1  0
 21 22  2  0
 29 30  1  0
 29 23  2  0
 30 31  2  0
 22 23  1  0
 14 13  1  0
 13  2  1  0
  2  3  1  0
  2  1  2  0
  3  4  1  0
 12  4  1  0
 12 11  2  0
  4  5  2  0
 11  7  1  0
  5  6  1  0
  7  6  2  0
  7  8  1  0
 10  8  2  3
  8  9  1  0
  3 40  1  0
  5 41  1  0
  6 42  1  0
  9 43  1  0
  9 44  1  0
 10 45  1  0
 11 46  1  0
 12 47  1  0
 17 48  1  0
 17 49  1  0
 17 50  1  0
 18 51  1  0
 19 52  1  0
 22 53  1  0
 23 54  1  0
 27 55  1  0
 28 56  1  0
 32 57  1  0
 33 58  1  0
 34 59  1  0
 34 60  1  0
 35 61  1  0
 37 62  1  0
 37 63  1  0
 37 64  1  0
 38 65  1  0
 38 66  1  0
 38 67  1  0
 39 68  1  0
 39 69  1  0
 39 70  1  0
A    1
O1
A    2
C2
A    3
N3
A    4
C5
A    5
C6
A    6
C8
A    7
C10
A    8
C11
A    9
N12
A   10
N15
A   11
C17
A   12
C19
A   13
C21
A   14
N22
A   15
C23
A   16
O24
A   17
C25
A   18
C29
A   19
C31
A   20
C33
A   21
C34
A   22
C35
A   23
C37
A   24
C39
A   25
C40
A   26
O41
A   27
O43
A   28
C44
A   29
C46
A   30
C47
A   31
O48
A   32
N49
A   33
C51
A   34
C53
A   35
O56
A   36
C58
A   37
C59
A   38
C63
A   39
C67
M  END
