4JZE_1NK_H_301
     RDKit          3D

 72 75  0  0  0  0  0  0  0  0999 V2000
   15.9810   43.0750   22.2980 C   0  0  0  0  0  0  0  0  0  0  0  0
   14.6890   42.2610   22.5020 C   0  0  0  0  0  0  0  0  0  0  0  0
   14.7450   41.1200   21.4680 C   0  0  0  0  0  0  0  0  0  0  0  0
   14.6970   41.6110   23.8940 C   0  0  0  0  0  0  0  0  0  0  0  0
   13.4070   43.1410   22.4970 C   0  0  0  0  0  0  0  0  0  0  0  0
   13.3380   44.0430   21.2460 C   0  0  0  0  0  0  0  0  0  0  0  0
   12.1000   44.7570   21.1200 O   0  0  0  0  0  0  0  0  0  0  0  0
   12.1460   42.3730   22.5790 N   0  0  0  0  0  0  0  0  0  0  0  0
   11.2840   42.5110   23.6180 C   0  0  0  0  0  0  0  0  0  0  0  0
   11.3670   43.3780   24.4750 O   0  0  0  0  0  0  0  0  0  0  0  0
   10.1340   41.5460   23.6580 C   0  0  0  0  0  0  0  0  0  0  0  0
    8.8030   41.8960   23.9640 C   0  0  0  0  0  0  0  0  0  0  0  0
    7.7770   40.9310   23.9460 C   0  0  0  0  0  0  0  0  0  0  0  0
    8.0660   39.5920   23.6390 C   0  0  0  0  0  0  0  0  0  0  0  0
    9.4110   39.2500   23.3720 C   0  0  0  0  0  0  0  0  0  0  0  0
   10.4300   40.2080   23.3480 C   0  0  0  0  0  0  0  0  0  0  0  0
    9.8470   37.8720   22.9770 C   0  0  0  0  0  0  0  0  0  0  0  0
   10.7280   37.2870   23.6000 O   0  0  0  0  0  0  0  0  0  0  0  0
    9.2380   37.2960   21.9540 O   0  0  0  0  0  0  0  0  0  0  0  0
    6.9690   38.5590   23.6420 C   0  0  0  0  0  0  0  0  0  0  0  0
    5.9470   38.7600   22.6920 C   0  0  0  0  0  0  0  0  0  0  0  0
    4.8790   37.8710   22.5270 C   0  0  0  0  0  0  0  0  0  0  0  0
    4.8940   36.6970   23.3030 C   0  0  0  0  0  0  0  0  0  0  0  0
    5.8890   36.4720   24.2220 N   0  0  0  0  0  0  0  0  0  0  0  0
    6.9080   37.3710   24.3940 C   0  0  0  0  0  0  0  0  0  0  0  0
    7.9070   37.0480   25.4590 C   0  0  0  0  0  0  0  0  0  0  0  0
    8.4100   37.9100   26.1540 O   0  0  0  0  0  0  0  0  0  0  0  0
    8.2660   35.7400   25.5510 N   0  0  0  0  0  0  0  0  0  0  0  0
    8.8130   35.0920   26.6200 C   0  0  0  0  0  0  0  0  0  0  0  0
    9.4200   33.8330   26.4460 C   0  0  0  0  0  0  0  0  0  0  0  0
    9.8690   33.0560   27.5220 C   0  0  0  0  0  0  0  0  0  0  0  0
    9.7580   33.5490   28.8320 C   0  0  0  0  0  0  0  0  0  0  0  0
    9.2220   34.8400   29.0520 C   0  0  0  0  0  0  0  0  0  0  0  0
    8.7370   35.5710   27.9480 C   0  0  0  0  0  0  0  0  0  0  0  0
    9.1290   35.3900   30.3370 C   0  0  0  0  0  0  0  0  0  0  0  0
    9.6030   34.6270   31.4150 C   0  0  0  0  0  0  0  0  0  0  0  0
   10.1560   33.3960   31.2190 N   0  0  0  0  0  0  0  0  0  0  0  0
   10.2220   32.8570   29.9710 C   0  0  0  0  0  0  0  0  0  0  0  0
   10.7490   31.6220   29.8970 N   0  0  0  0  0  0  0  0  0  0  0  0
    3.8590   35.8800   23.0520 O   0  0  0  0  0  0  0  0  0  0  0  0
    3.8520   34.5640   23.6980 C   0  0  0  0  0  0  0  0  0  0  0  0
   16.4047   43.3419   23.2774 H   0  0  0  0  0  0  0  0  0  0  0  0
   16.7092   42.4722   21.7355 H   0  0  0  0  0  0  0  0  0  0  0  0
   15.7516   43.9920   21.7355 H   0  0  0  0  0  0  0  0  0  0  0  0
   14.7924   40.1534   21.9908 H   0  0  0  0  0  0  0  0  0  0  0  0
   13.8442   41.1520   20.8375 H   0  0  0  0  0  0  0  0  0  0  0  0
   15.6383   41.2401   20.8375 H   0  0  0  0  0  0  0  0  0  0  0  0
   14.6873   42.3955   24.6650 H   0  0  0  0  0  0  0  0  0  0  0  0
   13.8066   40.9750   24.0068 H   0  0  0  0  0  0  0  0  0  0  0  0
   15.6028   40.9971   24.0068 H   0  0  0  0  0  0  0  0  0  0  0  0
   13.4956   43.7491   23.4093 H   0  0  0  0  0  0  0  0  0  0  0  0
   13.4676   43.4117   20.3546 H   0  0  0  0  0  0  0  0  0  0  0  0
   14.1350   44.7946   21.3460 H   0  0  0  0  0  0  0  0  0  0  0  0
   11.7442   44.9622   22.0208 H   0  0  0  0  0  0  0  0  0  0  0  0
   11.9146   41.7123   21.8235 H   0  0  0  0  0  0  0  0  0  0  0  0
    8.5621   42.9382   24.2206 H   0  0  0  0  0  0  0  0  0  0  0  0
    6.7428   41.2285   24.1739 H   0  0  0  0  0  0  0  0  0  0  0  0
   11.4579   39.9153   23.0877 H   0  0  0  0  0  0  0  0  0  0  0  0
   10.7208   37.2918   24.5900 H   0  0  0  0  0  0  0  0  0  0  0  0
    5.9910   39.6542   22.0529 H   0  0  0  0  0  0  0  0  0  0  0  0
    4.0623   38.0809   21.8207 H   0  0  0  0  0  0  0  0  0  0  0  0
    8.1053   35.1675   24.7100 H   0  0  0  0  0  0  0  0  0  0  0  0
    9.5466   33.4443   25.4248 H   0  0  0  0  0  0  0  0  0  0  0  0
   10.3069   32.0633   27.3411 H   0  0  0  0  0  0  0  0  0  0  0  0
    8.2803   36.5554   28.1276 H   0  0  0  0  0  0  0  0  0  0  0  0
    8.6976   36.3893   30.4961 H   0  0  0  0  0  0  0  0  0  0  0  0
    9.5272   35.0289   32.4361 H   0  0  0  0  0  0  0  0  0  0  0  0
   10.9701   31.1039   30.7593 H   0  0  0  0  0  0  0  0  0  0  0  0
   10.9316   31.1942   28.9780 H   0  0  0  0  0  0  0  0  0  0  0  0
    3.8527   34.6918   24.7905 H   0  0  0  0  0  0  0  0  0  0  0  0
    2.9509   34.0111   23.3941 H   0  0  0  0  0  0  0  0  0  0  0  0
    4.7472   34.0016   23.3941 H   0  0  0  0  0  0  0  0  0  0  0  0
  7  6  1  0
  6  5  1  0
  3  2  1  0
 19 17  2  0
  1  2  1  0
  5  2  1  0
  5  8  1  0
  2  4  1  0
 22 21  2  0
 22 23  1  0
  8  9  1  0
 21 20  1  0
 17 15  1  0
 17 18  1  0
 40 23  1  0
 40 41  1  0
 23 24  2  0
 16 15  1  0
 16 11  2  0
 15 14  2  0
  9 11  1  0
  9 10  2  0
 14 20  1  0
 14 13  1  0
 20 25  2  0
 11 12  1  0
 13 12  2  0
 24 25  1  0
 25 26  1  0
 26 28  1  0
 26 27  2  0
 28 29  1  0
 30 29  2  0
 30 31  1  0
 29 34  1  0
 31 32  2  0
 34 33  2  0
 32 33  1  0
 32 38  1  0
 33 35  1  0
 39 38  1  0
 38 37  2  0
 35 36  2  0
 37 36  1  0
  1 42  1  0
  1 43  1  0
  1 44  1  0
  3 45  1  0
  3 46  1  0
  3 47  1  0
  4 48  1  0
  4 49  1  0
  4 50  1  0
  5 51  1  0
  6 52  1  0
  6 53  1  0
  7 54  1  0
  8 55  1  0
 12 56  1  0
 13 57  1  0
 16 58  1  0
 18 59  1  0
 21 60  1  0
 22 61  1  0
 28 62  1  0
 30 63  1  0
 31 64  1  0
 34 65  1  0
 35 66  1  0
 36 67  1  0
 39 68  1  0
 39 69  1  0
 41 70  1  0
 41 71  1  0
 41 72  1  0
A    1
C1
A    2
C2
A    3
C3
A    4
C4
A    5
C5
A    6
C6
A    7
O7
A    8
N8
A    9
C9
A   10
O10
A   11
C11
A   12
C12
A   13
C13
A   14
C14
A   15
C15
A   16
C16
A   17
C17
A   18
O18
A   19
O19
A   20
C20
A   21
C21
A   22
C22
A   23
C23
A   24
N24
A   25
C25
A   26
C26
A   27
O27
A   28
N28
A   29
C29
A   30
C30
A   31
C31
A   32
C32
A   33
C33
A   34
C34
A   35
C35
A   36
C36
A   37
N37
A   38
C38
A   39
N39
A   40
O40
A   41
C41
M  END
