4JZR_4JR_A_402
     RDKit          3D

 58 62  0  0  0  0  0  0  0  0999 V2000
   40.7090   18.8840   -4.5670 N   0  0  0  0  0  0  0  0  0  0  0  0
   42.3830   21.9920   -4.5080 N   0  0  0  0  0  0  0  0  0  0  0  0
   41.1160   20.0520   -4.0260 C   0  0  0  0  0  0  0  0  0  0  0  0
   42.4850   20.6380   -4.0510 C   0  0  0  0  0  0  0  0  0  0  0  0
   43.5300   22.7770   -3.9370 C   0  0  0  0  0  0  0  0  0  0  0  0
   44.9150   22.5160   -4.5060 C   0  0  0  0  0  0  0  0  0  0  0  0
   44.9530   22.5970   -6.0320 C   0  0  0  0  0  0  0  0  0  0  0  0
   46.3820   22.7600   -7.9150 C   0  0  0  0  0  0  0  0  0  0  0  0
   45.4240   25.7030   -9.4410 C   0  0  0  0  0  0  0  0  0  0  0  0
   46.9680   27.5540   -9.8250 C   0  0  0  0  0  0  0  0  0  0  0  0
   47.3260   25.9370   -8.0250 C   0  0  0  0  0  0  0  0  0  0  0  0
   47.1220   30.3160  -12.3540 C   0  0  0  0  0  0  0  0  0  0  0  0
   48.3180   30.9420  -12.0210 C   0  0  0  0  0  0  0  0  0  0  0  0
   49.0640   30.4500  -10.9620 C   0  0  0  0  0  0  0  0  0  0  0  0
   43.7700   21.7730   -6.5710 C   0  0  0  0  0  0  0  0  0  0  0  0
   41.4450   17.8520   -5.3130 C   0  0  0  0  0  0  0  0  0  0  0  0
   39.4060   18.7960   -4.3110 C   0  0  0  0  0  0  0  0  0  0  0  0
   38.9970   19.8570   -3.6320 C   0  0  0  0  0  0  0  0  0  0  0  0
   40.0830   20.6660   -3.4580 N   0  0  0  0  0  0  0  0  0  0  0  0
   42.4350   22.1410   -5.9220 C   0  0  0  0  0  0  0  0  0  0  0  0
   44.9940   24.0230   -6.5440 C   0  0  0  0  0  0  0  0  0  0  0  0
   44.4110   24.9840   -6.0520 O   0  0  0  0  0  0  0  0  0  0  0  0
   46.2610   22.0210   -6.5840 C   0  0  0  0  0  0  0  0  0  0  0  0
   45.8050   24.0810   -7.6110 N   0  0  0  0  0  0  0  0  0  0  0  0
   46.1700   25.2480   -8.3610 C   0  0  0  0  0  0  0  0  0  0  0  0
   45.8080   26.8350  -10.1640 C   0  0  0  0  0  0  0  0  0  0  0  0
   47.7180   27.0700   -8.7400 C   0  0  0  0  0  0  0  0  0  0  0  0
   47.3950   28.6930  -10.5560 C   0  0  0  0  0  0  0  0  0  0  0  0
   48.6020   29.3450  -10.2580 C   0  0  0  0  0  0  0  0  0  0  0  0
   46.6670   29.2080  -11.6370 C   0  0  0  0  0  0  0  0  0  0  0  0
   43.1247   20.0611   -4.7350 H   0  0  0  0  0  0  0  0  0  0  0  0
   42.9299   20.6084   -3.0454 H   0  0  0  0  0  0  0  0  0  0  0  0
   43.3072   23.8433   -4.0899 H   0  0  0  0  0  0  0  0  0  0  0  0
   43.5942   22.4537   -2.8875 H   0  0  0  0  0  0  0  0  0  0  0  0
   45.2372   21.5100   -4.1993 H   0  0  0  0  0  0  0  0  0  0  0  0
   45.5858   23.2957   -4.1160 H   0  0  0  0  0  0  0  0  0  0  0  0
   45.8099   22.2503   -8.7042 H   0  0  0  0  0  0  0  0  0  0  0  0
   47.4146   22.8127   -8.2905 H   0  0  0  0  0  0  0  0  0  0  0  0
   44.5124   25.1609   -9.7328 H   0  0  0  0  0  0  0  0  0  0  0  0
   47.9420   25.5859   -7.1840 H   0  0  0  0  0  0  0  0  0  0  0  0
   46.5255   30.6995  -13.1949 H   0  0  0  0  0  0  0  0  0  0  0  0
   48.6672   31.8159  -12.5905 H   0  0  0  0  0  0  0  0  0  0  0  0
   50.0132   30.9299  -10.6813 H   0  0  0  0  0  0  0  0  0  0  0  0
   43.6905   21.9428   -7.6549 H   0  0  0  0  0  0  0  0  0  0  0  0
   43.9702   20.7181   -6.3320 H   0  0  0  0  0  0  0  0  0  0  0  0
   41.9339   17.1665   -4.6052 H   0  0  0  0  0  0  0  0  0  0  0  0
   40.7445   17.2874   -5.9459 H   0  0  0  0  0  0  0  0  0  0  0  0
   42.2070   18.3304   -5.9459 H   0  0  0  0  0  0  0  0  0  0  0  0
   38.7603   17.9606   -4.6196 H   0  0  0  0  0  0  0  0  0  0  0  0
   37.9745   20.0501   -3.2753 H   0  0  0  0  0  0  0  0  0  0  0  0
   42.2201   23.1931   -6.1607 H   0  0  0  0  0  0  0  0  0  0  0  0
   41.6953   21.4358   -6.3288 H   0  0  0  0  0  0  0  0  0  0  0  0
   46.1897   20.9335   -6.7333 H   0  0  0  0  0  0  0  0  0  0  0  0
   47.1259   22.1537   -5.9173 H   0  0  0  0  0  0  0  0  0  0  0  0
   45.1929   27.1694  -11.0124 H   0  0  0  0  0  0  0  0  0  0  0  0
   48.6376   27.5974   -8.4464 H   0  0  0  0  0  0  0  0  0  0  0  0
   49.2118   28.9622   -9.4264 H   0  0  0  0  0  0  0  0  0  0  0  0
   45.7193   28.7302  -11.9260 H   0  0  0  0  0  0  0  0  0  0  0  0
 12 13  2  0
 12 30  1  0
 13 14  1  0
 30 28  2  0
 14 29  2  0
 28 29  1  0
 28 10  1  0
 26 10  1  0
 26  9  2  0
 10 27  2  0
  9 25  1  0
 27 11  1  0
 25 11  2  0
 25 24  1  0
  8 24  1  0
  8 23  1  0
 24 21  1  0
 23  7  1  0
 15  7  1  0
 15 20  1  0
 21 22  2  0
 21  7  1  0
  7  6  1  0
 20  2  1  0
 16  1  1  0
  1 17  1  0
  1  3  1  0
  2  4  1  0
  2  5  1  0
  6  5  1  0
 17 18  2  0
  4  3  1  0
  3 19  2  0
 18 19  1  0
  4 31  1  0
  4 32  1  0
  5 33  1  0
  5 34  1  0
  6 35  1  0
  6 36  1  0
  8 37  1  0
  8 38  1  0
  9 39  1  0
 11 40  1  0
 12 41  1  0
 13 42  1  0
 14 43  1  0
 15 44  1  0
 15 45  1  0
 16 46  1  0
 16 47  1  0
 16 48  1  0
 17 49  1  0
 18 50  1  0
 20 51  1  0
 20 52  1  0
 23 53  1  0
 23 54  1  0
 26 55  1  0
 27 56  1  0
 29 57  1  0
 30 58  1  0
A    1
N1
A    2
N3
A    3
C4
A    4
C5
A    5
C6
A    6
C7
A    7
C8
A    8
C10
A    9
C13
A   10
C15
A   11
C17
A   12
C20
A   13
C21
A   14
C22
A   15
C24
A   16
C1
A   17
C2
A   18
C3
A   19
N2
A   20
C25
A   21
C11
A   22
O
A   23
C9
A   24
N4
A   25
C12
A   26
C14
A   27
C16
A   28
C18
A   29
C23
A   30
C19
M  END
