4K2M_O1G_A_501
     RDKit          3D

 53 54  0  0  0  0  0  0  0  0999 V2000
    6.7590    0.6730   18.9750 P   0  0  0  0  0  0  0  0  0  0  0  0
    6.3680    1.8300   13.2950 C   0  0  0  0  0  0  0  0  0  0  0  0
    5.6920    0.9870   12.4780 O   0  0  0  0  0  0  0  0  0  0  0  0
    0.9350   -1.3430   14.2660 C   0  0  0  0  0  0  0  0  0  0  0  0
    7.8590    3.6310   13.6540 N   0  0  0  0  0  0  0  0  0  0  0  0
    2.1920   -0.5590   13.8810 C   0  0  0  0  0  0  0  0  0  0  0  0
    2.4610   -0.9960   12.5060 O   0  0  0  0  0  0  0  0  0  0  0  0
    7.2110    2.8280   12.7950 C   0  0  0  0  0  0  0  0  0  0  0  0
    7.4430    3.0410   11.3090 C   0  0  0  0  0  0  0  0  0  0  0  0
    3.3940   -0.8270   14.8030 C   0  0  0  0  0  0  0  0  0  0  0  0
    4.3790    0.2050   14.4330 N   0  0  0  0  0  0  0  0  0  0  0  0
    1.0740   -2.7450   13.9880 O   0  0  0  0  0  0  0  0  0  0  0  0
    3.0040   -0.7880   16.2940 C   0  0  0  0  0  0  0  0  0  0  0  0
    4.0960   -1.5110   16.8960 O   0  0  0  0  0  0  0  0  0  0  0  0
    6.1990    1.6720   14.6590 C   0  0  0  0  0  0  0  0  0  0  0  0
    5.2940    0.6440   15.2130 C   0  0  0  0  0  0  0  0  0  0  0  0
    1.7680   -1.6660   16.4860 C   0  0  0  0  0  0  0  0  0  0  0  0
    0.6780   -1.2180   15.6710 O   0  0  0  0  0  0  0  0  0  0  0  0
    6.8790    2.5220   15.5270 C   0  0  0  0  0  0  0  0  0  0  0  0
    6.8110    2.5040   17.0630 C   0  0  0  0  0  0  0  0  0  0  0  0
    1.1560   -1.5630   17.8550 C   0  0  0  0  0  0  0  0  0  0  0  0
    7.7010    3.5010   14.9900 C   0  0  0  0  0  0  0  0  0  0  0  0
    6.7240    1.8820   19.8850 O   0  0  0  0  0  0  0  0  0  0  0  0
    7.7890   -0.3300   19.3750 O   0  0  0  0  0  0  0  0  0  0  0  0
    5.3430    0.1110   18.7110 O   0  0  0  0  0  0  0  0  0  0  0  0
    7.3250    1.2410   17.5450 O   0  0  0  0  0  0  0  0  0  0  0  0
    0.2030   -2.5130   18.1480 O   0  0  0  0  0  0  0  0  0  0  0  0
    0.0350   -3.0730   19.6460 P   0  0  0  0  0  0  0  0  0  0  0  0
    1.3460   -3.7550   19.9750 O   0  0  0  0  0  0  0  0  0  0  0  0
   -0.2960   -1.9160   20.5610 O   0  0  0  0  0  0  0  0  0  0  0  0
   -1.1290   -4.0550   19.4870 O   0  0  0  0  0  0  0  0  0  0  0  0
    5.1215    0.2756   12.8634 H   0  0  0  0  0  0  0  0  0  0  0  0
    0.1115   -0.9229   13.6699 H   0  0  0  0  0  0  0  0  0  0  0  0
    2.0340    0.5255   13.9758 H   0  0  0  0  0  0  0  0  0  0  0  0
    2.9799   -1.8389   12.5232 H   0  0  0  0  0  0  0  0  0  0  0  0
    8.2463    3.7786   11.1653 H   0  0  0  0  0  0  0  0  0  0  0  0
    7.7327    2.0877   10.8428 H   0  0  0  0  0  0  0  0  0  0  0  0
    6.5179    3.4109   10.8428 H   0  0  0  0  0  0  0  0  0  0  0  0
    3.8055   -1.8386   14.6717 H   0  0  0  0  0  0  0  0  0  0  0  0
    1.1238   -3.2470   14.8398 H   0  0  0  0  0  0  0  0  0  0  0  0
    2.8186    0.2239   16.6834 H   0  0  0  0  0  0  0  0  0  0  0  0
    4.0210   -1.4613   17.8819 H   0  0  0  0  0  0  0  0  0  0  0  0
    5.4011    0.2746   16.2436 H   0  0  0  0  0  0  0  0  0  0  0  0
    2.1465   -2.6733   16.2580 H   0  0  0  0  0  0  0  0  0  0  0  0
    7.4177    3.3273   17.4682 H   0  0  0  0  0  0  0  0  0  0  0  0
    5.7678    2.6281   17.3891 H   0  0  0  0  0  0  0  0  0  0  0  0
    1.9641   -1.6529   18.5959 H   0  0  0  0  0  0  0  0  0  0  0  0
    0.6370   -0.5936   17.8833 H   0  0  0  0  0  0  0  0  0  0  0  0
    8.2354    4.1857   15.6650 H   0  0  0  0  0  0  0  0  0  0  0  0
    6.7326    1.5847   20.8293 H   0  0  0  0  0  0  0  0  0  0  0  0
    7.8375   -0.3773   20.3627 H   0  0  0  0  0  0  0  0  0  0  0  0
    1.4518   -3.8100   20.9578 H   0  0  0  0  0  0  0  0  0  0  0  0
   -0.2129   -2.2066   21.5037 H   0  0  0  0  0  0  0  0  0  0  0  0
  9  8  1  0
  3  2  1  0
  7  6  1  0
  8  2  2  0
  8  5  1  0
  2 15  1  0
  5 22  2  0
  6  4  1  0
  6 10  1  0
 12  4  1  0
  4 18  1  0
 11 10  1  0
 11 16  2  0
 15 16  1  0
 15 19  2  0
 10 13  1  0
 22 19  1  0
 19 20  1  0
 18 17  1  0
 13 17  1  0
 13 14  1  0
 17 21  1  0
 20 26  1  0
 26  1  1  0
 21 27  1  0
 27 28  1  0
 25  1  2  0
  1 24  1  0
  1 23  1  0
 31 28  2  0
 28 29  1  0
 28 30  1  0
  3 32  1  0
  4 33  1  0
  6 34  1  0
  7 35  1  0
  9 36  1  0
  9 37  1  0
  9 38  1  0
 10 39  1  0
 12 40  1  0
 13 41  1  0
 14 42  1  0
 16 43  1  0
 17 44  1  0
 20 45  1  0
 20 46  1  0
 21 47  1  0
 21 48  1  0
 22 49  1  0
 23 50  1  0
 24 51  1  0
 29 52  1  0
 30 53  1  0
A    1
P
A    2
C3
A    3
O3
A    4
C1'
A    5
N1'
A    6
C2'
A    7
O2'
A    8
C9A
A    9
C2A
A   10
C3'
A   11
N3'
A   12
O3B
A   13
C4'
A   14
O4'
A   15
C4A
A   16
C4B
A   17
C5'
A   18
O5'
A   19
C5A
A   20
C5T
A   21
C6'
A   22
C6A
A   23
OP1
A   24
OP2
A   25
OP3
A   26
OP4
A   27
OP5
A   28
P'
A   29
OP6
A   30
OP7
A   31
OP8
M  END
