1DAG_ACP_A_226
     RDKit          3D

 49 51  0  0  0  0  0  0  0  0999 V2000
    0.6200   23.6420   12.1690 P   0  0  0  0  0  0  0  0  0  0  0  0
    0.2730   24.2730   10.8730 O   0  0  0  0  0  0  0  0  0  0  0  0
    1.0660   24.8190   13.1850 O   0  0  0  0  0  0  0  0  0  0  0  0
   -0.4800   22.8150   12.7200 O   0  0  0  0  0  0  0  0  0  0  0  0
    3.7860   23.0370   11.6360 P   0  0  0  0  0  0  0  0  0  0  0  0
    4.2550   23.6690   12.9030 O   0  0  0  0  0  0  0  0  0  0  0  0
    3.8270   23.9580   10.4460 O   0  0  0  0  0  0  0  0  0  0  0  0
    2.0570   22.5190   11.9410 C   0  0  0  0  0  0  0  0  0  0  0  0
    5.4410   20.6330   12.1460 P   0  0  0  0  0  0  0  0  0  0  0  0
    4.6350   19.9870   13.1850 O   0  0  0  0  0  0  0  0  0  0  0  0
    6.6860   21.2110   12.6970 O   0  0  0  0  0  0  0  0  0  0  0  0
    4.6050   21.7270   11.3310 O   0  0  0  0  0  0  0  0  0  0  0  0
    5.7490   19.6140   10.9530 O   0  0  0  0  0  0  0  0  0  0  0  0
    4.6540   19.1310   10.1420 C   0  0  0  0  0  0  0  0  0  0  0  0
    5.0250   17.7200    9.7130 C   0  0  0  0  0  0  0  0  0  0  0  0
    6.1800   17.7890    8.8440 O   0  0  0  0  0  0  0  0  0  0  0  0
    5.4110   16.8430   10.9140 C   0  0  0  0  0  0  0  0  0  0  0  0
    4.8980   15.5100   10.7770 O   0  0  0  0  0  0  0  0  0  0  0  0
    6.9330   16.8670   10.9360 C   0  0  0  0  0  0  0  0  0  0  0  0
    7.5070   15.6860   11.5330 O   0  0  0  0  0  0  0  0  0  0  0  0
    7.2770   17.0510    9.4550 C   0  0  0  0  0  0  0  0  0  0  0  0
    8.5970   17.7420    9.2630 N   0  0  0  0  0  0  0  0  0  0  0  0
    8.8280   19.0510    9.4960 C   0  0  0  0  0  0  0  0  0  0  0  0
   10.1170   19.3050    9.2980 N   0  0  0  0  0  0  0  0  0  0  0  0
   10.7200   18.1690    8.9290 C   0  0  0  0  0  0  0  0  0  0  0  0
   12.0230   17.8420    8.5960 C   0  0  0  0  0  0  0  0  0  0  0  0
   13.0160   18.7230    8.6600 N   0  0  0  0  0  0  0  0  0  0  0  0
   12.2800   16.5560    8.2360 N   0  0  0  0  0  0  0  0  0  0  0  0
   11.3100   15.6150    8.2180 C   0  0  0  0  0  0  0  0  0  0  0  0
   10.0720   15.9300    8.5590 N   0  0  0  0  0  0  0  0  0  0  0  0
    9.7270   17.2100    8.9130 C   0  0  0  0  0  0  0  0  0  0  0  0
    0.9492   24.5109   14.1186 H   0  0  0  0  0  0  0  0  0  0  0  0
   -0.4476   22.8394   13.7092 H   0  0  0  0  0  0  0  0  0  0  0  0
    3.8688   24.8970   10.7568 H   0  0  0  0  0  0  0  0  0  0  0  0
    2.0952   21.9094   12.8558 H   0  0  0  0  0  0  0  0  0  0  0  0
    1.8107   22.0950   10.9563 H   0  0  0  0  0  0  0  0  0  0  0  0
    6.6484   21.1935   13.6861 H   0  0  0  0  0  0  0  0  0  0  0  0
    3.7235   19.1177   10.7286 H   0  0  0  0  0  0  0  0  0  0  0  0
    4.4871   19.7811    9.2705 H   0  0  0  0  0  0  0  0  0  0  0  0
    4.1508   17.2807    9.2102 H   0  0  0  0  0  0  0  0  0  0  0  0
    4.9840   17.2170   11.8562 H   0  0  0  0  0  0  0  0  0  0  0  0
    4.7480   15.1203   11.6746 H   0  0  0  0  0  0  0  0  0  0  0  0
    7.3533   17.6629   11.5684 H   0  0  0  0  0  0  0  0  0  0  0  0
    7.4694   15.7633   12.5193 H   0  0  0  0  0  0  0  0  0  0  0  0
    7.3918   16.0709    8.9691 H   0  0  0  0  0  0  0  0  0  0  0  0
    8.0711   19.7888    9.8007 H   0  0  0  0  0  0  0  0  0  0  0  0
   13.3687   19.0359    9.5758 H   0  0  0  0  0  0  0  0  0  0  0  0
   13.4329   19.0929    7.7938 H   0  0  0  0  0  0  0  0  0  0  0  0
   11.5512   14.5843    7.9188 H   0  0  0  0  0  0  0  0  0  0  0  0
  1  2  2  0
  1  3  1  0
  1  4  1  0
  1  8  1  0
  5  6  2  0
  5  7  1  0
  5  8  1  0
  5 12  1  0
  9 10  2  0
  9 11  1  0
  9 12  1  0
  9 13  1  0
 13 14  1  0
 14 15  1  0
 15 16  1  0
 15 17  1  0
 16 21  1  0
 17 18  1  0
 17 19  1  0
 19 20  1  0
 19 21  1  0
 21 22  1  0
 22 23  1  0
 22 31  1  0
 23 24  2  0
 24 25  1  0
 25 26  1  0
 25 31  2  0
 26 27  1  0
 26 28  2  0
 28 29  1  0
 29 30  2  0
 30 31  1  0
  3 32  1  0
  4 33  1  0
  7 34  1  0
  8 35  1  0
  8 36  1  0
 11 37  1  0
 14 38  1  0
 14 39  1  0
 15 40  1  0
 17 41  1  0
 18 42  1  0
 19 43  1  0
 20 44  1  0
 21 45  1  0
 23 46  1  0
 27 47  1  0
 27 48  1  0
 29 49  1  0
A    1
PG
A    2
O1G
A    3
O2G
A    4
O3G
A    5
PB
A    6
O1B
A    7
O2B
A    8
C3B
A    9
PA
A   10
O1A
A   11
O2A
A   12
O3A
A   13
O5'
A   14
C5'
A   15
C4'
A   16
O4'
A   17
C3'
A   18
O3'
A   19
C2'
A   20
O2'
A   21
C1'
A   22
N9
A   23
C8
A   24
N7
A   25
C5
A   26
C6
A   27
N6
A   28
N1
A   29
C2
A   30
N3
A   31
C4
M  END
