4K3K_SFK_A_407
     RDKit          3D

 40 40  0  0  0  0  0  0  0  0999 V2000
  -20.3730    0.9550  -23.3620 C   0  0  0  0  0  0  0  0  0  0  0  0
  -21.4030    1.8340  -24.0810 C   0  0  0  0  0  0  0  0  0  0  0  0
  -20.8180    2.3560  -25.4100 C   0  0  0  0  0  0  0  0  0  0  0  0
  -22.6190    0.9860  -24.3520 C   0  0  0  0  0  0  0  0  0  0  0  0
  -23.7160    1.9630  -24.7240 C   0  0  0  0  0  0  0  0  0  0  0  0
  -24.9290    1.0570  -24.9940 C   0  0  0  0  0  0  0  0  0  0  0  0
  -24.9990    0.4090  -26.0340 O   0  0  0  0  0  0  0  0  0  0  0  0
  -25.8430    0.9980  -24.0120 N   0  0  0  0  0  0  0  0  0  0  0  0
  -27.0600    0.1690  -24.1200 C   0  0  0  0  0  0  0  0  0  0  0  0
  -28.1880    0.8640  -23.3580 C   0  0  0  0  0  0  0  0  0  0  0  0
  -29.3010    0.2990  -23.3570 O   0  0  0  0  0  0  0  0  0  0  0  0
  -27.9000    1.9230  -22.7590 O   0  0  0  0  0  0  0  0  0  0  0  0
  -26.8640   -1.2540  -23.5900 C   0  0  0  0  0  0  0  0  0  0  0  0
  -26.2110   -1.2110  -22.3260 C   0  0  0  0  0  0  0  0  0  0  0  0
  -26.9460   -1.0730  -21.1420 C   0  0  0  0  0  0  0  0  0  0  0  0
  -26.3120   -1.0550  -19.9020 C   0  0  0  0  0  0  0  0  0  0  0  0
  -24.9280   -1.1690  -19.8320 C   0  0  0  0  0  0  0  0  0  0  0  0
  -24.1830   -1.3120  -21.0010 C   0  0  0  0  0  0  0  0  0  0  0  0
  -24.8220   -1.3420  -22.2410 C   0  0  0  0  0  0  0  0  0  0  0  0
  -20.4966    1.0605  -22.2741 H   0  0  0  0  0  0  0  0  0  0  0  0
  -20.5247   -0.0963  -23.6480 H   0  0  0  0  0  0  0  0  0  0  0  0
  -19.3587    1.2701  -23.6480 H   0  0  0  0  0  0  0  0  0  0  0  0
  -21.6684    2.7015  -23.4588 H   0  0  0  0  0  0  0  0  0  0  0  0
  -20.0125    3.0747  -25.1988 H   0  0  0  0  0  0  0  0  0  0  0  0
  -20.4143    1.5125  -25.9893 H   0  0  0  0  0  0  0  0  0  0  0  0
  -21.6102    2.8528  -25.9893 H   0  0  0  0  0  0  0  0  0  0  0  0
  -22.8991    0.4166  -23.4535 H   0  0  0  0  0  0  0  0  0  0  0  0
  -22.4363    0.2523  -25.1510 H   0  0  0  0  0  0  0  0  0  0  0  0
  -23.4446    2.5347  -25.6237 H   0  0  0  0  0  0  0  0  0  0  0  0
  -23.9066    2.7111  -23.9404 H   0  0  0  0  0  0  0  0  0  0  0  0
  -25.6901    1.5491  -23.1554 H   0  0  0  0  0  0  0  0  0  0  0  0
  -27.3090    0.0681  -25.1867 H   0  0  0  0  0  0  0  0  0  0  0  0
  -27.8938    1.9459  -21.7693 H   0  0  0  0  0  0  0  0  0  0  0  0
  -27.8442   -1.7406  -23.4785 H   0  0  0  0  0  0  0  0  0  0  0  0
  -26.2462   -1.8243  -24.2992 H   0  0  0  0  0  0  0  0  0  0  0  0
  -28.0407   -0.9774  -21.1921 H   0  0  0  0  0  0  0  0  0  0  0  0
  -26.9043   -0.9509  -18.9810 H   0  0  0  0  0  0  0  0  0  0  0  0
  -24.4220   -1.1463  -18.8555 H   0  0  0  0  0  0  0  0  0  0  0  0
  -23.0880   -1.4015  -20.9460 H   0  0  0  0  0  0  0  0  0  0  0  0
  -24.2284   -1.4697  -23.1583 H   0  0  0  0  0  0  0  0  0  0  0  0
  7  6  2  0
  3  2  1  0
  6  5  1  0
  6  8  1  0
  5  4  1  0
  4  2  1  0
  9  8  1  0
  9 13  1  0
  9 10  1  0
  2  1  1  0
 13 14  1  0
 10 11  2  0
 10 12  1  0
 14 19  2  0
 14 15  1  0
 19 18  1  0
 15 16  2  0
 18 17  2  0
 16 17  1  0
  1 20  1  0
  1 21  1  0
  1 22  1  0
  2 23  1  0
  3 24  1  0
  3 25  1  0
  3 26  1  0
  4 27  1  0
  4 28  1  0
  5 29  1  0
  5 30  1  0
  8 31  1  0
  9 32  1  0
 12 33  1  0
 13 34  1  0
 13 35  1  0
 15 36  1  0
 16 37  1  0
 17 38  1  0
 18 39  1  0
 19 40  1  0
A    1
CAR
A    2
CAQ
A    3
CAS
A    4
CAP
A    5
CAO
A    6
CAM
A    7
OAN
A    8
N
A    9
CA
A   10
C
A   11
O
A   12
OXT
A   13
CB
A   14
CG
A   15
CD1
A   16
CE1
A   17
CZ
A   18
CE2
A   19
CD2
M  END
