4K43_1PO_A_403
     RDKit          3D

 83 84  0  0  0  0  0  0  0  0999 V2000
  -30.8980  -19.0530   -4.2310 O   0  0  0  0  0  0  0  0  0  0  0  0
  -32.0030  -18.8060   -3.7540 C   0  0  0  0  0  0  0  0  0  0  0  0
  -32.1480  -17.8920   -2.7130 N   0  0  0  0  0  0  0  0  0  0  0  0
  -30.8990  -17.2540   -2.2370 C   0  0  0  0  0  0  0  0  0  0  0  0
  -33.4100  -17.5760   -2.1280 C   0  0  0  0  0  0  0  0  0  0  0  0
  -33.5710  -16.6200   -1.1860 C   0  0  0  0  0  0  0  0  0  0  0  0
  -34.8620  -16.3220   -0.4880 C   0  0  0  0  0  0  0  0  0  0  0  0
  -35.2830  -14.8180   -0.4820 C   0  0  0  0  0  0  0  0  0  0  0  0
  -34.3230  -14.1750    0.3160 O   0  0  0  0  0  0  0  0  0  0  0  0
  -34.8140  -13.6210    1.5050 C   0  0  0  0  0  0  0  0  0  0  0  0
  -35.2250  -14.1650   -1.9200 C   0  0  0  0  0  0  0  0  0  0  0  0
  -36.3810  -14.7220   -2.7570 C   0  0  0  0  0  0  0  0  0  0  0  0
  -35.2380  -12.6270   -1.9430 C   0  0  0  0  0  0  0  0  0  0  0  0
  -36.1800  -12.0270   -1.4520 O   0  0  0  0  0  0  0  0  0  0  0  0
  -34.1100  -11.7860   -2.5530 C   0  0  0  0  0  0  0  0  0  0  0  0
  -34.2500  -10.2490   -2.3490 C   0  0  0  0  0  0  0  0  0  0  0  0
  -33.0260   -9.3870   -2.7520 C   0  0  0  0  0  0  0  0  0  0  0  0
  -31.9410   -9.4780   -1.6860 C   0  0  0  0  0  0  0  0  0  0  0  0
  -33.3830   -7.8620   -2.9650 C   0  0  0  0  0  0  0  0  0  0  0  0
  -33.7270   -7.3690   -1.6970 O   0  0  0  0  0  0  0  0  0  0  0  0
  -32.8950   -6.3450   -1.2200 C   0  0  0  0  0  0  0  0  0  0  0  0
  -34.5980   -7.5380   -3.8980 C   0  0  0  0  0  0  0  0  0  0  0  0
  -34.4380   -8.1180   -5.2960 C   0  0  0  0  0  0  0  0  0  0  0  0
  -34.8570   -6.0000   -4.0130 C   0  0  0  0  0  0  0  0  0  0  0  0
  -35.8020   -5.7260   -5.1980 C   0  0  0  0  0  0  0  0  0  0  0  0
  -37.2060   -6.2850   -4.9590 C   0  0  0  0  0  0  0  0  0  0  0  0
  -35.8310   -4.1970   -5.3840 C   0  0  0  0  0  0  0  0  0  0  0  0
  -34.5150   -3.6660   -5.4610 O   0  0  0  0  0  0  0  0  0  0  0  0
  -33.7010   -3.9170   -4.3350 C   0  0  0  0  0  0  0  0  0  0  0  0
  -33.6310   -5.3220   -4.2130 O   0  0  0  0  0  0  0  0  0  0  0  0
  -32.3050   -3.2600   -4.5510 C   0  0  0  0  0  0  0  0  0  0  0  0
  -31.2530   -3.9570   -5.1740 C   0  0  0  0  0  0  0  0  0  0  0  0
  -29.9820   -3.4130   -5.3790 C   0  0  0  0  0  0  0  0  0  0  0  0
  -29.6920   -2.1170   -4.9600 C   0  0  0  0  0  0  0  0  0  0  0  0
  -30.7100   -1.3970   -4.3320 C   0  0  0  0  0  0  0  0  0  0  0  0
  -31.9790   -1.9690   -4.1370 C   0  0  0  0  0  0  0  0  0  0  0  0
  -28.4460   -1.5520   -5.1450 O   0  0  0  0  0  0  0  0  0  0  0  0
  -27.3600   -2.1800   -4.4860 C   0  0  0  0  0  0  0  0  0  0  0  0
  -32.8919  -19.3147   -4.1554 H   0  0  0  0  0  0  0  0  0  0  0  0
  -30.8866  -17.2477   -1.1371 H   0  0  0  0  0  0  0  0  0  0  0  0
  -30.0328  -17.8201   -2.6102 H   0  0  0  0  0  0  0  0  0  0  0  0
  -30.8499  -16.2204   -2.6102 H   0  0  0  0  0  0  0  0  0  0  0  0
  -34.2956  -18.1378   -2.4597 H   0  0  0  0  0  0  0  0  0  0  0  0
  -32.6915  -16.0184   -0.9128 H   0  0  0  0  0  0  0  0  0  0  0  0
  -35.6579  -16.8962   -0.9848 H   0  0  0  0  0  0  0  0  0  0  0  0
  -34.7110  -16.6009    0.5653 H   0  0  0  0  0  0  0  0  0  0  0  0
  -36.3176  -14.7220   -0.1209 H   0  0  0  0  0  0  0  0  0  0  0  0
  -34.3586  -14.1348    2.3644 H   0  0  0  0  0  0  0  0  0  0  0  0
  -34.5624  -12.5508    1.5422 H   0  0  0  0  0  0  0  0  0  0  0  0
  -35.9067  -13.7422    1.5422 H   0  0  0  0  0  0  0  0  0  0  0  0
  -34.2481  -14.4375   -2.3459 H   0  0  0  0  0  0  0  0  0  0  0  0
  -37.1681  -15.1012   -2.0887 H   0  0  0  0  0  0  0  0  0  0  0  0
  -36.7923  -13.9232   -3.3916 H   0  0  0  0  0  0  0  0  0  0  0  0
  -36.0126  -15.5415   -3.3916 H   0  0  0  0  0  0  0  0  0  0  0  0
  -33.2646  -12.2355   -3.0946 H   0  0  0  0  0  0  0  0  0  0  0  0
  -35.1672   -9.7992   -1.9412 H   0  0  0  0  0  0  0  0  0  0  0  0
  -32.6732   -9.7931   -3.7115 H   0  0  0  0  0  0  0  0  0  0  0  0
  -32.4029   -9.4393   -0.6884 H   0  0  0  0  0  0  0  0  0  0  0  0
  -31.3935  -10.4252   -1.8000 H   0  0  0  0  0  0  0  0  0  0  0  0
  -31.2434   -8.6352   -1.8000 H   0  0  0  0  0  0  0  0  0  0  0  0
  -32.5054   -7.4133   -3.4533 H   0  0  0  0  0  0  0  0  0  0  0  0
  -32.8999   -6.3510   -0.1200 H   0  0  0  0  0  0  0  0  0  0  0  0
  -31.8693   -6.5069   -1.5830 H   0  0  0  0  0  0  0  0  0  0  0  0
  -33.2634   -5.3742   -1.5830 H   0  0  0  0  0  0  0  0  0  0  0  0
  -35.4644   -8.0168   -3.4182 H   0  0  0  0  0  0  0  0  0  0  0  0
  -34.1461   -9.1760   -5.2228 H   0  0  0  0  0  0  0  0  0  0  0  0
  -35.3919   -8.0374   -5.8378 H   0  0  0  0  0  0  0  0  0  0  0  0
  -33.6603   -7.5597   -5.8378 H   0  0  0  0  0  0  0  0  0  0  0  0
  -35.3213   -5.6377   -3.0839 H   0  0  0  0  0  0  0  0  0  0  0  0
  -35.4383   -6.2320   -6.1045 H   0  0  0  0  0  0  0  0  0  0  0  0
  -37.3920   -6.3590   -3.8774 H   0  0  0  0  0  0  0  0  0  0  0  0
  -37.9500   -5.6145   -5.4139 H   0  0  0  0  0  0  0  0  0  0  0  0
  -37.2855   -7.2834   -5.4139 H   0  0  0  0  0  0  0  0  0  0  0  0
  -36.3530   -3.7410   -4.5298 H   0  0  0  0  0  0  0  0  0  0  0  0
  -36.3552   -3.9692   -6.3238 H   0  0  0  0  0  0  0  0  0  0  0  0
  -34.1041   -3.4851   -3.4071 H   0  0  0  0  0  0  0  0  0  0  0  0
  -31.4411   -4.9848   -5.5180 H   0  0  0  0  0  0  0  0  0  0  0  0
  -29.2049   -4.0131   -5.8750 H   0  0  0  0  0  0  0  0  0  0  0  0
  -30.5168   -0.3708   -3.9860 H   0  0  0  0  0  0  0  0  0  0  0  0
  -32.7519   -1.3696   -3.6337 H   0  0  0  0  0  0  0  0  0  0  0  0
  -27.4965   -2.1011   -3.3974 H   0  0  0  0  0  0  0  0  0  0  0  0
  -27.3198   -3.2407   -4.7745 H   0  0  0  0  0  0  0  0  0  0  0  0
  -26.4206   -1.6857   -4.7745 H   0  0  0  0  0  0  0  0  0  0  0  0
 28 27  1  0
 28 29  1  0
 27 25  1  0
 33 32  2  0
 33 34  1  0
 23 22  1  0
 25 26  1  0
 25 24  1  0
 32 31  1  0
 37 34  1  0
 37 38  1  0
 34 35  2  0
 31 29  1  0
 31 36  2  0
 29 30  1  0
 35 36  1  0
  1  2  2  0
 30 24  1  0
 24 22  1  0
 22 19  1  0
  2  3  1  0
 19 17  1  0
 19 20  1  0
 12 11  1  0
 17 16  1  0
 17 18  1  0
  3  4  1  0
  3  5  1  0
 15 16  2  0
 15 13  1  0
  5  6  2  0
 13 11  1  0
 13 14  2  0
 11  8  1  0
 20 21  1  0
  6  7  1  0
  7  8  1  0
  8  9  1  0
  9 10  1  0
  2 39  1  0
  4 40  1  0
  4 41  1  0
  4 42  1  0
  5 43  1  0
  6 44  1  0
  7 45  1  0
  7 46  1  0
  8 47  1  0
 10 48  1  0
 10 49  1  0
 10 50  1  0
 11 51  1  0
 12 52  1  0
 12 53  1  0
 12 54  1  0
 15 55  1  0
 16 56  1  0
 17 57  1  0
 18 58  1  0
 18 59  1  0
 18 60  1  0
 19 61  1  0
 21 62  1  0
 21 63  1  0
 21 64  1  0
 22 65  1  0
 23 66  1  0
 23 67  1  0
 23 68  1  0
 24 69  1  0
 25 70  1  0
 26 71  1  0
 26 72  1  0
 26 73  1  0
 27 74  1  0
 27 75  1  0
 29 76  1  0
 32 77  1  0
 33 78  1  0
 35 79  1  0
 36 80  1  0
 38 81  1  0
 38 82  1  0
 38 83  1  0
A    1
O01
A    2
C02
A    3
N03
A    4
C04
A    5
C05
A    6
C06
A    7
C07
A    8
C08
A    9
O09
A   10
C10
A   11
C11
A   12
C12
A   13
C13
A   14
O14
A   15
C15
A   16
C16
A   17
C17
A   18
C18
A   19
C19
A   20
O20
A   21
C21
A   22
C22
A   23
C23
A   24
C24
A   25
C25
A   26
C26
A   27
C27
A   28
O28
A   29
C29
A   30
O30
A   31
C31
A   32
C32
A   33
C33
A   34
C34
A   35
C35
A   36
C36
A   37
O37
A   38
C38
M  END
