4K4J_1O8_A_500
     RDKit          3D

 44 45  0  0  0  0  0  0  0  0999 V2000
   66.0190   46.3520   29.8460 C   0  0  0  0  0  0  0  0  0  0  0  0
   67.4210   46.2460   30.4540 C   0  0  0  0  0  0  0  0  0  0  0  0
   67.4070   45.9490   31.9570 C   0  0  0  0  0  0  0  0  0  0  0  0
   66.4150   46.8440   32.7070 C   0  0  0  0  0  0  0  0  0  0  0  0
   66.5840   47.0020   34.0790 C   0  0  0  0  0  0  0  0  0  0  0  0
   65.7030   47.7800   34.8220 C   0  0  0  0  0  0  0  0  0  0  0  0
   64.6340   48.4260   34.2060 C   0  0  0  0  0  0  0  0  0  0  0  0
   64.4620   48.2780   32.8360 C   0  0  0  0  0  0  0  0  0  0  0  0
   65.3440   47.4940   32.0990 C   0  0  0  0  0  0  0  0  0  0  0  0
   65.1640   47.3360   30.6470 C   0  0  0  0  0  0  0  0  0  0  0  0
   64.1810   48.0770   30.0060 C   0  0  0  0  0  0  0  0  0  0  0  0
   63.9580   47.9580   28.5570 C   0  0  0  0  0  0  0  0  0  0  0  0
   65.0840   48.2970   27.5800 C   0  0  0  0  0  0  0  0  0  0  0  0
   62.7160   47.5710   28.0620 C   0  0  0  0  0  0  0  0  0  0  0  0
   61.5930   47.2640   28.9480 C   0  0  0  0  0  0  0  0  0  0  0  0
   60.3680   46.8960   28.3990 C   0  0  0  0  0  0  0  0  0  0  0  0
   59.2110   46.5940   29.2500 C   0  0  0  0  0  0  0  0  0  0  0  0
   59.4240   46.0000   30.6440 C   0  0  0  0  0  0  0  0  0  0  0  0
   57.9330   46.8380   28.7590 C   0  0  0  0  0  0  0  0  0  0  0  0
   56.7200   46.5670   29.5370 C   0  0  0  0  0  0  0  0  0  0  0  0
   55.7760   47.3810   29.4440 O   0  0  0  0  0  0  0  0  0  0  0  0
   56.6850   45.5480   30.2610 O   0  0  0  0  0  0  0  0  0  0  0  0
   66.1000   46.7043   28.8071 H   0  0  0  0  0  0  0  0  0  0  0  0
   65.5424   45.3610   29.8726 H   0  0  0  0  0  0  0  0  0  0  0  0
   67.9633   45.4369   29.9429 H   0  0  0  0  0  0  0  0  0  0  0  0
   67.9103   47.2218   30.3185 H   0  0  0  0  0  0  0  0  0  0  0  0
   67.1225   44.8974   32.1091 H   0  0  0  0  0  0  0  0  0  0  0  0
   68.4135   46.1488   32.3534 H   0  0  0  0  0  0  0  0  0  0  0  0
   67.4260   46.5047   34.5828 H   0  0  0  0  0  0  0  0  0  0  0  0
   65.8518   47.8862   35.9067 H   0  0  0  0  0  0  0  0  0  0  0  0
   63.9383   49.0425   34.7942 H   0  0  0  0  0  0  0  0  0  0  0  0
   63.6250   48.7827   32.3314 H   0  0  0  0  0  0  0  0  0  0  0  0
   63.5566   48.7666   30.5930 H   0  0  0  0  0  0  0  0  0  0  0  0
   65.9887   48.5694   28.1434 H   0  0  0  0  0  0  0  0  0  0  0  0
   65.2957   47.4228   26.9468 H   0  0  0  0  0  0  0  0  0  0  0  0
   64.7778   49.1428   26.9468 H   0  0  0  0  0  0  0  0  0  0  0  0
   62.5748   47.4938   26.9738 H   0  0  0  0  0  0  0  0  0  0  0  0
   61.7158   47.3235   30.0395 H   0  0  0  0  0  0  0  0  0  0  0  0
   60.2650   46.8302   27.3058 H   0  0  0  0  0  0  0  0  0  0  0  0
   59.1561   46.7470   31.4057 H   0  0  0  0  0  0  0  0  0  0  0  0
   58.7891   45.1098   30.7642 H   0  0  0  0  0  0  0  0  0  0  0  0
   60.4799   45.7161   30.7642 H   0  0  0  0  0  0  0  0  0  0  0  0
   57.8277   47.2514   27.7451 H   0  0  0  0  0  0  0  0  0  0  0  0
   56.6882   45.6407   31.2466 H   0  0  0  0  0  0  0  0  0  0  0  0
 13 12  1  0
 14 12  2  0
 14 15  1  0
 16 15  2  0
 16 17  1  0
 12 11  1  0
 19 17  2  0
 19 20  1  0
 17 18  1  0
 21 20  2  0
 20 22  1  0
  1  2  1  0
  1 10  1  0
 11 10  2  0
  2  3  1  0
 10  9  1  0
  3  4  1  0
  9  4  2  0
  9  8  1  0
  4  5  1  0
  8  7  2  0
  5  6  2  0
  7  6  1  0
  1 23  1  0
  1 24  1  0
  2 25  1  0
  2 26  1  0
  3 27  1  0
  3 28  1  0
  5 29  1  0
  6 30  1  0
  7 31  1  0
  8 32  1  0
 11 33  1  0
 13 34  1  0
 13 35  1  0
 13 36  1  0
 14 37  1  0
 15 38  1  0
 16 39  1  0
 18 40  1  0
 18 41  1  0
 18 42  1  0
 19 43  1  0
 22 44  1  0
A    1
C2'
A    2
C1'
A    3
C18
A    4
C5
A    5
C4
A    6
C3
A    7
C2
A    8
C1
A    9
C6
A   10
C7
A   11
C8
A   12
C9
A   13
C19
A   14
C10
A   15
C11
A   16
C12
A   17
C13
A   18
C20
A   19
C14
A   20
C15
A   21
O1
A   22
O2
M  END
