4K4O_DOO_A_301
     RDKit          3D

 55 60  0  0  0  0  0  0  0  0999 V2000
   10.1500   -1.2810   10.2870 F   0  0  0  0  0  0  0  0  0  0  0  0
   10.8940   -2.1540   10.9870 C   0  0  0  0  0  0  0  0  0  0  0  0
   12.2350   -2.2990   10.6100 C   0  0  0  0  0  0  0  0  0  0  0  0
   10.2770   -2.8850   12.0080 C   0  0  0  0  0  0  0  0  0  0  0  0
   11.0740   -3.8030   12.6800 C   0  0  0  0  0  0  0  0  0  0  0  0
   10.8410   -4.7380   13.7790 C   0  0  0  0  0  0  0  0  0  0  0  0
    9.7050   -5.1710   14.6220 C   0  0  0  0  0  0  0  0  0  0  0  0
    8.4540   -4.6020   14.7160 N   0  0  0  0  0  0  0  0  0  0  0  0
    7.3740   -5.1940   15.5000 C   0  0  0  0  0  0  0  0  0  0  0  0
    7.0490   -4.0050   16.4180 C   0  0  0  0  0  0  0  0  0  0  0  0
    7.7090   -4.0470   17.8050 C   0  0  0  0  0  0  0  0  0  0  0  0
    8.2600   -2.6500   18.0630 C   0  0  0  0  0  0  0  0  0  0  0  0
    8.5150   -2.1670   16.7220 N   0  0  0  0  0  0  0  0  0  0  0  0
    7.6020   -2.7590   15.7470 C   0  0  0  0  0  0  0  0  0  0  0  0
    8.2430   -3.1960   14.4240 C   0  0  0  0  0  0  0  0  0  0  0  0
    9.9670   -6.1370   15.5200 N   0  0  0  0  0  0  0  0  0  0  0  0
   11.1850   -6.6990   15.6350 C   0  0  0  0  0  0  0  0  0  0  0  0
   12.2490   -6.3760   14.9000 N   0  0  0  0  0  0  0  0  0  0  0  0
   12.1180   -5.4330   13.9720 C   0  0  0  0  0  0  0  0  0  0  0  0
   13.0250   -4.9380   13.1260 N   0  0  0  0  0  0  0  0  0  0  0  0
   12.4810   -4.0040   12.3220 C   0  0  0  0  0  0  0  0  0  0  0  0
   13.0680   -3.2140   11.2470 C   0  0  0  0  0  0  0  0  0  0  0  0
   14.3640   -3.4510   10.9630 N   0  0  0  0  0  0  0  0  0  0  0  0
   15.0220   -2.8670    9.8120 C   0  0  0  0  0  0  0  0  0  0  0  0
   11.3950   -7.7090   16.5000 O   0  0  0  0  0  0  0  0  0  0  0  0
   10.4190   -8.3010   17.2530 C   0  0  0  0  0  0  0  0  0  0  0  0
   10.2150   -9.6730   17.1950 C   0  0  0  0  0  0  0  0  0  0  0  0
    9.2840  -10.2120   17.9940 N   0  0  0  0  0  0  0  0  0  0  0  0
    8.5410   -9.4330   18.8110 C   0  0  0  0  0  0  0  0  0  0  0  0
    7.4900  -10.0690   19.6860 C   0  0  0  0  0  0  0  0  0  0  0  0
    8.7230   -8.0970   18.8710 N   0  0  0  0  0  0  0  0  0  0  0  0
    9.6600   -7.5190   18.1110 C   0  0  0  0  0  0  0  0  0  0  0  0
   12.6372   -1.6784    9.7957 H   0  0  0  0  0  0  0  0  0  0  0  0
    9.2172   -2.7405   12.2649 H   0  0  0  0  0  0  0  0  0  0  0  0
    6.5159   -5.4741   14.8713 H   0  0  0  0  0  0  0  0  0  0  0  0
    7.6290   -6.1304   16.0178 H   0  0  0  0  0  0  0  0  0  0  0  0
    5.9592   -4.0257   16.5658 H   0  0  0  0  0  0  0  0  0  0  0  0
    6.9657   -4.3102   18.5720 H   0  0  0  0  0  0  0  0  0  0  0  0
    8.5068   -4.8033   17.8437 H   0  0  0  0  0  0  0  0  0  0  0  0
    9.1863   -2.6900   18.6550 H   0  0  0  0  0  0  0  0  0  0  0  0
    7.5793   -2.0075   18.6408 H   0  0  0  0  0  0  0  0  0  0  0  0
    9.4822   -2.4058   16.4603 H   0  0  0  0  0  0  0  0  0  0  0  0
    6.8594   -1.9935   15.4776 H   0  0  0  0  0  0  0  0  0  0  0  0
    9.1897   -2.6696   14.2326 H   0  0  0  0  0  0  0  0  0  0  0  0
    7.6474   -2.9882   13.5228 H   0  0  0  0  0  0  0  0  0  0  0  0
   14.0116   -5.2319   13.0926 H   0  0  0  0  0  0  0  0  0  0  0  0
   14.9049   -4.0682   11.5853 H   0  0  0  0  0  0  0  0  0  0  0  0
   15.8048   -2.1723   10.1505 H   0  0  0  0  0  0  0  0  0  0  0  0
   15.4766   -3.6644    9.2058 H   0  0  0  0  0  0  0  0  0  0  0  0
   14.2842   -2.3209    9.2058 H   0  0  0  0  0  0  0  0  0  0  0  0
   10.8029  -10.3019   16.5103 H   0  0  0  0  0  0  0  0  0  0  0  0
    7.7493   -9.9121   20.7434 H   0  0  0  0  0  0  0  0  0  0  0  0
    6.5121   -9.6110   19.4764 H   0  0  0  0  0  0  0  0  0  0  0  0
    7.4421  -11.1478   19.4764 H   0  0  0  0  0  0  0  0  0  0  0  0
    9.8270   -6.4332   18.1661 H   0  0  0  0  0  0  0  0  0  0  0  0
 24 23  1  0
  1  2  1  0
  3  2  2  0
  3 22  1  0
 23 22  1  0
  2  4  1  0
 22 21  2  0
  4  5  2  0
 21  5  1  0
 21 20  1  0
  5  6  1  0
 20 19  1  0
  6 19  2  0
  6  7  1  0
 19 18  1  0
 15  8  1  0
 15 14  1  0
  7  8  1  0
  7 16  2  0
  8  9  1  0
 18 17  2  0
  9 10  1  0
 16 17  1  0
 17 25  1  0
 14 10  1  0
 14 13  1  0
 10 11  1  0
 25 26  1  0
 13 12  1  0
 27 26  2  0
 27 28  1  0
 26 32  1  0
 11 12  1  0
 28 29  2  0
 32 31  2  0
 29 31  1  0
 29 30  1  0
  3 33  1  0
  4 34  1  0
  9 35  1  0
  9 36  1  0
 10 37  1  0
 11 38  1  0
 11 39  1  0
 12 40  1  0
 12 41  1  0
 13 42  1  0
 14 43  1  0
 15 44  1  0
 15 45  1  0
 20 46  1  0
 23 47  1  0
 24 48  1  0
 24 49  1  0
 24 50  1  0
 27 51  1  0
 30 52  1  0
 30 53  1  0
 30 54  1  0
 32 55  1  0
A    1
F30
A    2
C6
A    3
C1
A    4
C5
A    5
C4
A    6
C7
A    7
C13
A    8
N22
A    9
C26
A   10
C25
A   11
C27
A   12
C28
A   13
N29
A   14
C24
A   15
C23
A   16
N12
A   17
C11
A   18
N10
A   19
C8
A   20
N9
A   21
C3
A   22
C2
A   23
N31
A   24
C32
A   25
O14
A   26
C15
A   27
C20
A   28
N19
A   29
C18
A   30
C21
A   31
N17
A   32
C16
M  END
