4K4Q_06B_B_102
     RDKit          3D

 23 23  0  0  0  0  0  0  0  0999 V2000
    1.6080  -12.3000    5.0010 Br  0  0  0  0  0  0  0  0  0  0  0  0
    1.0970  -13.9750    4.2940 C   0  0  0  0  0  0  0  0  0  0  0  0
    0.5410  -14.0310    3.0290 C   0  0  0  0  0  0  0  0  0  0  0  0
    0.3650  -12.8800    2.3010 O   0  0  0  0  0  0  0  0  0  0  0  0
   -0.7790  -12.0560    2.5530 C   0  0  0  0  0  0  0  0  0  0  0  0
    0.1540  -15.2510    2.4950 C   0  0  0  0  0  0  0  0  0  0  0  0
   -0.4460  -15.2550    1.1170 C   0  0  0  0  0  0  0  0  0  0  0  0
   -1.6830  -15.1220    0.9960 O   0  0  0  0  0  0  0  0  0  0  0  0
    0.3090  -15.3630    0.1290 O   0  0  0  0  0  0  0  0  0  0  0  0
    1.2780  -15.1380    5.0350 C   0  0  0  0  0  0  0  0  0  0  0  0
    0.8910  -16.3710    4.5000 C   0  0  0  0  0  0  0  0  0  0  0  0
    0.3230  -16.4290    3.2240 C   0  0  0  0  0  0  0  0  0  0  0  0
   -0.0680  -17.6270    2.6610 O   0  0  0  0  0  0  0  0  0  0  0  0
    0.3800  -18.8940    3.1480 C   0  0  0  0  0  0  0  0  0  0  0  0
   -0.9238  -11.9517    3.6384 H   0  0  0  0  0  0  0  0  0  0  0  0
   -0.6210  -11.0629    2.1071 H   0  0  0  0  0  0  0  0  0  0  0  0
   -1.6708  -12.5205    2.1071 H   0  0  0  0  0  0  0  0  0  0  0  0
   -2.2554  -15.0605    1.8014 H   0  0  0  0  0  0  0  0  0  0  0  0
    1.7243  -15.0882    6.0391 H   0  0  0  0  0  0  0  0  0  0  0  0
    1.0333  -17.2934    5.0822 H   0  0  0  0  0  0  0  0  0  0  0  0
    0.3771  -18.8859    4.2480 H   0  0  0  0  0  0  0  0  0  0  0  0
   -0.2930  -19.6850    2.7854 H   0  0  0  0  0  0  0  0  0  0  0  0
    1.4006  -19.0862    2.7854 H   0  0  0  0  0  0  0  0  0  0  0  0
  9  7  2  0
  8  7  1  0
  7  6  1  0
  4  5  1  0
  4  3  1  0
  6  3  1  0
  6 12  2  0
 13 14  1  0
 13 12  1  0
  3  2  2  0
 12 11  1  0
  2  1  1  0
  2 10  1  0
 11 10  2  0
  5 15  1  0
  5 16  1  0
  5 17  1  0
  8 18  1  0
 10 19  1  0
 11 20  1  0
 14 21  1  0
 14 22  1  0
 14 23  1  0
A    1
BR
A    2
C10
A    3
C12
A    4
O13
A    5
C14
A    6
C4
A    7
C2
A    8
O3
A    9
O1
A   10
C9
A   11
C8
A   12
C5
A   13
O6
A   14
C7
M  END
