4K5G_Q13_A_803
     RDKit          3D

 52 53  0  0  0  0  0  0  0  0999 V2000
    5.3650    8.0260   26.9880 N   0  0  0  0  0  0  0  0  0  0  0  0
    4.6260    6.8770   27.1570 C   0  0  0  0  0  0  0  0  0  0  0  0
    3.2670    6.9400   27.5110 C   0  0  0  0  0  0  0  0  0  0  0  0
    2.5230    5.7580   27.6770 C   0  0  0  0  0  0  0  0  0  0  0  0
    1.0600    5.8220   28.0560 C   0  0  0  0  0  0  0  0  0  0  0  0
    3.1430    4.5150   27.4940 C   0  0  0  0  0  0  0  0  0  0  0  0
    5.1870    5.6400   26.9890 N   0  0  0  0  0  0  0  0  0  0  0  0
    4.4980    4.4690   27.1520 C   0  0  0  0  0  0  0  0  0  0  0  0
    5.1920    3.1260   26.9480 C   0  0  0  0  0  0  0  0  0  0  0  0
    5.8630    3.1450   25.6760 O   0  0  0  0  0  0  0  0  0  0  0  0
    6.3530    1.8840   25.1950 C   0  0  0  0  0  0  0  0  0  0  0  0
    5.3020    1.2200   24.2960 C   0  0  0  0  0  0  0  0  0  0  0  0
    7.6830    2.1510   24.4750 C   0  0  0  0  0  0  0  0  0  0  0  0
    8.4830    3.0420   25.3180 N   0  0  0  0  0  0  0  0  0  0  0  0
    8.5040    0.8940   24.1850 C   0  0  0  0  0  0  0  0  0  0  0  0
    9.7830    1.2580   23.6120 O   0  0  0  0  0  0  0  0  0  0  0  0
   10.9270    0.8620   24.3380 C   0  0  0  0  0  0  0  0  0  0  0  0
   12.2650    0.9820   23.5530 C   0  0  0  0  0  0  0  0  0  0  0  0
   13.2710    0.1410   23.9120 N   0  0  0  0  0  0  0  0  0  0  0  0
   14.4880    0.1500   23.3340 C   0  0  0  0  0  0  0  0  0  0  0  0
   15.3930   -0.7570   23.7930 N   0  0  0  0  0  0  0  0  0  0  0  0
   14.7570    1.0410   22.2790 C   0  0  0  0  0  0  0  0  0  0  0  0
   13.7560    1.9330   21.8590 C   0  0  0  0  0  0  0  0  0  0  0  0
   12.4970    1.8930   22.4960 C   0  0  0  0  0  0  0  0  0  0  0  0
   14.0010    2.9010   20.7060 C   0  0  0  0  0  0  0  0  0  0  0  0
    5.7007    8.5480   27.8100 H   0  0  0  0  0  0  0  0  0  0  0  0
    5.5822    8.3638   26.0395 H   0  0  0  0  0  0  0  0  0  0  0  0
    2.7838    7.9171   27.6587 H   0  0  0  0  0  0  0  0  0  0  0  0
    0.9650    5.8262   29.1519 H   0  0  0  0  0  0  0  0  0  0  0  0
    0.6148    6.7405   27.6459 H   0  0  0  0  0  0  0  0  0  0  0  0
    0.5363    4.9459   27.6459 H   0  0  0  0  0  0  0  0  0  0  0  0
    2.5695    3.5846   27.6181 H   0  0  0  0  0  0  0  0  0  0  0  0
    4.4462    2.3176   26.9615 H   0  0  0  0  0  0  0  0  0  0  0  0
    5.9198    2.9527   27.7544 H   0  0  0  0  0  0  0  0  0  0  0  0
    6.5361    1.1766   26.0172 H   0  0  0  0  0  0  0  0  0  0  0  0
    4.5370    0.7367   24.9215 H   0  0  0  0  0  0  0  0  0  0  0  0
    4.8280    1.9829   23.6609 H   0  0  0  0  0  0  0  0  0  0  0  0
    5.7874    0.4643   23.6609 H   0  0  0  0  0  0  0  0  0  0  0  0
    7.4350    2.5934   23.4989 H   0  0  0  0  0  0  0  0  0  0  0  0
    8.2971    2.8349   26.3097 H   0  0  0  0  0  0  0  0  0  0  0  0
    9.4831    2.8970   25.1186 H   0  0  0  0  0  0  0  0  0  0  0  0
    7.9556    0.2565   23.4759 H   0  0  0  0  0  0  0  0  0  0  0  0
    8.6722    0.3482   25.1251 H   0  0  0  0  0  0  0  0  0  0  0  0
   10.7973   -0.1887   24.6366 H   0  0  0  0  0  0  0  0  0  0  0  0
   11.0054    1.5472   25.1950 H   0  0  0  0  0  0  0  0  0  0  0  0
   15.5230   -0.8873   24.8064 H   0  0  0  0  0  0  0  0  0  0  0  0
   15.9479   -1.3132   23.1269 H   0  0  0  0  0  0  0  0  0  0  0  0
   15.7412    1.0393   21.7878 H   0  0  0  0  0  0  0  0  0  0  0  0
   11.6949    2.5714   22.1699 H   0  0  0  0  0  0  0  0  0  0  0  0
   14.2523    3.8937   21.1078 H   0  0  0  0  0  0  0  0  0  0  0  0
   14.8344    2.5333   20.0894 H   0  0  0  0  0  0  0  0  0  0  0  0
   13.0930    2.9741   20.0894 H   0  0  0  0  0  0  0  0  0  0  0  0
 25 23  1  0
 23 22  2  0
 23 24  1  0
 22 20  1  0
 24 18  2  0
 20 21  1  0
 20 19  2  0
 18 19  1  0
 18 17  1  0
 16 15  1  0
 16 17  1  0
 15 13  1  0
 12 11  1  0
 13 11  1  0
 13 14  1  0
 11 10  1  0
 10  9  1  0
  9  8  1  0
  1  2  1  0
  7  8  1  0
  7  2  2  0
  8  6  2  0
  2  3  1  0
  6  4  1  0
  3  4  2  0
  4  5  1  0
  1 26  1  0
  1 27  1  0
  3 28  1  0
  5 29  1  0
  5 30  1  0
  5 31  1  0
  6 32  1  0
  9 33  1  0
  9 34  1  0
 11 35  1  0
 12 36  1  0
 12 37  1  0
 12 38  1  0
 13 39  1  0
 14 40  1  0
 14 41  1  0
 15 42  1  0
 15 43  1  0
 17 44  1  0
 17 45  1  0
 21 46  1  0
 21 47  1  0
 22 48  1  0
 24 49  1  0
 25 50  1  0
 25 51  1  0
 25 52  1  0
A    1
N22
A    2
C22
A    3
C23
A    4
C24
A    5
C27
A    6
C25
A    7
N21
A    8
C26
A    9
C16
A   10
O15
A   11
C13
A   12
C14
A   13
C11
A   14
N12
A   15
C10
A   16
O09
A   17
C08
A   18
C06
A   19
N01
A   20
C02
A   21
N02
A   22
C03
A   23
C04
A   24
C05
A   25
C07
M  END
