4K5F_Q14_A_804
     RDKit          3D

 52 53  0  0  0  0  0  0  0  0999 V2000
   15.1530   -0.7130   23.7060 N   0  0  0  0  0  0  0  0  0  0  0  0
   14.3390    0.3090   23.3170 C   0  0  0  0  0  0  0  0  0  0  0  0
   14.6060    0.9770   22.1310 C   0  0  0  0  0  0  0  0  0  0  0  0
   13.7860    1.9930   21.7080 C   0  0  0  0  0  0  0  0  0  0  0  0
   14.0860    2.7020   20.4080 C   0  0  0  0  0  0  0  0  0  0  0  0
   12.7100    2.3800   22.4860 C   0  0  0  0  0  0  0  0  0  0  0  0
   13.2630    0.6680   24.0510 N   0  0  0  0  0  0  0  0  0  0  0  0
   12.4610    1.7030   23.6780 C   0  0  0  0  0  0  0  0  0  0  0  0
   11.2490    2.0720   24.5250 C   0  0  0  0  0  0  0  0  0  0  0  0
   10.3480    1.0080   24.2630 O   0  0  0  0  0  0  0  0  0  0  0  0
    9.1050    1.0480   24.9700 C   0  0  0  0  0  0  0  0  0  0  0  0
    8.5870   -0.3830   25.2540 C   0  0  0  0  0  0  0  0  0  0  0  0
    9.6190   -1.2690   25.7980 N   0  0  0  0  0  0  0  0  0  0  0  0
    8.0630    1.8660   24.2010 C   0  0  0  0  0  0  0  0  0  0  0  0
    6.8070    2.1200   25.0210 C   0  0  0  0  0  0  0  0  0  0  0  0
    7.1290    2.9490   26.1390 O   0  0  0  0  0  0  0  0  0  0  0  0
    6.3890    2.5830   27.3230 C   0  0  0  0  0  0  0  0  0  0  0  0
    5.0400    3.2810   27.3450 C   0  0  0  0  0  0  0  0  0  0  0  0
    4.9900    4.6170   27.1010 N   0  0  0  0  0  0  0  0  0  0  0  0
    3.8180    5.2920   27.0980 C   0  0  0  0  0  0  0  0  0  0  0  0
    3.8310    6.6200   26.8630 N   0  0  0  0  0  0  0  0  0  0  0  0
    2.6100    4.6320   27.3380 C   0  0  0  0  0  0  0  0  0  0  0  0
    3.8520    2.5710   27.5860 C   0  0  0  0  0  0  0  0  0  0  0  0
    2.6240    3.2570   27.5820 C   0  0  0  0  0  0  0  0  0  0  0  0
    1.3190    2.5370   27.8390 C   0  0  0  0  0  0  0  0  0  0  0  0
   15.3019   -0.9000   24.7079 H   0  0  0  0  0  0  0  0  0  0  0  0
   15.6191   -1.2982   22.9980 H   0  0  0  0  0  0  0  0  0  0  0  0
   15.4794    0.6910   21.5265 H   0  0  0  0  0  0  0  0  0  0  0  0
   14.5065    3.6959   20.6210 H   0  0  0  0  0  0  0  0  0  0  0  0
   14.8121    2.1132   19.8283 H   0  0  0  0  0  0  0  0  0  0  0  0
   13.1578    2.8132   19.8283 H   0  0  0  0  0  0  0  0  0  0  0  0
   12.0609    3.2094   22.1686 H   0  0  0  0  0  0  0  0  0  0  0  0
   11.5102    2.1164   25.5926 H   0  0  0  0  0  0  0  0  0  0  0  0
   10.8351    3.0626   24.2855 H   0  0  0  0  0  0  0  0  0  0  0  0
    9.2785    1.5450   25.9359 H   0  0  0  0  0  0  0  0  0  0  0  0
    7.7621   -0.3195   25.9789 H   0  0  0  0  0  0  0  0  0  0  0  0
    8.2595   -0.8103   24.2947 H   0  0  0  0  0  0  0  0  0  0  0  0
    9.5873   -1.2417   26.8271 H   0  0  0  0  0  0  0  0  0  0  0  0
    9.4499   -2.2322   25.4747 H   0  0  0  0  0  0  0  0  0  0  0  0
    8.5068    2.8339   23.9250 H   0  0  0  0  0  0  0  0  0  0  0  0
    7.7723    1.2884   23.3111 H   0  0  0  0  0  0  0  0  0  0  0  0
    6.0558    2.6238   24.3950 H   0  0  0  0  0  0  0  0  0  0  0  0
    6.4022    1.1619   25.3789 H   0  0  0  0  0  0  0  0  0  0  0  0
    6.2332    1.4941   27.3302 H   0  0  0  0  0  0  0  0  0  0  0  0
    6.9627    2.8902   28.2099 H   0  0  0  0  0  0  0  0  0  0  0  0
    3.8375    7.2825   27.6516 H   0  0  0  0  0  0  0  0  0  0  0  0
    3.8344    6.9717   25.8949 H   0  0  0  0  0  0  0  0  0  0  0  0
    1.6608    5.1879   27.3348 H   0  0  0  0  0  0  0  0  0  0  0  0
    3.8818    1.4880   27.7762 H   0  0  0  0  0  0  0  0  0  0  0  0
    1.1569    2.4476   28.9233 H   0  0  0  0  0  0  0  0  0  0  0  0
    0.4916    3.1063   27.3903 H   0  0  0  0  0  0  0  0  0  0  0  0
    1.3593    1.5335   27.3903 H   0  0  0  0  0  0  0  0  0  0  0  0
  5  4  1  0
  4  3  1  0
  4  6  2  0
  3  2  2  0
  6  8  1  0
  2  1  1  0
  2  7  1  0
  8  7  2  0
  8  9  1  0
 14 11  1  0
 14 15  1  0
 10  9  1  0
 10 11  1  0
 11 12  1  0
 15 16  1  0
 12 13  1  0
 16 17  1  0
 21 20  1  0
 20 19  2  0
 20 22  1  0
 19 18  1  0
 17 18  1  0
 22 24  2  0
 18 23  2  0
 24 23  1  0
 24 25  1  0
  1 26  1  0
  1 27  1  0
  3 28  1  0
  5 29  1  0
  5 30  1  0
  5 31  1  0
  6 32  1  0
  9 33  1  0
  9 34  1  0
 11 35  1  0
 12 36  1  0
 12 37  1  0
 13 38  1  0
 13 39  1  0
 14 40  1  0
 14 41  1  0
 15 42  1  0
 15 43  1  0
 17 44  1  0
 17 45  1  0
 21 46  1  0
 21 47  1  0
 22 48  1  0
 23 49  1  0
 25 50  1  0
 25 51  1  0
 25 52  1  0
A    1
N22
A    2
C22
A    3
C23
A    4
C24
A    5
C27
A    6
C25
A    7
N21
A    8
C26
A    9
C28
A   10
O29
A   11
C12
A   12
C13
A   13
N14
A   14
C11
A   15
C10
A   16
O09
A   17
C08
A   18
C06
A   19
N01
A   20
C02
A   21
N02
A   22
C03
A   23
C05
A   24
C04
A   25
C07
M  END
