4K9G_1Q2_A_201
     RDKit          3D

 31 31  0  0  0  0  0  0  0  0999 V2000
   34.1270  -30.5490   30.7230 C   0  0  0  0  0  0  0  0  0  0  0  0
   34.4560  -31.4700   31.6690 O   0  0  0  0  0  0  0  0  0  0  0  0
   33.3330  -29.4620   31.0750 C   0  0  0  0  0  0  0  0  0  0  0  0
   32.9900  -29.2550   32.3610 F   0  0  0  0  0  0  0  0  0  0  0  0
   32.9240  -28.5510   30.1060 C   0  0  0  0  0  0  0  0  0  0  0  0
   33.3140  -28.7100   28.7840 C   0  0  0  0  0  0  0  0  0  0  0  0
   34.1210  -29.7850   28.4350 C   0  0  0  0  0  0  0  0  0  0  0  0
   34.5240  -30.7040   29.3990 C   0  0  0  0  0  0  0  0  0  0  0  0
   32.8750  -27.7850   27.8380 C   0  0  0  0  0  0  0  0  0  0  0  0
   31.7020  -27.1940   28.0570 N   0  0  0  0  0  0  0  0  0  0  0  0
   32.5690  -25.2960   26.6200 O   0  0  0  0  0  0  0  0  0  0  0  0
   32.8030  -26.4320   25.7830 C   0  0  0  0  0  0  0  0  0  0  0  0
   33.6740  -27.3990   26.5930 C   0  0  0  0  0  0  0  0  0  0  0  0
   33.5830  -25.9870   24.5450 C   0  0  0  0  0  0  0  0  0  0  0  0
   32.8970  -24.8280   23.8160 C   0  0  0  0  0  0  0  0  0  0  0  0
   33.3270  -24.4460   22.7290 O   0  0  0  0  0  0  0  0  0  0  0  0
   31.6880  -24.1300   24.4420 C   0  0  0  0  0  0  0  0  0  0  0  0
   34.3752  -31.2437   32.6294 H   0  0  0  0  0  0  0  0  0  0  0  0
   32.2877  -27.6997   30.3897 H   0  0  0  0  0  0  0  0  0  0  0  0
   34.4434  -29.9107   27.3908 H   0  0  0  0  0  0  0  0  0  0  0  0
   35.1586  -31.5558   29.1131 H   0  0  0  0  0  0  0  0  0  0  0  0
   31.3393  -26.5040   27.3838 H   0  0  0  0  0  0  0  0  0  0  0  0
   32.6252  -25.5689   27.5700 H   0  0  0  0  0  0  0  0  0  0  0  0
   31.8588  -26.9010   25.4691 H   0  0  0  0  0  0  0  0  0  0  0  0
   34.6136  -26.9070   26.8847 H   0  0  0  0  0  0  0  0  0  0  0  0
   33.9291  -28.2889   25.9989 H   0  0  0  0  0  0  0  0  0  0  0  0
   34.5878  -25.6650   24.8560 H   0  0  0  0  0  0  0  0  0  0  0  0
   33.6330  -26.8400   23.8522 H   0  0  0  0  0  0  0  0  0  0  0  0
   31.7657  -24.1749   25.5383 H   0  0  0  0  0  0  0  0  0  0  0  0
   31.6636  -23.0788   24.1189 H   0  0  0  0  0  0  0  0  0  0  0  0
   30.7654  -24.6345   24.1189 H   0  0  0  0  0  0  0  0  0  0  0  0
  2  1  1  0
  3  1  2  0
  1  8  1  0
  4  3  1  0
  3  5  1  0
  5  6  2  0
  6  7  1  0
  6  9  1  0
  8  7  2  0
 10  9  2  3
  9 13  1  0
 11 12  1  0
 13 12  1  0
 12 14  1  0
 14 15  1  0
 16 15  2  0
 15 17  1  0
  2 18  1  0
  5 19  1  0
  7 20  1  0
  8 21  1  0
 10 22  1  0
 11 23  1  0
 12 24  1  0
 13 25  1  0
 13 26  1  0
 14 27  1  0
 14 28  1  0
 17 29  1  0
 17 30  1  0
 17 31  1  0
A    1
C1
A    2
O1
A    3
C2
A    4
F2
A    5
C3
A    6
C4
A    7
C5
A    8
C6
A    9
C7
A   10
N8
A   11
O9
A   12
C10
A   13
C11
A   14
C12
A   15
C13
A   16
O13
A   17
C14
M  END
