4K9T_1RD_A_602
     RDKit          3D

 71 72  0  0  0  0  0  0  0  0999 V2000
   21.7290   19.3170  -12.5810 O   0  0  0  0  0  0  0  0  0  0  0  0
   22.1500   20.0550  -11.7190 C   0  0  0  0  0  0  0  0  0  0  0  0
   21.6950   21.4300  -11.7080 O   0  0  0  0  0  0  0  0  0  0  0  0
   20.5910   21.9210  -12.5030 C   0  0  0  0  0  0  0  0  0  0  0  0
   19.5000   22.3460  -11.5360 C   0  0  0  0  0  0  0  0  0  0  0  0
   19.8990   22.5570   -9.8720 S   0  0  0  0  0  0  0  0  0  0  0  0
   18.2910   22.9670   -9.3820 C   0  0  0  0  0  0  0  0  0  0  0  0
   17.5000   22.9470  -10.4930 N   0  0  0  0  0  0  0  0  0  0  0  0
   18.1430   22.6050  -11.6530 C   0  0  0  0  0  0  0  0  0  0  0  0
   22.9940   19.6530  -10.7740 N   0  0  0  0  0  0  0  0  0  0  0  0
   23.9060   18.4990  -10.8790 C   0  0  0  0  0  0  0  0  0  0  0  0
   23.5700   17.3600  -11.8440 C   0  0  0  0  0  0  0  0  0  0  0  0
   24.4240   17.4350  -13.1120 C   0  0  0  0  0  0  0  0  0  0  0  0
   24.5250   16.1210  -13.8860 C   0  0  0  0  0  0  0  0  0  0  0  0
   25.3050   15.1190  -13.1730 N   0  0  0  0  0  0  0  0  0  0  0  0
   26.4610   14.6180  -13.6080 C   0  0  0  0  0  0  0  0  0  0  0  0
   27.0340   15.0570  -14.5900 O   0  0  0  0  0  0  0  0  0  0  0  0
   27.0480   13.4760  -12.8070 C   0  0  0  0  0  0  0  0  0  0  0  0
   28.0770   14.0020  -11.8030 C   0  0  0  0  0  0  0  0  0  0  0  0
   27.4040   14.8030  -10.6890 C   0  0  0  0  0  0  0  0  0  0  0  0
   29.2100   14.7930  -12.4650 C   0  0  0  0  0  0  0  0  0  0  0  0
   27.6890   12.4420  -13.6200 N   0  0  0  0  0  0  0  0  0  0  0  0
   27.0770   11.5630  -14.4520 C   0  0  0  0  0  0  0  0  0  0  0  0
   25.8700   11.5860  -14.6800 O   0  0  0  0  0  0  0  0  0  0  0  0
   27.8260   10.6240  -15.0500 N   0  0  0  0  0  0  0  0  0  0  0  0
   27.3010    9.8430  -16.1660 C   0  0  0  0  0  0  0  0  0  0  0  0
   29.1920   10.2970  -14.5990 C   0  0  0  0  0  0  0  0  0  0  0  0
   30.3010   11.0580  -15.2970 C   0  0  0  0  0  0  0  0  0  0  0  0
   30.7510   12.3240  -14.9460 N   0  0  0  0  0  0  0  0  0  0  0  0
   30.9790   10.4940  -16.3780 C   0  0  0  0  0  0  0  0  0  0  0  0
   32.1770   11.6370  -16.9170 S   0  0  0  0  0  0  0  0  0  0  0  0
   31.7660   12.8050  -15.7170 C   0  0  0  0  0  0  0  0  0  0  0  0
   32.5840   14.0410  -15.7640 C   0  0  0  0  0  0  0  0  0  0  0  0
   34.0660   13.6880  -15.7040 C   0  0  0  0  0  0  0  0  0  0  0  0
   32.3000   14.8590  -14.5340 C   0  0  0  0  0  0  0  0  0  0  0  0
   20.9147   22.7805  -13.1084 H   0  0  0  0  0  0  0  0  0  0  0  0
   20.2253   21.1427  -13.1889 H   0  0  0  0  0  0  0  0  0  0  0  0
   17.9651   23.2017   -8.3580 H   0  0  0  0  0  0  0  0  0  0  0  0
   17.6161   22.5399  -12.6164 H   0  0  0  0  0  0  0  0  0  0  0  0
   23.0125   20.1918   -9.8964 H   0  0  0  0  0  0  0  0  0  0  0  0
   23.9795   18.0565   -9.8746 H   0  0  0  0  0  0  0  0  0  0  0  0
   24.8249   18.9327  -11.3003 H   0  0  0  0  0  0  0  0  0  0  0  0
   22.5081   17.4280  -12.1227 H   0  0  0  0  0  0  0  0  0  0  0  0
   23.7798   16.4049  -11.3402 H   0  0  0  0  0  0  0  0  0  0  0  0
   25.4399   17.7434  -12.8244 H   0  0  0  0  0  0  0  0  0  0  0  0
   23.9293   18.1550  -13.7805 H   0  0  0  0  0  0  0  0  0  0  0  0
   25.0042   16.3178  -14.8564 H   0  0  0  0  0  0  0  0  0  0  0  0
   23.5063   15.7264  -14.0141 H   0  0  0  0  0  0  0  0  0  0  0  0
   24.9394   14.7749  -12.2736 H   0  0  0  0  0  0  0  0  0  0  0  0
   26.1908   13.0114  -12.2978 H   0  0  0  0  0  0  0  0  0  0  0  0
   28.5498   13.1191  -11.3481 H   0  0  0  0  0  0  0  0  0  0  0  0
   27.7288   14.4164   -9.7118 H   0  0  0  0  0  0  0  0  0  0  0  0
   27.6870   15.8623  -10.7767 H   0  0  0  0  0  0  0  0  0  0  0  0
   26.3117   14.7068  -10.7767 H   0  0  0  0  0  0  0  0  0  0  0  0
   29.8485   15.2388  -11.6881 H   0  0  0  0  0  0  0  0  0  0  0  0
   29.8116   14.1176  -13.0911 H   0  0  0  0  0  0  0  0  0  0  0  0
   28.7833   15.5905  -13.0911 H   0  0  0  0  0  0  0  0  0  0  0  0
   28.7146   12.3745  -13.5533 H   0  0  0  0  0  0  0  0  0  0  0  0
   26.7268    8.9888  -15.7778 H   0  0  0  0  0  0  0  0  0  0  0  0
   26.6449   10.4769  -16.7806 H   0  0  0  0  0  0  0  0  0  0  0  0
   28.1357    9.4748  -16.7806 H   0  0  0  0  0  0  0  0  0  0  0  0
   29.3580    9.2227  -14.7675 H   0  0  0  0  0  0  0  0  0  0  0  0
   29.2417   10.5882  -13.5394 H   0  0  0  0  0  0  0  0  0  0  0  0
   30.7900    9.5016  -16.8133 H   0  0  0  0  0  0  0  0  0  0  0  0
   32.3427   14.5839  -16.6898 H   0  0  0  0  0  0  0  0  0  0  0  0
   34.3827   13.6126  -14.6533 H   0  0  0  0  0  0  0  0  0  0  0  0
   34.2342   12.7247  -16.2077 H   0  0  0  0  0  0  0  0  0  0  0  0
   34.6504   14.4721  -16.2077 H   0  0  0  0  0  0  0  0  0  0  0  0
   32.5089   14.2573  -13.6372 H   0  0  0  0  0  0  0  0  0  0  0  0
   32.9402   15.7535  -14.5327 H   0  0  0  0  0  0  0  0  0  0  0  0
   31.2432   15.1644  -14.5327 H   0  0  0  0  0  0  0  0  0  0  0  0
 31 30  1  0
 31 32  1  0
 30 28  2  0
 26 25  1  0
 33 32  1  0
 33 34  1  0
 33 35  1  0
 32 29  2  0
 28 29  1  0
 28 27  1  0
 25 27  1  0
 25 23  1  0
 24 23  2  0
 17 16  2  0
 23 22  1  0
 14 15  1  0
 14 13  1  0
 22 18  1  0
 16 15  1  0
 16 18  1  0
 13 12  1  0
 18 19  1  0
  1  2  2  0
  4  3  1  0
  4  5  1  0
 21 19  1  0
 12 11  1  0
 19 20  1  0
  2  3  1  0
  2 10  1  0
  9  5  2  0
  9  8  1  0
  5  6  1  0
 11 10  1  0
  8  7  2  0
  6  7  1  0
  4 36  1  0
  4 37  1  0
  7 38  1  0
  9 39  1  0
 10 40  1  0
 11 41  1  0
 11 42  1  0
 12 43  1  0
 12 44  1  0
 13 45  1  0
 13 46  1  0
 14 47  1  0
 14 48  1  0
 15 49  1  0
 18 50  1  0
 19 51  1  0
 20 52  1  0
 20 53  1  0
 20 54  1  0
 21 55  1  0
 21 56  1  0
 21 57  1  0
 22 58  1  0
 26 59  1  0
 26 60  1  0
 26 61  1  0
 27 62  1  0
 27 63  1  0
 30 64  1  0
 33 65  1  0
 34 66  1  0
 34 67  1  0
 34 68  1  0
 35 69  1  0
 35 70  1  0
 35 71  1  0
A    1
O23
A    2
C22
A    3
O24
A    4
C25
A    5
C26
A    6
S30
A    7
C29
A    8
N28
A    9
C27
A   10
N21
A   11
C20
A   12
C19
A   13
C18
A   14
C17
A   15
N16
A   16
C14
A   17
O15
A   18
C13
A   19
C31
A   20
C33
A   21
C32
A   22
N12
A   23
C10
A   24
O11
A   25
N08
A   26
C09
A   27
C07
A   28
C06
A   29
N05
A   30
C34
A   31
S35
A   32
C04
A   33
C02
A   34
C03
A   35
C01
M  END
