4K9Y_K9Y_A_701
     RDKit          3D

 63 67  0  0  0  0  0  0  0  0999 V2000
  -28.9920  -30.8790    9.2530 C   0  0  0  0  0  0  0  0  0  0  0  0
  -28.3570  -30.7960    8.0980 N   0  0  0  0  0  0  0  0  0  0  0  0
  -27.9110  -31.8900    7.4740 C   0  0  0  0  0  0  0  0  0  0  0  0
  -28.1370  -33.1700    8.0430 C   0  0  0  0  0  0  0  0  0  0  0  0
  -28.8230  -33.2120    9.2750 C   0  0  0  0  0  0  0  0  0  0  0  0
  -29.2010  -32.0540    9.8360 N   0  0  0  0  0  0  0  0  0  0  0  0
  -27.5860  -34.0950    7.2120 N   0  0  0  0  0  0  0  0  0  0  0  0
  -27.2560  -32.1210    6.2950 N   0  0  0  0  0  0  0  0  0  0  0  0
  -27.0430  -33.4820    6.1950 C   0  0  0  0  0  0  0  0  0  0  0  0
  -26.5330  -29.0100    4.3790 C   0  0  0  0  0  0  0  0  0  0  0  0
  -25.1470  -29.1540    4.2340 C   0  0  0  0  0  0  0  0  0  0  0  0
  -24.5140  -30.3230    4.6740 C   0  0  0  0  0  0  0  0  0  0  0  0
  -25.2630  -31.2740    5.3480 C   0  0  0  0  0  0  0  0  0  0  0  0
  -26.6440  -31.1320    5.5100 C   0  0  0  0  0  0  0  0  0  0  0  0
  -27.2830  -29.9840    5.0410 C   0  0  0  0  0  0  0  0  0  0  0  0
  -20.7620  -25.7080    1.9370 N   0  0  0  0  0  0  0  0  0  0  0  0
  -21.2830  -26.8890    2.3700 C   0  0  0  0  0  0  0  0  0  0  0  0
  -20.2910  -27.8290    2.3370 C   0  0  0  0  0  0  0  0  0  0  0  0
  -19.1070  -27.1840    1.9880 C   0  0  0  0  0  0  0  0  0  0  0  0
  -19.4050  -25.9340    1.7240 N   0  0  0  0  0  0  0  0  0  0  0  0
  -17.7520  -27.8270    1.7930 C   0  0  0  0  0  0  0  0  0  0  0  0
  -21.4300  -24.4800    1.7160 C   0  0  0  0  0  0  0  0  0  0  0  0
  -21.0720  -23.7580    0.5780 C   0  0  0  0  0  0  0  0  0  0  0  0
  -21.6740  -22.5400    0.3010 C   0  0  0  0  0  0  0  0  0  0  0  0
  -22.6870  -22.0680    1.1410 C   0  0  0  0  0  0  0  0  0  0  0  0
  -23.0820  -22.7990    2.2710 C   0  0  0  0  0  0  0  0  0  0  0  0
  -22.4250  -23.9920    2.5800 C   0  0  0  0  0  0  0  0  0  0  0  0
  -23.3740  -20.7630    0.7860 C   0  0  0  0  0  0  0  0  0  0  0  0
  -22.6320  -27.1280    2.6150 N   0  0  0  0  0  0  0  0  0  0  0  0
  -23.0950  -28.0790    3.4350 C   0  0  0  0  0  0  0  0  0  0  0  0
  -22.3350  -28.8050    4.0720 O   0  0  0  0  0  0  0  0  0  0  0  0
  -24.4490  -28.2040    3.4900 N   0  0  0  0  0  0  0  0  0  0  0  0
  -17.8420  -28.8120    0.6280 C   0  0  0  0  0  0  0  0  0  0  0  0
  -16.7370  -26.7570    1.3860 C   0  0  0  0  0  0  0  0  0  0  0  0
  -17.2440  -28.5970    3.0140 C   0  0  0  0  0  0  0  0  0  0  0  0
  -28.9930  -34.4050    9.9540 N   0  0  0  0  0  0  0  0  0  0  0  0
  -29.3533  -29.9610    9.7396 H   0  0  0  0  0  0  0  0  0  0  0  0
  -26.4963  -33.9767    5.3787 H   0  0  0  0  0  0  0  0  0  0  0  0
  -27.0348  -28.1217    3.9677 H   0  0  0  0  0  0  0  0  0  0  0  0
  -23.4418  -30.4833    4.4879 H   0  0  0  0  0  0  0  0  0  0  0  0
  -24.7602  -32.1594    5.7644 H   0  0  0  0  0  0  0  0  0  0  0  0
  -28.3642  -29.8479    5.1909 H   0  0  0  0  0  0  0  0  0  0  0  0
  -20.4071  -28.9023    2.5482 H   0  0  0  0  0  0  0  0  0  0  0  0
  -20.3071  -24.1573   -0.1043 H   0  0  0  0  0  0  0  0  0  0  0  0
  -21.3573  -21.9503   -0.5719 H   0  0  0  0  0  0  0  0  0  0  0  0
  -23.9019  -22.4359    2.9081 H   0  0  0  0  0  0  0  0  0  0  0  0
  -22.6848  -24.5462    3.4940 H   0  0  0  0  0  0  0  0  0  0  0  0
  -23.6531  -20.2328    1.7085 H   0  0  0  0  0  0  0  0  0  0  0  0
  -22.6888  -20.1366    0.1960 H   0  0  0  0  0  0  0  0  0  0  0  0
  -24.2783  -20.9733    0.1960 H   0  0  0  0  0  0  0  0  0  0  0  0
  -23.3205  -26.5328    2.1327 H   0  0  0  0  0  0  0  0  0  0  0  0
  -25.0060  -27.5395    2.9341 H   0  0  0  0  0  0  0  0  0  0  0  0
  -17.9355  -29.8356    1.0197 H   0  0  0  0  0  0  0  0  0  0  0  0
  -18.7220  -28.5730    0.0129 H   0  0  0  0  0  0  0  0  0  0  0  0
  -16.9332  -28.7364    0.0129 H   0  0  0  0  0  0  0  0  0  0  0  0
  -16.3039  -26.3004    2.2882 H   0  0  0  0  0  0  0  0  0  0  0  0
  -15.9371  -27.2188    0.7886 H   0  0  0  0  0  0  0  0  0  0  0  0
  -17.2403  -25.9825    0.7886 H   0  0  0  0  0  0  0  0  0  0  0  0
  -17.5780  -28.0908    3.9317 H   0  0  0  0  0  0  0  0  0  0  0  0
  -17.6441  -29.6214    2.9940 H   0  0  0  0  0  0  0  0  0  0  0  0
  -16.1447  -28.6322    2.9940 H   0  0  0  0  0  0  0  0  0  0  0  0
  -28.9945  -34.4157   10.9839 H   0  0  0  0  0  0  0  0  0  0  0  0
  -29.1181  -35.2827    9.4297 H   0  0  0  0  0  0  0  0  0  0  0  0
 24 23  2  0
 24 25  1  0
 23 22  1  0
 33 21  1  0
 28 25  1  0
 25 26  2  0
 34 21  1  0
 22 16  1  0
 22 27  2  0
 20 16  1  0
 20 19  2  0
 21 19  1  0
 21 35  1  0
 16 17  1  0
 19 18  1  0
 26 27  1  0
 18 17  2  0
 17 29  1  0
 29 30  1  0
 30 32  1  0
 30 31  2  0
 32 11  1  0
 11 10  2  0
 11 12  1  0
 10 15  1  0
 12 13  2  0
 15 14  2  0
 13 14  1  0
 14  8  1  0
  9  8  1  0
  9  7  2  0
  8  3  1  0
  7  4  1  0
  3  4  2  0
  3  2  1  0
  4  5  1  0
  2  1  2  0
  1  6  1  0
  5  6  2  0
  5 36  1  0
  1 37  1  0
  9 38  1  0
 10 39  1  0
 12 40  1  0
 13 41  1  0
 15 42  1  0
 18 43  1  0
 23 44  1  0
 24 45  1  0
 26 46  1  0
 27 47  1  0
 28 48  1  0
 28 49  1  0
 28 50  1  0
 29 51  1  0
 32 52  1  0
 33 53  1  0
 33 54  1  0
 33 55  1  0
 34 56  1  0
 34 57  1  0
 34 58  1  0
 35 59  1  0
 35 60  1  0
 35 61  1  0
 36 62  1  0
 36 63  1  0
A    1
C1
A    2
N2
A    3
C3
A    4
C4
A    5
C5
A    6
N6
A    7
N7
A    8
N8
A    9
C9
A   10
C10
A   11
C11
A   12
C12
A   13
C13
A   14
C14
A   15
C15
A   16
N16
A   17
C17
A   18
C18
A   19
C19
A   20
N20
A   21
C21
A   22
C22
A   23
C23
A   24
C24
A   25
C25
A   26
C26
A   27
C27
A   28
C28
A   29
N29
A   30
C30
A   31
O31
A   32
N32
A   33
C33
A   34
C34
A   35
C35
A   36
N36
M  END
