4KAC_1Q9_A_401
     RDKit          3D

 35 36  0  0  0  0  0  0  0  0999 V2000
   18.3500   -9.0450    3.0090 C   0  0  0  0  0  0  0  0  0  0  0  0
   20.6670   -9.8570    3.2680 C   0  0  0  0  0  0  0  0  0  0  0  0
   17.7330  -10.3500    3.2780 N   0  0  0  0  0  0  0  0  0  0  0  0
   23.3370  -12.1540    3.6280 C   0  0  0  0  0  0  0  0  0  0  0  0
   23.3600  -10.7360    3.7420 O   0  0  0  0  0  0  0  0  0  0  0  0
   24.7590  -12.5800    3.3030 C   0  0  0  0  0  0  0  0  0  0  0  0
   17.3450   -8.0740    2.7660 N   0  0  0  0  0  0  0  0  0  0  0  0
   16.1890   -8.6600    2.8690 N   0  0  0  0  0  0  0  0  0  0  0  0
   16.4220  -10.1640    3.2020 N   0  0  0  0  0  0  0  0  0  0  0  0
   19.7090   -8.7960    2.9850 N   0  0  0  0  0  0  0  0  0  0  0  0
   21.3650   -9.6840    4.5950 C   0  0  0  0  0  0  0  0  0  0  0  0
   20.7110   -9.0780    5.6690 C   0  0  0  0  0  0  0  0  0  0  0  0
   21.3480   -8.9090    6.9030 C   0  0  0  0  0  0  0  0  0  0  0  0
   22.6520   -9.3620    7.0640 C   0  0  0  0  0  0  0  0  0  0  0  0
   23.3330   -9.9760    6.0200 C   0  0  0  0  0  0  0  0  0  0  0  0
   22.6850  -10.1430    4.7770 C   0  0  0  0  0  0  0  0  0  0  0  0
   20.6460   -8.2640    8.0440 C   0  0  0  0  0  0  0  0  0  0  0  0
   24.7340  -10.4350    6.2570 C   0  0  0  0  0  0  0  0  0  0  0  0
   20.1327  -10.8185    3.2759 H   0  0  0  0  0  0  0  0  0  0  0  0
   21.4379   -9.8214    2.4841 H   0  0  0  0  0  0  0  0  0  0  0  0
   18.2208  -11.2333    3.4845 H   0  0  0  0  0  0  0  0  0  0  0  0
   23.0112  -12.6069    4.5760 H   0  0  0  0  0  0  0  0  0  0  0  0
   22.6340  -12.4805    2.8475 H   0  0  0  0  0  0  0  0  0  0  0  0
   25.3146  -12.7464    4.2377 H   0  0  0  0  0  0  0  0  0  0  0  0
   24.7381  -13.5113    2.7180 H   0  0  0  0  0  0  0  0  0  0  0  0
   25.2536  -11.7906    2.7180 H   0  0  0  0  0  0  0  0  0  0  0  0
   20.0490   -7.8491    2.7644 H   0  0  0  0  0  0  0  0  0  0  0  0
   19.6762   -8.7270    5.5428 H   0  0  0  0  0  0  0  0  0  0  0  0
   23.1535   -9.2323    8.0344 H   0  0  0  0  0  0  0  0  0  0  0  0
   21.0589   -8.6434    8.9903 H   0  0  0  0  0  0  0  0  0  0  0  0
   20.7875   -7.1743    7.9929 H   0  0  0  0  0  0  0  0  0  0  0  0
   19.5722   -8.4971    7.9929 H   0  0  0  0  0  0  0  0  0  0  0  0
   24.9216  -10.4965    7.3391 H   0  0  0  0  0  0  0  0  0  0  0  0
   24.8766  -11.4268    5.8032 H   0  0  0  0  0  0  0  0  0  0  0  0
   25.4359   -9.7198    5.8032 H   0  0  0  0  0  0  0  0  0  0  0  0
  1  3  1  0
  1  7  2  0
  1 10  1  0
  2 10  1  0
  2 11  1  0
  3  9  1  0
  4  5  1  0
  4  6  1  0
  5 16  1  0
  7  8  1  0
  8  9  2  0
 11 12  2  0
 11 16  1  0
 12 13  1  0
 13 14  2  0
 14 15  1  0
 15 16  2  0
 13 17  1  0
 15 18  1  0
  2 19  1  0
  2 20  1  0
  3 21  1  0
  4 22  1  0
  4 23  1  0
  6 24  1  0
  6 25  1  0
  6 26  1  0
 10 27  1  0
 12 28  1  0
 14 29  1  0
 17 30  1  0
 17 31  1  0
 17 32  1  0
 18 33  1  0
 18 34  1  0
 18 35  1  0
A    1
C1
A    2
C2
A    3
N1
A    4
C3
A    5
O1
A    6
C4
A    7
N3
A    8
N4
A    9
N5
A   10
N6
A   11
CG
A   12
CD1
A   13
CE1
A   14
CZ
A   15
CE2
A   16
CD2
A   17
CL1
A   18
CL2
M  END
