4KB7_690_A_601
     RDKit          3D

 68 73  0  0  0  0  0  0  0  0999 V2000
    6.2950   43.5230   55.2640 O   0  0  0  0  0  0  0  0  0  0  0  0
    6.2080   44.2960   54.0560 S   0  0  0  0  0  0  0  0  0  0  0  0
    4.8150   44.5100   53.7770 O   0  0  0  0  0  0  0  0  0  0  0  0
    6.9260   45.7600   54.3020 C   0  0  0  0  0  0  0  0  0  0  0  0
    6.9440   43.4090   52.9070 N   0  0  0  0  0  0  0  0  0  0  0  0
    6.0230   42.9840   51.8990 C   0  0  0  0  0  0  0  0  0  0  0  0
    5.4220   41.7580   52.2010 C   0  0  0  0  0  0  0  0  0  0  0  0
    4.5230   41.1970   51.3220 C   0  0  0  0  0  0  0  0  0  0  0  0
    3.8990   40.0510   51.5160 O   0  0  0  0  0  0  0  0  0  0  0  0
    5.7040   43.6440   50.6820 C   0  0  0  0  0  0  0  0  0  0  0  0
    6.3270   44.9570   50.3200 C   0  0  0  0  0  0  0  0  0  0  0  0
    5.6900   45.8420   49.2440 C   0  0  0  0  0  0  0  0  0  0  0  0
    6.9500   45.0400   48.9290 C   0  0  0  0  0  0  0  0  0  0  0  0
    4.7830   43.0470   49.7990 C   0  0  0  0  0  0  0  0  0  0  0  0
    4.2150   41.8290   50.1450 C   0  0  0  0  0  0  0  0  0  0  0  0
    3.2290   40.8950   49.5430 C   0  0  0  0  0  0  0  0  0  0  0  0
    2.6230   41.1750   48.2100 C   0  0  0  0  0  0  0  0  0  0  0  0
    2.7240   40.2230   47.2770 N   0  0  0  0  0  0  0  0  0  0  0  0
    2.1850   40.3770   45.9380 C   0  0  0  0  0  0  0  0  0  0  0  0
    2.0870   42.2480   47.9950 O   0  0  0  0  0  0  0  0  0  0  0  0
    3.0730   39.7310   50.4710 C   0  0  0  0  0  0  0  0  0  0  0  0
    2.2130   38.5260   50.4190 C   0  0  0  0  0  0  0  0  0  0  0  0
    1.0520   38.5040   49.6500 C   0  0  0  0  0  0  0  0  0  0  0  0
    0.2470   37.3680   49.6520 C   0  0  0  0  0  0  0  0  0  0  0  0
    2.5440   37.4400   51.2200 C   0  0  0  0  0  0  0  0  0  0  0  0
    1.7380   36.3100   51.2240 C   0  0  0  0  0  0  0  0  0  0  0  0
    0.5910   36.2730   50.4380 C   0  0  0  0  0  0  0  0  0  0  0  0
   -0.1870   35.1800   50.4480 F   0  0  0  0  0  0  0  0  0  0  0  0
    8.2230   43.9370   52.3380 C   0  0  0  0  0  0  0  0  0  0  0  0
    9.4110   43.1200   52.8370 C   0  0  0  0  0  0  0  0  0  0  0  0
   10.7220   43.3680   52.0760 C   0  0  0  0  0  0  0  0  0  0  0  0
   10.5460   43.8450   50.7290 O   0  0  0  0  0  0  0  0  0  0  0  0
   11.4120   44.9570   50.4360 B   0  0  0  0  0  0  0  0  0  0  0  0
   12.3440   44.8620   49.2220 O   0  0  0  0  0  0  0  0  0  0  0  0
   12.0000   45.3170   51.7500 C   0  0  0  0  0  0  0  0  0  0  0  0
   12.8300   46.3840   52.0740 C   0  0  0  0  0  0  0  0  0  0  0  0
   13.2570   46.5060   53.4000 C   0  0  0  0  0  0  0  0  0  0  0  0
   12.8480   45.5750   54.3630 C   0  0  0  0  0  0  0  0  0  0  0  0
   12.0110   44.5150   54.0070 C   0  0  0  0  0  0  0  0  0  0  0  0
   11.5900   44.4080   52.6840 C   0  0  0  0  0  0  0  0  0  0  0  0
    7.0175   45.9466   55.3822 H   0  0  0  0  0  0  0  0  0  0  0  0
    7.9261   45.7595   53.8440 H   0  0  0  0  0  0  0  0  0  0  0  0
    6.3133   46.5505   53.8440 H   0  0  0  0  0  0  0  0  0  0  0  0
    5.6675   41.2418   53.1408 H   0  0  0  0  0  0  0  0  0  0  0  0
    6.6469   45.1417   51.3561 H   0  0  0  0  0  0  0  0  0  0  0  0
    5.7421   46.9374   49.3305 H   0  0  0  0  0  0  0  0  0  0  0  0
    4.6883   45.9254   48.7973 H   0  0  0  0  0  0  0  0  0  0  0  0
    6.8959   44.1760   48.2504 H   0  0  0  0  0  0  0  0  0  0  0  0
    7.9490   45.2849   48.5390 H   0  0  0  0  0  0  0  0  0  0  0  0
    4.5184   43.5381   48.8509 H   0  0  0  0  0  0  0  0  0  0  0  0
    3.2040   39.3441   47.5181 H   0  0  0  0  0  0  0  0  0  0  0  0
    1.1290   40.6787   46.0003 H   0  0  0  0  0  0  0  0  0  0  0  0
    2.7555   41.1481   45.3995 H   0  0  0  0  0  0  0  0  0  0  0  0
    2.2620   39.4209   45.3995 H   0  0  0  0  0  0  0  0  0  0  0  0
    0.7727   39.3789   49.0446 H   0  0  0  0  0  0  0  0  0  0  0  0
   -0.6611   37.3364   49.0320 H   0  0  0  0  0  0  0  0  0  0  0  0
    3.4445   37.4758   51.8507 H   0  0  0  0  0  0  0  0  0  0  0  0
    2.0060   35.4447   51.8480 H   0  0  0  0  0  0  0  0  0  0  0  0
    8.3502   44.9852   52.6463 H   0  0  0  0  0  0  0  0  0  0  0  0
    8.1792   43.8653   51.2412 H   0  0  0  0  0  0  0  0  0  0  0  0
    9.1571   42.0537   52.7448 H   0  0  0  0  0  0  0  0  0  0  0  0
    9.5898   43.4324   53.8764 H   0  0  0  0  0  0  0  0  0  0  0  0
   11.1727   42.3652   52.1113 H   0  0  0  0  0  0  0  0  0  0  0  0
   13.2797   44.7666   49.5310 H   0  0  0  0  0  0  0  0  0  0  0  0
   13.1418   47.1111   51.3097 H   0  0  0  0  0  0  0  0  0  0  0  0
   13.9173   47.3372   53.6881 H   0  0  0  0  0  0  0  0  0  0  0  0
   13.1874   45.6790   55.4042 H   0  0  0  0  0  0  0  0  0  0  0  0
   11.6902   43.7781   54.7581 H   0  0  0  0  0  0  0  0  0  0  0  0
 19 18  1  0
 18 17  1  0
 20 17  2  0
 17 16  1  0
 13 12  1  0
 13 11  1  0
 34 33  1  0
 12 11  1  0
 16 15  1  0
 16 21  2  0
 23 24  2  0
 23 22  1  0
 24 27  1  0
 14 15  2  0
 14 10  1  0
 15  8  1  0
 11 10  1  0
 22 21  1  0
 22 25  2  0
 33 32  1  0
 33 35  1  0
 27 28  1  0
 27 26  2  0
 21  9  1  0
 10  6  2  0
 32 31  1  0
 25 26  1  0
  8  9  1  0
  8  7  2  0
 35 36  2  0
 35 40  1  0
  6  7  1  0
  6  5  1  0
 36 37  1  0
 31 40  1  0
 31 30  1  0
 29 30  1  0
 29  5  1  0
 40 39  2  0
  5  2  1  0
 37 38  2  0
  3  2  2  0
 39 38  1  0
  2  4  1  0
  2  1  2  0
  4 41  1  0
  4 42  1  0
  4 43  1  0
  7 44  1  0
 11 45  1  0
 12 46  1  0
 12 47  1  0
 13 48  1  0
 13 49  1  0
 14 50  1  0
 18 51  1  0
 19 52  1  0
 19 53  1  0
 19 54  1  0
 23 55  1  0
 24 56  1  0
 25 57  1  0
 26 58  1  0
 29 59  1  0
 29 60  1  0
 30 61  1  0
 30 62  1  0
 31 63  1  0
 34 64  1  0
 36 65  1  0
 37 66  1  0
 38 67  1  0
 39 68  1  0
A    1
O27
A    2
S24
A    3
O26
A    4
C25
A    5
N11
A    6
C10
A    7
C9
A    8
C8
A    9
O7
A   10
C28
A   11
C31
A   12
C32
A   13
C33
A   14
C29
A   15
C30
A   16
C5
A   17
C3
A   18
N2
A   19
C1
A   20
O4
A   21
C6
A   22
C34
A   23
C35
A   24
C36
A   25
C40
A   26
C39
A   27
C37
A   28
F38
A   29
C12
A   30
C13
A   31
C14
A   32
O15
A   33
B16
A   34
O17
A   35
C18
A   36
C19
A   37
C20
A   38
C21
A   39
C22
A   40
C23
M  END
