4KBA_1QM_A_401
     RDKit          3D

 41 44  0  0  0  0  0  0  0  0999 V2000
   -6.4420    0.5270    9.0030 N   0  0  0  0  0  0  0  0  0  0  0  0
   -6.1520   -1.2490   10.3160 C   0  0  0  0  0  0  0  0  0  0  0  0
   -7.5490   -0.2390    8.7920 N   0  0  0  0  0  0  0  0  0  0  0  0
   -9.0710   -2.7430    8.4930 C   0  0  0  0  0  0  0  0  0  0  0  0
   -8.4460   -2.3250    9.6670 C   0  0  0  0  0  0  0  0  0  0  0  0
  -10.5770   -4.0750    9.7980 C   0  0  0  0  0  0  0  0  0  0  0  0
   -6.2610    1.8110    8.3180 C   0  0  0  0  0  0  0  0  0  0  0  0
  -10.1360   -3.6320    8.5480 C   0  0  0  0  0  0  0  0  0  0  0  0
   -3.6360   -2.6170   14.4610 C   0  0  0  0  0  0  0  0  0  0  0  0
   -3.0850   -0.3760   12.4400 C   0  0  0  0  0  0  0  0  0  0  0  0
   -5.6050   -2.2380   11.2070 C   0  0  0  0  0  0  0  0  0  0  0  0
   -5.8890   -3.5860   10.9810 C   0  0  0  0  0  0  0  0  0  0  0  0
   -5.3850   -4.5430   11.8630 C   0  0  0  0  0  0  0  0  0  0  0  0
   -4.6590   -4.2450   12.9620 N   0  0  0  0  0  0  0  0  0  0  0  0
   -7.3910   -1.3310    9.6000 C   0  0  0  0  0  0  0  0  0  0  0  0
   -9.9510   -3.6720   10.9820 C   0  0  0  0  0  0  0  0  0  0  0  0
   -8.8740   -2.8030   10.9050 C   0  0  0  0  0  0  0  0  0  0  0  0
  -11.6140   -4.9010    9.8710 F   0  0  0  0  0  0  0  0  0  0  0  0
   -5.5710   -0.0410    9.9260 C   0  0  0  0  0  0  0  0  0  0  0  0
   -4.3880   -2.9390   13.1870 C   0  0  0  0  0  0  0  0  0  0  0  0
   -4.7960   -1.9250   12.3080 C   0  0  0  0  0  0  0  0  0  0  0  0
   -4.4730   -0.6190   12.5580 O   0  0  0  0  0  0  0  0  0  0  0  0
   -2.3220   -2.0120   14.2230 N   0  0  0  0  0  0  0  0  0  0  0  0
   -2.3720   -0.6150   13.7840 C   0  0  0  0  0  0  0  0  0  0  0  0
   -8.7195   -2.3675    7.5207 H   0  0  0  0  0  0  0  0  0  0  0  0
   -6.1481    2.6117    9.0637 H   0  0  0  0  0  0  0  0  0  0  0  0
   -5.3602    1.7668    7.6882 H   0  0  0  0  0  0  0  0  0  0  0  0
   -7.1389    2.0176    7.6882 H   0  0  0  0  0  0  0  0  0  0  0  0
  -10.6233   -3.9809    7.6256 H   0  0  0  0  0  0  0  0  0  0  0  0
   -4.2404   -1.9159   15.0552 H   0  0  0  0  0  0  0  0  0  0  0  0
   -3.4658   -3.5678   14.9874 H   0  0  0  0  0  0  0  0  0  0  0  0
   -2.6634   -1.0532   11.6826 H   0  0  0  0  0  0  0  0  0  0  0  0
   -2.9345    0.6722   12.1424 H   0  0  0  0  0  0  0  0  0  0  0  0
   -6.5017   -3.8898   10.1194 H   0  0  0  0  0  0  0  0  0  0  0  0
   -5.5913   -5.6024   11.6505 H   0  0  0  0  0  0  0  0  0  0  0  0
  -10.3069   -4.0380   11.9564 H   0  0  0  0  0  0  0  0  0  0  0  0
   -8.3554   -2.4895   11.8231 H   0  0  0  0  0  0  0  0  0  0  0  0
   -4.6164    0.3772   10.2780 H   0  0  0  0  0  0  0  0  0  0  0  0
   -1.8407   -2.5613   13.4967 H   0  0  0  0  0  0  0  0  0  0  0  0
   -1.3384   -0.2503   13.6907 H   0  0  0  0  0  0  0  0  0  0  0  0
   -2.9605   -0.0773   14.5420 H   0  0  0  0  0  0  0  0  0  0  0  0
  7  1  1  0
  4  8  2  0
  4  5  1  0
  8  6  1  0
  3  1  1  0
  3 15  2  0
  1 19  1  0
 15  5  1  0
 15  2  1  0
  5 17  2  0
  6 18  1  0
  6 16  2  0
 19  2  2  0
  2 11  1  0
 17 16  1  0
 12 11  2  0
 12 13  1  0
 11 21  1  0
 13 14  2  0
 21 22  1  0
 21 20  2  0
 10 22  1  0
 10 24  1  0
 14 20  1  0
 20  9  1  0
 24 23  1  0
 23  9  1  0
  4 25  1  0
  7 26  1  0
  7 27  1  0
  7 28  1  0
  8 29  1  0
  9 30  1  0
  9 31  1  0
 10 32  1  0
 10 33  1  0
 12 34  1  0
 13 35  1  0
 16 36  1  0
 17 37  1  0
 19 38  1  0
 23 39  1  0
 24 40  1  0
 24 41  1  0
A    1
N3
A    2
C4
A    3
N2
A    4
C7
A    5
C6
A    6
C9
A    7
C13
A    8
C8
A    9
C18
A   10
C16
A   11
C1
A   12
C2
A   13
C3
A   14
N1
A   15
C5
A   16
C10
A   17
C11
A   18
F1
A   19
C12
A   20
C14
A   21
C15
A   22
O1
A   23
N4
A   24
C17
M  END
