4KBK_1QG_A_401
     RDKit          3D

 44 47  0  0  0  0  0  0  0  0999 V2000
   21.9270   21.9230  -51.4410 N   0  0  0  0  0  0  0  0  0  0  0  0
   21.5980   24.8690  -47.1080 C   0  0  0  0  0  0  0  0  0  0  0  0
   20.8480   25.3820  -46.0840 N   0  0  0  0  0  0  0  0  0  0  0  0
   25.1540   25.3630  -46.0740 C   0  0  0  0  0  0  0  0  0  0  0  0
   23.8040   25.0460  -46.0300 C   0  0  0  0  0  0  0  0  0  0  0  0
   24.9430   25.8310  -48.4640 C   0  0  0  0  0  0  0  0  0  0  0  0
   22.7110   22.0100  -50.3460 C   0  0  0  0  0  0  0  0  0  0  0  0
   25.7090   25.7540  -47.2950 C   0  0  0  0  0  0  0  0  0  0  0  0
   17.4060   22.7890  -53.9690 C   0  0  0  0  0  0  0  0  0  0  0  0
   19.8860   22.4450  -52.6390 C   0  0  0  0  0  0  0  0  0  0  0  0
   18.6420   23.6270  -54.3480 C   0  0  0  0  0  0  0  0  0  0  0  0
   18.4440   25.4500  -45.5210 C   0  0  0  0  0  0  0  0  0  0  0  0
   19.5630   25.0210  -46.3650 N   0  0  0  0  0  0  0  0  0  0  0  0
   19.4600   24.2920  -47.5440 C   0  0  0  0  0  0  0  0  0  0  0  0
   20.7630   24.1670  -48.0320 C   0  0  0  0  0  0  0  0  0  0  0  0
   23.0250   25.1270  -47.1830 C   0  0  0  0  0  0  0  0  0  0  0  0
   23.5960   25.5110  -48.3960 C   0  0  0  0  0  0  0  0  0  0  0  0
   27.0000   26.0600  -47.3490 F   0  0  0  0  0  0  0  0  0  0  0  0
   21.1610   23.4280  -49.2000 C   0  0  0  0  0  0  0  0  0  0  0  0
   22.3730   22.7430  -49.2060 C   0  0  0  0  0  0  0  0  0  0  0  0
   20.7470   22.5980  -51.4080 C   0  0  0  0  0  0  0  0  0  0  0  0
   20.3280   23.3640  -50.3200 C   0  0  0  0  0  0  0  0  0  0  0  0
   18.5820   21.7060  -52.2670 C   0  0  0  0  0  0  0  0  0  0  0  0
   17.7840   21.5570  -53.4130 O   0  0  0  0  0  0  0  0  0  0  0  0
   19.4940   23.7810  -53.1470 N   0  0  0  0  0  0  0  0  0  0  0  0
   25.7740   25.3077  -45.1670 H   0  0  0  0  0  0  0  0  0  0  0  0
   23.3465   24.7294  -45.0811 H   0  0  0  0  0  0  0  0  0  0  0  0
   25.4001   26.1388  -49.4160 H   0  0  0  0  0  0  0  0  0  0  0  0
   23.6710   21.4730  -50.3515 H   0  0  0  0  0  0  0  0  0  0  0  0
   16.8046   22.6067  -54.8718 H   0  0  0  0  0  0  0  0  0  0  0  0
   16.8213   23.3457  -53.2219 H   0  0  0  0  0  0  0  0  0  0  0  0
   20.4578   21.8885  -53.3962 H   0  0  0  0  0  0  0  0  0  0  0  0
   18.3231   24.6171  -54.7057 H   0  0  0  0  0  0  0  0  0  0  0  0
   19.2063   23.1245  -55.1474 H   0  0  0  0  0  0  0  0  0  0  0  0
   18.7217   25.3435  -44.4620 H   0  0  0  0  0  0  0  0  0  0  0  0
   18.2068   26.5028  -45.7338 H   0  0  0  0  0  0  0  0  0  0  0  0
   17.5638   24.8256  -45.7338 H   0  0  0  0  0  0  0  0  0  0  0  0
   18.5408   23.8949  -47.9994 H   0  0  0  0  0  0  0  0  0  0  0  0
   22.9749   25.5601  -49.3025 H   0  0  0  0  0  0  0  0  0  0  0  0
   23.0461   22.7780  -48.3367 H   0  0  0  0  0  0  0  0  0  0  0  0
   19.3690   23.9024  -50.3431 H   0  0  0  0  0  0  0  0  0  0  0  0
   18.8265   20.7141  -51.8591 H   0  0  0  0  0  0  0  0  0  0  0  0
   18.0336   22.2884  -51.5120 H   0  0  0  0  0  0  0  0  0  0  0  0
   18.9697   24.2846  -52.4174 H   0  0  0  0  0  0  0  0  0  0  0  0
 17  6  2  0
 17 16  1  0
  6  8  1  0
 12 13  1  0
  3 13  1  0
  3  2  2  0
 13 14  1  0
  2 16  1  0
  2 15  1  0
 16  5  2  0
  8 18  1  0
  8  4  2  0
 14 15  2  0
 15 19  1  0
  5  4  1  0
 20 19  2  0
 20  7  1  0
 19 22  1  0
  7  1  2  0
 22 21  2  0
  1 21  1  0
 21 10  1  0
 23 10  1  0
 23 24  1  0
 10 25  1  0
 24  9  1  0
 25 11  1  0
  9 11  1  0
  4 26  1  0
  5 27  1  0
  6 28  1  0
  7 29  1  0
  9 30  1  0
  9 31  1  0
 10 32  1  0
 11 33  1  0
 11 34  1  0
 12 35  1  0
 12 36  1  0
 12 37  1  0
 14 38  1  0
 17 39  1  0
 20 40  1  0
 22 41  1  0
 23 42  1  0
 23 43  1  0
 25 44  1  0
A    1
N3
A    2
C4
A    3
N2
A    4
C7
A    5
C6
A    6
C9
A    7
C13
A    8
C8
A    9
C18
A   10
C16
A   11
C19
A   12
C1
A   13
N1
A   14
C2
A   15
C3
A   16
C5
A   17
C10
A   18
F1
A   19
C11
A   20
C12
A   21
C14
A   22
C15
A   23
C17
A   24
O1
A   25
N4
M  END
