4KC2_WS2_A_403
     RDKit          3D

 45 47  0  0  0  0  0  0  0  0999 V2000
   17.9810   23.6120   11.2450 O   0  0  0  0  0  0  0  0  0  0  0  0
   17.4920   23.5780   10.0860 C   0  0  0  0  0  0  0  0  0  0  0  0
   18.1390   24.1820    9.0760 N   0  0  0  0  0  0  0  0  0  0  0  0
   17.6510   24.1570    7.8260 C   0  0  0  0  0  0  0  0  0  0  0  0
   18.2810   24.7260    6.9120 O   0  0  0  0  0  0  0  0  0  0  0  0
   16.2900   22.9060    9.8430 C   0  0  0  0  0  0  0  0  0  0  0  0
   15.7750   22.8790    8.5430 C   0  0  0  0  0  0  0  0  0  0  0  0
   16.4350   23.4880    7.5410 N   0  0  0  0  0  0  0  0  0  0  0  0
   15.9160   23.4750    6.1610 C   0  0  0  0  0  0  0  0  0  0  0  0
   14.6010   22.9100    6.1140 O   0  0  0  0  0  0  0  0  0  0  0  0
   16.7950   22.5830    5.2920 C   0  0  0  0  0  0  0  0  0  0  0  0
   16.8410   23.0820    3.9440 O   0  0  0  0  0  0  0  0  0  0  0  0
   16.0510   21.2690    5.3080 C   0  0  0  0  0  0  0  0  0  0  0  0
   16.3730   20.4590    4.1750 O   0  0  0  0  0  0  0  0  0  0  0  0
   14.5990   21.7310    5.3050 C   0  0  0  0  0  0  0  0  0  0  0  0
   13.5610   20.7300    5.8190 C   0  0  0  0  0  0  0  0  0  0  0  0
   13.9870   20.0050    7.0040 N   0  0  0  0  0  0  0  0  0  0  0  0
   14.5410   18.7950    6.9210 C   0  0  0  0  0  0  0  0  0  0  0  0
   14.9740   18.3660    5.8580 O   0  0  0  0  0  0  0  0  0  0  0  0
   14.6620   17.9240    8.1420 C   0  0  0  0  0  0  0  0  0  0  0  0
   14.1020   18.3020    9.3660 C   0  0  0  0  0  0  0  0  0  0  0  0
   14.2420   17.4560   10.4700 C   0  0  0  0  0  0  0  0  0  0  0  0
   14.9390   16.2550   10.3330 C   0  0  0  0  0  0  0  0  0  0  0  0
   15.4790   15.9100    9.0930 C   0  0  0  0  0  0  0  0  0  0  0  0
   15.3350   16.7500    8.0370 N   0  0  0  0  0  0  0  0  0  0  0  0
   16.2470   14.6130    8.9180 C   0  0  0  0  0  0  0  0  0  0  0  0
   16.3620   14.3010    7.5280 O   0  0  0  0  0  0  0  0  0  0  0  0
   19.0248   24.6728    9.2639 H   0  0  0  0  0  0  0  0  0  0  0  0
   15.7563   22.4049   10.6640 H   0  0  0  0  0  0  0  0  0  0  0  0
   14.8277   22.3584    8.3391 H   0  0  0  0  0  0  0  0  0  0  0  0
   15.9049   24.5154    5.8041 H   0  0  0  0  0  0  0  0  0  0  0  0
   17.8336   22.5209    5.6491 H   0  0  0  0  0  0  0  0  0  0  0  0
   16.9319   24.0677    3.9599 H   0  0  0  0  0  0  0  0  0  0  0  0
   16.3007   20.6243    6.1636 H   0  0  0  0  0  0  0  0  0  0  0  0
   16.7206   19.5846    4.4826 H   0  0  0  0  0  0  0  0  0  0  0  0
   14.2804   21.8838    4.2633 H   0  0  0  0  0  0  0  0  0  0  0  0
   12.6387   21.2788    6.0603 H   0  0  0  0  0  0  0  0  0  0  0  0
   13.4099   19.9857    5.0232 H   0  0  0  0  0  0  0  0  0  0  0  0
   13.8579   20.4362    7.9305 H   0  0  0  0  0  0  0  0  0  0  0  0
   13.5579   19.2535    9.4592 H   0  0  0  0  0  0  0  0  0  0  0  0
   13.8056   17.7352   11.4403 H   0  0  0  0  0  0  0  0  0  0  0  0
   15.0621   15.5846   11.1964 H   0  0  0  0  0  0  0  0  0  0  0  0
   15.7125   13.8002    9.4315 H   0  0  0  0  0  0  0  0  0  0  0  0
   17.2528   14.7261    9.3488 H   0  0  0  0  0  0  0  0  0  0  0  0
   16.7025   13.3772    7.4242 H   0  0  0  0  0  0  0  0  0  0  0  0
 12 11  1  0
 14 13  1  0
 11 13  1  0
 11  9  1  0
 15 13  1  0
 15 16  1  0
 15 10  1  0
 16 17  1  0
 19 18  2  0
 10  9  1  0
  9  8  1  0
  5  4  2  0
 18 17  1  0
 18 20  1  0
 27 26  1  0
  8  4  1  0
  8  7  1  0
  4  3  1  0
 25 20  1  0
 25 24  2  0
 20 21  2  0
  7  6  2  0
 26 24  1  0
  3  2  1  0
 24 23  1  0
 21 22  1  0
  6  2  1  0
  2  1  2  0
 23 22  2  0
  3 28  1  0
  6 29  1  0
  7 30  1  0
  9 31  1  0
 11 32  1  0
 12 33  1  0
 13 34  1  0
 14 35  1  0
 15 36  1  0
 16 37  1  0
 16 38  1  0
 17 39  1  0
 21 40  1  0
 22 41  1  0
 23 42  1  0
 26 43  1  0
 26 44  1  0
 27 45  1  0
A    1
O4
A    2
C4
A    3
N3
A    4
C2
A    5
O2
A    6
C5
A    7
C6
A    8
N1
A    9
C1'
A   10
O4'
A   11
C2'
A   12
O2'
A   13
C3'
A   14
O3'
A   15
C4'
A   16
C5'
A   17
N11
A   18
C12
A   19
O13
A   20
C14
A   21
C15
A   22
C16
A   23
C17
A   24
C18
A   25
N19
A   26
C20
A   27
O1'
M  END
