4KCK_H45_A_803
     RDKit          3D

 57 60  0  0  0  0  0  0  0  0999 V2000
   -0.4630    0.7200   29.5730 N   0  0  0  0  0  0  0  0  0  0  0  0
    0.6870    0.2080   30.0330 C   0  0  0  0  0  0  0  0  0  0  0  0
    0.6550   -1.0500   30.8460 C   0  0  0  0  0  0  0  0  0  0  0  0
    0.9910   -0.9240   32.5500 S   0  0  0  0  0  0  0  0  0  0  0  0
    0.8180   -2.6210   32.8970 C   0  0  0  0  0  0  0  0  0  0  0  0
    0.5160   -3.2320   31.6720 C   0  0  0  0  0  0  0  0  0  0  0  0
    0.4230   -2.3960   30.5440 C   0  0  0  0  0  0  0  0  0  0  0  0
    1.9010    0.7560   29.8050 N   0  0  0  0  0  0  0  0  0  0  0  0
    2.2880    1.8640   29.0940 C   0  0  0  0  0  0  0  0  0  0  0  0
    3.6540    1.9640   28.7570 C   0  0  0  0  0  0  0  0  0  0  0  0
    4.1440    3.0650   28.0320 C   0  0  0  0  0  0  0  0  0  0  0  0
    3.2350    4.0790   27.6510 C   0  0  0  0  0  0  0  0  0  0  0  0
    1.8810    4.0010   27.9750 C   0  0  0  0  0  0  0  0  0  0  0  0
    1.4110    2.8930   28.6980 C   0  0  0  0  0  0  0  0  0  0  0  0
    5.6350    3.1760   27.6750 C   0  0  0  0  0  0  0  0  0  0  0  0
    6.1400    2.1640   26.6350 C   0  0  0  0  0  0  0  0  0  0  0  0
    7.0160    2.7100   25.5940 N   0  0  0  0  0  0  0  0  0  0  0  0
    7.5640    1.9000   24.5010 C   0  0  0  0  0  0  0  0  0  0  0  0
    9.0750    2.1440   24.4280 C   0  0  0  0  0  0  0  0  0  0  0  0
    9.5050    3.4620   24.3630 C   0  0  0  0  0  0  0  0  0  0  0  0
   10.8560    3.7620   24.2760 C   0  0  0  0  0  0  0  0  0  0  0  0
   11.8040    2.7370   24.2750 C   0  0  0  0  0  0  0  0  0  0  0  0
   11.3900    1.3970   24.3340 C   0  0  0  0  0  0  0  0  0  0  0  0
   10.0230    1.1030   24.4100 C   0  0  0  0  0  0  0  0  0  0  0  0
   12.3310    0.3800   24.3580 N   0  0  0  0  0  0  0  0  0  0  0  0
   13.3830    0.2800   23.5350 C   0  0  0  0  0  0  0  0  0  0  0  0
   14.4110   -0.5160   23.8120 N   0  0  0  0  0  0  0  0  0  0  0  0
   13.4000    1.0520   22.2620 C   0  0  0  0  0  0  0  0  0  0  0  0
   14.9460    1.6410   21.8290 S   0  0  0  0  0  0  0  0  0  0  0  0
   14.4090    2.4210   20.3760 C   0  0  0  0  0  0  0  0  0  0  0  0
   13.0310    2.1830   20.3290 C   0  0  0  0  0  0  0  0  0  0  0  0
   12.4570    1.4200   21.3390 C   0  0  0  0  0  0  0  0  0  0  0  0
   -0.4543    1.5844   29.0129 H   0  0  0  0  0  0  0  0  0  0  0  0
    0.9238   -3.1124   33.8754 H   0  0  0  0  0  0  0  0  0  0  0  0
    0.3585   -4.3180   31.5959 H   0  0  0  0  0  0  0  0  0  0  0  0
    0.1924   -2.7619   29.5326 H   0  0  0  0  0  0  0  0  0  0  0  0
    2.6804    0.2478   30.2468 H   0  0  0  0  0  0  0  0  0  0  0  0
    4.3473    1.1679   29.0663 H   0  0  0  0  0  0  0  0  0  0  0  0
    3.6040    4.9482   27.0868 H   0  0  0  0  0  0  0  0  0  0  0  0
    1.1888    4.7987   27.6676 H   0  0  0  0  0  0  0  0  0  0  0  0
    0.3443    2.8275   28.9586 H   0  0  0  0  0  0  0  0  0  0  0  0
    5.8153    4.1869   27.2805 H   0  0  0  0  0  0  0  0  0  0  0  0
    6.1859    2.9589   28.6020 H   0  0  0  0  0  0  0  0  0  0  0  0
    6.6965    1.3794   27.1686 H   0  0  0  0  0  0  0  0  0  0  0  0
    5.2443    1.7966   26.1127 H   0  0  0  0  0  0  0  0  0  0  0  0
    6.4832    3.4684   25.1447 H   0  0  0  0  0  0  0  0  0  0  0  0
    7.3687    0.8348   24.6941 H   0  0  0  0  0  0  0  0  0  0  0  0
    7.0897    2.1801   23.5488 H   0  0  0  0  0  0  0  0  0  0  0  0
    8.7665    4.2770   24.3807 H   0  0  0  0  0  0  0  0  0  0  0  0
   11.1817    4.8104   24.2076 H   0  0  0  0  0  0  0  0  0  0  0  0
   12.8759    2.9796   24.2280 H   0  0  0  0  0  0  0  0  0  0  0  0
    9.6888    0.0560   24.4558 H   0  0  0  0  0  0  0  0  0  0  0  0
   12.2118   -0.3587   25.0659 H   0  0  0  0  0  0  0  0  0  0  0  0
   15.2074   -0.5739   23.1614 H   0  0  0  0  0  0  0  0  0  0  0  0
   15.0181    2.9802   19.6505 H   0  0  0  0  0  0  0  0  0  0  0  0
   12.4167    2.5900   19.5123 H   0  0  0  0  0  0  0  0  0  0  0  0
   11.3921    1.1490   21.3902 H   0  0  0  0  0  0  0  0  0  0  0  0
  5  4  1  0
  5  6  2  0
  4  3  1  0
  6  7  1  0
  3  7  2  0
  3  2  1  0
  8  2  1  0
  8  9  1  0
  2  1  2  3
  9 10  2  0
  9 14  1  0
 10 11  1  0
 14 13  2  0
 13 12  1  0
 11 12  2  0
 11 15  1  0
 15 16  1  0
 16 17  1  0
 17 18  1  0
 18 19  1  0
 19 24  1  0
 19 20  2  0
 24 23  2  0
 20 21  1  0
 23 25  1  0
 23 22  1  0
 25 26  1  0
 21 22  2  0
 27 26  2  3
 26 28  1  0
 28 29  1  0
 28 32  2  0
 29 30  1  0
 32 31  1  0
 30 31  2  0
  1 33  1  0
  5 34  1  0
  6 35  1  0
  7 36  1  0
  8 37  1  0
 10 38  1  0
 12 39  1  0
 13 40  1  0
 14 41  1  0
 15 42  1  0
 15 43  1  0
 16 44  1  0
 16 45  1  0
 17 46  1  0
 18 47  1  0
 18 48  1  0
 20 49  1  0
 21 50  1  0
 22 51  1  0
 24 52  1  0
 25 53  1  0
 27 54  1  0
 30 55  1  0
 31 56  1  0
 32 57  1  0
A    1
N26
A    2
C26
A    3
C25
A    4
S21
A    5
C22
A    6
C23
A    7
C24
A    8
N27
A    9
C31
A   10
C36
A   11
C35
A   12
C34
A   13
C33
A   14
C32
A   15
C37
A   16
C38
A   17
N18
A   18
C17
A   19
C15
A   20
C14
A   21
C13
A   22
C12
A   23
C11
A   24
C16
A   25
N07
A   26
C06
A   27
N06
A   28
C05
A   29
S01
A   30
C02
A   31
C03
A   32
C04
M  END
