4KCL_H44_A_803
     RDKit          3D

 57 60  0  0  0  0  0  0  0  0999 V2000
   -1.0500    2.2160   28.4760 N   0  0  0  0  0  0  0  0  0  0  0  0
    0.0440    2.3180   29.1020 C   0  0  0  0  0  0  0  0  0  0  0  0
    0.5700    1.1440   29.8910 C   0  0  0  0  0  0  0  0  0  0  0  0
   -0.5780   -0.0260   30.4460 S   0  0  0  0  0  0  0  0  0  0  0  0
    0.5700   -1.0680   31.2310 C   0  0  0  0  0  0  0  0  0  0  0  0
    1.8200   -0.4830   31.0420 C   0  0  0  0  0  0  0  0  0  0  0  0
    1.8330    0.7200   30.3150 C   0  0  0  0  0  0  0  0  0  0  0  0
    0.6940    3.4930   29.0380 N   0  0  0  0  0  0  0  0  0  0  0  0
    1.9200    3.6500   28.4740 C   0  0  0  0  0  0  0  0  0  0  0  0
    2.5790    2.5580   27.8980 C   0  0  0  0  0  0  0  0  0  0  0  0
    3.8360    2.7040   27.3300 C   0  0  0  0  0  0  0  0  0  0  0  0
    4.4520    3.9540   27.3270 C   0  0  0  0  0  0  0  0  0  0  0  0
    3.8000    5.0580   27.8970 C   0  0  0  0  0  0  0  0  0  0  0  0
    2.5340    4.9090   28.4720 C   0  0  0  0  0  0  0  0  0  0  0  0
    5.8240    4.1140   26.7010 C   0  0  0  0  0  0  0  0  0  0  0  0
    6.4120    2.7930   26.2030 C   0  0  0  0  0  0  0  0  0  0  0  0
    7.3690    2.9910   25.1270 N   0  0  0  0  0  0  0  0  0  0  0  0
    7.8930    1.8580   24.3620 C   0  0  0  0  0  0  0  0  0  0  0  0
    9.3870    2.0510   24.3020 C   0  0  0  0  0  0  0  0  0  0  0  0
    9.8270    3.3520   24.3030 C   0  0  0  0  0  0  0  0  0  0  0  0
   11.2130    3.5780   24.2420 C   0  0  0  0  0  0  0  0  0  0  0  0
   12.0700    2.4900   24.2150 C   0  0  0  0  0  0  0  0  0  0  0  0
   11.6160    1.1720   24.2150 C   0  0  0  0  0  0  0  0  0  0  0  0
   10.2500    0.9430   24.2620 C   0  0  0  0  0  0  0  0  0  0  0  0
   12.4900    0.1200   24.1860 N   0  0  0  0  0  0  0  0  0  0  0  0
   13.6070    0.1660   23.4540 C   0  0  0  0  0  0  0  0  0  0  0  0
   14.6750   -0.5400   23.8140 N   0  0  0  0  0  0  0  0  0  0  0  0
   13.6100    1.0350   22.2360 C   0  0  0  0  0  0  0  0  0  0  0  0
   15.1330    1.7450   21.8790 S   0  0  0  0  0  0  0  0  0  0  0  0
   14.5810    2.6300   20.4870 C   0  0  0  0  0  0  0  0  0  0  0  0
   13.2020    2.3290   20.3740 C   0  0  0  0  0  0  0  0  0  0  0  0
   12.6530    1.4670   21.3350 C   0  0  0  0  0  0  0  0  0  0  0  0
   -1.5772    1.3315   28.5011 H   0  0  0  0  0  0  0  0  0  0  0  0
    0.3530   -2.0024   31.7693 H   0  0  0  0  0  0  0  0  0  0  0  0
    2.7413   -0.9352   31.4378 H   0  0  0  0  0  0  0  0  0  0  0  0
    2.7556    1.2786   30.0987 H   0  0  0  0  0  0  0  0  0  0  0  0
    0.2356    4.3231   29.4402 H   0  0  0  0  0  0  0  0  0  0  0  0
    2.0937    1.5708   27.8957 H   0  0  0  0  0  0  0  0  0  0  0  0
    4.3445    1.8367   26.8838 H   0  0  0  0  0  0  0  0  0  0  0  0
    4.2866    6.0445   27.8915 H   0  0  0  0  0  0  0  0  0  0  0  0
    2.0238    5.7746   28.9197 H   0  0  0  0  0  0  0  0  0  0  0  0
    6.5049    4.5392   27.4531 H   0  0  0  0  0  0  0  0  0  0  0  0
    5.7121    4.7739   25.8281 H   0  0  0  0  0  0  0  0  0  0  0  0
    5.5933    2.1562   25.8367 H   0  0  0  0  0  0  0  0  0  0  0  0
    6.9408    2.3197   27.0434 H   0  0  0  0  0  0  0  0  0  0  0  0
    8.1836    3.4640   25.5437 H   0  0  0  0  0  0  0  0  0  0  0  0
    7.4675    1.8525   23.3476 H   0  0  0  0  0  0  0  0  0  0  0  0
    7.6297    0.8989   24.8319 H   0  0  0  0  0  0  0  0  0  0  0  0
    9.1170    4.1909   24.3501 H   0  0  0  0  0  0  0  0  0  0  0  0
   11.6110    4.6031   24.2161 H   0  0  0  0  0  0  0  0  0  0  0  0
   13.1543    2.6738   24.1926 H   0  0  0  0  0  0  0  0  0  0  0  0
    9.8509   -0.0820   24.2679 H   0  0  0  0  0  0  0  0  0  0  0  0
   12.2831   -0.7239   24.7391 H   0  0  0  0  0  0  0  0  0  0  0  0
   14.6422   -1.1293   24.6581 H   0  0  0  0  0  0  0  0  0  0  0  0
   15.1766    3.2844   19.8335 H   0  0  0  0  0  0  0  0  0  0  0  0
   12.5871    2.7532   19.5666 H   0  0  0  0  0  0  0  0  0  0  0  0
   11.5940    1.1715   21.3681 H   0  0  0  0  0  0  0  0  0  0  0  0
 31 30  2  0
 31 32  1  0
 30 29  1  0
 32 28  2  0
 29 28  1  0
 28 26  1  0
 26 27  2  3
 26 25  1  0
 25 23  1  0
 23 22  2  0
 23 24  1  0
 22 21  1  0
 21 20  2  0
 24 19  2  0
 19 20  1  0
 19 18  1  0
 18 17  1  0
 17 16  1  0
 16 15  1  0
 15 12  1  0
 12 11  1  0
 12 13  2  0
 11 10  2  0
 13 14  1  0
 10  9  1  0
 14  9  2  0
  9  8  1  0
  1  2  2  3
  8  2  1  0
  2  3  1  0
  3  7  2  0
  3  4  1  0
  7  6  1  0
  4  5  1  0
  6  5  2  0
  1 33  1  0
  5 34  1  0
  6 35  1  0
  7 36  1  0
  8 37  1  0
 10 38  1  0
 11 39  1  0
 13 40  1  0
 14 41  1  0
 15 42  1  0
 15 43  1  0
 16 44  1  0
 16 45  1  0
 17 46  1  0
 18 47  1  0
 18 48  1  0
 20 49  1  0
 21 50  1  0
 22 51  1  0
 24 52  1  0
 25 53  1  0
 27 54  1  0
 30 55  1  0
 31 56  1  0
 32 57  1  0
A    1
N26
A    2
C26
A    3
C25
A    4
S21
A    5
C22
A    6
C23
A    7
C24
A    8
N27
A    9
C31
A   10
C36
A   11
C35
A   12
C34
A   13
C33
A   14
C32
A   15
C37
A   16
C38
A   17
N18
A   18
C17
A   19
C15
A   20
C14
A   21
C13
A   22
C12
A   23
C11
A   24
C16
A   25
N07
A   26
C06
A   27
N06
A   28
C05
A   29
S01
A   30
C02
A   31
C03
A   32
C04
M  END
