4KCM_1QF_A_803
     RDKit          3D

 63 66  0  0  0  0  0  0  0  0999 V2000
    0.6250    2.1720   28.9780 N   0  0  0  0  0  0  0  0  0  0  0  0
    0.0010    3.1290   28.4410 C   0  0  0  0  0  0  0  0  0  0  0  0
   -1.3720    2.9470   27.8630 C   0  0  0  0  0  0  0  0  0  0  0  0
   -2.4370    1.8060   28.6260 S   0  0  0  0  0  0  0  0  0  0  0  0
   -3.7690    2.0890   27.5430 C   0  0  0  0  0  0  0  0  0  0  0  0
   -3.3560    3.0630   26.6280 C   0  0  0  0  0  0  0  0  0  0  0  0
   -2.0460    3.5470   26.7960 C   0  0  0  0  0  0  0  0  0  0  0  0
    0.5100    4.3620   28.4070 N   0  0  0  0  0  0  0  0  0  0  0  0
    1.8050    4.7190   28.2570 C   0  0  0  0  0  0  0  0  0  0  0  0
    2.7590    3.8900   27.6450 C   0  0  0  0  0  0  0  0  0  0  0  0
    2.1720    5.9810   28.7290 C   0  0  0  0  0  0  0  0  0  0  0  0
    3.4890    6.4120   28.6010 C   0  0  0  0  0  0  0  0  0  0  0  0
    4.4430    5.5820   27.9950 C   0  0  0  0  0  0  0  0  0  0  0  0
    4.0860    4.3150   27.5170 C   0  0  0  0  0  0  0  0  0  0  0  0
    5.1170    3.4010   26.8680 C   0  0  0  0  0  0  0  0  0  0  0  0
    5.8580    3.9670   25.7240 N   0  0  0  0  0  0  0  0  0  0  0  0
    4.9530    4.2250   24.5900 C   0  0  0  0  0  0  0  0  0  0  0  0
    5.1900    5.6160   24.0180 C   0  0  0  0  0  0  0  0  0  0  0  0
    6.9240    3.0090   25.3770 C   0  0  0  0  0  0  0  0  0  0  0  0
    7.9180    3.5910   24.3750 C   0  0  0  0  0  0  0  0  0  0  0  0
    9.1380    2.6880   24.3070 C   0  0  0  0  0  0  0  0  0  0  0  0
    8.9480    1.3100   24.1850 C   0  0  0  0  0  0  0  0  0  0  0  0
   10.4370    3.2070   24.3430 C   0  0  0  0  0  0  0  0  0  0  0  0
   11.5480    2.3600   24.3010 C   0  0  0  0  0  0  0  0  0  0  0  0
   11.3440    0.9740   24.1730 C   0  0  0  0  0  0  0  0  0  0  0  0
   10.0360    0.4640   24.1210 C   0  0  0  0  0  0  0  0  0  0  0  0
   12.3720    0.0540   24.1440 N   0  0  0  0  0  0  0  0  0  0  0  0
   13.4940    0.1530   23.4320 C   0  0  0  0  0  0  0  0  0  0  0  0
   14.5370   -0.5370   23.7110 N   0  0  0  0  0  0  0  0  0  0  0  0
   13.4750    1.0550   22.2460 C   0  0  0  0  0  0  0  0  0  0  0  0
   14.9920    1.7660   21.8850 S   0  0  0  0  0  0  0  0  0  0  0  0
   14.3620    2.6310   20.5050 C   0  0  0  0  0  0  0  0  0  0  0  0
   13.0030    2.3230   20.4150 C   0  0  0  0  0  0  0  0  0  0  0  0
   12.5000    1.4530   21.3650 C   0  0  0  0  0  0  0  0  0  0  0  0
    1.5664    2.3248   29.3669 H   0  0  0  0  0  0  0  0  0  0  0  0
   -4.7513    1.5948   27.5724 H   0  0  0  0  0  0  0  0  0  0  0  0
   -4.0150    3.4280   25.8265 H   0  0  0  0  0  0  0  0  0  0  0  0
   -1.5979    4.3190   26.1531 H   0  0  0  0  0  0  0  0  0  0  0  0
   -0.1645    5.1340   28.5070 H   0  0  0  0  0  0  0  0  0  0  0  0
    2.4617    2.9017   27.2644 H   0  0  0  0  0  0  0  0  0  0  0  0
    1.4219    6.6328   29.2008 H   0  0  0  0  0  0  0  0  0  0  0  0
    3.7817    7.4041   28.9753 H   0  0  0  0  0  0  0  0  0  0  0  0
    5.4818    5.9294   27.8941 H   0  0  0  0  0  0  0  0  0  0  0  0
    4.5932    2.4999   26.5164 H   0  0  0  0  0  0  0  0  0  0  0  0
    5.8727    3.2101   27.6442 H   0  0  0  0  0  0  0  0  0  0  0  0
    3.9112    4.1491   24.9349 H   0  0  0  0  0  0  0  0  0  0  0  0
    5.1500    3.4811   23.8040 H   0  0  0  0  0  0  0  0  0  0  0  0
    5.3125    6.3351   24.8414 H   0  0  0  0  0  0  0  0  0  0  0  0
    6.0997    5.6081   23.3997 H   0  0  0  0  0  0  0  0  0  0  0  0
    4.3290    5.9098   23.3997 H   0  0  0  0  0  0  0  0  0  0  0  0
    6.4643    2.1107   24.9391 H   0  0  0  0  0  0  0  0  0  0  0  0
    7.4747    2.7681   26.2982 H   0  0  0  0  0  0  0  0  0  0  0  0
    8.2217    4.5974   24.6989 H   0  0  0  0  0  0  0  0  0  0  0  0
    7.4491    3.6574   23.3822 H   0  0  0  0  0  0  0  0  0  0  0  0
    7.9290    0.8982   24.1398 H   0  0  0  0  0  0  0  0  0  0  0  0
   10.5856    4.2951   24.4051 H   0  0  0  0  0  0  0  0  0  0  0  0
   12.5663    2.7708   24.3670 H   0  0  0  0  0  0  0  0  0  0  0  0
    9.8777   -0.6206   24.0283 H   0  0  0  0  0  0  0  0  0  0  0  0
   12.2618   -0.7878   24.7271 H   0  0  0  0  0  0  0  0  0  0  0  0
   14.5393   -1.1574   24.5332 H   0  0  0  0  0  0  0  0  0  0  0  0
   14.9285    3.2932   19.8337 H   0  0  0  0  0  0  0  0  0  0  0  0
   12.3646    2.7509   19.6280 H   0  0  0  0  0  0  0  0  0  0  0  0
   11.4519    1.1219   21.4092 H   0  0  0  0  0  0  0  0  0  0  0  0
 33 32  2  0
 33 34  1  0
 32 31  1  0
 34 30  2  0
 31 30  1  0
 30 28  1  0
 28 29  2  3
 28 27  1  0
 18 17  1  0
 26 25  1  0
 26 22  2  0
 27 25  1  0
 25 24  2  0
 22 21  1  0
 24 23  1  0
 21 23  2  0
 21 20  1  0
 20 19  1  0
 17 16  1  0
 19 16  1  0
 16 15  1  0
  6  7  1  0
  6  5  2  0
  7  3  2  0
 15 14  1  0
 14 10  2  0
 14 13  1  0
  5  4  1  0
 10  9  1  0
  3  2  1  0
  3  4  1  0
 13 12  2  0
  9  8  1  0
  9 11  2  0
  8  2  1  0
  2  1  2  3
 12 11  1  0
  1 35  1  0
  5 36  1  0
  6 37  1  0
  7 38  1  0
  8 39  1  0
 10 40  1  0
 11 41  1  0
 12 42  1  0
 13 43  1  0
 15 44  1  0
 15 45  1  0
 17 46  1  0
 17 47  1  0
 18 48  1  0
 18 49  1  0
 18 50  1  0
 19 51  1  0
 19 52  1  0
 20 53  1  0
 20 54  1  0
 22 55  1  0
 23 56  1  0
 24 57  1  0
 26 58  1  0
 27 59  1  0
 29 60  1  0
 32 61  1  0
 33 62  1  0
 34 63  1  0
A    1
N06
A    2
C06
A    3
C05
A    4
S01
A    5
C02
A    6
C03
A    7
C04
A    8
N07
A    9
C11
A   10
C16
A   11
C12
A   12
C13
A   13
C14
A   14
C15
A   15
C17
A   16
N18
A   17
C19
A   18
C20
A   19
C38
A   20
C37
A   21
C34
A   22
C35
A   23
C33
A   24
C32
A   25
C31
A   26
C36
A   27
N27
A   28
C26
A   29
N26
A   30
C25
A   31
S21
A   32
C22
A   33
C23
A   34
C24
M  END
