4KEW_1C6_A_502
     RDKit          3D

 42 44  0  0  0  0  0  0  0  0999 V2000
   11.7430   21.6320    8.5020 S   0  0  0  0  0  0  0  0  0  0  0  0
   13.3390   21.7690    9.1070 C   0  0  0  0  0  0  0  0  0  0  0  0
   13.6600   20.6010   10.0220 C   0  0  0  0  0  0  0  0  0  0  0  0
   14.0150   20.7320   11.4720 C   0  0  0  0  0  0  0  0  0  0  0  0
   14.0950   22.0890   12.1310 C   0  0  0  0  0  0  0  0  0  0  0  0
   14.2940   19.4660   12.2320 C   0  0  0  0  0  0  0  0  0  0  0  0
   14.6300   19.4020   13.5630 O   0  0  0  0  0  0  0  0  0  0  0  0
   13.9240   20.2250   14.5140 C   0  0  0  0  0  0  0  0  0  0  0  0
   14.2100   18.1800   11.4890 C   0  0  0  0  0  0  0  0  0  0  0  0
   14.5040   16.8600   12.2030 C   0  0  0  0  0  0  0  0  0  0  0  0
   13.8800   18.2030   10.1200 C   0  0  0  0  0  0  0  0  0  0  0  0
   13.6480   19.3650    9.4540 N   0  0  0  0  0  0  0  0  0  0  0  0
   11.5730   23.1940    7.8320 C   0  0  0  0  0  0  0  0  0  0  0  0
   12.4670   23.8470    7.0270 N   0  0  0  0  0  0  0  0  0  0  0  0
   11.9410   25.0590    6.7080 C   0  0  0  0  0  0  0  0  0  0  0  0
   10.6590   25.1100    7.4390 C   0  0  0  0  0  0  0  0  0  0  0  0
   10.5070   23.9220    8.1180 N   0  0  0  0  0  0  0  0  0  0  0  0
   12.2990   26.1900    5.9430 C   0  0  0  0  0  0  0  0  0  0  0  0
   11.4510   27.3040    5.8690 C   0  0  0  0  0  0  0  0  0  0  0  0
   11.7950   28.4460    5.1240 O   0  0  0  0  0  0  0  0  0  0  0  0
   10.8060   29.3310    4.5170 C   0  0  0  0  0  0  0  0  0  0  0  0
   10.2570   27.3240    6.5540 C   0  0  0  0  0  0  0  0  0  0  0  0
    9.8690   26.2300    7.3140 C   0  0  0  0  0  0  0  0  0  0  0  0
   14.0466   21.7748    8.2648 H   0  0  0  0  0  0  0  0  0  0  0  0
   13.4247   22.7046    9.6791 H   0  0  0  0  0  0  0  0  0  0  0  0
   14.0878   21.9667   13.2242 H   0  0  0  0  0  0  0  0  0  0  0  0
   15.0243   22.5913   11.8243 H   0  0  0  0  0  0  0  0  0  0  0  0
   13.2311   22.6970   11.8243 H   0  0  0  0  0  0  0  0  0  0  0  0
   14.1898   19.9152   15.5355 H   0  0  0  0  0  0  0  0  0  0  0  0
   14.2036   21.2785   14.3659 H   0  0  0  0  0  0  0  0  0  0  0  0
   12.8402   20.1090   14.3659 H   0  0  0  0  0  0  0  0  0  0  0  0
   14.4692   17.0161   13.2913 H   0  0  0  0  0  0  0  0  0  0  0  0
   13.7505   16.1119   11.9156 H   0  0  0  0  0  0  0  0  0  0  0  0
   15.5038   16.5024   11.9156 H   0  0  0  0  0  0  0  0  0  0  0  0
   13.8078   17.2514    9.5730 H   0  0  0  0  0  0  0  0  0  0  0  0
   13.3794   23.4833    6.7170 H   0  0  0  0  0  0  0  0  0  0  0  0
   13.2547   26.1974    5.3984 H   0  0  0  0  0  0  0  0  0  0  0  0
   10.2361   29.8410    5.3076 H   0  0  0  0  0  0  0  0  0  0  0  0
   11.3172   30.0788    3.8929 H   0  0  0  0  0  0  0  0  0  0  0  0
   10.1193   28.7402    3.8929 H   0  0  0  0  0  0  0  0  0  0  0  0
    9.6082   28.2106    6.4986 H   0  0  0  0  0  0  0  0  0  0  0  0
    8.8995   26.2587    7.8329 H   0  0  0  0  0  0  0  0  0  0  0  0
 21 20  1  0
 20 19  1  0
 19 18  1  0
 19 22  2  0
 18 15  2  0
 22 23  1  0
 15 14  1  0
 15 16  1  0
 14 13  1  0
 23 16  2  0
 16 17  1  0
 13 17  2  0
 13  1  1  0
  1  2  1  0
  2  3  1  0
 12  3  1  0
 12 11  2  0
  3  4  2  0
 11  9  1  0
  4  5  1  0
  4  6  1  0
  9 10  1  0
  9  6  2  0
  6  7  1  0
  7  8  1  0
  2 24  1  0
  2 25  1  0
  5 26  1  0
  5 27  1  0
  5 28  1  0
  8 29  1  0
  8 30  1  0
  8 31  1  0
 10 32  1  0
 10 33  1  0
 10 34  1  0
 11 35  1  0
 14 36  1  0
 18 37  1  0
 21 38  1  0
 21 39  1  0
 21 40  1  0
 22 41  1  0
 23 42  1  0
A    1
S
A    2
CB
A    3
CG
A    4
CD1
A    5
C3
A    6
CE1
A    7
O2
A    8
C2
A    9
CZ
A   10
C1
A   11
CE2
A   12
N1
A   13
CF1
A   14
NV
A   15
CX2
A   16
CS2
A   17
NE1
A   18
CE3
A   19
CZ3
A   20
O3
A   21
C4
A   22
CH2
A   23
CZ2
M  END
