1Q74_PE4_A_800
     RDKit          3D

 58 57  0  0  0  0  0  0  0  0999 V2000
   37.7790   46.3670   30.7230 O   0  0  0  0  0  0  0  0  0  0  0  0
   38.2760   45.2060   31.4020 C   0  0  0  0  0  0  0  0  0  0  0  0
   39.3820   45.6060   32.3580 C   0  0  0  0  0  0  0  0  0  0  0  0
   40.6240   45.6360   31.6770 O   0  0  0  0  0  0  0  0  0  0  0  0
   41.3890   46.8160   31.8760 C   0  0  0  0  0  0  0  0  0  0  0  0
   42.1610   46.8260   33.1730 C   0  0  0  0  0  0  0  0  0  0  0  0
   41.3960   47.2660   34.2700 O   0  0  0  0  0  0  0  0  0  0  0  0
   42.0770   47.3460   35.5200 C   0  0  0  0  0  0  0  0  0  0  0  0
   41.9440   46.0300   36.2490 C   0  0  0  0  0  0  0  0  0  0  0  0
   42.9990   45.7720   37.1600 O   0  0  0  0  0  0  0  0  0  0  0  0
   42.9910   44.5060   37.8050 C   0  0  0  0  0  0  0  0  0  0  0  0
   44.3280   43.7820   38.0130 C   0  0  0  0  0  0  0  0  0  0  0  0
   44.7780   43.0570   36.8660 O   0  0  0  0  0  0  0  0  0  0  0  0
   46.0940   42.6910   37.0160 C   0  0  0  0  0  0  0  0  0  0  0  0
   46.3750   41.6340   36.0030 C   0  0  0  0  0  0  0  0  0  0  0  0
   45.3620   41.6460   35.0880 O   0  0  0  0  0  0  0  0  0  0  0  0
   45.5670   40.6710   34.0910 C   0  0  0  0  0  0  0  0  0  0  0  0
   45.7210   41.5840   32.9430 C   0  0  0  0  0  0  0  0  0  0  0  0
   44.6120   41.4010   32.0960 O   0  0  0  0  0  0  0  0  0  0  0  0
   44.9080   41.7680   30.7560 C   0  0  0  0  0  0  0  0  0  0  0  0
   45.1920   43.2470   30.5900 C   0  0  0  0  0  0  0  0  0  0  0  0
   46.0540   43.3780   29.4700 O   0  0  0  0  0  0  0  0  0  0  0  0
   47.4240   43.5410   29.8080 C   0  0  0  0  0  0  0  0  0  0  0  0
   48.2460   43.5090   28.5420 C   0  0  0  0  0  0  0  0  0  0  0  0
   37.4907   47.0405   31.3888 H   0  0  0  0  0  0  0  0  0  0  0  0
   37.4579   44.7346   31.9664 H   0  0  0  0  0  0  0  0  0  0  0  0
   38.6736   44.4948   30.6630 H   0  0  0  0  0  0  0  0  0  0  0  0
   39.1666   46.6042   32.7670 H   0  0  0  0  0  0  0  0  0  0  0  0
   39.4360   44.8716   33.1752 H   0  0  0  0  0  0  0  0  0  0  0  0
   42.1039   46.9108   31.0454 H   0  0  0  0  0  0  0  0  0  0  0  0
   40.6801   47.6561   31.9169 H   0  0  0  0  0  0  0  0  0  0  0  0
   42.5120   45.8040   33.3789 H   0  0  0  0  0  0  0  0  0  0  0  0
   42.9952   47.5326   33.0516 H   0  0  0  0  0  0  0  0  0  0  0  0
   43.1412   47.5626   35.3449 H   0  0  0  0  0  0  0  0  0  0  0  0
   41.6354   48.1492   36.1282 H   0  0  0  0  0  0  0  0  0  0  0  0
   40.9968   46.0374   36.8082 H   0  0  0  0  0  0  0  0  0  0  0  0
   41.9768   45.2369   35.4875 H   0  0  0  0  0  0  0  0  0  0  0  0
   42.5419   44.6506   38.7987 H   0  0  0  0  0  0  0  0  0  0  0  0
   42.4367   43.8547   37.1132 H   0  0  0  0  0  0  0  0  0  0  0  0
   45.0912   44.5311   38.2708 H   0  0  0  0  0  0  0  0  0  0  0  0
   44.1714   43.0458   38.8152 H   0  0  0  0  0  0  0  0  0  0  0  0
   46.7483   43.5589   36.8468 H   0  0  0  0  0  0  0  0  0  0  0  0
   46.2822   42.3172   38.0333 H   0  0  0  0  0  0  0  0  0  0  0  0
   47.3323   41.8417   35.5026 H   0  0  0  0  0  0  0  0  0  0  0  0
   46.4405   40.6486   36.4874 H   0  0  0  0  0  0  0  0  0  0  0  0
   46.4721   40.0728   34.2725 H   0  0  0  0  0  0  0  0  0  0  0  0
   44.7846   39.9035   33.9970 H   0  0  0  0  0  0  0  0  0  0  0  0
   45.7550   42.6255   33.2952 H   0  0  0  0  0  0  0  0  0  0  0  0
   46.6556   41.3694   32.4041 H   0  0  0  0  0  0  0  0  0  0  0  0
   45.7925   41.2032   30.4263 H   0  0  0  0  0  0  0  0  0  0  0  0
   44.0196   41.5362   30.1502 H   0  0  0  0  0  0  0  0  0  0  0  0
   44.2547   43.7946   30.4121 H   0  0  0  0  0  0  0  0  0  0  0  0
   45.6574   43.6627   31.4959 H   0  0  0  0  0  0  0  0  0  0  0  0
   47.5667   44.5057   30.3169 H   0  0  0  0  0  0  0  0  0  0  0  0
   47.7417   42.7300   30.4798 H   0  0  0  0  0  0  0  0  0  0  0  0
   49.3146   43.4674   28.7996 H   0  0  0  0  0  0  0  0  0  0  0  0
   47.9762   42.6207   27.9520 H   0  0  0  0  0  0  0  0  0  0  0  0
   48.0461   44.4156   27.9520 H   0  0  0  0  0  0  0  0  0  0  0  0
  1  2  1  0
  2  3  1  0
  3  4  1  0
  4  5  1  0
  5  6  1  0
  6  7  1  0
  7  8  1  0
  8  9  1  0
  9 10  1  0
 10 11  1  0
 11 12  1  0
 12 13  1  0
 13 14  1  0
 14 15  1  0
 15 16  1  0
 16 17  1  0
 17 18  1  0
 18 19  1  0
 19 20  1  0
 20 21  1  0
 21 22  1  0
 22 23  1  0
 23 24  1  0
  1 25  1  0
  2 26  1  0
  2 27  1  0
  3 28  1  0
  3 29  1  0
  5 30  1  0
  5 31  1  0
  6 32  1  0
  6 33  1  0
  8 34  1  0
  8 35  1  0
  9 36  1  0
  9 37  1  0
 11 38  1  0
 11 39  1  0
 12 40  1  0
 12 41  1  0
 14 42  1  0
 14 43  1  0
 15 44  1  0
 15 45  1  0
 17 46  1  0
 17 47  1  0
 18 48  1  0
 18 49  1  0
 20 50  1  0
 20 51  1  0
 21 52  1  0
 21 53  1  0
 23 54  1  0
 23 55  1  0
 24 56  1  0
 24 57  1  0
 24 58  1  0
A    1
O1
A    2
C1
A    3
C2
A    4
O2
A    5
C3
A    6
C4
A    7
O3
A    8
C5
A    9
C6
A   10
O4
A   11
C7
A   12
C8
A   13
O5
A   14
C9
A   15
C10
A   16
O6
A   17
C11
A   18
C12
A   19
O7
A   20
C13
A   21
C14
A   22
O8
A   23
C15
A   24
C16
M  END
