4KFJ_1R0_A_202
     RDKit          3D

 54 57  0  0  0  0  0  0  0  0999 V2000
   15.0910    3.0250   18.9630 C   0  0  0  0  0  0  0  0  0  0  0  0
   15.6710    4.4200   18.9170 C   0  0  0  0  0  0  0  0  0  0  0  0
   16.9990    4.1330   18.9240 C   0  0  0  0  0  0  0  0  0  0  0  0
   17.6300    3.9070   17.7740 N   0  0  0  0  0  0  0  0  0  0  0  0
   18.9300    3.5780   17.7750 C   0  0  0  0  0  0  0  0  0  0  0  0
   19.5420    3.3620   16.6140 N   0  0  0  0  0  0  0  0  0  0  0  0
   19.6070    3.4720   18.9230 N   0  0  0  0  0  0  0  0  0  0  0  0
   18.9980    3.6950   20.1020 C   0  0  0  0  0  0  0  0  0  0  0  0
   19.6000    3.5980   21.2890 N   0  0  0  0  0  0  0  0  0  0  0  0
   17.6590    4.0120   20.1350 C   0  0  0  0  0  0  0  0  0  0  0  0
   16.9710    4.2380   21.3800 C   0  0  0  0  0  0  0  0  0  0  0  0
   16.4020    4.4140   22.3480 C   0  0  0  0  0  0  0  0  0  0  0  0
   15.6270    4.6320   23.5680 C   0  0  0  0  0  0  0  0  0  0  0  0
   14.4580    3.8350   23.4840 C   0  0  0  0  0  0  0  0  0  0  0  0
   14.5040    2.4190   23.3400 C   0  0  0  0  0  0  0  0  0  0  0  0
   13.2280    4.5080   23.5100 C   0  0  0  0  0  0  0  0  0  0  0  0
   12.0590    3.7650   23.4330 C   0  0  0  0  0  0  0  0  0  0  0  0
   10.7620    4.2040   23.4290 O   0  0  0  0  0  0  0  0  0  0  0  0
   10.4690    5.5800   23.5280 C   0  0  0  0  0  0  0  0  0  0  0  0
   12.1620    2.4190   23.3000 C   0  0  0  0  0  0  0  0  0  0  0  0
   13.3060    1.6720   23.2810 C   0  0  0  0  0  0  0  0  0  0  0  0
   13.1830    0.2620   23.1150 C   0  0  0  0  0  0  0  0  0  0  0  0
   11.9890   -0.5180   23.1090 C   0  0  0  0  0  0  0  0  0  0  0  0
   10.7020    0.0010   23.2620 C   0  0  0  0  0  0  0  0  0  0  0  0
    9.5430   -0.7470   23.2340 C   0  0  0  0  0  0  0  0  0  0  0  0
    9.6320   -2.1180   23.0600 N   0  0  0  0  0  0  0  0  0  0  0  0
   10.8950   -2.6800   22.9020 C   0  0  0  0  0  0  0  0  0  0  0  0
   12.0480   -1.9080   22.9210 C   0  0  0  0  0  0  0  0  0  0  0  0
   13.2430   -2.5760   22.7410 C   0  0  0  0  0  0  0  0  0  0  0  0
   14.3940   -1.8280   22.7620 C   0  0  0  0  0  0  0  0  0  0  0  0
   14.3510   -0.4500   22.9560 C   0  0  0  0  0  0  0  0  0  0  0  0
   14.9624    2.7157   20.0108 H   0  0  0  0  0  0  0  0  0  0  0  0
   14.1149    3.0168   18.4559 H   0  0  0  0  0  0  0  0  0  0  0  0
   15.7736    2.3272   18.4559 H   0  0  0  0  0  0  0  0  0  0  0  0
   15.3781    5.0114   19.7970 H   0  0  0  0  0  0  0  0  0  0  0  0
   15.3368    5.0289   18.0640 H   0  0  0  0  0  0  0  0  0  0  0  0
   20.5132    3.0192   16.5997 H   0  0  0  0  0  0  0  0  0  0  0  0
   19.0447    3.5375   15.7292 H   0  0  0  0  0  0  0  0  0  0  0  0
   19.0490    3.6868   22.1547 H   0  0  0  0  0  0  0  0  0  0  0  0
   20.6157    3.4343   21.3395 H   0  0  0  0  0  0  0  0  0  0  0  0
   16.2197    4.3363   24.4462 H   0  0  0  0  0  0  0  0  0  0  0  0
   15.3622    5.6946   23.6716 H   0  0  0  0  0  0  0  0  0  0  0  0
   15.4746    1.9054   23.2745 H   0  0  0  0  0  0  0  0  0  0  0  0
   13.1908    5.6045   23.5899 H   0  0  0  0  0  0  0  0  0  0  0  0
   10.4080    5.8665   24.5883 H   0  0  0  0  0  0  0  0  0  0  0  0
   11.2637    6.1604   23.0365 H   0  0  0  0  0  0  0  0  0  0  0  0
    9.5068    5.7863   23.0365 H   0  0  0  0  0  0  0  0  0  0  0  0
   11.2170    1.8658   23.1955 H   0  0  0  0  0  0  0  0  0  0  0  0
   10.6049    1.0858   23.4162 H   0  0  0  0  0  0  0  0  0  0  0  0
    8.5626   -0.2615   23.3482 H   0  0  0  0  0  0  0  0  0  0  0  0
   10.9820   -3.7670   22.7579 H   0  0  0  0  0  0  0  0  0  0  0  0
   13.2716   -3.6648   22.5868 H   0  0  0  0  0  0  0  0  0  0  0  0
   15.3654   -2.3252   22.6234 H   0  0  0  0  0  0  0  0  0  0  0  0
   15.3029    0.1006   22.9838 H   0  0  0  0  0  0  0  0  0  0  0  0
  6  5  1  0
  4  5  1  0
  4  3  2  0
  5  7  2  0
  2  3  1  0
  2  1  1  0
  7  8  1  0
  3 10  1  0
  8 10  2  0
  8  9  1  0
 10 11  1  0
 11 12  3  0
 12 13  1  0
 29 30  2  0
 29 28  1  0
 30 31  1  0
 27 28  2  0
 27 26  1  0
 28 23  1  0
 31 22  2  0
 26 25  2  0
 23 22  1  0
 23 24  2  0
 22 21  1  0
 25 24  1  0
 21 20  1  0
 21 15  2  0
 20 17  2  0
 15 14  1  0
 18 17  1  0
 18 19  1  0
 17 16  1  0
 14 16  2  0
 14 13  1  0
  1 32  1  0
  1 33  1  0
  1 34  1  0
  2 35  1  0
  2 36  1  0
  6 37  1  0
  6 38  1  0
  9 39  1  0
  9 40  1  0
 13 41  1  0
 13 42  1  0
 15 43  1  0
 16 44  1  0
 19 45  1  0
 19 46  1  0
 19 47  1  0
 20 48  1  0
 24 49  1  0
 25 50  1  0
 27 51  1  0
 29 52  1  0
 30 53  1  0
 31 54  1  0
A    1
CAA
A    2
CAP
A    3
C4
A    4
N3
A    5
C2
A    6
NAC
A    7
N1
A    8
C6
A    9
NAD
A   10
C5
A   11
CAF
A   12
CAE
A   13
CAQ
A   14
CAW
A   15
CAN
A   16
CAM
A   17
CAY
A   18
OAU
A   19
CAB
A   20
CAO
A   21
CAZ
A   22
CBC
A   23
CBE
A   24
CAK
A   25
CAH
A   26
NAR
A   27
CAL
A   28
CBD
A   29
CAJ
A   30
CAG
A   31
CAI
M  END
