4KFP_1R7_A_601
     RDKit          3D

 64 68  0  0  0  0  0  0  0  0999 V2000
   15.5550    4.8440    0.0430 C   0  0  0  0  0  0  0  0  0  0  0  0
   16.3210    5.6960    0.8090 C   0  0  0  0  0  0  0  0  0  0  0  0
   16.1860    7.0690    0.6840 C   0  0  0  0  0  0  0  0  0  0  0  0
   17.0690    7.9660    1.5190 C   0  0  0  0  0  0  0  0  0  0  0  0
   14.9810    9.1330    6.7640 C   0  0  0  0  0  0  0  0  0  0  0  0
   14.1240    9.4540    8.9640 C   0  0  0  0  0  0  0  0  0  0  0  0
   13.1270   10.5530    7.1920 C   0  0  0  0  0  0  0  0  0  0  0  0
   15.2300    4.6020   -4.0460 C   0  0  0  0  0  0  0  0  0  0  0  0
   14.1450    2.3810   -3.8010 C   0  0  0  0  0  0  0  0  0  0  0  0
   15.2900    7.5920   -0.2390 C   0  0  0  0  0  0  0  0  0  0  0  0
   14.5190    6.7340   -1.0080 C   0  0  0  0  0  0  0  0  0  0  0  0
   14.6480    5.3550   -0.8690 C   0  0  0  0  0  0  0  0  0  0  0  0
   16.6610    8.1640    2.9080 N   0  0  0  0  0  0  0  0  0  0  0  0
   15.6480    9.0070    3.1440 C   0  0  0  0  0  0  0  0  0  0  0  0
   15.1130    9.5440    2.2030 O   0  0  0  0  0  0  0  0  0  0  0  0
   15.2400    9.2510    4.3910 N   0  0  0  0  0  0  0  0  0  0  0  0
   15.8080    8.6620    5.6110 C   0  0  0  0  0  0  0  0  0  0  0  0
   15.0450    8.8560    8.1240 C   0  0  0  0  0  0  0  0  0  0  0  0
   13.2060   10.2690    8.4800 N   0  0  0  0  0  0  0  0  0  0  0  0
   14.0050    9.9950    6.2890 C   0  0  0  0  0  0  0  0  0  0  0  0
   14.1480   10.1440    4.7980 C   0  0  0  0  0  0  0  0  0  0  0  0
   13.6910    4.2210   -1.8290 S   0  0  0  0  0  0  0  0  0  0  0  0
   13.3060    3.2190   -0.8930 O   0  0  0  0  0  0  0  0  0  0  0  0
   12.7030    4.9790   -2.5090 O   0  0  0  0  0  0  0  0  0  0  0  0
   14.8340    3.5190   -3.0480 C   0  0  0  0  0  0  0  0  0  0  0  0
   16.1440    4.0030   -5.1230 C   0  0  0  0  0  0  0  0  0  0  0  0
   15.4560    2.9150   -5.8350 N   0  0  0  0  0  0  0  0  0  0  0  0
   15.0860    1.8400   -4.8890 C   0  0  0  0  0  0  0  0  0  0  0  0
   16.2950    2.3870   -6.9310 C   0  0  0  0  0  0  0  0  0  0  0  0
   15.5560    1.2730   -7.6810 C   0  0  0  0  0  0  0  0  0  0  0  0
   16.4060    0.7880   -8.8660 C   0  0  0  0  0  0  0  0  0  0  0  0
   16.7250    1.8860   -9.7300 O   0  0  0  0  0  0  0  0  0  0  0  0
   17.4710    2.9170   -9.0840 C   0  0  0  0  0  0  0  0  0  0  0  0
   16.6370    3.4950   -7.9330 C   0  0  0  0  0  0  0  0  0  0  0  0
   15.6647    3.7554    0.1567 H   0  0  0  0  0  0  0  0  0  0  0  0
   17.0457    5.2823    1.5257 H   0  0  0  0  0  0  0  0  0  0  0  0
   18.0791    7.5305    1.5251 H   0  0  0  0  0  0  0  0  0  0  0  0
   17.0057    8.9590    1.0501 H   0  0  0  0  0  0  0  0  0  0  0  0
   14.1567    9.2488   10.0442 H   0  0  0  0  0  0  0  0  0  0  0  0
   12.3493   11.2446    6.8358 H   0  0  0  0  0  0  0  0  0  0  0  0
   15.7639    5.4069   -3.5196 H   0  0  0  0  0  0  0  0  0  0  0  0
   14.3249    5.0084   -4.5210 H   0  0  0  0  0  0  0  0  0  0  0  0
   13.2226    2.7565   -4.2681 H   0  0  0  0  0  0  0  0  0  0  0  0
   13.8979    1.5732   -3.0965 H   0  0  0  0  0  0  0  0  0  0  0  0
   15.1925    8.6810   -0.3593 H   0  0  0  0  0  0  0  0  0  0  0  0
   13.8008    7.1455   -1.7325 H   0  0  0  0  0  0  0  0  0  0  0  0
   17.1360    7.6724    3.6784 H   0  0  0  0  0  0  0  0  0  0  0  0
   16.6819    7.9962    5.6661 H   0  0  0  0  0  0  0  0  0  0  0  0
   15.8116    8.1758    8.5236 H   0  0  0  0  0  0  0  0  0  0  0  0
   13.5512   10.7946    4.1418 H   0  0  0  0  0  0  0  0  0  0  0  0
   15.7268    3.1354   -2.5325 H   0  0  0  0  0  0  0  0  0  0  0  0
   17.0528    3.6063   -4.6469 H   0  0  0  0  0  0  0  0  0  0  0  0
   16.4071    4.7903   -5.8448 H   0  0  0  0  0  0  0  0  0  0  0  0
   14.5785    1.0333   -5.4382 H   0  0  0  0  0  0  0  0  0  0  0  0
   15.9995    1.4567   -4.4109 H   0  0  0  0  0  0  0  0  0  0  0  0
   17.2185    1.9921   -6.4825 H   0  0  0  0  0  0  0  0  0  0  0  0
   14.5961    1.6592   -8.0544 H   0  0  0  0  0  0  0  0  0  0  0  0
   15.3766    0.4317   -6.9954 H   0  0  0  0  0  0  0  0  0  0  0  0
   15.8419    0.0323   -9.4323 H   0  0  0  0  0  0  0  0  0  0  0  0
   17.3397    0.3510   -8.4822 H   0  0  0  0  0  0  0  0  0  0  0  0
   18.4079    2.4997   -8.6865 H   0  0  0  0  0  0  0  0  0  0  0  0
   17.7062    3.7123   -9.8066 H   0  0  0  0  0  0  0  0  0  0  0  0
   17.2130    4.2821   -7.4243 H   0  0  0  0  0  0  0  0  0  0  0  0
   15.7058    3.9189   -8.3370 H   0  0  0  0  0  0  0  0  0  0  0  0
 32 33  1  0
 32 31  1  0
 33 34  1  0
 31 30  1  0
 34 29  1  0
 30 29  1  0
 29 27  1  0
 27 26  1  0
 27 28  1  0
 26  8  1  0
 28  9  1  0
  8 25  1  0
  9 25  1  0
 25 22  1  0
 24 22  2  0
 22 23  2  0
 22 12  1  0
 11 12  1  0
 11 10  2  0
 12  1  2  0
 10  3  1  0
  1  2  1  0
  3  2  2  0
  3  4  1  0
  4 13  1  0
 15 14  2  0
 13 14  1  0
 14 16  1  0
 16 21  1  0
 16 17  1  0
 21 20  2  0
 17  5  2  0
 20  5  1  0
 20  7  1  0
  5 18  1  0
  7 19  2  0
 18  6  2  0
 19  6  1  0
  1 35  1  0
  2 36  1  0
  4 37  1  0
  4 38  1  0
  6 39  1  0
  7 40  1  0
  8 41  1  0
  8 42  1  0
  9 43  1  0
  9 44  1  0
 10 45  1  0
 11 46  1  0
 13 47  1  0
 17 48  1  0
 18 49  1  0
 21 50  1  0
 25 51  1  0
 26 52  1  0
 26 53  1  0
 28 54  1  0
 28 55  1  0
 29 56  1  0
 30 57  1  0
 30 58  1  0
 31 59  1  0
 31 60  1  0
 33 61  1  0
 33 62  1  0
 34 63  1  0
 34 64  1  0
A    1
C4
A    2
C5
A    3
C6
A    4
C7
A    5
C13
A    6
C15
A    7
C17
A    8
C24
A    9
C28
A   10
C1
A   11
C2
A   12
C3
A   13
N8
A   14
C9
A   15
O10
A   16
N11
A   17
C12
A   18
C14
A   19
N16
A   20
C18
A   21
C19
A   22
S20
A   23
O21
A   24
O22
A   25
C23
A   26
C25
A   27
N26
A   28
C27
A   29
C29
A   30
C30
A   31
C31
A   32
O32
A   33
C33
A   34
C34
M  END
