4KAI_1PV_A_601
     RDKit          3D

 64 68  0  0  0  0  0  0  0  0999 V2000
    2.7530   39.7960   45.8240 C   0  0  0  0  0  0  0  0  0  0  0  0
    3.2390   40.4150   48.1240 C   0  0  0  0  0  0  0  0  0  0  0  0
    3.8650   40.1840   49.4460 C   0  0  0  0  0  0  0  0  0  0  0  0
    3.7240   39.1500   50.3040 C   0  0  0  0  0  0  0  0  0  0  0  0
    5.1710   40.5600   51.2980 C   0  0  0  0  0  0  0  0  0  0  0  0
    6.0670   41.2010   52.1420 C   0  0  0  0  0  0  0  0  0  0  0  0
    9.7050   43.2500   51.5860 C   0  0  0  0  0  0  0  0  0  0  0  0
   10.7790   43.1540   49.4010 C   0  0  0  0  0  0  0  0  0  0  0  0
   11.1290   44.5090   49.5090 C   0  0  0  0  0  0  0  0  0  0  0  0
   11.9020   46.5970   48.3790 O   0  0  0  0  0  0  0  0  0  0  0  0
   10.7610   45.2270   50.6630 C   0  0  0  0  0  0  0  0  0  0  0  0
   10.0570   44.5910   51.6900 C   0  0  0  0  0  0  0  0  0  0  0  0
    7.5720   45.5030   54.2160 C   0  0  0  0  0  0  0  0  0  0  0  0
    6.2970   43.0210   50.5300 C   0  0  0  0  0  0  0  0  0  0  0  0
    5.3880   42.3470   49.6860 C   0  0  0  0  0  0  0  0  0  0  0  0
    4.8250   41.1230   50.0690 C   0  0  0  0  0  0  0  0  0  0  0  0
    6.9020   44.3510   50.1030 C   0  0  0  0  0  0  0  0  0  0  0  0
    6.1710   45.2260   49.1310 C   0  0  0  0  0  0  0  0  0  0  0  0
    7.4060   44.5100   48.7060 C   0  0  0  0  0  0  0  0  0  0  0  0
    2.8700   37.9500   50.2780 C   0  0  0  0  0  0  0  0  0  0  0  0
    3.2760   36.8390   51.0310 C   0  0  0  0  0  0  0  0  0  0  0  0
    2.4730   35.7010   51.0840 C   0  0  0  0  0  0  0  0  0  0  0  0
    1.2430   35.6800   50.4230 C   0  0  0  0  0  0  0  0  0  0  0  0
    0.4760   34.5750   50.4840 F   0  0  0  0  0  0  0  0  0  0  0  0
    0.8190   36.7970   49.6950 C   0  0  0  0  0  0  0  0  0  0  0  0
    1.6240   37.9440   49.6360 C   0  0  0  0  0  0  0  0  0  0  0  0
    4.4930   39.3720   51.4340 O   0  0  0  0  0  0  0  0  0  0  0  0
    2.5550   41.4310   47.9700 O   0  0  0  0  0  0  0  0  0  0  0  0
    3.4070   39.5560   47.1220 N   0  0  0  0  0  0  0  0  0  0  0  0
    6.6380   42.4200   51.7630 C   0  0  0  0  0  0  0  0  0  0  0  0
    7.5180   42.9640   52.7220 N   0  0  0  0  0  0  0  0  0  0  0  0
    6.7580   43.9230   53.9690 S   0  0  0  0  0  0  0  0  0  0  0  0
    5.3970   44.1640   53.5910 O   0  0  0  0  0  0  0  0  0  0  0  0
    6.7420   43.1680   55.1860 O   0  0  0  0  0  0  0  0  0  0  0  0
    8.9540   42.6240   52.7280 C   0  0  0  0  0  0  0  0  0  0  0  0
   11.0790   46.5310   50.8220 F   0  0  0  0  0  0  0  0  0  0  0  0
   11.9120   45.2310   48.3630 B   0  0  0  0  0  0  0  0  0  0  0  0
   12.0440   44.6310   47.1380 O   0  0  0  0  0  0  0  0  0  0  0  0
   10.0700   42.5250   50.4440 C   0  0  0  0  0  0  0  0  0  0  0  0
    1.7324   40.1705   45.9914 H   0  0  0  0  0  0  0  0  0  0  0  0
    3.3286   40.5415   45.2557 H   0  0  0  0  0  0  0  0  0  0  0  0
    2.7097   38.8552   45.2557 H   0  0  0  0  0  0  0  0  0  0  0  0
    6.3284   40.7496   53.1104 H   0  0  0  0  0  0  0  0  0  0  0  0
   11.0579   42.5834   48.5029 H   0  0  0  0  0  0  0  0  0  0  0  0
   11.8997   46.9160   49.3162 H   0  0  0  0  0  0  0  0  0  0  0  0
    9.7785   45.1580   52.5905 H   0  0  0  0  0  0  0  0  0  0  0  0
    7.6729   45.6989   55.2937 H   0  0  0  0  0  0  0  0  0  0  0  0
    8.5694   45.4780   53.7529 H   0  0  0  0  0  0  0  0  0  0  0  0
    6.9726   46.3006   53.7529 H   0  0  0  0  0  0  0  0  0  0  0  0
    5.1184   42.7887   48.7153 H   0  0  0  0  0  0  0  0  0  0  0  0
    7.3247   44.4924   51.1087 H   0  0  0  0  0  0  0  0  0  0  0  0
    6.1844   46.3187   49.2567 H   0  0  0  0  0  0  0  0  0  0  0  0
    5.1371   45.2815   48.7594 H   0  0  0  0  0  0  0  0  0  0  0  0
    7.3381   43.6702   47.9988 H   0  0  0  0  0  0  0  0  0  0  0  0
    8.3629   44.8132   48.2560 H   0  0  0  0  0  0  0  0  0  0  0  0
    4.2287   36.8656   51.5802 H   0  0  0  0  0  0  0  0  0  0  0  0
    2.8087   34.8179   51.6474 H   0  0  0  0  0  0  0  0  0  0  0  0
   -0.1465   36.7756   49.1684 H   0  0  0  0  0  0  0  0  0  0  0  0
    1.2794   38.8339   49.0889 H   0  0  0  0  0  0  0  0  0  0  0  0
    3.9957   38.7212   47.2541 H   0  0  0  0  0  0  0  0  0  0  0  0
    9.0568   41.5310   52.6593 H   0  0  0  0  0  0  0  0  0  0  0  0
    9.3836   43.0160   53.6617 H   0  0  0  0  0  0  0  0  0  0  0  0
   12.2551   43.6717   47.2614 H   0  0  0  0  0  0  0  0  0  0  0  0
    9.8023   41.4613   50.3612 H   0  0  0  0  0  0  0  0  0  0  0  0
  1 29  1  0
 29  2  1  0
 38 37  1  0
 28  2  2  0
  2  3  1  0
 37 10  1  0
 37  9  1  0
 19 18  1  0
 19 17  1  0
 18 17  1  0
  8  9  2  0
  8 39  1  0
  3 16  1  0
  3  4  2  0
  9 11  1  0
 26 25  2  0
 26 20  1  0
 15 16  2  0
 15 14  1  0
 25 23  1  0
 16  5  1  0
 17 14  1  0
 20  4  1  0
 20 21  2  0
  4 27  1  0
 23 24  1  0
 23 22  2  0
 39  7  2  0
 14 30  2  0
 11 36  1  0
 11 12  2  0
 21 22  1  0
  5 27  1  0
  5  6  2  0
  7 12  1  0
  7 35  1  0
 30  6  1  0
 30 31  1  0
 31 35  1  0
 31 32  1  0
 33 32  2  0
 32 13  1  0
 32 34  2  0
  1 40  1  0
  1 41  1  0
  1 42  1  0
  6 43  1  0
  8 44  1  0
 10 45  1  0
 12 46  1  0
 13 47  1  0
 13 48  1  0
 13 49  1  0
 15 50  1  0
 17 51  1  0
 18 52  1  0
 18 53  1  0
 19 54  1  0
 19 55  1  0
 21 56  1  0
 22 57  1  0
 25 58  1  0
 26 59  1  0
 29 60  1  0
 35 61  1  0
 35 62  1  0
 38 63  1  0
 39 64  1  0
A    1
C1
A    2
C3
A    3
C5
A    4
C6
A    5
C8
A    6
C9
A    7
C13
A    8
C15
A    9
C16
A   10
O19
A   11
C20
A   12
C22
A   13
C24
A   14
C27
A   15
C28
A   16
C29
A   17
C30
A   18
C31
A   19
C32
A   20
C33
A   21
C34
A   22
C35
A   23
C36
A   24
F37
A   25
C38
A   26
C39
A   27
O7
A   28
O4
A   29
N2
A   30
C10
A   31
N11
A   32
S23
A   33
O25
A   34
O26
A   35
C12
A   36
F21
A   37
B17
A   38
O18
A   39
C14
M  END
