4KIN_1M8_A_401
     RDKit          3D

 47 50  0  0  0  0  0  0  0  0999 V2000
    1.9350   -2.2880   -4.5670 C   0  0  0  0  0  0  0  0  0  0  0  0
    2.5630   -1.3860   -5.4230 C   0  0  0  0  0  0  0  0  0  0  0  0
    1.8940   -0.9770   -6.5740 C   0  0  0  0  0  0  0  0  0  0  0  0
    0.6300   -1.4650   -6.8620 C   0  0  0  0  0  0  0  0  0  0  0  0
   -0.0110   -2.3840   -6.0280 C   0  0  0  0  0  0  0  0  0  0  0  0
    0.6750   -2.7970   -4.8740 C   0  0  0  0  0  0  0  0  0  0  0  0
   -1.3640   -2.9500   -6.3920 C   0  0  0  0  0  0  0  0  0  0  0  0
    0.0780   -3.7400   -4.0070 N   0  0  0  0  0  0  0  0  0  0  0  0
    3.9480   -0.9800   -5.0120 C   0  0  0  0  0  0  0  0  0  0  0  0
    4.4850    0.1040   -5.6110 N   0  0  0  0  0  0  0  0  0  0  0  0
    4.5560   -1.6220   -4.1520 O   0  0  0  0  0  0  0  0  0  0  0  0
    5.8350    0.5860   -5.3070 C   0  0  0  0  0  0  0  0  0  0  0  0
    6.9820   -0.3270   -5.5760 C   0  0  0  0  0  0  0  0  0  0  0  0
    6.7600    0.8710   -6.4400 C   0  0  0  0  0  0  0  0  0  0  0  0
   -0.5340   -3.4010   -2.8640 C   0  0  0  0  0  0  0  0  0  0  0  0
   -1.0450   -4.5230   -2.0600 C   0  0  0  0  0  0  0  0  0  0  0  0
   -0.8780   -5.8990   -2.0650 C   0  0  0  0  0  0  0  0  0  0  0  0
   -1.5210   -6.5380   -0.9900 C   0  0  0  0  0  0  0  0  0  0  0  0
   -2.1670   -5.6570   -0.1390 C   0  0  0  0  0  0  0  0  0  0  0  0
   -1.9610   -4.0240   -0.6830 S   0  0  0  0  0  0  0  0  0  0  0  0
   -0.5920   -2.2440   -2.4240 O   0  0  0  0  0  0  0  0  0  0  0  0
   -2.9390   -5.9150    1.0910 C   0  0  0  0  0  0  0  0  0  0  0  0
   -4.2410   -5.4220    1.1950 C   0  0  0  0  0  0  0  0  0  0  0  0
   -4.9890   -5.6430    2.3440 C   0  0  0  0  0  0  0  0  0  0  0  0
   -4.4560   -6.3580    3.3970 C   0  0  0  0  0  0  0  0  0  0  0  0
   -3.1600   -6.8410    3.3250 C   0  0  0  0  0  0  0  0  0  0  0  0
   -2.4120   -6.6080    2.1790 C   0  0  0  0  0  0  0  0  0  0  0  0
   -0.7760   -7.1620    2.1470 Cl  0  0  0  0  0  0  0  0  0  0  0  0
    2.4385   -2.6011   -3.6405 H   0  0  0  0  0  0  0  0  0  0  0  0
    2.3726   -0.2616   -7.2590 H   0  0  0  0  0  0  0  0  0  0  0  0
    0.1173   -1.1195   -7.7719 H   0  0  0  0  0  0  0  0  0  0  0  0
   -1.9228   -3.1837   -5.4738 H   0  0  0  0  0  0  0  0  0  0  0  0
   -1.9237   -2.2106   -6.9836 H   0  0  0  0  0  0  0  0  0  0  0  0
   -1.2305   -3.8677   -6.9836 H   0  0  0  0  0  0  0  0  0  0  0  0
    0.1151   -4.7362   -4.2662 H   0  0  0  0  0  0  0  0  0  0  0  0
    3.9237    0.6123   -6.3092 H   0  0  0  0  0  0  0  0  0  0  0  0
    5.4791    1.1553   -4.4357 H   0  0  0  0  0  0  0  0  0  0  0  0
    6.8005   -1.3354   -5.9763 H   0  0  0  0  0  0  0  0  0  0  0  0
    7.8242   -0.7141   -4.9836 H   0  0  0  0  0  0  0  0  0  0  0  0
    7.4511    1.7250   -6.3846 H   0  0  0  0  0  0  0  0  0  0  0  0
    6.6386    1.0397   -7.5202 H   0  0  0  0  0  0  0  0  0  0  0  0
   -0.3011   -6.4365   -2.8320 H   0  0  0  0  0  0  0  0  0  0  0  0
   -1.5118   -7.6277   -0.8402 H   0  0  0  0  0  0  0  0  0  0  0  0
   -4.6778   -4.8541    0.3603 H   0  0  0  0  0  0  0  0  0  0  0  0
   -6.0123   -5.2458    2.4151 H   0  0  0  0  0  0  0  0  0  0  0  0
   -5.0620   -6.5448    4.2958 H   0  0  0  0  0  0  0  0  0  0  0  0
   -2.7283   -7.4029    4.1664 H   0  0  0  0  0  0  0  0  0  0  0  0
  4  3  2  0
  4  5  1  0
  3  2  1  0
 14 13  1  0
 14 12  1  0
  7  5  1  0
  5  6  2  0
 10 12  1  0
 10  9  1  0
 13 12  1  0
  2  9  1  0
  2  1  2  0
  9 11  2  0
  6  1  1  0
  6  8  1  0
  8 15  1  0
 15 21  2  0
 15 16  1  0
 17 16  2  0
 17 18  1  0
 16 20  1  0
 18 19  2  0
 20 19  1  0
 19 22  1  0
 22 23  2  0
 22 27  1  0
 23 24  1  0
 28 27  1  0
 27 26  2  0
 24 25  2  0
 26 25  1  0
  1 29  1  0
  3 30  1  0
  4 31  1  0
  7 32  1  0
  7 33  1  0
  7 34  1  0
  8 35  1  0
 10 36  1  0
 12 37  1  0
 13 38  1  0
 13 39  1  0
 14 40  1  0
 14 41  1  0
 17 42  1  0
 18 43  1  0
 23 44  1  0
 24 45  1  0
 25 46  1  0
 26 47  1  0
A    1
C1
A    2
C2
A    3
C3
A    4
C4
A    5
C5
A    6
C6
A    7
C7
A    8
N8
A    9
C9
A   10
N10
A   11
O11
A   12
C12
A   13
C13
A   14
C14
A   15
C15
A   16
C16
A   17
C17
A   18
C18
A   19
C19
A   20
S20
A   21
O21
A   22
C22
A   23
C23
A   24
C24
A   25
C25
A   26
C26
A   27
C27
A   28
CL1
M  END
