4KIO_G5K_A_701
     RDKit          3D

 59 63  0  0  0  0  0  0  0  0999 V2000
   13.8100   11.9900    5.2610 C   0  0  0  0  0  0  0  0  0  0  0  0
   12.6590   11.8790    4.6030 C   0  0  0  0  0  0  0  0  0  0  0  0
   12.7590   11.9710    3.1270 C   0  0  0  0  0  0  0  0  0  0  0  0
   13.8370   12.1430    2.5800 O   0  0  0  0  0  0  0  0  0  0  0  0
   11.5910   11.8610    2.4200 N   0  0  0  0  0  0  0  0  0  0  0  0
   11.4680   11.9110    0.9800 C   0  0  0  0  0  0  0  0  0  0  0  0
   10.0040   11.6640    0.7280 C   0  0  0  0  0  0  0  0  0  0  0  0
    9.6250   10.9330    1.9700 C   0  0  0  0  0  0  0  0  0  0  0  0
   10.3450   11.6640    3.0460 C   0  0  0  0  0  0  0  0  0  0  0  0
    8.2310   10.9450    2.2460 N   0  0  0  0  0  0  0  0  0  0  0  0
    7.3980   10.0220    1.7850 C   0  0  0  0  0  0  0  0  0  0  0  0
    6.1540   10.1150    2.2700 N   0  0  0  0  0  0  0  0  0  0  0  0
    5.3000    9.2170    1.7890 C   0  0  0  0  0  0  0  0  0  0  0  0
    3.8580    9.2490    2.2410 C   0  0  0  0  0  0  0  0  0  0  0  0
    3.6650    9.5230    3.6500 N   0  0  0  0  0  0  0  0  0  0  0  0
    4.2660    8.4640    4.4890 C   0  0  0  0  0  0  0  0  0  0  0  0
    3.7340    8.4620    5.9250 C   0  0  0  0  0  0  0  0  0  0  0  0
    2.3010    8.4250    5.9610 O   0  0  0  0  0  0  0  0  0  0  0  0
    1.8360    9.6160    5.3000 C   0  0  0  0  0  0  0  0  0  0  0  0
    2.2070    9.5660    3.8240 C   0  0  0  0  0  0  0  0  0  0  0  0
    5.7360    8.2700    0.8740 C   0  0  0  0  0  0  0  0  0  0  0  0
    7.0470    8.2540    0.4510 C   0  0  0  0  0  0  0  0  0  0  0  0
    7.5310    7.2870   -0.4990 N   0  0  0  0  0  0  0  0  0  0  0  0
    8.6830    7.2040   -1.1610 C   0  0  0  0  0  0  0  0  0  0  0  0
    8.9730    6.2380   -2.0000 N   0  0  0  0  0  0  0  0  0  0  0  0
   10.2410    6.4530   -2.4930 C   0  0  0  0  0  0  0  0  0  0  0  0
   10.9520    5.6760   -3.3830 C   0  0  0  0  0  0  0  0  0  0  0  0
   12.2370    6.0950   -3.7330 C   0  0  0  0  0  0  0  0  0  0  0  0
   12.8010    7.2370   -3.2230 C   0  0  0  0  0  0  0  0  0  0  0  0
   12.1170    7.9820   -2.3570 N   0  0  0  0  0  0  0  0  0  0  0  0
   10.8850    7.5820   -2.0180 C   0  0  0  0  0  0  0  0  0  0  0  0
    9.8910    8.4240   -0.9110 S   0  0  0  0  0  0  0  0  0  0  0  0
    7.9280    9.1460    0.8930 N   0  0  0  0  0  0  0  0  0  0  0  0
   13.8233   11.9327    6.3594 H   0  0  0  0  0  0  0  0  0  0  0  0
   14.7483   12.1391    4.7066 H   0  0  0  0  0  0  0  0  0  0  0  0
   11.6991   11.7292    5.1189 H   0  0  0  0  0  0  0  0  0  0  0  0
   12.0827   11.1303    0.5082 H   0  0  0  0  0  0  0  0  0  0  0  0
   11.8135   12.8670    0.5596 H   0  0  0  0  0  0  0  0  0  0  0  0
    9.4461   12.6067    0.6271 H   0  0  0  0  0  0  0  0  0  0  0  0
    9.7881   11.1204   -0.2036 H   0  0  0  0  0  0  0  0  0  0  0  0
    9.8855    9.8681    1.8792 H   0  0  0  0  0  0  0  0  0  0  0  0
    9.8552   12.6185    3.2887 H   0  0  0  0  0  0  0  0  0  0  0  0
   10.3906   11.1384    4.0112 H   0  0  0  0  0  0  0  0  0  0  0  0
    7.8511   11.7039    2.8297 H   0  0  0  0  0  0  0  0  0  0  0  0
    3.3375   10.0298    1.6670 H   0  0  0  0  0  0  0  0  0  0  0  0
    3.4582    8.2393    2.0662 H   0  0  0  0  0  0  0  0  0  0  0  0
    4.0452    7.4879    4.0324 H   0  0  0  0  0  0  0  0  0  0  0  0
    5.3473    8.6594    4.5397 H   0  0  0  0  0  0  0  0  0  0  0  0
    4.1264    7.5781    6.4491 H   0  0  0  0  0  0  0  0  0  0  0  0
    4.0649    9.3902    6.4139 H   0  0  0  0  0  0  0  0  0  0  0  0
    2.3031   10.4971    5.7642 H   0  0  0  0  0  0  0  0  0  0  0  0
    0.7423    9.6814    5.3972 H   0  0  0  0  0  0  0  0  0  0  0  0
    1.8110   10.4615    3.3228 H   0  0  0  0  0  0  0  0  0  0  0  0
    1.7740    8.6556    3.3839 H   0  0  0  0  0  0  0  0  0  0  0  0
    5.0281    7.5246    0.4824 H   0  0  0  0  0  0  0  0  0  0  0  0
    6.8691    6.5245   -0.7026 H   0  0  0  0  0  0  0  0  0  0  0  0
   10.5207    4.7557   -3.8037 H   0  0  0  0  0  0  0  0  0  0  0  0
   12.8179    5.4879   -4.4429 H   0  0  0  0  0  0  0  0  0  0  0  0
   13.8146    7.5360   -3.5284 H   0  0  0  0  0  0  0  0  0  0  0  0
 28 27  1  0
 28 29  2  0
 27 26  2  0
 29 30  1  0
 26 31  1  0
 26 25  1  0
 30 31  2  0
 31 32  1  0
 25 24  2  0
 24 32  1  0
 24 23  1  0
 23 22  1  0
 22 21  1  0
 22 33  2  0
  7  6  1  0
  7  8  1  0
 21 13  2  0
 33 11  1  0
  6  5  1  0
 11 10  1  0
 11 12  2  0
 13 14  1  0
 13 12  1  0
  8 10  1  0
  8  9  1  0
 14 15  1  0
  5  9  1  0
  5  3  1  0
  4  3  2  0
  3  2  1  0
 15 20  1  0
 15 16  1  0
 20 19  1  0
 16 17  1  0
  2  1  2  3
 19 18  1  0
 17 18  1  0
  1 34  1  0
  1 35  1  0
  2 36  1  0
  6 37  1  0
  6 38  1  0
  7 39  1  0
  7 40  1  0
  8 41  1  0
  9 42  1  0
  9 43  1  0
 10 44  1  0
 14 45  1  0
 14 46  1  0
 16 47  1  0
 16 48  1  0
 17 49  1  0
 17 50  1  0
 19 51  1  0
 19 52  1  0
 20 53  1  0
 20 54  1  0
 21 55  1  0
 23 56  1  0
 27 57  1  0
 28 58  1  0
 29 59  1  0
A    1
C1
A    2
C2
A    3
C3
A    4
O4
A    5
N5
A    6
C6
A    7
C7
A    8
C8
A    9
C9
A   10
N10
A   11
C11
A   12
N12
A   13
C13
A   14
C14
A   15
N15
A   16
C16
A   17
C17
A   18
O18
A   19
C19
A   20
C20
A   21
C21
A   22
C22
A   23
N23
A   24
C24
A   25
N25
A   26
C26
A   27
C27
A   28
C28
A   29
C29
A   30
N30
A   31
C31
A   32
S32
A   33
N33
M  END
