4KIQ_1RA_A_401
     RDKit          3D

 53 56  0  0  0  0  0  0  0  0999 V2000
    0.0020   -4.1130   -6.4740 C   0  0  0  0  0  0  0  0  0  0  0  0
    4.0970   -1.1620   -5.5960 N   0  0  0  0  0  0  0  0  0  0  0  0
    5.3060   -0.4850   -5.1310 C   0  0  0  0  0  0  0  0  0  0  0  0
    6.1860    0.1430   -6.1320 C   0  0  0  0  0  0  0  0  0  0  0  0
    6.6030   -1.0960   -5.4470 C   0  0  0  0  0  0  0  0  0  0  0  0
   -0.0420   -5.3970   -4.3880 N   0  0  0  0  0  0  0  0  0  0  0  0
   -0.5690   -5.1570   -3.1630 C   0  0  0  0  0  0  0  0  0  0  0  0
   -0.7480   -4.0220   -2.7210 O   0  0  0  0  0  0  0  0  0  0  0  0
   -0.8730   -6.3670   -2.3340 C   0  0  0  0  0  0  0  0  0  0  0  0
   -1.7220   -6.2010   -1.2400 C   0  0  0  0  0  0  0  0  0  0  0  0
    0.5640   -4.4250   -5.2160 C   0  0  0  0  0  0  0  0  0  0  0  0
   -0.5550   -8.6850   -1.7300 C   0  0  0  0  0  0  0  0  0  0  0  0
   -0.2940   -7.6170   -2.5720 C   0  0  0  0  0  0  0  0  0  0  0  0
   -1.4000   -8.5310   -0.6230 C   0  0  0  0  0  0  0  0  0  0  0  0
   -1.9830   -7.2710   -0.3860 C   0  0  0  0  0  0  0  0  0  0  0  0
   -2.7410   -7.3710    0.7930 N   0  0  0  0  0  0  0  0  0  0  0  0
   -2.6210   -8.6740    1.2640 C   0  0  0  0  0  0  0  0  0  0  0  0
   -1.8260   -9.3970    0.4390 C   0  0  0  0  0  0  0  0  0  0  0  0
   -3.5440   -6.3820    1.4350 C   0  0  0  0  0  0  0  0  0  0  0  0
   -4.1130   -6.5780    2.4780 O   0  0  0  0  0  0  0  0  0  0  0  0
   -3.5860   -5.2280    0.7600 O   0  0  0  0  0  0  0  0  0  0  0  0
    1.6960   -3.7620   -4.7580 C   0  0  0  0  0  0  0  0  0  0  0  0
   -4.2350   -4.1010    1.4250 C   0  0  0  0  0  0  0  0  0  0  0  0
   -3.8860   -2.9260    0.6430 C   0  0  0  0  0  0  0  0  0  0  0  0
    2.3130   -2.7920   -5.5430 C   0  0  0  0  0  0  0  0  0  0  0  0
    1.7620   -2.4660   -6.7820 C   0  0  0  0  0  0  0  0  0  0  0  0
    0.6320   -3.1250   -7.2360 C   0  0  0  0  0  0  0  0  0  0  0  0
   -1.2520   -4.7830   -6.9680 C   0  0  0  0  0  0  0  0  0  0  0  0
    3.5910   -2.2510   -4.9930 C   0  0  0  0  0  0  0  0  0  0  0  0
    4.1230   -2.7790   -4.0200 O   0  0  0  0  0  0  0  0  0  0  0  0
    3.6109   -0.7874   -6.4232 H   0  0  0  0  0  0  0  0  0  0  0  0
    4.8103   -0.1413   -4.2111 H   0  0  0  0  0  0  0  0  0  0  0  0
    6.6887    1.0944   -5.9039 H   0  0  0  0  0  0  0  0  0  0  0  0
    6.0755    0.4543   -7.1812 H   0  0  0  0  0  0  0  0  0  0  0  0
    6.6432   -2.0446   -6.0025 H   0  0  0  0  0  0  0  0  0  0  0  0
    7.4818   -1.4020   -4.8604 H   0  0  0  0  0  0  0  0  0  0  0  0
   -0.0865   -6.3627   -4.7434 H   0  0  0  0  0  0  0  0  0  0  0  0
   -2.1871   -5.2223   -1.0506 H   0  0  0  0  0  0  0  0  0  0  0  0
   -0.0946   -9.6634   -1.9321 H   0  0  0  0  0  0  0  0  0  0  0  0
    0.3743   -7.7533   -3.4350 H   0  0  0  0  0  0  0  0  0  0  0  0
   -3.1018   -9.0614    2.1743 H   0  0  0  0  0  0  0  0  0  0  0  0
   -1.5559  -10.4563    0.5611 H   0  0  0  0  0  0  0  0  0  0  0  0
    2.1078   -4.0055   -3.7675 H   0  0  0  0  0  0  0  0  0  0  0  0
   -3.8645   -3.9992    2.4557 H   0  0  0  0  0  0  0  0  0  0  0  0
   -5.3247   -4.2388    1.4849 H   0  0  0  0  0  0  0  0  0  0  0  0
   -3.6392   -2.0950    1.3201 H   0  0  0  0  0  0  0  0  0  0  0  0
   -3.0164   -3.1528    0.0086 H   0  0  0  0  0  0  0  0  0  0  0  0
   -4.7384   -2.6413    0.0086 H   0  0  0  0  0  0  0  0  0  0  0  0
    2.2262   -1.6834   -7.4001 H   0  0  0  0  0  0  0  0  0  0  0  0
    0.2195   -2.8642   -8.2218 H   0  0  0  0  0  0  0  0  0  0  0  0
   -1.8577   -5.1066   -6.1087 H   0  0  0  0  0  0  0  0  0  0  0  0
   -1.8306   -4.0739   -7.5782 H   0  0  0  0  0  0  0  0  0  0  0  0
   -0.9841   -5.6582   -7.5782 H   0  0  0  0  0  0  0  0  0  0  0  0
 27 26  1  0
 27  1  2  0
 28  1  1  0
 26 25  2  0
  1 11  1  0
  4  5  1  0
  4  3  1  0
  2  3  1  0
  2 29  1  0
 25 29  1  0
 25 22  1  0
  5  3  1  0
 11 22  2  0
 11  6  1  0
 29 30  2  0
  6  7  1  0
  7  8  2  0
  7  9  1  0
 13  9  1  0
 13 12  2  0
  9 10  2  0
 12 14  1  0
 10 15  1  0
 14 15  2  0
 14 18  1  0
 15 16  1  0
 18 17  2  0
 24 23  1  0
 21 23  1  0
 21 19  1  0
 16 17  1  0
 16 19  1  0
 19 20  2  0
  2 31  1  0
  3 32  1  0
  4 33  1  0
  4 34  1  0
  5 35  1  0
  5 36  1  0
  6 37  1  0
 10 38  1  0
 12 39  1  0
 13 40  1  0
 17 41  1  0
 18 42  1  0
 22 43  1  0
 23 44  1  0
 23 45  1  0
 24 46  1  0
 24 47  1  0
 24 48  1  0
 26 49  1  0
 27 50  1  0
 28 51  1  0
 28 52  1  0
 28 53  1  0
A    1
C1
A    2
N10
A    3
C11
A    4
C12
A    5
C13
A    6
N14
A    7
C16
A    8
O17
A    9
C18
A   10
C19
A   11
C2
A   12
C20
A   13
C21
A   14
C22
A   15
C23
A   16
N24
A   17
C25
A   18
C26
A   19
C27
A   20
O28
A   21
O29
A   22
C3
A   23
C30
A   24
C31
A   25
C4
A   26
C5
A   27
C6
A   28
C7
A   29
C8
A   30
O9
M  END
