1D1Q_4NP_A_401
     RDKit          3D

 20 20  0  0  0  0  0  0  0  0999 V2000
    0.7860    2.9100   29.0260 P   0  0  0  0  0  0  0  0  0  0  0  0
   -0.6960    3.1720   29.7590 O   0  0  0  0  0  0  0  0  0  0  0  0
    1.7280    3.6470   29.9540 O   0  0  0  0  0  0  0  0  0  0  0  0
    0.6700    3.4530   27.6060 O   0  0  0  0  0  0  0  0  0  0  0  0
    0.9490    1.4220   29.0420 O   0  0  0  0  0  0  0  0  0  0  0  0
   -1.9240    3.1360   29.1580 C   0  0  0  0  0  0  0  0  0  0  0  0
   -2.1950    2.1760   28.1570 C   0  0  0  0  0  0  0  0  0  0  0  0
   -3.4490    2.1510   27.5290 C   0  0  0  0  0  0  0  0  0  0  0  0
   -4.4310    3.0750   27.8990 C   0  0  0  0  0  0  0  0  0  0  0  0
   -4.2000    4.0330   28.8940 C   0  0  0  0  0  0  0  0  0  0  0  0
   -2.9450    4.0720   29.5300 C   0  0  0  0  0  0  0  0  0  0  0  0
   -5.7500    3.0390   27.2130 N   0  0  0  0  0  0  0  0  0  0  0  0
   -6.6790    3.6090   27.7490 O   0  0  0  0  0  0  0  0  0  0  0  0
   -5.8310    2.4560   26.1390 O   0  0  0  0  0  0  0  0  0  0  0  0
    0.4633    4.4206   27.6386 H   0  0  0  0  0  0  0  0  0  0  0  0
    0.9838    1.1039   29.9789 H   0  0  0  0  0  0  0  0  0  0  0  0
   -1.4220    1.4479   27.8701 H   0  0  0  0  0  0  0  0  0  0  0  0
   -3.6593    1.4062   26.7473 H   0  0  0  0  0  0  0  0  0  0  0  0
   -4.9892    4.7459   29.1749 H   0  0  0  0  0  0  0  0  0  0  0  0
   -2.7474    4.8200   30.3120 H   0  0  0  0  0  0  0  0  0  0  0  0
  1  2  1  0
  1  3  2  0
  1  4  1  0
  1  5  1  0
  2  6  1  0
  6  7  2  0
  6 11  1  0
  7  8  1  0
  8  9  2  0
  9 10  1  0
  9 12  1  0
 10 11  2  0
 12 13  1  0
 12 14  2  0
  4 15  1  0
  5 16  1  0
  7 17  1  0
  8 18  1  0
 10 19  1  0
 11 20  1  0
M  CHG  2  12   1  13  -1
A    1
P
A    2
O1
A    3
O2
A    4
O3
A    5
O4
A    6
C1
A    7
C2
A    8
C3
A    9
C4
A   10
C5
A   11
C6
A   12
N
A   13
O5
A   14
O6
M  END
