4KJV_1RK_A_502
     RDKit          3D

 73 77  0  0  0  0  0  0  0  0999 V2000
   27.8440   28.0450   10.7760 C   0  0  0  0  0  0  0  0  0  0  0  0
   27.8590   29.4480   11.1160 O   0  0  0  0  0  0  0  0  0  0  0  0
   28.5050   29.9000   12.2720 C   0  0  0  0  0  0  0  0  0  0  0  0
   29.3100   29.0850   13.0900 C   0  0  0  0  0  0  0  0  0  0  0  0
   29.8970   29.5910   14.2480 C   0  0  0  0  0  0  0  0  0  0  0  0
   29.7080   30.9650   14.5830 C   0  0  0  0  0  0  0  0  0  0  0  0
   30.2890   31.5110   15.7380 C   0  0  0  0  0  0  0  0  0  0  0  0
   30.1260   32.8710   16.1200 C   0  0  0  0  0  0  0  0  0  0  0  0
   30.7320   33.4090   17.2670 C   0  0  0  0  0  0  0  0  0  0  0  0
   30.3870   34.5340   17.7290 O   0  0  0  0  0  0  0  0  0  0  0  0
   31.6110   32.7670   17.8710 O   0  0  0  0  0  0  0  0  0  0  0  0
   29.3220   33.7020   15.3210 C   0  0  0  0  0  0  0  0  0  0  0  0
   28.7610   33.1700   14.1640 C   0  0  0  0  0  0  0  0  0  0  0  0
   28.9130   31.8040   13.7710 C   0  0  0  0  0  0  0  0  0  0  0  0
   28.3170   31.2920   12.6160 C   0  0  0  0  0  0  0  0  0  0  0  0
   27.4890   32.1200   11.8140 C   0  0  0  0  0  0  0  0  0  0  0  0
   28.2940   33.1620   11.0470 N   0  0  0  0  0  0  0  0  0  0  0  0
   27.9320   34.4970   11.0520 C   0  0  0  0  0  0  0  0  0  0  0  0
   27.0020   34.9040   11.8040 O   0  0  0  0  0  0  0  0  0  0  0  0
   29.4510   32.7560   10.3470 C   0  0  0  0  0  0  0  0  0  0  0  0
   29.4590   31.5990    9.5540 C   0  0  0  0  0  0  0  0  0  0  0  0
   30.6210   31.2300    8.8180 C   0  0  0  0  0  0  0  0  0  0  0  0
   31.7710   32.0220    8.8980 C   0  0  0  0  0  0  0  0  0  0  0  0
   31.8090   33.1690    9.7160 C   0  0  0  0  0  0  0  0  0  0  0  0
   30.6150   33.5360   10.4150 C   0  0  0  0  0  0  0  0  0  0  0  0
   30.7420   34.6840   11.2000 O   0  0  0  0  0  0  0  0  0  0  0  0
   30.0620   35.8770   10.7730 C   0  0  0  0  0  0  0  0  0  0  0  0
   30.8340   36.4970    9.6210 C   0  0  0  0  0  0  0  0  0  0  0  0
   32.0340   37.2800   10.1710 C   0  0  0  0  0  0  0  0  0  0  0  0
   31.8320   38.0250   11.3490 O   0  0  0  0  0  0  0  0  0  0  0  0
   31.3900   37.2310   12.3990 C   0  0  0  0  0  0  0  0  0  0  0  0
   29.9690   36.7830   11.9910 C   0  0  0  0  0  0  0  0  0  0  0  0
   28.6350   35.4810   10.2010 C   0  0  0  0  0  0  0  0  0  0  0  0
   27.7280   36.6140    9.8590 N   0  0  0  0  0  0  0  0  0  0  0  0
   26.8940   36.5690    8.8080 C   0  0  0  0  0  0  0  0  0  0  0  0
   26.8140   35.6210    8.0130 O   0  0  0  0  0  0  0  0  0  0  0  0
   25.8590   37.7300    8.7820 C   0  0  0  0  0  0  0  0  0  0  0  0
   24.6830   37.3850    9.8060 C   0  0  0  0  0  0  0  0  0  0  0  0
   25.3230   37.9140    7.4420 N   0  0  0  0  0  0  0  0  0  0  0  0
   26.3220   38.3710    6.4080 C   0  0  0  0  0  0  0  0  0  0  0  0
   27.8376   27.4444   11.6976 H   0  0  0  0  0  0  0  0  0  0  0  0
   26.9434   27.8204   10.1857 H   0  0  0  0  0  0  0  0  0  0  0  0
   28.7396   27.8012   10.1857 H   0  0  0  0  0  0  0  0  0  0  0  0
   29.4780   28.0342   12.8113 H   0  0  0  0  0  0  0  0  0  0  0  0
   30.4995   28.9383   14.8968 H   0  0  0  0  0  0  0  0  0  0  0  0
   30.8990   30.8563   16.3777 H   0  0  0  0  0  0  0  0  0  0  0  0
   31.6246   32.7571   18.8609 H   0  0  0  0  0  0  0  0  0  0  0  0
   29.1403   34.7494   15.6039 H   0  0  0  0  0  0  0  0  0  0  0  0
   28.1696   33.8355   13.5180 H   0  0  0  0  0  0  0  0  0  0  0  0
   26.7676   32.6367   12.4641 H   0  0  0  0  0  0  0  0  0  0  0  0
   26.9769   31.4795   11.0808 H   0  0  0  0  0  0  0  0  0  0  0  0
   28.5582   30.9700    9.5000 H   0  0  0  0  0  0  0  0  0  0  0  0
   30.6141   30.3269    8.1900 H   0  0  0  0  0  0  0  0  0  0  0  0
   32.6604   31.7451    8.3129 H   0  0  0  0  0  0  0  0  0  0  0  0
   32.7287   33.7644    9.8144 H   0  0  0  0  0  0  0  0  0  0  0  0
   30.1754   37.1794    9.0636 H   0  0  0  0  0  0  0  0  0  0  0  0
   31.1916   35.7022    8.9498 H   0  0  0  0  0  0  0  0  0  0  0  0
   32.8377   36.5561   10.3712 H   0  0  0  0  0  0  0  0  0  0  0  0
   32.2620   38.0287    9.3980 H   0  0  0  0  0  0  0  0  0  0  0  0
   32.0481   36.3591   12.5280 H   0  0  0  0  0  0  0  0  0  0  0  0
   31.3935   37.7726   13.3564 H   0  0  0  0  0  0  0  0  0  0  0  0
   29.3603   37.6662   11.7472 H   0  0  0  0  0  0  0  0  0  0  0  0
   29.4998   36.2375   12.8230 H   0  0  0  0  0  0  0  0  0  0  0  0
   28.8869   35.0124    9.2382 H   0  0  0  0  0  0  0  0  0  0  0  0
   27.7418   37.4586   10.4483 H   0  0  0  0  0  0  0  0  0  0  0  0
   26.3521   38.6679    9.0772 H   0  0  0  0  0  0  0  0  0  0  0  0
   25.0511   37.4930   10.8370 H   0  0  0  0  0  0  0  0  0  0  0  0
   23.8411   38.0740    9.6432 H   0  0  0  0  0  0  0  0  0  0  0  0
   24.3468   36.3504    9.6432 H   0  0  0  0  0  0  0  0  0  0  0  0
   24.5725   38.6176    7.4928 H   0  0  0  0  0  0  0  0  0  0  0  0
   27.2112   38.7778    6.9119 H   0  0  0  0  0  0  0  0  0  0  0  0
   26.6152   37.5175    5.7791 H   0  0  0  0  0  0  0  0  0  0  0  0
   25.8680   39.1510    5.7791 H   0  0  0  0  0  0  0  0  0  0  0  0
 40 39  1  0
 39 37  1  0
 36 35  2  0
 37 35  1  0
 37 38  1  0
 35 34  1  0
 22 23  2  0
 22 21  1  0
 23 24  1  0
 21 20  2  0
 28 29  1  0
 28 27  1  0
 24 25  2  0
 34 33  1  0
 29 30  1  0
 33 27  1  0
 33 18  1  0
 20 25  1  0
 20 17  1  0
 25 26  1  0
 27 26  1  0
 27 32  1  0
  1  2  1  0
 17 18  1  0
 17 16  1  0
 18 19  2  0
  2  3  1  0
 30 31  1  0
 16 15  1  0
 32 31  1  0
  3 15  2  0
  3  4  1  0
 15 14  1  0
  4  5  2  0
 14 13  2  0
 14  6  1  0
 13 12  1  0
  5  6  1  0
  6  7  2  0
 12  8  2  0
  7  8  1  0
  8  9  1  0
  9 10  2  0
  9 11  1  0
  1 41  1  0
  1 42  1  0
  1 43  1  0
  4 44  1  0
  5 45  1  0
  7 46  1  0
 11 47  1  0
 12 48  1  0
 13 49  1  0
 16 50  1  0
 16 51  1  0
 21 52  1  0
 22 53  1  0
 23 54  1  0
 24 55  1  0
 28 56  1  0
 28 57  1  0
 29 58  1  0
 29 59  1  0
 31 60  1  0
 31 61  1  0
 32 62  1  0
 32 63  1  0
 33 64  1  0
 34 65  1  0
 37 66  1  0
 38 67  1  0
 38 68  1  0
 38 69  1  0
 39 70  1  0
 40 71  1  0
 40 72  1  0
 40 73  1  0
A    1
C29
A    2
O28
A    3
C27
A    4
C30
A    5
C31
A    6
C32
A    7
C34
A    8
C35
A    9
C38
A   10
O40
A   11
O39
A   12
C36
A   13
C37
A   14
C33
A   15
C15
A   16
C14
A   17
N13
A   18
C16
A   19
O17
A   20
C12
A   21
C21
A   22
C19
A   23
C20
A   24
C18
A   25
C11
A   26
O10
A   27
C9
A   28
C22
A   29
C23
A   30
O24
A   31
C25
A   32
C26
A   33
C7
A   34
N6
A   35
C5
A   36
O8
A   37
C3
A   38
C4
A   39
N1
A   40
C2
M  END
