4KKO_1RE_A_601
     RDKit          3D

 62 64  0  0  0  0  0  0  0  0999 V2000
   28.3990  -26.6870  146.9430 C   0  0  0  0  0  0  0  0  0  0  0  0
   29.4210  -25.7280  146.3480 C   0  0  0  0  0  0  0  0  0  0  0  0
   28.9880  -24.4000  145.7480 C   0  0  0  0  0  0  0  0  0  0  0  0
   30.6970  -26.1130  146.1010 C   0  0  0  0  0  0  0  0  0  0  0  0
   31.3060  -27.5110  146.0420 C   0  0  0  0  0  0  0  0  0  0  0  0
   30.7290  -28.3270  145.0310 O   0  0  0  0  0  0  0  0  0  0  0  0
   32.4930  -27.5550  141.7290 C   0  0  0  0  0  0  0  0  0  0  0  0
   32.0170  -28.6700  141.0000 C   0  0  0  0  0  0  0  0  0  0  0  0
   31.1640  -29.6040  141.5930 C   0  0  0  0  0  0  0  0  0  0  0  0
   30.7410  -29.4800  142.9300 C   0  0  0  0  0  0  0  0  0  0  0  0
   31.1860  -28.3820  143.7120 C   0  0  0  0  0  0  0  0  0  0  0  0
   32.0620  -27.4300  143.0900 C   0  0  0  0  0  0  0  0  0  0  0  0
   29.8560  -30.4860  143.5010 C   0  0  0  0  0  0  0  0  0  0  0  0
   29.1320  -31.2720  143.9440 N   0  0  0  0  0  0  0  0  0  0  0  0
   33.3370  -26.6310  141.0670 N   0  0  0  0  0  0  0  0  0  0  0  0
   34.6270  -24.7060  140.6380 N   0  0  0  0  0  0  0  0  0  0  0  0
   34.0280  -25.5050  141.5500 C   0  0  0  0  0  0  0  0  0  0  0  0
   34.0930  -25.2380  142.8620 N   0  0  0  0  0  0  0  0  0  0  0  0
   34.7700  -24.1550  143.2710 C   0  0  0  0  0  0  0  0  0  0  0  0
   35.3890  -23.3280  142.4240 N   0  0  0  0  0  0  0  0  0  0  0  0
   35.2990  -23.6180  141.1160 C   0  0  0  0  0  0  0  0  0  0  0  0
   34.8740  -23.8340  144.6080 O   0  0  0  0  0  0  0  0  0  0  0  0
   34.6170  -24.8720  145.5550 C   0  0  0  0  0  0  0  0  0  0  0  0
   35.9880  -22.7060  140.3360 O   0  0  0  0  0  0  0  0  0  0  0  0
   35.4490  -22.0640  139.1900 C   0  0  0  0  0  0  0  0  0  0  0  0
   35.9380  -20.6000  139.1650 C   0  0  0  0  0  0  0  0  0  0  0  0
   36.3190  -20.0860  137.8370 N   0  0  0  0  0  0  0  0  0  0  0  0
   35.1710  -19.4570  137.1450 C   0  0  0  0  0  0  0  0  0  0  0  0
   35.6160  -18.9460  135.7540 C   0  0  0  0  0  0  0  0  0  0  0  0
   36.7060  -18.0240  135.8790 O   0  0  0  0  0  0  0  0  0  0  0  0
   37.8240  -18.5720  136.5780 C   0  0  0  0  0  0  0  0  0  0  0  0
   37.3800  -19.0670  137.9780 C   0  0  0  0  0  0  0  0  0  0  0  0
   28.4484  -26.6406  148.0409 H   0  0  0  0  0  0  0  0  0  0  0  0
   27.3905  -26.4017  146.6090 H   0  0  0  0  0  0  0  0  0  0  0  0
   28.6197  -27.7116  146.6090 H   0  0  0  0  0  0  0  0  0  0  0  0
   29.5058  -25.4957  147.4199 H   0  0  0  0  0  0  0  0  0  0  0  0
   28.7567  -23.6905  146.5562 H   0  0  0  0  0  0  0  0  0  0  0  0
   29.8009  -23.9959  145.1268 H   0  0  0  0  0  0  0  0  0  0  0  0
   28.0931  -24.5527  145.1268 H   0  0  0  0  0  0  0  0  0  0  0  0
   31.2874  -25.5954  146.8714 H   0  0  0  0  0  0  0  0  0  0  0  0
   30.7041  -25.9062  145.0206 H   0  0  0  0  0  0  0  0  0  0  0  0
   31.1551  -28.0002  147.0156 H   0  0  0  0  0  0  0  0  0  0  0  0
   32.3730  -27.3947  145.8012 H   0  0  0  0  0  0  0  0  0  0  0  0
   32.3227  -28.8034  139.9518 H   0  0  0  0  0  0  0  0  0  0  0  0
   30.8130  -30.4604  140.9985 H   0  0  0  0  0  0  0  0  0  0  0  0
   32.4159  -26.5720  143.6804 H   0  0  0  0  0  0  0  0  0  0  0  0
   33.4670  -26.8142  140.0618 H   0  0  0  0  0  0  0  0  0  0  0  0
   34.7163  -24.4710  146.5745 H   0  0  0  0  0  0  0  0  0  0  0  0
   33.5966  -25.2563  145.4099 H   0  0  0  0  0  0  0  0  0  0  0  0
   35.3402  -25.6880  145.4099 H   0  0  0  0  0  0  0  0  0  0  0  0
   34.3502  -22.0862  139.2361 H   0  0  0  0  0  0  0  0  0  0  0  0
   35.7798  -22.5846  138.2792 H   0  0  0  0  0  0  0  0  0  0  0  0
   36.8157  -20.5235  139.8237 H   0  0  0  0  0  0  0  0  0  0  0  0
   35.0851  -19.9886  139.4947 H   0  0  0  0  0  0  0  0  0  0  0  0
   34.8017  -18.6116  137.7440 H   0  0  0  0  0  0  0  0  0  0  0  0
   34.3694  -20.2000  137.0205 H   0  0  0  0  0  0  0  0  0  0  0  0
   34.7692  -18.4404  135.2670 H   0  0  0  0  0  0  0  0  0  0  0  0
   35.9458  -19.8044  135.1503 H   0  0  0  0  0  0  0  0  0  0  0  0
   38.2336  -19.4172  136.0053 H   0  0  0  0  0  0  0  0  0  0  0  0
   38.5936  -17.7949  136.6960 H   0  0  0  0  0  0  0  0  0  0  0  0
   38.2423  -19.5078  138.4996 H   0  0  0  0  0  0  0  0  0  0  0  0
   36.9911  -18.2163  138.5568 H   0  0  0  0  0  0  0  0  0  0  0  0
 29 30  1  0
 29 28  1  0
 30 31  1  0
 31 32  1  0
 28 27  1  0
 27 32  1  0
 27 26  1  0
 26 25  1  0
 25 24  1  0
 24 21  1  0
 16 21  2  0
 16 17  1  0
  8  9  2  0
  8  7  1  0
 15 17  1  0
 15  7  1  0
 21 20  1  0
 17 18  2  0
  9 10  1  0
  7 12  2  0
 20 19  2  0
 18 19  1  0
 10 13  1  0
 10 11  2  0
 12 11  1  0
 19 22  1  0
 13 14  3  0
 11  6  1  0
 22 23  1  0
  6  5  1  0
  3  2  1  0
  5  4  1  0
  4  2  1  0
  2  1  1  0
  1 33  1  0
  1 34  1  0
  1 35  1  0
  2 36  1  0
  3 37  1  0
  3 38  1  0
  3 39  1  0
  4 40  1  0
  4 41  1  0
  5 42  1  0
  5 43  1  0
  8 44  1  0
  9 45  1  0
 12 46  1  0
 15 47  1  0
 23 48  1  0
 23 49  1  0
 23 50  1  0
 25 51  1  0
 25 52  1  0
 26 53  1  0
 26 54  1  0
 28 55  1  0
 28 56  1  0
 29 57  1  0
 29 58  1  0
 31 59  1  0
 31 60  1  0
 32 61  1  0
 32 62  1  0
A    1
CAC
A    2
CAY
A    3
CAB
A    4
CAF
A    5
CAJ
A    6
OAW
A    7
CBA
A    8
CAH
A    9
CAG
A   10
CAZ
A   11
CBE
A   12
CAI
A   13
CAE
A   14
NAD
A   15
NAT
A   16
NAR
A   17
CBB
A   18
NAQ
A   19
CBC
A   20
NAS
A   21
CBD
A   22
OAU
A   23
CAA
A   24
OAX
A   25
CAM
A   26
CAP
A   27
NBF
A   28
CAO
A   29
CAL
A   30
OAV
A   31
CAK
A   32
CAN
M  END
