4KLB_1RV_A_301
     RDKit          3D

 27 28  0  0  0  0  0  0  0  0999 V2000
   30.4750   -2.0920   20.9510 N   0  0  0  0  0  0  0  0  0  0  0  0
   30.9770   -1.0060   20.1800 C   0  0  0  0  0  0  0  0  0  0  0  0
   32.1300   -0.6500   20.3340 O   0  0  0  0  0  0  0  0  0  0  0  0
   30.0880   -0.3050   19.1610 C   0  0  0  0  0  0  0  0  0  0  0  0
   29.8890    1.1010   19.0950 C   0  0  0  0  0  0  0  0  0  0  0  0
   30.4530    2.1360   19.9100 N   0  0  0  0  0  0  0  0  0  0  0  0
   31.7940    2.5720   19.6790 C   0  0  0  0  0  0  0  0  0  0  0  0
   32.4740    2.0700   18.8080 O   0  0  0  0  0  0  0  0  0  0  0  0
   32.4300    3.6800   20.4780 C   0  0  0  0  0  0  0  0  0  0  0  0
   33.2880    4.6840   19.2900 S   0  0  0  0  0  0  0  0  0  0  0  0
   32.1130    5.4220   18.1660 C   0  0  0  0  0  0  0  0  0  0  0  0
   30.7820    5.2500   18.1660 N   0  0  0  0  0  0  0  0  0  0  0  0
   30.2420    5.9640   17.1760 N   0  0  0  0  0  0  0  0  0  0  0  0
   31.2190    6.6030   16.5280 C   0  0  0  0  0  0  0  0  0  0  0  0
   32.3860    6.2700   17.1400 N   0  0  0  0  0  0  0  0  0  0  0  0
   28.8400    1.3700   17.8040 S   0  0  0  0  0  0  0  0  0  0  0  0
   28.5850   -0.1990   17.2820 C   0  0  0  0  0  0  0  0  0  0  0  0
   29.3480   -1.0180   18.1360 C   0  0  0  0  0  0  0  0  0  0  0  0
   30.4961   -2.0463   21.9798 H   0  0  0  0  0  0  0  0  0  0  0  0
   30.0906   -2.9235   20.4802 H   0  0  0  0  0  0  0  0  0  0  0  0
   29.8930    2.5647   20.6607 H   0  0  0  0  0  0  0  0  0  0  0  0
   33.1353    3.2676   21.2146 H   0  0  0  0  0  0  0  0  0  0  0  0
   31.6835    4.2595   21.0409 H   0  0  0  0  0  0  0  0  0  0  0  0
   30.2585    4.6588   18.8273 H   0  0  0  0  0  0  0  0  0  0  0  0
   31.1017    7.2721   15.6628 H   0  0  0  0  0  0  0  0  0  0  0  0
   27.9513   -0.5240   16.4437 H   0  0  0  0  0  0  0  0  0  0  0  0
   29.3807   -2.1128   18.0343 H   0  0  0  0  0  0  0  0  0  0  0  0
 14 15  1  0
 14 13  2  0
 15 11  2  0
 13 12  1  0
 17 16  1  0
 17 18  2  0
 16  5  1  0
 18  4  1  0
 12 11  1  0
 11 10  1  0
  8  7  2  0
  5  4  2  0
  5  6  1  0
  4  2  1  0
 10  9  1  0
  7  6  1  0
  7  9  1  0
  2  3  2  0
  2  1  1  0
  1 19  1  0
  1 20  1  0
  6 21  1  0
  9 22  1  0
  9 23  1  0
 12 24  1  0
 14 25  1  0
 17 26  1  0
 18 27  1  0
A    1
N01
A    2
C01
A    3
O01
A    4
C02
A    5
C05
A    6
N02
A    7
C06
A    8
O02
A    9
C07
A   10
S01
A   11
C08
A   12
N03
A   13
N04
A   14
C09
A   15
N05
A   16
S02
A   17
C04
A   18
C03
M  END
