4KMN_436_A_502
     RDKit          3D

114119  0  0  0  0  0  0  0  0999 V2000
   -8.2420   54.7710    8.6050 C   0  0  0  0  0  0  0  0  0  0  0  0
   -7.4180   53.6430    8.1990 N   0  0  0  0  0  0  0  0  0  0  0  0
   -6.3530   53.2640    9.1090 C   0  0  0  0  0  0  0  0  0  0  0  0
   -5.3450   54.3580    9.2490 C   0  0  0  0  0  0  0  0  0  0  0  0
   -4.5240   54.3380   10.3130 N   0  0  0  0  0  0  0  0  0  0  0  0
   -3.4200   55.2770   10.5020 C   0  0  0  0  0  0  0  0  0  0  0  0
   -2.2860   54.6220   11.2400 C   0  0  0  0  0  0  0  0  0  0  0  0
   -1.0670   55.1180   11.1230 N   0  0  0  0  0  0  0  0  0  0  0  0
   -5.2700   55.2590    8.4230 O   0  0  0  0  0  0  0  0  0  0  0  0
   -2.5060   53.5860   11.8590 O   0  0  0  0  0  0  0  0  0  0  0  0
   -0.6580   56.2450   10.2750 C   0  0  0  0  0  0  0  0  0  0  0  0
    0.8500   56.3170   10.4070 C   0  0  0  0  0  0  0  0  0  0  0  0
    1.2760   54.9550   10.9160 C   0  0  0  0  0  0  0  0  0  0  0  0
    0.0820   54.4370   11.7070 C   0  0  0  0  0  0  0  0  0  0  0  0
    0.1300   54.8120   13.2220 C   0  0  0  0  0  0  0  0  0  0  0  0
    1.2150   53.9750   13.8630 C   0  0  0  0  0  0  0  0  0  0  0  0
    1.2800   52.5130   14.0660 C   0  0  0  0  0  0  0  0  0  0  0  0
    2.5640   52.2280   14.7240 C   0  0  0  0  0  0  0  0  0  0  0  0
    3.2600   53.3810   14.8920 N   0  0  0  0  0  0  0  0  0  0  0  0
    2.4940   54.3990   14.4150 C   0  0  0  0  0  0  0  0  0  0  0  0
    2.8580   50.9130   15.0320 C   0  0  0  0  0  0  0  0  0  0  0  0
    1.9350   49.9130   14.7400 C   0  0  0  0  0  0  0  0  0  0  0  0
    0.7090   50.1740   14.1220 C   0  0  0  0  0  0  0  0  0  0  0  0
    0.3700   51.4980   13.7820 C   0  0  0  0  0  0  0  0  0  0  0  0
    2.2730   48.6470   15.0350 F   0  0  0  0  0  0  0  0  0  0  0  0
   -5.6860   52.0070    8.5680 C   0  0  0  0  0  0  0  0  0  0  0  0
   -3.8700   56.5210   11.2900 C   0  0  0  0  0  0  0  0  0  0  0  0
   -4.4330   56.1030   12.6420 C   0  0  0  0  0  0  0  0  0  0  0  0
    1.1720   57.2900   11.4150 O   0  0  0  0  0  0  0  0  0  0  0  0
    4.8940   51.1590   18.3110 C   0  0  0  0  0  0  0  0  0  0  0  0
    5.4040   50.9250   19.6550 N   0  0  0  0  0  0  0  0  0  0  0  0
    4.5090   51.1270   20.7890 C   0  0  0  0  0  0  0  0  0  0  0  0
    4.0280   52.5570   20.8130 C   0  0  0  0  0  0  0  0  0  0  0  0
    2.7240   52.7610   21.0170 N   0  0  0  0  0  0  0  0  0  0  0  0
    2.0890   54.0500   20.7640 C   0  0  0  0  0  0  0  0  0  0  0  0
    2.2130   54.4970   19.3210 C   0  0  0  0  0  0  0  0  0  0  0  0
    2.2930   55.8130   19.0970 N   0  0  0  0  0  0  0  0  0  0  0  0
    4.8130   53.4770   20.6320 O   0  0  0  0  0  0  0  0  0  0  0  0
    2.2060   53.6390   18.4350 O   0  0  0  0  0  0  0  0  0  0  0  0
    2.3960   56.8890   20.0870 C   0  0  0  0  0  0  0  0  0  0  0  0
    2.8740   58.1120   19.3220 C   0  0  0  0  0  0  0  0  0  0  0  0
    2.2380   57.9040   17.9550 C   0  0  0  0  0  0  0  0  0  0  0  0
    2.2220   56.3900   17.7400 C   0  0  0  0  0  0  0  0  0  0  0  0
    3.5170   56.0200   17.0840 C   0  0  0  0  0  0  0  0  0  0  0  0
    3.4170   56.5200   15.6610 C   0  0  0  0  0  0  0  0  0  0  0  0
    3.7660   57.8610   15.1330 C   0  0  0  0  0  0  0  0  0  0  0  0
    3.5210   57.8400   13.6790 C   0  0  0  0  0  0  0  0  0  0  0  0
    3.0630   56.5990   13.3380 N   0  0  0  0  0  0  0  0  0  0  0  0
    2.9610   55.8190   14.4480 C   0  0  0  0  0  0  0  0  0  0  0  0
    3.7870   59.0120   12.9760 C   0  0  0  0  0  0  0  0  0  0  0  0
    4.2920   60.1470   13.6220 C   0  0  0  0  0  0  0  0  0  0  0  0
    4.5080   60.1340   14.9910 C   0  0  0  0  0  0  0  0  0  0  0  0
    4.2660   58.9910   15.7460 C   0  0  0  0  0  0  0  0  0  0  0  0
    4.5520   61.2880   12.9510 F   0  0  0  0  0  0  0  0  0  0  0  0
    5.2070   50.7480   22.0930 C   0  0  0  0  0  0  0  0  0  0  0  0
    0.6160   53.9300   21.1440 C   0  0  0  0  0  0  0  0  0  0  0  0
    0.5260   53.6570   22.6390 C   0  0  0  0  0  0  0  0  0  0  0  0
    4.3010   58.1270   19.1430 O   0  0  0  0  0  0  0  0  0  0  0  0
   -8.2790   54.8216    9.7032 H   0  0  0  0  0  0  0  0  0  0  0  0
   -7.8098   55.7020    8.2094 H   0  0  0  0  0  0  0  0  0  0  0  0
   -9.2603   54.6424    8.2094 H   0  0  0  0  0  0  0  0  0  0  0  0
   -8.0369   52.8278    8.0834 H   0  0  0  0  0  0  0  0  0  0  0  0
   -6.7780   53.0759   10.1060 H   0  0  0  0  0  0  0  0  0  0  0  0
   -4.6816   53.6210   11.0355 H   0  0  0  0  0  0  0  0  0  0  0  0
   -3.0841   55.5867    9.5014 H   0  0  0  0  0  0  0  0  0  0  0  0
   -1.1207   57.1792   10.6259 H   0  0  0  0  0  0  0  0  0  0  0  0
   -0.9724   56.1076    9.2299 H   0  0  0  0  0  0  0  0  0  0  0  0
    1.3388   56.5860    9.4590 H   0  0  0  0  0  0  0  0  0  0  0  0
    1.5040   54.2825   10.0759 H   0  0  0  0  0  0  0  0  0  0  0  0
    2.1859   55.0107   11.5316 H   0  0  0  0  0  0  0  0  0  0  0  0
    0.0542   53.3386   11.6543 H   0  0  0  0  0  0  0  0  0  0  0  0
    0.3627   55.8809   13.3372 H   0  0  0  0  0  0  0  0  0  0  0  0
   -0.8417   54.6191   13.7000 H   0  0  0  0  0  0  0  0  0  0  0  0
    4.1990   53.4693   15.3060 H   0  0  0  0  0  0  0  0  0  0  0  0
    3.8174   50.6579   15.5059 H   0  0  0  0  0  0  0  0  0  0  0  0
    0.0133   49.3507   13.9026 H   0  0  0  0  0  0  0  0  0  0  0  0
   -0.5933   51.7255   13.3022 H   0  0  0  0  0  0  0  0  0  0  0  0
   -5.3526   51.3787    9.4071 H   0  0  0  0  0  0  0  0  0  0  0  0
   -6.4051   51.4460    7.9530 H   0  0  0  0  0  0  0  0  0  0  0  0
   -4.8184   52.2880    7.9530 H   0  0  0  0  0  0  0  0  0  0  0  0
   -3.0079   57.1867   11.4440 H   0  0  0  0  0  0  0  0  0  0  0  0
   -4.6497   57.0478   10.7204 H   0  0  0  0  0  0  0  0  0  0  0  0
   -3.8294   56.5512   13.4450 H   0  0  0  0  0  0  0  0  0  0  0  0
   -5.4735   56.4491   12.7288 H   0  0  0  0  0  0  0  0  0  0  0  0
   -4.4027   55.0068   12.7288 H   0  0  0  0  0  0  0  0  0  0  0  0
    1.0403   56.8920   12.3119 H   0  0  0  0  0  0  0  0  0  0  0  0
    3.8958   51.6170   18.3722 H   0  0  0  0  0  0  0  0  0  0  0  0
    5.5751   51.8347   17.7729 H   0  0  0  0  0  0  0  0  0  0  0  0
    4.8260   50.2020   17.7729 H   0  0  0  0  0  0  0  0  0  0  0  0
    5.7238   49.9466   19.6918 H   0  0  0  0  0  0  0  0  0  0  0  0
    3.6316   50.4724   20.6810 H   0  0  0  0  0  0  0  0  0  0  0  0
    2.1470   51.9819   21.3648 H   0  0  0  0  0  0  0  0  0  0  0  0
    2.6013   54.8124   21.3692 H   0  0  0  0  0  0  0  0  0  0  0  0
    1.4149   57.0831   20.5450 H   0  0  0  0  0  0  0  0  0  0  0  0
    3.0874   56.6251   20.9009 H   0  0  0  0  0  0  0  0  0  0  0  0
    2.6136   59.0454   19.8426 H   0  0  0  0  0  0  0  0  0  0  0  0
    2.8350   58.3973   17.1738 H   0  0  0  0  0  0  0  0  0  0  0  0
    1.2271   58.3348   17.9046 H   0  0  0  0  0  0  0  0  0  0  0  0
    1.3523   56.0581   17.1540 H   0  0  0  0  0  0  0  0  0  0  0  0
    3.6549   54.9288   17.0975 H   0  0  0  0  0  0  0  0  0  0  0  0
    4.3768   56.4624   17.6085 H   0  0  0  0  0  0  0  0  0  0  0  0
    2.8292   56.2980   12.3811 H   0  0  0  0  0  0  0  0  0  0  0  0
    3.5969   59.0469   11.8931 H   0  0  0  0  0  0  0  0  0  0  0  0
    4.8770   61.0428   15.4889 H   0  0  0  0  0  0  0  0  0  0  0  0
    4.4723   58.9883   16.8265 H   0  0  0  0  0  0  0  0  0  0  0  0
    4.5962   51.0796   22.9456 H   0  0  0  0  0  0  0  0  0  0  0  0
    5.3352   49.6564   22.1364 H   0  0  0  0  0  0  0  0  0  0  0  0
    6.1924   51.2350   22.1364 H   0  0  0  0  0  0  0  0  0  0  0  0
    0.0932   54.8680   20.9055 H   0  0  0  0  0  0  0  0  0  0  0  0
    0.1461   53.1100   20.5812 H   0  0  0  0  0  0  0  0  0  0  0  0
    0.8232   54.5585   23.1949 H   0  0  0  0  0  0  0  0  0  0  0  0
   -0.5081   53.3888   22.9012 H   0  0  0  0  0  0  0  0  0  0  0  0
    1.1979   52.8264   22.9012 H   0  0  0  0  0  0  0  0  0  0  0  0
    4.7446   58.1317   20.0281 H   0  0  0  0  0  0  0  0  0  0  0  0
  2  1  1  0
  2  3  1  0
  9  4  2  0
 26  3  1  0
  3  4  1  0
  4  5  1  0
 11 12  1  0
 11  8  1  0
  5  6  1  0
 12 13  1  0
 12 29  1  0
  6  7  1  0
  6 27  1  0
 13 14  1  0
  8  7  1  0
  8 14  1  0
  7 10  2  0
 27 28  1  0
 14 15  1  0
 54 51  1  0
 50 51  1  0
 50 47  2  0
 15 16  1  0
 48 47  1  0
 48 49  1  0
 51 52  2  0
 47 46  1  0
 24 17  1  0
 24 23  2  0
 16 17  1  0
 16 20  2  0
 17 18  2  0
 23 22  1  0
 20 49  1  0
 20 19  1  0
 49 45  2  0
 18 19  1  0
 18 21  1  0
 22 21  2  0
 22 25  1  0
 52 53  1  0
 46 45  1  0
 46 53  2  0
 45 44  1  0
 44 43  1  0
 43 42  1  0
 43 37  1  0
 42 41  1  0
 30 31  1  0
 39 36  2  0
 37 36  1  0
 37 40  1  0
 58 41  1  0
 36 35  1  0
 41 40  1  0
 31 32  1  0
 38 33  2  0
 35 34  1  0
 35 56  1  0
 32 33  1  0
 32 55  1  0
 33 34  1  0
 56 57  1  0
  1 59  1  0
  1 60  1  0
  1 61  1  0
  2 62  1  0
  3 63  1  0
  5 64  1  0
  6 65  1  0
 11 66  1  0
 11 67  1  0
 12 68  1  0
 13 69  1  0
 13 70  1  0
 14 71  1  0
 15 72  1  0
 15 73  1  0
 19 74  1  0
 21 75  1  0
 23 76  1  0
 24 77  1  0
 26 78  1  0
 26 79  1  0
 26 80  1  0
 27 81  1  0
 27 82  1  0
 28 83  1  0
 28 84  1  0
 28 85  1  0
 29 86  1  0
 30 87  1  0
 30 88  1  0
 30 89  1  0
 31 90  1  0
 32 91  1  0
 34 92  1  0
 35 93  1  0
 40 94  1  0
 40 95  1  0
 41 96  1  0
 42 97  1  0
 42 98  1  0
 43 99  1  0
 44100  1  0
 44101  1  0
 48102  1  0
 50103  1  0
 52104  1  0
 53105  1  0
 55106  1  0
 55107  1  0
 55108  1  0
 56109  1  0
 56110  1  0
 57111  1  0
 57112  1  0
 57113  1  0
 58114  1  0
A    1
C0
A    2
N1
A    3
CA1
A    4
C1
A    5
N2
A    6
CA2
A    7
C2
A    8
N3
A    9
O1
A   10
O2
A   11
CD3
A   12
CG3
A   13
CB3
A   14
CA3
A   15
CB4
A   16
CG4
A   17
CD2
A   18
CE2
A   19
NE1
A   20
CD1
A   21
CZ2
A   22
CH2
A   23
CZ3
A   24
CE3
A   25
F
A   26
CB1
A   27
CB2
A   28
CG2
A   29
OG3
A   30
C5
A   31
N6
A   32
CA6
A   33
C6
A   34
N7
A   35
CA7
A   36
C7
A   37
N8
A   38
O6
A   39
O7
A   40
CD8
A   41
CG8
A   42
CB8
A   43
CA8
A   44
CB9
A   45
CG9
A   46
CD7
A   47
CE7
A   48
NE6
A   49
CD6
A   50
CZ7
A   51
CH7
A   52
CZ8
A   53
CE8
A   54
F5
A   55
CB6
A   56
CB7
A   57
CG7
A   58
OG8
M  END
