4KMP_GT6_B_402
     RDKit          3D

114119  0  0  0  0  0  0  0  0999 V2000
    7.2080    3.0430   -2.2340 C   0  0  0  0  0  0  0  0  0  0  0  0
    8.0450    2.9760   -3.4280 N   0  0  0  0  0  0  0  0  0  0  0  0
    9.3140    2.2700   -3.3350 C   0  0  0  0  0  0  0  0  0  0  0  0
   10.2620    3.0510   -2.4760 C   0  0  0  0  0  0  0  0  0  0  0  0
   11.3050    2.3850   -1.9950 N   0  0  0  0  0  0  0  0  0  0  0  0
   12.2820    3.0090   -1.1220 C   0  0  0  0  0  0  0  0  0  0  0  0
   13.5270    2.1780   -1.1790 C   0  0  0  0  0  0  0  0  0  0  0  0
   14.6800    2.6630   -0.7160 N   0  0  0  0  0  0  0  0  0  0  0  0
   10.0520    4.2330   -2.2440 O   0  0  0  0  0  0  0  0  0  0  0  0
   13.4470    1.0700   -1.7030 O   0  0  0  0  0  0  0  0  0  0  0  0
   14.9920    4.0120   -0.2160 C   0  0  0  0  0  0  0  0  0  0  0  0
   16.4620    4.1530   -0.6190 C   0  0  0  0  0  0  0  0  0  0  0  0
   17.0100    2.7620   -0.3500 C   0  0  0  0  0  0  0  0  0  0  0  0
   15.8760    1.8090   -0.7480 C   0  0  0  0  0  0  0  0  0  0  0  0
   15.6950    0.7060    0.2940 C   0  0  0  0  0  0  0  0  0  0  0  0
   16.8840   -0.2370    0.3080 C   0  0  0  0  0  0  0  0  0  0  0  0
   17.2260   -1.2140   -0.6170 C   0  0  0  0  0  0  0  0  0  0  0  0
   18.3960   -1.8520   -0.1950 C   0  0  0  0  0  0  0  0  0  0  0  0
   18.8180   -1.3110    0.9760 N   0  0  0  0  0  0  0  0  0  0  0  0
   17.9020   -0.3500    1.2400 C   0  0  0  0  0  0  0  0  0  0  0  0
   18.9180   -2.8700   -0.9820 C   0  0  0  0  0  0  0  0  0  0  0  0
   18.2840   -3.2400   -2.1600 C   0  0  0  0  0  0  0  0  0  0  0  0
   17.1110   -2.5990   -2.5770 C   0  0  0  0  0  0  0  0  0  0  0  0
   16.5740   -1.5750   -1.7970 C   0  0  0  0  0  0  0  0  0  0  0  0
   18.8230   -4.2310   -2.8890 F   0  0  0  0  0  0  0  0  0  0  0  0
    9.9380    2.0230   -4.7060 C   0  0  0  0  0  0  0  0  0  0  0  0
   11.7220    3.0720    0.2960 C   0  0  0  0  0  0  0  0  0  0  0  0
   11.6390    1.6920    0.9130 C   0  0  0  0  0  0  0  0  0  0  0  0
   17.1770    5.1480    0.1310 O   0  0  0  0  0  0  0  0  0  0  0  0
    7.2140   -3.0590    6.0240 C   0  0  0  0  0  0  0  0  0  0  0  0
    8.0750   -2.9440    7.1910 N   0  0  0  0  0  0  0  0  0  0  0  0
    9.3220   -2.2160    7.0230 C   0  0  0  0  0  0  0  0  0  0  0  0
   10.2890   -3.0080    6.1940 C   0  0  0  0  0  0  0  0  0  0  0  0
   11.3020   -2.3220    5.6990 N   0  0  0  0  0  0  0  0  0  0  0  0
   12.2740   -2.9020    4.7830 C   0  0  0  0  0  0  0  0  0  0  0  0
   13.5330   -2.0900    4.9020 C   0  0  0  0  0  0  0  0  0  0  0  0
   14.6920   -2.5760    4.4460 N   0  0  0  0  0  0  0  0  0  0  0  0
   10.1290   -4.2050    5.9970 O   0  0  0  0  0  0  0  0  0  0  0  0
   13.4510   -1.0060    5.4640 O   0  0  0  0  0  0  0  0  0  0  0  0
   14.9730   -3.9220    3.9320 C   0  0  0  0  0  0  0  0  0  0  0  0
   16.4290   -4.1060    4.3490 C   0  0  0  0  0  0  0  0  0  0  0  0
   17.0160   -2.7330    4.0880 C   0  0  0  0  0  0  0  0  0  0  0  0
   15.9080   -1.7550    4.4890 C   0  0  0  0  0  0  0  0  0  0  0  0
   15.7650   -0.6390    3.4490 C   0  0  0  0  0  0  0  0  0  0  0  0
   16.9450    0.3240    3.4260 C   0  0  0  0  0  0  0  0  0  0  0  0
   17.3030    1.2870    4.3570 C   0  0  0  0  0  0  0  0  0  0  0  0
   18.4520    1.9650    3.9240 C   0  0  0  0  0  0  0  0  0  0  0  0
   18.8370    1.4620    2.7220 N   0  0  0  0  0  0  0  0  0  0  0  0
   17.9210    0.4990    2.4560 C   0  0  0  0  0  0  0  0  0  0  0  0
   18.9760    2.9740    4.7290 C   0  0  0  0  0  0  0  0  0  0  0  0
   18.3620    3.2910    5.9370 C   0  0  0  0  0  0  0  0  0  0  0  0
   17.2180    2.6120    6.3520 C   0  0  0  0  0  0  0  0  0  0  0  0
   16.6830    1.6020    5.5620 C   0  0  0  0  0  0  0  0  0  0  0  0
   18.8800    4.2630    6.7150 F   0  0  0  0  0  0  0  0  0  0  0  0
    9.9810   -1.8370    8.3510 C   0  0  0  0  0  0  0  0  0  0  0  0
   11.7200   -2.8830    3.3610 C   0  0  0  0  0  0  0  0  0  0  0  0
   11.6810   -1.4700    2.8250 C   0  0  0  0  0  0  0  0  0  0  0  0
   17.1180   -5.1200    3.5930 O   0  0  0  0  0  0  0  0  0  0  0  0
    7.8434    2.9921   -1.3375 H   0  0  0  0  0  0  0  0  0  0  0  0
    6.6466    3.9890   -2.2324 H   0  0  0  0  0  0  0  0  0  0  0  0
    6.5033    2.1984   -2.2324 H   0  0  0  0  0  0  0  0  0  0  0  0
    8.2534    3.9443   -3.7105 H   0  0  0  0  0  0  0  0  0  0  0  0
    9.1170    1.2870   -2.8822 H   0  0  0  0  0  0  0  0  0  0  0  0
   11.4245    1.3941   -2.2495 H   0  0  0  0  0  0  0  0  0  0  0  0
   12.5100    4.0377   -1.4379 H   0  0  0  0  0  0  0  0  0  0  0  0
   14.3669    4.7755   -0.7021 H   0  0  0  0  0  0  0  0  0  0  0  0
   14.8066    4.1461    0.8599 H   0  0  0  0  0  0  0  0  0  0  0  0
   16.5721    4.4936   -1.6591 H   0  0  0  0  0  0  0  0  0  0  0  0
   17.2598    2.6434    0.7147 H   0  0  0  0  0  0  0  0  0  0  0  0
   17.9344    2.5645   -0.9126 H   0  0  0  0  0  0  0  0  0  0  0  0
   16.0699    1.3256   -1.7169 H   0  0  0  0  0  0  0  0  0  0  0  0
   15.5897    1.1653    1.2880 H   0  0  0  0  0  0  0  0  0  0  0  0
   14.7953    0.1280    0.0363 H   0  0  0  0  0  0  0  0  0  0  0  0
   19.6436   -1.5713    1.5342 H   0  0  0  0  0  0  0  0  0  0  0  0
   19.8383   -3.3856   -0.6704 H   0  0  0  0  0  0  0  0  0  0  0  0
   16.6169   -2.9007   -3.5124 H   0  0  0  0  0  0  0  0  0  0  0  0
   15.6523   -1.0607   -2.1066 H   0  0  0  0  0  0  0  0  0  0  0  0
   10.9540    1.6208   -4.5794 H   0  0  0  0  0  0  0  0  0  0  0  0
    9.3243    1.3000   -5.2633 H   0  0  0  0  0  0  0  0  0  0  0  0
    9.9854    2.9702   -5.2633 H   0  0  0  0  0  0  0  0  0  0  0  0
   12.3787    3.7024    0.9136 H   0  0  0  0  0  0  0  0  0  0  0  0
   10.7078    3.4956    0.2518 H   0  0  0  0  0  0  0  0  0  0  0  0
   11.6443    1.7797    2.0095 H   0  0  0  0  0  0  0  0  0  0  0  0
   10.7097    1.2007    0.5889 H   0  0  0  0  0  0  0  0  0  0  0  0
   12.5027    1.0929    0.5889 H   0  0  0  0  0  0  0  0  0  0  0  0
   17.0569    4.9808    1.0994 H   0  0  0  0  0  0  0  0  0  0  0  0
    6.1724   -3.1981    6.3491 H   0  0  0  0  0  0  0  0  0  0  0  0
    7.2904   -2.1427    5.4202 H   0  0  0  0  0  0  0  0  0  0  0  0
    7.5282   -3.9232    5.4202 H   0  0  0  0  0  0  0  0  0  0  0  0
    7.5356   -2.4698    7.9294 H   0  0  0  0  0  0  0  0  0  0  0  0
    9.0613   -1.2802    6.5070 H   0  0  0  0  0  0  0  0  0  0  0  0
   11.4096   -1.3347    5.9721 H   0  0  0  0  0  0  0  0  0  0  0  0
   12.4870   -3.9526    5.0298 H   0  0  0  0  0  0  0  0  0  0  0  0
   14.8588   -3.9671    2.8389 H   0  0  0  0  0  0  0  0  0  0  0  0
   14.2945   -4.6995    4.3131 H   0  0  0  0  0  0  0  0  0  0  0  0
   16.5241   -4.4515    5.3890 H   0  0  0  0  0  0  0  0  0  0  0  0
   17.9155   -2.5727    4.7005 H   0  0  0  0  0  0  0  0  0  0  0  0
   17.3258   -2.6047    3.0404 H   0  0  0  0  0  0  0  0  0  0  0  0
   16.1070   -1.2836    5.4627 H   0  0  0  0  0  0  0  0  0  0  0  0
   14.8530   -0.0670    3.6750 H   0  0  0  0  0  0  0  0  0  0  0  0
   15.7208   -1.1207    2.4611 H   0  0  0  0  0  0  0  0  0  0  0  0
   19.6411    1.7472    2.1449 H   0  0  0  0  0  0  0  0  0  0  0  0
   19.8756    3.5205    4.4096 H   0  0  0  0  0  0  0  0  0  0  0  0
   16.7381    2.8759    7.3060 H   0  0  0  0  0  0  0  0  0  0  0  0
   15.7822    1.0593    5.8846 H   0  0  0  0  0  0  0  0  0  0  0  0
    9.3587   -2.1949    9.1844 H   0  0  0  0  0  0  0  0  0  0  0  0
   10.9768   -2.3004    8.4116 H   0  0  0  0  0  0  0  0  0  0  0  0
   10.0813   -0.7433    8.4116 H   0  0  0  0  0  0  0  0  0  0  0  0
   10.7008   -3.2968    3.3643 H   0  0  0  0  0  0  0  0  0  0  0  0
   12.3742   -3.4891    2.7170 H   0  0  0  0  0  0  0  0  0  0  0  0
   11.6614   -0.7597    3.6647 H   0  0  0  0  0  0  0  0  0  0  0  0
   12.5744   -1.2863    2.2101 H   0  0  0  0  0  0  0  0  0  0  0  0
   10.7788   -1.3358    2.2101 H   0  0  0  0  0  0  0  0  0  0  0  0
   17.5512   -5.7576    4.2143 H   0  0  0  0  0  0  0  0  0  0  0  0
 26  3  1  0
  2  3  1  0
  2  1  1  0
  3  4  1  0
 25 22  1  0
 23 22  2  0
 23 24  1  0
  4  9  2  0
  4  5  1  0
 22 21  1  0
  5  6  1  0
 24 17  2  0
 10  7  2  0
  7  6  1  0
  7  8  1  0
  6 27  1  0
 21 18  2  0
 14  8  1  0
 14 13  1  0
 14 15  1  0
  8 11  1  0
 12 13  1  0
 12 11  1  0
 12 29  1  0
 17 18  1  0
 17 16  1  0
 18 19  1  0
 15 16  1  0
 27 28  1  0
 16 20  2  0
 19 20  1  0
 20 49  1  0
 49 48  1  0
 49 45  2  0
 48 47  1  0
 57 56  1  0
 56 35  1  0
 45 44  1  0
 45 46  1  0
 44 43  1  0
 58 41  1  0
 47 46  2  0
 47 50  1  0
 40 41  1  0
 40 37  1  0
 42 41  1  0
 42 43  1  0
 46 53  1  0
 37 43  1  0
 37 36  1  0
 50 51  2  0
 35 36  1  0
 35 34  1  0
 36 39  2  0
 53 52  2  0
 34 33  1  0
 51 52  1  0
 51 54  1  0
 38 33  2  0
 30 31  1  0
 33 32  1  0
 32 31  1  0
 32 55  1  0
  1 59  1  0
  1 60  1  0
  1 61  1  0
  2 62  1  0
  3 63  1  0
  5 64  1  0
  6 65  1  0
 11 66  1  0
 11 67  1  0
 12 68  1  0
 13 69  1  0
 13 70  1  0
 14 71  1  0
 15 72  1  0
 15 73  1  0
 19 74  1  0
 21 75  1  0
 23 76  1  0
 24 77  1  0
 26 78  1  0
 26 79  1  0
 26 80  1  0
 27 81  1  0
 27 82  1  0
 28 83  1  0
 28 84  1  0
 28 85  1  0
 29 86  1  0
 30 87  1  0
 30 88  1  0
 30 89  1  0
 31 90  1  0
 32 91  1  0
 34 92  1  0
 35 93  1  0
 40 94  1  0
 40 95  1  0
 41 96  1  0
 42 97  1  0
 42 98  1  0
 43 99  1  0
 44100  1  0
 44101  1  0
 48102  1  0
 50103  1  0
 52104  1  0
 53105  1  0
 55106  1  0
 55107  1  0
 55108  1  0
 56109  1  0
 56110  1  0
 57111  1  0
 57112  1  0
 57113  1  0
 58114  1  0
A    1
C0
A    2
N1
A    3
CA1
A    4
C1
A    5
N2
A    6
CA2
A    7
C2
A    8
N3
A    9
O1
A   10
O2
A   11
CD3
A   12
CG3
A   13
CB3
A   14
CA3
A   15
CB4
A   16
CG4
A   17
CD2
A   18
CE2
A   19
NE1
A   20
CD1
A   21
CZ2
A   22
CH2
A   23
CZ3
A   24
CE3
A   25
F
A   26
CB1
A   27
CB2
A   28
CG2
A   29
OG3
A   30
C0B
A   31
N1B
A   32
CA6
A   33
C1B
A   34
N2B
A   35
CA7
A   36
C2B
A   37
N3B
A   38
O1B
A   39
O2B
A   40
CD8
A   41
CG8
A   42
CB8
A   43
CA8
A   44
CB9
A   45
CG9
A   46
CD7
A   47
CE7
A   48
NE6
A   49
CD6
A   50
CZ7
A   51
CH7
A   52
CZ8
A   53
CE8
A   54
FB
A   55
CB6
A   56
CB7
A   57
CG7
A   58
OG8
M  END
