4KN1_04J_A_301
     RDKit          3D

 52 54  0  0  0  0  0  0  0  0999 V2000
   19.8560  -36.7780    4.3790 C   0  0  0  0  0  0  0  0  0  0  0  0
   20.5710  -35.7250    4.0080 N   0  0  0  0  0  0  0  0  0  0  0  0
   20.4610  -37.8390    5.0780 O   0  0  0  0  0  0  0  0  0  0  0  0
   14.0760  -35.7080   -3.0120 N   0  0  0  0  0  0  0  0  0  0  0  0
   23.5810  -33.9760    4.8250 O   0  0  0  0  0  0  0  0  0  0  0  0
   13.0130  -35.2780   -3.7760 C   0  0  0  0  0  0  0  0  0  0  0  0
   21.6030  -33.7570    5.6390 O   0  0  0  0  0  0  0  0  0  0  0  0
   11.7990  -34.9990   -3.1840 N   0  0  0  0  0  0  0  0  0  0  0  0
   11.6300  -35.1490   -1.8210 C   0  0  0  0  0  0  0  0  0  0  0  0
   12.5430  -35.7180    0.3200 N   0  0  0  0  0  0  0  0  0  0  0  0
   13.6070  -36.1460    1.0920 C   0  0  0  0  0  0  0  0  0  0  0  0
   14.8250  -36.4300    0.4860 C   0  0  0  0  0  0  0  0  0  0  0  0
   14.9780  -36.2800   -0.8790 N   0  0  0  0  0  0  0  0  0  0  0  0
   13.4360  -36.3020    2.5870 C   0  0  0  0  0  0  0  0  0  0  0  0
   21.9940  -35.6970    4.2890 C   0  0  0  0  0  0  0  0  0  0  0  0
   22.7840  -35.9300    3.0010 C   0  0  0  0  0  0  0  0  0  0  0  0
   23.2950  -38.3760    2.8690 C   0  0  0  0  0  0  0  0  0  0  0  0
   23.8480  -37.0080    3.1930 C   0  0  0  0  0  0  0  0  0  0  0  0
   22.4160  -34.4120    4.9510 C   0  0  0  0  0  0  0  0  0  0  0  0
   14.3090  -37.3320    3.1210 N   0  0  0  0  0  0  0  0  0  0  0  0
   18.3940  -36.8660    4.0450 C   0  0  0  0  0  0  0  0  0  0  0  0
   17.8150  -38.1270    3.9670 C   0  0  0  0  0  0  0  0  0  0  0  0
   16.4660  -38.2600    3.6630 C   0  0  0  0  0  0  0  0  0  0  0  0
   15.6840  -37.1350    3.4270 C   0  0  0  0  0  0  0  0  0  0  0  0
   16.2580  -35.8670    3.5100 C   0  0  0  0  0  0  0  0  0  0  0  0
   17.6140  -35.7300    3.8170 C   0  0  0  0  0  0  0  0  0  0  0  0
   12.6980  -35.5750   -1.0450 C   0  0  0  0  0  0  0  0  0  0  0  0
   13.9180  -35.8550   -1.6490 C   0  0  0  0  0  0  0  0  0  0  0  0
   13.1530  -35.1350   -5.0890 N   0  0  0  0  0  0  0  0  0  0  0  0
   10.4560  -34.8800   -1.2520 N   0  0  0  0  0  0  0  0  0  0  0  0
   22.9820  -38.6680    1.6950 O   0  0  0  0  0  0  0  0  0  0  0  0
   23.1410  -39.2300    3.7690 O   0  0  0  0  0  0  0  0  0  0  0  0
   20.1206  -34.9346    3.5250 H   0  0  0  0  0  0  0  0  0  0  0  0
   21.6485  -33.7937    6.6273 H   0  0  0  0  0  0  0  0  0  0  0  0
   15.6720  -36.7762    1.0965 H   0  0  0  0  0  0  0  0  0  0  0  0
   13.6730  -35.3451    3.0750 H   0  0  0  0  0  0  0  0  0  0  0  0
   12.3950  -36.5972    2.7849 H   0  0  0  0  0  0  0  0  0  0  0  0
   22.2129  -36.5082    4.9989 H   0  0  0  0  0  0  0  0  0  0  0  0
   22.0912  -36.2470    2.2076 H   0  0  0  0  0  0  0  0  0  0  0  0
   23.2857  -34.9907    2.7255 H   0  0  0  0  0  0  0  0  0  0  0  0
   24.6985  -36.7968    2.5282 H   0  0  0  0  0  0  0  0  0  0  0  0
   24.1706  -36.9997    4.2446 H   0  0  0  0  0  0  0  0  0  0  0  0
   13.9068  -38.2652    3.2890 H   0  0  0  0  0  0  0  0  0  0  0  0
   18.4272  -39.0231    4.1466 H   0  0  0  0  0  0  0  0  0  0  0  0
   16.0139  -39.2613    3.6087 H   0  0  0  0  0  0  0  0  0  0  0  0
   15.6420  -34.9729    3.3334 H   0  0  0  0  0  0  0  0  0  0  0  0
   18.0666  -34.7293    3.8790 H   0  0  0  0  0  0  0  0  0  0  0  0
   13.8242  -34.4494   -5.4637 H   0  0  0  0  0  0  0  0  0  0  0  0
   12.5904  -35.7097   -5.7325 H   0  0  0  0  0  0  0  0  0  0  0  0
   10.3735  -34.8611   -0.2255 H   0  0  0  0  0  0  0  0  0  0  0  0
    9.6307  -34.6909   -1.8385 H   0  0  0  0  0  0  0  0  0  0  0  0
   23.1896  -38.9607    4.7204 H   0  0  0  0  0  0  0  0  0  0  0  0
  2  1  1  0
 21  1  1  0
  1  3  2  0
  2 15  1  0
  6  4  2  0
  4 28  1  0
  5 19  2  0
 29  6  1  0
  6  8  1  0
 19  7  1  0
  8  9  2  0
  9 30  1  0
  9 27  1  0
 27 10  2  0
 10 11  1  0
 12 11  2  0
 11 14  1  0
 13 12  1  0
 28 13  2  0
 14 20  1  0
 16 15  1  0
 15 19  1  0
 16 18  1  0
 31 17  2  0
 17 18  1  0
 17 32  1  0
 20 24  1  0
 26 21  2  0
 22 21  1  0
 23 22  2  0
 24 23  1  0
 24 25  2  0
 25 26  1  0
 28 27  1  0
  2 33  1  0
  7 34  1  0
 12 35  1  0
 14 36  1  0
 14 37  1  0
 15 38  1  0
 16 39  1  0
 16 40  1  0
 18 41  1  0
 18 42  1  0
 20 43  1  0
 22 44  1  0
 23 45  1  0
 25 46  1  0
 26 47  1  0
 29 48  1  0
 29 49  1  0
 30 50  1  0
 30 51  1  0
 32 52  1  0
A    1
C
A    2
N
A    3
O
A    4
N1
A    5
O1
A    6
C2
A    7
O2
A    8
N3
A    9
C4
A   10
N5
A   11
C6
A   12
C7
A   13
N8
A   14
C9
A   15
CA
A   16
CB
A   17
CD
A   18
CG
A   19
CT
A   20
N10
A   21
C11
A   22
C12
A   23
C13
A   24
C14
A   25
C15
A   26
C16
A   27
C4A
A   28
C8A
A   29
NA2
A   30
NA4
A   31
OE1
A   32
OE2
M  END
