4KNI_E1E_A_305
     RDKit          3D

 37 38  0  0  0  0  0  0  0  0999 V2000
   -4.6610    4.5110   15.3810 C   0  0  0  0  0  0  0  0  0  0  0  0
   -4.9710    2.1360   15.8480 C   0  0  0  0  0  0  0  0  0  0  0  0
   -3.9930    1.7890   14.8900 C   0  0  0  0  0  0  0  0  0  0  0  0
   -6.5620    3.8820   17.2580 Cl  0  0  0  0  0  0  0  0  0  0  0  0
   -5.3380    3.4830   16.0700 C   0  0  0  0  0  0  0  0  0  0  0  0
   -5.7490    0.7870   16.7790 S   0  0  0  0  0  0  0  0  0  0  0  0
   -7.3190    0.8280   16.5880 O   0  0  0  0  0  0  0  0  0  0  0  0
   -5.0300   -0.6720   16.1440 N   0  0  0  0  0  0  0  0  0  0  0  0
   -5.2350    0.9220   18.3090 O   0  0  0  0  0  0  0  0  0  0  0  0
   -3.6260    4.1880   14.4460 C   0  0  0  0  0  0  0  0  0  0  0  0
   -3.2980    2.8250   14.1970 C   0  0  0  0  0  0  0  0  0  0  0  0
   -2.8360    5.2590   13.7730 C   0  0  0  0  0  0  0  0  0  0  0  0
   -2.6360    6.3170   14.4250 O   0  0  0  0  0  0  0  0  0  0  0  0
   -2.1370    5.0870   12.4620 C   0  0  0  0  0  0  0  0  0  0  0  0
   -2.0540    6.7070   11.6580 S   0  0  0  0  0  0  0  0  0  0  0  0
   -3.8120    7.0040   11.5410 C   0  0  0  0  0  0  0  0  0  0  0  0
   -4.6780    6.1550   12.2110 N   0  0  0  0  0  0  0  0  0  0  0  0
   -6.0110    6.3510   12.1140 C   0  0  0  0  0  0  0  0  0  0  0  0
   -6.8820    5.3830   12.8300 C   0  0  0  0  0  0  0  0  0  0  0  0
   -6.5020    7.4360   11.3480 C   0  0  0  0  0  0  0  0  0  0  0  0
   -5.5920    8.3030   10.6980 C   0  0  0  0  0  0  0  0  0  0  0  0
   -4.2560    8.0770   10.8050 N   0  0  0  0  0  0  0  0  0  0  0  0
   -6.0470    9.4680    9.8820 C   0  0  0  0  0  0  0  0  0  0  0  0
   -4.9287    5.5624   15.5624 H   0  0  0  0  0  0  0  0  0  0  0  0
   -3.7696    0.7325   14.6805 H   0  0  0  0  0  0  0  0  0  0  0  0
   -4.7325   -1.2757   16.9237 H   0  0  0  0  0  0  0  0  0  0  0  0
   -5.7210   -1.1722   15.5668 H   0  0  0  0  0  0  0  0  0  0  0  0
   -2.5106    2.5711   13.4720 H   0  0  0  0  0  0  0  0  0  0  0  0
   -2.6981    4.3840   11.8288 H   0  0  0  0  0  0  0  0  0  0  0  0
   -1.1252    4.6844   12.6175 H   0  0  0  0  0  0  0  0  0  0  0  0
   -6.7627    5.5156   13.9154 H   0  0  0  0  0  0  0  0  0  0  0  0
   -7.9317    5.5592   12.5523 H   0  0  0  0  0  0  0  0  0  0  0  0
   -6.5964    4.3577   12.5523 H   0  0  0  0  0  0  0  0  0  0  0  0
   -7.5854    7.6040   11.2587 H   0  0  0  0  0  0  0  0  0  0  0  0
   -6.3649   10.2819   10.5502 H   0  0  0  0  0  0  0  0  0  0  0  0
   -5.2190    9.8169    9.2474 H   0  0  0  0  0  0  0  0  0  0  0  0
   -6.8922    9.1634    9.2474 H   0  0  0  0  0  0  0  0  0  0  0  0
 23 21  1  0
 21 22  2  0
 21 20  1  0
 22 16  1  0
 20 18  2  0
 16 15  1  0
 16 17  2  0
 15 14  1  0
 18 17  1  0
 18 19  1  0
 14 12  1  0
 12 13  2  0
 12 10  1  0
 11 10  1  0
 11  3  2  0
 10  1  2  0
  3  2  1  0
  1  5  1  0
  2  5  2  0
  2  6  1  0
  5  4  1  0
  8  6  1  0
  7  6  2  0
  6  9  2  0
  1 24  1  0
  3 25  1  0
  8 26  1  0
  8 27  1  0
 11 28  1  0
 14 29  1  0
 14 30  1  0
 19 31  1  0
 19 32  1  0
 19 33  1  0
 20 34  1  0
 23 35  1  0
 23 36  1  0
 23 37  1  0
A    1
C2
A    2
C4
A    3
C5
A    4
CL1
A    5
C3
A    6
S6
A    7
O8
A    8
N11
A    9
O7
A   10
C22
A   11
C1
A   12
C9
A   13
O12
A   14
C10
A   15
S13
A   16
C14
A   17
N17
A   18
C18
A   19
C21
A   20
C19
A   21
C16
A   22
N15
A   23
C20
M  END
