4KNR_1S8_A_501
     RDKit          3D

 60 64  0  0  0  0  0  0  0  0999 V2000
   42.7190   58.4990   23.0660 C   0  0  0  0  0  0  0  0  0  0  0  0
   42.6590   59.8190   22.5380 O   0  0  0  0  0  0  0  0  0  0  0  0
   42.5120   59.7760   21.1530 C   0  0  0  0  0  0  0  0  0  0  0  0
   43.1390   58.8610   20.3220 C   0  0  0  0  0  0  0  0  0  0  0  0
   42.9270   58.9040   18.9510 C   0  0  0  0  0  0  0  0  0  0  0  0
   42.0890   59.8650   18.3990 C   0  0  0  0  0  0  0  0  0  0  0  0
   41.4810   60.7740   19.2420 C   0  0  0  0  0  0  0  0  0  0  0  0
   41.6920   60.7330   20.6020 C   0  0  0  0  0  0  0  0  0  0  0  0
   41.0760   61.6560   21.4240 O   0  0  0  0  0  0  0  0  0  0  0  0
   41.8610   59.9340   17.0800 N   0  0  0  0  0  0  0  0  0  0  0  0
   42.4750   59.0320   16.3080 C   0  0  0  0  0  0  0  0  0  0  0  0
   43.2960   58.0770   16.7520 N   0  0  0  0  0  0  0  0  0  0  0  0
   43.5250   58.0110   18.0740 C   0  0  0  0  0  0  0  0  0  0  0  0
   44.3970   57.0050   18.5480 N   0  0  0  0  0  0  0  0  0  0  0  0
   45.1980   56.2290   17.6790 C   0  0  0  0  0  0  0  0  0  0  0  0
   45.4080   54.8980   17.9550 C   0  0  0  0  0  0  0  0  0  0  0  0
   46.1730   54.1100   17.1220 C   0  0  0  0  0  0  0  0  0  0  0  0
   46.7470   54.6460   15.9920 C   0  0  0  0  0  0  0  0  0  0  0  0
   46.5540   55.9800   15.7050 C   0  0  0  0  0  0  0  0  0  0  0  0
   45.7830   56.7560   16.5450 C   0  0  0  0  0  0  0  0  0  0  0  0
   47.5290   53.8330   15.1460 N   0  0  0  0  0  0  0  0  0  0  0  0
   47.0770   53.5140   13.8790 C   0  0  0  0  0  0  0  0  0  0  0  0
   46.1950   54.0980   13.2620 O   0  0  0  0  0  0  0  0  0  0  0  0
   47.7380   52.3610   13.2450 C   0  0  0  0  0  0  0  0  0  0  0  0
   48.2180   52.4910   11.9580 C   0  0  0  0  0  0  0  0  0  0  0  0
   48.8310   51.4130   11.3580 C   0  0  0  0  0  0  0  0  0  0  0  0
   48.9610   50.2210   12.0430 C   0  0  0  0  0  0  0  0  0  0  0  0
   48.4770   50.0990   13.3280 C   0  0  0  0  0  0  0  0  0  0  0  0
   47.8590   51.1740   13.9330 C   0  0  0  0  0  0  0  0  0  0  0  0
   42.1990   59.1260   14.8370 C   0  0  0  0  0  0  0  0  0  0  0  0
   43.1040   58.3720   13.9150 C   0  0  0  0  0  0  0  0  0  0  0  0
   44.3650   58.8480   13.6170 C   0  0  0  0  0  0  0  0  0  0  0  0
   45.1980   58.1540   12.7630 C   0  0  0  0  0  0  0  0  0  0  0  0
   44.7690   56.9750   12.1940 C   0  0  0  0  0  0  0  0  0  0  0  0
   43.5070   56.4980   12.4840 C   0  0  0  0  0  0  0  0  0  0  0  0
   42.6750   57.1940   13.3390 C   0  0  0  0  0  0  0  0  0  0  0  0
   42.7170   58.5433   24.1651 H   0  0  0  0  0  0  0  0  0  0  0  0
   41.8460   57.9259   22.7205 H   0  0  0  0  0  0  0  0  0  0  0  0
   43.6404   58.0074   22.7205 H   0  0  0  0  0  0  0  0  0  0  0  0
   43.8065   58.0987   20.7502 H   0  0  0  0  0  0  0  0  0  0  0  0
   40.8174   61.5433   18.8203 H   0  0  0  0  0  0  0  0  0  0  0  0
   41.1385   61.5624   22.4076 H   0  0  0  0  0  0  0  0  0  0  0  0
   44.4509   56.8311   19.5618 H   0  0  0  0  0  0  0  0  0  0  0  0
   44.9579   54.4549   18.8556 H   0  0  0  0  0  0  0  0  0  0  0  0
   46.3254   53.0473   17.3617 H   0  0  0  0  0  0  0  0  0  0  0  0
   47.0131   56.4242   14.8095 H   0  0  0  0  0  0  0  0  0  0  0  0
   45.6308   57.8189   16.3060 H   0  0  0  0  0  0  0  0  0  0  0  0
   48.4384   53.4762   15.4725 H   0  0  0  0  0  0  0  0  0  0  0  0
   48.1125   53.4434   11.4178 H   0  0  0  0  0  0  0  0  0  0  0  0
   49.2174   51.5019   10.3319 H   0  0  0  0  0  0  0  0  0  0  0  0
   49.4536   49.3639   11.5605 H   0  0  0  0  0  0  0  0  0  0  0  0
   48.5832   49.1474   13.8694 H   0  0  0  0  0  0  0  0  0  0  0  0
   47.4661   51.0838   14.9565 H   0  0  0  0  0  0  0  0  0  0  0  0
   42.2558   60.1886   14.5583 H   0  0  0  0  0  0  0  0  0  0  0  0
   41.2124   58.6574   14.7065 H   0  0  0  0  0  0  0  0  0  0  0  0
   44.7099   59.7914   14.0654 H   0  0  0  0  0  0  0  0  0  0  0  0
   46.2024   58.5415   12.5371 H   0  0  0  0  0  0  0  0  0  0  0  0
   45.4284   56.4173   11.5127 H   0  0  0  0  0  0  0  0  0  0  0  0
   43.1613   55.5570   12.0311 H   0  0  0  0  0  0  0  0  0  0  0  0
   41.6689   56.8086   13.5610 H   0  0  0  0  0  0  0  0  0  0  0  0
 26 25  2  0
 26 27  1  0
 25 24  1  0
 27 28  2  0
 34 35  2  0
 34 33  1  0
 35 36  1  0
 33 32  2  0
 24 22  1  0
 24 29  2  0
 23 22  2  0
 28 29  1  0
 36 31  2  0
 32 31  1  0
 22 21  1  0
 31 30  1  0
 30 11  1  0
 21 18  1  0
 19 18  2  0
 19 20  1  0
 18 17  1  0
 11 12  2  0
 11 10  1  0
 20 15  2  0
 12 13  1  0
 10  6  2  0
 17 16  2  0
 15 16  1  0
 15 14  1  0
 13 14  1  0
 13  5  2  0
  6  5  1  0
  6  7  1  0
  5  4  1  0
  7  8  2  0
  4  3  2  0
  8  3  1  0
  8  9  1  0
  3  2  1  0
  2  1  1  0
  1 37  1  0
  1 38  1  0
  1 39  1  0
  4 40  1  0
  7 41  1  0
  9 42  1  0
 14 43  1  0
 16 44  1  0
 17 45  1  0
 19 46  1  0
 20 47  1  0
 21 48  1  0
 25 49  1  0
 26 50  1  0
 27 51  1  0
 28 52  1  0
 29 53  1  0
 30 54  1  0
 30 55  1  0
 32 56  1  0
 33 57  1  0
 34 58  1  0
 35 59  1  0
 36 60  1  0
A    1
C1
A    2
O2
A    3
C3
A    4
C4
A    5
C5
A    6
C6
A    7
C7
A    8
C8
A    9
O9
A   10
N10
A   11
C11
A   12
N12
A   13
C13
A   14
N14
A   15
C15
A   16
C16
A   17
C17
A   18
C18
A   19
C19
A   20
C20
A   21
N21
A   22
C22
A   23
O23
A   24
C24
A   25
C25
A   26
C26
A   27
C27
A   28
C28
A   29
C29
A   30
C30
A   31
C31
A   32
C32
A   33
C33
A   34
C34
A   35
C35
A   36
C36
M  END
