4KP8_E1G_A_302
     RDKit          3D

 31 32  0  0  0  0  0  0  0  0999 V2000
   -5.5960   14.5920   -5.4960 O   0  0  0  0  0  0  0  0  0  0  0  0
   -4.4920   15.5500   -5.9940 S   0  0  0  0  0  0  0  0  0  0  0  0
   -4.7390   15.5970   -7.5240 O   0  0  0  0  0  0  0  0  0  0  0  0
   -2.9040   14.8600   -5.7340 N   0  0  0  0  0  0  0  0  0  0  0  0
   -4.6220   17.1940   -5.2820 C   0  0  0  0  0  0  0  0  0  0  0  0
   -3.8580   17.3440   -4.1380 C   0  0  0  0  0  0  0  0  0  0  0  0
   -3.8450   18.5500   -3.4290 C   0  0  0  0  0  0  0  0  0  0  0  0
   -4.5720   19.6350   -3.9020 C   0  0  0  0  0  0  0  0  0  0  0  0
   -5.3730   18.2930   -5.7840 C   0  0  0  0  0  0  0  0  0  0  0  0
   -5.3270   19.5340   -5.0730 C   0  0  0  0  0  0  0  0  0  0  0  0
   -6.0870   20.7560   -5.4230 C   0  0  0  0  0  0  0  0  0  0  0  0
   -5.5450   21.7850   -5.8300 O   0  0  0  0  0  0  0  0  0  0  0  0
   -7.5770   20.7390   -5.2100 C   0  0  0  0  0  0  0  0  0  0  0  0
   -8.1150   22.3960   -4.7040 S   0  0  0  0  0  0  0  0  0  0  0  0
   -7.4680   22.2240   -3.0190 C   0  0  0  0  0  0  0  0  0  0  0  0
   -8.3150   22.0320   -1.9480 N   0  0  0  0  0  0  0  0  0  0  0  0
   -7.8400   21.9010   -0.6750 C   0  0  0  0  0  0  0  0  0  0  0  0
   -6.4660   21.9720   -0.4350 C   0  0  0  0  0  0  0  0  0  0  0  0
   -5.6030   22.1580   -1.5140 C   0  0  0  0  0  0  0  0  0  0  0  0
   -6.1180   22.2840   -2.7780 N   0  0  0  0  0  0  0  0  0  0  0  0
   -2.7249   14.7822   -4.7227 H   0  0  0  0  0  0  0  0  0  0  0  0
   -2.8616   13.9246   -6.1632 H   0  0  0  0  0  0  0  0  0  0  0  0
   -3.2502   16.5001   -3.7797 H   0  0  0  0  0  0  0  0  0  0  0  0
   -3.2615   18.6387   -2.5008 H   0  0  0  0  0  0  0  0  0  0  0  0
   -4.5530   20.5851   -3.3479 H   0  0  0  0  0  0  0  0  0  0  0  0
   -5.9757   18.1911   -6.6985 H   0  0  0  0  0  0  0  0  0  0  0  0
   -8.0810   20.4566   -6.1461 H   0  0  0  0  0  0  0  0  0  0  0  0
   -7.8343   20.0081   -4.4292 H   0  0  0  0  0  0  0  0  0  0  0  0
   -8.5378   21.7399    0.1599 H   0  0  0  0  0  0  0  0  0  0  0  0
   -6.0715   21.8827    0.5879 H   0  0  0  0  0  0  0  0  0  0  0  0
   -4.5159   22.2033   -1.3520 H   0  0  0  0  0  0  0  0  0  0  0  0
  4  2  1  0
  1  2  2  0
  2  3  2  0
  2  5  1  0
  5  6  2  0
  5  9  1  0
  6  7  1  0
  9 10  2  0
  7  8  2  0
 10  8  1  0
 10 11  1  0
 12 11  2  0
 11 13  1  0
 13 14  1  0
 14 15  1  0
 15 20  1  0
 15 16  2  0
 20 19  2  0
 16 17  1  0
 19 18  1  0
 17 18  2  0
  4 21  1  0
  4 22  1  0
  6 23  1  0
  7 24  1  0
  8 25  1  0
  9 26  1  0
 13 27  1  0
 13 28  1  0
 17 29  1  0
 18 30  1  0
 19 31  1  0
A    1
O19
A    2
S17
A    3
O18
A    4
N20
A    5
C4
A    6
C5
A    7
C6
A    8
C1
A    9
C3
A   10
C2
A   11
C7
A   12
O13
A   13
C8
A   14
S9
A   15
C10
A   16
N12
A   17
C15
A   18
C16
A   19
C14
A   20
N11
M  END
