1RQJ_IPE_A_900
     RDKit          3D

 26 25  0  0  0  0  0  0  0  0999 V2000
   60.4460   69.2780    9.3960 C   0  0  0  0  0  0  0  0  0  0  0  0
   61.0850   68.0670    9.0000 O   0  0  0  0  0  0  0  0  0  0  0  0
   61.3860   70.0770   10.2770 C   0  0  0  0  0  0  0  0  0  0  0  0
   62.7290   70.3030    9.6270 C   0  0  0  0  0  0  0  0  0  0  0  0
   63.8180   70.0210   10.3110 C   0  0  0  0  0  0  0  0  0  0  0  0
   62.8470   70.8720    8.2370 C   0  0  0  0  0  0  0  0  0  0  0  0
   60.2810   67.0300    8.0780 P   0  0  0  0  0  0  0  0  0  0  0  0
   59.8790   67.7840    6.8440 O   0  0  0  0  0  0  0  0  0  0  0  0
   61.1280   65.7930    7.9050 O   0  0  0  0  0  0  0  0  0  0  0  0
   58.9210   66.7470    8.9230 O   0  0  0  0  0  0  0  0  0  0  0  0
   58.0960   65.3640    9.0390 P   0  0  0  0  0  0  0  0  0  0  0  0
   56.6770   65.7190    9.3880 O   0  0  0  0  0  0  0  0  0  0  0  0
   58.2710   64.6670    7.7120 O   0  0  0  0  0  0  0  0  0  0  0  0
   58.7600   64.5980   10.1670 O   0  0  0  0  0  0  0  0  0  0  0  0
   60.1899   69.8671    8.5030 H   0  0  0  0  0  0  0  0  0  0  0  0
   59.5278   69.0439    9.9547 H   0  0  0  0  0  0  0  0  0  0  0  0
   60.9270   71.0539   10.4890 H   0  0  0  0  0  0  0  0  0  0  0  0
   61.5520   69.5016   11.1997 H   0  0  0  0  0  0  0  0  0  0  0  0
   64.8081   70.1776    9.8579 H   0  0  0  0  0  0  0  0  0  0  0  0
   63.7378   69.6288   11.3356 H   0  0  0  0  0  0  0  0  0  0  0  0
   63.0700   71.9474    8.2987 H   0  0  0  0  0  0  0  0  0  0  0  0
   63.6580   70.3597    7.6987 H   0  0  0  0  0  0  0  0  0  0  0  0
   61.8991   70.7244    7.6987 H   0  0  0  0  0  0  0  0  0  0  0  0
   61.3737   65.4342    8.7944 H   0  0  0  0  0  0  0  0  0  0  0  0
   56.5758   65.7443   10.3725 H   0  0  0  0  0  0  0  0  0  0  0  0
   58.4498   64.9559   11.0363 H   0  0  0  0  0  0  0  0  0  0  0  0
  1  2  1  0
  1  3  1  0
  2  7  1  0
  3  4  1  0
  4  5  2  3
  4  6  1  0
  7  8  2  0
  7  9  1  0
  7 10  1  0
 10 11  1  0
 11 12  1  0
 11 13  2  0
 11 14  1  0
  1 15  1  0
  1 16  1  0
  3 17  1  0
  3 18  1  0
  5 19  1  0
  5 20  1  0
  6 21  1  0
  6 22  1  0
  6 23  1  0
  9 24  1  0
 12 25  1  0
 14 26  1  0
A    1
C1
A    2
O1
A    3
C2
A    4
C3
A    5
C4
A    6
C5
A    7
PA
A    8
O1A
A    9
O2A
A   10
O3A
A   11
PB
A   12
O1B
A   13
O2B
A   14
O3B
M  END
