4KQL_1SG_A_511
     RDKit          3D

 53 56  0  0  0  0  0  0  0  0999 V2000
   41.9200   57.5170   23.0970 C   0  0  0  0  0  0  0  0  0  0  0  0
   41.8170   58.8700   22.7010 O   0  0  0  0  0  0  0  0  0  0  0  0
   41.7560   59.0130   21.3140 C   0  0  0  0  0  0  0  0  0  0  0  0
   40.9700   60.0580   20.8870 C   0  0  0  0  0  0  0  0  0  0  0  0
   40.8540   60.3670   19.5450 C   0  0  0  0  0  0  0  0  0  0  0  0
   41.5070   59.5790   18.6180 C   0  0  0  0  0  0  0  0  0  0  0  0
   42.2790   58.5060   19.0350 C   0  0  0  0  0  0  0  0  0  0  0  0
   42.4270   58.2230   20.3850 C   0  0  0  0  0  0  0  0  0  0  0  0
   42.9130   57.6920   17.9800 C   0  0  0  0  0  0  0  0  0  0  0  0
   42.5050   57.8370   16.8370 O   0  0  0  0  0  0  0  0  0  0  0  0
   43.9120   56.8230   18.3730 N   0  0  0  0  0  0  0  0  0  0  0  0
   44.6030   55.9480   17.5140 C   0  0  0  0  0  0  0  0  0  0  0  0
   44.8050   54.6510   17.9340 C   0  0  0  0  0  0  0  0  0  0  0  0
   45.4900   53.7650   17.1300 C   0  0  0  0  0  0  0  0  0  0  0  0
   45.9660   54.1570   15.8920 C   0  0  0  0  0  0  0  0  0  0  0  0
   45.7840   55.4610   15.4730 C   0  0  0  0  0  0  0  0  0  0  0  0
   45.1080   56.3510   16.2870 C   0  0  0  0  0  0  0  0  0  0  0  0
   46.6910   53.2880   15.0460 N   0  0  0  0  0  0  0  0  0  0  0  0
   46.5220   51.9170   14.9140 C   0  0  0  0  0  0  0  0  0  0  0  0
   45.9050   51.1620   15.6630 O   0  0  0  0  0  0  0  0  0  0  0  0
   47.1970   51.3650   13.7150 C   0  0  0  0  0  0  0  0  0  0  0  0
   47.4940   52.2060   12.6600 C   0  0  0  0  0  0  0  0  0  0  0  0
   48.1190   51.6530   11.5590 C   0  0  0  0  0  0  0  0  0  0  0  0
   48.4180   50.3030   11.5500 C   0  0  0  0  0  0  0  0  0  0  0  0
   48.0780   49.5490   12.6550 C   0  0  0  0  0  0  0  0  0  0  0  0
   47.4700   50.0490   13.7420 N   0  0  0  0  0  0  0  0  0  0  0  0
   39.9720   61.4540   19.1460 C   0  0  0  0  0  0  0  0  0  0  0  0
   39.1890   61.2830   18.0760 C   0  0  0  0  0  0  0  0  0  0  0  0
   38.2650   62.1860   17.6430 N   0  0  0  0  0  0  0  0  0  0  0  0
   38.0080   63.3450   18.3210 C   0  0  0  0  0  0  0  0  0  0  0  0
   37.1540   64.1370   17.9500 O   0  0  0  0  0  0  0  0  0  0  0  0
   38.7870   63.5370   19.4560 N   0  0  0  0  0  0  0  0  0  0  0  0
   39.7740   62.7060   19.9320 C   0  0  0  0  0  0  0  0  0  0  0  0
   40.4450   62.9620   20.9240 O   0  0  0  0  0  0  0  0  0  0  0  0
   41.9247   57.4557   24.1953 H   0  0  0  0  0  0  0  0  0  0  0  0
   41.0622   56.9530   22.7019 H   0  0  0  0  0  0  0  0  0  0  0  0
   42.8533   57.0894   22.7019 H   0  0  0  0  0  0  0  0  0  0  0  0
   40.4231   60.6594   21.6281 H   0  0  0  0  0  0  0  0  0  0  0  0
   41.4142   59.8035   17.5452 H   0  0  0  0  0  0  0  0  0  0  0  0
   43.0635   57.3889   20.7155 H   0  0  0  0  0  0  0  0  0  0  0  0
   44.1709   56.8146   19.3699 H   0  0  0  0  0  0  0  0  0  0  0  0
   44.4197   54.3228   18.9106 H   0  0  0  0  0  0  0  0  0  0  0  0
   45.6598   52.7350   17.4769 H   0  0  0  0  0  0  0  0  0  0  0  0
   46.1743   55.7889   14.4983 H   0  0  0  0  0  0  0  0  0  0  0  0
   44.9691   57.3912   15.9573 H   0  0  0  0  0  0  0  0  0  0  0  0
   47.4240   53.7186   14.4645 H   0  0  0  0  0  0  0  0  0  0  0  0
   47.2422   53.2762   12.6953 H   0  0  0  0  0  0  0  0  0  0  0  0
   48.3772   52.2828   10.6949 H   0  0  0  0  0  0  0  0  0  0  0  0
   48.9145   49.8414   10.6837 H   0  0  0  0  0  0  0  0  0  0  0  0
   48.3194   48.4759   12.6441 H   0  0  0  0  0  0  0  0  0  0  0  0
   39.2982   60.3487   17.5057 H   0  0  0  0  0  0  0  0  0  0  0  0
   37.7434   61.9890   16.7770 H   0  0  0  0  0  0  0  0  0  0  0  0
   38.6056   64.3934   19.9987 H   0  0  0  0  0  0  0  0  0  0  0  0
 24 23  1  0
 24 25  2  0
 23 22  2  0
 25 26  1  0
 22 21  1  0
 21 26  2  0
 21 19  1  0
 19 18  1  0
 19 20  2  0
 18 15  1  0
 16 15  2  0
 16 17  1  0
 15 14  1  0
 17 12  2  0
 10  9  2  0
 14 13  2  0
 12 13  1  0
 12 11  1  0
 29 28  1  0
 29 30  1  0
 31 30  2  0
  9 11  1  0
  9  7  1  0
 28 27  2  0
 30 32  1  0
  6  7  2  0
  6  5  1  0
  7  8  1  0
 27  5  1  0
 27 33  1  0
 32 33  1  0
  5  4  2  0
 33 34  2  0
  8  3  2  0
  4  3  1  0
  3  2  1  0
  2  1  1  0
  1 35  1  0
  1 36  1  0
  1 37  1  0
  4 38  1  0
  6 39  1  0
  8 40  1  0
 11 41  1  0
 13 42  1  0
 14 43  1  0
 16 44  1  0
 17 45  1  0
 18 46  1  0
 22 47  1  0
 23 48  1  0
 24 49  1  0
 25 50  1  0
 28 51  1  0
 29 52  1  0
 32 53  1  0
A    1
C1
A    2
O2
A    3
C3
A    4
C4
A    5
C5
A    6
C6
A    7
C7
A    8
C8
A    9
C9
A   10
O10
A   11
N11
A   12
C12
A   13
C13
A   14
C14
A   15
C15
A   16
C16
A   17
C17
A   18
N18
A   19
C19
A   20
O20
A   21
C21
A   22
C22
A   23
C23
A   24
C24
A   25
C25
A   26
N26
A   27
C27
A   28
C28
A   29
N29
A   30
C30
A   31
O31
A   32
N32
A   33
C33
A   34
O34
M  END
