1YHM_AHD_A_901
     RDKit          3D

 23 22  0  0  0  0  0  0  0  0999 V2000
   47.0230   51.2700  203.1580 C   0  0  0  0  0  0  0  0  0  0  0  0
   45.9150   51.7140  204.1540 C   0  0  0  0  0  0  0  0  0  0  0  0
   47.8500   49.9690  203.4470 C   0  0  0  0  0  0  0  0  0  0  0  0
   48.5620   49.5930  204.6830 C   0  0  0  0  0  0  0  0  0  0  0  0
   50.8780   48.8260  203.2870 O   0  0  0  0  0  0  0  0  0  0  0  0
   49.7640   48.3130  204.1400 P   0  0  0  0  0  0  0  0  0  0  0  0
   50.2800   47.5420  205.3730 O   0  0  0  0  0  0  0  0  0  0  0  0
   49.0010   47.2870  203.2250 O   0  0  0  0  0  0  0  0  0  0  0  0
   49.4940   50.8860  205.5950 P   0  0  0  0  0  0  0  0  0  0  0  0
   48.4420   52.1010  205.5440 O   0  0  0  0  0  0  0  0  0  0  0  0
   50.1900   50.3130  206.7770 O   0  0  0  0  0  0  0  0  0  0  0  0
   50.3460   51.2240  204.4480 O   0  0  0  0  0  0  0  0  0  0  0  0
   47.7810   49.0060  205.5000 O   0  0  0  0  0  0  0  0  0  0  0  0
   45.0170   52.7030  203.5480 N   0  0  0  0  0  0  0  0  0  0  0  0
   46.5366   51.1288  202.1816 H   0  0  0  0  0  0  0  0  0  0  0  0
   47.7719   52.0722  203.2329 H   0  0  0  0  0  0  0  0  0  0  0  0
   45.3280   50.8330  204.4527 H   0  0  0  0  0  0  0  0  0  0  0  0
   46.3988   52.1747  205.0279 H   0  0  0  0  0  0  0  0  0  0  0  0
   47.1404   49.1462  203.2752 H   0  0  0  0  0  0  0  0  0  0  0  0
   48.7241   50.1888  202.8165 H   0  0  0  0  0  0  0  0  0  0  0  0
   48.0573   49.2137  206.4277 H   0  0  0  0  0  0  0  0  0  0  0  0
   44.5371   53.2315  204.2905 H   0  0  0  0  0  0  0  0  0  0  0  0
   45.5643   53.3513  202.9640 H   0  0  0  0  0  0  0  0  0  0  0  0
  1  2  1  0
  1  3  1  0
  2 14  1  0
  3  4  1  0
  4  6  1  0
  4  9  1  0
  4 13  1  0
  5  6  1  0
  6  7  1  0
  6  8  2  0
  9 10  1  0
  9 11  1  0
  9 12  2  0
  1 15  1  0
  1 16  1  0
  2 17  1  0
  2 18  1  0
  3 19  1  0
  3 20  1  0
 13 21  1  0
 14 22  1  0
 14 23  1  0
M  CHG  4   5  -1   7  -1  10  -1  11  -1
A    1
C2
A    2
C3
A    3
C7
A    4
C8
A    5
O12
A    6
P9
A    7
O10
A    8
O11
A    9
P14
A   10
O15
A   11
O16
A   12
O17
A   13
O13
A   14
N4
M  END
