4KRS_1SX_A_1406
     RDKit          3D

 39 41  0  0  0  0  0  0  0  0999 V2000
  -25.8670  -10.8350    6.6840 C   0  0  0  0  0  0  0  0  0  0  0  0
  -23.2450   -8.7450    7.9160 C   0  0  0  0  0  0  0  0  0  0  0  0
  -24.3160   -6.5610    7.8950 C   0  0  0  0  0  0  0  0  0  0  0  0
  -24.1960   -5.0780    7.6180 C   0  0  0  0  0  0  0  0  0  0  0  0
  -22.9710   -4.4500    7.8030 C   0  0  0  0  0  0  0  0  0  0  0  0
  -22.8140   -3.0830    7.5640 C   0  0  0  0  0  0  0  0  0  0  0  0
  -23.8740   -2.2820    7.1360 C   0  0  0  0  0  0  0  0  0  0  0  0
  -25.1050   -2.9280    6.9440 C   0  0  0  0  0  0  0  0  0  0  0  0
  -25.2720   -4.2980    7.1860 C   0  0  0  0  0  0  0  0  0  0  0  0
  -23.7080   -0.7540    6.8570 C   0  0  0  0  0  0  0  0  0  0  0  0
  -23.0550   -0.6060    5.4570 C   0  0  0  0  0  0  0  0  0  0  0  0
  -25.0230  -11.9390    7.8910 S   0  0  0  0  0  0  0  0  0  0  0  0
  -25.5870   -9.3880    7.1840 C   0  0  0  0  0  0  0  0  0  0  0  0
  -24.2390   -9.5570    7.7140 N   0  0  0  0  0  0  0  0  0  0  0  0
  -23.8300  -10.7100    8.0800 C   0  0  0  0  0  0  0  0  0  0  0  0
  -22.6300  -10.7320    8.4990 N   0  0  0  0  0  0  0  0  0  0  0  0
  -22.2260   -9.3580    8.3910 N   0  0  0  0  0  0  0  0  0  0  0  0
  -23.2560   -7.3990    7.6910 N   0  0  0  0  0  0  0  0  0  0  0  0
  -25.4190   -6.9160    8.3260 O   0  0  0  0  0  0  0  0  0  0  0  0
  -22.7960   -0.0010    7.8760 C   0  0  0  0  0  0  0  0  0  0  0  0
  -25.0950   -0.0320    6.8670 C   0  0  0  0  0  0  0  0  0  0  0  0
  -26.9486  -11.0351    6.6699 H   0  0  0  0  0  0  0  0  0  0  0  0
  -25.5004  -10.9924    5.6589 H   0  0  0  0  0  0  0  0  0  0  0  0
  -22.1080   -5.0406    8.1443 H   0  0  0  0  0  0  0  0  0  0  0  0
  -21.8261   -2.6241    7.7175 H   0  0  0  0  0  0  0  0  0  0  0  0
  -25.9659   -2.3403    6.5925 H   0  0  0  0  0  0  0  0  0  0  0  0
  -26.2574   -4.7630    7.0348 H   0  0  0  0  0  0  0  0  0  0  0  0
  -21.9883   -0.3642    5.5737 H   0  0  0  0  0  0  0  0  0  0  0  0
  -23.1584   -1.5504    4.9025 H   0  0  0  0  0  0  0  0  0  0  0  0
  -23.5555    0.2015    4.9025 H   0  0  0  0  0  0  0  0  0  0  0  0
  -25.6129   -8.6597    6.3601 H   0  0  0  0  0  0  0  0  0  0  0  0
  -26.3213   -8.9974    7.9039 H   0  0  0  0  0  0  0  0  0  0  0  0
  -22.3866   -6.9765    7.3352 H   0  0  0  0  0  0  0  0  0  0  0  0
  -23.1038   -0.2551    8.9010 H   0  0  0  0  0  0  0  0  0  0  0  0
  -21.7490   -0.3012    7.7225 H   0  0  0  0  0  0  0  0  0  0  0  0
  -22.8926    1.0839    7.7225 H   0  0  0  0  0  0  0  0  0  0  0  0
  -25.4143    0.1342    7.9064 H   0  0  0  0  0  0  0  0  0  0  0  0
  -25.0085    0.9355    6.3508 H   0  0  0  0  0  0  0  0  0  0  0  0
  -25.8379   -0.6578    6.3508 H   0  0  0  0  0  0  0  0  0  0  0  0
 11 10  1  0
  1 13  1  0
  1 12  1  0
 10 21  1  0
 10  7  1  0
 10 20  1  0
  8  7  2  0
  8  9  1  0
  7  6  1  0
 13 14  1  0
  9  4  2  0
  6  5  2  0
  4  5  1  0
  4  3  1  0
 18  3  1  0
 18  2  1  0
 14  2  1  0
 14 15  1  0
 12 15  1  0
  3 19  2  0
  2 17  2  0
 15 16  2  0
 17 16  1  0
  1 22  1  0
  1 23  1  0
  5 24  1  0
  6 25  1  0
  8 26  1  0
  9 27  1  0
 11 28  1  0
 11 29  1  0
 11 30  1  0
 13 31  1  0
 13 32  1  0
 18 33  1  0
 20 34  1  0
 20 35  1  0
 20 36  1  0
 21 37  1  0
 21 38  1  0
 21 39  1  0
A    1
C2
A    2
C12
A    3
C15
A    4
C17
A    5
C18
A    6
C20
A    7
C22
A    8
C23
A    9
C25
A   10
C27
A   11
C28
A   12
S1
A   13
C5
A   14
N8
A   15
C9
A   16
N10
A   17
N11
A   18
N13
A   19
O16
A   20
C32
A   21
C36
M  END
