4KS1_2H8_A_502
     RDKit          3D

 44 44  0  0  0  0  0  0  0  0999 V2000
  -26.7110  -22.7720  -12.1430 C   0  0  0  0  0  0  0  0  0  0  0  0
  -26.2550  -21.6000  -13.0150 C   0  0  0  0  0  0  0  0  0  0  0  0
  -26.6920  -20.1990  -12.4120 C   0  0  0  0  0  0  0  0  0  0  0  0
  -28.2460  -20.0430  -12.2700 C   0  0  0  0  0  0  0  0  0  0  0  0
  -28.6730  -18.5960  -11.9130 C   0  0  0  0  0  0  0  0  0  0  0  0
  -26.0690  -19.9600  -11.1330 O   0  0  0  0  0  0  0  0  0  0  0  0
  -24.6490  -19.8380  -11.1110 C   0  0  0  0  0  0  0  0  0  0  0  0
  -24.1310  -20.7130   -9.9490 C   0  0  0  0  0  0  0  0  0  0  0  0
  -22.7390  -20.4650   -9.6440 C   0  0  0  0  0  0  0  0  0  0  0  0
  -21.9920  -21.5340   -9.1230 C   0  0  0  0  0  0  0  0  0  0  0  0
  -22.4680  -22.7170   -9.1770 O   0  0  0  0  0  0  0  0  0  0  0  0
  -20.8440  -21.2930   -8.6200 O   0  0  0  0  0  0  0  0  0  0  0  0
  -22.0910  -19.2380   -9.9540 C   0  0  0  0  0  0  0  0  0  0  0  0
  -22.7140  -18.2730  -10.7840 C   0  0  0  0  0  0  0  0  0  0  0  0
  -22.2110  -16.9140  -10.5250 N   0  0  0  0  0  0  0  0  0  0  0  0
  -24.2790  -18.3720  -10.8490 C   0  0  0  0  0  0  0  0  0  0  0  0
  -24.7690  -17.5610  -11.9530 N   0  0  0  0  0  0  0  0  0  0  0  0
  -25.6010  -16.5070  -11.8030 C   0  0  0  0  0  0  0  0  0  0  0  0
  -26.0370  -16.1260  -10.7490 O   0  0  0  0  0  0  0  0  0  0  0  0
  -25.9850  -15.7920  -13.1010 C   0  0  0  0  0  0  0  0  0  0  0  0
  -26.6060  -22.5021  -11.0818 H   0  0  0  0  0  0  0  0  0  0  0  0
  -27.7644  -23.0025  -12.3602 H   0  0  0  0  0  0  0  0  0  0  0  0
  -26.0904  -23.6538  -12.3602 H   0  0  0  0  0  0  0  0  0  0  0  0
  -26.6990  -21.7091  -14.0155 H   0  0  0  0  0  0  0  0  0  0  0  0
  -25.1561  -21.6202  -13.0603 H   0  0  0  0  0  0  0  0  0  0  0  0
  -26.3472  -19.4479  -13.1379 H   0  0  0  0  0  0  0  0  0  0  0  0
  -28.7163  -20.3232  -13.2241 H   0  0  0  0  0  0  0  0  0  0  0  0
  -28.5714  -20.6973  -11.4478 H   0  0  0  0  0  0  0  0  0  0  0  0
  -28.7064  -18.4828  -10.8193 H   0  0  0  0  0  0  0  0  0  0  0  0
  -27.9464  -17.8851  -12.3332 H   0  0  0  0  0  0  0  0  0  0  0  0
  -29.6692  -18.3935  -12.3332 H   0  0  0  0  0  0  0  0  0  0  0  0
  -24.2073  -20.1570  -12.0666 H   0  0  0  0  0  0  0  0  0  0  0  0
  -24.7316  -20.4997   -9.0524 H   0  0  0  0  0  0  0  0  0  0  0  0
  -24.2223  -21.7649  -10.2575 H   0  0  0  0  0  0  0  0  0  0  0  0
  -20.7294  -21.2690   -7.6369 H   0  0  0  0  0  0  0  0  0  0  0  0
  -21.0910  -19.0347   -9.5434 H   0  0  0  0  0  0  0  0  0  0  0  0
  -22.4068  -18.5280  -11.8090 H   0  0  0  0  0  0  0  0  0  0  0  0
  -22.1530  -16.7573   -9.5086 H   0  0  0  0  0  0  0  0  0  0  0  0
  -21.2753  -16.8088  -10.9426 H   0  0  0  0  0  0  0  0  0  0  0  0
  -24.7234  -18.0170   -9.9075 H   0  0  0  0  0  0  0  0  0  0  0  0
  -24.4634  -17.8049  -12.9059 H   0  0  0  0  0  0  0  0  0  0  0  0
  -26.4930  -14.8461  -12.8621 H   0  0  0  0  0  0  0  0  0  0  0  0
  -25.0777  -15.5831  -13.6868 H   0  0  0  0  0  0  0  0  0  0  0  0
  -26.6602  -16.4330  -13.6868 H   0  0  0  0  0  0  0  0  0  0  0  0
 20 18  1  0
  2  3  1  0
  2  1  1  0
  3  4  1  0
  3  6  1  0
  4  5  1  0
 17 18  1  0
 17 16  1  0
 18 19  2  0
  6  7  1  0
  7 16  1  0
  7  8  1  0
 16 14  1  0
 14 15  1  0
 14 13  1  0
 13  9  2  0
  8  9  1  0
  9 10  1  0
 11 10  2  0
 10 12  1  0
  1 21  1  0
  1 22  1  0
  1 23  1  0
  2 24  1  0
  2 25  1  0
  3 26  1  0
  4 27  1  0
  4 28  1  0
  5 29  1  0
  5 30  1  0
  5 31  1  0
  7 32  1  0
  8 33  1  0
  8 34  1  0
 12 35  1  0
 13 36  1  0
 14 37  1  0
 15 38  1  0
 15 39  1  0
 16 40  1  0
 17 41  1  0
 20 42  1  0
 20 43  1  0
 20 44  1  0
A    1
CAA
A    2
CAI
A    3
CAR
A    4
CAJ
A    5
CAB
A    6
OAM
A    7
CAS
A    8
CAK
A    9
CAP
A   10
CAO
A   11
OAG
A   12
OAF
A   13
CAH
A   14
CAQ
A   15
NAD
A   16
CAT
A   17
NAL
A   18
CAN
A   19
OAE
A   20
CAC
M  END
