4KS3_1SL_A_501
     RDKit          3D

 58 59  0  0  0  0  0  0  0  0999 V2000
  -26.3110  -22.1150  -36.9160 C   0  0  0  0  0  0  0  0  0  0  0  0
  -27.0160  -21.4100  -38.0890 C   0  0  0  0  0  0  0  0  0  0  0  0
  -26.2500  -21.5240  -39.4150 C   0  0  0  0  0  0  0  0  0  0  0  0
  -27.1520  -22.1840  -40.4520 C   0  0  0  0  0  0  0  0  0  0  0  0
  -28.1750  -21.1840  -40.9950 C   0  0  0  0  0  0  0  0  0  0  0  0
  -25.9180  -20.2060  -39.8780 O   0  0  0  0  0  0  0  0  0  0  0  0
  -24.5020  -19.9770  -39.9620 C   0  0  0  0  0  0  0  0  0  0  0  0
  -24.2150  -18.4790  -39.8240 C   0  0  0  0  0  0  0  0  0  0  0  0
  -24.8890  -17.7580  -40.9130 N   0  0  0  0  0  0  0  0  0  0  0  0
  -25.4800  -16.5830  -40.7580 C   0  0  0  0  0  0  0  0  0  0  0  0
  -25.9540  -15.9350  -42.0560 C   0  0  0  0  0  0  0  0  0  0  0  0
  -25.5980  -16.0170  -39.6780 O   0  0  0  0  0  0  0  0  0  0  0  0
  -23.8030  -20.7260  -38.8400 C   0  0  0  0  0  0  0  0  0  0  0  0
  -22.4000  -20.2500  -38.5190 C   0  0  0  0  0  0  0  0  0  0  0  0
  -21.4980  -21.2800  -37.8520 C   0  0  0  0  0  0  0  0  0  0  0  0
  -20.3980  -20.9040  -37.3710 O   0  0  0  0  0  0  0  0  0  0  0  0
  -22.0010  -22.4210  -37.7220 O   0  0  0  0  0  0  0  0  0  0  0  0
  -21.8450  -19.1990  -39.2260 C   0  0  0  0  0  0  0  0  0  0  0  0
  -22.7220  -18.2050  -39.9850 C   0  0  0  0  0  0  0  0  0  0  0  0
  -22.3310  -16.8700  -39.5200 N   0  0  0  0  0  0  0  0  0  0  0  0
  -21.5350  -16.7040  -38.4750 C   0  0  0  0  0  0  0  0  0  0  0  0
  -22.6310  -15.7890  -40.0450 N   0  0  0  0  0  0  0  0  0  0  0  0
  -22.0930  -14.8750  -39.4120 N   0  0  0  0  0  0  0  0  0  0  0  0
  -21.3800  -15.3990  -38.4050 C   0  0  0  0  0  0  0  0  0  0  0  0
  -20.5240  -14.6510  -37.3810 C   0  0  0  0  0  0  0  0  0  0  0  0
  -19.6760  -15.5620  -36.4910 C   0  0  0  0  0  0  0  0  0  0  0  0
  -18.9490  -14.6760  -35.4730 C   0  0  0  0  0  0  0  0  0  0  0  0
  -18.1980  -15.4600  -34.5540 O   0  0  0  0  0  0  0  0  0  0  0  0
  -26.7019  -21.7241  -35.9650 H   0  0  0  0  0  0  0  0  0  0  0  0
  -26.4988  -23.1974  -36.9724 H   0  0  0  0  0  0  0  0  0  0  0  0
  -25.2286  -21.9272  -36.9724 H   0  0  0  0  0  0  0  0  0  0  0  0
  -27.1266  -20.3442  -37.8402 H   0  0  0  0  0  0  0  0  0  0  0  0
  -27.9878  -21.9056  -38.2304 H   0  0  0  0  0  0  0  0  0  0  0  0
  -25.3365  -22.1186  -39.2671 H   0  0  0  0  0  0  0  0  0  0  0  0
  -27.6834  -23.0261  -39.9845 H   0  0  0  0  0  0  0  0  0  0  0  0
  -26.5296  -22.5407  -41.2859 H   0  0  0  0  0  0  0  0  0  0  0  0
  -28.6833  -20.6871  -40.1555 H   0  0  0  0  0  0  0  0  0  0  0  0
  -27.6607  -20.4307  -41.6099 H   0  0  0  0  0  0  0  0  0  0  0  0
  -28.9164  -21.7153  -41.6099 H   0  0  0  0  0  0  0  0  0  0  0  0
  -24.1315  -20.3341  -40.9342 H   0  0  0  0  0  0  0  0  0  0  0  0
  -24.5661  -18.1533  -38.8337 H   0  0  0  0  0  0  0  0  0  0  0  0
  -24.9024  -18.1902  -41.8479 H   0  0  0  0  0  0  0  0  0  0  0  0
  -26.5886  -15.0674  -41.8223 H   0  0  0  0  0  0  0  0  0  0  0  0
  -25.0826  -15.6050  -42.6406 H   0  0  0  0  0  0  0  0  0  0  0  0
  -26.5324  -16.6655  -42.6406 H   0  0  0  0  0  0  0  0  0  0  0  0
  -24.4133  -20.6227  -37.9307 H   0  0  0  0  0  0  0  0  0  0  0  0
  -23.6999  -21.7651  -39.1860 H   0  0  0  0  0  0  0  0  0  0  0  0
  -20.2754  -20.8621  -36.3895 H   0  0  0  0  0  0  0  0  0  0  0  0
  -20.7520  -19.0766  -39.2421 H   0  0  0  0  0  0  0  0  0  0  0  0
  -22.5600  -18.2992  -41.0689 H   0  0  0  0  0  0  0  0  0  0  0  0
  -21.1045  -17.4754  -37.8195 H   0  0  0  0  0  0  0  0  0  0  0  0
  -19.8491  -13.9732  -37.9242 H   0  0  0  0  0  0  0  0  0  0  0  0
  -21.2189  -14.1162  -36.7168 H   0  0  0  0  0  0  0  0  0  0  0  0
  -20.3229  -16.2810  -35.9670 H   0  0  0  0  0  0  0  0  0  0  0  0
  -18.9515  -16.1257  -37.0970 H   0  0  0  0  0  0  0  0  0  0  0  0
  -18.2670  -13.9991  -36.0085 H   0  0  0  0  0  0  0  0  0  0  0  0
  -19.7004  -14.1029  -34.9100 H   0  0  0  0  0  0  0  0  0  0  0  0
  -18.4409  -15.2064  -33.6284 H   0  0  0  0  0  0  0  0  0  0  0  0
 11 10  1  0
  5  4  1  0
  9 10  1  0
  9  8  1  0
 10 12  2  0
  4  3  1  0
 22 20  1  0
 22 23  2  0
 19  8  1  0
 19 20  1  0
 19 18  1  0
  7  6  1  0
  7  8  1  0
  7 13  1  0
  6  3  1  0
 20 21  1  0
  3  2  1  0
 23 24  1  0
 18 14  2  0
 13 14  1  0
 14 15  1  0
 21 24  2  0
 24 25  1  0
  2  1  1  0
 15 17  2  0
 15 16  1  0
 25 26  1  0
 26 27  1  0
 27 28  1  0
  1 29  1  0
  1 30  1  0
  1 31  1  0
  2 32  1  0
  2 33  1  0
  3 34  1  0
  4 35  1  0
  4 36  1  0
  5 37  1  0
  5 38  1  0
  5 39  1  0
  7 40  1  0
  8 41  1  0
  9 42  1  0
 11 43  1  0
 11 44  1  0
 11 45  1  0
 13 46  1  0
 13 47  1  0
 16 48  1  0
 18 49  1  0
 19 50  1  0
 21 51  1  0
 25 52  1  0
 25 53  1  0
 26 54  1  0
 26 55  1  0
 27 56  1  0
 27 57  1  0
 28 58  1  0
A    1
CAA
A    2
CAK
A    3
CAX
A    4
CAL
A    5
CAB
A    6
OAS
A    7
CAZ
A    8
CBA
A    9
NAR
A   10
CAT
A   11
CAC
A   12
OAD
A   13
CAO
A   14
CAV
A   15
CAU
A   16
OAG
A   17
OAE
A   18
CAH
A   19
CAY
A   20
NBB
A   21
CAI
A   22
NAQ
A   23
NAP
A   24
CAW
A   25
CAN
A   26
CAM
A   27
CAJ
A   28
OAF
M  END
