4KS4_1SN_A_501
     RDKit          3D

 58 59  0  0  0  0  0  0  0  0999 V2000
  210.1700   71.6050 -123.7810 C   0  0  0  0  0  0  0  0  0  0  0  0
  209.8890   70.2330 -123.1680 C   0  0  0  0  0  0  0  0  0  0  0  0
  208.6160   69.6580 -123.7850 C   0  0  0  0  0  0  0  0  0  0  0  0
  207.6950   69.1100 -122.6930 C   0  0  0  0  0  0  0  0  0  0  0  0
  207.7230   67.5730 -122.7630 C   0  0  0  0  0  0  0  0  0  0  0  0
  208.0270   70.6700 -124.6150 O   0  0  0  0  0  0  0  0  0  0  0  0
  206.6100   70.6310 -124.6730 C   0  0  0  0  0  0  0  0  0  0  0  0
  206.1600   72.0700 -124.9230 C   0  0  0  0  0  0  0  0  0  0  0  0
  206.6650   72.8930 -123.8200 N   0  0  0  0  0  0  0  0  0  0  0  0
  207.2530   74.0760 -124.0190 C   0  0  0  0  0  0  0  0  0  0  0  0
  207.7240   74.7800 -122.7460 C   0  0  0  0  0  0  0  0  0  0  0  0
  207.4190   74.5930 -125.1240 O   0  0  0  0  0  0  0  0  0  0  0  0
  206.2070   69.7620 -125.8530 C   0  0  0  0  0  0  0  0  0  0  0  0
  204.7100   69.9020 -126.1200 C   0  0  0  0  0  0  0  0  0  0  0  0
  203.8810   68.7030 -126.5590 C   0  0  0  0  0  0  0  0  0  0  0  0
  202.9950   68.8940 -127.4260 O   0  0  0  0  0  0  0  0  0  0  0  0
  204.1300   67.6120 -126.0060 O   0  0  0  0  0  0  0  0  0  0  0  0
  204.0640   71.1100 -125.9070 C   0  0  0  0  0  0  0  0  0  0  0  0
  204.6430   72.1870 -124.9900 C   0  0  0  0  0  0  0  0  0  0  0  0
  204.2840   73.4850 -125.5640 N   0  0  0  0  0  0  0  0  0  0  0  0
  204.2380   74.6050 -124.8710 C   0  0  0  0  0  0  0  0  0  0  0  0
  203.9920   73.6580 -126.7510 N   0  0  0  0  0  0  0  0  0  0  0  0
  203.7340   74.8470 -126.9520 N   0  0  0  0  0  0  0  0  0  0  0  0
  203.8760   75.4810 -125.7900 C   0  0  0  0  0  0  0  0  0  0  0  0
  203.6630   76.9780 -125.5340 C   0  0  0  0  0  0  0  0  0  0  0  0
  202.1840   77.2460 -125.2510 C   0  0  0  0  0  0  0  0  0  0  0  0
  201.3330   76.8080 -126.4370 C   0  0  0  0  0  0  0  0  0  0  0  0
  204.4470   77.3880 -124.4010 O   0  0  0  0  0  0  0  0  0  0  0  0
  210.3208   72.3415 -122.9780 H   0  0  0  0  0  0  0  0  0  0  0  0
  211.0756   71.5502 -124.4031 H   0  0  0  0  0  0  0  0  0  0  0  0
  209.3158   71.9106 -124.4031 H   0  0  0  0  0  0  0  0  0  0  0  0
  209.7568   70.3360 -122.0808 H   0  0  0  0  0  0  0  0  0  0  0  0
  210.7343   69.5584 -123.3692 H   0  0  0  0  0  0  0  0  0  0  0  0
  208.8296   68.7930 -124.4300 H   0  0  0  0  0  0  0  0  0  0  0  0
  208.0485   69.4438 -121.7063 H   0  0  0  0  0  0  0  0  0  0  0  0
  206.6691   69.4774 -122.8432 H   0  0  0  0  0  0  0  0  0  0  0  0
  207.7305   67.1596 -121.7437 H   0  0  0  0  0  0  0  0  0  0  0  0
  206.8312   67.2140 -123.2977 H   0  0  0  0  0  0  0  0  0  0  0  0
  208.6272   67.2467 -123.2977 H   0  0  0  0  0  0  0  0  0  0  0  0
  206.1613   70.2251 -123.7544 H   0  0  0  0  0  0  0  0  0  0  0  0
  206.5569   72.4071 -125.8920 H   0  0  0  0  0  0  0  0  0  0  0  0
  206.5627   72.5462 -122.8555 H   0  0  0  0  0  0  0  0  0  0  0  0
  207.3568   74.2312 -121.8662 H   0  0  0  0  0  0  0  0  0  0  0  0
  208.8235   74.8082 -122.7280 H   0  0  0  0  0  0  0  0  0  0  0  0
  207.3305   75.8071 -122.7280 H   0  0  0  0  0  0  0  0  0  0  0  0
  206.4396   68.7109 -125.6271 H   0  0  0  0  0  0  0  0  0  0  0  0
  206.7638   70.0849 -126.7450 H   0  0  0  0  0  0  0  0  0  0  0  0
  204.1442   67.5497 -125.0181 H   0  0  0  0  0  0  0  0  0  0  0  0
  203.1059   71.2991 -126.4132 H   0  0  0  0  0  0  0  0  0  0  0  0
  204.2433   72.0740 -123.9714 H   0  0  0  0  0  0  0  0  0  0  0  0
  204.4471   74.7678 -123.8034 H   0  0  0  0  0  0  0  0  0  0  0  0
  203.9746   77.5464 -126.4227 H   0  0  0  0  0  0  0  0  0  0  0  0
  202.0368   78.3220 -125.0759 H   0  0  0  0  0  0  0  0  0  0  0  0
  201.8799   76.6754 -124.3611 H   0  0  0  0  0  0  0  0  0  0  0  0
  200.4107   76.3333 -126.0710 H   0  0  0  0  0  0  0  0  0  0  0  0
  201.0760   77.6859 -127.0480 H   0  0  0  0  0  0  0  0  0  0  0  0
  201.8981   76.0887 -127.0480 H   0  0  0  0  0  0  0  0  0  0  0  0
  203.9751   77.1412 -123.5664 H   0  0  0  0  0  0  0  0  0  0  0  0
 16 15  2  0
 23 22  2  0
 23 24  1  0
 22 20  1  0
 15 14  1  0
 15 17  1  0
 27 26  1  0
 14 18  2  0
 14 13  1  0
 18 19  1  0
 13  7  1  0
 24 25  1  0
 24 21  2  0
 20 19  1  0
 20 21  1  0
 25 26  1  0
 25 28  1  0
 12 10  2  0
 19  8  1  0
  8  7  1  0
  8  9  1  0
  7  6  1  0
  6  3  1  0
 10  9  1  0
 10 11  1  0
  3  2  1  0
  3  4  1  0
  1  2  1  0
  5  4  1  0
  1 29  1  0
  1 30  1  0
  1 31  1  0
  2 32  1  0
  2 33  1  0
  3 34  1  0
  4 35  1  0
  4 36  1  0
  5 37  1  0
  5 38  1  0
  5 39  1  0
  7 40  1  0
  8 41  1  0
  9 42  1  0
 11 43  1  0
 11 44  1  0
 11 45  1  0
 13 46  1  0
 13 47  1  0
 17 48  1  0
 18 49  1  0
 19 50  1  0
 21 51  1  0
 25 52  1  0
 26 53  1  0
 26 54  1  0
 27 55  1  0
 27 56  1  0
 27 57  1  0
 28 58  1  0
A    1
CAB
A    2
CAL
A    3
CAX
A    4
CAM
A    5
CAC
A    6
OAR
A    7
CAZ
A    8
CBA
A    9
NAQ
A   10
CAS
A   11
CAD
A   12
OAE
A   13
CAN
A   14
CAU
A   15
CAT
A   16
OAG
A   17
OAF
A   18
CAI
A   19
CAY
A   20
NBB
A   21
CAJ
A   22
NAP
A   23
NAO
A   24
CAV
A   25
CAW
A   26
CAK
A   27
CAA
A   28
OAH
M  END
