4KS5_1SO_A_502
     RDKit          3D

 58 59  0  0  0  0  0  0  0  0999 V2000
  -13.2600  -23.4170   12.4910 C   0  0  0  0  0  0  0  0  0  0  0  0
  -13.9000  -22.0510   12.4150 C   0  0  0  0  0  0  0  0  0  0  0  0
  -13.3810  -21.2110   11.2480 C   0  0  0  0  0  0  0  0  0  0  0  0
  -13.6230  -21.3990   13.6420 O   0  0  0  0  0  0  0  0  0  0  0  0
  -15.3740  -22.2980   12.2200 C   0  0  0  0  0  0  0  0  0  0  0  0
  -16.2420  -22.5090   13.1470 C   0  0  0  0  0  0  0  0  0  0  0  0
  -15.9780  -22.3180   11.0600 N   0  0  0  0  0  0  0  0  0  0  0  0
  -17.1020  -22.5280   11.2600 N   0  0  0  0  0  0  0  0  0  0  0  0
  -17.3320  -22.6510   12.4390 N   0  0  0  0  0  0  0  0  0  0  0  0
  -18.6760  -22.9190   12.9420 C   0  0  0  0  0  0  0  0  0  0  0  0
  -18.7640  -24.4250   13.1890 C   0  0  0  0  0  0  0  0  0  0  0  0
  -17.8020  -24.8080   14.2660 N   0  0  0  0  0  0  0  0  0  0  0  0
  -16.7020  -25.5810   14.0300 C   0  0  0  0  0  0  0  0  0  0  0  0
  -15.8900  -25.9200   14.8690 O   0  0  0  0  0  0  0  0  0  0  0  0
  -16.4930  -26.0300   12.5990 C   0  0  0  0  0  0  0  0  0  0  0  0
  -19.6770  -22.4720   12.0670 C   0  0  0  0  0  0  0  0  0  0  0  0
  -20.9300  -23.0930   11.9230 C   0  0  0  0  0  0  0  0  0  0  0  0
  -21.9540  -22.5000   11.1910 C   0  0  0  0  0  0  0  0  0  0  0  0
  -23.0930  -22.5930   11.6350 O   0  0  0  0  0  0  0  0  0  0  0  0
  -21.7530  -21.8950   10.1190 O   0  0  0  0  0  0  0  0  0  0  0  0
  -21.2380  -24.3140   12.5200 C   0  0  0  0  0  0  0  0  0  0  0  0
  -20.2370  -24.8700   13.4880 C   0  0  0  0  0  0  0  0  0  0  0  0
  -20.4480  -26.3130   13.4050 O   0  0  0  0  0  0  0  0  0  0  0  0
  -20.3670  -26.9720   14.6960 C   0  0  0  0  0  0  0  0  0  0  0  0
  -20.0740  -28.4640   14.5520 C   0  0  0  0  0  0  0  0  0  0  0  0
  -18.8110  -28.7290   13.7360 C   0  0  0  0  0  0  0  0  0  0  0  0
  -21.6320  -26.7620   15.5030 C   0  0  0  0  0  0  0  0  0  0  0  0
  -22.8700  -26.8950   14.6170 C   0  0  0  0  0  0  0  0  0  0  0  0
  -13.1268  -23.7014   13.5452 H   0  0  0  0  0  0  0  0  0  0  0  0
  -13.9069  -24.1533   11.9916 H   0  0  0  0  0  0  0  0  0  0  0  0
  -12.2803  -23.3912   11.9916 H   0  0  0  0  0  0  0  0  0  0  0  0
  -12.8404  -20.3360   11.6380 H   0  0  0  0  0  0  0  0  0  0  0  0
  -12.7005  -21.8184   10.6331 H   0  0  0  0  0  0  0  0  0  0  0  0
  -14.2287  -20.8742   10.6331 H   0  0  0  0  0  0  0  0  0  0  0  0
  -13.8746  -21.9911   14.3945 H   0  0  0  0  0  0  0  0  0  0  0  0
  -16.1042  -22.5568   14.2373 H   0  0  0  0  0  0  0  0  0  0  0  0
  -18.8486  -22.3611   13.8741 H   0  0  0  0  0  0  0  0  0  0  0  0
  -18.4741  -24.9664   12.2764 H   0  0  0  0  0  0  0  0  0  0  0  0
  -17.9758  -24.4754   15.2252 H   0  0  0  0  0  0  0  0  0  0  0  0
  -16.0288  -27.0272   12.5917 H   0  0  0  0  0  0  0  0  0  0  0  0
  -17.4634  -26.0735   12.0829 H   0  0  0  0  0  0  0  0  0  0  0  0
  -15.8349  -25.3154   12.0829 H   0  0  0  0  0  0  0  0  0  0  0  0
  -19.4689  -21.5812   11.4562 H   0  0  0  0  0  0  0  0  0  0  0  0
  -21.4409  -20.9556   10.1318 H   0  0  0  0  0  0  0  0  0  0  0  0
  -22.1880  -24.1890   13.0602 H   0  0  0  0  0  0  0  0  0  0  0  0
  -21.2672  -25.0376   11.6920 H   0  0  0  0  0  0  0  0  0  0  0  0
  -20.3830  -24.4889   14.5095 H   0  0  0  0  0  0  0  0  0  0  0  0
  -19.5280  -26.5106   15.2374 H   0  0  0  0  0  0  0  0  0  0  0  0
  -20.9267  -28.9455   14.0509 H   0  0  0  0  0  0  0  0  0  0  0  0
  -19.9166  -28.8755   15.5599 H   0  0  0  0  0  0  0  0  0  0  0  0
  -17.9653  -28.9065   14.4166 H   0  0  0  0  0  0  0  0  0  0  0  0
  -18.9633  -29.6147   13.1018 H   0  0  0  0  0  0  0  0  0  0  0  0
  -18.5945  -27.8567   13.1018 H   0  0  0  0  0  0  0  0  0  0  0  0
  -21.6132  -25.7560   15.9475 H   0  0  0  0  0  0  0  0  0  0  0  0
  -21.6786  -27.5283   16.2908 H   0  0  0  0  0  0  0  0  0  0  0  0
  -23.7649  -26.9911   15.2494 H   0  0  0  0  0  0  0  0  0  0  0  0
  -22.9641  -26.0018   13.9819 H   0  0  0  0  0  0  0  0  0  0  0  0
  -22.7722  -27.7878   13.9819 H   0  0  0  0  0  0  0  0  0  0  0  0
 19 18  2  0
  7  8  2  0
  7  5  1  0
 18 20  1  0
 18 17  1  0
  3  2  1  0
  8  9  1  0
 17 16  2  0
 17 21  1  0
 16 10  1  0
  5  2  1  0
  5  6  2  0
  2  1  1  0
  2  4  1  0
  9 10  1  0
  9  6  1  0
 21 22  1  0
 15 13  1  0
 10 11  1  0
 11 22  1  0
 11 12  1  0
 23 22  1  0
 23 24  1  0
 26 25  1  0
 13 12  1  0
 13 14  2  0
 25 24  1  0
 28 27  1  0
 24 27  1  0
  1 29  1  0
  1 30  1  0
  1 31  1  0
  3 32  1  0
  3 33  1  0
  3 34  1  0
  4 35  1  0
  6 36  1  0
 10 37  1  0
 11 38  1  0
 12 39  1  0
 15 40  1  0
 15 41  1  0
 15 42  1  0
 16 43  1  0
 20 44  1  0
 21 45  1  0
 21 46  1  0
 22 47  1  0
 24 48  1  0
 25 49  1  0
 25 50  1  0
 26 51  1  0
 26 52  1  0
 26 53  1  0
 27 54  1  0
 27 55  1  0
 28 56  1  0
 28 57  1  0
 28 58  1  0
A    1
CAD
A    2
CBB
A    3
CAE
A    4
OAI
A    5
CAV
A    6
CAK
A    7
NAO
A    8
NAP
A    9
NBA
A   10
CAX
A   11
CAZ
A   12
NAQ
A   13
CAS
A   14
OAF
A   15
CAC
A   16
CAJ
A   17
CAU
A   18
CAT
A   19
OAH
A   20
OAG
A   21
CAN
A   22
CAY
A   23
OAR
A   24
CAW
A   25
CAM
A   26
CAB
A   27
CAL
A   28
CAA
M  END
