4KTC_1X3_A_202
     RDKit          3D

103109  0  0  0  0  0  0  0  0999 V2000
   49.6080   36.8150  109.5810 C   0  0  0  0  0  0  0  0  0  0  0  0
   50.5150   37.5950  109.8870 O   0  0  0  0  0  0  0  0  0  0  0  0
   48.4160   36.8150  110.1350 O   0  0  0  0  0  0  0  0  0  0  0  0
   48.1400   37.7140  111.2030 C   0  0  0  0  0  0  0  0  0  0  0  0
   46.9270   37.2310  112.0020 C   0  0  0  0  0  0  0  0  0  0  0  0
   45.7350   37.7920  111.2160 C   0  0  0  0  0  0  0  0  0  0  0  0
   46.2430   38.9810  110.3870 C   0  0  0  0  0  0  0  0  0  0  0  0
   47.7540   39.0890  110.6460 C   0  0  0  0  0  0  0  0  0  0  0  0
   50.6350   36.6390  106.5790 C   0  0  0  0  0  0  0  0  0  0  0  0
   50.8960   35.6970  107.7670 C   0  0  0  0  0  0  0  0  0  0  0  0
   49.6090   36.4420  105.9270 O   0  0  0  0  0  0  0  0  0  0  0  0
   49.7660   35.7720  108.6990 N   0  0  0  0  0  0  0  0  0  0  0  0
   51.1180   34.2370  107.3120 C   0  0  0  0  0  0  0  0  0  0  0  0
   52.3690   34.1910  106.4000 C   0  0  0  0  0  0  0  0  0  0  0  0
   52.4360   32.8350  105.6560 C   0  0  0  0  0  0  0  0  0  0  0  0
   52.1680   33.0360  104.1460 C   0  0  0  0  0  0  0  0  0  0  0  0
   50.6450   33.0120  103.9090 C   0  0  0  0  0  0  0  0  0  0  0  0
   48.2770   36.6650  101.7570 C   0  0  0  0  0  0  0  0  0  0  0  0
   49.7710   36.8700  101.9330 C   0  0  0  0  0  0  0  0  0  0  0  0
   49.1040   35.6370  102.5110 C   0  0  0  0  0  0  0  0  0  0  0  0
   50.2230   37.8240  102.9080 N   0  0  0  0  0  0  0  0  0  0  0  0
   50.4200   35.9620   99.7550 O   0  0  0  0  0  0  0  0  0  0  0  0
   50.6880   36.8090  100.7300 C   0  0  0  0  0  0  0  0  0  0  0  0
   49.3450   34.2400  102.0070 C   0  0  0  0  0  0  0  0  0  0  0  0
   50.2090   33.3050  102.4590 C   0  0  0  0  0  0  0  0  0  0  0  0
   51.6370   37.7340  100.6250 N   0  0  0  0  0  0  0  0  0  0  0  0
   52.5470   37.8050   99.2040 S   0  0  0  0  0  0  0  0  0  0  0  0
   53.1850   36.5050   98.9700 O   0  0  0  0  0  0  0  0  0  0  0  0
   51.6790   38.3530   98.1440 O   0  0  0  0  0  0  0  0  0  0  0  0
   53.8420   39.0730   99.5670 C   0  0  0  0  0  0  0  0  0  0  0  0
   54.6220   39.4720   98.3320 C   0  0  0  0  0  0  0  0  0  0  0  0
   53.5580   40.3960   98.8820 C   0  0  0  0  0  0  0  0  0  0  0  0
   51.5530   37.5950  106.2260 N   0  0  0  0  0  0  0  0  0  0  0  0
   51.3840   38.4900  105.0670 C   0  0  0  0  0  0  0  0  0  0  0  0
   51.3140   37.7110  103.7460 C   0  0  0  0  0  0  0  0  0  0  0  0
   52.2240   36.9090  103.5490 O   0  0  0  0  0  0  0  0  0  0  0  0
   52.5680   39.4740  105.1180 C   0  0  0  0  0  0  0  0  0  0  0  0
   52.9120   39.5030  106.6120 C   0  0  0  0  0  0  0  0  0  0  0  0
   52.6370   38.0710  107.0950 C   0  0  0  0  0  0  0  0  0  0  0  0
   52.0530   40.4060  107.3110 O   0  0  0  0  0  0  0  0  0  0  0  0
   52.0520   41.7020  107.0810 C   0  0  0  0  0  0  0  0  0  0  0  0
   51.0200   42.3120  107.7580 N   0  0  0  0  0  0  0  0  0  0  0  0
   53.0340   42.3220  106.6710 O   0  0  0  0  0  0  0  0  0  0  0  0
   50.9420   43.7750  107.9540 C   0  0  0  0  0  0  0  0  0  0  0  0
   49.6740   44.2620  108.6650 C   0  0  0  0  0  0  0  0  0  0  0  0
   48.6100   43.3720  108.9370 C   0  0  0  0  0  0  0  0  0  0  0  0
   48.7700   41.9340  108.5200 C   0  0  0  0  0  0  0  0  0  0  0  0
   50.2310   41.5690  108.7450 C   0  0  0  0  0  0  0  0  0  0  0  0
   49.5490   45.6120  109.0440 C   0  0  0  0  0  0  0  0  0  0  0  0
   48.3710   46.0350  109.6990 C   0  0  0  0  0  0  0  0  0  0  0  0
   47.3200   45.1330  109.9780 C   0  0  0  0  0  0  0  0  0  0  0  0
   47.4320   43.7840  109.5980 C   0  0  0  0  0  0  0  0  0  0  0  0
   49.0417   37.7674  111.8307 H   0  0  0  0  0  0  0  0  0  0  0  0
   46.9461   37.6313  113.0264 H   0  0  0  0  0  0  0  0  0  0  0  0
   46.8927   36.1368  112.1099 H   0  0  0  0  0  0  0  0  0  0  0  0
   45.3271   37.0175  110.5499 H   0  0  0  0  0  0  0  0  0  0  0  0
   44.9367   38.1123  111.9016 H   0  0  0  0  0  0  0  0  0  0  0  0
   46.0536   38.8057  109.3177 H   0  0  0  0  0  0  0  0  0  0  0  0
   45.7263   39.9097  110.6708 H   0  0  0  0  0  0  0  0  0  0  0  0
   47.9685   39.8809  111.3788 H   0  0  0  0  0  0  0  0  0  0  0  0
   48.3191   39.3496  109.7390 H   0  0  0  0  0  0  0  0  0  0  0  0
   51.8198   36.0234  108.2671 H   0  0  0  0  0  0  0  0  0  0  0  0
   49.0659   35.0165  108.6926 H   0  0  0  0  0  0  0  0  0  0  0  0
   50.2384   33.8847  106.7533 H   0  0  0  0  0  0  0  0  0  0  0  0
   51.2660   33.5878  108.1876 H   0  0  0  0  0  0  0  0  0  0  0  0
   53.2725   34.3132  107.0154 H   0  0  0  0  0  0  0  0  0  0  0  0
   52.3061   35.0039  105.6616 H   0  0  0  0  0  0  0  0  0  0  0  0
   51.6774   32.1554  106.0716 H   0  0  0  0  0  0  0  0  0  0  0  0
   53.4400   32.4050  105.7866 H   0  0  0  0  0  0  0  0  0  0  0  0
   52.6448   32.2263  103.5741 H   0  0  0  0  0  0  0  0  0  0  0  0
   52.5845   33.9990  103.8155 H   0  0  0  0  0  0  0  0  0  0  0  0
   50.1854   33.7674  104.5633 H   0  0  0  0  0  0  0  0  0  0  0  0
   50.3145   31.9862  104.1293 H   0  0  0  0  0  0  0  0  0  0  0  0
   47.5660   37.3049  102.3002 H   0  0  0  0  0  0  0  0  0  0  0  0
   47.5915   36.6337  100.8973 H   0  0  0  0  0  0  0  0  0  0  0  0
   49.0581   35.1754  103.5084 H   0  0  0  0  0  0  0  0  0  0  0  0
   49.6707   38.6895  102.9908 H   0  0  0  0  0  0  0  0  0  0  0  0
   49.6190   34.3755  100.9503 H   0  0  0  0  0  0  0  0  0  0  0  0
   48.4164   33.7817  102.3780 H   0  0  0  0  0  0  0  0  0  0  0  0
   49.7945   32.3517  102.0993 H   0  0  0  0  0  0  0  0  0  0  0  0
   51.1417   33.7684  102.1049 H   0  0  0  0  0  0  0  0  0  0  0  0
   51.8139   38.3945  101.3953 H   0  0  0  0  0  0  0  0  0  0  0  0
   54.1022   38.7590  100.5886 H   0  0  0  0  0  0  0  0  0  0  0  0
   54.4539   38.9444   97.3815 H   0  0  0  0  0  0  0  0  0  0  0  0
   55.6893   39.5750   98.0867 H   0  0  0  0  0  0  0  0  0  0  0  0
   53.8466   41.3399   99.3675 H   0  0  0  0  0  0  0  0  0  0  0  0
   52.6613   40.8821   98.4702 H   0  0  0  0  0  0  0  0  0  0  0  0
   50.4284   39.0328  105.1139 H   0  0  0  0  0  0  0  0  0  0  0  0
   53.4163   39.1064  104.5219 H   0  0  0  0  0  0  0  0  0  0  0  0
   52.3324   40.4652  104.7032 H   0  0  0  0  0  0  0  0  0  0  0  0
   53.9469   39.8319  106.7879 H   0  0  0  0  0  0  0  0  0  0  0  0
   52.3206   38.0694  108.1485 H   0  0  0  0  0  0  0  0  0  0  0  0
   53.5301   37.4311  107.0406 H   0  0  0  0  0  0  0  0  0  0  0  0
   51.8109   44.0869  108.5522 H   0  0  0  0  0  0  0  0  0  0  0  0
   50.9241   44.2214  106.9488 H   0  0  0  0  0  0  0  0  0  0  0  0
   48.5100   41.8169  107.4576 H   0  0  0  0  0  0  0  0  0  0  0  0
   48.1059   41.2786  109.1025 H   0  0  0  0  0  0  0  0  0  0  0  0
   50.3751   40.4874  108.6058 H   0  0  0  0  0  0  0  0  0  0  0  0
   50.5444   41.8245  109.7680 H   0  0  0  0  0  0  0  0  0  0  0  0
   50.3574   46.3276  108.8330 H   0  0  0  0  0  0  0  0  0  0  0  0
   48.2699   47.0887  109.9981 H   0  0  0  0  0  0  0  0  0  0  0  0
   46.4141   45.4861  110.4925 H   0  0  0  0  0  0  0  0  0  0  0  0
   46.6237   43.0686  109.8099 H   0  0  0  0  0  0  0  0  0  0  0  0
 29 27  2  0
 32 31  1  0
 32 30  1  0
 31 30  1  0
 28 27  2  0
 27 30  1  0
 27 26  1  0
 22 23  2  0
 26 23  1  0
 23 19  1  0
 18 19  1  0
 18 20  1  0
 19 20  1  0
 19 21  1  0
 24 25  1  0
 24 20  1  0
 25 17  1  0
 21 35  1  0
 36 35  2  0
 35 34  1  0
 17 16  1  0
 16 15  1  0
 34 37  1  0
 34 33  1  0
 37 38  1  0
 15 14  1  0
 11  9  2  0
 33  9  1  0
 33 39  1  0
 14 13  1  0
  9 10  1  0
 38 39  1  0
 38 40  1  0
 43 41  2  0
 41 40  1  0
 41 42  1  0
 13 10  1  0
 42 44  1  0
 42 48  1  0
 10 12  1  0
 44 45  1  0
 47 48  1  0
 47 46  1  0
 45 46  2  0
 45 49  1  0
 12  1  1  0
 46 52  1  0
 49 50  2  0
  1  2  2  0
  1  3  1  0
 52 51  2  0
 50 51  1  0
  3  4  1  0
  6  5  1  0
  6  7  1  0
  5  4  1  0
  4  8  1  0
  7  8  1  0
  4 53  1  0
  5 54  1  0
  5 55  1  0
  6 56  1  0
  6 57  1  0
  7 58  1  0
  7 59  1  0
  8 60  1  0
  8 61  1  0
 10 62  1  0
 12 63  1  0
 13 64  1  0
 13 65  1  0
 14 66  1  0
 14 67  1  0
 15 68  1  0
 15 69  1  0
 16 70  1  0
 16 71  1  0
 17 72  1  0
 17 73  1  0
 18 74  1  0
 18 75  1  0
 20 76  1  0
 21 77  1  0
 24 78  1  0
 24 79  1  0
 25 80  1  0
 25 81  1  0
 26 82  1  0
 30 83  1  0
 31 84  1  0
 31 85  1  0
 32 86  1  0
 32 87  1  0
 34 88  1  0
 37 89  1  0
 37 90  1  0
 38 91  1  0
 39 92  1  0
 39 93  1  0
 44 94  1  0
 44 95  1  0
 47 96  1  0
 47 97  1  0
 48 98  1  0
 48 99  1  0
 49100  1  0
 50101  1  0
 51102  1  0
 52103  1  0
A    1
C21
A    2
O22
A    3
O23
A    4
C42
A    5
C46
A    6
C45
A    7
C44
A    8
C43
A    9
C17
A   10
C18
A   11
O19
A   12
N20
A   13
C24
A   14
C25
A   15
C26
A   16
C27
A   17
C28
A   18
C1
A   19
C2
A   20
C3
A   21
N4
A   22
O5
A   23
C6
A   24
C8
A   25
C29
A   26
N7
A   27
S47
A   28
O49
A   29
O50
A   30
C48
A   31
C52
A   32
C51
A   33
N10
A   34
C11
A   35
C14
A   36
O15
A   37
C12
A   38
C13
A   39
C9
A   40
O16
A   41
C30
A   42
N31
A   43
O32
A   44
C33
A   45
C34
A   46
C35
A   47
C36
A   48
C37
A   49
C38
A   50
C39
A   51
C40
A   52
C41
M  END
