4KTF_1TM_A_406
     RDKit          3D

 33 35  0  0  0  0  0  0  0  0999 V2000
   -9.8450   17.8110    1.5140 C   0  0  0  0  0  0  0  0  0  0  0  0
   -9.5070   18.9740    0.7430 C   0  0  0  0  0  0  0  0  0  0  0  0
   -9.7590   20.2200    1.2480 C   0  0  0  0  0  0  0  0  0  0  0  0
   -9.3420   21.3470    0.4970 O   0  0  0  0  0  0  0  0  0  0  0  0
  -10.4320   20.3600    2.4200 C   0  0  0  0  0  0  0  0  0  0  0  0
  -10.7660   19.1600    3.1460 C   0  0  0  0  0  0  0  0  0  0  0  0
  -10.4740   17.8920    2.7240 C   0  0  0  0  0  0  0  0  0  0  0  0
  -10.7880   16.6780    3.4460 C   0  0  0  0  0  0  0  0  0  0  0  0
   -9.8020   15.7600    3.8790 C   0  0  0  0  0  0  0  0  0  0  0  0
   -8.3850   15.8830    3.6740 N   0  0  0  0  0  0  0  0  0  0  0  0
  -10.3240   14.7110    4.5590 N   0  0  0  0  0  0  0  0  0  0  0  0
  -11.6290   15.0110    4.5210 N   0  0  0  0  0  0  0  0  0  0  0  0
  -11.9740   16.1310    3.8500 C   0  0  0  0  0  0  0  0  0  0  0  0
  -13.3680   16.4590    3.8470 C   0  0  0  0  0  0  0  0  0  0  0  0
  -14.3160   15.4710    3.6860 C   0  0  0  0  0  0  0  0  0  0  0  0
  -15.6570   15.7050    3.7580 C   0  0  0  0  0  0  0  0  0  0  0  0
  -16.1290   16.9830    4.0370 C   0  0  0  0  0  0  0  0  0  0  0  0
  -17.4570   17.1160    4.2220 O   0  0  0  0  0  0  0  0  0  0  0  0
  -15.1960   18.0620    4.1310 C   0  0  0  0  0  0  0  0  0  0  0  0
  -13.8730   17.7680    4.0530 C   0  0  0  0  0  0  0  0  0  0  0  0
   -9.5881   16.8183    1.1158 H   0  0  0  0  0  0  0  0  0  0  0  0
   -9.0471   18.8635   -0.2501 H   0  0  0  0  0  0  0  0  0  0  0  0
   -9.0387   22.1668    0.9617 H   0  0  0  0  0  0  0  0  0  0  0  0
  -10.7119   21.3531    2.8012 H   0  0  0  0  0  0  0  0  0  0  0  0
  -11.2920   19.2718    4.1056 H   0  0  0  0  0  0  0  0  0  0  0  0
   -7.7504   15.9381    4.4834 H   0  0  0  0  0  0  0  0  0  0  0  0
   -8.0039   15.9161    2.7176 H   0  0  0  0  0  0  0  0  0  0  0  0
  -12.3340   14.4171    4.9806 H   0  0  0  0  0  0  0  0  0  0  0  0
  -13.9737   14.4442    3.4900 H   0  0  0  0  0  0  0  0  0  0  0  0
  -16.3674   14.8811    3.5950 H   0  0  0  0  0  0  0  0  0  0  0  0
  -17.8277   17.1531    5.1392 H   0  0  0  0  0  0  0  0  0  0  0  0
  -15.5396   19.0987    4.2625 H   0  0  0  0  0  0  0  0  0  0  0  0
  -13.1516   18.5921    4.1554 H   0  0  0  0  0  0  0  0  0  0  0  0
  4  3  1  0
  2  3  1  0
  2  1  2  0
  3  5  2  0
  1  7  1  0
  5  6  1  0
  7  6  2  0
  7  8  1  0
  8 13  2  0
  8  9  1  0
 10  9  1  0
 15 16  2  0
 15 14  1  0
 16 17  1  0
 14 13  1  0
 14 20  2  0
 13 12  1  0
  9 11  2  0
 17 19  2  0
 17 18  1  0
 20 19  1  0
 12 11  1  0
  1 21  1  0
  2 22  1  0
  4 23  1  0
  5 24  1  0
  6 25  1  0
 10 26  1  0
 10 27  1  0
 12 28  1  0
 15 29  1  0
 16 30  1  0
 18 31  1  0
 19 32  1  0
 20 33  1  0
A    1
CAO
A    2
CAP
A    3
CAQ
A    4
OAT
A    5
CAR
A    6
CAS
A    7
CAN
A    8
CAJ
A    9
CAK
A   10
NAM
A   11
NAL
A   12
NAA
A   13
CAB
A   14
CAC
A   15
CAD
A   16
CAE
A   17
CAF
A   18
OAI
A   19
CAG
A   20
CAH
M  END
