4KTJ_KTJ_A_404
     RDKit          3D

 22 23  0  0  0  0  0  0  0  0999 V2000
  -11.8470   19.5750    3.2520 C   0  0  0  0  0  0  0  0  0  0  0  0
  -10.8930   20.4300    2.7140 C   0  0  0  0  0  0  0  0  0  0  0  0
  -10.0600   19.9890    1.6930 C   0  0  0  0  0  0  0  0  0  0  0  0
   -9.1260   20.8260    1.1670 O   0  0  0  0  0  0  0  0  0  0  0  0
  -10.1820   18.6920    1.2090 C   0  0  0  0  0  0  0  0  0  0  0  0
  -11.1370   17.8360    1.7460 C   0  0  0  0  0  0  0  0  0  0  0  0
  -11.9690   18.2780    2.7670 C   0  0  0  0  0  0  0  0  0  0  0  0
  -12.8830   17.4590    3.2820 C   0  0  0  0  0  0  0  0  0  0  0  0
  -12.7850   16.1420    3.3720 C   0  0  0  0  0  0  0  0  0  0  0  0
  -13.9170   15.7280    3.9470 N   0  0  0  0  0  0  0  0  0  0  0  0
  -14.6560   16.7040    4.1930 N   0  0  0  0  0  0  0  0  0  0  0  0
  -14.0470   17.8180    3.7920 C   0  0  0  0  0  0  0  0  0  0  0  0
  -14.5860   19.0270    3.9200 N   0  0  0  0  0  0  0  0  0  0  0  0
  -12.5053   19.9242    4.0612 H   0  0  0  0  0  0  0  0  0  0  0  0
  -10.7971   21.4568    3.0966 H   0  0  0  0  0  0  0  0  0  0  0  0
   -8.5391   21.3519    1.7662 H   0  0  0  0  0  0  0  0  0  0  0  0
   -9.5228   18.3425    0.4008 H   0  0  0  0  0  0  0  0  0  0  0  0
  -11.2337   16.8095    1.3627 H   0  0  0  0  0  0  0  0  0  0  0  0
  -11.9431   15.5163    3.0408 H   0  0  0  0  0  0  0  0  0  0  0  0
  -14.1471   14.7462    4.1570 H   0  0  0  0  0  0  0  0  0  0  0  0
  -14.7598   19.4168    4.8574 H   0  0  0  0  0  0  0  0  0  0  0  0
  -14.8297   19.5736    3.0817 H   0  0  0  0  0  0  0  0  0  0  0  0
  4  3  1  0
  5  3  2  0
  5  6  1  0
  3  2  1  0
  6  7  2  0
  2  1  2  0
  7  1  1  0
  7  8  1  0
  8  9  2  0
  8 12  1  0
  9 10  1  0
 12 13  1  0
 12 11  2  0
 10 11  1  0
  1 14  1  0
  2 15  1  0
  4 16  1  0
  5 17  1  0
  6 18  1  0
  9 19  1  0
 10 20  1  0
 13 21  1  0
 13 22  1  0
A    1
CAH
A    2
CAI
A    3
CAJ
A    4
OAM
A    5
CAK
A    6
CAL
A    7
CAG
A    8
CAC
A    9
CAB
A   10
NAA
A   11
NAE
A   12
CAD
A   13
NAF
M  END
