4KTN_MJU_A_301
     RDKit          3D

 48 53  0  0  0  0  0  0  0  0999 V2000
   -6.1750   -4.1050  -16.9670 N   0  0  0  0  0  0  0  0  0  0  0  0
   -6.5470   -4.1660  -15.5650 C   0  0  0  0  0  0  0  0  0  0  0  0
   -7.1290   -2.8330  -15.1000 C   0  0  0  0  0  0  0  0  0  0  0  0
   -8.3480   -3.1450  -14.2370 C   0  0  0  0  0  0  0  0  0  0  0  0
   -7.6010   -5.2490  -15.3200 C   0  0  0  0  0  0  0  0  0  0  0  0
   -8.6640   -4.5100  -14.6360 N   0  0  0  0  0  0  0  0  0  0  0  0
   -9.9560   -5.0590  -14.5070 C   0  0  0  0  0  0  0  0  0  0  0  0
  -11.0710   -4.5400  -13.6410 C   0  0  0  0  0  0  0  0  0  0  0  0
  -11.2430   -3.4560  -12.6500 C   0  0  0  0  0  0  0  0  0  0  0  0
  -10.3780   -2.4710  -12.1670 C   0  0  0  0  0  0  0  0  0  0  0  0
  -10.8760   -1.5680  -11.2060 C   0  0  0  0  0  0  0  0  0  0  0  0
  -12.1940   -1.6430  -10.7360 C   0  0  0  0  0  0  0  0  0  0  0  0
  -13.0850   -2.6190  -11.2080 C   0  0  0  0  0  0  0  0  0  0  0  0
  -10.2680   -6.1330  -15.2870 N   0  0  0  0  0  0  0  0  0  0  0  0
  -11.4920   -6.7360  -15.2770 C   0  0  0  0  0  0  0  0  0  0  0  0
  -12.5150   -6.2930  -14.5170 N   0  0  0  0  0  0  0  0  0  0  0  0
  -12.3740   -5.2320  -13.6840 C   0  0  0  0  0  0  0  0  0  0  0  0
  -13.2170   -4.5910  -12.8160 N   0  0  0  0  0  0  0  0  0  0  0  0
  -12.6380   -3.5450  -12.1600 C   0  0  0  0  0  0  0  0  0  0  0  0
  -11.7990   -8.0980  -16.2330 S   0  0  0  0  0  0  0  0  0  0  0  0
  -10.5270   -8.4840  -17.2810 C   0  0  0  0  0  0  0  0  0  0  0  0
   -9.8650   -7.4630  -17.9710 C   0  0  0  0  0  0  0  0  0  0  0  0
   -8.8610   -7.7150  -18.8270 N   0  0  0  0  0  0  0  0  0  0  0  0
   -8.4600   -8.9870  -19.0560 C   0  0  0  0  0  0  0  0  0  0  0  0
   -7.4520   -9.2650  -19.9160 N   0  0  0  0  0  0  0  0  0  0  0  0
   -7.0760  -10.5380  -20.1220 C   0  0  0  0  0  0  0  0  0  0  0  0
   -7.7100  -11.5970  -19.4650 C   0  0  0  0  0  0  0  0  0  0  0  0
   -8.7190  -11.3740  -18.6020 N   0  0  0  0  0  0  0  0  0  0  0  0
   -9.1360  -10.1100  -18.3510 C   0  0  0  0  0  0  0  0  0  0  0  0
  -10.1740   -9.8240  -17.4670 C   0  0  0  0  0  0  0  0  0  0  0  0
   -5.1616   -3.9388  -17.0464 H   0  0  0  0  0  0  0  0  0  0  0  0
   -6.4137   -4.9964  -17.4246 H   0  0  0  0  0  0  0  0  0  0  0  0
   -5.6318   -4.3995  -15.0011 H   0  0  0  0  0  0  0  0  0  0  0  0
   -6.3819   -2.2815  -14.5104 H   0  0  0  0  0  0  0  0  0  0  0  0
   -7.4116   -2.2103  -15.9616 H   0  0  0  0  0  0  0  0  0  0  0  0
   -8.1038   -3.0886  -13.1659 H   0  0  0  0  0  0  0  0  0  0  0  0
   -9.1805   -2.4396  -14.3760 H   0  0  0  0  0  0  0  0  0  0  0  0
   -7.9604   -5.6753  -16.2682 H   0  0  0  0  0  0  0  0  0  0  0  0
   -7.2225   -6.1059  -14.7433 H   0  0  0  0  0  0  0  0  0  0  0  0
   -9.3404   -2.4022  -12.5256 H   0  0  0  0  0  0  0  0  0  0  0  0
  -10.2121   -0.7832  -10.8144 H   0  0  0  0  0  0  0  0  0  0  0  0
  -12.5377   -0.9211   -9.9806 H   0  0  0  0  0  0  0  0  0  0  0  0
  -14.1195   -2.6566  -10.8360 H   0  0  0  0  0  0  0  0  0  0  0  0
  -14.1972   -4.8727  -12.6720 H   0  0  0  0  0  0  0  0  0  0  0  0
  -10.1765   -6.4208  -17.8074 H   0  0  0  0  0  0  0  0  0  0  0  0
   -6.2537  -10.7514  -20.8208 H   0  0  0  0  0  0  0  0  0  0  0  0
   -7.3792  -12.6285  -19.6562 H   0  0  0  0  0  0  0  0  0  0  0  0
  -10.7000  -10.6281  -16.9315 H   0  0  0  0  0  0  0  0  0  0  0  0
 26 25  1  0
 26 27  2  0
 25 24  2  0
 27 28  1  0
 24 23  1  0
 24 29  1  0
 23 22  2  0
 28 29  2  0
 29 30  1  0
 22 21  1  0
 30 21  2  0
 21 20  1  0
  1  2  1  0
 20 15  1  0
  2  5  1  0
  2  3  1  0
  5  6  1  0
 14 15  2  0
 14  7  1  0
 15 16  1  0
  3  4  1  0
  6  7  1  0
  6  4  1  0
 16 17  2  0
  7  8  2  0
 17  8  1  0
 17 18  1  0
  8  9  1  0
 18 19  1  0
  9 10  2  0
  9 19  1  0
 10 11  1  0
 19 13  2  0
 13 12  1  0
 11 12  2  0
  1 31  1  0
  1 32  1  0
  2 33  1  0
  3 34  1  0
  3 35  1  0
  4 36  1  0
  4 37  1  0
  5 38  1  0
  5 39  1  0
 10 40  1  0
 11 41  1  0
 12 42  1  0
 13 43  1  0
 18 44  1  0
 22 45  1  0
 26 46  1  0
 27 47  1  0
 30 48  1  0
A    1
N19
A    2
C17
A    3
C16
A    4
C15
A    5
C18
A    6
N14
A    7
C10
A    8
C7
A    9
C3
A   10
C4
A   11
C5
A   12
C6
A   13
C1
A   14
N11
A   15
C12
A   16
N13
A   17
C8
A   18
N9
A   19
C2
A   20
S20
A   21
C21
A   22
C26
A   23
N25
A   24
C24
A   25
N27
A   26
C28
A   27
C29
A   28
N30
A   29
C23
A   30
C22
M  END
