4KUP_1TZ_A_401
     RDKit          3D

 50 52  0  0  0  0  0  0  0  0999 V2000
   26.0280    7.4640   56.7940 C   0  0  0  0  0  0  0  0  0  0  0  0
   25.1240    8.6730   56.7550 C   0  0  0  0  0  0  0  0  0  0  0  0
   25.4960    9.8730   57.4150 C   0  0  0  0  0  0  0  0  0  0  0  0
   26.8330   10.0810   58.1650 C   0  0  0  0  0  0  0  0  0  0  0  0
   24.6240   10.9750   57.3800 C   0  0  0  0  0  0  0  0  0  0  0  0
   23.4110   10.8860   56.7140 C   0  0  0  0  0  0  0  0  0  0  0  0
   22.4630   12.0890   56.6830 C   0  0  0  0  0  0  0  0  0  0  0  0
   23.0470    9.7040   56.0700 C   0  0  0  0  0  0  0  0  0  0  0  0
   23.8910    8.5820   56.0810 C   0  0  0  0  0  0  0  0  0  0  0  0
   23.4150    7.3020   55.3600 C   0  0  0  0  0  0  0  0  0  0  0  0
   26.4610    7.0980   57.9260 N   0  0  0  0  0  0  0  0  0  0  0  0
   27.1500    5.8620   57.9970 N   0  0  0  0  0  0  0  0  0  0  0  0
   27.8020    5.4980   59.1010 C   0  0  0  0  0  0  0  0  0  0  0  0
   27.8580    6.1710   60.1200 O   0  0  0  0  0  0  0  0  0  0  0  0
   28.4870    4.1640   59.0350 C   0  0  0  0  0  0  0  0  0  0  0  0
   29.9650    4.3820   59.0310 N   0  0  0  0  0  0  0  0  0  0  0  0
   28.0000    3.2270   60.1630 C   0  0  0  0  0  0  0  0  0  0  0  0
   26.5000    3.1050   60.3240 C   0  0  0  0  0  0  0  0  0  0  0  0
   25.5830    4.0400   60.7040 C   0  0  0  0  0  0  0  0  0  0  0  0
   24.3670    3.5120   60.7450 N   0  0  0  0  0  0  0  0  0  0  0  0
   24.4300    2.1830   60.4290 C   0  0  0  0  0  0  0  0  0  0  0  0
   23.3950    1.2350   60.3480 C   0  0  0  0  0  0  0  0  0  0  0  0
   23.7500   -0.0690   59.9960 C   0  0  0  0  0  0  0  0  0  0  0  0
   25.0910   -0.4120   59.7120 C   0  0  0  0  0  0  0  0  0  0  0  0
   26.1240    0.5300   59.7840 C   0  0  0  0  0  0  0  0  0  0  0  0
   25.7520    1.8290   60.1380 C   0  0  0  0  0  0  0  0  0  0  0  0
   26.2994    6.9229   55.8755 H   0  0  0  0  0  0  0  0  0  0  0  0
   26.6531   10.0530   59.2498 H   0  0  0  0  0  0  0  0  0  0  0  0
   27.5364    9.2815   57.8892 H   0  0  0  0  0  0  0  0  0  0  0  0
   27.2602   11.0564   57.8892 H   0  0  0  0  0  0  0  0  0  0  0  0
   24.9051   11.9120   57.8831 H   0  0  0  0  0  0  0  0  0  0  0  0
   22.2231   12.3934   57.7125 H   0  0  0  0  0  0  0  0  0  0  0  0
   22.9480   12.9246   56.1571 H   0  0  0  0  0  0  0  0  0  0  0  0
   21.5372   11.8128   56.1571 H   0  0  0  0  0  0  0  0  0  0  0  0
   22.0822    9.6497   55.5444 H   0  0  0  0  0  0  0  0  0  0  0  0
   23.1332    6.5443   56.1059 H   0  0  0  0  0  0  0  0  0  0  0  0
   22.5445    7.5381   54.7302 H   0  0  0  0  0  0  0  0  0  0  0  0
   24.2282    6.9119   54.7302 H   0  0  0  0  0  0  0  0  0  0  0  0
   27.1470    5.2336   57.1809 H   0  0  0  0  0  0  0  0  0  0  0  0
   28.2234    3.6456   58.1013 H   0  0  0  0  0  0  0  0  0  0  0  0
   30.3072    4.4325   60.0012 H   0  0  0  0  0  0  0  0  0  0  0  0
   30.4261    3.5999   58.5445 H   0  0  0  0  0  0  0  0  0  0  0  0
   28.3995    2.2221   59.9616 H   0  0  0  0  0  0  0  0  0  0  0  0
   28.3627    3.6768   61.0990 H   0  0  0  0  0  0  0  0  0  0  0  0
   25.8191    5.0873   60.9434 H   0  0  0  0  0  0  0  0  0  0  0  0
   23.5054    4.0254   60.9794 H   0  0  0  0  0  0  0  0  0  0  0  0
   22.3496    1.5088   60.5532 H   0  0  0  0  0  0  0  0  0  0  0  0
   22.9711   -0.8436   59.9388 H   0  0  0  0  0  0  0  0  0  0  0  0
   25.3297   -1.4472   59.4266 H   0  0  0  0  0  0  0  0  0  0  0  0
   27.1700    0.2623   59.5736 H   0  0  0  0  0  0  0  0  0  0  0  0
 10  9  1  0
  8  9  2  0
  8  6  1  0
  9  2  1  0
  7  6  1  0
  6  5  2  0
  2  1  1  0
  2  3  2  0
  1 11  2  0
  5  3  1  0
  3  4  1  0
 11 12  1  0
 12 13  1  0
 16 15  1  0
 15 13  1  0
 15 17  1  0
 13 14  2  0
 24 25  1  0
 24 23  2  0
 25 26  2  0
 23 22  1  0
 26 18  1  0
 26 21  1  0
 17 18  1  0
 18 19  2  0
 22 21  2  0
 21 20  1  0
 19 20  1  0
  1 27  1  0
  4 28  1  0
  4 29  1  0
  4 30  1  0
  5 31  1  0
  7 32  1  0
  7 33  1  0
  7 34  1  0
  8 35  1  0
 10 36  1  0
 10 37  1  0
 10 38  1  0
 12 39  1  0
 15 40  1  0
 16 41  1  0
 16 42  1  0
 17 43  1  0
 17 44  1  0
 19 45  1  0
 20 46  1  0
 22 47  1  0
 23 48  1  0
 24 49  1  0
 25 50  1  0
A    1
C18
A    2
C01
A    3
C02
A    4
C03
A    5
C04
A    6
C05
A    7
C06
A    8
C07
A    9
C08
A   10
C09
A   11
N24
A   12
N01
A   13
C23
A   14
O23
A   15
C11
A   16
N22
A   17
C10
A   18
C12
A   19
C2
A   20
N23
A   21
C13
A   22
C14
A   23
C15
A   24
C16
A   25
C17
A   26
C
M  END
