4KUV_MB6_A_302
     RDKit          3D

 35 36  0  0  0  0  0  0  0  0999 V2000
   -0.9310   12.6130   15.1310 Cl  0  0  0  0  0  0  0  0  0  0  0  0
   -1.1760   11.1680   14.1070 C   0  0  0  0  0  0  0  0  0  0  0  0
   -0.5620    9.9710   14.4550 C   0  0  0  0  0  0  0  0  0  0  0  0
   -0.7470    8.8520   13.6560 C   0  0  0  0  0  0  0  0  0  0  0  0
   -1.9660   11.2620   12.9690 C   0  0  0  0  0  0  0  0  0  0  0  0
   -2.1500   10.1430   12.1660 C   0  0  0  0  0  0  0  0  0  0  0  0
   -1.5370    8.9400   12.5110 C   0  0  0  0  0  0  0  0  0  0  0  0
   -1.7220    7.6420   11.6040 S   0  0  0  0  0  0  0  0  0  0  0  0
   -0.5590    7.4480   10.7980 O   0  0  0  0  0  0  0  0  0  0  0  0
   -2.9010    7.7170   10.7880 O   0  0  0  0  0  0  0  0  0  0  0  0
   -1.7900    6.3990   12.6140 N   0  0  0  0  0  0  0  0  0  0  0  0
   -2.8980    5.9650   13.2110 C   0  0  0  0  0  0  0  0  0  0  0  0
   -3.9980    6.4300   13.0240 O   0  0  0  0  0  0  0  0  0  0  0  0
   -2.6660    4.9520   14.0320 N   0  0  0  0  0  0  0  0  0  0  0  0
   -3.5900    4.1260   14.6210 C   0  0  0  0  0  0  0  0  0  0  0  0
   -4.9990    4.1910   14.6210 C   0  0  0  0  0  0  0  0  0  0  0  0
   -5.7450    3.2420   15.2880 N   0  0  0  0  0  0  0  0  0  0  0  0
   -2.9800    3.1220   15.2980 C   0  0  0  0  0  0  0  0  0  0  0  0
   -3.7360    2.1900   15.9870 C   0  0  0  0  0  0  0  0  0  0  0  0
   -5.1250    2.2030   15.9830 C   0  0  0  0  0  0  0  0  0  0  0  0
   -5.8820    0.9710   16.7940 S   0  0  0  0  0  0  0  0  0  0  0  0
   -5.4010   -0.3470   16.2140 O   0  0  0  0  0  0  0  0  0  0  0  0
   -7.3060    1.1680   16.5820 O   0  0  0  0  0  0  0  0  0  0  0  0
   -5.4670    1.0720   18.2370 N   0  0  0  0  0  0  0  0  0  0  0  0
    0.0655    9.9112   15.3565 H   0  0  0  0  0  0  0  0  0  0  0  0
   -0.2713    7.8975   13.9255 H   0  0  0  0  0  0  0  0  0  0  0  0
   -2.4435   12.2170   12.7046 H   0  0  0  0  0  0  0  0  0  0  0  0
   -2.7757   10.2064   11.2635 H   0  0  0  0  0  0  0  0  0  0  0  0
   -0.9121    5.8995   12.8159 H   0  0  0  0  0  0  0  0  0  0  0  0
   -1.6782    4.7623   14.2540 H   0  0  0  0  0  0  0  0  0  0  0  0
   -5.5072    5.0057   14.0843 H   0  0  0  0  0  0  0  0  0  0  0  0
   -1.8825    3.0482   15.2995 H   0  0  0  0  0  0  0  0  0  0  0  0
   -3.2166    1.4081   16.5604 H   0  0  0  0  0  0  0  0  0  0  0  0
   -6.2771    0.8748   18.8418 H   0  0  0  0  0  0  0  0  0  0  0  0
   -4.7211    0.3880   18.4284 H   0  0  0  0  0  0  0  0  0  0  0  0
 10  8  2  0
  9  8  2  0
  8  7  1  0
  8 11  1  0
  6  7  2  0
  6  5  1  0
  7  4  1  0
 11 12  1  0
  5  2  2  0
 13 12  2  0
 12 14  1  0
  4  3  2  0
 14 15  1  0
  2  3  1  0
  2  1  1  0
 16 15  2  0
 16 17  1  0
 15 18  1  0
 17 20  2  0
 18 19  2  0
 20 19  1  0
 20 21  1  0
 22 21  2  0
 23 21  2  0
 21 24  1  0
  3 25  1  0
  4 26  1  0
  5 27  1  0
  6 28  1  0
 11 29  1  0
 14 30  1  0
 16 31  1  0
 18 32  1  0
 19 33  1  0
 24 34  1  0
 24 35  1  0
A    1
CL1
A    2
C19
A    3
C18
A    4
C17
A    5
C21
A    6
C22
A    7
C16
A    8
S13
A    9
O14
A   10
O15
A   11
N12
A   12
C10
A   13
O11
A   14
N9
A   15
C8
A   16
C7
A   17
N6
A   18
C23
A   19
C24
A   20
C5
A   21
S1
A   22
O2
A   23
O3
A   24
N4
M  END
