4KVD_1SS_A_408
     RDKit          3D

 41 42  0  0  0  0  0  0  0  0999 V2000
  -50.8940   47.4460  -11.2240 C   0  0  0  0  0  0  0  0  0  0  0  0
  -51.5530   46.2150  -11.8390 C   0  0  0  0  0  0  0  0  0  0  0  0
  -52.4880   45.5530  -10.8360 C   0  0  0  0  0  0  0  0  0  0  0  0
  -51.7390   45.2410   -9.5510 C   0  0  0  0  0  0  0  0  0  0  0  0
  -51.0700   46.4950   -9.0190 C   0  0  0  0  0  0  0  0  0  0  0  0
  -52.6990   44.7190   -8.4950 C   0  0  0  0  0  0  0  0  0  0  0  0
  -51.9650   44.3940   -7.1970 C   0  0  0  0  0  0  0  0  0  0  0  0
  -51.1730   45.5800   -6.6450 C   0  0  0  0  0  0  0  0  0  0  0  0
  -50.2980   46.2030   -7.7330 C   0  0  0  0  0  0  0  0  0  0  0  0
  -49.5250   48.2570   -9.4180 C   0  0  0  0  0  0  0  0  0  0  0  0
  -50.6670   44.1980   -9.8350 C   0  0  0  0  0  0  0  0  0  0  0  0
  -52.1060   46.5940   -6.0420 C   0  0  0  0  0  0  0  0  0  0  0  0
  -53.2780   46.1140   -5.2410 C   0  0  0  0  0  0  0  0  0  0  0  0
  -51.9090   47.8940   -6.1910 C   0  0  0  0  0  0  0  0  0  0  0  0
  -50.1520   47.0660  -10.0120 N   0  0  0  0  0  0  0  0  0  0  0  0
  -50.1994   47.8897  -11.9524 H   0  0  0  0  0  0  0  0  0  0  0  0
  -51.6716   48.1770  -10.9574 H   0  0  0  0  0  0  0  0  0  0  0  0
  -52.1292   46.5179  -12.7257 H   0  0  0  0  0  0  0  0  0  0  0  0
  -50.7697   45.4967  -12.1227 H   0  0  0  0  0  0  0  0  0  0  0  0
  -53.3238   46.2329  -10.6141 H   0  0  0  0  0  0  0  0  0  0  0  0
  -52.8718   44.6159  -11.2657 H   0  0  0  0  0  0  0  0  0  0  0  0
  -51.8675   47.2216   -8.8046 H   0  0  0  0  0  0  0  0  0  0  0  0
  -53.4626   45.4848   -8.2938 H   0  0  0  0  0  0  0  0  0  0  0  0
  -53.1657   43.7972   -8.8725 H   0  0  0  0  0  0  0  0  0  0  0  0
  -52.7049   44.0856   -6.4437 H   0  0  0  0  0  0  0  0  0  0  0  0
  -51.2452   43.5921   -7.4181 H   0  0  0  0  0  0  0  0  0  0  0  0
  -50.5037   45.2180   -5.8506 H   0  0  0  0  0  0  0  0  0  0  0  0
  -49.4780   45.5076   -7.9656 H   0  0  0  0  0  0  0  0  0  0  0  0
  -49.9226   47.1622   -7.3471 H   0  0  0  0  0  0  0  0  0  0  0  0
  -49.5638   48.1833   -8.3212 H   0  0  0  0  0  0  0  0  0  0  0  0
  -48.4765   48.3207   -9.7444 H   0  0  0  0  0  0  0  0  0  0  0  0
  -50.0659   49.1575   -9.7444 H   0  0  0  0  0  0  0  0  0  0  0  0
  -50.2701   43.8119   -8.8845 H   0  0  0  0  0  0  0  0  0  0  0  0
  -51.1045   43.3705  -10.4128 H   0  0  0  0  0  0  0  0  0  0  0  0
  -49.8518   44.6580  -10.4128 H   0  0  0  0  0  0  0  0  0  0  0  0
  -53.0518   46.2067   -4.1685 H   0  0  0  0  0  0  0  0  0  0  0  0
  -54.1617   46.7226   -5.4833 H   0  0  0  0  0  0  0  0  0  0  0  0
  -53.4809   45.0604   -5.4833 H   0  0  0  0  0  0  0  0  0  0  0  0
  -52.6088   48.6118   -5.7381 H   0  0  0  0  0  0  0  0  0  0  0  0
  -51.0455   48.2569   -6.7677 H   0  0  0  0  0  0  0  0  0  0  0  0
  -49.4350   46.3742  -10.2732 H   0  0  0  0  0  0  0  0  0  0  0  0
  2  1  1  0
  2  3  1  0
  1 15  1  0
  3  4  1  0
 15 10  1  0
 15  5  1  0
 11  4  1  0
  4  5  1  0
  4  6  1  0
  5  9  1  0
  6  7  1  0
  9  8  1  0
  7  8  1  0
  8 12  1  0
 14 12  2  3
 12 13  1  0
  1 16  1  0
  1 17  1  0
  2 18  1  0
  2 19  1  0
  3 20  1  0
  3 21  1  0
  5 22  1  0
  6 23  1  0
  6 24  1  0
  7 25  1  0
  7 26  1  0
  8 27  1  0
  9 28  1  0
  9 29  1  0
 10 30  1  0
 10 31  1  0
 10 32  1  0
 11 33  1  0
 11 34  1  0
 11 35  1  0
 13 36  1  0
 13 37  1  0
 13 38  1  0
 14 39  1  0
 14 40  1  0
 15 41  1  0
M  CHG  1  15   1
A    1
C1
A    2
C2
A    3
C3
A    4
C4
A    5
C5
A    6
C6
A    7
C7
A    8
C8
A    9
C9
A   10
C10
A   11
C11
A   12
C12
A   13
C13
A   14
C14
A   15
N1
M  END
