4KVI_1SV_A_705
     RDKit          3D

 36 37  0  0  0  0  0  0  0  0999 V2000
   52.3850  -46.3320  -12.1820 C   0  0  0  0  0  0  0  0  0  0  0  0
   50.9380  -46.6920  -11.9060 C   0  0  0  0  0  0  0  0  0  0  0  0
   50.4160  -45.9580  -10.7730 N   0  0  0  0  0  0  0  0  0  0  0  0
   51.1490  -45.5760   -9.7290 C   0  0  0  0  0  0  0  0  0  0  0  0
   52.6550  -45.5100   -9.8120 C   0  0  0  0  0  0  0  0  0  0  0  0
   53.1890  -46.4360  -10.8970 C   0  0  0  0  0  0  0  0  0  0  0  0
   50.3880  -45.2070   -8.4820 C   0  0  0  0  0  0  0  0  0  0  0  0
   51.0310  -45.8180   -7.2430 C   0  0  0  0  0  0  0  0  0  0  0  0
   52.5340  -45.5470   -7.2270 C   0  0  0  0  0  0  0  0  0  0  0  0
   53.2770  -45.9610   -8.4940 C   0  0  0  0  0  0  0  0  0  0  0  0
   53.0360  -44.0710  -10.1290 C   0  0  0  0  0  0  0  0  0  0  0  0
   50.7190  -47.2890   -7.1600 C   0  0  0  0  0  0  0  0  0  0  0  0
   49.4960  -47.8350   -7.8360 C   0  0  0  0  0  0  0  0  0  0  0  0
   51.5020  -48.1040   -6.4770 C   0  0  0  0  0  0  0  0  0  0  0  0
   52.4395  -45.3026  -12.5659 H   0  0  0  0  0  0  0  0  0  0  0  0
   52.7983  -47.0255  -12.9292 H   0  0  0  0  0  0  0  0  0  0  0  0
   50.3347  -46.4544  -12.7946 H   0  0  0  0  0  0  0  0  0  0  0  0
   50.8875  -47.7662  -11.6745 H   0  0  0  0  0  0  0  0  0  0  0  0
   49.4148  -45.7160  -10.7744 H   0  0  0  0  0  0  0  0  0  0  0  0
   54.2344  -46.1677  -11.1097 H   0  0  0  0  0  0  0  0  0  0  0  0
   53.1097  -47.4699  -10.5299 H   0  0  0  0  0  0  0  0  0  0  0  0
   49.3554  -45.5760   -8.5694 H   0  0  0  0  0  0  0  0  0  0  0  0
   50.4010  -44.1121   -8.3772 H   0  0  0  0  0  0  0  0  0  0  0  0
   50.6059  -45.3409   -6.3477 H   0  0  0  0  0  0  0  0  0  0  0  0
   52.9709  -46.0965   -6.3801 H   0  0  0  0  0  0  0  0  0  0  0  0
   52.6490  -44.4561   -7.1455 H   0  0  0  0  0  0  0  0  0  0  0  0
   54.2927  -45.5421   -8.4405 H   0  0  0  0  0  0  0  0  0  0  0  0
   53.2436  -47.0604   -8.5113 H   0  0  0  0  0  0  0  0  0  0  0  0
   53.1831  -43.5155   -9.1910 H   0  0  0  0  0  0  0  0  0  0  0  0
   53.9684  -44.0586  -10.7125 H   0  0  0  0  0  0  0  0  0  0  0  0
   52.2319  -43.5988  -10.7125 H   0  0  0  0  0  0  0  0  0  0  0  0
   48.7704  -48.1589   -7.0754 H   0  0  0  0  0  0  0  0  0  0  0  0
   49.0443  -47.0531   -8.4641 H   0  0  0  0  0  0  0  0  0  0  0  0
   49.7766  -48.6933   -8.4641 H   0  0  0  0  0  0  0  0  0  0  0  0
   51.2654  -49.1769   -6.4225 H   0  0  0  0  0  0  0  0  0  0  0  0
   52.3909  -47.7100   -5.9625 H   0  0  0  0  0  0  0  0  0  0  0  0
 10  9  1  0
 10  5  1  0
  6  5  1  0
  6  1  1  0
 14 12  2  3
  9  8  1  0
  5 11  1  0
  5  4  1  0
  1  2  1  0
 12  8  1  0
 12 13  1  0
  2  3  1  0
  8  7  1  0
  4  3  2  0
  4  7  1  0
  1 15  1  0
  1 16  1  0
  2 17  1  0
  2 18  1  0
  3 19  1  0
  6 20  1  0
  6 21  1  0
  7 22  1  0
  7 23  1  0
  8 24  1  0
  9 25  1  0
  9 26  1  0
 10 27  1  0
 10 28  1  0
 11 29  1  0
 11 30  1  0
 11 31  1  0
 13 32  1  0
 13 33  1  0
 13 34  1  0
 14 35  1  0
 14 36  1  0
M  CHG  1   3   1
A    1
C2
A    2
C1
A    3
N1
A    4
C9
A    5
C4
A    6
C3
A    7
C8
A    8
C7
A    9
C6
A   10
C5
A   11
C10
A   12
C11
A   13
C12
A   14
C13
M  END
