4KVW_JF4_A_405
     RDKit          3D

 41 42  0  0  0  0  0  0  0  0999 V2000
   59.4790  -22.8780   21.4220 C   0  0  0  0  0  0  0  0  0  0  0  0
   58.5090  -22.6900   22.2970 C   0  0  0  0  0  0  0  0  0  0  0  0
   57.2730  -23.5380   22.2640 C   0  0  0  0  0  0  0  0  0  0  0  0
   58.6280  -21.6200   23.3320 C   0  0  0  0  0  0  0  0  0  0  0  0
   57.5160  -20.6120   23.1000 C   0  0  0  0  0  0  0  0  0  0  0  0
   57.4810  -19.5580   24.1950 C   0  0  0  0  0  0  0  0  0  0  0  0
   57.4590  -20.1790   25.5840 C   0  0  0  0  0  0  0  0  0  0  0  0
   57.6880  -19.0600   26.5910 C   0  0  0  0  0  0  0  0  0  0  0  0
   58.5370  -21.1820   25.7320 N   0  0  0  0  0  0  0  0  0  0  0  0
   58.4310  -22.2360   24.7070 C   0  0  0  0  0  0  0  0  0  0  0  0
   56.0890  -20.8070   25.8210 C   0  0  0  0  0  0  0  0  0  0  0  0
   56.0130  -21.5140   27.1680 C   0  0  0  0  0  0  0  0  0  0  0  0
   57.1620  -22.5040   27.3060 C   0  0  0  0  0  0  0  0  0  0  0  0
   58.5020  -21.8150   27.0700 C   0  0  0  0  0  0  0  0  0  0  0  0
   59.6460  -22.8130   27.1940 C   0  0  0  0  0  0  0  0  0  0  0  0
   60.3808  -22.2490   21.4569 H   0  0  0  0  0  0  0  0  0  0  0  0
   59.3857  -23.6637   20.6578 H   0  0  0  0  0  0  0  0  0  0  0  0
   56.9519  -23.7583   23.2928 H   0  0  0  0  0  0  0  0  0  0  0  0
   56.4720  -22.9983   21.7375 H   0  0  0  0  0  0  0  0  0  0  0  0
   57.4882  -24.4795   21.7375 H   0  0  0  0  0  0  0  0  0  0  0  0
   59.6155  -21.1395   23.2700 H   0  0  0  0  0  0  0  0  0  0  0  0
   57.6796  -20.1161   22.1318 H   0  0  0  0  0  0  0  0  0  0  0  0
   56.5563  -21.1494   23.1079 H   0  0  0  0  0  0  0  0  0  0  0  0
   58.3740  -18.9221   24.1045 H   0  0  0  0  0  0  0  0  0  0  0  0
   56.5595  -18.9702   24.0712 H   0  0  0  0  0  0  0  0  0  0  0  0
   57.6056  -19.4625   27.6114 H   0  0  0  0  0  0  0  0  0  0  0  0
   58.6918  -18.6347   26.4445 H   0  0  0  0  0  0  0  0  0  0  0  0
   56.9320  -18.2745   26.4445 H   0  0  0  0  0  0  0  0  0  0  0  0
   59.4283  -20.6792   25.6148 H   0  0  0  0  0  0  0  0  0  0  0  0
   57.4366  -22.7030   24.7615 H   0  0  0  0  0  0  0  0  0  0  0  0
   59.2025  -23.0002   24.8827 H   0  0  0  0  0  0  0  0  0  0  0  0
   55.3253  -20.0159   25.7911 H   0  0  0  0  0  0  0  0  0  0  0  0
   55.9164  -21.5552   25.0333 H   0  0  0  0  0  0  0  0  0  0  0  0
   56.0766  -20.7683   27.9742 H   0  0  0  0  0  0  0  0  0  0  0  0
   55.0594  -22.0581   27.2353 H   0  0  0  0  0  0  0  0  0  0  0  0
   57.0353  -23.3089   26.5670 H   0  0  0  0  0  0  0  0  0  0  0  0
   57.1521  -22.9156   28.3260 H   0  0  0  0  0  0  0  0  0  0  0  0
   58.6213  -21.0350   27.8364 H   0  0  0  0  0  0  0  0  0  0  0  0
   59.8578  -22.9977   28.2575 H   0  0  0  0  0  0  0  0  0  0  0  0
   59.3628  -23.7578   26.7070 H   0  0  0  0  0  0  0  0  0  0  0  0
   60.5436  -22.4042   26.7070 H   0  0  0  0  0  0  0  0  0  0  0  0
  1  2  2  3
  3  2  1  0
  2  4  1  0
  5  4  1  0
  5  6  1  0
  4 10  1  0
  6  7  1  0
 10  9  1  0
  7  9  1  0
  7 11  1  0
  7  8  1  0
  9 14  1  0
 11 12  1  0
 14 15  1  0
 14 13  1  0
 12 13  1  0
  1 16  1  0
  1 17  1  0
  3 18  1  0
  3 19  1  0
  3 20  1  0
  4 21  1  0
  5 22  1  0
  5 23  1  0
  6 24  1  0
  6 25  1  0
  8 26  1  0
  8 27  1  0
  8 28  1  0
  9 29  1  0
 10 30  1  0
 10 31  1  0
 11 32  1  0
 11 33  1  0
 12 34  1  0
 12 35  1  0
 13 36  1  0
 13 37  1  0
 14 38  1  0
 15 39  1  0
 15 40  1  0
 15 41  1  0
M  CHG  1   9   1
A    1
CAA
A    2
CAK
A    3
CAB
A    4
CAL
A    5
CAG
A    6
CAI
A    7
CAO
A    8
CAD
A    9
NAN
A   10
CAJ
A   11
CAH
A   12
CAE
A   13
CAF
A   14
CAM
A   15
CAC
M  END
