4KWP_EXX_A_408
     RDKit          3D

 31 33  0  0  0  0  0  0  0  0999 V2000
   22.9530  -32.0450   15.4250 Br  0  0  0  0  0  0  0  0  0  0  0  0
   22.8590  -30.6640   14.0990 C   0  0  0  0  0  0  0  0  0  0  0  0
   22.9950  -30.9840   12.7640 C   0  0  0  0  0  0  0  0  0  0  0  0
   23.3250  -32.8170   12.1400 Br  0  0  0  0  0  0  0  0  0  0  0  0
   22.9260  -29.9680   11.8710 C   0  0  0  0  0  0  0  0  0  0  0  0
   23.1630  -30.4300   10.0030 Br  0  0  0  0  0  0  0  0  0  0  0  0
   22.7190  -28.6510   12.2770 C   0  0  0  0  0  0  0  0  0  0  0  0
   22.6190  -27.3020   10.9000 Br  0  0  0  0  0  0  0  0  0  0  0  0
   22.5800  -28.3330   13.6560 C   0  0  0  0  0  0  0  0  0  0  0  0
   22.6620  -29.3580   14.5400 C   0  0  0  0  0  0  0  0  0  0  0  0
   22.5210  -28.8680   15.7930 N   0  0  0  0  0  0  0  0  0  0  0  0
   22.3390  -27.5300   15.7000 C   0  0  0  0  0  0  0  0  0  0  0  0
   22.3990  -27.1770   14.3900 N   0  0  0  0  0  0  0  0  0  0  0  0
   22.2170  -25.9730   13.9700 C   0  0  0  0  0  0  0  0  0  0  0  0
   23.1550  -25.0000   14.5030 O   0  0  0  0  0  0  0  0  0  0  0  0
   20.7550  -25.5210   14.5620 C   0  0  0  0  0  0  0  0  0  0  0  0
   21.0060  -24.1570   14.8930 C   0  0  0  0  0  0  0  0  0  0  0  0
   20.6370  -23.2880   13.7980 O   0  0  0  0  0  0  0  0  0  0  0  0
   22.3600  -24.0730   15.2090 C   0  0  0  0  0  0  0  0  0  0  0  0
   22.6590  -24.0540   16.7980 C   0  0  0  0  0  0  0  0  0  0  0  0
   22.0380  -25.1120   17.4430 O   0  0  0  0  0  0  0  0  0  0  0  0
   22.1708  -26.8441   16.5434 H   0  0  0  0  0  0  0  0  0  0  0  0
   22.3251  -25.9839   12.8754 H   0  0  0  0  0  0  0  0  0  0  0  0
   19.9652  -25.6136   13.8020 H   0  0  0  0  0  0  0  0  0  0  0  0
   20.3970  -26.1334   15.4027 H   0  0  0  0  0  0  0  0  0  0  0  0
   20.3993  -23.8257   15.7486 H   0  0  0  0  0  0  0  0  0  0  0  0
   20.2765  -22.4390   14.1576 H   0  0  0  0  0  0  0  0  0  0  0  0
   22.6740  -23.0817   14.8503 H   0  0  0  0  0  0  0  0  0  0  0  0
   23.7449  -24.1249   16.9585 H   0  0  0  0  0  0  0  0  0  0  0  0
   22.2630  -23.1155   17.2132 H   0  0  0  0  0  0  0  0  0  0  0  0
   22.1100  -24.9893   18.4227 H   0  0  0  0  0  0  0  0  0  0  0  0
  6  5  1  0
  8  7  1  0
  5  7  2  0
  5  3  1  0
  4  3  1  0
  7  9  1  0
  3  2  2  0
  9 13  1  0
  9 10  2  0
 18 17  1  0
 14 13  1  0
 14 15  1  0
 14 16  1  0
  2 10  1  0
  2  1  1  0
 13 12  1  0
 15 19  1  0
 10 11  1  0
 16 17  1  0
 17 19  1  0
 19 20  1  0
 12 11  2  0
 20 21  1  0
 12 22  1  0
 14 23  1  0
 16 24  1  0
 16 25  1  0
 17 26  1  0
 18 27  1  0
 19 28  1  0
 20 29  1  0
 20 30  1  0
 21 31  1  0
A    1
BRE
A    2
CAN
A    3
CAL
A    4
BRC
A    5
CAM
A    6
BRD
A    7
CAO
A    8
BRF
A    9
CAQ
A   10
CAP
A   11
NAJ
A   12
CAG
A   13
NAU
A   14
CAT
A   15
OAK
A   16
CAI
A   17
CAR
A   18
OAB
A   19
CAS
A   20
CAH
A   21
OAA
M  END
