1XK9_P34_A_1001
     RDKit          3D

 39 41  0  0  0  0  0  0  0  0999 V2000
   31.8880    7.6030   18.1380 C   0  0  0  0  0  0  0  0  0  0  0  0
   32.8510    8.7170   18.0680 N   0  0  0  0  0  0  0  0  0  0  0  0
   32.8860    9.4620   19.3360 C   0  0  0  0  0  0  0  0  0  0  0  0
   32.5250    9.6490   16.9080 C   0  0  0  0  0  0  0  0  0  0  0  0
   31.0220   10.0210   16.6150 C   0  0  0  0  0  0  0  0  0  0  0  0
   30.8090   10.7810   15.6490 O   0  0  0  0  0  0  0  0  0  0  0  0
   29.8710    9.5620   17.3270 N   0  0  0  0  0  0  0  0  0  0  0  0
   29.3510    9.3770   18.6130 C   0  0  0  0  0  0  0  0  0  0  0  0
   28.1420    8.5170   18.6140 C   0  0  0  0  0  0  0  0  0  0  0  0
   27.4000    8.1560   19.8490 C   0  0  0  0  0  0  0  0  0  0  0  0
   26.1680    7.3120   19.9000 C   0  0  0  0  0  0  0  0  0  0  0  0
   25.5700    6.7070   18.7210 C   0  0  0  0  0  0  0  0  0  0  0  0
   24.3690    5.8760   18.8090 C   0  0  0  0  0  0  0  0  0  0  0  0
   23.7700    5.6120   20.0600 C   0  0  0  0  0  0  0  0  0  0  0  0
   24.3270    6.1790   21.2490 C   0  0  0  0  0  0  0  0  0  0  0  0
   25.5330    7.0050   21.1970 C   0  0  0  0  0  0  0  0  0  0  0  0
   26.0740    7.5700   22.3840 C   0  0  0  0  0  0  0  0  0  0  0  0
   25.5960    7.3700   23.5060 O   0  0  0  0  0  0  0  0  0  0  0  0
   27.2650    8.3890   22.3100 N   0  0  0  0  0  0  0  0  0  0  0  0
   27.9220    8.6930   21.0770 C   0  0  0  0  0  0  0  0  0  0  0  0
   29.1120    9.5360   21.1150 C   0  0  0  0  0  0  0  0  0  0  0  0
   29.8160    9.8620   19.8810 C   0  0  0  0  0  0  0  0  0  0  0  0
   31.6807    7.3632   19.1913 H   0  0  0  0  0  0  0  0  0  0  0  0
   30.9529    7.8947   17.6374 H   0  0  0  0  0  0  0  0  0  0  0  0
   32.3118    6.7199   17.6374 H   0  0  0  0  0  0  0  0  0  0  0  0
   32.8528    8.7548   20.1778 H   0  0  0  0  0  0  0  0  0  0  0  0
   33.8129   10.0520   19.3892 H   0  0  0  0  0  0  0  0  0  0  0  0
   32.0185   10.1363   19.3892 H   0  0  0  0  0  0  0  0  0  0  0  0
   33.0583   10.5927   17.0953 H   0  0  0  0  0  0  0  0  0  0  0  0
   32.8286    9.0750   16.0201 H   0  0  0  0  0  0  0  0  0  0  0  0
   29.1653    9.2546   16.6426 H   0  0  0  0  0  0  0  0  0  0  0  0
   27.7770    8.1274   17.6523 H   0  0  0  0  0  0  0  0  0  0  0  0
   26.0323    6.8784   17.7377 H   0  0  0  0  0  0  0  0  0  0  0  0
   23.9293    5.4536   17.8934 H   0  0  0  0  0  0  0  0  0  0  0  0
   22.8774    4.9720   20.1200 H   0  0  0  0  0  0  0  0  0  0  0  0
   23.8409    5.9910   22.2177 H   0  0  0  0  0  0  0  0  0  0  0  0
   27.6563    8.7694   23.1835 H   0  0  0  0  0  0  0  0  0  0  0  0
   29.4784    9.9261   22.0760 H   0  0  0  0  0  0  0  0  0  0  0  0
   30.7182   10.4899   19.9224 H   0  0  0  0  0  0  0  0  0  0  0  0
  1  2  1  0
  2  3  1  0
  2  4  1  0
  4  5  1  0
  5  6  2  0
  5  7  1  0
  7  8  1  0
  8  9  2  0
  8 22  1  0
  9 10  1  0
 10 11  1  0
 10 20  2  0
 11 12  2  0
 11 16  1  0
 12 13  1  0
 13 14  2  0
 14 15  1  0
 15 16  2  0
 16 17  1  0
 17 18  2  0
 17 19  1  0
 19 20  1  0
 20 21  1  0
 21 22  2  0
  1 23  1  0
  1 24  1  0
  1 25  1  0
  3 26  1  0
  3 27  1  0
  3 28  1  0
  4 29  1  0
  4 30  1  0
  7 31  1  0
  9 32  1  0
 12 33  1  0
 13 34  1  0
 14 35  1  0
 15 36  1  0
 19 37  1  0
 21 38  1  0
 22 39  1  0
A    1
CAA
A    2
N
A    3
CAB
A    4
CA
A    5
C
A    6
O
A    7
NAM
A    8
CAP
A    9
CAK
A   10
CAU
A   11
CAT
A   12
CAI
A   13
CAF
A   14
CAE
A   15
CAH
A   16
CAS
A   17
CAQ
A   18
OAD
A   19
NAN
A   20
CAR
A   21
CAJ
A   22
CAG
M  END
