4KXN_6K6_A_201
     RDKit          3D

 47 50  0  0  0  0  0  0  0  0999 V2000
    4.3010   -7.6150   44.8330 C   0  0  0  0  0  0  0  0  0  0  0  0
    5.3400   -7.6770   45.6680 C   0  0  0  0  0  0  0  0  0  0  0  0
    6.4700   -7.6280   44.9650 C   0  0  0  0  0  0  0  0  0  0  0  0
    6.1340   -7.5400   43.6400 O   0  0  0  0  0  0  0  0  0  0  0  0
    4.7720   -7.5350   43.5940 C   0  0  0  0  0  0  0  0  0  0  0  0
    4.0030   -7.4310   42.2800 C   0  0  0  0  0  0  0  0  0  0  0  0
    3.9390   -5.9980   41.9480 N   0  0  0  0  0  0  0  0  0  0  0  0
    4.7890   -5.4340   41.1010 C   0  0  0  0  0  0  0  0  0  0  0  0
    5.8450   -6.1170   40.6010 N   0  0  0  0  0  0  0  0  0  0  0  0
    6.6940   -5.5670   39.7470 C   0  0  0  0  0  0  0  0  0  0  0  0
    6.5450   -4.3170   39.3510 N   0  0  0  0  0  0  0  0  0  0  0  0
    5.5190   -3.5730   39.8110 C   0  0  0  0  0  0  0  0  0  0  0  0
    4.6030   -4.1210   40.7010 C   0  0  0  0  0  0  0  0  0  0  0  0
    3.7070   -3.1840   40.9890 N   0  0  0  0  0  0  0  0  0  0  0  0
    4.0350   -2.0850   40.3040 C   0  0  0  0  0  0  0  0  0  0  0  0
    5.1410   -2.3160   39.5750 N   0  0  0  0  0  0  0  0  0  0  0  0
    5.8430   -1.3610   38.6640 C   0  0  0  0  0  0  0  0  0  0  0  0
    5.0480   -0.1440   38.5880 O   0  0  0  0  0  0  0  0  0  0  0  0
    6.0250   -1.8540   37.2070 C   0  0  0  0  0  0  0  0  0  0  0  0
    7.4110   -1.7970   36.8470 O   0  0  0  0  0  0  0  0  0  0  0  0
    5.2570   -0.8550   36.3570 C   0  0  0  0  0  0  0  0  0  0  0  0
    6.0200   -0.4770   35.2050 O   0  0  0  0  0  0  0  0  0  0  0  0
    5.1410    0.3580   37.2690 C   0  0  0  0  0  0  0  0  0  0  0  0
    3.8080    0.9020   36.8300 C   0  0  0  0  0  0  0  0  0  0  0  0
    3.2160    1.8740   37.7050 O   0  0  0  0  0  0  0  0  0  0  0  0
    1.5790    1.7090   37.6270 P   0  0  0  0  0  0  0  0  0  0  0  0
    0.8570    1.3480   38.9800 O   0  0  0  0  0  0  0  0  0  0  0  0
    0.8050    2.5340   36.4410 O   0  0  0  0  0  0  0  0  0  0  0  0
    1.5460    3.0650   38.2230 O   0  0  0  0  0  0  0  0  0  0  0  0
    3.2394   -7.6279   45.1208 H   0  0  0  0  0  0  0  0  0  0  0  0
    5.2737   -7.7560   46.7631 H   0  0  0  0  0  0  0  0  0  0  0  0
    7.4904   -7.6536   45.3750 H   0  0  0  0  0  0  0  0  0  0  0  0
    2.9887   -7.8395   42.3995 H   0  0  0  0  0  0  0  0  0  0  0  0
    4.4982   -8.0035   41.4818 H   0  0  0  0  0  0  0  0  0  0  0  0
    3.2116   -5.4158   42.3872 H   0  0  0  0  0  0  0  0  0  0  0  0
    7.5361   -6.1607   39.3618 H   0  0  0  0  0  0  0  0  0  0  0  0
    3.4831   -1.1339   40.3321 H   0  0  0  0  0  0  0  0  0  0  0  0
    6.8470   -1.2257   39.0926 H   0  0  0  0  0  0  0  0  0  0  0  0
    5.6743   -2.8881   37.0743 H   0  0  0  0  0  0  0  0  0  0  0  0
    7.9644   -1.7742   37.6676 H   0  0  0  0  0  0  0  0  0  0  0  0
    4.2966   -1.2581   36.0032 H   0  0  0  0  0  0  0  0  0  0  0  0
    6.8683   -0.0567   35.4944 H   0  0  0  0  0  0  0  0  0  0  0  0
    5.9568    1.0949   37.2301 H   0  0  0  0  0  0  0  0  0  0  0  0
    3.9421    1.3713   35.8442 H   0  0  0  0  0  0  0  0  0  0  0  0
    3.1199    0.0438   36.8242 H   0  0  0  0  0  0  0  0  0  0  0  0
    1.4227    1.6309   39.7416 H   0  0  0  0  0  0  0  0  0  0  0  0
    1.5478    2.9917   39.2103 H   0  0  0  0  0  0  0  0  0  0  0  0
 22 21  1  0
 21 19  1  0
 21 23  1  0
 28 26  2  0
 24 23  1  0
 24 25  1  0
 20 19  1  0
 19 17  1  0
 23 18  1  0
 26 25  1  0
 26 29  1  0
 26 27  1  0
 18 17  1  0
 17 16  1  0
 11 10  1  0
 11 12  2  0
 16 12  1  0
 16 15  1  0
 10  9  2  0
 12 13  1  0
 15 14  2  0
  9  8  1  0
 13 14  1  0
 13  8  2  0
  8  7  1  0
  7  6  1  0
  6  5  1  0
  5  4  1  0
  5  1  2  0
  4  3  1  0
  1  2  1  0
  3  2  2  0
  1 30  1  0
  2 31  1  0
  3 32  1  0
  6 33  1  0
  6 34  1  0
  7 35  1  0
 10 36  1  0
 15 37  1  0
 17 38  1  0
 19 39  1  0
 20 40  1  0
 21 41  1  0
 22 42  1  0
 23 43  1  0
 24 44  1  0
 24 45  1  0
 27 46  1  0
 29 47  1  0
A    1
C66
A    2
C65
A    3
C64
A    4
O63
A    5
C62
A    6
C61
A    7
N6
A    8
C6
A    9
N1
A   10
C2
A   11
N3
A   12
C4
A   13
C5
A   14
N7
A   15
C8
A   16
N9
A   17
C1'
A   18
O4'
A   19
C2'
A   20
O2'
A   21
C3'
A   22
O3'
A   23
C4'
A   24
C5'
A   25
O5'
A   26
PA
A   27
O2
A   28
O3
A   29
O1
M  END
