2FLI_DX5_A_1901
     RDKit          3D

 27 26  0  0  0  0  0  0  0  0999 V2000
   58.6530   99.4700   57.0220 C   0  0  0  0  0  0  0  0  0  0  0  0
   58.8520   97.9880   56.8160 C   0  0  0  0  0  0  0  0  0  0  0  0
   60.0020   97.6530   55.9200 C   0  0  0  0  0  0  0  0  0  0  0  0
   59.7480   97.9610   54.4750 C   0  0  0  0  0  0  0  0  0  0  0  0
   60.9990   98.2490   53.6870 C   0  0  0  0  0  0  0  0  0  0  0  0
   57.5490   99.7700   57.8840 O   0  0  0  0  0  0  0  0  0  0  0  0
   59.0180   97.4050   58.1170 O   0  0  0  0  0  0  0  0  0  0  0  0
   60.3920   96.2630   56.0510 O   0  0  0  0  0  0  0  0  0  0  0  0
   59.0920   96.8830   53.8050 O   0  0  0  0  0  0  0  0  0  0  0  0
   60.9500   99.0290   52.5130 O   0  0  0  0  0  0  0  0  0  0  0  0
   62.0400   99.7090   51.7690 P   0  0  0  0  0  0  0  0  0  0  0  0
   63.2170   98.6740   51.6410 O   0  0  0  0  0  0  0  0  0  0  0  0
   62.3610  100.9640   52.6690 O   0  0  0  0  0  0  0  0  0  0  0  0
   61.3300  100.0590   50.3590 O   0  0  0  0  0  0  0  0  0  0  0  0
   59.5684   99.8887   57.4655 H   0  0  0  0  0  0  0  0  0  0  0  0
   58.4343   99.9133   56.0393 H   0  0  0  0  0  0  0  0  0  0  0  0
   57.9731   97.5773   56.2976 H   0  0  0  0  0  0  0  0  0  0  0  0
   60.8232   98.3027   56.2569 H   0  0  0  0  0  0  0  0  0  0  0  0
   59.1154   98.8603   54.5080 H   0  0  0  0  0  0  0  0  0  0  0  0
   61.6916   98.7583   54.3732 H   0  0  0  0  0  0  0  0  0  0  0  0
   61.2827   97.2560   53.3083 H   0  0  0  0  0  0  0  0  0  0  0  0
   57.8367   99.6918   58.8280 H   0  0  0  0  0  0  0  0  0  0  0  0
   58.8245   98.0847   58.8103 H   0  0  0  0  0  0  0  0  0  0  0  0
   60.4580   96.0278   57.0104 H   0  0  0  0  0  0  0  0  0  0  0  0
   58.7129   96.2601   54.4746 H   0  0  0  0  0  0  0  0  0  0  0  0
   63.5210   98.4066   52.5444 H   0  0  0  0  0  0  0  0  0  0  0  0
   62.2962  100.7106   53.6238 H   0  0  0  0  0  0  0  0  0  0  0  0
  1  2  1  0
  1  6  1  0
  2  3  1  0
  2  7  1  0
  3  4  1  0
  3  8  1  0
  4  5  1  0
  4  9  1  0
  5 10  1  0
 10 11  1  0
 11 12  1  0
 11 13  1  0
 11 14  2  0
  1 15  1  0
  1 16  1  0
  2 17  1  0
  3 18  1  0
  4 19  1  0
  5 20  1  0
  5 21  1  0
  6 22  1  0
  7 23  1  0
  8 24  1  0
  9 25  1  0
 12 26  1  0
 13 27  1  0
A    1
C1
A    2
C2
A    3
C3
A    4
C4
A    5
C5
A    6
O1
A    7
O2
A    8
O3
A    9
O4
A   10
O5
A   11
P
A   12
O1P
A   13
O2P
A   14
O3P
M  END
