4KXY_1U0_A_709
     RDKit          3D

 53 54  0  0  0  0  0  0  0  0999 V2000
   -2.3880    2.5250   26.8220 O   0  0  0  0  0  0  0  0  0  0  0  0
   -1.6110    1.2420   26.8190 P   0  0  0  0  0  0  0  0  0  0  0  0
   -2.0640    0.3400   25.6890 O   0  0  0  0  0  0  0  0  0  0  0  0
   -1.5190    0.5210   28.0880 O   0  0  0  0  0  0  0  0  0  0  0  0
   -0.0220    1.6290   26.5370 O   0  0  0  0  0  0  0  0  0  0  0  0
    0.9890    1.5370   25.2970 P   0  0  0  0  0  0  0  0  0  0  0  0
    0.7290    0.2210   24.5980 O   0  0  0  0  0  0  0  0  0  0  0  0
    2.3410    1.8250   25.7670 O   0  0  0  0  0  0  0  0  0  0  0  0
    0.4870    2.6170   24.2740 O   0  0  0  0  0  0  0  0  0  0  0  0
    0.7460    4.0150   24.6550 C   0  0  0  0  0  0  0  0  0  0  0  0
    0.1720    4.8340   23.4980 C   0  0  0  0  0  0  0  0  0  0  0  0
    0.3630    6.3030   23.7760 C   0  0  0  0  0  0  0  0  0  0  0  0
    1.0430    7.2650   23.0790 C   0  0  0  0  0  0  0  0  0  0  0  0
    1.7270    6.9720   21.7520 C   0  0  0  0  0  0  0  0  0  0  0  0
   -0.3090    7.0170   25.2350 S   0  0  0  0  0  0  0  0  0  0  0  0
    0.3080    8.6410   24.7830 C   0  0  0  0  0  0  0  0  0  0  0  0
   -0.2230    9.8160   25.6990 C   0  0  0  0  0  0  0  0  0  0  0  0
    0.4730    9.7420   27.1430 O   0  0  0  0  0  0  0  0  0  0  0  0
    1.0550    8.6010   23.6800 C   0  0  0  0  0  0  0  0  0  0  0  0
    1.8390    9.8050   23.1440 C   0  0  0  0  0  0  0  0  0  0  0  0
    3.2460    9.6180   23.4030 C   0  0  0  0  0  0  0  0  0  0  0  0
    4.2010    9.4960   22.3360 C   0  0  0  0  0  0  0  0  0  0  0  0
    5.5830    9.4250   22.5700 N   0  0  0  0  0  0  0  0  0  0  0  0
    6.0390    9.4870   23.8480 C   0  0  0  0  0  0  0  0  0  0  0  0
    7.5480    9.5160   24.0850 C   0  0  0  0  0  0  0  0  0  0  0  0
    5.2280    9.6350   24.8620 N   0  0  0  0  0  0  0  0  0  0  0  0
    3.8900    9.7000   24.6950 C   0  0  0  0  0  0  0  0  0  0  0  0
    3.0880    9.9450   25.7410 N   0  0  0  0  0  0  0  0  0  0  0  0
   -1.7080    9.7370   26.1470 C   0  0  0  0  0  0  0  0  0  0  0  0
   -2.5140    9.3620   24.9150 O   0  0  0  0  0  0  0  0  0  0  0  0
   -2.5580    2.8057   27.7560 H   0  0  0  0  0  0  0  0  0  0  0  0
   -1.6008    1.1617   28.8383 H   0  0  0  0  0  0  0  0  0  0  0  0
    2.3527    1.8275   26.7569 H   0  0  0  0  0  0  0  0  0  0  0  0
    0.2368    4.2627   25.5981 H   0  0  0  0  0  0  0  0  0  0  0  0
    1.8149    4.2143   24.8215 H   0  0  0  0  0  0  0  0  0  0  0  0
    0.6925    4.5668   22.5665 H   0  0  0  0  0  0  0  0  0  0  0  0
   -0.9016    4.6180   23.3943 H   0  0  0  0  0  0  0  0  0  0  0  0
    2.7233    6.5452   21.9394 H   0  0  0  0  0  0  0  0  0  0  0  0
    1.1224    6.2539   21.1786 H   0  0  0  0  0  0  0  0  0  0  0  0
    1.8297    7.9051   21.1786 H   0  0  0  0  0  0  0  0  0  0  0  0
   -0.0282   10.6924   25.0634 H   0  0  0  0  0  0  0  0  0  0  0  0
   -0.2191    9.8156   27.8471 H   0  0  0  0  0  0  0  0  0  0  0  0
    1.6748    9.8961   22.0601 H   0  0  0  0  0  0  0  0  0  0  0  0
    1.4927   10.7204   23.6461 H   0  0  0  0  0  0  0  0  0  0  0  0
    3.8358    9.4569   21.2991 H   0  0  0  0  0  0  0  0  0  0  0  0
    7.7493    9.5199   25.1664 H   0  0  0  0  0  0  0  0  0  0  0  0
    8.0078    8.6265   23.6296 H   0  0  0  0  0  0  0  0  0  0  0  0
    7.9733   10.4225   23.6296 H   0  0  0  0  0  0  0  0  0  0  0  0
    3.4455    9.8358   26.7008 H   0  0  0  0  0  0  0  0  0  0  0  0
    2.1143   10.2424   25.5849 H   0  0  0  0  0  0  0  0  0  0  0  0
   -1.8288    8.9710   26.9271 H   0  0  0  0  0  0  0  0  0  0  0  0
   -2.0473   10.6957   26.5662 H   0  0  0  0  0  0  0  0  0  0  0  0
   -3.3753    8.9613   25.1936 H   0  0  0  0  0  0  0  0  0  0  0  0
  3  2  2  0
 18 17  1  0
  4  2  1  0
  2  5  1  0
  2  1  1  0
  5  6  1  0
 29 17  1  0
 29 30  1  0
 28 27  1  0
 17 16  1  0
  7  6  2  0
 15 16  1  0
 15 12  1  0
  6  8  1  0
  6  9  1  0
 26 27  2  0
 26 24  1  0
 16 19  2  0
 27 21  1  0
 10  9  1  0
 10 11  1  0
 25 24  1  0
 24 23  2  0
 12 11  1  0
 12 13  2  0
 19 20  1  0
 19 13  1  0
 21 20  1  0
 21 22  2  0
 13 14  1  0
 23 22  1  0
  1 31  1  0
  4 32  1  0
  8 33  1  0
 10 34  1  0
 10 35  1  0
 11 36  1  0
 11 37  1  0
 14 38  1  0
 14 39  1  0
 14 40  1  0
 17 41  1  0
 18 42  1  0
 20 43  1  0
 20 44  1  0
 22 45  1  0
 25 46  1  0
 25 47  1  0
 25 48  1  0
 28 49  1  0
 28 50  1  0
 29 51  1  0
 29 52  1  0
 30 53  1  0
A    1
O3B
A    2
PB
A    3
O1B
A    4
O2B
A    5
O3A
A    6
PA
A    7
O1A
A    8
O2A
A    9
O7
A   10
C7
A   11
C6
A   12
C5
A   13
C4
A   14
CM4
A   15
S1
A   16
C2
A   17
C8
A   18
O9
A   19
C3
A   20
C7'
A   21
C5'
A   22
C6'
A   23
N1'
A   24
C2'
A   25
CM2
A   26
N3'
A   27
C4'
A   28
N4'
A   29
C9
A   30
O10
M  END
