4KZ0_1UJ_A_1201
     RDKit          3D

 27 28  0  0  0  0  0  0  0  0999 V2000
   15.6280   15.2270   22.0480 O   0  0  0  0  0  0  0  0  0  0  0  0
   15.2040   14.3240   22.7660 C   0  0  0  0  0  0  0  0  0  0  0  0
   13.7410   14.1680   23.0620 C   0  0  0  0  0  0  0  0  0  0  0  0
   16.0290   13.3940   23.3640 N   0  0  0  0  0  0  0  0  0  0  0  0
   17.3860   13.2310   23.1480 C   0  0  0  0  0  0  0  0  0  0  0  0
   18.0510   12.3450   23.8380 N   0  0  0  0  0  0  0  0  0  0  0  0
   18.2870   14.1570   21.9670 S   0  0  0  0  0  0  0  0  0  0  0  0
   19.7100   13.2700   22.4320 C   0  0  0  0  0  0  0  0  0  0  0  0
   19.3920   12.3560   23.4450 C   0  0  0  0  0  0  0  0  0  0  0  0
   20.4020   11.5460   23.9630 C   0  0  0  0  0  0  0  0  0  0  0  0
   21.6900   11.6550   23.4570 C   0  0  0  0  0  0  0  0  0  0  0  0
   20.9950   13.3770   21.9160 C   0  0  0  0  0  0  0  0  0  0  0  0
   21.9970   12.5530   22.4300 C   0  0  0  0  0  0  0  0  0  0  0  0
   23.3650   12.5760   21.8170 C   0  0  0  0  0  0  0  0  0  0  0  0
   24.3150   11.9630   22.2440 O   0  0  0  0  0  0  0  0  0  0  0  0
   23.4290   13.3810   20.7470 O   0  0  0  0  0  0  0  0  0  0  0  0
   24.6660   13.3730   19.9880 C   0  0  0  0  0  0  0  0  0  0  0  0
   13.5870   14.1516   24.1510 H   0  0  0  0  0  0  0  0  0  0  0  0
   13.1866   15.0121   22.6260 H   0  0  0  0  0  0  0  0  0  0  0  0
   13.3771   13.2260   22.6260 H   0  0  0  0  0  0  0  0  0  0  0  0
   15.5893   12.7548   24.0414 H   0  0  0  0  0  0  0  0  0  0  0  0
   20.1800   10.8271   24.7654 H   0  0  0  0  0  0  0  0  0  0  0  0
   22.4868   11.0210   23.8731 H   0  0  0  0  0  0  0  0  0  0  0  0
   21.2189   14.0984   21.1164 H   0  0  0  0  0  0  0  0  0  0  0  0
   25.5209   13.3675   20.6802 H   0  0  0  0  0  0  0  0  0  0  0  0
   24.7015   12.4746   19.3543 H   0  0  0  0  0  0  0  0  0  0  0  0
   24.7132   14.2709   19.3543 H   0  0  0  0  0  0  0  0  0  0  0  0
 17 16  1  0
 16 14  1  0
 14 15  2  0
 14 13  1  0
 12 13  1  0
 12  8  2  0
  7  8  1  0
  7  5  1  0
  1  2  2  0
 13 11  2  0
  8  9  1  0
  2  3  1  0
  2  4  1  0
  5  4  1  0
  5  6  2  0
  9  6  1  0
  9 10  2  0
 11 10  1  0
  3 18  1  0
  3 19  1  0
  3 20  1  0
  4 21  1  0
 10 22  1  0
 11 23  1  0
 12 24  1  0
 17 25  1  0
 17 26  1  0
 17 27  1  0
A    1
O2
A    2
C7
A    3
C8
A    4
N1
A    5
C6
A    6
N
A    7
S
A    8
C9
A    9
C5
A   10
C4
A   11
C3
A   12
C10
A   13
C2
A   14
C1
A   15
O1
A   16
O
A   17
C
M  END
