4KZ3_1U1_A_401
     RDKit          3D

 17 17  0  0  0  0  0  0  0  0999 V2000
   23.3320    6.2570   10.2560 C   0  0  0  0  0  0  0  0  0  0  0  0
   22.2480    5.8210    9.4180 C   0  0  0  0  0  0  0  0  0  0  0  0
   21.5220    4.8390   10.0820 C   0  0  0  0  0  0  0  0  0  0  0  0
   22.1480    4.4870   11.6350 S   0  0  0  0  0  0  0  0  0  0  0  0
   23.4120    5.6440   11.4530 C   0  0  0  0  0  0  0  0  0  0  0  0
   24.5210    5.8440   12.7080 Cl  0  0  0  0  0  0  0  0  0  0  0  0
   20.2940    3.9780    9.5560 C   0  0  0  0  0  0  0  0  0  0  0  0
   19.6900    3.4150   10.4900 O   0  0  0  0  0  0  0  0  0  0  0  0
   19.9920    4.0420    8.3650 O   0  0  0  0  0  0  0  0  0  0  0  0
   21.9560    6.4890    7.9240 S   0  0  0  0  0  0  0  0  0  0  0  0
   22.9510    7.4790    7.6590 O   0  0  0  0  0  0  0  0  0  0  0  0
   20.5980    6.8840    7.8010 O   0  0  0  0  0  0  0  0  0  0  0  0
   22.2860    5.3180    6.7870 N   0  0  0  0  0  0  0  0  0  0  0  0
   24.0442    7.0345    9.9425 H   0  0  0  0  0  0  0  0  0  0  0  0
   19.9200    3.6294   11.4287 H   0  0  0  0  0  0  0  0  0  0  0  0
   22.5339    4.4384    7.2621 H   0  0  0  0  0  0  0  0  0  0  0  0
   21.4547    5.1675    6.1978 H   0  0  0  0  0  0  0  0  0  0  0  0
 13 10  1  0
 11 10  2  0
 12 10  2  0
 10  2  1  0
  9  7  2  0
  2  3  2  0
  2  1  1  0
  7  3  1  0
  7  8  1  0
  3  4  1  0
  1  5  2  0
  5  4  1  0
  5  6  1  0
  1 14  1  0
  8 15  1  0
 13 16  1  0
 13 17  1  0
A    1
C01
A    2
C02
A    3
C03
A    4
S04
A    5
C05
A    6
CL6
A    7
C07
A    8
O08
A    9
O09
A   10
S10
A   11
O11
A   12
O12
A   13
N13
M  END
