4KZ5_1U3_A_401
     RDKit          3D

 31 32  0  0  0  0  0  0  0  0999 V2000
   24.7410    7.6930   17.7630 C   0  0  0  0  0  0  0  0  0  0  0  0
   24.8750    7.1760   16.3540 C   0  0  0  0  0  0  0  0  0  0  0  0
   23.8500    6.8450   15.4600 C   0  0  0  0  0  0  0  0  0  0  0  0
   24.4770    6.4130   14.2890 C   0  0  0  0  0  0  0  0  0  0  0  0
   25.8050    6.4850   14.4550 N   0  0  0  0  0  0  0  0  0  0  0  0
   26.0540    6.9520   15.7230 O   0  0  0  0  0  0  0  0  0  0  0  0
   23.8840    5.9950   13.1070 C   0  0  0  0  0  0  0  0  0  0  0  0
   23.6880    4.6470   12.8300 C   0  0  0  0  0  0  0  0  0  0  0  0
   23.1010    4.2900   11.6260 C   0  0  0  0  0  0  0  0  0  0  0  0
   22.7130    5.2640   10.7130 C   0  0  0  0  0  0  0  0  0  0  0  0
   22.9140    6.6090   10.9990 C   0  0  0  0  0  0  0  0  0  0  0  0
   23.5000    6.9750   12.2010 C   0  0  0  0  0  0  0  0  0  0  0  0
   23.7590    8.6460   12.5900 Cl  0  0  0  0  0  0  0  0  0  0  0  0
   22.3470    6.9130   15.6690 C   0  0  0  0  0  0  0  0  0  0  0  0
   21.8610    7.6180   16.5490 O   0  0  0  0  0  0  0  0  0  0  0  0
   21.4860    6.1460   14.8210 N   0  0  0  0  0  0  0  0  0  0  0  0
   20.0460    6.1600   14.9430 C   0  0  0  0  0  0  0  0  0  0  0  0
   19.3540    6.2540   13.6210 C   0  0  0  0  0  0  0  0  0  0  0  0
   20.0240    6.0450   12.5650 O   0  0  0  0  0  0  0  0  0  0  0  0
   18.1290    6.5410   13.5680 O   0  0  0  0  0  0  0  0  0  0  0  0
   24.9517    6.8801   18.4734 H   0  0  0  0  0  0  0  0  0  0  0  0
   25.4562    8.5135   17.9221 H   0  0  0  0  0  0  0  0  0  0  0  0
   23.7173    8.0628   17.9221 H   0  0  0  0  0  0  0  0  0  0  0  0
   23.9934    3.8769   13.5537 H   0  0  0  0  0  0  0  0  0  0  0  0
   22.9409    3.2274   11.3911 H   0  0  0  0  0  0  0  0  0  0  0  0
   22.2457    4.9693    9.7618 H   0  0  0  0  0  0  0  0  0  0  0  0
   22.6097    7.3794   10.2753 H   0  0  0  0  0  0  0  0  0  0  0  0
   21.9119    5.5575   14.0908 H   0  0  0  0  0  0  0  0  0  0  0  0
   19.7535    7.0257   15.5553 H   0  0  0  0  0  0  0  0  0  0  0  0
   19.7436    5.2104   15.4086 H   0  0  0  0  0  0  0  0  0  0  0  0
   17.6123    6.6620   14.4038 H   0  0  0  0  0  0  0  0  0  0  0  0
 10 11  2  0
 10  9  1  0
 11 12  1  0
  9  8  2  0
 12 13  1  0
 12  7  2  0
 19 18  2  0
  8  7  1  0
  7  4  1  0
 20 18  1  0
 18 17  1  0
  4  5  2  0
  4  3  1  0
  5  6  1  0
 16 17  1  0
 16 14  1  0
  3 14  1  0
  3  2  2  0
 14 15  2  0
  6  2  1  0
  2  1  1  0
  1 21  1  0
  1 22  1  0
  1 23  1  0
  8 24  1  0
  9 25  1  0
 10 26  1  0
 11 27  1  0
 16 28  1  0
 17 29  1  0
 17 30  1  0
 20 31  1  0
A    1
C01
A    2
C02
A    3
C03
A    4
C04
A    5
N05
A    6
O06
A    7
C07
A    8
C08
A    9
C09
A   10
C10
A   11
C11
A   12
C12
A   13
CL1
A   14
C14
A   15
O15
A   16
N16
A   17
C17
A   18
C18
A   19
O19
A   20
O20
M  END
