4KZ7_1U5_A_401
     RDKit          3D

 28 29  0  0  0  0  0  0  0  0999 V2000
   26.1980    7.4910   16.1790 C   0  0  0  0  0  0  0  0  0  0  0  0
   24.6800    7.4960   15.9710 C   0  0  0  0  0  0  0  0  0  0  0  0
   23.9810    8.5430   16.8470 C   0  0  0  0  0  0  0  0  0  0  0  0
   24.2770    7.5940   14.4130 C   0  0  0  0  0  0  0  0  0  0  0  0
   24.7550    8.8040   13.6770 C   0  0  0  0  0  0  0  0  0  0  0  0
   22.7740    7.2960   14.4520 C   0  0  0  0  0  0  0  0  0  0  0  0
   22.6470    6.2130   15.5970 C   0  0  0  0  0  0  0  0  0  0  0  0
   24.1000    6.0400   16.0700 C   0  0  0  0  0  0  0  0  0  0  0  0
   24.3630    5.3090   17.4040 C   0  0  0  0  0  0  0  0  0  0  0  0
   23.6600    5.6380   18.3760 O   0  0  0  0  0  0  0  0  0  0  0  0
   25.2490    4.4300   17.4000 O   0  0  0  0  0  0  0  0  0  0  0  0
   24.7760    5.3780   14.9820 O   0  0  0  0  0  0  0  0  0  0  0  0
   24.9140    6.2900   13.9690 C   0  0  0  0  0  0  0  0  0  0  0  0
   25.4170    5.9640   12.9250 O   0  0  0  0  0  0  0  0  0  0  0  0
   26.4205    7.4903   17.2563 H   0  0  0  0  0  0  0  0  0  0  0  0
   26.6287    6.5914   15.7150 H   0  0  0  0  0  0  0  0  0  0  0  0
   26.6346    8.3877   15.7150 H   0  0  0  0  0  0  0  0  0  0  0  0
   24.1428    8.3007   17.9077 H   0  0  0  0  0  0  0  0  0  0  0  0
   24.3964    9.5383   16.6308 H   0  0  0  0  0  0  0  0  0  0  0  0
   22.9025    8.5409   16.6308 H   0  0  0  0  0  0  0  0  0  0  0  0
   25.0599    9.5758   14.3991 H   0  0  0  0  0  0  0  0  0  0  0  0
   25.6138    8.5334   13.0451 H   0  0  0  0  0  0  0  0  0  0  0  0
   23.9431    9.1933   13.0451 H   0  0  0  0  0  0  0  0  0  0  0  0
   22.1993    8.2006   14.6998 H   0  0  0  0  0  0  0  0  0  0  0  0
   22.3789    6.9490   13.4858 H   0  0  0  0  0  0  0  0  0  0  0  0
   22.0053    6.5745   16.4141 H   0  0  0  0  0  0  0  0  0  0  0  0
   22.1864    5.2737   15.2570 H   0  0  0  0  0  0  0  0  0  0  0  0
   23.9870    5.4849   19.2978 H   0  0  0  0  0  0  0  0  0  0  0  0
 14 13  2  0
  5  4  1  0
 13  4  1  0
 13 12  1  0
  4  6  1  0
  4  2  1  0
  6  7  1  0
 12  8  1  0
  7  8  1  0
  2  8  1  0
  2  1  1  0
  2  3  1  0
  8  9  1  0
 11  9  2  0
  9 10  1  0
  1 15  1  0
  1 16  1  0
  1 17  1  0
  3 18  1  0
  3 19  1  0
  3 20  1  0
  5 21  1  0
  5 22  1  0
  5 23  1  0
  6 24  1  0
  6 25  1  0
  7 26  1  0
  7 27  1  0
 10 28  1  0
A    1
C01
A    2
C02
A    3
C03
A    4
C04
A    5
C05
A    6
C06
A    7
C07
A    8
C08
A    9
C09
A   10
O10
A   11
O11
A   12
O12
A   13
C13
A   14
O14
M  END
