4KZ8_1U6_A_401
     RDKit          3D

 25 25  0  0  0  0  0  0  0  0999 V2000
   23.8700    8.7590   16.0970 C   0  0  0  0  0  0  0  0  0  0  0  0
   23.4040    7.3540   16.2820 C   0  0  0  0  0  0  0  0  0  0  0  0
   22.5960    6.7670   15.2370 N   0  0  0  0  0  0  0  0  0  0  0  0
   21.2530    6.8820   15.3500 C   0  0  0  0  0  0  0  0  0  0  0  0
   20.6770    7.5320   16.4230 O   0  0  0  0  0  0  0  0  0  0  0  0
   20.4420    6.3360   14.3770 C   0  0  0  0  0  0  0  0  0  0  0  0
   21.0130    5.6870   13.3050 C   0  0  0  0  0  0  0  0  0  0  0  0
   20.2750    5.2090   12.4500 O   0  0  0  0  0  0  0  0  0  0  0  0
   22.3550    5.5810   13.2030 N   0  0  0  0  0  0  0  0  0  0  0  0
   22.8720    4.8830   12.0450 C   0  0  0  0  0  0  0  0  0  0  0  0
   23.1160    5.6950   10.8130 C   0  0  0  0  0  0  0  0  0  0  0  0
   23.1630    6.1230   14.1700 C   0  0  0  0  0  0  0  0  0  0  0  0
   24.8340    6.0130   14.0840 S   0  0  0  0  0  0  0  0  0  0  0  0
   24.0250    9.2264   17.0806 H   0  0  0  0  0  0  0  0  0  0  0  0
   24.8168    8.7606   15.5370 H   0  0  0  0  0  0  0  0  0  0  0  0
   23.1118    9.3260   15.5370 H   0  0  0  0  0  0  0  0  0  0  0  0
   22.8128    7.3242   17.2092 H   0  0  0  0  0  0  0  0  0  0  0  0
   24.3268    6.7553   16.2868 H   0  0  0  0  0  0  0  0  0  0  0  0
   19.8354    7.1574   13.9679 H   0  0  0  0  0  0  0  0  0  0  0  0
   19.9044    5.5361   14.9072 H   0  0  0  0  0  0  0  0  0  0  0  0
   22.1512    4.0940   11.7845 H   0  0  0  0  0  0  0  0  0  0  0  0
   23.8656    4.5228   12.3499 H   0  0  0  0  0  0  0  0  0  0  0  0
   23.4217    6.7123   11.0989 H   0  0  0  0  0  0  0  0  0  0  0  0
   23.9130    5.2265   10.2170 H   0  0  0  0  0  0  0  0  0  0  0  0
   22.1927    5.7435   10.2170 H   0  0  0  0  0  0  0  0  0  0  0  0
 11 10  1  0
 10  9  1  0
  8  7  2  0
  9  7  1  0
  9 12  1  0
  7  6  1  0
 13 12  2  0
 12  3  1  0
  6  4  1  0
  3  4  1  0
  3  2  1  0
  4  5  2  0
  1  2  1  0
  1 14  1  0
  1 15  1  0
  1 16  1  0
  2 17  1  0
  2 18  1  0
  6 19  1  0
  6 20  1  0
 10 21  1  0
 10 22  1  0
 11 23  1  0
 11 24  1  0
 11 25  1  0
A    1
C01
A    2
C02
A    3
N03
A    4
C04
A    5
O05
A    6
C06
A    7
C07
A    8
O08
A    9
N09
A   10
C10
A   11
C11
A   12
C12
A   13
S13
M  END
