4L0B_1UT_A_1204
     RDKit          3D

 35 37  0  0  0  0  0  0  0  0999 V2000
    5.5600   11.4350   -5.5160 C   0  0  0  0  0  0  0  0  0  0  0  0
    6.1650   10.4470   -6.4430 N   0  0  0  0  0  0  0  0  0  0  0  0
    6.3650    9.0730   -5.9990 C   0  0  0  0  0  0  0  0  0  0  0  0
    6.3180   10.7430   -7.7860 C   0  0  0  0  0  0  0  0  0  0  0  0
    5.7340   11.8760   -8.3420 C   0  0  0  0  0  0  0  0  0  0  0  0
    5.8800   12.1960   -9.7030 C   0  0  0  0  0  0  0  0  0  0  0  0
    7.0110    9.8840   -8.6340 C   0  0  0  0  0  0  0  0  0  0  0  0
    7.1260   10.1830  -10.0090 C   0  0  0  0  0  0  0  0  0  0  0  0
    6.5780   11.3360  -10.5660 C   0  0  0  0  0  0  0  0  0  0  0  0
    6.6690   11.6340  -11.9720 C   0  0  0  0  0  0  0  0  0  0  0  0
    5.8980   12.6600  -12.3640 O   0  0  0  0  0  0  0  0  0  0  0  0
    5.8460   13.0170  -13.6880 C   0  0  0  0  0  0  0  0  0  0  0  0
    5.0130   14.0600  -14.0260 C   0  0  0  0  0  0  0  0  0  0  0  0
    4.8600   14.4310  -15.3850 C   0  0  0  0  0  0  0  0  0  0  0  0
    5.5630   13.6960  -16.3740 C   0  0  0  0  0  0  0  0  0  0  0  0
    6.4240   12.6250  -15.9920 C   0  0  0  0  0  0  0  0  0  0  0  0
    6.5570   12.2690  -14.6450 C   0  0  0  0  0  0  0  0  0  0  0  0
    7.4230   11.2210  -14.2540 C   0  0  0  0  0  0  0  0  0  0  0  0
    8.2550   10.6770  -15.0420 O   0  0  0  0  0  0  0  0  0  0  0  0
    7.4300   10.9290  -12.8960 C   0  0  0  0  0  0  0  0  0  0  0  0
    5.7489   11.1266   -4.4772 H   0  0  0  0  0  0  0  0  0  0  0  0
    6.0073   12.4245   -5.6918 H   0  0  0  0  0  0  0  0  0  0  0  0
    4.4754   11.4864   -5.6918 H   0  0  0  0  0  0  0  0  0  0  0  0
    6.3698    9.0400   -4.8995 H   0  0  0  0  0  0  0  0  0  0  0  0
    5.5493    8.4417   -6.3812 H   0  0  0  0  0  0  0  0  0  0  0  0
    7.3268    8.7005   -6.3812 H   0  0  0  0  0  0  0  0  0  0  0  0
    5.1404   12.5413   -7.6979 H   0  0  0  0  0  0  0  0  0  0  0  0
    5.4443   13.1269  -10.0948 H   0  0  0  0  0  0  0  0  0  0  0  0
    7.4706    8.9692   -8.2316 H   0  0  0  0  0  0  0  0  0  0  0  0
    7.6664    9.4820  -10.6622 H   0  0  0  0  0  0  0  0  0  0  0  0
    4.4668   14.6047  -13.2418 H   0  0  0  0  0  0  0  0  0  0  0  0
    4.2094   15.2718  -15.6674 H   0  0  0  0  0  0  0  0  0  0  0  0
    5.4439   13.9525  -17.4370 H   0  0  0  0  0  0  0  0  0  0  0  0
    6.9870   12.0754  -16.7608 H   0  0  0  0  0  0  0  0  0  0  0  0
    8.0646   10.1052  -12.5373 H   0  0  0  0  0  0  0  0  0  0  0  0
 15 16  2  0
 15 14  1  0
 16 17  1  0
 14 13  2  0
 19 18  2  0
 17 18  1  0
 17 12  2  0
 18 20  1  0
 13 12  1  0
 12 11  1  0
 20 10  2  0
 11 10  1  0
 10  9  1  0
  9  8  2  0
  9  6  1  0
  8  7  1  0
  6  5  2  0
  7  4  2  0
  5  4  1  0
  4  2  1  0
  2  3  1  0
  2  1  1  0
  1 21  1  0
  1 22  1  0
  1 23  1  0
  3 24  1  0
  3 25  1  0
  3 26  1  0
  5 27  1  0
  6 28  1  0
  7 29  1  0
  8 30  1  0
 13 31  1  0
 14 32  1  0
 15 33  1  0
 16 34  1  0
 20 35  1  0
A    1
CAA
A    2
NAB
A    3
CAC
A    4
CAD
A    5
CAI
A    6
CAH
A    7
CAE
A    8
CAF
A    9
CAG
A   10
CAJ
A   11
OAT
A   12
CAS
A   13
CAR
A   14
CAQ
A   15
CAP
A   16
CAO
A   17
CAN
A   18
CAL
A   19
OAM
A   20
CAK
M  END
