4L2K_1V8_A_1201
     RDKit          3D

 30 33  0  0  0  0  0  0  0  0999 V2000
   -7.5080  -38.5070    9.8510 C   0  0  0  0  0  0  0  0  0  0  0  0
   -7.3770  -38.6060    8.5130 C   0  0  0  0  0  0  0  0  0  0  0  0
   -8.0880  -39.3820    7.6380 O   0  0  0  0  0  0  0  0  0  0  0  0
   -7.8410  -38.6440    6.3460 C   0  0  0  0  0  0  0  0  0  0  0  0
   -6.4930  -38.0980    6.4830 O   0  0  0  0  0  0  0  0  0  0  0  0
   -6.4500  -37.8700    7.8320 C   0  0  0  0  0  0  0  0  0  0  0  0
   -5.6580  -37.0220    8.4820 C   0  0  0  0  0  0  0  0  0  0  0  0
   -5.7390  -36.8920    9.8640 C   0  0  0  0  0  0  0  0  0  0  0  0
   -6.6760  -37.6440   10.5920 C   0  0  0  0  0  0  0  0  0  0  0  0
   -6.7420  -37.4680   12.0010 C   0  0  0  0  0  0  0  0  0  0  0  0
   -5.9630  -36.4410   12.4960 O   0  0  0  0  0  0  0  0  0  0  0  0
   -5.8730  -36.2150   13.8240 C   0  0  0  0  0  0  0  0  0  0  0  0
   -4.9900  -35.2410   14.2660 C   0  0  0  0  0  0  0  0  0  0  0  0
   -4.8550  -35.0030   15.6320 C   0  0  0  0  0  0  0  0  0  0  0  0
   -5.6250  -35.7750   16.5130 C   0  0  0  0  0  0  0  0  0  0  0  0
   -6.5220  -36.7400   16.0590 C   0  0  0  0  0  0  0  0  0  0  0  0
   -6.6800  -36.9560   14.7000 C   0  0  0  0  0  0  0  0  0  0  0  0
   -7.5580  -37.9330   14.2100 C   0  0  0  0  0  0  0  0  0  0  0  0
   -8.3510  -38.5400   14.9420 O   0  0  0  0  0  0  0  0  0  0  0  0
   -7.5650  -38.1930   12.8480 C   0  0  0  0  0  0  0  0  0  0  0  0
   -8.2716  -39.1055   10.3694 H   0  0  0  0  0  0  0  0  0  0  0  0
   -8.5754  -37.8357    6.2144 H   0  0  0  0  0  0  0  0  0  0  0  0
   -7.9376  -39.2989    5.4675 H   0  0  0  0  0  0  0  0  0  0  0  0
   -4.9311  -36.4170    7.9203 H   0  0  0  0  0  0  0  0  0  0  0  0
   -5.0668  -36.1976   10.3893 H   0  0  0  0  0  0  0  0  0  0  0  0
   -4.3998  -34.6599   13.5422 H   0  0  0  0  0  0  0  0  0  0  0  0
   -4.1653  -34.2329   16.0077 H   0  0  0  0  0  0  0  0  0  0  0  0
   -5.5179  -35.6141   17.5959 H   0  0  0  0  0  0  0  0  0  0  0  0
   -7.1052  -37.3308   16.7807 H   0  0  0  0  0  0  0  0  0  0  0  0
   -8.2234  -38.9742   12.4402 H   0  0  0  0  0  0  0  0  0  0  0  0
  4  5  1  0
  4  3  1  0
  5  6  1  0
  3  2  1  0
  6  7  2  0
  6  2  1  0
  7  8  1  0
  2  1  2  0
  1  9  1  0
  8  9  2  0
  9 10  1  0
 10 11  1  0
 10 20  2  0
 11 12  1  0
 20 18  1  0
 12 13  2  0
 12 17  1  0
 18 17  1  0
 18 19  2  0
 13 14  1  0
 17 16  2  0
 14 15  2  0
 16 15  1  0
  1 21  1  0
  4 22  1  0
  4 23  1  0
  7 24  1  0
  8 25  1  0
 13 26  1  0
 14 27  1  0
 15 28  1  0
 16 29  1  0
 20 30  1  0
A    1
CAI
A    2
CAH
A    3
OAK
A    4
CAM
A    5
OAL
A    6
CAJ
A    7
CAP
A    8
CAO
A    9
CAG
A   10
CAA
A   11
OAC
A   12
CAF
A   13
CAR
A   14
CAT
A   15
CAS
A   16
CAQ
A   17
CAE
A   18
CAD
A   19
OAN
A   20
CAB
M  END
