4L2O_1DD_A_506
     RDKit          3D

 31 33  0  0  0  0  0  0  0  0999 V2000
   10.9460   -4.4010   32.4570 F   0  0  0  0  0  0  0  0  0  0  0  0
   12.0910   -3.7850   32.7900 C   0  0  0  0  0  0  0  0  0  0  0  0
   12.2460   -2.4240   32.5570 C   0  0  0  0  0  0  0  0  0  0  0  0
   13.4360   -1.7930   32.9040 C   0  0  0  0  0  0  0  0  0  0  0  0
   13.1180   -4.5150   33.3700 C   0  0  0  0  0  0  0  0  0  0  0  0
   14.3050   -3.8830   33.7160 C   0  0  0  0  0  0  0  0  0  0  0  0
   14.4660   -2.5250   33.4820 C   0  0  0  0  0  0  0  0  0  0  0  0
   15.8290   -1.8090   33.8970 S   0  0  0  0  0  0  0  0  0  0  0  0
   15.5350   -0.4550   34.2740 O   0  0  0  0  0  0  0  0  0  0  0  0
   16.3890   -2.5010   35.0220 O   0  0  0  0  0  0  0  0  0  0  0  0
   16.8950   -1.8030   32.7050 N   0  0  0  0  0  0  0  0  0  0  0  0
   17.9080   -2.6710   32.6190 C   0  0  0  0  0  0  0  0  0  0  0  0
   18.2270   -3.7950   33.5670 C   0  0  0  0  0  0  0  0  0  0  0  0
   18.6030   -2.3550   31.4950 N   0  0  0  0  0  0  0  0  0  0  0  0
   18.0220   -1.2850   30.8990 C   0  0  0  0  0  0  0  0  0  0  0  0
   16.8590   -0.9100   31.7290 C   0  0  0  0  0  0  0  0  0  0  0  0
   16.0520    0.1580   31.3740 C   0  0  0  0  0  0  0  0  0  0  0  0
   16.3650    0.8630   30.2170 C   0  0  0  0  0  0  0  0  0  0  0  0
   17.4590    0.5140   29.4250 C   0  0  0  0  0  0  0  0  0  0  0  0
   18.2900   -0.5510   29.7560 C   0  0  0  0  0  0  0  0  0  0  0  0
   11.4293   -1.8467   32.0991 H   0  0  0  0  0  0  0  0  0  0  0  0
   13.5616   -0.7156   32.7210 H   0  0  0  0  0  0  0  0  0  0  0  0
   12.9924   -5.5920   33.5554 H   0  0  0  0  0  0  0  0  0  0  0  0
   15.1199   -4.4606   34.1769 H   0  0  0  0  0  0  0  0  0  0  0  0
   18.1263   -3.4403   34.6034 H   0  0  0  0  0  0  0  0  0  0  0  0
   17.5299   -4.6284   33.3954 H   0  0  0  0  0  0  0  0  0  0  0  0
   19.2580   -4.1380   33.3954 H   0  0  0  0  0  0  0  0  0  0  0  0
   15.1864    0.4411   31.9909 H   0  0  0  0  0  0  0  0  0  0  0  0
   15.7359    1.7149   29.9196 H   0  0  0  0  0  0  0  0  0  0  0  0
   17.6698    1.0959   28.5156 H   0  0  0  0  0  0  0  0  0  0  0  0
   19.1489   -0.8068   29.1181 H   0  0  0  0  0  0  0  0  0  0  0  0
 10  8  2  0
  9  8  2  0
  8  7  1  0
  8 11  1  0
  6  7  2  0
  6  5  1  0
 13 12  1  0
  7  4  1  0
  5  2  2  0
  4  3  2  0
 11 12  1  0
 11 16  1  0
 12 14  2  0
  2  3  1  0
  2  1  1  0
 16 17  2  0
 16 15  1  0
 14 15  1  0
 17 18  1  0
 15 20  2  0
 18 19  2  0
 20 19  1  0
  3 21  1  0
  4 22  1  0
  5 23  1  0
  6 24  1  0
 13 25  1  0
 13 26  1  0
 13 27  1  0
 17 28  1  0
 18 29  1  0
 19 30  1  0
 20 31  1  0
A    1
F20
A    2
C17
A    3
C16
A    4
C15
A    5
C18
A    6
C19
A    7
C14
A    8
S10
A    9
O11
A   10
O12
A   11
N9
A   12
C8
A   13
C13
A   14
N7
A   15
C2
A   16
C3
A   17
C4
A   18
C5
A   19
C6
A   20
C1
M  END
