4L2Y_XXK_A_1101
     RDKit          3D

 44 48  0  0  0  0  0  0  0  0999 V2000
  -28.4260   41.6630  -39.0440 O   0  0  0  0  0  0  0  0  0  0  0  0
  -29.2090   42.7040  -38.6510 C   0  0  0  0  0  0  0  0  0  0  0  0
  -29.4840   42.9220  -37.3040 C   0  0  0  0  0  0  0  0  0  0  0  0
  -30.2940   43.9930  -36.9220 C   0  0  0  0  0  0  0  0  0  0  0  0
  -30.8220   44.8460  -37.8820 C   0  0  0  0  0  0  0  0  0  0  0  0
  -29.7390   43.5560  -39.6090 C   0  0  0  0  0  0  0  0  0  0  0  0
  -30.5280   44.6370  -39.2260 C   0  0  0  0  0  0  0  0  0  0  0  0
  -31.1000   45.5060  -40.2890 C   0  0  0  0  0  0  0  0  0  0  0  0
  -32.2720   46.1620  -40.0420 N   0  0  0  0  0  0  0  0  0  0  0  0
  -32.7810   46.9180  -41.0320 C   0  0  0  0  0  0  0  0  0  0  0  0
  -33.9810   47.7490  -41.1330 C   0  0  0  0  0  0  0  0  0  0  0  0
  -35.0030   48.0510  -40.2460 C   0  0  0  0  0  0  0  0  0  0  0  0
  -35.9860   48.9080  -40.7480 C   0  0  0  0  0  0  0  0  0  0  0  0
  -35.9190   49.4050  -42.0650 C   0  0  0  0  0  0  0  0  0  0  0  0
  -30.4470   45.5670  -41.4890 N   0  0  0  0  0  0  0  0  0  0  0  0
  -30.8710   46.2920  -42.5540 C   0  0  0  0  0  0  0  0  0  0  0  0
  -32.1410   47.0410  -42.3500 C   0  0  0  0  0  0  0  0  0  0  0  0
  -32.8430   47.8470  -43.1700 O   0  0  0  0  0  0  0  0  0  0  0  0
  -33.9290   48.2850  -42.5060 C   0  0  0  0  0  0  0  0  0  0  0  0
  -34.9190   49.1100  -42.9300 N   0  0  0  0  0  0  0  0  0  0  0  0
  -30.1230   46.2960  -43.7470 N   0  0  0  0  0  0  0  0  0  0  0  0
  -30.3250   47.3940  -44.7030 C   0  0  0  0  0  0  0  0  0  0  0  0
  -29.9110   47.0190  -46.1280 C   0  0  0  0  0  0  0  0  0  0  0  0
  -29.6180   45.6340  -46.2540 O   0  0  0  0  0  0  0  0  0  0  0  0
  -28.6040   45.2330  -45.3390 C   0  0  0  0  0  0  0  0  0  0  0  0
  -29.1680   45.1990  -43.9280 C   0  0  0  0  0  0  0  0  0  0  0  0
  -30.5960   44.2380  -35.4830 N   0  0  0  0  0  0  0  0  0  0  0  0
  -27.9923   41.0864  -38.3662 H   0  0  0  0  0  0  0  0  0  0  0  0
  -29.0633   42.2507  -36.5409 H   0  0  0  0  0  0  0  0  0  0  0  0
  -31.4696   45.6829  -37.5816 H   0  0  0  0  0  0  0  0  0  0  0  0
  -29.5351   43.3767  -40.6750 H   0  0  0  0  0  0  0  0  0  0  0  0
  -35.0374   47.6463  -39.2237 H   0  0  0  0  0  0  0  0  0  0  0  0
  -36.8279   49.2001  -40.1031 H   0  0  0  0  0  0  0  0  0  0  0  0
  -36.7243   50.0701  -42.4102 H   0  0  0  0  0  0  0  0  0  0  0  0
  -29.7266   48.2580  -44.3784 H   0  0  0  0  0  0  0  0  0  0  0  0
  -31.3999   47.6272  -44.7194 H   0  0  0  0  0  0  0  0  0  0  0  0
  -29.0157   47.5969  -46.4007 H   0  0  0  0  0  0  0  0  0  0  0  0
  -30.7539   47.2485  -46.7965 H   0  0  0  0  0  0  0  0  0  0  0  0
  -28.2416   44.2308  -45.6117 H   0  0  0  0  0  0  0  0  0  0  0  0
  -27.7724   45.9518  -45.3805 H   0  0  0  0  0  0  0  0  0  0  0  0
  -29.6791   44.2392  -43.7623 H   0  0  0  0  0  0  0  0  0  0  0  0
  -28.3457   45.3113  -43.2060 H   0  0  0  0  0  0  0  0  0  0  0  0
  -30.0316   43.7801  -34.7531 H   0  0  0  0  0  0  0  0  0  0  0  0
  -31.3691   44.8652  -35.2185 H   0  0  0  0  0  0  0  0  0  0  0  0
 24 23  1  0
 24 25  1  0
 23 22  1  0
 25 26  1  0
 22 21  1  0
 26 21  1  0
 21 16  1  0
 18 19  1  0
 18 17  1  0
 20 19  1  0
 20 14  2  0
 16 17  2  0
 16 15  1  0
 19 11  2  0
 17 10  1  0
 14 13  1  0
 15  8  2  0
 11 10  1  0
 11 12  1  0
 10  9  2  0
 13 12  2  0
  8  9  1  0
  8  7  1  0
  6  7  1  0
  6  2  2  0
  7  5  2  0
  1  2  1  0
  2  3  1  0
  5  4  1  0
  3  4  2  0
  4 27  1  0
  1 28  1  0
  3 29  1  0
  5 30  1  0
  6 31  1  0
 12 32  1  0
 13 33  1  0
 14 34  1  0
 22 35  1  0
 22 36  1  0
 23 37  1  0
 23 38  1  0
 25 39  1  0
 25 40  1  0
 26 41  1  0
 26 42  1  0
 27 43  1  0
 27 44  1  0
A    1
O25
A    2
C24
A    3
C23
A    4
C22
A    5
C21
A    6
C26
A    7
C20
A    8
C19
A    9
N10
A   10
C09
A   11
C05
A   12
C04
A   13
C03
A   14
C02
A   15
N18
A   16
C11
A   17
C08
A   18
O07
A   19
C06
A   20
N01
A   21
N12
A   22
C17
A   23
C16
A   24
O15
A   25
C14
A   26
C13
A   27
N28
M  END
