4L34_1VG_A_1204
     RDKit          3D

 32 35  0  0  0  0  0  0  0  0999 V2000
    7.6310   38.2080   12.7630 C   0  0  0  0  0  0  0  0  0  0  0  0
    7.5280   37.9310   14.1150 C   0  0  0  0  0  0  0  0  0  0  0  0
    8.3070   38.4990   14.9150 O   0  0  0  0  0  0  0  0  0  0  0  0
    6.6660   36.8970   14.5200 C   0  0  0  0  0  0  0  0  0  0  0  0
    6.4770   36.6160   15.8550 C   0  0  0  0  0  0  0  0  0  0  0  0
    5.6210   35.5670   16.2230 C   0  0  0  0  0  0  0  0  0  0  0  0
    4.9460   34.8120   15.2470 C   0  0  0  0  0  0  0  0  0  0  0  0
    5.0990   35.1150   13.8920 C   0  0  0  0  0  0  0  0  0  0  0  0
    5.9620   36.1600   13.5610 C   0  0  0  0  0  0  0  0  0  0  0  0
    6.1210   36.4810   12.2460 O   0  0  0  0  0  0  0  0  0  0  0  0
    6.8010   37.5760   11.8510 C   0  0  0  0  0  0  0  0  0  0  0  0
    6.8510   37.7250   10.4620 C   0  0  0  0  0  0  0  0  0  0  0  0
    7.7000   38.6400    9.8520 C   0  0  0  0  0  0  0  0  0  0  0  0
    7.7680   38.7100    8.4650 C   0  0  0  0  0  0  0  0  0  0  0  0
    6.0660   36.8750    9.6560 C   0  0  0  0  0  0  0  0  0  0  0  0
    6.1320   36.9550    8.2660 C   0  0  0  0  0  0  0  0  0  0  0  0
    6.9590   37.9040    7.6740 C   0  0  0  0  0  0  0  0  0  0  0  0
    7.1020   37.8900    6.3670 C   0  0  0  0  0  0  0  0  0  0  0  0
    8.3000   37.5870    5.8370 N   0  0  0  0  0  0  0  0  0  0  0  0
    8.1750   37.5640    4.7330 N   0  0  0  0  0  0  0  0  0  0  0  0
    6.8470   37.7920    4.4290 N   0  0  0  0  0  0  0  0  0  0  0  0
    6.2140   37.9690    5.4040 N   0  0  0  0  0  0  0  0  0  0  0  0
    8.3771   38.9351   12.4098 H   0  0  0  0  0  0  0  0  0  0  0  0
    6.9923   37.2084   16.6254 H   0  0  0  0  0  0  0  0  0  0  0  0
    5.4760   35.3322   17.2878 H   0  0  0  0  0  0  0  0  0  0  0  0
    4.2949   33.9795   15.5520 H   0  0  0  0  0  0  0  0  0  0  0  0
    4.5600   34.5516   13.1161 H   0  0  0  0  0  0  0  0  0  0  0  0
    8.3191   39.3098   10.4669 H   0  0  0  0  0  0  0  0  0  0  0  0
    8.4697   39.4109    7.9891 H   0  0  0  0  0  0  0  0  0  0  0  0
    5.3954   36.1421   10.1285 H   0  0  0  0  0  0  0  0  0  0  0  0
    5.5350   36.2733    7.6423 H   0  0  0  0  0  0  0  0  0  0  0  0
    9.1711   37.4094    6.3572 H   0  0  0  0  0  0  0  0  0  0  0  0
 21 20  2  0
 21 22  1  0
 20 19  1  0
 22 18  2  0
 19 18  1  0
 18 17  1  0
 17 16  2  0
 17 14  1  0
 16 15  1  0
 14 13  2  0
 15 12  2  0
 13 12  1  0
 12 11  1  0
 11 10  1  0
 11  1  2  0
 10  9  1  0
  1  2  1  0
  9  8  1  0
  9  4  2  0
  8  7  2  0
  2  4  1  0
  2  3  2  0
  4  5  1  0
  7  6  1  0
  5  6  2  0
  1 23  1  0
  5 24  1  0
  6 25  1  0
  7 26  1  0
  8 27  1  0
 13 28  1  0
 14 29  1  0
 15 30  1  0
 16 31  1  0
 19 32  1  0
A    1
CAC
A    2
CAB
A    3
OAA
A    4
CAK
A    5
CAJ
A    6
CAI
A    7
CAH
A    8
CAG
A    9
CAF
A   10
OAE
A   11
CAD
A   12
CAL
A   13
CAQ
A   14
CAP
A   15
CAM
A   16
CAN
A   17
CAO
A   18
CAR
A   19
NAV
A   20
NAU
A   21
NAT
A   22
NAS
M  END
