4L4Z_D5X_A_501
     RDKit          3D

 25 24  0  0  0  0  0  0  0  0999 V2000
  -38.0160   24.1180   -4.5320 O   0  0  0  0  0  0  0  0  0  0  0  0
  -38.4060   22.5440   -4.4800 P   0  0  0  0  0  0  0  0  0  0  0  0
  -39.8730   22.4050   -4.9130 O   0  0  0  0  0  0  0  0  0  0  0  0
  -38.1770   21.9480   -3.0900 O   0  0  0  0  0  0  0  0  0  0  0  0
  -37.6320   21.6220   -5.3790 O   0  0  0  0  0  0  0  0  0  0  0  0
  -36.2310   21.7950   -5.5210 C   0  0  0  0  0  0  0  0  0  0  0  0
  -35.5330   20.5700   -4.9730 C   0  0  0  0  0  0  0  0  0  0  0  0
  -35.7450   20.7050   -3.5760 O   0  0  0  0  0  0  0  0  0  0  0  0
  -34.0660   20.6450   -5.4240 C   0  0  0  0  0  0  0  0  0  0  0  0
  -33.7300   20.2080   -6.7230 O   0  0  0  0  0  0  0  0  0  0  0  0
  -33.1240   21.3790   -4.7420 O   0  0  0  0  0  0  0  0  0  0  0  0
  -33.5470   19.3190   -4.7300 C   0  0  0  0  0  0  0  0  0  0  0  0
  -33.6160   18.1830   -5.2400 O   0  0  0  0  0  0  0  0  0  0  0  0
  -32.8170   19.4580   -3.3600 C   0  0  0  0  0  0  0  0  0  0  0  0
  -37.9295   24.4672   -3.6097 H   0  0  0  0  0  0  0  0  0  0  0  0
  -38.4318   22.6112   -2.4005 H   0  0  0  0  0  0  0  0  0  0  0  0
  -35.9794   21.9197   -6.5845 H   0  0  0  0  0  0  0  0  0  0  0  0
  -35.9061   22.6896   -4.9696 H   0  0  0  0  0  0  0  0  0  0  0  0
  -35.8880   19.5856   -5.3120 H   0  0  0  0  0  0  0  0  0  0  0  0
  -35.0194   20.2430   -3.0859 H   0  0  0  0  0  0  0  0  0  0  0  0
  -33.1277   19.4247   -6.6622 H   0  0  0  0  0  0  0  0  0  0  0  0
  -33.2631   21.2706   -3.7678 H   0  0  0  0  0  0  0  0  0  0  0  0
  -33.5408   19.3202   -2.5432 H   0  0  0  0  0  0  0  0  0  0  0  0
  -32.0295   18.6937   -3.2849 H   0  0  0  0  0  0  0  0  0  0  0  0
  -32.3655   20.4583   -3.2849 H   0  0  0  0  0  0  0  0  0  0  0  0
 10  9  1  0
  6  5  1  0
  6  7  1  0
  9  7  1  0
  9 11  1  0
  9 12  1  0
  5  2  1  0
 13 12  2  0
  7  8  1  0
  3  2  2  0
 12 14  1  0
  1  2  1  0
  2  4  1  0
  1 15  1  0
  4 16  1  0
  6 17  1  0
  6 18  1  0
  7 19  1  0
  8 20  1  0
 10 21  1  0
 11 22  1  0
 14 23  1  0
 14 24  1  0
 14 25  1  0
A    1
O3P
A    2
P
A    3
O2P
A    4
O1P
A    5
O5
A    6
C5
A    7
C4
A    8
O4
A    9
C3
A   10
O3
A   11
O3'
A   12
C2
A   13
O2
A   14
C1
M  END
