1ZN7_HSX_A_506
     RDKit          3D

 25 25  0  0  0  0  0  0  0  0999 V2000
   32.4540    9.9940   -1.0930 C   0  0  0  0  0  0  0  0  0  0  0  0
   32.5210   11.3960   -0.7880 O   0  0  0  0  0  0  0  0  0  0  0  0
   32.2670    9.2790    0.2460 C   0  0  0  0  0  0  0  0  0  0  0  0
   31.6660    7.9910    0.0460 O   0  0  0  0  0  0  0  0  0  0  0  0
   31.2670   10.2110    0.9110 C   0  0  0  0  0  0  0  0  0  0  0  0
   29.9410    9.9080    0.4820 O   0  0  0  0  0  0  0  0  0  0  0  0
   31.6680   11.5800    0.3690 C   0  0  0  0  0  0  0  0  0  0  0  0
   32.4320   12.3100    1.4600 C   0  0  0  0  0  0  0  0  0  0  0  0
   32.7870   13.6130    0.9980 O   0  0  0  0  0  0  0  0  0  0  0  0
   32.3880   14.9160    1.8570 P   0  0  0  0  0  0  0  0  0  0  0  0
   33.4230   15.9210    1.5540 O   0  0  0  0  0  0  0  0  0  0  0  0
   32.3710   14.4720    3.4010 O   0  0  0  0  0  0  0  0  0  0  0  0
   30.9260   15.3350    1.3490 O   0  0  0  0  0  0  0  0  0  0  0  0
   31.3160    9.7520   -1.9250 O   0  0  0  0  0  0  0  0  0  0  0  0
   33.3554    9.6429   -1.6167 H   0  0  0  0  0  0  0  0  0  0  0  0
   33.1957    9.1007    0.8079 H   0  0  0  0  0  0  0  0  0  0  0  0
   31.4728    7.5770    0.9243 H   0  0  0  0  0  0  0  0  0  0  0  0
   31.2762   10.1392    2.0086 H   0  0  0  0  0  0  0  0  0  0  0  0
   29.3605    9.7754    1.2729 H   0  0  0  0  0  0  0  0  0  0  0  0
   30.7816   12.1612    0.0748 H   0  0  0  0  0  0  0  0  0  0  0  0
   31.7994   12.3977    2.3556 H   0  0  0  0  0  0  0  0  0  0  0  0
   33.3435   11.7474    1.7104 H   0  0  0  0  0  0  0  0  0  0  0  0
   32.4018   15.2771    3.9763 H   0  0  0  0  0  0  0  0  0  0  0  0
   30.3408   15.5027    2.1298 H   0  0  0  0  0  0  0  0  0  0  0  0
   30.5224    9.5832   -1.3577 H   0  0  0  0  0  0  0  0  0  0  0  0
  2  1  1  0
  1 14  1  0
  1  3  1  0
  2  7  1  0
  5  3  1  0
  3  4  1  0
  7  5  1  0
  5  6  1  0
  8  7  1  0
  9  8  1  0
 10  9  1  0
 11 10  2  0
 13 10  1  0
 10 12  1  0
  1 15  1  0
  3 16  1  0
  4 17  1  0
  5 18  1  0
  6 19  1  0
  7 20  1  0
  8 21  1  0
  8 22  1  0
 12 23  1  0
 13 24  1  0
 14 25  1  0
A    1
C1'
A    2
O1'
A    3
C2'
A    4
O2'
A    5
C3'
A    6
O3'
A    7
C4'
A    8
C5'
A    9
O5'
A   10
P'
A   11
O1X
A   12
O2X
A   13
O3X
A   14
O1
M  END
