4L52_1UL_A_501
     RDKit          3D

 54 59  0  0  0  0  0  0  0  0999 V2000
  -23.4860  -49.9850  -21.7180 O   0  0  0  0  0  0  0  0  0  0  0  0
  -23.1710  -48.9010  -21.2410 C   0  0  0  0  0  0  0  0  0  0  0  0
  -23.2970  -47.6570  -22.0790 C   0  0  0  0  0  0  0  0  0  0  0  0
  -22.7170  -48.7900  -19.9750 N   0  0  0  0  0  0  0  0  0  0  0  0
  -22.2970  -47.5400  -19.3310 C   0  0  0  0  0  0  0  0  0  0  0  0
  -20.7770  -47.6780  -19.2010 C   0  0  0  0  0  0  0  0  0  0  0  0
  -20.4430  -48.8850  -18.3240 C   0  0  0  0  0  0  0  0  0  0  0  0
  -21.0530  -50.1550  -18.9320 C   0  0  0  0  0  0  0  0  0  0  0  0
  -22.5600  -49.9570  -19.0980 C   0  0  0  0  0  0  0  0  0  0  0  0
  -18.9790  -49.0340  -18.0900 N   0  0  0  0  0  0  0  0  0  0  0  0
  -18.1710  -48.4020  -17.2550 C   0  0  0  0  0  0  0  0  0  0  0  0
  -16.9060  -48.9540  -17.4090 C   0  0  0  0  0  0  0  0  0  0  0  0
  -17.0190  -49.9520  -18.3810 C   0  0  0  0  0  0  0  0  0  0  0  0
  -18.3020  -50.0230  -18.8100 N   0  0  0  0  0  0  0  0  0  0  0  0
  -15.7730  -48.5470  -16.6950 C   0  0  0  0  0  0  0  0  0  0  0  0
  -15.8840  -47.4800  -15.7990 C   0  0  0  0  0  0  0  0  0  0  0  0
  -14.8370  -47.0280  -15.0790 N   0  0  0  0  0  0  0  0  0  0  0  0
  -13.6290  -47.5950  -15.1700 C   0  0  0  0  0  0  0  0  0  0  0  0
  -12.5820  -47.1410  -14.4430 N   0  0  0  0  0  0  0  0  0  0  0  0
  -13.4970  -48.6500  -16.0360 C   0  0  0  0  0  0  0  0  0  0  0  0
  -14.5170  -49.1510  -16.7920 C   0  0  0  0  0  0  0  0  0  0  0  0
  -12.3240  -49.3860  -16.2870 O   0  0  0  0  0  0  0  0  0  0  0  0
  -12.5360  -50.3010  -17.1350 C   0  0  0  0  0  0  0  0  0  0  0  0
  -13.8880  -50.2250  -17.5140 C   0  0  0  0  0  0  0  0  0  0  0  0
  -11.5830  -51.1800  -17.6190 C   0  0  0  0  0  0  0  0  0  0  0  0
  -10.3400  -51.2200  -17.0240 C   0  0  0  0  0  0  0  0  0  0  0  0
   -9.8850  -50.2280  -15.6310 S   0  0  0  0  0  0  0  0  0  0  0  0
   -8.2640  -50.9700  -15.6220 N   0  0  0  0  0  0  0  0  0  0  0  0
   -8.2150  -51.9210  -16.6880 N   0  0  0  0  0  0  0  0  0  0  0  0
   -9.3290  -52.0640  -17.4680 C   0  0  0  0  0  0  0  0  0  0  0  0
   -9.5790  -52.8870  -18.5630 C   0  0  0  0  0  0  0  0  0  0  0  0
  -10.8250  -52.8490  -19.1970 C   0  0  0  0  0  0  0  0  0  0  0  0
  -11.8190  -51.9900  -18.7350 C   0  0  0  0  0  0  0  0  0  0  0  0
  -23.3859  -46.7795  -21.4216 H   0  0  0  0  0  0  0  0  0  0  0  0
  -22.4050  -47.5507  -22.7139 H   0  0  0  0  0  0  0  0  0  0  0  0
  -24.1922  -47.7317  -22.7139 H   0  0  0  0  0  0  0  0  0  0  0  0
  -22.5582  -46.6725  -19.9549 H   0  0  0  0  0  0  0  0  0  0  0  0
  -22.7904  -47.3786  -18.3612 H   0  0  0  0  0  0  0  0  0  0  0  0
  -20.3357  -47.8176  -20.1989 H   0  0  0  0  0  0  0  0  0  0  0  0
  -20.3664  -46.7676  -18.7400 H   0  0  0  0  0  0  0  0  0  0  0  0
  -20.8899  -48.7165  -17.3331 H   0  0  0  0  0  0  0  0  0  0  0  0
  -20.8651  -51.0094  -18.2652 H   0  0  0  0  0  0  0  0  0  0  0  0
  -20.5953  -50.3529  -19.9125 H   0  0  0  0  0  0  0  0  0  0  0  0
  -23.0312  -49.7686  -18.1220 H   0  0  0  0  0  0  0  0  0  0  0  0
  -23.0408  -50.8502  -19.5235 H   0  0  0  0  0  0  0  0  0  0  0  0
  -18.4492  -47.5903  -16.5667 H   0  0  0  0  0  0  0  0  0  0  0  0
  -16.1932  -50.5827  -18.7420 H   0  0  0  0  0  0  0  0  0  0  0  0
  -16.8616  -46.9908  -15.6766 H   0  0  0  0  0  0  0  0  0  0  0  0
  -12.6232  -47.1589  -13.4140 H   0  0  0  0  0  0  0  0  0  0  0  0
  -11.7438  -46.7775  -14.9186 H   0  0  0  0  0  0  0  0  0  0  0  0
  -14.3845  -50.8807  -18.2444 H   0  0  0  0  0  0  0  0  0  0  0  0
   -8.7962  -53.5673  -18.9295 H   0  0  0  0  0  0  0  0  0  0  0  0
  -11.0203  -53.4991  -20.0626 H   0  0  0  0  0  0  0  0  0  0  0  0
  -12.7910  -51.9483  -19.2482 H   0  0  0  0  0  0  0  0  0  0  0  0
  3  2  1  0
  1  2  2  0
  2  4  1  0
  4  5  1  0
  4  9  1  0
  5  6  1  0
  6  7  1  0
 32 33  2  0
 32 31  1  0
  9  8  1  0
  8  7  1  0
 14 13  2  0
 14 10  1  0
 33 25  1  0
 31 30  2  0
 13 12  1  0
  7 10  1  0
 10 11  1  0
 25 23  1  0
 25 26  2  0
 24 23  2  0
 24 21  1  0
 30 26  1  0
 30 29  1  0
 12 11  2  0
 12 15  1  0
 23 22  1  0
 26 27  1  0
 21 15  1  0
 21 20  2  0
 15 16  2  0
 29 28  2  0
 22 20  1  0
 20 18  1  0
 16 17  1  0
 27 28  1  0
 18 17  2  0
 18 19  1  0
  3 34  1  0
  3 35  1  0
  3 36  1  0
  5 37  1  0
  5 38  1  0
  6 39  1  0
  6 40  1  0
  7 41  1  0
  8 42  1  0
  8 43  1  0
  9 44  1  0
  9 45  1  0
 11 46  1  0
 13 47  1  0
 16 48  1  0
 19 49  1  0
 19 50  1  0
 24 51  1  0
 31 52  1  0
 32 53  1  0
 33 54  1  0
A    1
O1
A    2
C1
A    3
C23
A    4
N1
A    5
C22
A    6
C21
A    7
C4
A    8
C3
A    9
C2
A   10
N2
A   11
C7
A   12
C6
A   13
C5
A   14
N3
A   15
C8
A   16
C14
A   17
N4
A   18
C13
A   19
N5
A   20
C12
A   21
C9
A   22
O2
A   23
C11
A   24
C10
A   25
C15
A   26
C20
A   27
S
A   28
N7
A   29
N6
A   30
C19
A   31
C18
A   32
C17
A   33
C16
M  END
