4L53_1UO_A_501
     RDKit          3D

 51 56  0  0  0  0  0  0  0  0999 V2000
  -24.8830  -48.2210  -19.3900 O   0  0  0  0  0  0  0  0  0  0  0  0
  -23.4600  -48.3350  -19.4590 C   0  0  0  0  0  0  0  0  0  0  0  0
  -22.8210  -47.3990  -18.4290 C   0  0  0  0  0  0  0  0  0  0  0  0
  -21.2960  -47.5340  -18.4750 C   0  0  0  0  0  0  0  0  0  0  0  0
  -20.8990  -48.9810  -18.1960 C   0  0  0  0  0  0  0  0  0  0  0  0
  -21.5200  -49.9000  -19.2070 C   0  0  0  0  0  0  0  0  0  0  0  0
  -23.0460  -49.7770  -19.1530 C   0  0  0  0  0  0  0  0  0  0  0  0
  -19.4350  -49.0730  -18.1600 N   0  0  0  0  0  0  0  0  0  0  0  0
  -18.6250  -48.5830  -17.1990 C   0  0  0  0  0  0  0  0  0  0  0  0
  -17.3250  -48.8950  -17.5080 C   0  0  0  0  0  0  0  0  0  0  0  0
  -17.3880  -49.5780  -18.7450 C   0  0  0  0  0  0  0  0  0  0  0  0
  -18.6380  -49.7050  -19.1170 N   0  0  0  0  0  0  0  0  0  0  0  0
  -16.0980  -48.4990  -16.7440 C   0  0  0  0  0  0  0  0  0  0  0  0
  -16.2010  -47.3640  -15.9250 C   0  0  0  0  0  0  0  0  0  0  0  0
  -15.1860  -46.8820  -15.2280 N   0  0  0  0  0  0  0  0  0  0  0  0
  -13.9900  -47.4210  -15.2600 C   0  0  0  0  0  0  0  0  0  0  0  0
  -12.9480  -46.8790  -14.5000 N   0  0  0  0  0  0  0  0  0  0  0  0
  -13.7660  -48.5400  -16.0500 C   0  0  0  0  0  0  0  0  0  0  0  0
  -12.6550  -49.2390  -16.2460 O   0  0  0  0  0  0  0  0  0  0  0  0
  -12.8270  -50.2480  -17.0970 C   0  0  0  0  0  0  0  0  0  0  0  0
  -11.6860  -51.1080  -17.4890 C   0  0  0  0  0  0  0  0  0  0  0  0
  -11.6960  -51.9960  -18.5840 C   0  0  0  0  0  0  0  0  0  0  0  0
  -10.5680  -52.7520  -18.8860 C   0  0  0  0  0  0  0  0  0  0  0  0
   -9.4130  -52.6410  -18.1420 C   0  0  0  0  0  0  0  0  0  0  0  0
   -9.3510  -51.7430  -17.0540 C   0  0  0  0  0  0  0  0  0  0  0  0
   -8.3640  -51.4500  -16.1990 N   0  0  0  0  0  0  0  0  0  0  0  0
   -8.5540  -50.5850  -15.2840 N   0  0  0  0  0  0  0  0  0  0  0  0
  -10.0120  -50.0170  -15.3590 S   0  0  0  0  0  0  0  0  0  0  0  0
  -10.5020  -50.9840  -16.7490 C   0  0  0  0  0  0  0  0  0  0  0  0
  -14.1350  -50.2600  -17.4950 C   0  0  0  0  0  0  0  0  0  0  0  0
  -14.8240  -51.4150  -18.5950 Cl  0  0  0  0  0  0  0  0  0  0  0  0
  -14.8020  -49.1260  -16.8150 C   0  0  0  0  0  0  0  0  0  0  0  0
  -25.1666  -48.1983  -18.4418 H   0  0  0  0  0  0  0  0  0  0  0  0
  -23.1221  -48.0598  -20.4690 H   0  0  0  0  0  0  0  0  0  0  0  0
  -23.1020  -46.3602  -18.6568 H   0  0  0  0  0  0  0  0  0  0  0  0
  -23.1777  -47.6696  -17.4243 H   0  0  0  0  0  0  0  0  0  0  0  0
  -20.9329  -47.2408  -19.4711 H   0  0  0  0  0  0  0  0  0  0  0  0
  -20.8492  -46.8800  -17.7116 H   0  0  0  0  0  0  0  0  0  0  0  0
  -21.2806  -49.3027  -17.2157 H   0  0  0  0  0  0  0  0  0  0  0  0
  -21.1672  -49.6280  -20.2128 H   0  0  0  0  0  0  0  0  0  0  0  0
  -21.2313  -50.9370  -18.9803 H   0  0  0  0  0  0  0  0  0  0  0  0
  -23.3996  -50.0534  -18.1487 H   0  0  0  0  0  0  0  0  0  0  0  0
  -23.4918  -50.4498  -19.9004 H   0  0  0  0  0  0  0  0  0  0  0  0
  -18.9537  -48.0235  -16.3108 H   0  0  0  0  0  0  0  0  0  0  0  0
  -16.5189  -49.9468  -19.3095 H   0  0  0  0  0  0  0  0  0  0  0  0
  -17.1720  -46.8512  -15.8598 H   0  0  0  0  0  0  0  0  0  0  0  0
  -12.9943  -46.9031  -13.4713 H   0  0  0  0  0  0  0  0  0  0  0  0
  -12.1345  -46.4559  -14.9691 H   0  0  0  0  0  0  0  0  0  0  0  0
  -12.6004  -52.0915  -19.2027 H   0  0  0  0  0  0  0  0  0  0  0  0
  -10.5983  -53.4515  -19.7344 H   0  0  0  0  0  0  0  0  0  0  0  0
   -8.5361  -53.2543  -18.3968 H   0  0  0  0  0  0  0  0  0  0  0  0
  1  2  1  0
  2  3  1  0
  2  7  1  0
  3  4  1  0
  4  5  1  0
  5  6  1  0
  5  8  1  0
  6  7  1  0
  8  9  1  0
  8 12  1  0
  9 10  2  0
 10 11  1  0
 10 13  1  0
 11 12  2  0
 13 14  2  0
 13 32  1  0
 14 15  1  0
 15 16  2  0
 16 17  1  0
 16 18  1  0
 18 19  1  0
 18 32  2  0
 19 20  1  0
 20 21  1  0
 20 30  2  0
 21 22  2  0
 21 29  1  0
 22 23  1  0
 23 24  2  0
 24 25  1  0
 25 26  1  0
 25 29  2  0
 26 27  2  0
 27 28  1  0
 28 29  1  0
 30 31  1  0
 30 32  1  0
  1 33  1  0
  2 34  1  0
  3 35  1  0
  3 36  1  0
  4 37  1  0
  4 38  1  0
  5 39  1  0
  6 40  1  0
  6 41  1  0
  7 42  1  0
  7 43  1  0
  9 44  1  0
 11 45  1  0
 14 46  1  0
 17 47  1  0
 17 48  1  0
 22 49  1  0
 23 50  1  0
 24 51  1  0
A    1
O1
A    2
C2
A    3
C4
A    4
C5
A    5
C6
A    6
C8
A    7
C9
A    8
N10
A    9
C11
A   10
C12
A   11
C13
A   12
N14
A   13
C15
A   14
C16
A   15
N17
A   16
C18
A   17
N19
A   18
C20
A   19
O21
A   20
C22
A   21
C23
A   22
C24
A   23
C25
A   24
C26
A   25
C27
A   26
N28
A   27
N29
A   28
S30
A   29
C31
A   30
C32
A   31
CL3
A   32
C34
M  END
