4L5B_1UX_A_301
     RDKit          3D

 61 63  0  0  0  0  0  0  0  0999 V2000
  -35.2650    7.9720    0.9700 C   0  0  0  0  0  0  0  0  0  0  0  0
  -36.1710    8.1120   -0.2600 C   0  0  0  0  0  0  0  0  0  0  0  0
  -37.4810    8.7990    0.1520 C   0  0  0  0  0  0  0  0  0  0  0  0
  -36.4670    6.8230   -0.8250 O   0  0  0  0  0  0  0  0  0  0  0  0
  -35.4610    8.9520   -1.3200 C   0  0  0  0  0  0  0  0  0  0  0  0
  -36.3940    9.9060   -1.8200 O   0  0  0  0  0  0  0  0  0  0  0  0
  -35.8870   10.7960   -2.7080 C   0  0  0  0  0  0  0  0  0  0  0  0
  -34.5310   11.1180   -2.8190 C   0  0  0  0  0  0  0  0  0  0  0  0
  -36.8380   11.3870   -3.5370 C   0  0  0  0  0  0  0  0  0  0  0  0
  -38.1270   11.0030   -3.3520 O   0  0  0  0  0  0  0  0  0  0  0  0
  -39.0120   11.9690   -3.9530 C   0  0  0  0  0  0  0  0  0  0  0  0
  -36.4700   12.3270   -4.4940 C   0  0  0  0  0  0  0  0  0  0  0  0
  -35.1260   12.6520   -4.5880 C   0  0  0  0  0  0  0  0  0  0  0  0
  -34.1580   12.0590   -3.7810 C   0  0  0  0  0  0  0  0  0  0  0  0
  -32.8930   12.4370   -3.9400 C   0  0  0  0  0  0  0  0  0  0  0  0
  -31.9040   12.0750   -3.1340 N   0  0  0  0  0  0  0  0  0  0  0  0
  -32.3280   13.4660   -5.1660 S   0  0  0  0  0  0  0  0  0  0  0  0
  -30.7800   13.4050   -4.5790 C   0  0  0  0  0  0  0  0  0  0  0  0
  -29.5680   14.1330   -5.1810 C   0  0  0  0  0  0  0  0  0  0  0  0
  -29.7360   15.6500   -5.0180 C   0  0  0  0  0  0  0  0  0  0  0  0
  -29.3670   16.1230   -3.5930 C   0  0  0  0  0  0  0  0  0  0  0  0
  -30.7380   12.6180   -3.4950 C   0  0  0  0  0  0  0  0  0  0  0  0
  -29.4680   12.3070   -2.6990 C   0  0  0  0  0  0  0  0  0  0  0  0
  -28.7780   10.6550   -3.1410 S   0  0  0  0  0  0  0  0  0  0  0  0
  -27.1340   11.0680   -3.5770 C   0  0  0  0  0  0  0  0  0  0  0  0
  -26.2390   10.0780   -3.7500 N   0  0  0  0  0  0  0  0  0  0  0  0
  -26.7730   12.3540   -3.7180 N   0  0  0  0  0  0  0  0  0  0  0  0
  -25.5030   12.6640   -4.0290 C   0  0  0  0  0  0  0  0  0  0  0  0
  -25.2290   13.9780   -4.1570 N   0  0  0  0  0  0  0  0  0  0  0  0
  -24.5350   11.6430   -4.2140 C   0  0  0  0  0  0  0  0  0  0  0  0
  -24.9500   10.3120   -4.0530 C   0  0  0  0  0  0  0  0  0  0  0  0
  -24.1210    9.2480   -4.1690 N   0  0  0  0  0  0  0  0  0  0  0  0
  -35.8702    8.0655    1.8838 H   0  0  0  0  0  0  0  0  0  0  0  0
  -34.7747    6.9874    0.9541 H   0  0  0  0  0  0  0  0  0  0  0  0
  -34.5004    8.7627    0.9541 H   0  0  0  0  0  0  0  0  0  0  0  0
  -37.5474    8.8338    1.2494 H   0  0  0  0  0  0  0  0  0  0  0  0
  -37.4999    9.8231   -0.2491 H   0  0  0  0  0  0  0  0  0  0  0  0
  -38.3342    8.2323   -0.2491 H   0  0  0  0  0  0  0  0  0  0  0  0
  -36.6170    6.1698   -0.0963 H   0  0  0  0  0  0  0  0  0  0  0  0
  -35.1133    8.3047   -2.1386 H   0  0  0  0  0  0  0  0  0  0  0  0
  -34.5886    9.4611   -0.8844 H   0  0  0  0  0  0  0  0  0  0  0  0
  -33.7809   10.6446   -2.1684 H   0  0  0  0  0  0  0  0  0  0  0  0
  -39.5292   12.5336   -3.1632 H   0  0  0  0  0  0  0  0  0  0  0  0
  -38.4288   12.6620   -4.5772 H   0  0  0  0  0  0  0  0  0  0  0  0
  -39.7533   11.4486   -4.5772 H   0  0  0  0  0  0  0  0  0  0  0  0
  -37.2176   12.7948   -5.1515 H   0  0  0  0  0  0  0  0  0  0  0  0
  -34.8127   13.4050   -5.3261 H   0  0  0  0  0  0  0  0  0  0  0  0
  -29.4893   13.8876   -6.2504 H   0  0  0  0  0  0  0  0  0  0  0  0
  -28.6556   13.8113   -4.6576 H   0  0  0  0  0  0  0  0  0  0  0  0
  -29.0829   16.1596   -5.7417 H   0  0  0  0  0  0  0  0  0  0  0  0
  -30.7934   15.8960   -5.1949 H   0  0  0  0  0  0  0  0  0  0  0  0
  -29.8674   15.4815   -2.8527 H   0  0  0  0  0  0  0  0  0  0  0  0
  -28.2774   16.0595   -3.4563 H   0  0  0  0  0  0  0  0  0  0  0  0
  -29.6937   17.1644   -3.4563 H   0  0  0  0  0  0  0  0  0  0  0  0
  -28.7138   13.0782   -2.9144 H   0  0  0  0  0  0  0  0  0  0  0  0
  -29.7256   12.2976   -1.6296 H   0  0  0  0  0  0  0  0  0  0  0  0
  -25.1071   14.5628   -3.3179 H   0  0  0  0  0  0  0  0  0  0  0  0
  -25.1416   14.3970   -5.0939 H   0  0  0  0  0  0  0  0  0  0  0  0
  -23.4945   11.8865   -4.4748 H   0  0  0  0  0  0  0  0  0  0  0  0
  -23.7587    8.7830   -3.3244 H   0  0  0  0  0  0  0  0  0  0  0  0
  -23.8526    8.9035   -5.1019 H   0  0  0  0  0  0  0  0  0  0  0  0
 19 20  1  0
 19 18  1  0
 17 18  1  0
 17 15  1  0
 20 21  1  0
 13 12  2  0
 13 14  1  0
 18 22  2  0
 12  9  1  0
 30 31  1  0
 30 28  2  0
 32 31  1  0
 29 28  1  0
 31 26  2  0
 28 27  1  0
 11 10  1  0
 15 14  1  0
 15 16  2  0
 14  8  2  0
 26 25  1  0
 27 25  2  0
 25 24  1  0
  9 10  1  0
  9  7  2  0
 22 16  1  0
 22 23  1  0
 24 23  1  0
  8  7  1  0
  7  6  1  0
  6  5  1  0
  5  2  1  0
  4  2  1  0
  2  3  1  0
  2  1  1  0
  1 33  1  0
  1 34  1  0
  1 35  1  0
  3 36  1  0
  3 37  1  0
  3 38  1  0
  4 39  1  0
  5 40  1  0
  5 41  1  0
  8 42  1  0
 11 43  1  0
 11 44  1  0
 11 45  1  0
 12 46  1  0
 13 47  1  0
 19 48  1  0
 19 49  1  0
 20 50  1  0
 20 51  1  0
 21 52  1  0
 21 53  1  0
 21 54  1  0
 23 55  1  0
 23 56  1  0
 29 57  1  0
 29 58  1  0
 30 59  1  0
 32 60  1  0
 32 61  1  0
A    1
CAC
A    2
CBF
A    3
CAD
A    4
OAG
A    5
CAN
A    6
OAT
A    7
CBB
A    8
CAK
A    9
CBA
A   10
OAS
A   11
CAB
A   12
CAI
A   13
CAH
A   14
CAY
A   15
CBE
A   16
NAR
A   17
SAV
A   18
CBD
A   19
CAM
A   20
CAL
A   21
CAA
A   22
CBC
A   23
CAO
A   24
SAU
A   25
C2
A   26
N3
A   27
N1
A   28
C6
A   29
NAE
A   30
C5
A   31
C4
A   32
NAF
M  END
