4L6Z_1DC_A_601
     RDKit          3D

 42 44  0  0  0  0  0  0  0  0999 V2000
   23.8200   -0.8750   14.4610 C   0  0  0  0  0  0  0  0  0  0  0  0
   24.3710    0.0630   13.5640 C   0  0  0  0  0  0  0  0  0  0  0  0
   24.8770   -0.3920   12.3150 N   0  0  0  0  0  0  0  0  0  0  0  0
   24.8350   -1.7860   12.0100 C   0  0  0  0  0  0  0  0  0  0  0  0
   24.2980   -2.6920   12.9430 C   0  0  0  0  0  0  0  0  0  0  0  0
   23.7760   -2.2500   14.1620 C   0  0  0  0  0  0  0  0  0  0  0  0
   23.2360   -3.1640   15.1060 C   0  0  0  0  0  0  0  0  0  0  0  0
   24.4080   -3.9430   15.7120 C   0  0  0  0  0  0  0  0  0  0  0  0
   22.2960   -4.1620   14.5430 N   0  0  0  0  0  0  0  0  0  0  0  0
   21.0520   -3.8860   14.0830 C   0  0  0  0  0  0  0  0  0  0  0  0
   20.5820   -2.7490   14.0060 O   0  0  0  0  0  0  0  0  0  0  0  0
   20.2910   -5.1060   13.5310 C   0  0  0  0  0  0  0  0  0  0  0  0
   18.9130   -4.6130   13.0330 C   0  0  0  0  0  0  0  0  0  0  0  0
   18.1030   -5.5900   12.3760 C   0  0  0  0  0  0  0  0  0  0  0  0
   18.5020   -6.8270   12.0280 N   0  0  0  0  0  0  0  0  0  0  0  0
   17.6660   -7.6680   11.3760 C   0  0  0  0  0  0  0  0  0  0  0  0
   18.0980   -8.9440   11.0860 C   0  0  0  0  0  0  0  0  0  0  0  0
   17.2670   -9.8560   10.4240 C   0  0  0  0  0  0  0  0  0  0  0  0
   15.9950   -9.4690   10.0630 C   0  0  0  0  0  0  0  0  0  0  0  0
   15.5270   -8.1860   10.3950 C   0  0  0  0  0  0  0  0  0  0  0  0
   16.3530   -7.2970   11.0560 C   0  0  0  0  0  0  0  0  0  0  0  0
   15.9260   -6.0170   11.3790 C   0  0  0  0  0  0  0  0  0  0  0  0
   14.7930   -5.6030   11.1390 O   0  0  0  0  0  0  0  0  0  0  0  0
   16.8080   -5.1940   12.0350 N   0  0  0  0  0  0  0  0  0  0  0  0
   23.4135   -0.5228   15.4205 H   0  0  0  0  0  0  0  0  0  0  0  0
   24.4090    1.1306   13.8262 H   0  0  0  0  0  0  0  0  0  0  0  0
   25.2218   -2.1512   11.0472 H   0  0  0  0  0  0  0  0  0  0  0  0
   24.2888   -3.7668   12.7091 H   0  0  0  0  0  0  0  0  0  0  0  0
   22.6660   -2.5632   15.8300 H   0  0  0  0  0  0  0  0  0  0  0  0
   24.3469   -3.9024   16.8095 H   0  0  0  0  0  0  0  0  0  0  0  0
   24.3621   -4.9909   15.3808 H   0  0  0  0  0  0  0  0  0  0  0  0
   25.3564   -3.4950   15.3808 H   0  0  0  0  0  0  0  0  0  0  0  0
   22.6130   -5.1410   14.4980 H   0  0  0  0  0  0  0  0  0  0  0  0
   20.1565   -5.8548   14.3255 H   0  0  0  0  0  0  0  0  0  0  0  0
   20.8540   -5.5723   12.7090 H   0  0  0  0  0  0  0  0  0  0  0  0
   19.0850   -3.7872   12.3270 H   0  0  0  0  0  0  0  0  0  0  0  0
   18.3561   -4.3214   13.9356 H   0  0  0  0  0  0  0  0  0  0  0  0
   19.1126   -9.2512   11.3795 H   0  0  0  0  0  0  0  0  0  0  0  0
   17.6258  -10.8702   10.1947 H   0  0  0  0  0  0  0  0  0  0  0  0
   15.3444  -10.1655    9.5138 H   0  0  0  0  0  0  0  0  0  0  0  0
   14.5019   -7.8892   10.1283 H   0  0  0  0  0  0  0  0  0  0  0  0
   16.5011   -4.2435   12.2864 H   0  0  0  0  0  0  0  0  0  0  0  0
 19 20  2  0
 19 18  1  0
 20 21  1  0
 18 17  2  0
 21 16  2  0
 21 22  1  0
 17 16  1  0
 23 22  2  0
 16 15  1  0
 22 24  1  0
  4  3  2  0
  4  5  1  0
 15 14  2  0
 24 14  1  0
  3  2  1  0
 14 13  1  0
  5  6  2  0
 13 12  1  0
 12 10  1  0
  2  1  2  0
 11 10  2  0
 10  9  1  0
  6  1  1  0
  6  7  1  0
  9  7  1  0
  7  8  1  0
  1 25  1  0
  2 26  1  0
  4 27  1  0
  5 28  1  0
  7 29  1  0
  8 30  1  0
  8 31  1  0
  8 32  1  0
  9 33  1  0
 12 34  1  0
 12 35  1  0
 13 36  1  0
 13 37  1  0
 17 38  1  0
 18 39  1  0
 19 40  1  0
 20 41  1  0
 24 42  1  0
A    1
CAH
A    2
CAF
A    3
NAN
A    4
CAG
A    5
CAI
A    6
CAS
A    7
CAX
A    8
CAA
A    9
NAP
A   10
CAR
A   11
OAB
A   12
CAL
A   13
CAM
A   14
CAT
A   15
NAO
A   16
CAV
A   17
CAJ
A   18
CAD
A   19
CAE
A   20
CAK
A   21
CAW
A   22
CAU
A   23
OAC
A   24
NAQ
M  END
