4L70_1V9_A_601
     RDKit          3D

 46 48  0  0  0  0  0  0  0  0999 V2000
   24.4440   -1.8340   12.1930 C   0  0  0  0  0  0  0  0  0  0  0  0
   25.2160   -0.8850   11.5130 C   0  0  0  0  0  0  0  0  0  0  0  0
   25.3290    0.4160   12.0180 C   0  0  0  0  0  0  0  0  0  0  0  0
   24.6490    0.7250   13.1950 C   0  0  0  0  0  0  0  0  0  0  0  0
   23.8700   -0.1950   13.8640 C   0  0  0  0  0  0  0  0  0  0  0  0
   23.7560   -1.4930   13.3760 C   0  0  0  0  0  0  0  0  0  0  0  0
   22.9680   -2.4100   14.0820 C   0  0  0  0  0  0  0  0  0  0  0  0
   23.9200   -3.2750   14.8780 C   0  0  0  0  0  0  0  0  0  0  0  0
   23.0590   -3.8970   15.9860 C   0  0  0  0  0  0  0  0  0  0  0  0
   22.0560   -3.1830   13.1660 N   0  0  0  0  0  0  0  0  0  0  0  0
   20.7100   -3.0340   13.2300 C   0  0  0  0  0  0  0  0  0  0  0  0
   20.1470   -2.2500   13.9990 O   0  0  0  0  0  0  0  0  0  0  0  0
   19.8540   -3.8980   12.2940 C   0  0  0  0  0  0  0  0  0  0  0  0
   19.0970   -4.8820   13.2050 C   0  0  0  0  0  0  0  0  0  0  0  0
   18.1780   -5.6900   12.5020 C   0  0  0  0  0  0  0  0  0  0  0  0
   18.5300   -6.9310   12.1520 N   0  0  0  0  0  0  0  0  0  0  0  0
   17.6920   -7.7280   11.4730 C   0  0  0  0  0  0  0  0  0  0  0  0
   18.1190   -9.0160   11.2150 C   0  0  0  0  0  0  0  0  0  0  0  0
   17.2730   -9.9090   10.5240 C   0  0  0  0  0  0  0  0  0  0  0  0
   16.0010   -9.4740   10.1490 C   0  0  0  0  0  0  0  0  0  0  0  0
   15.5850   -8.1520   10.4370 C   0  0  0  0  0  0  0  0  0  0  0  0
   16.4070   -7.2950   11.1170 C   0  0  0  0  0  0  0  0  0  0  0  0
   15.9820   -5.9860   11.4540 C   0  0  0  0  0  0  0  0  0  0  0  0
   14.8460   -5.5160   11.1700 O   0  0  0  0  0  0  0  0  0  0  0  0
   16.9150   -5.2060   12.1570 N   0  0  0  0  0  0  0  0  0  0  0  0
   24.3730   -2.8588   11.7997 H   0  0  0  0  0  0  0  0  0  0  0  0
   25.7336   -1.1611   10.5825 H   0  0  0  0  0  0  0  0  0  0  0  0
   25.9371    1.1727   11.5007 H   0  0  0  0  0  0  0  0  0  0  0  0
   24.7373    1.7416   13.6057 H   0  0  0  0  0  0  0  0  0  0  0  0
   23.3393    0.0967   14.7823 H   0  0  0  0  0  0  0  0  0  0  0  0
   22.2773   -1.9036   14.7722 H   0  0  0  0  0  0  0  0  0  0  0  0
   24.3553   -4.0587   14.2406 H   0  0  0  0  0  0  0  0  0  0  0  0
   24.7624   -2.6963   15.2849 H   0  0  0  0  0  0  0  0  0  0  0  0
   23.4602   -3.6072   16.9684 H   0  0  0  0  0  0  0  0  0  0  0  0
   22.0239   -3.5368   15.8918 H   0  0  0  0  0  0  0  0  0  0  0  0
   23.0758   -4.9928   15.8918 H   0  0  0  0  0  0  0  0  0  0  0  0
   22.4615   -3.8354   12.4798 H   0  0  0  0  0  0  0  0  0  0  0  0
   20.4940   -4.4460   11.5868 H   0  0  0  0  0  0  0  0  0  0  0  0
   19.1622   -3.2850   11.6977 H   0  0  0  0  0  0  0  0  0  0  0  0
   19.8301   -5.5352   13.7008 H   0  0  0  0  0  0  0  0  0  0  0  0
   18.5230   -4.2847   13.9287 H   0  0  0  0  0  0  0  0  0  0  0  0
   19.1150   -9.3443   11.5470 H   0  0  0  0  0  0  0  0  0  0  0  0
   17.6096  -10.9287   10.2854 H   0  0  0  0  0  0  0  0  0  0  0  0
   15.3188  -10.1614    9.6274 H   0  0  0  0  0  0  0  0  0  0  0  0
   14.5915   -7.8103   10.1111 H   0  0  0  0  0  0  0  0  0  0  0  0
   16.6588   -4.2455   12.4267 H   0  0  0  0  0  0  0  0  0  0  0  0
 20 21  2  0
 20 19  1  0
 21 22  1  0
 19 18  2  0
 22 23  1  0
 22 17  2  0
 24 23  2  0
 18 17  1  0
 23 25  1  0
 17 16  1  0
  2  3  1  0
  2  1  2  0
  3  4  2  0
 16 15  2  0
 25 15  1  0
  1  6  1  0
 13 14  1  0
 13 11  1  0
 15 14  1  0
 10 11  1  0
 10  7  1  0
  4  5  1  0
 11 12  2  0
  6  5  2  0
  6  7  1  0
  7  8  1  0
  8  9  1  0
  1 26  1  0
  2 27  1  0
  3 28  1  0
  4 29  1  0
  5 30  1  0
  7 31  1  0
  8 32  1  0
  8 33  1  0
  9 34  1  0
  9 35  1  0
  9 36  1  0
 10 37  1  0
 13 38  1  0
 13 39  1  0
 14 40  1  0
 14 41  1  0
 18 42  1  0
 19 43  1  0
 20 44  1  0
 21 45  1  0
 25 46  1  0
A    1
CAI
A    2
CAE
A    3
CAD
A    4
CAF
A    5
CAJ
A    6
CAT
A    7
CAY
A    8
CAM
A    9
CAA
A   10
NAQ
A   11
CAS
A   12
OAB
A   13
CAN
A   14
CAO
A   15
CAU
A   16
NAP
A   17
CAW
A   18
CAK
A   19
CAG
A   20
CAH
A   21
CAL
A   22
CAX
A   23
CAV
A   24
OAC
A   25
NAR
M  END
