4L7B_1VV_B_701
     RDKit          3D

 59 63  0  0  0  0  0  0  0  0999 V2000
   -6.4000   -0.5420  -24.2500 C   0  0  0  0  0  0  0  0  0  0  0  0
   -6.1430    0.4420  -23.3090 C   0  0  0  0  0  0  0  0  0  0  0  0
   -2.9530    6.8750  -31.3880 C   0  0  0  0  0  0  0  0  0  0  0  0
   -3.4830    7.3060  -30.1960 C   0  0  0  0  0  0  0  0  0  0  0  0
   -6.3710   -0.2630  -25.6010 C   0  0  0  0  0  0  0  0  0  0  0  0
   -5.8490    1.7380  -23.6850 C   0  0  0  0  0  0  0  0  0  0  0  0
   -2.7080    5.5360  -31.5760 C   0  0  0  0  0  0  0  0  0  0  0  0
   -3.7640    6.3980  -29.2020 C   0  0  0  0  0  0  0  0  0  0  0  0
   -6.0780    1.0280  -25.9550 C   0  0  0  0  0  0  0  0  0  0  0  0
   -5.8250    1.9950  -25.0320 C   0  0  0  0  0  0  0  0  0  0  0  0
   -2.9870    4.6260  -30.5800 C   0  0  0  0  0  0  0  0  0  0  0  0
   -3.5210    5.0540  -29.3790 C   0  0  0  0  0  0  0  0  0  0  0  0
   -5.9790    1.5970  -27.2850 C   0  0  0  0  0  0  0  0  0  0  0  0
   -5.5490    3.2450  -25.7180 C   0  0  0  0  0  0  0  0  0  0  0  0
   -2.6820    2.1050  -27.5840 C   0  0  0  0  0  0  0  0  0  0  0  0
    0.0910    2.2570  -27.6220 C   0  0  0  0  0  0  0  0  0  0  0  0
   -2.6940    3.1960  -30.8520 C   0  0  0  0  0  0  0  0  0  0  0  0
   -2.6650   -0.7730  -26.4780 C   0  0  0  0  0  0  0  0  0  0  0  0
   -1.4490   -0.6050  -25.6090 C   0  0  0  0  0  0  0  0  0  0  0  0
   -2.2800   -0.4910  -27.9110 C   0  0  0  0  0  0  0  0  0  0  0  0
   -0.8250    0.7470  -25.8520 C   0  0  0  0  0  0  0  0  0  0  0  0
   -3.5140    2.3620  -29.9120 C   0  0  0  0  0  0  0  0  0  0  0  0
   -3.8720    4.1840  -28.2330 C   0  0  0  0  0  0  0  0  0  0  0  0
   -1.8440    0.9830  -28.1160 C   0  0  0  0  0  0  0  0  0  0  0  0
   -0.5170    0.9470  -27.3030 C   0  0  0  0  0  0  0  0  0  0  0  0
   -5.3310    3.8360  -28.1100 C   0  0  0  0  0  0  0  0  0  0  0  0
   -5.6500    2.9160  -27.0540 N   0  0  0  0  0  0  0  0  0  0  0  0
   -3.3120    2.8700  -28.5690 N   0  0  0  0  0  0  0  0  0  0  0  0
   -6.1510    0.9690  -28.3180 O   0  0  0  0  0  0  0  0  0  0  0  0
   -5.2840    4.2990  -25.1580 O   0  0  0  0  0  0  0  0  0  0  0  0
   -2.8220    2.3330  -26.3920 O   0  0  0  0  0  0  0  0  0  0  0  0
   -0.2310    3.0350  -28.5080 O   0  0  0  0  0  0  0  0  0  0  0  0
    1.1280    2.4960  -26.7800 O   0  0  0  0  0  0  0  0  0  0  0  0
   -6.6312   -1.5636  -23.9141 H   0  0  0  0  0  0  0  0  0  0  0  0
   -6.1738    0.1855  -22.2398 H   0  0  0  0  0  0  0  0  0  0  0  0
   -2.7263    7.5969  -32.1865 H   0  0  0  0  0  0  0  0  0  0  0  0
   -3.6824    8.3760  -30.0368 H   0  0  0  0  0  0  0  0  0  0  0  0
   -6.5728   -1.0375  -26.3555 H   0  0  0  0  0  0  0  0  0  0  0  0
   -5.6447    2.5235  -22.9425 H   0  0  0  0  0  0  0  0  0  0  0  0
   -2.2855    5.1877  -32.5300 H   0  0  0  0  0  0  0  0  0  0  0  0
   -4.1894    6.7507  -28.2509 H   0  0  0  0  0  0  0  0  0  0  0  0
   -2.9578    2.9532  -31.8919 H   0  0  0  0  0  0  0  0  0  0  0  0
   -1.6231    2.9929  -30.7042 H   0  0  0  0  0  0  0  0  0  0  0  0
   -3.4475   -0.0685  -26.1596 H   0  0  0  0  0  0  0  0  0  0  0  0
   -3.0500   -1.7996  -26.3888 H   0  0  0  0  0  0  0  0  0  0  0  0
   -1.7424   -0.6863  -24.5520 H   0  0  0  0  0  0  0  0  0  0  0  0
   -0.7182   -1.3897  -25.8543 H   0  0  0  0  0  0  0  0  0  0  0  0
   -3.1446   -0.6990  -28.5585 H   0  0  0  0  0  0  0  0  0  0  0  0
   -1.4268   -1.1364  -28.1669 H   0  0  0  0  0  0  0  0  0  0  0  0
    0.1077    0.8211  -25.2735 H   0  0  0  0  0  0  0  0  0  0  0  0
   -1.5389    1.5223  -25.5369 H   0  0  0  0  0  0  0  0  0  0  0  0
   -4.5781    2.4328  -30.1817 H   0  0  0  0  0  0  0  0  0  0  0  0
   -3.2080    1.3071  -29.9713 H   0  0  0  0  0  0  0  0  0  0  0  0
   -3.5285    4.7120  -27.3312 H   0  0  0  0  0  0  0  0  0  0  0  0
   -1.8567    1.2219  -29.1897 H   0  0  0  0  0  0  0  0  0  0  0  0
    0.1701    0.1239  -27.5488 H   0  0  0  0  0  0  0  0  0  0  0  0
   -5.8897    4.7667  -27.9318 H   0  0  0  0  0  0  0  0  0  0  0  0
   -5.6067    3.3332  -29.0487 H   0  0  0  0  0  0  0  0  0  0  0  0
    0.9879    2.4637  -25.8005 H   0  0  0  0  0  0  0  0  0  0  0  0
  7  3  2  0
  7 11  1  0
  3  4  1  0
 17 11  1  0
 17 22  1  0
 11 12  2  0
  4  8  2  0
 22 28  1  0
 12  8  1  0
 12 23  1  0
 28 23  1  0
 28 15  1  0
 32 16  2  0
 29 13  2  0
 23 26  1  0
 24 20  1  0
 24 15  1  0
 24 25  1  0
 26 27  1  0
 20 18  1  0
 16 25  1  0
 16 33  1  0
 15 31  2  0
 25 21  1  0
 13 27  1  0
 13  9  1  0
 27 14  1  0
 18 19  1  0
  9  5  1  0
  9 10  2  0
 21 19  1  0
 14 30  2  0
 14 10  1  0
  5  1  2  0
 10  6  1  0
  1  2  1  0
  6  2  2  0
  1 34  1  0
  2 35  1  0
  3 36  1  0
  4 37  1  0
  5 38  1  0
  6 39  1  0
  7 40  1  0
  8 41  1  0
 17 42  1  0
 17 43  1  0
 18 44  1  0
 18 45  1  0
 19 46  1  0
 19 47  1  0
 20 48  1  0
 20 49  1  0
 21 50  1  0
 21 51  1  0
 22 52  1  0
 22 53  1  0
 23 54  1  0
 24 55  1  0
 25 56  1  0
 26 57  1  0
 26 58  1  0
 33 59  1  0
A    1
C16
A    2
C17
A    3
C3
A    4
C4
A    5
C15
A    6
C18
A    7
C2
A    8
C21
A    9
C19
A   10
C13
A   11
C1
A   12
C5
A   13
C12
A   14
C14
A   15
C23
A   16
C31
A   17
C9
A   18
C27
A   19
C28
A   20
C26
A   21
C30
A   22
C8
A   23
C6
A   24
C25
A   25
C29
A   26
C10
A   27
N11
A   28
N7
A   29
O22
A   30
O20
A   31
O24
A   32
O32
A   33
O33
M  END
