4L7L_1VA_A_601
     RDKit          3D

 47 49  0  0  0  0  0  0  0  0999 V2000
   23.0160   -5.8130   15.4780 C   0  0  0  0  0  0  0  0  0  0  0  0
   22.3110   -6.7220   16.2670 C   0  0  0  0  0  0  0  0  0  0  0  0
   21.7050   -6.3300   17.4680 C   0  0  0  0  0  0  0  0  0  0  0  0
   21.8370   -5.0190   17.8810 C   0  0  0  0  0  0  0  0  0  0  0  0
   22.5580   -4.1230   17.1060 C   0  0  0  0  0  0  0  0  0  0  0  0
   23.1440   -4.4930   15.9050 C   0  0  0  0  0  0  0  0  0  0  0  0
   23.8580   -3.5510   15.1280 C   0  0  0  0  0  0  0  0  0  0  0  0
   22.8710   -2.5460   14.5090 C   0  0  0  0  0  0  0  0  0  0  0  0
   23.6530   -1.4780   13.7490 C   0  0  0  0  0  0  0  0  0  0  0  0
   22.6740   -0.4960   13.2420 O   0  0  0  0  0  0  0  0  0  0  0  0
   21.8480   -3.2030   13.6110 N   0  0  0  0  0  0  0  0  0  0  0  0
   20.5140   -3.1930   13.9150 C   0  0  0  0  0  0  0  0  0  0  0  0
   20.0770   -2.6090   14.9010 O   0  0  0  0  0  0  0  0  0  0  0  0
   19.5190   -3.8050   12.8830 C   0  0  0  0  0  0  0  0  0  0  0  0
   19.1630   -5.2090   13.2810 C   0  0  0  0  0  0  0  0  0  0  0  0
   18.1590   -5.8600   12.5040 C   0  0  0  0  0  0  0  0  0  0  0  0
   18.4410   -7.1070   12.0780 N   0  0  0  0  0  0  0  0  0  0  0  0
   17.5890   -7.8250   11.3620 C   0  0  0  0  0  0  0  0  0  0  0  0
   17.9730   -9.1240   11.0400 C   0  0  0  0  0  0  0  0  0  0  0  0
   17.1300   -9.9350   10.3000 C   0  0  0  0  0  0  0  0  0  0  0  0
   15.8960   -9.4240    9.9220 C   0  0  0  0  0  0  0  0  0  0  0  0
   15.4840   -8.1420   10.3280 C   0  0  0  0  0  0  0  0  0  0  0  0
   16.3130   -7.3400   11.0660 C   0  0  0  0  0  0  0  0  0  0  0  0
   15.9410   -6.0520   11.4490 C   0  0  0  0  0  0  0  0  0  0  0  0
   14.8110   -5.5680   11.1920 O   0  0  0  0  0  0  0  0  0  0  0  0
   16.8820   -5.3300   12.1810 N   0  0  0  0  0  0  0  0  0  0  0  0
   23.4666   -6.1353   14.5277 H   0  0  0  0  0  0  0  0  0  0  0  0
   22.2291   -7.7689   15.9393 H   0  0  0  0  0  0  0  0  0  0  0  0
   21.1350   -7.0528   18.0703 H   0  0  0  0  0  0  0  0  0  0  0  0
   21.3721   -4.6867   18.8209 H   0  0  0  0  0  0  0  0  0  0  0  0
   22.6685   -3.0858   17.4552 H   0  0  0  0  0  0  0  0  0  0  0  0
   24.4014   -4.0729   14.3265 H   0  0  0  0  0  0  0  0  0  0  0  0
   24.5751   -3.0154   15.7674 H   0  0  0  0  0  0  0  0  0  0  0  0
   22.3032   -2.0840   15.3300 H   0  0  0  0  0  0  0  0  0  0  0  0
   24.1969   -1.9355   12.9094 H   0  0  0  0  0  0  0  0  0  0  0  0
   24.3885   -0.9915   14.4065 H   0  0  0  0  0  0  0  0  0  0  0  0
   22.2289   -0.0495   14.0053 H   0  0  0  0  0  0  0  0  0  0  0  0
   22.1630   -3.6699   12.7486 H   0  0  0  0  0  0  0  0  0  0  0  0
   19.9878   -3.8165   11.8880 H   0  0  0  0  0  0  0  0  0  0  0  0
   18.6044   -3.1944   12.8582 H   0  0  0  0  0  0  0  0  0  0  0  0
   18.8122   -5.1813   14.3232 H   0  0  0  0  0  0  0  0  0  0  0  0
   20.0791   -5.7962   13.1202 H   0  0  0  0  0  0  0  0  0  0  0  0
   18.9486   -9.5067   11.3744 H   0  0  0  0  0  0  0  0  0  0  0  0
   17.4295  -10.9556   10.0194 H   0  0  0  0  0  0  0  0  0  0  0  0
   15.2286  -10.0324    9.2939 H   0  0  0  0  0  0  0  0  0  0  0  0
   14.4837   -7.7792   10.0493 H   0  0  0  0  0  0  0  0  0  0  0  0
   16.6429   -4.3797   12.4984 H   0  0  0  0  0  0  0  0  0  0  0  0
 21 20  2  0
 21 22  1  0
 20 19  1  0
 22 23  2  0
 19 18  2  0
 23 18  1  0
 23 24  1  0
 25 24  2  0
 18 17  1  0
 24 26  1  0
 17 16  2  0
 26 16  1  0
 16 15  1  0
 14 15  1  0
 14 12  1  0
 10  9  1  0
 11 12  1  0
 11  8  1  0
  9  8  1  0
 12 13  2  0
  8  7  1  0
  7  6  1  0
  1  6  2  0
  1  2  1  0
  6  5  1  0
  2  3  2  0
  5  4  2  0
  3  4  1  0
  1 27  1  0
  2 28  1  0
  3 29  1  0
  4 30  1  0
  5 31  1  0
  7 32  1  0
  7 33  1  0
  8 34  1  0
  9 35  1  0
  9 36  1  0
 10 37  1  0
 11 38  1  0
 14 39  1  0
 14 40  1  0
 15 41  1  0
 15 42  1  0
 19 43  1  0
 20 44  1  0
 21 45  1  0
 22 46  1  0
 26 47  1  0
A    1
CAI
A    2
CAE
A    3
CAD
A    4
CAF
A    5
CAJ
A    6
CAU
A    7
CAP
A    8
CAZ
A    9
CAM
A   10
OAC
A   11
NAR
A   12
CAT
A   13
OAA
A   14
CAN
A   15
CAO
A   16
CAV
A   17
NAQ
A   18
CAX
A   19
CAK
A   20
CAG
A   21
CAH
A   22
CAL
A   23
CAY
A   24
CAW
A   25
OAB
A   26
NAS
M  END
