4L9Q_9TP_A_601
     RDKit          3D

 78 85  0  0  0  0  0  0  0  0999 V2000
  -12.6120   -7.8700   13.0440 C   0  0  0  0  0  0  0  0  0  0  0  0
  -12.2670   -6.6080   12.5040 C   0  0  0  0  0  0  0  0  0  0  0  0
  -12.2570   -6.3840   11.0220 C   0  0  0  0  0  0  0  0  0  0  0  0
  -12.5950   -7.5010   10.1710 C   0  0  0  0  0  0  0  0  0  0  0  0
  -12.9680   -8.7940   10.7500 C   0  0  0  0  0  0  0  0  0  0  0  0
  -12.9740   -8.9960   12.1790 C   0  0  0  0  0  0  0  0  0  0  0  0
  -12.6090   -7.2300    8.5610 C   0  0  0  0  0  0  0  0  0  0  0  0
  -12.9960   -8.3920    7.7760 C   0  0  0  0  0  0  0  0  0  0  0  0
  -12.5140   -9.7350    8.4760 C   0  0  0  0  0  0  0  0  0  0  0  0
  -13.3590   -9.9370    9.7870 C   0  0  0  0  0  0  0  0  0  0  0  0
  -12.5400   -7.7690   14.4650 O   0  0  0  0  0  0  0  0  0  0  0  0
  -12.5370   -6.3460   14.7620 C   0  0  0  0  0  0  0  0  0  0  0  0
  -11.9760   -5.7320   13.6120 O   0  0  0  0  0  0  0  0  0  0  0  0
  -12.7990   -8.4960    6.5270 C   0  0  0  0  0  0  0  0  0  0  0  0
  -12.6490  -10.0780    6.3170 O   0  0  0  0  0  0  0  0  0  0  0  0
  -12.5560  -10.6770    7.6020 C   0  0  0  0  0  0  0  0  0  0  0  0
  -11.3590   -6.6120    7.9010 C   0  0  0  0  0  0  0  0  0  0  0  0
  -11.6200   -5.5020    7.1330 C   0  0  0  0  0  0  0  0  0  0  0  0
  -10.6050   -4.8310    6.4220 C   0  0  0  0  0  0  0  0  0  0  0  0
   -9.2540   -5.3300    6.5000 C   0  0  0  0  0  0  0  0  0  0  0  0
   -8.9880   -6.4440    7.2470 C   0  0  0  0  0  0  0  0  0  0  0  0
  -10.0300   -7.1230    7.9640 C   0  0  0  0  0  0  0  0  0  0  0  0
  -12.7660   -7.6550    5.6310 O   0  0  0  0  0  0  0  0  0  0  0  0
   -7.5880   -6.9280    7.2980 O   0  0  0  0  0  0  0  0  0  0  0  0
   -7.0180   -7.3240    6.0490 C   0  0  0  0  0  0  0  0  0  0  0  0
   -8.1810   -4.6810    5.7910 O   0  0  0  0  0  0  0  0  0  0  0  0
  -10.9990   -3.6600    5.6560 O   0  0  0  0  0  0  0  0  0  0  0  0
  -12.4000   -3.5360    5.4590 C   0  0  0  0  0  0  0  0  0  0  0  0
  -14.7210   -9.7640    9.4870 O   0  0  0  0  0  0  0  0  0  0  0  0
  -15.4100  -10.9030    9.5490 C   0  0  0  0  0  0  0  0  0  0  0  0
  -15.1590  -11.7700    8.3290 O   0  0  0  0  0  0  0  0  0  0  0  0
  -15.7030  -13.0990    8.6130 C   0  0  0  0  0  0  0  0  0  0  0  0
  -17.1820  -13.1510    8.6820 C   0  0  0  0  0  0  0  0  0  0  0  0
  -17.6900  -12.0880    9.7090 C   0  0  0  0  0  0  0  0  0  0  0  0
  -16.9440  -10.7190    9.5990 C   0  0  0  0  0  0  0  0  0  0  0  0
  -15.0900  -14.1340    7.7790 C   0  0  0  0  0  0  0  0  0  0  0  0
  -15.3190  -15.3420    8.5290 O   0  0  0  0  0  0  0  0  0  0  0  0
  -16.7750  -15.5970    8.4580 C   0  0  0  0  0  0  0  0  0  0  0  0
  -17.6820  -14.5240    8.9790 O   0  0  0  0  0  0  0  0  0  0  0  0
  -18.0970  -16.1660    8.9930 C   0  0  0  0  0  0  0  0  0  0  0  0
  -19.6630  -15.7360    8.6570 S   0  0  0  0  0  0  0  0  0  0  0  0
  -20.5060  -16.8590    9.5080 C   0  0  0  0  0  0  0  0  0  0  0  0
  -19.5760  -17.7780   10.1630 C   0  0  0  0  0  0  0  0  0  0  0  0
  -18.1150  -17.3720    9.8290 C   0  0  0  0  0  0  0  0  0  0  0  0
  -19.0900  -11.9120    9.6250 O   0  0  0  0  0  0  0  0  0  0  0  0
  -17.2610   -9.8380   10.6590 O   0  0  0  0  0  0  0  0  0  0  0  0
  -12.0009   -5.4023   10.5969 H   0  0  0  0  0  0  0  0  0  0  0  0
  -13.2439   -9.9720   12.6086 H   0  0  0  0  0  0  0  0  0  0  0  0
  -13.3786   -6.4445    8.5350 H   0  0  0  0  0  0  0  0  0  0  0  0
  -14.0792   -8.2003    7.7826 H   0  0  0  0  0  0  0  0  0  0  0  0
  -11.4690   -9.7157    8.8190 H   0  0  0  0  0  0  0  0  0  0  0  0
  -13.1790  -10.9349   10.2135 H   0  0  0  0  0  0  0  0  0  0  0  0
  -13.5618   -5.9844   14.9323 H   0  0  0  0  0  0  0  0  0  0  0  0
  -11.9662   -6.1153   15.6736 H   0  0  0  0  0  0  0  0  0  0  0  0
  -11.6422  -11.2860    7.6650 H   0  0  0  0  0  0  0  0  0  0  0  0
  -13.4228  -11.3294    7.7838 H   0  0  0  0  0  0  0  0  0  0  0  0
  -12.6520   -5.1264    7.0716 H   0  0  0  0  0  0  0  0  0  0  0  0
   -9.8060   -8.0244    8.5533 H   0  0  0  0  0  0  0  0  0  0  0  0
   -6.1272   -7.9428    6.2322 H   0  0  0  0  0  0  0  0  0  0  0  0
   -7.7564   -7.9046    5.4766 H   0  0  0  0  0  0  0  0  0  0  0  0
   -6.7315   -6.4294    5.4766 H   0  0  0  0  0  0  0  0  0  0  0  0
   -7.4512   -4.2396    6.2937 H   0  0  0  0  0  0  0  0  0  0  0  0
  -12.9050   -3.4913    6.4352 H   0  0  0  0  0  0  0  0  0  0  0  0
  -12.6109   -2.6157    4.8946 H   0  0  0  0  0  0  0  0  0  0  0  0
  -12.7692   -4.4050    4.8946 H   0  0  0  0  0  0  0  0  0  0  0  0
  -15.0559  -11.3627   10.4835 H   0  0  0  0  0  0  0  0  0  0  0  0
  -15.4040  -13.3373    9.6444 H   0  0  0  0  0  0  0  0  0  0  0  0
  -17.5945  -12.9001    7.6936 H   0  0  0  0  0  0  0  0  0  0  0  0
  -17.4522  -12.4929   10.7037 H   0  0  0  0  0  0  0  0  0  0  0  0
  -17.2925  -10.2734    8.6556 H   0  0  0  0  0  0  0  0  0  0  0  0
  -15.5752  -14.1843    6.7931 H   0  0  0  0  0  0  0  0  0  0  0  0
  -14.0249  -13.9486    7.5760 H   0  0  0  0  0  0  0  0  0  0  0  0
  -16.2583  -16.1517    7.6609 H   0  0  0  0  0  0  0  0  0  0  0  0
  -21.6027  -16.9120    9.5752 H   0  0  0  0  0  0  0  0  0  0  0  0
  -19.8675  -18.6286   10.7967 H   0  0  0  0  0  0  0  0  0  0  0  0
  -17.2198  -17.9121   10.1708 H   0  0  0  0  0  0  0  0  0  0  0  0
  -19.4719  -11.8640   10.5371 H   0  0  0  0  0  0  0  0  0  0  0  0
  -17.0981  -10.2907   11.5242 H   0  0  0  0  0  0  0  0  0  0  0  0
  1  2  1  0
  1  6  2  0
  1 11  1  0
  2  3  2  0
  2 13  1  0
  3  4  1  0
  4  5  2  0
  4  7  1  0
  5  6  1  0
  5 10  1  0
  7  8  1  0
  7 17  1  0
  8  9  1  0
  8 14  1  0
  9 10  1  0
  9 16  1  0
 10 29  1  0
 11 12  1  0
 12 13  1  0
 14 15  1  0
 14 23  2  0
 15 16  1  0
 17 18  2  0
 17 22  1  0
 18 19  1  0
 19 20  2  0
 19 27  1  0
 20 21  1  0
 20 26  1  0
 21 22  2  0
 21 24  1  0
 24 25  1  0
 27 28  1  0
 29 30  1  0
 30 31  1  0
 30 35  1  0
 31 32  1  0
 32 33  1  0
 32 36  1  0
 33 34  1  0
 33 39  1  0
 34 35  1  0
 34 45  1  0
 35 46  1  0
 36 37  1  0
 37 38  1  0
 38 39  1  0
 38 40  1  0
 40 41  1  0
 40 44  2  0
 41 42  1  0
 42 43  2  0
 43 44  1  0
  3 47  1  0
  6 48  1  0
  7 49  1  0
  8 50  1  0
  9 51  1  0
 10 52  1  0
 12 53  1  0
 12 54  1  0
 16 55  1  0
 16 56  1  0
 18 57  1  0
 22 58  1  0
 25 59  1  0
 25 60  1  0
 25 61  1  0
 26 62  1  0
 28 63  1  0
 28 64  1  0
 28 65  1  0
 30 66  1  0
 32 67  1  0
 33 68  1  0
 34 69  1  0
 35 70  1  0
 36 71  1  0
 36 72  1  0
 38 73  1  0
 42 74  1  0
 43 75  1  0
 44 76  1  0
 45 77  1  0
 46 78  1  0
A    1
C1
A    2
C2
A    3
C3
A    4
C4
A    5
C5
A    6
C6
A    7
C7
A    8
C8
A    9
C9
A   10
C10
A   11
O11
A   12
C12
A   13
O13
A   14
C14
A   15
O15
A   16
C16
A   17
C17
A   18
C18
A   19
C19
A   20
C20
A   21
C21
A   22
C22
A   23
O23
A   24
O24
A   25
C25
A   26
O26
A   27
O27
A   28
C28
A   29
O29
A   30
C30
A   31
O31
A   32
C32
A   33
C33
A   34
C34
A   35
C35
A   36
C36
A   37
O37
A   38
C38
A   39
O39
A   40
C40
A   41
S1
A   42
C42
A   43
C43
A   44
C44
A   45
O45
A   46
O46
M  END
