4LA6_LA6_A_503
     RDKit          3D

 39 38  0  0  0  0  0  0  0  0999 V2000
  -27.0270   35.2000    2.8870 C   0  0  0  0  0  0  0  0  0  0  0  0
  -28.3110   35.1700    3.5360 O   0  0  0  0  0  0  0  0  0  0  0  0
  -26.9790   33.9490    2.0460 C   0  0  0  0  0  0  0  0  0  0  0  0
  -27.3440   32.7820    2.6520 F   0  0  0  0  0  0  0  0  0  0  0  0
  -26.6460   33.9570    0.7760 C   0  0  0  0  0  0  0  0  0  0  0  0
  -26.6550   32.6450    0.0340 C   0  0  0  0  0  0  0  0  0  0  0  0
  -26.2400   35.2290    0.0740 C   0  0  0  0  0  0  0  0  0  0  0  0
  -24.6970   35.2970    0.0200 C   0  0  0  0  0  0  0  0  0  0  0  0
  -24.1900   34.1600   -0.8350 C   0  0  0  0  0  0  0  0  0  0  0  0
  -23.0730   33.4910   -0.6300 C   0  0  0  0  0  0  0  0  0  0  0  0
  -22.1290   33.8100    0.5080 C   0  0  0  0  0  0  0  0  0  0  0  0
  -29.0740   36.5720    3.3260 P   0  0  0  0  0  0  0  0  0  0  0  0
  -28.2040   38.2920    5.3590 P   0  0  0  0  0  0  0  0  0  0  0  0
  -22.7270   32.3780   -1.5850 C   0  0  0  0  0  0  0  0  0  0  0  0
  -29.2850   36.8090    1.8890 O   0  0  0  0  0  0  0  0  0  0  0  0
  -29.1540   37.6530    6.2690 O   0  0  0  0  0  0  0  0  0  0  0  0
  -30.5100   36.5470    4.0130 O   0  0  0  0  0  0  0  0  0  0  0  0
  -26.7420   38.1900    6.0150 O   0  0  0  0  0  0  0  0  0  0  0  0
  -28.1040   37.7520    3.8380 O   0  0  0  0  0  0  0  0  0  0  0  0
  -28.6230   39.8360    5.2190 O   0  0  0  0  0  0  0  0  0  0  0  0
  -26.2180   35.1949    3.6323 H   0  0  0  0  0  0  0  0  0  0  0  0
  -26.8942   36.1081    2.2806 H   0  0  0  0  0  0  0  0  0  0  0  0
  -26.6607   31.8153    0.7562 H   0  0  0  0  0  0  0  0  0  0  0  0
  -27.5536   32.5873   -0.5979 H   0  0  0  0  0  0  0  0  0  0  0  0
  -25.7573   32.5749   -0.5979 H   0  0  0  0  0  0  0  0  0  0  0  0
  -26.6463   35.2330   -0.9482 H   0  0  0  0  0  0  0  0  0  0  0  0
  -26.6337   36.0992    0.6197 H   0  0  0  0  0  0  0  0  0  0  0  0
  -24.3842   36.2566   -0.4174 H   0  0  0  0  0  0  0  0  0  0  0  0
  -24.2832   35.2144    1.0358 H   0  0  0  0  0  0  0  0  0  0  0  0
  -24.8032   33.8661   -1.6997 H   0  0  0  0  0  0  0  0  0  0  0  0
  -22.6394   33.6375    1.4671 H   0  0  0  0  0  0  0  0  0  0  0  0
  -21.2430   33.1613    0.4423 H   0  0  0  0  0  0  0  0  0  0  0  0
  -21.8181   34.8631    0.4423 H   0  0  0  0  0  0  0  0  0  0  0  0
  -22.4477   31.4795   -1.0152 H   0  0  0  0  0  0  0  0  0  0  0  0
  -23.5980   32.1544   -2.2185 H   0  0  0  0  0  0  0  0  0  0  0  0
  -21.8827   32.6876   -2.2185 H   0  0  0  0  0  0  0  0  0  0  0  0
  -28.8865   37.8330    7.2050 H   0  0  0  0  0  0  0  0  0  0  0  0
  -30.4049   36.5488    4.9974 H   0  0  0  0  0  0  0  0  0  0  0  0
  -26.8219   38.1956    7.0018 H   0  0  0  0  0  0  0  0  0  0  0  0
  3  1  1  0
  1  2  1  0
 12  2  1  0
  5  3  2  0
  3  4  1  0
  6  5  1  0
  7  5  1  0
  8  7  1  0
  9  8  1  0
  9 10  2  0
 14 10  1  0
 10 11  1  0
 15 12  2  0
 12 19  1  0
 12 17  1  0
 19 13  1  0
 20 13  2  0
 13 18  1  0
 13 16  1  0
  1 21  1  0
  1 22  1  0
  6 23  1  0
  6 24  1  0
  6 25  1  0
  7 26  1  0
  7 27  1  0
  8 28  1  0
  8 29  1  0
  9 30  1  0
 11 31  1  0
 11 32  1  0
 11 33  1  0
 14 34  1  0
 14 35  1  0
 14 36  1  0
 16 37  1  0
 17 38  1  0
 18 39  1  0
A    1
C1
A    2
O1
A    3
C2
A    4
F2
A    5
C3
A    6
C4
A    7
C5
A    8
C6
A    9
C7
A   10
C8
A   11
C9
A   12
PA
A   13
PB
A   14
C10
A   15
O1A
A   16
O1B
A   17
O2A
A   18
O2B
A   19
O3A
A   20
O3B
M  END
