4LAE_1VM_X_202
     RDKit          3D

 45 49  0  0  0  0  0  0  0  0999 V2000
   -2.8840   28.4920   -3.0380 N   0  0  0  0  0  0  0  0  0  0  0  0
   -4.0470   28.6250   -3.7030 C   0  0  0  0  0  0  0  0  0  0  0  0
   -4.9310   27.6020   -3.7790 N   0  0  0  0  0  0  0  0  0  0  0  0
   -4.3940   29.9040   -4.3790 C   0  0  0  0  0  0  0  0  0  0  0  0
   -5.6840   29.9620   -5.0910 C   0  0  0  0  0  0  0  0  0  0  0  0
   -6.4640   28.8490   -5.1030 N   0  0  0  0  0  0  0  0  0  0  0  0
   -6.1020   27.7050   -4.4610 C   0  0  0  0  0  0  0  0  0  0  0  0
   -6.9480   26.6360   -4.4870 N   0  0  0  0  0  0  0  0  0  0  0  0
   -3.5710   31.0200   -4.3620 C   0  0  0  0  0  0  0  0  0  0  0  0
   -4.0000   32.1750   -5.0260 C   0  0  0  0  0  0  0  0  0  0  0  0
   -5.2080   32.2880   -5.7290 C   0  0  0  0  0  0  0  0  0  0  0  0
   -6.0440   31.1510   -5.7330 C   0  0  0  0  0  0  0  0  0  0  0  0
   -5.5600   33.4600   -6.2860 N   0  0  0  0  0  0  0  0  0  0  0  0
   -6.5600   34.1760   -5.7420 C   0  0  0  0  0  0  0  0  0  0  0  0
   -7.4740   33.9850   -4.6960 C   0  0  0  0  0  0  0  0  0  0  0  0
   -8.4400   34.9610   -4.4330 C   0  0  0  0  0  0  0  0  0  0  0  0
   -9.4240   34.7490   -3.3030 C   0  0  0  0  0  0  0  0  0  0  0  0
   -8.4930   36.2050   -5.2630 C   0  0  0  0  0  0  0  0  0  0  0  0
   -9.5250   37.2770   -5.0020 C   0  0  0  0  0  0  0  0  0  0  0  0
   -7.5800   36.3890   -6.3060 C   0  0  0  0  0  0  0  0  0  0  0  0
   -6.6140   35.4180   -6.5750 C   0  0  0  0  0  0  0  0  0  0  0  0
   -5.6210   35.3320   -7.5060 N   0  0  0  0  0  0  0  0  0  0  0  0
   -5.0030   34.1500   -7.2800 C   0  0  0  0  0  0  0  0  0  0  0  0
   -3.8440   33.7250   -8.1080 C   0  0  0  0  0  0  0  0  0  0  0  0
   -3.2700   32.5090   -8.0780 N   0  0  0  0  0  0  0  0  0  0  0  0
   -2.2090   32.4450   -8.9480 C   0  0  0  0  0  0  0  0  0  0  0  0
   -1.9070   33.6080   -9.6620 C   0  0  0  0  0  0  0  0  0  0  0  0
   -3.0550   34.8120   -9.1890 S   0  0  0  0  0  0  0  0  0  0  0  0
   -2.8769   28.4912   -2.0080 H   0  0  0  0  0  0  0  0  0  0  0  0
   -2.0014   28.3911   -3.5592 H   0  0  0  0  0  0  0  0  0  0  0  0
   -7.2781   26.2189   -3.6050 H   0  0  0  0  0  0  0  0  0  0  0  0
   -7.2570   26.2456   -5.3887 H   0  0  0  0  0  0  0  0  0  0  0  0
   -2.6036   30.9980   -3.8389 H   0  0  0  0  0  0  0  0  0  0  0  0
   -3.3429   33.0566   -4.9941 H   0  0  0  0  0  0  0  0  0  0  0  0
   -7.0094   31.2017   -6.2578 H   0  0  0  0  0  0  0  0  0  0  0  0
   -7.4312   33.0713   -4.0850 H   0  0  0  0  0  0  0  0  0  0  0  0
   -8.9054   34.8607   -2.3394 H   0  0  0  0  0  0  0  0  0  0  0  0
  -10.2301   35.4941   -3.3741 H   0  0  0  0  0  0  0  0  0  0  0  0
   -9.8518   33.7381   -3.3741 H   0  0  0  0  0  0  0  0  0  0  0  0
   -9.6512   37.4081   -3.9172 H   0  0  0  0  0  0  0  0  0  0  0  0
   -9.1906   38.2246   -5.4494 H   0  0  0  0  0  0  0  0  0  0  0  0
  -10.4846   36.9788   -5.4494 H   0  0  0  0  0  0  0  0  0  0  0  0
   -7.6232   37.3027   -6.9170 H   0  0  0  0  0  0  0  0  0  0  0  0
   -1.6246   31.5220   -9.0767 H   0  0  0  0  0  0  0  0  0  0  0  0
   -1.0913   33.7340  -10.3892 H   0  0  0  0  0  0  0  0  0  0  0  0
 27 28  1  0
 27 26  2  0
 28 24  1  0
 26 25  1  0
 24 25  2  0
 24 23  1  0
 22 23  2  0
 22 21  1  0
 23 13  1  0
 21 20  2  0
 21 14  1  0
 20 18  1  0
 13 14  1  0
 13 11  1  0
 14 15  2  0
 12 11  2  0
 12  5  1  0
 11 10  1  0
 18 19  1  0
 18 16  2  0
  6  5  2  0
  6  7  1  0
  5  4  1  0
 10  9  2  0
 15 16  1  0
  8  7  1  0
  7  3  2  0
 16 17  1  0
  4  9  1  0
  4  2  2  0
  3  2  1  0
  2  1  1  0
  1 29  1  0
  1 30  1  0
  8 31  1  0
  8 32  1  0
  9 33  1  0
 10 34  1  0
 12 35  1  0
 15 36  1  0
 17 37  1  0
 17 38  1  0
 17 39  1  0
 19 40  1  0
 19 41  1  0
 19 42  1  0
 20 43  1  0
 26 44  1  0
 27 45  1  0
A    1
N11
A    2
C1
A    3
N2
A    4
C6
A    5
C5
A    6
N4
A    7
C3
A    8
N12
A    9
C7
A   10
C8
A   11
C9
A   12
C10
A   13
N13
A   14
C14
A   15
C18
A   16
C19
A   17
C22
A   18
C20
A   19
C23
A   20
C21
A   21
C15
A   22
N16
A   23
C17
A   24
C24
A   25
N25
A   26
C26
A   27
C27
A   28
S28
M  END
