4LAH_1VO_X_201
     RDKit          3D

 45 49  0  0  0  0  0  0  0  0999 V2000
   -6.8770   26.6790   -4.4480 N   0  0  0  0  0  0  0  0  0  0  0  0
   -6.0090   27.7220   -4.4080 C   0  0  0  0  0  0  0  0  0  0  0  0
   -4.8360   27.5840   -3.7370 N   0  0  0  0  0  0  0  0  0  0  0  0
   -6.3570   28.8770   -5.0360 N   0  0  0  0  0  0  0  0  0  0  0  0
   -5.5440   29.9640   -5.0210 C   0  0  0  0  0  0  0  0  0  0  0  0
   -5.8880   31.1550   -5.6530 C   0  0  0  0  0  0  0  0  0  0  0  0
   -5.0410   32.2820   -5.6520 C   0  0  0  0  0  0  0  0  0  0  0  0
   -3.8310   32.1520   -4.9620 C   0  0  0  0  0  0  0  0  0  0  0  0
   -3.4150   30.9890   -4.3070 C   0  0  0  0  0  0  0  0  0  0  0  0
   -4.2560   29.8800   -4.3180 C   0  0  0  0  0  0  0  0  0  0  0  0
   -3.9350   28.5880   -3.6560 C   0  0  0  0  0  0  0  0  0  0  0  0
   -2.7740   28.4240   -3.0020 N   0  0  0  0  0  0  0  0  0  0  0  0
   -5.4180   33.4350   -6.2280 N   0  0  0  0  0  0  0  0  0  0  0  0
   -4.9190   34.0790   -7.2840 C   0  0  0  0  0  0  0  0  0  0  0  0
   -3.7420   33.6790   -8.1160 C   0  0  0  0  0  0  0  0  0  0  0  0
   -3.1410   32.4580   -7.9750 N   0  0  0  0  0  0  0  0  0  0  0  0
   -2.0680   32.2960   -8.7900 C   0  0  0  0  0  0  0  0  0  0  0  0
   -1.9090   33.7900   -9.6640 S   0  0  0  0  0  0  0  0  0  0  0  0
   -3.2360   34.6420   -8.9920 C   0  0  0  0  0  0  0  0  0  0  0  0
   -5.5800   35.2370   -7.5260 N   0  0  0  0  0  0  0  0  0  0  0  0
   -6.5610   35.3250   -6.5820 C   0  0  0  0  0  0  0  0  0  0  0  0
   -7.5590   36.2670   -6.3190 C   0  0  0  0  0  0  0  0  0  0  0  0
   -8.4420   36.0860   -5.2460 C   0  0  0  0  0  0  0  0  0  0  0  0
   -9.5110   37.1240   -4.9900 C   0  0  0  0  0  0  0  0  0  0  0  0
   -8.3220   34.8750   -4.3730 C   0  0  0  0  0  0  0  0  0  0  0  0
   -9.2640   34.6570   -3.2140 C   0  0  0  0  0  0  0  0  0  0  0  0
   -7.3230   33.9310   -4.6260 C   0  0  0  0  0  0  0  0  0  0  0  0
   -6.4410   34.1220   -5.7020 C   0  0  0  0  0  0  0  0  0  0  0  0
   -7.2231   26.2631   -3.5716 H   0  0  0  0  0  0  0  0  0  0  0  0
   -7.1895   26.3035   -5.3548 H   0  0  0  0  0  0  0  0  0  0  0  0
   -6.8557   31.2195   -6.1721 H   0  0  0  0  0  0  0  0  0  0  0  0
   -3.1613   33.0242   -4.9328 H   0  0  0  0  0  0  0  0  0  0  0  0
   -2.4430   30.9512   -3.7935 H   0  0  0  0  0  0  0  0  0  0  0  0
   -2.7589   28.4219   -1.9721 H   0  0  0  0  0  0  0  0  0  0  0  0
   -1.8984   28.3003   -3.5302 H   0  0  0  0  0  0  0  0  0  0  0  0
   -1.4308   31.4038   -8.8790 H   0  0  0  0  0  0  0  0  0  0  0  0
   -3.5905   35.6634   -9.1944 H   0  0  0  0  0  0  0  0  0  0  0  0
   -7.6522   37.1570   -6.9588 H   0  0  0  0  0  0  0  0  0  0  0  0
   -9.6443   37.2534   -3.9058 H   0  0  0  0  0  0  0  0  0  0  0  0
   -9.2076   38.0813   -5.4390 H   0  0  0  0  0  0  0  0  0  0  0  0
  -10.4589   36.7926   -5.4390 H   0  0  0  0  0  0  0  0  0  0  0  0
   -8.7170   34.7836   -2.2681 H   0  0  0  0  0  0  0  0  0  0  0  0
  -10.0833   35.3893   -3.2646 H   0  0  0  0  0  0  0  0  0  0  0  0
   -9.6783   33.6392   -3.2646 H   0  0  0  0  0  0  0  0  0  0  0  0
   -7.2280   33.0421   -3.9850 H   0  0  0  0  0  0  0  0  0  0  0  0
 18 19  1  0
 18 17  1  0
 19 15  2  0
 17 16  2  0
 15 16  1  0
 15 14  1  0
 20 14  2  0
 20 21  1  0
 14 13  1  0
 21 22  2  0
 21 28  1  0
 22 23  1  0
 13 28  1  0
 13  7  1  0
 28 27  2  0
  6  7  1  0
  6  5  2  0
  7  8  2  0
 23 24  1  0
 23 25  2  0
  4  5  1  0
  4  2  2  0
  5 10  1  0
  8  9  1  0
 27 25  1  0
  1  2  1  0
  2  3  1  0
 25 26  1  0
 10  9  2  0
 10 11  1  0
  3 11  2  0
 11 12  1  0
  1 29  1  0
  1 30  1  0
  6 31  1  0
  8 32  1  0
  9 33  1  0
 12 34  1  0
 12 35  1  0
 17 36  1  0
 19 37  1  0
 22 38  1  0
 24 39  1  0
 24 40  1  0
 24 41  1  0
 26 42  1  0
 26 43  1  0
 26 44  1  0
 27 45  1  0
A    1
N12
A    2
C3
A    3
N2
A    4
N4
A    5
C5
A    6
C10
A    7
C9
A    8
C8
A    9
C7
A   10
C6
A   11
C1
A   12
N11
A   13
N13
A   14
C17
A   15
C22
A   16
N26
A   17
C25
A   18
S24
A   19
C23
A   20
N16
A   21
C15
A   22
C21
A   23
C20
A   24
C28
A   25
C19
A   26
C27
A   27
C18
A   28
C14
M  END
