4LAP_1VT_A_401
     RDKit          3D

 61 64  0  0  0  0  0  0  0  0999 V2000
   -2.2270    6.6280    7.7380 C   0  0  0  0  0  0  0  0  0  0  0  0
   -1.7010    6.0000    8.9580 C   0  0  0  0  0  0  0  0  0  0  0  0
   -1.9540    6.5750   10.0360 O   0  0  0  0  0  0  0  0  0  0  0  0
   -1.0360    4.8160    8.8210 N   0  0  0  0  0  0  0  0  0  0  0  0
   -0.4890    4.0750    9.9670 C   0  0  0  0  0  0  0  0  0  0  0  0
   -1.4600    2.9380   10.3240 C   0  0  0  0  0  0  0  0  0  0  0  0
   -2.7050    3.2330   10.8940 C   0  0  0  0  0  0  0  0  0  0  0  0
   -3.6050    2.2120   11.2360 C   0  0  0  0  0  0  0  0  0  0  0  0
   -3.2610    0.8940   10.9760 C   0  0  0  0  0  0  0  0  0  0  0  0
   -2.0280    0.5790   10.4010 C   0  0  0  0  0  0  0  0  0  0  0  0
   -1.1200    1.5950   10.0900 C   0  0  0  0  0  0  0  0  0  0  0  0
   -3.2110    6.0690    7.0330 C   0  0  0  0  0  0  0  0  0  0  0  0
   -3.8310    4.8690    7.2380 N   0  0  0  0  0  0  0  0  0  0  0  0
   -3.8750    3.7820    6.4140 C   0  0  0  0  0  0  0  0  0  0  0  0
   -3.2990    3.7740    5.2960 O   0  0  0  0  0  0  0  0  0  0  0  0
   -4.6480    2.5790    6.7520 C   0  0  0  0  0  0  0  0  0  0  0  0
   -3.6750    1.4080    6.7840 C   0  0  0  0  0  0  0  0  0  0  0  0
   -4.4300    0.1750    7.0580 N   0  0  0  0  0  0  0  0  0  0  0  0
   -5.2310   -0.1420    5.8590 C   0  0  0  0  0  0  0  0  0  0  0  0
   -6.4210   -1.0580    6.0640 C   0  0  0  0  0  0  0  0  0  0  0  0
   -6.4480   -2.1030    6.9900 C   0  0  0  0  0  0  0  0  0  0  0  0
   -7.6090   -2.8740    7.0890 C   0  0  0  0  0  0  0  0  0  0  0  0
   -8.7160   -2.6220    6.2710 C   0  0  0  0  0  0  0  0  0  0  0  0
   -8.6800   -1.5660    5.3520 C   0  0  0  0  0  0  0  0  0  0  0  0
   -7.5290   -0.7890    5.2530 C   0  0  0  0  0  0  0  0  0  0  0  0
   -3.7060    7.0660    5.6380 S   0  0  0  0  0  0  0  0  0  0  0  0
   -2.5070    8.2970    6.0940 C   0  0  0  0  0  0  0  0  0  0  0  0
   -1.8310    7.9410    7.1930 C   0  0  0  0  0  0  0  0  0  0  0  0
   -0.7720    8.8200    7.7950 C   0  0  0  0  0  0  0  0  0  0  0  0
   -1.0150   10.1940    7.9720 C   0  0  0  0  0  0  0  0  0  0  0  0
   -0.0250   10.9940    8.5360 C   0  0  0  0  0  0  0  0  0  0  0  0
    1.2100   10.4460    8.8860 C   0  0  0  0  0  0  0  0  0  0  0  0
    1.4450    9.0800    8.7060 C   0  0  0  0  0  0  0  0  0  0  0  0
    0.4580    8.2630    8.1510 C   0  0  0  0  0  0  0  0  0  0  0  0
   -0.9123    4.4256    7.8759 H   0  0  0  0  0  0  0  0  0  0  0  0
    0.4925    3.6548    9.7023 H   0  0  0  0  0  0  0  0  0  0  0  0
   -0.3673    4.7495   10.8274 H   0  0  0  0  0  0  0  0  0  0  0  0
   -2.9817    4.2819   11.0765 H   0  0  0  0  0  0  0  0  0  0  0  0
   -4.5706    2.4540   11.7041 H   0  0  0  0  0  0  0  0  0  0  0  0
   -3.9669    0.0881   11.2253 H   0  0  0  0  0  0  0  0  0  0  0  0
   -1.7711   -0.4701   10.1926 H   0  0  0  0  0  0  0  0  0  0  0  0
   -0.1386    1.3430    9.6618 H   0  0  0  0  0  0  0  0  0  0  0  0
   -4.3315    4.7718    8.1330 H   0  0  0  0  0  0  0  0  0  0  0  0
   -5.1223    2.7010    7.7370 H   0  0  0  0  0  0  0  0  0  0  0  0
   -5.4413    2.4053    6.0100 H   0  0  0  0  0  0  0  0  0  0  0  0
   -3.1665    1.3225    5.8123 H   0  0  0  0  0  0  0  0  0  0  0  0
   -2.9212    1.5683    7.5689 H   0  0  0  0  0  0  0  0  0  0  0  0
   -5.0518    0.3177    7.8667 H   0  0  0  0  0  0  0  0  0  0  0  0
   -4.5630   -0.6204    5.1276 H   0  0  0  0  0  0  0  0  0  0  0  0
   -5.6556    0.8180    5.5301 H   0  0  0  0  0  0  0  0  0  0  0  0
   -5.5759   -2.3141    7.6263 H   0  0  0  0  0  0  0  0  0  0  0  0
   -7.6536   -3.6928    7.8222 H   0  0  0  0  0  0  0  0  0  0  0  0
   -9.6137   -3.2528    6.3498 H   0  0  0  0  0  0  0  0  0  0  0  0
   -9.5514   -1.3528    4.7154 H   0  0  0  0  0  0  0  0  0  0  0  0
   -7.4904    0.0415    4.5327 H   0  0  0  0  0  0  0  0  0  0  0  0
   -2.3414    9.2340    5.5420 H   0  0  0  0  0  0  0  0  0  0  0  0
   -1.9772   10.6319    7.6680 H   0  0  0  0  0  0  0  0  0  0  0  0
   -0.2171   12.0636    8.7067 H   0  0  0  0  0  0  0  0  0  0  0  0
    1.9985   11.0893    9.3036 H   0  0  0  0  0  0  0  0  0  0  0  0
    2.4115    8.6468    9.0028 H   0  0  0  0  0  0  0  0  0  0  0  0
    0.6476    7.1907    7.9957 H   0  0  0  0  0  0  0  0  0  0  0  0
 25 24  2  0
 25 20  1  0
 15 14  2  0
 24 23  1  0
 26 27  1  0
 26 12  1  0
 19 20  1  0
 19 18  1  0
 20 21  2  0
 27 28  2  0
 23 22  2  0
 14 16  1  0
 14 13  1  0
 16 17  1  0
 17 18  1  0
 21 22  1  0
 12 13  1  0
 12  1  2  0
 28  1  1  0
 28 29  1  0
  1  2  1  0
 29 30  2  0
 29 34  1  0
 30 31  1  0
 34 33  2  0
 31 32  2  0
 33 32  1  0
  4  2  1  0
  4  5  1  0
  2  3  2  0
  5  6  1  0
 11  6  1  0
 11 10  2  0
  6  7  2  0
 10  9  1  0
  7  8  1  0
  9  8  2  0
  4 35  1  0
  5 36  1  0
  5 37  1  0
  7 38  1  0
  8 39  1  0
  9 40  1  0
 10 41  1  0
 11 42  1  0
 13 43  1  0
 16 44  1  0
 16 45  1  0
 17 46  1  0
 17 47  1  0
 18 48  1  0
 19 49  1  0
 19 50  1  0
 21 51  1  0
 22 52  1  0
 23 53  1  0
 24 54  1  0
 25 55  1  0
 27 56  1  0
 30 57  1  0
 31 58  1  0
 32 59  1  0
 33 60  1  0
 34 61  1  0
A    1
C01
A    2
C02
A    3
O01
A    4
N01
A    5
C1
A    6
C03
A    7
C04
A    8
C05
A    9
C06
A   10
C07
A   11
C08
A   12
C09
A   13
N
A   14
C10
A   15
O
A   16
C11
A   17
C2
A   18
N23
A   19
C25
A   20
C12
A   21
C13
A   22
C14
A   23
C15
A   24
C16
A   25
C17
A   26
S
A   27
C18
A   28
C19
A   29
C20
A   30
C21
A   31
C22
A   32
C23
A   33
C24
A   34
C
M  END
