1BKF_FK5_A_108
     RDKit          3D

126129  0  0  0  0  0  0  0  0999 V2000
   20.1290   28.9960   22.0500 C   0  0  0  0  0  0  0  0  0  0  0  0
   18.6790   29.4680   22.4420 C   0  0  0  0  0  0  0  0  0  0  0  0
   17.9170   29.4490   21.0910 C   0  0  0  0  0  0  0  0  0  0  0  0
   18.3800   30.6410   20.2680 C   0  0  0  0  0  0  0  0  0  0  0  0
   18.3060   32.0670   20.8940 C   0  0  0  0  0  0  0  0  0  0  0  0
   19.0760   31.9520   22.1820 C   0  0  0  0  0  0  0  0  0  0  0  0
   18.2710   30.8750   24.3160 C   0  0  0  0  0  0  0  0  0  0  0  0
   17.7910   32.1500   24.9880 C   0  0  0  0  0  0  0  0  0  0  0  0
   18.8680   32.6770   25.9760 C   0  0  0  0  0  0  0  0  0  0  0  0
   19.3180   31.5590   26.8960 C   0  0  0  0  0  0  0  0  0  0  0  0
   20.5600   32.0430   27.6590 C   0  0  0  0  0  0  0  0  0  0  0  0
   21.6030   32.4190   26.6530 C   0  0  0  0  0  0  0  0  0  0  0  0
   21.0740   33.5910   25.8190 C   0  0  0  0  0  0  0  0  0  0  0  0
   22.1110   34.1470   24.8630 C   0  0  0  0  0  0  0  0  0  0  0  0
   22.3100   35.6150   25.1970 C   0  0  0  0  0  0  0  0  0  0  0  0
   23.7470   35.9900   25.5250 C   0  0  0  0  0  0  0  0  0  0  0  0
   24.9540   35.0300   25.3530 C   0  0  0  0  0  0  0  0  0  0  0  0
   25.7090   34.5270   24.0940 C   0  0  0  0  0  0  0  0  0  0  0  0
   26.3760   33.4580   24.3680 C   0  0  0  0  0  0  0  0  0  0  0  0
   27.2790   32.5660   23.5880 C   0  0  0  0  0  0  0  0  0  0  0  0
   26.5770   31.2040   23.4930 C   0  0  0  0  0  0  0  0  0  0  0  0
   25.6900   31.1650   22.2550 C   0  0  0  0  0  0  0  0  0  0  0  0
   24.7500   29.9270   22.1880 C   0  0  0  0  0  0  0  0  0  0  0  0
   23.3270   30.3190   22.3690 C   0  0  0  0  0  0  0  0  0  0  0  0
   22.4400   29.1480   22.5900 C   0  0  0  0  0  0  0  0  0  0  0  0
   22.9310   28.2540   23.6490 C   0  0  0  0  0  0  0  0  0  0  0  0
   23.1540   26.9850   23.2570 C   0  0  0  0  0  0  0  0  0  0  0  0
   23.6920   25.8890   24.0480 C   0  0  0  0  0  0  0  0  0  0  0  0
   22.7240   24.7080   24.1560 C   0  0  0  0  0  0  0  0  0  0  0  0
   23.4670   23.5110   24.8430 C   0  0  0  0  0  0  0  0  0  0  0  0
   24.7500   23.1470   24.1510 C   0  0  0  0  0  0  0  0  0  0  0  0
   25.6830   24.2820   24.0230 C   0  0  0  0  0  0  0  0  0  0  0  0
   25.0430   25.5610   23.4260 C   0  0  0  0  0  0  0  0  0  0  0  0
   18.2190   31.0710   27.8530 C   0  0  0  0  0  0  0  0  0  0  0  0
   23.6080   36.2900   26.9970 C   0  0  0  0  0  0  0  0  0  0  0  0
   25.7410   35.1270   22.7240 C   0  0  0  0  0  0  0  0  0  0  0  0
   28.6530   32.4910   24.4310 C   0  0  0  0  0  0  0  0  0  0  0  0
   28.7900   32.9820   25.7620 C   0  0  0  0  0  0  0  0  0  0  0  0
   29.3550   33.8100   26.2370 C   0  0  0  0  0  0  0  0  0  0  0  0
   22.9070   31.2460   21.1700 C   0  0  0  0  0  0  0  0  0  0  0  0
   22.7170   28.7730   25.0900 C   0  0  0  0  0  0  0  0  0  0  0  0
   23.7690   31.7400   27.2750 C   0  0  0  0  0  0  0  0  0  0  0  0
   21.7820   35.0940   22.4130 C   0  0  0  0  0  0  0  0  0  0  0  0
   21.9820   22.1800   26.0710 C   0  0  0  0  0  0  0  0  0  0  0  0
   18.8000   30.8010   23.1200 N   0  0  0  0  0  0  0  0  0  0  0  0
   21.0420   29.7160   22.6020 O   0  0  0  0  0  0  0  0  0  0  0  0
   20.3220   28.0000   21.5190 O   0  0  0  0  0  0  0  0  0  0  0  0
   17.8550   29.8120   24.9040 O   0  0  0  0  0  0  0  0  0  0  0  0
   16.8440   32.8860   24.7640 O   0  0  0  0  0  0  0  0  0  0  0  0
   19.8830   33.1500   25.0840 O   0  0  0  0  0  0  0  0  0  0  0  0
   18.3210   33.8280   26.5470 O   0  0  0  0  0  0  0  0  0  0  0  0
   22.8480   32.8360   27.2630 O   0  0  0  0  0  0  0  0  0  0  0  0
   21.8240   34.0550   23.4080 O   0  0  0  0  0  0  0  0  0  0  0  0
   26.3580   30.4090   24.3890 O   0  0  0  0  0  0  0  0  0  0  0  0
   25.1150   29.2990   20.9020 O   0  0  0  0  0  0  0  0  0  0  0  0
   22.5300   22.4580   24.8980 O   0  0  0  0  0  0  0  0  0  0  0  0
   25.4130   22.0710   24.9500 O   0  0  0  0  0  0  0  0  0  0  0  0
   18.1282   28.8460   23.1629 H   0  0  0  0  0  0  0  0  0  0  0  0
   18.1378   28.5159   20.5519 H   0  0  0  0  0  0  0  0  0  0  0  0
   16.8324   29.5058   21.2655 H   0  0  0  0  0  0  0  0  0  0  0  0
   19.4319   30.4600   20.0022 H   0  0  0  0  0  0  0  0  0  0  0  0
   17.6622   30.6811   19.4354 H   0  0  0  0  0  0  0  0  0  0  0  0
   18.7706   32.8089   20.2279 H   0  0  0  0  0  0  0  0  0  0  0  0
   17.2702   32.4011   21.0536 H   0  0  0  0  0  0  0  0  0  0  0  0
   20.1410   31.8953   21.9127 H   0  0  0  0  0  0  0  0  0  0  0  0
   18.7490   32.8324   22.7547 H   0  0  0  0  0  0  0  0  0  0  0  0
   19.5613   30.6792   26.2822 H   0  0  0  0  0  0  0  0  0  0  0  0
   20.3027   32.9175   28.2747 H   0  0  0  0  0  0  0  0  0  0  0  0
   20.9358   31.2487   28.3207 H   0  0  0  0  0  0  0  0  0  0  0  0
   21.8054   31.5270   26.0419 H   0  0  0  0  0  0  0  0  0  0  0  0
   20.8190   34.4100   26.5076 H   0  0  0  0  0  0  0  0  0  0  0  0
   22.9946   33.5098   25.0154 H   0  0  0  0  0  0  0  0  0  0  0  0
   21.9862   36.2126   24.3321 H   0  0  0  0  0  0  0  0  0  0  0  0
   21.7162   35.8171   26.1006 H   0  0  0  0  0  0  0  0  0  0  0  0
   24.0422   36.7490   24.7856 H   0  0  0  0  0  0  0  0  0  0  0  0
   25.7443   35.4974   25.9587 H   0  0  0  0  0  0  0  0  0  0  0  0
   24.4012   34.0990   25.5469 H   0  0  0  0  0  0  0  0  0  0  0  0
   26.2501   33.1317   25.4109 H   0  0  0  0  0  0  0  0  0  0  0  0
   27.4988   32.9133   22.5676 H   0  0  0  0  0  0  0  0  0  0  0  0
   25.0681   32.0723   22.2465 H   0  0  0  0  0  0  0  0  0  0  0  0
   26.3605   31.1026   21.3852 H   0  0  0  0  0  0  0  0  0  0  0  0
   24.8717   29.1964   23.0013 H   0  0  0  0  0  0  0  0  0  0  0  0
   23.2102   30.9013   23.2949 H   0  0  0  0  0  0  0  0  0  0  0  0
   22.4337   28.3860   21.7967 H   0  0  0  0  0  0  0  0  0  0  0  0
   22.8987   26.7489   22.2134 H   0  0  0  0  0  0  0  0  0  0  0  0
   23.8298   26.1684   25.1030 H   0  0  0  0  0  0  0  0  0  0  0  0
   21.8518   24.9982   24.7602 H   0  0  0  0  0  0  0  0  0  0  0  0
   22.3814   24.4111   23.1538 H   0  0  0  0  0  0  0  0  0  0  0  0
   23.8022   23.7763   25.8565 H   0  0  0  0  0  0  0  0  0  0  0  0
   24.5006   22.8188   23.1312 H   0  0  0  0  0  0  0  0  0  0  0  0
   26.0718   24.5244   25.0230 H   0  0  0  0  0  0  0  0  0  0  0  0
   26.4732   23.9668   23.3257 H   0  0  0  0  0  0  0  0  0  0  0  0
   24.9058   25.4137   22.3446 H   0  0  0  0  0  0  0  0  0  0  0  0
   25.7196   26.4015   23.6401 H   0  0  0  0  0  0  0  0  0  0  0  0
   18.5470   31.2167   28.8928 H   0  0  0  0  0  0  0  0  0  0  0  0
   17.2972   31.6444   27.6756 H   0  0  0  0  0  0  0  0  0  0  0  0
   18.0262   30.0027   27.6756 H   0  0  0  0  0  0  0  0  0  0  0  0
   23.9996   35.4448   27.5820 H   0  0  0  0  0  0  0  0  0  0  0  0
   24.1764   37.1996   27.2411 H   0  0  0  0  0  0  0  0  0  0  0  0
   22.5466   36.4444   27.2411 H   0  0  0  0  0  0  0  0  0  0  0  0
   25.7994   36.2225   22.8048 H   0  0  0  0  0  0  0  0  0  0  0  0
   26.6204   34.7520   22.1799 H   0  0  0  0  0  0  0  0  0  0  0  0
   24.8267   34.8477   22.1799 H   0  0  0  0  0  0  0  0  0  0  0  0
   28.9198   31.4248   24.4756 H   0  0  0  0  0  0  0  0  0  0  0  0
   29.2830   33.2015   23.8757 H   0  0  0  0  0  0  0  0  0  0  0  0
   28.1972   32.4054   26.4873 H   0  0  0  0  0  0  0  0  0  0  0  0
   29.2807   33.9751   27.3220 H   0  0  0  0  0  0  0  0  0  0  0  0
   29.9896   34.4660   25.6230 H   0  0  0  0  0  0  0  0  0  0  0  0
   22.4828   32.1823   21.5616 H   0  0  0  0  0  0  0  0  0  0  0  0
   23.7903   31.4727   20.5549 H   0  0  0  0  0  0  0  0  0  0  0  0
   22.1541   30.7314   20.5549 H   0  0  0  0  0  0  0  0  0  0  0  0
   23.0346   28.0027   25.8081 H   0  0  0  0  0  0  0  0  0  0  0  0
   23.3124   29.6851   25.2434 H   0  0  0  0  0  0  0  0  0  0  0  0
   21.6517   29.0004   25.2434 H   0  0  0  0  0  0  0  0  0  0  0  0
   23.9993   31.4660   28.3151 H   0  0  0  0  0  0  0  0  0  0  0  0
   23.3201   30.8782   26.7595 H   0  0  0  0  0  0  0  0  0  0  0  0
   24.6953   32.0338   26.7595 H   0  0  0  0  0  0  0  0  0  0  0  0
   21.7423   36.0751   22.9088 H   0  0  0  0  0  0  0  0  0  0  0  0
   22.6832   35.0368   21.7848 H   0  0  0  0  0  0  0  0  0  0  0  0
   20.8884   34.9642   21.7848 H   0  0  0  0  0  0  0  0  0  0  0  0
   22.6495   22.5186   26.8770 H   0  0  0  0  0  0  0  0  0  0  0  0
   21.0143   22.6962   26.1552 H   0  0  0  0  0  0  0  0  0  0  0  0
   21.8270   21.0942   26.1552 H   0  0  0  0  0  0  0  0  0  0  0  0
   18.3556   33.7553   27.5337 H   0  0  0  0  0  0  0  0  0  0  0  0
   25.6049   28.4560   21.0737 H   0  0  0  0  0  0  0  0  0  0  0  0
   25.2977   22.2582   25.9153 H   0  0  0  0  0  0  0  0  0  0  0  0
  1  2  1  0
  1 46  1  0
  1 47  2  0
  2  3  1  0
  2 45  1  0
  3  4  1  0
  4  5  1  0
  5  6  1  0
  6 45  1  0
  7  8  1  0
  7 45  1  0
  7 48  2  0
  8  9  1  0
  8 49  2  0
  9 10  1  0
  9 50  1  0
  9 51  1  0
 10 11  1  0
 10 34  1  0
 11 12  1  0
 12 13  1  0
 12 52  1  0
 13 14  1  0
 13 50  1  0
 14 15  1  0
 14 53  1  0
 15 16  1  0
 16 17  1  0
 16 35  1  0
 17 18  1  0
 18 19  2  0
 18 36  1  0
 19 20  1  0
 20 21  1  0
 20 37  1  0
 21 22  1  0
 21 54  2  0
 22 23  1  0
 23 24  1  0
 23 55  1  0
 24 25  1  0
 24 40  1  0
 25 26  1  0
 25 46  1  0
 26 27  2  0
 26 41  1  0
 27 28  1  0
 28 29  1  0
 28 33  1  0
 29 30  1  0
 30 31  1  0
 30 56  1  0
 31 32  1  0
 31 57  1  0
 32 33  1  0
 37 38  1  0
 38 39  2  3
 42 52  1  0
 43 53  1  0
 44 56  1  0
  2 58  1  0
  3 59  1  0
  3 60  1  0
  4 61  1  0
  4 62  1  0
  5 63  1  0
  5 64  1  0
  6 65  1  0
  6 66  1  0
 10 67  1  0
 11 68  1  0
 11 69  1  0
 12 70  1  0
 13 71  1  0
 14 72  1  0
 15 73  1  0
 15 74  1  0
 16 75  1  0
 17 76  1  0
 17 77  1  0
 19 78  1  0
 20 79  1  0
 22 80  1  0
 22 81  1  0
 23 82  1  0
 24 83  1  0
 25 84  1  0
 27 85  1  0
 28 86  1  0
 29 87  1  0
 29 88  1  0
 30 89  1  0
 31 90  1  0
 32 91  1  0
 32 92  1  0
 33 93  1  0
 33 94  1  0
 34 95  1  0
 34 96  1  0
 34 97  1  0
 35 98  1  0
 35 99  1  0
 35100  1  0
 36101  1  0
 36102  1  0
 36103  1  0
 37104  1  0
 37105  1  0
 38106  1  0
 39107  1  0
 39108  1  0
 40109  1  0
 40110  1  0
 40111  1  0
 41112  1  0
 41113  1  0
 41114  1  0
 42115  1  0
 42116  1  0
 42117  1  0
 43118  1  0
 43119  1  0
 43120  1  0
 44121  1  0
 44122  1  0
 44123  1  0
 51124  1  0
 55125  1  0
 57126  1  0
A    1
C1
A    2
C2
A    3
C3
A    4
C4
A    5
C5
A    6
C6
A    7
C8
A    8
C9
A    9
C10
A   10
C11
A   11
C12
A   12
C13
A   13
C14
A   14
C15
A   15
C16
A   16
C17
A   17
C18
A   18
C19
A   19
C20
A   20
C21
A   21
C22
A   22
C23
A   23
C24
A   24
C25
A   25
C26
A   26
C27
A   27
C28
A   28
C29
A   29
C30
A   30
C31
A   31
C32
A   32
C33
A   33
C34
A   34
C35
A   35
C36
A   36
C37
A   37
C38
A   38
C39
A   39
C40
A   40
C41
A   41
C42
A   42
C43
A   43
C44
A   44
C45
A   45
N7
A   46
O1
A   47
O2
A   48
O3
A   49
O4
A   50
O5
A   51
O6
A   52
O7
A   53
O8
A   54
O9
A   55
O10
A   56
O11
A   57
O12
M  END
