4LBS_4O8_A_402
     RDKit          3D

 36 37  0  0  0  0  0  0  0  0999 V2000
    8.1500   -5.6260    6.6740 O   0  0  0  0  0  0  0  0  0  0  0  0
    7.9800   -5.8060    5.4460 C   0  0  0  0  0  0  0  0  0  0  0  0
    8.7290   -5.3870    4.5280 O   0  0  0  0  0  0  0  0  0  0  0  0
    6.7630   -6.5850    4.9730 C   0  0  0  0  0  0  0  0  0  0  0  0
    6.2180   -7.3110    6.0630 O   0  0  0  0  0  0  0  0  0  0  0  0
    6.8520   -8.4270    6.5160 C   0  0  0  0  0  0  0  0  0  0  0  0
    7.7140   -9.1650    5.7150 C   0  0  0  0  0  0  0  0  0  0  0  0
    8.2710  -10.3210    6.2220 C   0  0  0  0  0  0  0  0  0  0  0  0
    9.3610  -11.2440    5.2020 Cl  0  0  0  0  0  0  0  0  0  0  0  0
    8.0110  -10.7790    7.4980 C   0  0  0  0  0  0  0  0  0  0  0  0
    7.1490  -10.0310    8.2800 C   0  0  0  0  0  0  0  0  0  0  0  0
    6.5550   -8.8710    7.8100 C   0  0  0  0  0  0  0  0  0  0  0  0
    5.7120   -8.0980    8.7780 C   0  0  0  0  0  0  0  0  0  0  0  0
    5.1480   -8.6510    9.7120 O   0  0  0  0  0  0  0  0  0  0  0  0
    5.7260   -6.7740    8.6580 N   0  0  0  0  0  0  0  0  0  0  0  0
    5.0750   -5.8990    9.6130 C   0  0  0  0  0  0  0  0  0  0  0  0
    6.0390   -5.4600   10.7180 C   0  0  0  0  0  0  0  0  0  0  0  0
    5.5890   -4.3720   11.5560 C   0  0  0  0  0  0  0  0  0  0  0  0
    4.3660   -3.8940   11.3500 F   0  0  0  0  0  0  0  0  0  0  0  0
    7.3270   -5.9230   10.9430 C   0  0  0  0  0  0  0  0  0  0  0  0
    7.8480   -6.9030   10.2260 F   0  0  0  0  0  0  0  0  0  0  0  0
    8.1360   -5.3950   11.9240 C   0  0  0  0  0  0  0  0  0  0  0  0
    7.6200   -4.3800   12.6710 C   0  0  0  0  0  0  0  0  0  0  0  0
    8.8590   -3.5380   13.9430 Br  0  0  0  0  0  0  0  0  0  0  0  0
    6.3770   -3.8380   12.5380 C   0  0  0  0  0  0  0  0  0  0  0  0
    7.6401   -6.1659    7.3287 H   0  0  0  0  0  0  0  0  0  0  0  0
    6.0083   -5.8862    4.5830 H   0  0  0  0  0  0  0  0  0  0  0  0
    7.0594   -7.2835    4.1766 H   0  0  0  0  0  0  0  0  0  0  0  0
    7.9488   -8.8332    4.6929 H   0  0  0  0  0  0  0  0  0  0  0  0
    8.4713  -11.7028    7.8783 H   0  0  0  0  0  0  0  0  0  0  0  0
    6.9290  -10.3669    9.3041 H   0  0  0  0  0  0  0  0  0  0  0  0
    6.2179   -6.3542    7.8563 H   0  0  0  0  0  0  0  0  0  0  0  0
    4.7048   -5.0071    9.0863 H   0  0  0  0  0  0  0  0  0  0  0  0
    4.2450   -6.4514   10.0778 H   0  0  0  0  0  0  0  0  0  0  0  0
    9.1534   -5.7759   12.0966 H   0  0  0  0  0  0  0  0  0  0  0  0
    6.0275   -3.0184   13.1831 H   0  0  0  0  0  0  0  0  0  0  0  0
  3  2  2  0
  4  2  1  0
  4  5  1  0
  9  8  1  0
  2  1  1  0
  7  8  1  0
  7  6  2  0
  5  6  1  0
  8 10  2  0
  6 12  1  0
 10 11  1  0
 12 11  2  0
 12 13  1  0
 15 13  1  0
 15 16  1  0
 13 14  2  0
 16 17  1  0
 21 20  1  0
 17 20  1  0
 17 18  2  0
 20 22  2  0
 19 18  1  0
 18 25  1  0
 22 23  1  0
 25 23  2  0
 23 24  1  0
  1 26  1  0
  4 27  1  0
  4 28  1  0
  7 29  1  0
 10 30  1  0
 11 31  1  0
 15 32  1  0
 16 33  1  0
 16 34  1  0
 22 35  1  0
 25 36  1  0
A    1
O21
A    2
C19
A    3
O20
A    4
C18
A    5
O17
A    6
C11
A    7
C13
A    8
C15
A    9
CL2
A   10
C14
A   11
C12
A   12
C10
A   13
C9
A   14
O16
A   15
N8
A   16
C7
A   17
C1
A   18
C2
A   19
F25
A   20
C3
A   21
F24
A   22
C5
A   23
C6
A   24
BR2
A   25
C4
M  END
