4LBU_1WJ_A_401
     RDKit          3D

 53 56  0  0  0  0  0  0  0  0999 V2000
    9.6320   17.5660   91.6710 C   0  0  0  0  0  0  0  0  0  0  0  0
   10.6500   17.9360   90.8110 C   0  0  0  0  0  0  0  0  0  0  0  0
   10.3640   17.8290   89.4590 C   0  0  0  0  0  0  0  0  0  0  0  0
    9.1620   17.3220   88.9710 C   0  0  0  0  0  0  0  0  0  0  0  0
    8.1240   16.8590   89.8190 C   0  0  0  0  0  0  0  0  0  0  0  0
    6.8340   16.2510   89.2430 C   0  0  0  0  0  0  0  0  0  0  0  0
    5.8170   17.1820   88.7430 C   0  0  0  0  0  0  0  0  0  0  0  0
    8.4060   17.0320   91.2160 C   0  0  0  0  0  0  0  0  0  0  0  0
    9.8890   17.7310   93.1390 C   0  0  0  0  0  0  0  0  0  0  0  0
    7.4410   16.6870   92.1500 N   0  0  0  0  0  0  0  0  0  0  0  0
    7.6570   16.8930   93.4470 C   0  0  0  0  0  0  0  0  0  0  0  0
    6.6940   16.5820   94.3270 N   0  0  0  0  0  0  0  0  0  0  0  0
    8.8150   17.4000   93.9200 N   0  0  0  0  0  0  0  0  0  0  0  0
   10.9050   18.1370   93.5940 O   0  0  0  0  0  0  0  0  0  0  0  0
   11.0690   18.1940   88.3240 N   0  0  0  0  0  0  0  0  0  0  0  0
    9.1400   17.3930   87.5940 N   0  0  0  0  0  0  0  0  0  0  0  0
   10.2820   17.9080   87.2430 C   0  0  0  0  0  0  0  0  0  0  0  0
   10.7080   18.2080   85.9710 N   0  0  0  0  0  0  0  0  0  0  0  0
    9.7180   18.3100   84.8970 C   0  0  0  0  0  0  0  0  0  0  0  0
    2.8510   17.2220   86.8980 C   0  0  0  0  0  0  0  0  0  0  0  0
    3.4620   17.8210   85.7700 O   0  0  0  0  0  0  0  0  0  0  0  0
    3.4370   19.2500   85.7650 C   0  0  0  0  0  0  0  0  0  0  0  0
    3.5870   17.5900   88.0760 O   0  0  0  0  0  0  0  0  0  0  0  0
    4.4950   16.5230   88.4210 C   0  0  0  0  0  0  0  0  0  0  0  0
    4.4210   15.5530   87.2630 C   0  0  0  0  0  0  0  0  0  0  0  0
    4.7330   14.2240   87.5820 O   0  0  0  0  0  0  0  0  0  0  0  0
    2.9540   15.7090   86.8290 C   0  0  0  0  0  0  0  0  0  0  0  0
    2.0250   15.1540   87.7600 O   0  0  0  0  0  0  0  0  0  0  0  0
    1.6090   13.8180   87.4930 C   0  0  0  0  0  0  0  0  0  0  0  0
   11.6243   18.2924   91.1766 H   0  0  0  0  0  0  0  0  0  0  0  0
    6.3689   15.6490   90.0375 H   0  0  0  0  0  0  0  0  0  0  0  0
    7.1591   15.6853   88.3574 H   0  0  0  0  0  0  0  0  0  0  0  0
    6.2006   17.6563   87.8276 H   0  0  0  0  0  0  0  0  0  0  0  0
    5.6260   17.9102   89.5450 H   0  0  0  0  0  0  0  0  0  0  0  0
    6.8812   16.6425   95.3380 H   0  0  0  0  0  0  0  0  0  0  0  0
    5.7672   16.2827   93.9918 H   0  0  0  0  0  0  0  0  0  0  0  0
    8.8958   17.5476   94.9362 H   0  0  0  0  0  0  0  0  0  0  0  0
   12.0129   18.6054   88.2989 H   0  0  0  0  0  0  0  0  0  0  0  0
   11.7082   18.3587   85.7764 H   0  0  0  0  0  0  0  0  0  0  0  0
    8.7134   18.4135   85.3330 H   0  0  0  0  0  0  0  0  0  0  0  0
    9.9405   19.1900   84.2756 H   0  0  0  0  0  0  0  0  0  0  0  0
    9.7564   17.4031   84.2756 H   0  0  0  0  0  0  0  0  0  0  0  0
    1.8017   17.5513   86.9212 H   0  0  0  0  0  0  0  0  0  0  0  0
    3.4305   19.6202   86.8008 H   0  0  0  0  0  0  0  0  0  0  0  0
    4.3286   19.6305   85.2452 H   0  0  0  0  0  0  0  0  0  0  0  0
    2.5326   19.5991   85.2452 H   0  0  0  0  0  0  0  0  0  0  0  0
    4.2736   15.9205   89.3143 H   0  0  0  0  0  0  0  0  0  0  0  0
    5.1668   15.7772   86.4861 H   0  0  0  0  0  0  0  0  0  0  0  0
    4.7579   14.1179   88.5660 H   0  0  0  0  0  0  0  0  0  0  0  0
    2.7245   15.2151   85.8733 H   0  0  0  0  0  0  0  0  0  0  0  0
    1.4441   13.2885   88.4430 H   0  0  0  0  0  0  0  0  0  0  0  0
    0.6733   13.8339   86.9149 H   0  0  0  0  0  0  0  0  0  0  0  0
    2.3884   13.2999   86.9149 H   0  0  0  0  0  0  0  0  0  0  0  0
 19 18  1  0
 22 21  1  0
 21 20  1  0
 18 17  1  0
 27 20  1  0
 27 25  1  0
 27 28  1  0
 20 23  1  0
 17 16  2  0
 17 15  1  0
 25 26  1  0
 25 24  1  0
 29 28  1  0
 16  4  1  0
 23 24  1  0
 15  3  1  0
 24  7  1  0
  7  6  1  0
  4  3  1  0
  4  5  2  0
  6  5  1  0
  3  2  2  0
  5  8  1  0
  2  1  1  0
  8  1  2  0
  8 10  1  0
  1  9  1  0
 10 11  2  0
  9 14  2  0
  9 13  1  0
 11 13  1  0
 11 12  1  0
  2 30  1  0
  6 31  1  0
  6 32  1  0
  7 33  1  0
  7 34  1  0
 12 35  1  0
 12 36  1  0
 13 37  1  0
 15 38  1  0
 18 39  1  0
 19 40  1  0
 19 41  1  0
 19 42  1  0
 20 43  1  0
 22 44  1  0
 22 45  1  0
 22 46  1  0
 24 47  1  0
 25 48  1  0
 26 49  1  0
 27 50  1  0
 29 51  1  0
 29 52  1  0
 29 53  1  0
A    1
C1
A    2
C2
A    3
C3
A    4
C4
A    5
C5
A    6
C6
A    7
C7
A    8
C8
A    9
C13
A   10
N9
A   11
C10
A   12
N11
A   13
N12
A   14
O14
A   15
N15
A   16
N16
A   17
C17
A   18
N18
A   19
C19
A   20
C20
A   21
O21
A   22
C22
A   23
O23
A   24
C24
A   25
C25
A   26
O26
A   27
C27
A   28
O28
A   29
C
M  END
