4L4V_1VY_A_301
     RDKit          3D

 39 40  0  0  0  0  0  0  0  0999 V2000
  -88.9240   68.3680   95.5920 O   0  0  0  0  0  0  0  0  0  0  0  0
  -90.0850   67.8550   95.0850 C   0  0  0  0  0  0  0  0  0  0  0  0
  -90.8350   68.7030   94.2740 C   0  0  0  0  0  0  0  0  0  0  0  0
  -90.4030   70.0330   94.0510 C   0  0  0  0  0  0  0  0  0  0  0  0
  -91.9660   68.2340   93.7060 N   0  0  0  0  0  0  0  0  0  0  0  0
  -92.3650   66.9530   93.9090 C   0  0  0  0  0  0  0  0  0  0  0  0
  -93.5910   66.4900   93.4030 C   0  0  0  0  0  0  0  0  0  0  0  0
  -94.3580   67.2580   92.8120 O   0  0  0  0  0  0  0  0  0  0  0  0
  -94.0220   65.2430   93.7170 N   0  0  0  0  0  0  0  0  0  0  0  0
  -93.2350   64.4140   94.4580 C   0  0  0  0  0  0  0  0  0  0  0  0
  -93.5520   63.2410   94.6730 O   0  0  0  0  0  0  0  0  0  0  0  0
  -92.0590   64.8580   94.9590 N   0  0  0  0  0  0  0  0  0  0  0  0
  -91.6010   66.1060   94.7220 C   0  0  0  0  0  0  0  0  0  0  0  0
  -90.4500   66.5710   95.2940 N   0  0  0  0  0  0  0  0  0  0  0  0
  -89.6910   65.7840   96.2960 C   0  0  0  0  0  0  0  0  0  0  0  0
  -88.4650   65.0080   95.8550 C   0  0  0  0  0  0  0  0  0  0  0  0
  -87.6330   65.8090   94.9800 O   0  0  0  0  0  0  0  0  0  0  0  0
  -88.8790   63.6780   95.2190 C   0  0  0  0  0  0  0  0  0  0  0  0
  -90.1060   63.1520   95.8230 O   0  0  0  0  0  0  0  0  0  0  0  0
  -87.7150   62.6570   95.2370 C   0  0  0  0  0  0  0  0  0  0  0  0
  -88.1510   61.5800   94.4560 O   0  0  0  0  0  0  0  0  0  0  0  0
  -87.4760   62.0780   96.6220 C   0  0  0  0  0  0  0  0  0  0  0  0
  -86.0910   61.9780   97.0210 O   0  0  0  0  0  0  0  0  0  0  0  0
  -88.7944   68.4253   96.5718 H   0  0  0  0  0  0  0  0  0  0  0  0
  -90.2407   70.5327   95.0174 H   0  0  0  0  0  0  0  0  0  0  0  0
  -89.4622   70.0223   93.4812 H   0  0  0  0  0  0  0  0  0  0  0  0
  -91.1706   70.5772   93.4812 H   0  0  0  0  0  0  0  0  0  0  0  0
  -94.9461   64.9222   93.3946 H   0  0  0  0  0  0  0  0  0  0  0  0
  -89.3625   66.4877   97.0751 H   0  0  0  0  0  0  0  0  0  0  0  0
  -90.3992   65.0004   96.6032 H   0  0  0  0  0  0  0  0  0  0  0  0
  -87.8534   64.7705   96.7379 H   0  0  0  0  0  0  0  0  0  0  0  0
  -87.0375   66.3824   95.5247 H   0  0  0  0  0  0  0  0  0  0  0  0
  -89.1119   63.8669   94.1607 H   0  0  0  0  0  0  0  0  0  0  0  0
  -90.0287   63.1851   96.8094 H   0  0  0  0  0  0  0  0  0  0  0  0
  -86.7970   63.1544   94.8908 H   0  0  0  0  0  0  0  0  0  0  0  0
  -88.4492   60.8435   95.0466 H   0  0  0  0  0  0  0  0  0  0  0  0
  -87.9940   62.7180   97.3515 H   0  0  0  0  0  0  0  0  0  0  0  0
  -87.8574   61.0468   96.5895 H   0  0  0  0  0  0  0  0  0  0  0  0
  -86.0318   61.9737   98.0092 H   0  0  0  0  0  0  0  0  0  0  0  0
  8  7  2  0
  7  9  1  0
  7  6  1  0
  5  6  2  0
  5  3  1  0
  9 10  1  0
  6 13  1  0
  4  3  1  0
  3  2  2  0
 21 20  1  0
 10 11  2  0
 10 12  1  0
 13 12  2  0
 13 14  1  0
 17 16  1  0
  2 14  1  0
  2  1  1  0
 18 20  1  0
 18 19  1  0
 18 16  1  0
 20 22  1  0
 14 15  1  0
 16 15  1  0
 22 23  1  0
  1 24  1  0
  4 25  1  0
  4 26  1  0
  4 27  1  0
  9 28  1  0
 15 29  1  0
 15 30  1  0
 16 31  1  0
 17 32  1  0
 18 33  1  0
 19 34  1  0
 20 35  1  0
 21 36  1  0
 22 37  1  0
 22 38  1  0
 23 39  1  0
A    1
O7
A    2
C7
A    3
C6
A    4
C9
A    5
N5
A    6
C4A
A    7
C4
A    8
O4
A    9
N3
A   10
C2
A   11
O2
A   12
N1
A   13
C8A
A   14
N8
A   15
C1'
A   16
C2'
A   17
O2'
A   18
C3'
A   19
O3'
A   20
C4'
A   21
O4'
A   22
C5'
A   23
O5'
M  END
