4LDL_XQC_A_1401
     RDKit          3D

 46 47  0  0  0  0  0  0  0  0999 V2000
   -4.5840  -11.3200  -51.7090 C   0  0  0  0  0  0  0  0  0  0  0  0
   -4.6570  -12.8410  -51.6230 C   0  0  0  0  0  0  0  0  0  0  0  0
   -3.5750  -13.4730  -52.4900 C   0  0  0  0  0  0  0  0  0  0  0  0
   -6.0460  -13.3600  -52.0050 C   0  0  0  0  0  0  0  0  0  0  0  0
   -6.2460  -13.5140  -53.5010 C   0  0  0  0  0  0  0  0  0  0  0  0
   -6.4040  -12.4020  -54.3240 C   0  0  0  0  0  0  0  0  0  0  0  0
   -6.5950  -12.5610  -55.6910 C   0  0  0  0  0  0  0  0  0  0  0  0
   -6.6430  -13.8370  -56.2420 C   0  0  0  0  0  0  0  0  0  0  0  0
   -6.4970  -14.9500  -55.4230 C   0  0  0  0  0  0  0  0  0  0  0  0
   -6.3070  -14.7890  -54.0560 C   0  0  0  0  0  0  0  0  0  0  0  0
   -3.1120  -12.8260  -49.6700 C   0  0  0  0  0  0  0  0  0  0  0  0
   -2.8200  -13.6410  -48.4160 C   0  0  0  0  0  0  0  0  0  0  0  0
   -1.5120  -13.2050  -47.8740 C   0  0  0  0  0  0  0  0  0  0  0  0
   -1.3390  -12.9900  -46.5120 C   0  0  0  0  0  0  0  0  0  0  0  0
   -0.1000  -12.5810  -46.0290 C   0  0  0  0  0  0  0  0  0  0  0  0
    0.9650  -12.3950  -46.9040 C   0  0  0  0  0  0  0  0  0  0  0  0
    0.7920  -12.6150  -48.2590 C   0  0  0  0  0  0  0  0  0  0  0  0
   -0.4450  -13.0210  -48.7440 C   0  0  0  0  0  0  0  0  0  0  0  0
   -4.3850  -13.2090  -50.2490 N   0  0  0  0  0  0  0  0  0  0  0  0
   -6.8320  -13.9960  -57.5820 O   0  0  0  0  0  0  0  0  0  0  0  0
   -3.8720  -13.4640  -47.4600 O   0  0  0  0  0  0  0  0  0  0  0  0
    2.1800  -11.9960  -46.4310 O   0  0  0  0  0  0  0  0  0  0  0  0
    1.8330  -12.4340  -49.1180 O   0  0  0  0  0  0  0  0  0  0  0  0
   -4.5636  -10.8959  -50.6942 H   0  0  0  0  0  0  0  0  0  0  0  0
   -3.6707  -11.0266  -52.2474 H   0  0  0  0  0  0  0  0  0  0  0  0
   -5.4650  -10.9405  -52.2474 H   0  0  0  0  0  0  0  0  0  0  0  0
   -2.8051  -13.9227  -51.8458 H   0  0  0  0  0  0  0  0  0  0  0  0
   -4.0224  -14.2518  -53.1251 H   0  0  0  0  0  0  0  0  0  0  0  0
   -3.1164  -12.7007  -53.1251 H   0  0  0  0  0  0  0  0  0  0  0  0
   -6.7982  -12.6533  -51.6244 H   0  0  0  0  0  0  0  0  0  0  0  0
   -6.1501  -14.3609  -51.5607 H   0  0  0  0  0  0  0  0  0  0  0  0
   -6.3775  -11.3918  -53.8894 H   0  0  0  0  0  0  0  0  0  0  0  0
   -6.7082  -11.6780  -56.3372 H   0  0  0  0  0  0  0  0  0  0  0  0
   -6.5319  -15.9600  -55.8575 H   0  0  0  0  0  0  0  0  0  0  0  0
   -6.2043  -15.6731  -53.4096 H   0  0  0  0  0  0  0  0  0  0  0  0
   -2.3140  -12.9998  -50.4068 H   0  0  0  0  0  0  0  0  0  0  0  0
   -3.1556  -11.7615  -49.3961 H   0  0  0  0  0  0  0  0  0  0  0  0
   -2.7714  -14.7141  -48.6529 H   0  0  0  0  0  0  0  0  0  0  0  0
   -2.1788  -13.1427  -45.8181 H   0  0  0  0  0  0  0  0  0  0  0  0
    0.0377  -12.4042  -44.9521 H   0  0  0  0  0  0  0  0  0  0  0  0
   -0.5799  -13.1974  -49.8213 H   0  0  0  0  0  0  0  0  0  0  0  0
   -5.1229  -12.7851  -49.6688 H   0  0  0  0  0  0  0  0  0  0  0  0
   -7.5459  -14.5966  -57.9134 H   0  0  0  0  0  0  0  0  0  0  0  0
   -3.5001  -13.5266  -46.5447 H   0  0  0  0  0  0  0  0  0  0  0  0
    2.3385  -11.9439  -45.4552 H   0  0  0  0  0  0  0  0  0  0  0  0
    2.7443  -12.2756  -48.7650 H   0  0  0  0  0  0  0  0  0  0  0  0
 20  8  1  0
  8  7  1  0
  8  9  2  0
  7  6  2  0
  9 10  1  0
  6  5  1  0
 10  5  2  0
  5  4  1  0
  3  2  1  0
  4  2  1  0
  1  2  1  0
  2 19  1  0
 19 11  1  0
 11 12  1  0
 23 17  1  0
 18 17  2  0
 18 13  1  0
 12 13  1  0
 12 21  1  0
 17 16  1  0
 13 14  2  0
 16 22  1  0
 16 15  2  0
 14 15  1  0
  1 24  1  0
  1 25  1  0
  1 26  1  0
  3 27  1  0
  3 28  1  0
  3 29  1  0
  4 30  1  0
  4 31  1  0
  6 32  1  0
  7 33  1  0
  9 34  1  0
 10 35  1  0
 11 36  1  0
 11 37  1  0
 12 38  1  0
 14 39  1  0
 15 40  1  0
 18 41  1  0
 19 42  1  0
 20 43  1  0
 21 44  1  0
 22 45  1  0
 23 46  1  0
A    1
CAA
A    2
CAB
A    3
CAC
A    4
CAD
A    5
CAE
A    6
CAF
A    7
CAG
A    8
CAH
A    9
CAJ
A   10
CAK
A   11
CAM
A   12
CAN
A   13
CAP
A   14
CAQ
A   15
CAR
A   16
CAS
A   17
CAU
A   18
CAW
A   19
NAL
A   20
OAI
A   21
OAO
A   22
OAT
A   23
OAV
M  END
