4LEQ_1WK_A_401
     RDKit          3D

 50 53  0  0  0  0  0  0  0  0999 V2000
    9.7800   17.4240   91.3360 C   0  0  0  0  0  0  0  0  0  0  0  0
   10.7740   17.8030   90.4290 C   0  0  0  0  0  0  0  0  0  0  0  0
   10.4870   17.6710   89.0720 C   0  0  0  0  0  0  0  0  0  0  0  0
    9.2600   17.1740   88.6510 C   0  0  0  0  0  0  0  0  0  0  0  0
    8.2410   16.7850   89.5190 C   0  0  0  0  0  0  0  0  0  0  0  0
    6.9440   16.2070   88.9960 C   0  0  0  0  0  0  0  0  0  0  0  0
    5.9840   17.1910   88.3900 C   0  0  0  0  0  0  0  0  0  0  0  0
    8.5390   16.9130   90.9090 C   0  0  0  0  0  0  0  0  0  0  0  0
   10.0170   17.5470   92.7890 C   0  0  0  0  0  0  0  0  0  0  0  0
    7.5610   16.5420   91.8490 N   0  0  0  0  0  0  0  0  0  0  0  0
    7.7890   16.6740   93.1150 C   0  0  0  0  0  0  0  0  0  0  0  0
    6.8480   16.3470   94.0260 N   0  0  0  0  0  0  0  0  0  0  0  0
    8.9740   17.1680   93.5950 N   0  0  0  0  0  0  0  0  0  0  0  0
   11.0750   17.9550   93.2570 O   0  0  0  0  0  0  0  0  0  0  0  0
   11.2640   18.0030   88.0000 N   0  0  0  0  0  0  0  0  0  0  0  0
    9.3230   17.2130   87.2820 N   0  0  0  0  0  0  0  0  0  0  0  0
   10.5550   17.7080   86.9350 C   0  0  0  0  0  0  0  0  0  0  0  0
   10.9200   17.8890   85.6590 N   0  0  0  0  0  0  0  0  0  0  0  0
    9.9580   18.0490   84.5880 C   0  0  0  0  0  0  0  0  0  0  0  0
    3.3480   15.9630   86.1810 C   0  0  0  0  0  0  0  0  0  0  0  0
    2.3290   15.2420   86.8450 O   0  0  0  0  0  0  0  0  0  0  0  0
    4.7210   15.6650   86.7680 C   0  0  0  0  0  0  0  0  0  0  0  0
    4.8030   14.2650   87.1060 O   0  0  0  0  0  0  0  0  0  0  0  0
    4.6600   16.5240   88.0360 C   0  0  0  0  0  0  0  0  0  0  0  0
    3.7750   17.6300   87.7420 O   0  0  0  0  0  0  0  0  0  0  0  0
    3.2600   17.4750   86.4180 C   0  0  0  0  0  0  0  0  0  0  0  0
    4.1340   18.1730   85.5180 O   0  0  0  0  0  0  0  0  0  0  0  0
    4.0690   19.5940   85.6890 C   0  0  0  0  0  0  0  0  0  0  0  0
   11.7444   18.1902   90.7731 H   0  0  0  0  0  0  0  0  0  0  0  0
    6.4336   15.7111   89.8348 H   0  0  0  0  0  0  0  0  0  0  0  0
    7.2290   15.5277   88.1791 H   0  0  0  0  0  0  0  0  0  0  0  0
    6.4298   17.6107   87.4762 H   0  0  0  0  0  0  0  0  0  0  0  0
    5.7880   17.9845   89.1262 H   0  0  0  0  0  0  0  0  0  0  0  0
    7.0576   16.4198   95.0318 H   0  0  0  0  0  0  0  0  0  0  0  0
    5.9204   16.0247   93.7153 H   0  0  0  0  0  0  0  0  0  0  0  0
    9.0872   17.2594   94.6147 H   0  0  0  0  0  0  0  0  0  0  0  0
   12.2128   18.4032   88.0220 H   0  0  0  0  0  0  0  0  0  0  0  0
   11.9240   17.9154   85.4304 H   0  0  0  0  0  0  0  0  0  0  0  0
    8.9581   18.2153   85.0151 H   0  0  0  0  0  0  0  0  0  0  0  0
   10.2400   18.9126   83.9678 H   0  0  0  0  0  0  0  0  0  0  0  0
    9.9453   17.1406   83.9678 H   0  0  0  0  0  0  0  0  0  0  0  0
    3.2192   15.6704   85.1285 H   0  0  0  0  0  0  0  0  0  0  0  0
    2.4490   15.3269   87.8240 H   0  0  0  0  0  0  0  0  0  0  0  0
    5.5792   15.8730   86.1121 H   0  0  0  0  0  0  0  0  0  0  0  0
    4.8090   14.1631   88.0907 H   0  0  0  0  0  0  0  0  0  0  0  0
    4.3539   15.8620   88.8595 H   0  0  0  0  0  0  0  0  0  0  0  0
    2.2411   17.8637   86.2741 H   0  0  0  0  0  0  0  0  0  0  0  0
    4.0580   19.8340   86.7624 H   0  0  0  0  0  0  0  0  0  0  0  0
    4.9467   20.0605   85.2179 H   0  0  0  0  0  0  0  0  0  0  0  0
    3.1523   19.9785   85.2179 H   0  0  0  0  0  0  0  0  0  0  0  0
 19 18  1  0
 27 28  1  0
 27 26  1  0
 18 17  1  0
 20 26  1  0
 20 22  1  0
 20 21  1  0
 26 25  1  0
 22 23  1  0
 22 24  1  0
 17 16  2  0
 17 15  1  0
 16  4  1  0
 25 24  1  0
 15  3  1  0
 24  7  1  0
  7  6  1  0
  4  3  1  0
  4  5  2  0
  6  5  1  0
  3  2  2  0
  5  8  1  0
  2  1  1  0
  8  1  2  0
  8 10  1  0
  1  9  1  0
 10 11  2  0
  9 14  2  0
  9 13  1  0
 11 13  1  0
 11 12  1  0
  2 29  1  0
  6 30  1  0
  6 31  1  0
  7 32  1  0
  7 33  1  0
 12 34  1  0
 12 35  1  0
 13 36  1  0
 15 37  1  0
 18 38  1  0
 19 39  1  0
 19 40  1  0
 19 41  1  0
 20 42  1  0
 21 43  1  0
 22 44  1  0
 23 45  1  0
 24 46  1  0
 26 47  1  0
 28 48  1  0
 28 49  1  0
 28 50  1  0
A    1
C1
A    2
C2
A    3
C3
A    4
C4
A    5
C5
A    6
C6
A    7
C7
A    8
C8
A    9
C9
A   10
N10
A   11
C11
A   12
N12
A   13
N13
A   14
O14
A   15
N15
A   16
N16
A   17
C17
A   18
N18
A   19
C19
A   20
C20
A   21
O21
A   22
C22
A   23
O23
A   24
C24
A   25
O25
A   26
C26
A   27
O27
A   28
C28
M  END
