4KSY_1SY_A_500
     RDKit          3D

 69 75  0  0  0  0  0  0  0  0999 V2000
   52.2850    8.6450  -17.4450 C   0  0  0  0  0  0  0  0  0  0  0  0
   49.6710   10.9640  -18.6860 N   0  0  0  0  0  0  0  0  0  0  0  0
   50.4240    9.7210  -18.4170 C   0  0  0  0  0  0  0  0  0  0  0  0
   51.5720    9.7460  -17.7220 N   0  0  0  0  0  0  0  0  0  0  0  0
   51.8610    7.4660  -17.8650 N   0  0  0  0  0  0  0  0  0  0  0  0
   50.7070    7.3220  -18.5710 C   0  0  0  0  0  0  0  0  0  0  0  0
   49.9320    8.4630  -18.8840 C   0  0  0  0  0  0  0  0  0  0  0  0
   48.8460    8.0280  -19.5990 N   0  0  0  0  0  0  0  0  0  0  0  0
   48.9040    6.6800  -19.7520 C   0  0  0  0  0  0  0  0  0  0  0  0
   50.0210    6.2780  -19.1410 N   0  0  0  0  0  0  0  0  0  0  0  0
   50.6820    5.0190  -18.9280 C   0  0  0  0  0  0  0  0  0  0  0  0
   50.3800    4.5220  -17.6030 C   0  0  0  0  0  0  0  0  0  0  0  0
   51.4400    3.6300  -17.2290 O   0  0  0  0  0  0  0  0  0  0  0  0
   49.1380    3.7640  -17.7640 C   0  0  0  0  0  0  0  0  0  0  0  0
   49.3700    3.0940  -19.0520 C   0  0  0  0  0  0  0  0  0  0  0  0
   48.0770    2.8130  -19.7600 C   0  0  0  0  0  0  0  0  0  0  0  0
   47.3510    4.0050  -19.8420 O   0  0  0  0  0  0  0  0  0  0  0  0
   45.8310    3.9760  -20.3360 P   0  0  0  0  0  0  0  0  0  0  0  0
   45.2100    5.3590  -20.4290 O   0  0  0  0  0  0  0  0  0  0  0  0
   44.9410    3.0300  -19.3560 O   0  0  0  0  0  0  0  0  0  0  0  0
   45.2380    3.1020  -17.9730 C   0  0  0  0  0  0  0  0  0  0  0  0
   45.2250    1.7570  -17.3180 C   0  0  0  0  0  0  0  0  0  0  0  0
   44.2030    0.9400  -17.8650 O   0  0  0  0  0  0  0  0  0  0  0  0
   44.8730    2.0310  -15.9330 C   0  0  0  0  0  0  0  0  0  0  0  0
   46.0690    2.1690  -15.0260 C   0  0  0  0  0  0  0  0  0  0  0  0
   46.8210    3.3290  -15.2750 O   0  0  0  0  0  0  0  0  0  0  0  0
   48.4210    3.2980  -15.2370 P   0  0  0  0  0  0  0  0  0  0  0  0
   49.0550    2.7930  -16.6760 O   0  0  0  0  0  0  0  0  0  0  0  0
   48.9350    4.6470  -14.8570 O   0  0  0  0  0  0  0  0  0  0  0  0
   48.8670    2.3150  -14.2230 O   0  0  0  0  0  0  0  0  0  0  0  0
   44.0510    3.2250  -15.9400 O   0  0  0  0  0  0  0  0  0  0  0  0
   44.1570    3.8380  -17.2540 C   0  0  0  0  0  0  0  0  0  0  0  0
   44.4350    5.1710  -17.0820 N   0  0  0  0  0  0  0  0  0  0  0  0
   45.4790    5.7220  -16.4980 C   0  0  0  0  0  0  0  0  0  0  0  0
   45.3480    7.0540  -16.5280 N   0  0  0  0  0  0  0  0  0  0  0  0
   43.5900    6.1640  -17.4820 C   0  0  0  0  0  0  0  0  0  0  0  0
   44.1750    7.3700  -17.1260 C   0  0  0  0  0  0  0  0  0  0  0  0
   43.4860    8.6660  -17.4440 C   0  0  0  0  0  0  0  0  0  0  0  0
   42.2310    8.6400  -18.1030 N   0  0  0  0  0  0  0  0  0  0  0  0
   41.6380    7.3850  -18.4560 C   0  0  0  0  0  0  0  0  0  0  0  0
   40.3750    7.3540  -19.1170 N   0  0  0  0  0  0  0  0  0  0  0  0
   42.3190    6.1330  -18.1560 N   0  0  0  0  0  0  0  0  0  0  0  0
   44.0020    9.7630  -17.1390 O   0  0  0  0  0  0  0  0  0  0  0  0
   45.8260    3.3320  -21.6550 O   0  0  0  0  0  0  0  0  0  0  0  0
   50.1540    4.0440  -19.8200 O   0  0  0  0  0  0  0  0  0  0  0  0
   53.2196    8.7228  -16.8702 H   0  0  0  0  0  0  0  0  0  0  0  0
   49.3245   11.5360  -17.9026 H   0  0  0  0  0  0  0  0  0  0  0  0
   49.4927   11.2583  -19.6568 H   0  0  0  0  0  0  0  0  0  0  0  0
   48.1747    6.0447  -20.2759 H   0  0  0  0  0  0  0  0  0  0  0  0
   51.7606    5.1778  -19.0740 H   0  0  0  0  0  0  0  0  0  0  0  0
   50.2818    5.3119  -16.8438 H   0  0  0  0  0  0  0  0  0  0  0  0
   51.4976    3.5815  -16.2419 H   0  0  0  0  0  0  0  0  0  0  0  0
   48.2095    4.3534  -17.7433 H   0  0  0  0  0  0  0  0  0  0  0  0
   49.8733    2.1247  -18.9209 H   0  0  0  0  0  0  0  0  0  0  0  0
   47.5001    2.0646  -19.1969 H   0  0  0  0  0  0  0  0  0  0  0  0
   48.2756    2.4211  -20.7685 H   0  0  0  0  0  0  0  0  0  0  0  0
   45.0517    5.7116  -19.5176 H   0  0  0  0  0  0  0  0  0  0  0  0
   46.2265    3.5809  -17.9134 H   0  0  0  0  0  0  0  0  0  0  0  0
   46.1878    1.2410  -17.4475 H   0  0  0  0  0  0  0  0  0  0  0  0
   43.6840    0.5251  -17.1311 H   0  0  0  0  0  0  0  0  0  0  0  0
   44.3219    1.1756  -15.5153 H   0  0  0  0  0  0  0  0  0  0  0  0
   45.7165    2.1977  -13.9844 H   0  0  0  0  0  0  0  0  0  0  0  0
   46.7250    1.3068  -15.2164 H   0  0  0  0  0  0  0  0  0  0  0  0
   48.7023    2.6779  -13.3168 H   0  0  0  0  0  0  0  0  0  0  0  0
   43.2323    3.7769  -17.8467 H   0  0  0  0  0  0  0  0  0  0  0  0
   46.3244    5.1746  -16.0558 H   0  0  0  0  0  0  0  0  0  0  0  0
   39.5054    7.3327  -18.5654 H   0  0  0  0  0  0  0  0  0  0  0  0
   40.3322    7.3529  -20.1461 H   0  0  0  0  0  0  0  0  0  0  0  0
   41.8947    5.2335  -18.4239 H   0  0  0  0  0  0  0  0  0  0  0  0
 44 18  2  0
 19 18  1  0
 18 17  1  0
 18 20  1  0
 17 16  1  0
 45 15  1  0
 45 11  1  0
 16 15  1  0
  9  8  2  0
  9 10  1  0
  8  7  1  0
 20 21  1  0
 10 11  1  0
 10  6  1  0
 41 40  1  0
 15 14  1  0
 11 12  1  0
  7  6  2  0
  7  3  1  0
  2  3  1  0
  6  5  1  0
 40 42  1  0
 40 39  2  0
  3  4  2  0
 42 36  1  0
 39 38  1  0
 21 22  1  0
 21 32  1  0
 23 22  1  0
  5  1  2  0
 14 12  1  0
 14 28  1  0
  4  1  1  0
 12 13  1  0
 36 37  2  0
 36 33  1  0
 38 43  2  0
 38 37  1  0
 22 24  1  0
 32 33  1  0
 32 31  1  0
 37 35  1  0
 33 34  1  0
 28 27  1  0
 35 34  2  0
 31 24  1  0
 24 25  1  0
 26 27  1  0
 26 25  1  0
 27 29  2  0
 27 30  1  0
  1 46  1  0
  2 47  1  0
  2 48  1  0
  9 49  1  0
 11 50  1  0
 12 51  1  0
 13 52  1  0
 14 53  1  0
 15 54  1  0
 16 55  1  0
 16 56  1  0
 19 57  1  0
 21 58  1  0
 22 59  1  0
 23 60  1  0
 24 61  1  0
 25 62  1  0
 25 63  1  0
 30 64  1  0
 32 65  1  0
 34 66  1  0
 41 67  1  0
 41 68  1  0
 42 69  1  0
A    1
C2
A    2
N01
A    3
C6
A    4
N1
A    5
N3
A    6
C4
A    7
C5
A    8
N7
A    9
C8
A   10
N9
A   11
C1'
A   12
C2'
A   13
O2'
A   14
C3'
A   15
C4'
A   16
C16
A   17
O17
A   18
P18
A   19
O19
A   20
O20
A   21
C21
A   22
C22
A   23
O23
A   24
C24
A   25
C25
A   26
O26
A   27
P27
A   28
O28
A   29
O29
A   30
O30
A   31
O31
A   32
C32
A   33
N33
A   34
C34
A   35
N35
A   36
C36
A   37
C37
A   38
C38
A   39
N39
A   40
C40
A   41
N41
A   42
N42
A   43
O43
A   44
O44
A   45
O4'
M  END
