2WEI_VGG_A_600
     RDKit          3D

 43 45  0  0  0  0  0  0  0  0999 V2000
   20.1730  -16.2770  -10.7080 C   0  0  0  0  0  0  0  0  0  0  0  0
   19.9250  -17.2040   -9.5440 C   0  0  0  0  0  0  0  0  0  0  0  0
   18.5170  -16.9590   -9.0050 C   0  0  0  0  0  0  0  0  0  0  0  0
   20.9850  -16.9620   -8.4570 C   0  0  0  0  0  0  0  0  0  0  0  0
   19.9440  -18.6620   -9.9230 N   0  0  0  0  0  0  0  0  0  0  0  0
   20.6290  -19.5190   -9.3130 N   0  0  0  0  0  0  0  0  0  0  0  0
   19.2200  -19.2070  -10.9090 C   0  0  0  0  0  0  0  0  0  0  0  0
   18.3490  -18.7150  -11.8430 N   0  0  0  0  0  0  0  0  0  0  0  0
   17.7950  -19.5470  -12.7050 C   0  0  0  0  0  0  0  0  0  0  0  0
   18.0240  -20.8500  -12.7190 N   0  0  0  0  0  0  0  0  0  0  0  0
   18.8890  -21.3940  -11.8250 C   0  0  0  0  0  0  0  0  0  0  0  0
   19.0900  -22.7070  -11.8580 N   0  0  0  0  0  0  0  0  0  0  0  0
   19.5080  -20.5710  -10.9160 C   0  0  0  0  0  0  0  0  0  0  0  0
   20.4170  -20.7340   -9.8550 C   0  0  0  0  0  0  0  0  0  0  0  0
   21.0920  -21.9890   -9.2910 C   0  0  0  0  0  0  0  0  0  0  0  0
   22.1760  -22.6030  -10.1230 C   0  0  0  0  0  0  0  0  0  0  0  0
   22.9900  -23.5580   -9.5050 C   0  0  0  0  0  0  0  0  0  0  0  0
   22.3930  -22.2890  -11.4710 C   0  0  0  0  0  0  0  0  0  0  0  0
   23.4250  -22.9060  -12.1730 C   0  0  0  0  0  0  0  0  0  0  0  0
   24.2310  -23.8550  -11.5270 C   0  0  0  0  0  0  0  0  0  0  0  0
   23.9970  -24.1760  -10.1930 C   0  0  0  0  0  0  0  0  0  0  0  0
   24.8940  -25.2290   -9.4710 C   0  0  0  0  0  0  0  0  0  0  0  0
   20.4401  -15.2787  -10.3312 H   0  0  0  0  0  0  0  0  0  0  0  0
   20.9975  -16.6703  -11.3208 H   0  0  0  0  0  0  0  0  0  0  0  0
   19.2622  -16.2061  -11.3208 H   0  0  0  0  0  0  0  0  0  0  0  0
   18.5396  -16.9629   -7.9052 H   0  0  0  0  0  0  0  0  0  0  0  0
   18.1527  -15.9840   -9.3608 H   0  0  0  0  0  0  0  0  0  0  0  0
   17.8448  -17.7537   -9.3608 H   0  0  0  0  0  0  0  0  0  0  0  0
   20.5229  -17.0675   -7.4643 H   0  0  0  0  0  0  0  0  0  0  0  0
   21.7951  -17.6983   -8.5645 H   0  0  0  0  0  0  0  0  0  0  0  0
   21.3953  -15.9471   -8.5645 H   0  0  0  0  0  0  0  0  0  0  0  0
   17.1037  -19.1336  -13.4542 H   0  0  0  0  0  0  0  0  0  0  0  0
   19.1713  -23.2378  -10.9791 H   0  0  0  0  0  0  0  0  0  0  0  0
   19.1646  -23.1940  -12.7625 H   0  0  0  0  0  0  0  0  0  0  0  0
   21.5296  -21.7229   -8.3175 H   0  0  0  0  0  0  0  0  0  0  0  0
   20.2975  -22.7485   -9.2462 H   0  0  0  0  0  0  0  0  0  0  0  0
   22.8174  -23.8157   -8.4496 H   0  0  0  0  0  0  0  0  0  0  0  0
   21.7476  -21.5545  -11.9751 H   0  0  0  0  0  0  0  0  0  0  0  0
   23.6071  -22.6509  -13.2274 H   0  0  0  0  0  0  0  0  0  0  0  0
   25.0487  -24.3459  -12.0751 H   0  0  0  0  0  0  0  0  0  0  0  0
   24.7936  -25.1111   -8.3820 H   0  0  0  0  0  0  0  0  0  0  0  0
   24.5767  -26.2415   -9.7610 H   0  0  0  0  0  0  0  0  0  0  0  0
   25.9441  -25.0767   -9.7610 H   0  0  0  0  0  0  0  0  0  0  0  0
  1  2  1  0
  2  3  1  0
  2  4  1  0
  2  5  1  0
  5  6  1  0
  5  7  1  0
  6 14  2  0
  7  8  2  0
  7 13  1  0
  8  9  1  0
  9 10  2  0
 10 11  1  0
 11 12  1  0
 11 13  2  0
 13 14  1  0
 14 15  1  0
 15 16  1  0
 16 17  2  0
 16 18  1  0
 17 21  1  0
 18 19  2  0
 19 20  1  0
 20 21  2  0
 21 22  1  0
  1 23  1  0
  1 24  1  0
  1 25  1  0
  3 26  1  0
  3 27  1  0
  3 28  1  0
  4 29  1  0
  4 30  1  0
  4 31  1  0
  9 32  1  0
 12 33  1  0
 12 34  1  0
 15 35  1  0
 15 36  1  0
 17 37  1  0
 18 38  1  0
 19 39  1  0
 20 40  1  0
 22 41  1  0
 22 42  1  0
 22 43  1  0
A    1
C20
A    2
C19
A    3
C21
A    4
C22
A    5
N7
A    6
N8
A    7
C3
A    8
N2
A    9
C1
A   10
N6
A   11
C5
A   12
N10
A   13
C4
A   14
C9
A   15
C11
A   16
C12
A   17
C13
A   18
C17
A   19
C16
A   20
C15
A   21
C14
A   22
C18
M  END
