4GKI_0JN_A_302
     RDKit          3D

 46 49  0  0  0  0  0  0  0  0999 V2000
   35.8280   13.0130   18.8720 N   0  0  0  0  0  0  0  0  0  0  0  0
   36.9640   12.2850   18.5260 C   0  0  0  0  0  0  0  0  0  0  0  0
   37.9860   12.9600   17.8570 N   0  0  0  0  0  0  0  0  0  0  0  0
   37.8560   14.2660   17.5620 C   0  0  0  0  0  0  0  0  0  0  0  0
   36.7510   14.9390   17.9080 C   0  0  0  0  0  0  0  0  0  0  0  0
   35.7560   14.3120   18.5540 C   0  0  0  0  0  0  0  0  0  0  0  0
   40.0280   13.6270   15.4720 C   0  0  0  0  0  0  0  0  0  0  0  0
   40.4410   16.0870   15.5090 C   0  0  0  0  0  0  0  0  0  0  0  0
   35.6980   18.0990   12.5450 C   0  0  0  0  0  0  0  0  0  0  0  0
   36.7770   18.0670   13.4180 C   0  0  0  0  0  0  0  0  0  0  0  0
   32.6590   17.3480   16.1960 C   0  0  0  0  0  0  0  0  0  0  0  0
   33.7330   17.3170   17.0780 C   0  0  0  0  0  0  0  0  0  0  0  0
   34.4080   17.9260   13.0260 C   0  0  0  0  0  0  0  0  0  0  0  0
   32.8900   17.5520   14.8440 C   0  0  0  0  0  0  0  0  0  0  0  0
   35.0380   17.4760   16.6270 C   0  0  0  0  0  0  0  0  0  0  0  0
   36.9730   16.1790   17.4600 C   0  0  0  0  0  0  0  0  0  0  0  0
   34.1900   17.7230   14.3820 C   0  0  0  0  0  0  0  0  0  0  0  0
   38.6810   15.1200   16.9360 N   0  0  0  0  0  0  0  0  0  0  0  0
   40.0390   14.8770   16.3530 C   0  0  0  0  0  0  0  0  0  0  0  0
   41.0630   14.6990   17.4770 C   0  0  0  0  0  0  0  0  0  0  0  0
   38.1720   16.2080   16.8820 N   0  0  0  0  0  0  0  0  0  0  0  0
   34.6800   15.0180   18.8810 N   0  0  0  0  0  0  0  0  0  0  0  0
   36.0780   17.4410   17.5620 C   0  0  0  0  0  0  0  0  0  0  0  0
   35.2660   17.6910   15.2650 C   0  0  0  0  0  0  0  0  0  0  0  0
   36.5560   17.8650   14.7730 C   0  0  0  0  0  0  0  0  0  0  0  0
   37.0524   11.2163   18.7713 H   0  0  0  0  0  0  0  0  0  0  0  0
   40.0201   12.7299   16.1085 H   0  0  0  0  0  0  0  0  0  0  0  0
   39.1299   13.6339   14.8369 H   0  0  0  0  0  0  0  0  0  0  0  0
   40.9261   13.6181   14.8369 H   0  0  0  0  0  0  0  0  0  0  0  0
   40.7179   16.9204   16.1714 H   0  0  0  0  0  0  0  0  0  0  0  0
   41.2995   15.8224   14.8742 H   0  0  0  0  0  0  0  0  0  0  0  0
   39.5948   16.3887   14.8742 H   0  0  0  0  0  0  0  0  0  0  0  0
   35.8660   18.2618   11.4702 H   0  0  0  0  0  0  0  0  0  0  0  0
   37.8006   18.2009   13.0380 H   0  0  0  0  0  0  0  0  0  0  0  0
   31.6328   17.2116   16.5680 H   0  0  0  0  0  0  0  0  0  0  0  0
   33.5468   17.1640   18.1513 H   0  0  0  0  0  0  0  0  0  0  0  0
   33.5557   17.9498   12.3310 H   0  0  0  0  0  0  0  0  0  0  0  0
   32.0464   17.5785   14.1386 H   0  0  0  0  0  0  0  0  0  0  0  0
   40.5581   14.7868   18.4503 H   0  0  0  0  0  0  0  0  0  0  0  0
   41.5295   13.7063   17.3942 H   0  0  0  0  0  0  0  0  0  0  0  0
   41.8372   15.4760   17.3942 H   0  0  0  0  0  0  0  0  0  0  0  0
   34.4463   15.1713   19.8724 H   0  0  0  0  0  0  0  0  0  0  0  0
   34.0790   15.4123   18.1433 H   0  0  0  0  0  0  0  0  0  0  0  0
   36.7109   18.3276   17.4092 H   0  0  0  0  0  0  0  0  0  0  0  0
   35.6112   17.4215   18.5579 H   0  0  0  0  0  0  0  0  0  0  0  0
   37.4100   17.8422   15.4659 H   0  0  0  0  0  0  0  0  0  0  0  0
  9 13  2  0
  9 10  1  0
 13 17  1  0
 10 25  2  0
 17 14  2  0
 17 24  1  0
 25 24  1  0
 14 11  1  0
 24 15  2  0
  7 19  1  0
  8 19  1  0
 11 12  2  0
 19 18  1  0
 19 20  1  0
 15 12  1  0
 15 23  1  0
 21 18  1  0
 21 16  2  0
 18  4  1  0
 16 23  1  0
 16  5  1  0
  4  3  2  0
  4  5  1  0
  3  2  1  0
  5  6  2  0
  2  1  2  0
  6  1  1  0
  6 22  1  0
  2 26  1  0
  7 27  1  0
  7 28  1  0
  7 29  1  0
  8 30  1  0
  8 31  1  0
  8 32  1  0
  9 33  1  0
 10 34  1  0
 11 35  1  0
 12 36  1  0
 13 37  1  0
 14 38  1  0
 20 39  1  0
 20 40  1  0
 20 41  1  0
 22 42  1  0
 22 43  1  0
 23 44  1  0
 23 45  1  0
 25 46  1  0
A    1
N1
A    2
C2
A    3
N3
A    4
C4
A    5
C5
A    6
C6
A    7
CAA
A    8
CAB
A    9
CAE
A   10
CAF
A   11
CAG
A   12
CAH
A   13
CAI
A   14
CAJ
A   15
CAR
A   16
CAS
A   17
CAT
A   18
NAX
A   19
CAY
A   20
CAC
A   21
NAP
A   22
NAD
A   23
CAM
A   24
CAU
A   25
CAK
M  END
