4LGU_1YH_A_402
     RDKit          3D

 81 85  0  0  0  0  0  0  0  0999 V2000
   23.7850   -5.8610  -10.9070 N   0  0  0  0  0  0  0  0  0  0  0  0
   25.2260   -6.0880  -10.7120 C   0  0  0  0  0  0  0  0  0  0  0  0
   23.1100   -7.0420  -11.4580 C   0  0  0  0  0  0  0  0  0  0  0  0
   21.5960   -6.8540  -11.5310 C   0  0  0  0  0  0  0  0  0  0  0  0
   23.5690   -7.3530  -12.8500 C   0  0  0  0  0  0  0  0  0  0  0  0
   24.0170   -6.5020  -13.5800 O   0  0  0  0  0  0  0  0  0  0  0  0
   23.4320   -8.6090  -13.2650 N   0  0  0  0  0  0  0  0  0  0  0  0
   23.8630   -9.0650  -14.5640 C   0  0  0  0  0  0  0  0  0  0  0  0
   22.7090   -9.8280  -15.1760 C   0  0  0  0  0  0  0  0  0  0  0  0
   21.8500  -10.2440  -14.4290 O   0  0  0  0  0  0  0  0  0  0  0  0
   25.0390   -9.9050  -14.0430 C   0  0  0  0  0  0  0  0  0  0  0  0
   24.9350  -11.4170  -14.2730 C   0  0  0  0  0  0  0  0  0  0  0  0
   26.0560  -12.1570  -13.5270 C   0  0  0  0  0  0  0  0  0  0  0  0
   27.4320  -11.4630  -13.3890 C   0  0  0  0  0  0  0  0  0  0  0  0
   27.5320   -9.9510  -13.6880 C   0  0  0  0  0  0  0  0  0  0  0  0
   26.3740   -9.3450  -14.5060 C   0  0  0  0  0  0  0  0  0  0  0  0
   22.5780  -10.0200  -16.5090 N   0  0  0  0  0  0  0  0  0  0  0  0
   23.6230   -9.5560  -17.4660 C   0  0  0  0  0  0  0  0  0  0  0  0
   23.0300   -9.2730  -18.8410 C   0  0  0  0  0  0  0  0  0  0  0  0
   24.0980   -9.2820  -19.9520 C   0  0  0  0  0  0  0  0  0  0  0  0
   23.2610   -9.6120  -21.2220 C   0  0  0  0  0  0  0  0  0  0  0  0
   21.8500   -9.9590  -20.6600 C   0  0  0  0  0  0  0  0  0  0  0  0
   22.1200  -10.3620  -19.2590 N   0  0  0  0  0  0  0  0  0  0  0  0
   20.9290  -10.4760  -18.4140 C   0  0  0  0  0  0  0  0  0  0  0  0
   21.4100  -10.7970  -16.9530 C   0  0  0  0  0  0  0  0  0  0  0  0
   21.7630  -12.2600  -16.8110 C   0  0  0  0  0  0  0  0  0  0  0  0
   22.9200  -12.6940  -16.7380 O   0  0  0  0  0  0  0  0  0  0  0  0
   20.7180  -13.0750  -16.7300 N   0  0  0  0  0  0  0  0  0  0  0  0
   20.8380  -14.5130  -16.5850 C   0  0  0  0  0  0  0  0  0  0  0  0
   20.8340  -15.0420  -18.0220 C   0  0  0  0  0  0  0  0  0  0  0  0
   20.4930  -16.5310  -17.9710 C   0  0  0  0  0  0  0  0  0  0  0  0
   19.1460  -16.6230  -17.4930 O   0  0  0  0  0  0  0  0  0  0  0  0
   18.8450  -16.0160  -16.3020 C   0  0  0  0  0  0  0  0  0  0  0  0
   17.7220  -16.4390  -15.5720 C   0  0  0  0  0  0  0  0  0  0  0  0
   17.4090  -15.8220  -14.3670 C   0  0  0  0  0  0  0  0  0  0  0  0
   18.2100  -14.7950  -13.8780 C   0  0  0  0  0  0  0  0  0  0  0  0
   19.3130  -14.3810  -14.6050 C   0  0  0  0  0  0  0  0  0  0  0  0
   19.6270  -14.9820  -15.8170 C   0  0  0  0  0  0  0  0  0  0  0  0
   23.3593   -5.6289   -9.9983 H   0  0  0  0  0  0  0  0  0  0  0  0
   25.4493   -6.1232   -9.6355 H   0  0  0  0  0  0  0  0  0  0  0  0
   25.5131   -7.0424  -11.1774 H   0  0  0  0  0  0  0  0  0  0  0  0
   25.7926   -5.2680  -11.1774 H   0  0  0  0  0  0  0  0  0  0  0  0
   23.3665   -7.8631  -10.7724 H   0  0  0  0  0  0  0  0  0  0  0  0
   21.1834   -6.8028  -10.5126 H   0  0  0  0  0  0  0  0  0  0  0  0
   21.3678   -5.9206  -12.0665 H   0  0  0  0  0  0  0  0  0  0  0  0
   21.1465   -7.7032  -12.0665 H   0  0  0  0  0  0  0  0  0  0  0  0
   22.9964   -9.2903  -12.6270 H   0  0  0  0  0  0  0  0  0  0  0  0
   24.1459   -8.3626  -15.3619 H   0  0  0  0  0  0  0  0  0  0  0  0
   24.9770   -9.8070  -12.9491 H   0  0  0  0  0  0  0  0  0  0  0  0
   23.9609  -11.7722  -13.9057 H   0  0  0  0  0  0  0  0  0  0  0  0
   25.0329  -11.6190  -15.3499 H   0  0  0  0  0  0  0  0  0  0  0  0
   26.2232  -13.1086  -14.0528 H   0  0  0  0  0  0  0  0  0  0  0  0
   25.6875  -12.2339  -12.4934 H   0  0  0  0  0  0  0  0  0  0  0  0
   28.1234  -11.9752  -14.0742 H   0  0  0  0  0  0  0  0  0  0  0  0
   27.6641  -11.5397  -12.3165 H   0  0  0  0  0  0  0  0  0  0  0  0
   28.4641   -9.7794  -14.2463 H   0  0  0  0  0  0  0  0  0  0  0  0
   27.4954   -9.4522  -12.7083 H   0  0  0  0  0  0  0  0  0  0  0  0
   26.3724   -8.2528  -14.3753 H   0  0  0  0  0  0  0  0  0  0  0  0
   26.5171   -9.6021  -15.5659 H   0  0  0  0  0  0  0  0  0  0  0  0
   24.3927  -10.3360  -17.5616 H   0  0  0  0  0  0  0  0  0  0  0  0
   24.0590   -8.6236  -17.0779 H   0  0  0  0  0  0  0  0  0  0  0  0
   22.5377   -8.2951  -18.7343 H   0  0  0  0  0  0  0  0  0  0  0  0
   24.8588  -10.0543  -19.7657 H   0  0  0  0  0  0  0  0  0  0  0  0
   24.6581   -8.3384  -20.0292 H   0  0  0  0  0  0  0  0  0  0  0  0
   23.2116   -8.7433  -21.8950 H   0  0  0  0  0  0  0  0  0  0  0  0
   23.6947  -10.4304  -21.8155 H   0  0  0  0  0  0  0  0  0  0  0  0
   21.1870   -9.0819  -20.6952 H   0  0  0  0  0  0  0  0  0  0  0  0
   21.3413  -10.7437  -21.2391 H   0  0  0  0  0  0  0  0  0  0  0  0
   20.3697   -9.5289  -18.4249 H   0  0  0  0  0  0  0  0  0  0  0  0
   20.2671  -11.2721  -18.7858 H   0  0  0  0  0  0  0  0  0  0  0  0
   20.5550  -10.5179  -16.3197 H   0  0  0  0  0  0  0  0  0  0  0  0
   19.7740  -12.6651  -16.7723 H   0  0  0  0  0  0  0  0  0  0  0  0
   21.7368  -14.8523  -16.0492 H   0  0  0  0  0  0  0  0  0  0  0  0
   20.0795  -14.5055  -18.6161 H   0  0  0  0  0  0  0  0  0  0  0  0
   21.8174  -14.8890  -18.4904 H   0  0  0  0  0  0  0  0  0  0  0  0
   20.5711  -16.9734  -18.9751 H   0  0  0  0  0  0  0  0  0  0  0  0
   21.1867  -17.0759  -17.3138 H   0  0  0  0  0  0  0  0  0  0  0  0
   17.0922  -17.2563  -15.9532 H   0  0  0  0  0  0  0  0  0  0  0  0
   16.5253  -16.1465  -13.7980 H   0  0  0  0  0  0  0  0  0  0  0  0
   17.9681  -14.3144  -12.9186 H   0  0  0  0  0  0  0  0  0  0  0  0
   19.9464  -13.5687  -14.2192 H   0  0  0  0  0  0  0  0  0  0  0  0
 20 21  1  0
 20 19  1  0
 21 22  1  0
  6  5  2  0
  2  1  1  0
 15 16  1  0
 15 14  1  0
 16 11  1  0
  1  3  1  0
 19 18  1  0
 19 23  1  0
 18 17  1  0
  5  3  1  0
  5  7  1  0
 22 23  1  0
 14 13  1  0
  8 11  1  0
  8  7  1  0
  8  9  1  0
 11 12  1  0
  3  4  1  0
 23 24  1  0
 17  9  1  0
 17 25  1  0
  9 10  2  0
 13 12  1  0
 24 25  1  0
 25 26  1  0
 27 26  2  0
 26 28  1  0
 28 29  1  0
 30 29  1  0
 30 31  1  0
 29 38  1  0
 31 32  1  0
 38 37  1  0
 38 33  2  0
 37 36  2  0
 32 33  1  0
 33 34  1  0
 36 35  1  0
 34 35  2  0
  1 39  1  0
  2 40  1  0
  2 41  1  0
  2 42  1  0
  3 43  1  0
  4 44  1  0
  4 45  1  0
  4 46  1  0
  7 47  1  0
  8 48  1  0
 11 49  1  0
 12 50  1  0
 12 51  1  0
 13 52  1  0
 13 53  1  0
 14 54  1  0
 14 55  1  0
 15 56  1  0
 15 57  1  0
 16 58  1  0
 16 59  1  0
 18 60  1  0
 18 61  1  0
 19 62  1  0
 20 63  1  0
 20 64  1  0
 21 65  1  0
 21 66  1  0
 22 67  1  0
 22 68  1  0
 24 69  1  0
 24 70  1  0
 25 71  1  0
 28 72  1  0
 29 73  1  0
 30 74  1  0
 30 75  1  0
 31 76  1  0
 31 77  1  0
 34 78  1  0
 35 79  1  0
 36 80  1  0
 37 81  1  0
A    1
N2
A    2
C1
A    3
C3
A    4
C5
A    5
C6
A    6
O7
A    7
N8
A    8
C9
A    9
C17
A   10
O18
A   11
C11
A   12
C12
A   13
C13
A   14
C14
A   15
C15
A   16
C16
A   17
N19
A   18
C20
A   19
C21
A   20
C23
A   21
C24
A   22
C25
A   23
N26
A   24
C27
A   25
C28
A   26
C30
A   27
O31
A   28
N32
A   29
C33
A   30
C35
A   31
C36
A   32
O37
A   33
C38
A   34
C39
A   35
C40
A   36
C41
A   37
C42
A   38
C43
M  END
