4LH6_1X7_A_401
     RDKit          3D

 20 21  0  0  0  0  0  0  0  0999 V2000
   21.6060   34.7650   20.2020 C   0  0  0  0  0  0  0  0  0  0  0  0
   20.9630   34.5590   18.9150 C   0  0  0  0  0  0  0  0  0  0  0  0
   20.3370   33.3050   18.8520 C   0  0  0  0  0  0  0  0  0  0  0  0
   20.2270   35.0290   16.6800 N   0  0  0  0  0  0  0  0  0  0  0  0
   20.8870   35.4040   17.7680 C   0  0  0  0  0  0  0  0  0  0  0  0
   18.9580   31.6590   17.5370 C   0  0  0  0  0  0  0  0  0  0  0  0
   21.4680   33.7630   21.0570 C   0  0  0  0  0  0  0  0  0  0  0  0
   19.6590   32.9490   17.6520 C   0  0  0  0  0  0  0  0  0  0  0  0
   19.6190   33.8590   16.5950 C   0  0  0  0  0  0  0  0  0  0  0  0
   21.4980   36.6420   17.7850 N   0  0  0  0  0  0  0  0  0  0  0  0
   19.0670   30.8320   18.4120 O   0  0  0  0  0  0  0  0  0  0  0  0
   18.1780   31.3970   16.4710 N   0  0  0  0  0  0  0  0  0  0  0  0
   20.5630   32.4340   20.3710 S   0  0  0  0  0  0  0  0  0  0  0  0
   22.1520   33.7150   22.8140 Br  0  0  0  0  0  0  0  0  0  0  0  0
   22.1635   35.6811   20.4467 H   0  0  0  0  0  0  0  0  0  0  0  0
   19.0727   33.5982   15.6765 H   0  0  0  0  0  0  0  0  0  0  0  0
   21.7210   37.0939   18.6833 H   0  0  0  0  0  0  0  0  0  0  0  0
   21.7308   37.1136   16.8994 H   0  0  0  0  0  0  0  0  0  0  0  0
   17.2103   31.0720   16.6084 H   0  0  0  0  0  0  0  0  0  0  0  0
   18.5491   31.5216   15.5183 H   0  0  0  0  0  0  0  0  0  0  0  0
 12  6  1  0
  9  4  2  0
  9  8  1  0
  4  5  1  0
  6  8  1  0
  6 11  2  0
  8  3  2  0
  5 10  1  0
  5  2  2  0
  3  2  1  0
  3 13  1  0
  2  1  1  0
  1  7  2  0
 13  7  1  0
  7 14  1  0
  1 15  1  0
  9 16  1  0
 10 17  1  0
 10 18  1  0
 12 19  1  0
 12 20  1  0
A    1
C1
A    2
C2
A    3
C3
A    4
N6
A    5
C7
A    6
C9
A    7
C13
A    8
C4
A    9
C5
A   10
N8
A   11
O10
A   12
N11
A   13
S12
A   14
BR1
M  END
