4LH7_1X8_A_401
     RDKit          3D

 24 25  0  0  0  0  0  0  0  0999 V2000
   21.4260   34.6200   19.9740 C   0  0  0  0  0  0  0  0  0  0  0  0
   20.7700   34.5320   18.7380 C   0  0  0  0  0  0  0  0  0  0  0  0
   20.0890   33.3150   18.5770 C   0  0  0  0  0  0  0  0  0  0  0  0
   19.3680   33.0530   17.3820 C   0  0  0  0  0  0  0  0  0  0  0  0
   19.3350   34.0390   16.4030 C   0  0  0  0  0  0  0  0  0  0  0  0
   19.9850   35.1760   16.5670 N   0  0  0  0  0  0  0  0  0  0  0  0
   20.6880   35.4620   17.6550 C   0  0  0  0  0  0  0  0  0  0  0  0
   21.3340   36.6710   17.7170 N   0  0  0  0  0  0  0  0  0  0  0  0
   18.6210   31.7790   17.2380 C   0  0  0  0  0  0  0  0  0  0  0  0
   18.9190   30.8240   17.9320 O   0  0  0  0  0  0  0  0  0  0  0  0
   17.5770   31.6500   16.3890 N   0  0  0  0  0  0  0  0  0  0  0  0
   20.3150   32.3070   19.9970 S   0  0  0  0  0  0  0  0  0  0  0  0
   21.2700   33.5490   20.7730 C   0  0  0  0  0  0  0  0  0  0  0  0
   21.7920   33.3540   22.1260 C   0  0  0  0  0  0  0  0  0  0  0  0
   21.4270   32.3560   22.7460 O   0  0  0  0  0  0  0  0  0  0  0  0
   22.5810   34.2780   22.7090 N   0  0  0  0  0  0  0  0  0  0  0  0
   22.0220   35.4967   20.2676 H   0  0  0  0  0  0  0  0  0  0  0  0
   18.7603   33.8698   15.4805 H   0  0  0  0  0  0  0  0  0  0  0  0
   21.5575   37.0892   18.6314 H   0  0  0  0  0  0  0  0  0  0  0  0
   21.5955   37.1603   16.8492 H   0  0  0  0  0  0  0  0  0  0  0  0
   16.6233   31.5322   16.7597 H   0  0  0  0  0  0  0  0  0  0  0  0
   17.7353   31.6696   15.3714 H   0  0  0  0  0  0  0  0  0  0  0  0
   22.6319   34.3376   23.7360 H   0  0  0  0  0  0  0  0  0  0  0  0
   23.1331   34.9246   22.1276 H   0  0  0  0  0  0  0  0  0  0  0  0
 11  9  1  0
  5  6  2  0
  5  4  1  0
  6  7  1  0
  9  4  1  0
  9 10  2  0
  4  3  2  0
  7  8  1  0
  7  2  2  0
  3  2  1  0
  3 12  1  0
  2  1  1  0
  1 13  2  0
 12 13  1  0
 13 14  1  0
 14 16  1  0
 14 15  2  0
  1 17  1  0
  5 18  1  0
  8 19  1  0
  8 20  1  0
 11 21  1  0
 11 22  1  0
 16 23  1  0
 16 24  1  0
A    1
C1
A    2
C2
A    3
C3
A    4
C4
A    5
C5
A    6
N6
A    7
C7
A    8
N8
A    9
C9
A   10
O10
A   11
N11
A   12
S12
A   13
C13
A   14
C14
A   15
O15
A   16
N16
M  END
