4LI5_1WY_A_1101
     RDKit          3D

 50 53  0  0  0  0  0  0  0  0999 V2000
   53.1820   -0.2120  -19.2310 C   0  0  0  0  0  0  0  0  0  0  0  0
   52.5230    0.8140  -21.2840 C   0  0  0  0  0  0  0  0  0  0  0  0
   53.4280   -0.0080  -21.9440 C   0  0  0  0  0  0  0  0  0  0  0  0
   54.1940   -0.9250  -21.2540 C   0  0  0  0  0  0  0  0  0  0  0  0
   52.2530    0.4500  -17.0070 C   0  0  0  0  0  0  0  0  0  0  0  0
   50.8200    2.3410  -16.5080 C   0  0  0  0  0  0  0  0  0  0  0  0
   50.9830    0.4840  -14.9700 C   0  0  0  0  0  0  0  0  0  0  0  0
   52.4320   -1.3750  -15.5260 O   0  0  0  0  0  0  0  0  0  0  0  0
   51.9170   -2.3220  -14.5970 C   0  0  0  0  0  0  0  0  0  0  0  0
   50.6250    4.6110  -17.6770 C   0  0  0  0  0  0  0  0  0  0  0  0
   49.8520    5.8760  -17.7220 C   0  0  0  0  0  0  0  0  0  0  0  0
   51.8320    2.4400  -23.1570 C   0  0  0  0  0  0  0  0  0  0  0  0
   50.4530    2.2880  -21.4350 C   0  0  0  0  0  0  0  0  0  0  0  0
   49.7600    2.0180  -20.2620 C   0  0  0  0  0  0  0  0  0  0  0  0
   48.0480    3.5930  -20.9510 C   0  0  0  0  0  0  0  0  0  0  0  0
   53.6460    0.0600  -23.6260 Cl  0  0  0  0  0  0  0  0  0  0  0  0
   51.6540    1.8140  -21.9310 C   0  0  0  0  0  0  0  0  0  0  0  0
   48.5520    2.6780  -20.0210 C   0  0  0  0  0  0  0  0  0  0  0  0
   48.7570    3.8550  -22.1250 C   0  0  0  0  0  0  0  0  0  0  0  0
   49.9530    3.1920  -22.3420 C   0  0  0  0  0  0  0  0  0  0  0  0
   50.7950    3.2740  -23.3780 N   0  0  0  0  0  0  0  0  0  0  0  0
   52.4170    0.6820  -19.9270 N   0  0  0  0  0  0  0  0  0  0  0  0
   54.0700   -1.0330  -19.8920 N   0  0  0  0  0  0  0  0  0  0  0  0
   53.0990   -0.3220  -17.8420 N   0  0  0  0  0  0  0  0  0  0  0  0
   51.8760   -0.1600  -15.8150 C   0  0  0  0  0  0  0  0  0  0  0  0
   50.4590    1.7160  -15.3190 C   0  0  0  0  0  0  0  0  0  0  0  0
   51.7230    1.7000  -17.3580 C   0  0  0  0  0  0  0  0  0  0  0  0
   50.2460    3.6200  -16.7720 N   0  0  0  0  0  0  0  0  0  0  0  0
   51.5540    4.4310  -18.4350 O   0  0  0  0  0  0  0  0  0  0  0  0
   50.7370    7.1310  -17.6870 C   0  0  0  0  0  0  0  0  0  0  0  0
   54.9031   -1.5686  -21.7952 H   0  0  0  0  0  0  0  0  0  0  0  0
   50.6909    0.0134  -14.0197 H   0  0  0  0  0  0  0  0  0  0  0  0
   52.1078   -1.9712  -13.5720 H   0  0  0  0  0  0  0  0  0  0  0  0
   50.8336   -2.4343  -14.7504 H   0  0  0  0  0  0  0  0  0  0  0  0
   52.4116   -3.2925  -14.7504 H   0  0  0  0  0  0  0  0  0  0  0  0
   49.1747    5.9022  -16.8556 H   0  0  0  0  0  0  0  0  0  0  0  0
   49.3053    5.8897  -18.6764 H   0  0  0  0  0  0  0  0  0  0  0  0
   52.6811    2.2817  -23.8381 H   0  0  0  0  0  0  0  0  0  0  0  0
   50.1562    1.2953  -19.5334 H   0  0  0  0  0  0  0  0  0  0  0  0
   47.0941    4.1056  -20.7578 H   0  0  0  0  0  0  0  0  0  0  0  0
   47.9943    2.4767  -19.0945 H   0  0  0  0  0  0  0  0  0  0  0  0
   48.3728    4.5743  -22.8633 H   0  0  0  0  0  0  0  0  0  0  0  0
   50.6721    3.8738  -24.2063 H   0  0  0  0  0  0  0  0  0  0  0  0
   53.7021   -1.0217  -17.3864 H   0  0  0  0  0  0  0  0  0  0  0  0
   49.7443    2.2099  -14.6443 H   0  0  0  0  0  0  0  0  0  0  0  0
   52.0192    2.1760  -18.3044 H   0  0  0  0  0  0  0  0  0  0  0  0
   49.4186    3.8482  -16.2026 H   0  0  0  0  0  0  0  0  0  0  0  0
   50.9346    7.4113  -16.6418 H   0  0  0  0  0  0  0  0  0  0  0  0
   51.6891    6.9226  -18.1971 H   0  0  0  0  0  0  0  0  0  0  0  0
   50.2211    7.9578  -18.1971 H   0  0  0  0  0  0  0  0  0  0  0  0
 16  3  1  0
 21 12  1  0
 21 20  1  0
 12 17  2  0
 20 19  2  0
 20 13  1  0
 19 15  1  0
  3  2  2  0
  3  4  1  0
 17 13  1  0
 17  2  1  0
 13 14  2  0
  2 22  1  0
  4 23  2  0
 15 18  2  0
 14 18  1  0
 22  1  2  0
 23  1  1  0
  1 24  1  0
 29 10  2  0
 24  5  1  0
 11 30  1  0
 11 10  1  0
 10 28  1  0
 27  5  1  0
 27  6  2  0
  5 25  2  0
 28  6  1  0
  6 26  1  0
 25  8  1  0
 25  7  1  0
  8  9  1  0
 26  7  2  0
  4 31  1  0
  7 32  1  0
  9 33  1  0
  9 34  1  0
  9 35  1  0
 11 36  1  0
 11 37  1  0
 12 38  1  0
 14 39  1  0
 15 40  1  0
 18 41  1  0
 19 42  1  0
 21 43  1  0
 24 44  1  0
 26 45  1  0
 27 46  1  0
 28 47  1  0
 30 48  1  0
 30 49  1  0
 30 50  1  0
A    1
C2
A    2
C3
A    3
C5
A    4
C6
A    5
C8
A    6
C11
A    7
C12
A    8
O14
A    9
C15
A   10
C17
A   11
C19
A   12
C23
A   13
C24
A   14
C27
A   15
C30
A   16
CL1
A   17
C22
A   18
C28
A   19
C29
A   20
C26
A   21
N25
A   22
N1
A   23
N4
A   24
N7
A   25
C10
A   26
C13
A   27
C9
A   28
N16
A   29
O18
A   30
C20
M  END
