4LI6_1XO_A_1406
     RDKit          3D

 50 53  0  0  0  0  0  0  0  0999 V2000
  -23.8510   -3.9880    6.1040 S   0  0  0  0  0  0  0  0  0  0  0  0
  -25.5300   -4.1180    6.4980 C   0  0  0  0  0  0  0  0  0  0  0  0
  -26.2090   -3.0000    6.2410 C   0  0  0  0  0  0  0  0  0  0  0  0
  -25.3470   -1.9480    5.6950 C   0  0  0  0  0  0  0  0  0  0  0  0
  -24.0840   -2.3560    5.5820 C   0  0  0  0  0  0  0  0  0  0  0  0
  -26.1730   -5.3660    7.0370 C   0  0  0  0  0  0  0  0  0  0  0  0
  -25.4330   -6.0630    8.0930 N   0  0  0  0  0  0  0  0  0  0  0  0
  -24.2870   -6.9120    7.7630 C   0  0  0  0  0  0  0  0  0  0  0  0
  -24.4410   -8.3980    7.8930 C   0  0  0  0  0  0  0  0  0  0  0  0
  -25.5290   -8.9750    7.5440 N   0  0  0  0  0  0  0  0  0  0  0  0
  -25.6820  -10.3130    7.6370 C   0  0  0  0  0  0  0  0  0  0  0  0
  -24.6120  -11.1060    8.0860 C   0  0  0  0  0  0  0  0  0  0  0  0
  -24.7640  -12.4920    8.1920 C   0  0  0  0  0  0  0  0  0  0  0  0
  -25.9930  -13.0650    7.8410 C   0  0  0  0  0  0  0  0  0  0  0  0
  -27.0610  -12.2760    7.3910 C   0  0  0  0  0  0  0  0  0  0  0  0
  -26.9070  -10.8900    7.2870 C   0  0  0  0  0  0  0  0  0  0  0  0
  -23.3230  -10.3940    8.4210 C   0  0  0  0  0  0  0  0  0  0  0  0
  -23.3360   -9.0550    8.3000 N   0  0  0  0  0  0  0  0  0  0  0  0
  -22.3070  -11.0120    8.7640 O   0  0  0  0  0  0  0  0  0  0  0  0
  -25.8180   -5.9170    9.3930 C   0  0  0  0  0  0  0  0  0  0  0  0
  -25.2180   -6.4920   10.3030 O   0  0  0  0  0  0  0  0  0  0  0  0
  -26.9590   -5.0040    9.8080 C   0  0  0  0  0  0  0  0  0  0  0  0
  -26.4440   -3.5300    9.9030 C   0  0  0  0  0  0  0  0  0  0  0  0
  -25.3640   -3.3570   10.9970 C   0  0  0  0  0  0  0  0  0  0  0  0
  -25.7070   -2.8090   12.2450 C   0  0  0  0  0  0  0  0  0  0  0  0
  -24.7380   -2.6470   13.2470 C   0  0  0  0  0  0  0  0  0  0  0  0
  -23.4140   -3.0340   13.0060 C   0  0  0  0  0  0  0  0  0  0  0  0
  -23.0590   -3.5790   11.7710 C   0  0  0  0  0  0  0  0  0  0  0  0
  -24.0290   -3.7350   10.7780 C   0  0  0  0  0  0  0  0  0  0  0  0
  -27.2882   -2.8812    6.4178 H   0  0  0  0  0  0  0  0  0  0  0  0
  -25.6996   -0.9449    5.4132 H   0  0  0  0  0  0  0  0  0  0  0  0
  -23.2731   -1.7205    5.1965 H   0  0  0  0  0  0  0  0  0  0  0  0
  -27.1579   -5.0898    7.4417 H   0  0  0  0  0  0  0  0  0  0  0  0
  -26.2160   -6.0677    6.1910 H   0  0  0  0  0  0  0  0  0  0  0  0
  -23.4590   -6.6117    8.4220 H   0  0  0  0  0  0  0  0  0  0  0  0
  -24.1301   -6.7490    6.6865 H   0  0  0  0  0  0  0  0  0  0  0  0
  -23.9334  -13.1210    8.5447 H   0  0  0  0  0  0  0  0  0  0  0  0
  -26.1227  -14.1545    7.9199 H   0  0  0  0  0  0  0  0  0  0  0  0
  -28.0179  -12.7462    7.1204 H   0  0  0  0  0  0  0  0  0  0  0  0
  -27.7384  -10.2618    6.9346 H   0  0  0  0  0  0  0  0  0  0  0  0
  -22.4844   -8.5201    8.5228 H   0  0  0  0  0  0  0  0  0  0  0  0
  -27.7649   -5.0628    9.0616 H   0  0  0  0  0  0  0  0  0  0  0  0
  -27.3420   -5.3210   10.7893 H   0  0  0  0  0  0  0  0  0  0  0  0
  -26.0142   -3.2418    8.9323 H   0  0  0  0  0  0  0  0  0  0  0  0
  -27.2987   -2.8904   10.1685 H   0  0  0  0  0  0  0  0  0  0  0  0
  -26.7460   -2.5039   12.4383 H   0  0  0  0  0  0  0  0  0  0  0  0
  -25.0180   -2.2168   14.2199 H   0  0  0  0  0  0  0  0  0  0  0  0
  -22.6532   -2.9084   13.7905 H   0  0  0  0  0  0  0  0  0  0  0  0
  -22.0196   -3.8844   11.5804 H   0  0  0  0  0  0  0  0  0  0  0  0
  -23.7419   -4.1621    9.8058 H   0  0  0  0  0  0  0  0  0  0  0  0
  5  4  2  0
  5  1  1  0
  4  3  1  0
  1  2  1  0
  3  2  2  0
  2  6  1  0
  6  7  1  0
 16 15  1  0
 16 11  2  0
 15 14  2  0
 10 11  1  0
 10  9  2  0
 11 12  1  0
  8  9  1  0
  8  7  1  0
 14 13  1  0
  9 18  1  0
 12 13  2  0
 12 17  1  0
  7 20  1  0
 18 17  1  0
 17 19  2  0
 20 22  1  0
 20 21  2  0
 22 23  1  0
 23 24  1  0
 29 24  1  0
 29 28  2  0
 24 25  2  0
 28 27  1  0
 25 26  1  0
 27 26  2  0
  3 30  1  0
  4 31  1  0
  5 32  1  0
  6 33  1  0
  6 34  1  0
  8 35  1  0
  8 36  1  0
 13 37  1  0
 14 38  1  0
 15 39  1  0
 16 40  1  0
 18 41  1  0
 22 42  1  0
 22 43  1  0
 23 44  1  0
 23 45  1  0
 25 46  1  0
 26 47  1  0
 27 48  1  0
 28 49  1  0
 29 50  1  0
A    1
S1
A    2
C2
A    3
C3
A    4
C5
A    5
C7
A    6
C9
A    7
N12
A    8
C13
A    9
C16
A   10
N17
A   11
C18
A   12
C19
A   13
C20
A   14
C22
A   15
C24
A   16
C26
A   17
C28
A   18
N29
A   19
O31
A   20
C32
A   21
O33
A   22
C34
A   23
C37
A   24
C40
A   25
C41
A   26
C43
A   27
C45
A   28
C47
A   29
C49
M  END
