4LJJ_6AC_A_629
     RDKit          3D

  7  6  0  0  0  0  0  0  0  0999 V2000
    5.7720    3.6160   26.8420 N   0  0  0  0  0  0  0  0  0  0  0  0
    5.1900    3.5570   27.8860 C   0  0  0  0  0  0  0  0  0  0  0  0
    4.5560    3.4630   28.9550 C   0  0  0  0  0  0  0  0  0  0  0  0
    4.0180    4.5320   29.5580 C   0  0  0  0  0  0  0  0  0  0  0  0
    4.4344    2.4724   29.4175 H   0  0  0  0  0  0  0  0  0  0  0  0
    3.4648    4.4111   30.5011 H   0  0  0  0  0  0  0  0  0  0  0  0
    4.1296    5.5304   29.1099 H   0  0  0  0  0  0  0  0  0  0  0  0
  1  2  3  0
  2  3  1  0
  3  4  2  3
  3  5  1  0
  4  6  1  0
  4  7  1  0
A    1
N1
A    2
C1
A    3
C2
A    4
C3
M  END
