1GQC_C5P_B_1243
     RDKit          3D

 35 36  0  0  0  0  0  0  0  0999 V2000
   40.8320   47.6440   56.4430 O   0  0  0  0  0  0  0  0  0  0  0  0
   39.9340   48.9690   56.2670 P   0  0  0  0  0  0  0  0  0  0  0  0
   39.4430   49.3970   57.6080 O   0  0  0  0  0  0  0  0  0  0  0  0
   38.7480   48.6410   55.4290 O   0  0  0  0  0  0  0  0  0  0  0  0
   40.7520   50.1980   55.5720 O   0  0  0  0  0  0  0  0  0  0  0  0
   40.6440   50.8070   54.2620 C   0  0  0  0  0  0  0  0  0  0  0  0
   41.9370   50.7300   53.3310 C   0  0  0  0  0  0  0  0  0  0  0  0
   43.1160   51.1500   54.0460 O   0  0  0  0  0  0  0  0  0  0  0  0
   42.2630   49.3150   52.7700 C   0  0  0  0  0  0  0  0  0  0  0  0
   42.6990   49.4460   51.4140 O   0  0  0  0  0  0  0  0  0  0  0  0
   43.4000   48.8320   53.6600 C   0  0  0  0  0  0  0  0  0  0  0  0
   44.2750   47.8650   53.0610 O   0  0  0  0  0  0  0  0  0  0  0  0
   44.1530   50.1240   54.0260 C   0  0  0  0  0  0  0  0  0  0  0  0
   44.8410   49.9440   55.3230 N   0  0  0  0  0  0  0  0  0  0  0  0
   46.2110   49.7250   55.4030 C   0  0  0  0  0  0  0  0  0  0  0  0
   46.8250   49.5540   56.7150 N   0  0  0  0  0  0  0  0  0  0  0  0
   46.1390   49.6000   57.8180 C   0  0  0  0  0  0  0  0  0  0  0  0
   44.6790   49.8350   57.7040 C   0  0  0  0  0  0  0  0  0  0  0  0
   44.1050   49.9930   56.4930 C   0  0  0  0  0  0  0  0  0  0  0  0
   46.9620   49.6640   54.4360 O   0  0  0  0  0  0  0  0  0  0  0  0
   46.6810   49.4480   58.9870 N   0  0  0  0  0  0  0  0  0  0  0  0
   40.9588   47.4569   57.4069 H   0  0  0  0  0  0  0  0  0  0  0  0
   37.9787   48.4283   56.0147 H   0  0  0  0  0  0  0  0  0  0  0  0
   39.8193   50.3104   53.7298 H   0  0  0  0  0  0  0  0  0  0  0  0
   40.4863   51.8789   54.4521 H   0  0  0  0  0  0  0  0  0  0  0  0
   41.6840   51.3944   52.4916 H   0  0  0  0  0  0  0  0  0  0  0  0
   41.4088   48.6219   52.7731 H   0  0  0  0  0  0  0  0  0  0  0  0
   43.6470   49.7308   51.3982 H   0  0  0  0  0  0  0  0  0  0  0  0
   43.0008   48.2847   54.5266 H   0  0  0  0  0  0  0  0  0  0  0  0
   44.7376   47.3538   53.7715 H   0  0  0  0  0  0  0  0  0  0  0  0
   44.9485   50.4029   53.3193 H   0  0  0  0  0  0  0  0  0  0  0  0
   44.0602   49.8808   58.6123 H   0  0  0  0  0  0  0  0  0  0  0  0
   43.0202   50.1658   56.4347 H   0  0  0  0  0  0  0  0  0  0  0  0
   46.1223   49.6047   59.8380 H   0  0  0  0  0  0  0  0  0  0  0  0
   47.6700   49.1707   59.0640 H   0  0  0  0  0  0  0  0  0  0  0  0
  1  2  1  0
  2  3  2  0
  2  4  1  0
  2  5  1  0
  5  6  1  0
  6  7  1  0
  7  8  1  0
  7  9  1  0
  8 13  1  0
  9 10  1  0
  9 11  1  0
 11 12  1  0
 11 13  1  0
 13 14  1  0
 14 15  1  0
 14 19  1  0
 15 16  1  0
 15 20  2  0
 16 17  2  0
 17 18  1  0
 17 21  1  0
 18 19  2  0
  1 22  1  0
  4 23  1  0
  6 24  1  0
  6 25  1  0
  7 26  1  0
  9 27  1  0
 10 28  1  0
 11 29  1  0
 12 30  1  0
 13 31  1  0
 18 32  1  0
 19 33  1  0
 21 34  1  0
 21 35  1  0
A    1
O3P
A    2
P
A    3
O1P
A    4
O2P
A    5
O5'
A    6
C5'
A    7
C4'
A    8
O4'
A    9
C3'
A   10
O3'
A   11
C2'
A   12
O2'
A   13
C1'
A   14
N1
A   15
C2
A   16
N3
A   17
C4
A   18
C5
A   19
C6
A   20
O2
A   21
N4
M  END
