4LN7_1ZQ_A_306
     RDKit          3D

 33 35  0  0  0  0  0  0  0  0999 V2000
    9.3570   20.0570   -8.3030 O   0  0  0  0  0  0  0  0  0  0  0  0
    9.9160   20.8670   -9.2440 C   0  0  0  0  0  0  0  0  0  0  0  0
   10.3090   22.1210   -8.8160 C   0  0  0  0  0  0  0  0  0  0  0  0
   10.1010   22.4330   -7.4890 O   0  0  0  0  0  0  0  0  0  0  0  0
   10.9130   22.9900   -9.7160 C   0  0  0  0  0  0  0  0  0  0  0  0
   11.0970   22.5480  -11.0160 C   0  0  0  0  0  0  0  0  0  0  0  0
   11.7560   23.5070  -11.9400 C   0  0  0  0  0  0  0  0  0  0  0  0
   13.0430   23.2330  -12.3950 C   0  0  0  0  0  0  0  0  0  0  0  0
   13.6690   24.1450  -13.2430 C   0  0  0  0  0  0  0  0  0  0  0  0
   13.0180   25.3130  -13.6120 C   0  0  0  0  0  0  0  0  0  0  0  0
   13.6280   26.1760  -14.4290 F   0  0  0  0  0  0  0  0  0  0  0  0
   11.7370   25.5780  -13.1340 C   0  0  0  0  0  0  0  0  0  0  0  0
   11.1000   24.6810  -12.2770 C   0  0  0  0  0  0  0  0  0  0  0  0
   10.6790   21.2650  -11.3880 C   0  0  0  0  0  0  0  0  0  0  0  0
   10.8590   20.6860  -12.7510 C   0  0  0  0  0  0  0  0  0  0  0  0
   11.4430   19.4220  -12.8600 C   0  0  0  0  0  0  0  0  0  0  0  0
   11.6480   18.8150  -14.1040 C   0  0  0  0  0  0  0  0  0  0  0  0
   11.2590   19.4960  -15.2450 C   0  0  0  0  0  0  0  0  0  0  0  0
   11.4270   18.9520  -16.4620 F   0  0  0  0  0  0  0  0  0  0  0  0
   10.6740   20.7510  -15.1320 C   0  0  0  0  0  0  0  0  0  0  0  0
   10.4690   21.3630  -13.9070 C   0  0  0  0  0  0  0  0  0  0  0  0
   10.1180   20.4630  -10.4770 N   0  0  0  0  0  0  0  0  0  0  0  0
    9.4903   20.2502   -7.3412 H   0  0  0  0  0  0  0  0  0  0  0  0
   10.4840   21.8585   -6.7795 H   0  0  0  0  0  0  0  0  0  0  0  0
   11.2344   23.9955   -9.4067 H   0  0  0  0  0  0  0  0  0  0  0  0
   13.5582   22.3103  -12.0897 H   0  0  0  0  0  0  0  0  0  0  0  0
   14.6813   23.9381  -13.6204 H   0  0  0  0  0  0  0  0  0  0  0  0
   11.2232   26.5029  -13.4351 H   0  0  0  0  0  0  0  0  0  0  0  0
   10.0990   24.9001  -11.8771 H   0  0  0  0  0  0  0  0  0  0  0  0
   11.7490   18.8912  -11.9464 H   0  0  0  0  0  0  0  0  0  0  0  0
   12.1082   17.8184  -14.1739 H   0  0  0  0  0  0  0  0  0  0  0  0
   10.3630   21.2765  -16.0470 H   0  0  0  0  0  0  0  0  0  0  0  0
   10.0091   22.3604  -13.8465 H   0  0  0  0  0  0  0  0  0  0  0  0
 19 18  1  0
 18 20  2  0
 18 17  1  0
 20 21  1  0
 11 10  1  0
 17 16  2  0
 21 15  2  0
 10  9  1  0
 10 12  2  0
  9  8  2  0
 12 13  1  0
 16 15  1  0
 15 14  1  0
  8  7  1  0
 13  7  2  0
  7  6  1  0
 14  6  2  0
 14 22  1  0
  6  5  1  0
 22  2  2  0
  5  3  2  0
  2  3  1  0
  2  1  1  0
  3  4  1  0
  1 23  1  0
  4 24  1  0
  5 25  1  0
  8 26  1  0
  9 27  1  0
 12 28  1  0
 13 29  1  0
 16 30  1  0
 17 31  1  0
 20 32  1  0
 21 33  1  0
A    1
O01
A    2
C02
A    3
C03
A    4
O04
A    5
C05
A    6
C06
A    7
C07
A    8
C08
A    9
C09
A   10
C10
A   11
F11
A   12
C12
A   13
C13
A   14
C14
A   15
C15
A   16
C16
A   17
C17
A   18
C18
A   19
F19
A   20
C20
A   21
C21
A   22
N22
M  END
