4LP0_1YM_A_301
     RDKit          3D

 44 46  0  0  0  0  0  0  0  0999 V2000
   19.3560   33.8070    1.5980 C   0  0  0  0  0  0  0  0  0  0  0  0
   19.0640   32.3320    1.9600 C   0  0  0  0  0  0  0  0  0  0  0  0
   17.9520   30.5260    3.7400 O   0  0  0  0  0  0  0  0  0  0  0  0
   16.0100   31.6720    3.9670 N   0  0  0  0  0  0  0  0  0  0  0  0
   15.3470   30.9040    4.8690 C   0  0  0  0  0  0  0  0  0  0  0  0
   15.7810   29.6270    5.2890 C   0  0  0  0  0  0  0  0  0  0  0  0
   14.9560   28.9750    6.2430 C   0  0  0  0  0  0  0  0  0  0  0  0
   13.7930   29.5990    6.7600 C   0  0  0  0  0  0  0  0  0  0  0  0
   13.4450   30.8690    6.2880 C   0  0  0  0  0  0  0  0  0  0  0  0
   12.8580   28.9840    7.7140 C   0  0  0  0  0  0  0  0  0  0  0  0
   12.4400   27.6600    7.4910 C   0  0  0  0  0  0  0  0  0  0  0  0
   11.4910   27.1420    8.4100 C   0  0  0  0  0  0  0  0  0  0  0  0
   11.0050   27.9400    9.4520 C   0  0  0  0  0  0  0  0  0  0  0  0
   10.9880   25.7460    8.3020 C   0  0  0  0  0  0  0  0  0  0  0  0
   15.3850   27.6740    6.7180 C   0  0  0  0  0  0  0  0  0  0  0  0
   15.2010   27.1180    7.9120 N   0  0  0  0  0  0  0  0  0  0  0  0
   15.7470   25.9310    8.1180 C   0  0  0  0  0  0  0  0  0  0  0  0
   15.4780   25.2390    9.4230 C   0  0  0  0  0  0  0  0  0  0  0  0
   17.7130   32.4000    2.5620 N   0  0  0  0  0  0  0  0  0  0  0  0
   17.2550   31.4710    3.4420 C   0  0  0  0  0  0  0  0  0  0  0  0
   14.2540   31.4630    5.3970 N   0  0  0  0  0  0  0  0  0  0  0  0
   11.3870   29.2040    9.6180 N   0  0  0  0  0  0  0  0  0  0  0  0
   12.2850   29.7240    8.7740 C   0  0  0  0  0  0  0  0  0  0  0  0
   11.1780   25.0130    7.3330 O   0  0  0  0  0  0  0  0  0  0  0  0
   10.2600   25.2380    9.3120 O   0  0  0  0  0  0  0  0  0  0  0  0
   16.5340   25.3130    7.1790 C   0  0  0  0  0  0  0  0  0  0  0  0
   16.4820   26.5590    5.8610 S   0  0  0  0  0  0  0  0  0  0  0  0
   15.5820   26.0580   10.5490 F   0  0  0  0  0  0  0  0  0  0  0  0
   14.1870   24.7600    9.4130 F   0  0  0  0  0  0  0  0  0  0  0  0
   16.3070   24.1310    9.4620 F   0  0  0  0  0  0  0  0  0  0  0  0
   19.4724   34.3948    2.5205 H   0  0  0  0  0  0  0  0  0  0  0  0
   20.2827   33.8632    1.0080 H   0  0  0  0  0  0  0  0  0  0  0  0
   18.5206   34.2121    1.0080 H   0  0  0  0  0  0  0  0  0  0  0  0
   19.0656   31.6964    1.0622 H   0  0  0  0  0  0  0  0  0  0  0  0
   19.8167   31.8923    2.6309 H   0  0  0  0  0  0  0  0  0  0  0  0
   15.5120   32.5112    3.6373 H   0  0  0  0  0  0  0  0  0  0  0  0
   16.7013   29.1662    4.9009 H   0  0  0  0  0  0  0  0  0  0  0  0
   12.5301   31.3689    6.6388 H   0  0  0  0  0  0  0  0  0  0  0  0
   12.8261   27.0609    6.6531 H   0  0  0  0  0  0  0  0  0  0  0  0
   10.2817   27.5072   10.1588 H   0  0  0  0  0  0  0  0  0  0  0  0
   17.0955   33.1828    2.3035 H   0  0  0  0  0  0  0  0  0  0  0  0
   12.5907   30.7718    8.9103 H   0  0  0  0  0  0  0  0  0  0  0  0
   10.5201   25.4195   10.2498 H   0  0  0  0  0  0  0  0  0  0  0  0
   17.0485   24.3414    7.2150 H   0  0  0  0  0  0  0  0  0  0  0  0
  1  2  1  0
  2 19  1  0
 19 20  1  0
 20  3  2  0
 20  4  1  0
  4  5  1  0
  5  6  2  0
  5 21  1  0
  6  7  1  0
 21  9  2  0
 27 15  1  0
 27 26  1  0
  7 15  1  0
  7  8  2  0
  9  8  1  0
 15 16  2  0
  8 10  1  0
 26 17  2  0
 24 14  2  0
 11 10  2  0
 11 12  1  0
 10 23  1  0
 16 17  1  0
 17 18  1  0
 14 12  1  0
 14 25  1  0
 12 13  2  0
 23 22  2  0
 29 18  1  0
 18 30  1  0
 18 28  1  0
 13 22  1  0
  1 31  1  0
  1 32  1  0
  1 33  1  0
  2 34  1  0
  2 35  1  0
  4 36  1  0
  6 37  1  0
  9 38  1  0
 11 39  1  0
 13 40  1  0
 19 41  1  0
 23 42  1  0
 25 43  1  0
 26 44  1  0
A    1
C1
A    2
C2
A    3
O5
A    4
N6
A    5
C7
A    6
C8
A    7
C9
A    8
C10
A    9
C11
A   10
C13
A   11
C14
A   12
C15
A   13
C16
A   14
C19
A   15
C22
A   16
N23
A   17
C24
A   18
C27
A   19
N3
A   20
C4
A   21
N12
A   22
N17
A   23
C18
A   24
O20
A   25
O21
A   26
C25
A   27
S26
A   28
F28
A   29
F29
A   30
F30
M  END
