4JVJ_1MV_F_401
     RDKit          3D

 41 43  0  0  0  0  0  0  0  0999 V2000
   15.9610   32.3150  -10.2440 O   0  0  0  0  0  0  0  0  0  0  0  0
   16.3110   33.7740   -9.7350 P   0  0  0  0  0  0  0  0  0  0  0  0
   17.5570   33.6370   -8.9470 O   0  0  0  0  0  0  0  0  0  0  0  0
   16.2570   34.7280  -10.8700 O   0  0  0  0  0  0  0  0  0  0  0  0
   14.8690   34.1420   -8.5700 C   0  0  0  0  0  0  0  0  0  0  0  0
   15.2550   35.6150   -7.5260 P   0  0  0  0  0  0  0  0  0  0  0  0
   14.9220   35.0810   -6.0500 O   0  0  0  0  0  0  0  0  0  0  0  0
   16.7050   35.8710   -7.6260 O   0  0  0  0  0  0  0  0  0  0  0  0
   14.3090   36.7220   -7.8550 O   0  0  0  0  0  0  0  0  0  0  0  0
   14.5410   32.9530   -7.7370 N   0  0  0  0  0  0  0  0  0  0  0  0
   13.8710   31.9480   -8.2990 C   0  0  0  0  0  0  0  0  0  0  0  0
   12.7620   32.2600   -8.9890 N   0  0  0  0  0  0  0  0  0  0  0  0
   12.0430   31.2580   -9.6210 C   0  0  0  0  0  0  0  0  0  0  0  0
   12.5260   29.9510   -9.5200 N   0  0  0  0  0  0  0  0  0  0  0  0
   13.6530   29.7060   -8.8170 C   0  0  0  0  0  0  0  0  0  0  0  0
   14.4350   28.3020   -8.5330 S   0  0  0  0  0  0  0  0  0  0  0  0
   14.3500   30.6820   -8.1960 C   0  0  0  0  0  0  0  0  0  0  0  0
   15.4480   30.1770   -7.5500 C   0  0  0  0  0  0  0  0  0  0  0  0
   15.6110   28.8360   -7.6760 C   0  0  0  0  0  0  0  0  0  0  0  0
   16.5530   28.0070   -7.1560 C   0  0  0  0  0  0  0  0  0  0  0  0
   16.8100   26.7570   -7.7420 C   0  0  0  0  0  0  0  0  0  0  0  0
   17.7550   25.8670   -7.2050 C   0  0  0  0  0  0  0  0  0  0  0  0
   18.4750   26.1880   -6.0580 C   0  0  0  0  0  0  0  0  0  0  0  0
   19.4090   25.2720   -5.5550 C   0  0  0  0  0  0  0  0  0  0  0  0
   18.2280   27.4280   -5.4520 C   0  0  0  0  0  0  0  0  0  0  0  0
   17.2780   28.3160   -5.9940 C   0  0  0  0  0  0  0  0  0  0  0  0
   17.3409   33.6608   -7.9812 H   0  0  0  0  0  0  0  0  0  0  0  0
   16.2046   35.6531  -10.5213 H   0  0  0  0  0  0  0  0  0  0  0  0
   13.9785   34.3739   -9.1727 H   0  0  0  0  0  0  0  0  0  0  0  0
   17.0915   35.9392   -6.7171 H   0  0  0  0  0  0  0  0  0  0  0  0
   13.9662   37.1231   -7.0173 H   0  0  0  0  0  0  0  0  0  0  0  0
   14.8257   32.9082   -6.7481 H   0  0  0  0  0  0  0  0  0  0  0  0
   11.1244   31.4838  -10.1824 H   0  0  0  0  0  0  0  0  0  0  0  0
   16.1417   30.8083   -6.9753 H   0  0  0  0  0  0  0  0  0  0  0  0
   16.2559   26.4666   -8.6468 H   0  0  0  0  0  0  0  0  0  0  0  0
   17.9289   24.8999   -7.6995 H   0  0  0  0  0  0  0  0  0  0  0  0
   19.3876   25.2930   -4.4554 H   0  0  0  0  0  0  0  0  0  0  0  0
   19.1573   24.2608   -5.9074 H   0  0  0  0  0  0  0  0  0  0  0  0
   20.4151   25.5433   -5.9074 H   0  0  0  0  0  0  0  0  0  0  0  0
   18.7815   27.7103   -4.5443 H   0  0  0  0  0  0  0  0  0  0  0  0
   17.0992   29.2786   -5.4926 H   0  0  0  0  0  0  0  0  0  0  0  0
  1  2  2  0
  2  3  1  0
  2  4  1  0
  2  5  1  0
  5  6  1  0
  5 10  1  0
  6  7  2  0
  6  8  1  0
  6  9  1  0
 10 11  1  0
 11 12  2  0
 11 17  1  0
 12 13  1  0
 13 14  2  0
 14 15  1  0
 15 16  1  0
 15 17  2  0
 16 19  1  0
 17 18  1  0
 18 19  2  0
 19 20  1  0
 20 21  2  0
 20 26  1  0
 21 22  1  0
 22 23  2  0
 23 24  1  0
 23 25  1  0
 25 26  2  0
  3 27  1  0
  4 28  1  0
  5 29  1  0
  8 30  1  0
  9 31  1  0
 10 32  1  0
 13 33  1  0
 18 34  1  0
 21 35  1  0
 22 36  1  0
 24 37  1  0
 24 38  1  0
 24 39  1  0
 25 40  1  0
 26 41  1  0
A    1
OAU
A    2
PAS
A    3
OAV
A    4
OAW
A    5
CAR
A    6
PAT
A    7
OAX
A    8
OAZ
A    9
OAY
A   10
NAJ
A   11
C4
A   12
N3
A   13
C2
A   14
N1
A   15
C6
A   16
SAE
A   17
C5
A   18
CAC
A   19
CAD
A   20
CAK
A   21
CAL
A   22
CAM
A   23
CAN
A   24
CAQ
A   25
CAO
A   26
CAP
M  END
