4LPH_YL3_F_402
     RDKit          3D

 36 38  0  0  0  0  0  0  0  0999 V2000
    9.4640   71.5080   26.8230 O   0  0  0  0  0  0  0  0  0  0  0  0
    8.1020   71.9090   25.9810 P   0  0  0  0  0  0  0  0  0  0  0  0
    7.6670   73.3090   26.4040 O   0  0  0  0  0  0  0  0  0  0  0  0
    8.2080   71.5190   24.5460 O   0  0  0  0  0  0  0  0  0  0  0  0
    6.9960   70.7540   26.5990 C   0  0  0  0  0  0  0  0  0  0  0  0
    6.3720   71.5650   27.6570 N   0  0  0  0  0  0  0  0  0  0  0  0
    5.1220   71.3740   27.9910 C   0  0  0  0  0  0  0  0  0  0  0  0
    4.7410   70.0950   28.1780 N   0  0  0  0  0  0  0  0  0  0  0  0
    3.4360   69.8210   28.5490 C   0  0  0  0  0  0  0  0  0  0  0  0
    2.5990   70.9200   28.6980 N   0  0  0  0  0  0  0  0  0  0  0  0
    3.0600   72.1780   28.4940 C   0  0  0  0  0  0  0  0  0  0  0  0
    2.2850   73.5430   28.6340 S   0  0  0  0  0  0  0  0  0  0  0  0
    4.3280   72.4640   28.1280 C   0  0  0  0  0  0  0  0  0  0  0  0
    4.5830   73.8320   27.9770 C   0  0  0  0  0  0  0  0  0  0  0  0
    3.5170   74.6600   28.2220 C   0  0  0  0  0  0  0  0  0  0  0  0
    3.3550   76.0570   28.1690 C   0  0  0  0  0  0  0  0  0  0  0  0
    4.3920   77.0300   28.2180 C   0  0  0  0  0  0  0  0  0  0  0  0
    4.1380   78.4170   28.1240 C   0  0  0  0  0  0  0  0  0  0  0  0
    2.8400   78.9150   28.0190 C   0  0  0  0  0  0  0  0  0  0  0  0
    2.5660   80.3080   27.9670 C   0  0  0  0  0  0  0  0  0  0  0  0
    1.8030   77.9870   27.9740 C   0  0  0  0  0  0  0  0  0  0  0  0
    2.0640   76.6130   28.0670 C   0  0  0  0  0  0  0  0  0  0  0  0
    9.2796   71.5623   27.7942 H   0  0  0  0  0  0  0  0  0  0  0  0
    7.6497   73.3647   27.3923 H   0  0  0  0  0  0  0  0  0  0  0  0
    6.2661   70.4364   25.8399 H   0  0  0  0  0  0  0  0  0  0  0  0
    7.4437   69.8070   26.9347 H   0  0  0  0  0  0  0  0  0  0  0  0
    6.9244   72.2890   28.1383 H   0  0  0  0  0  0  0  0  0  0  0  0
    3.0821   68.7930   28.7162 H   0  0  0  0  0  0  0  0  0  0  0  0
    5.5704   74.2167   27.6821 H   0  0  0  0  0  0  0  0  0  0  0  0
    5.4316   76.6895   28.3335 H   0  0  0  0  0  0  0  0  0  0  0  0
    4.9840   79.1200   28.1339 H   0  0  0  0  0  0  0  0  0  0  0  0
    2.4880   80.7048   28.9900 H   0  0  0  0  0  0  0  0  0  0  0  0
    3.3802   80.8223   27.4354 H   0  0  0  0  0  0  0  0  0  0  0  0
    1.6177   80.4756   27.4354 H   0  0  0  0  0  0  0  0  0  0  0  0
    0.7658   78.3365   27.8641 H   0  0  0  0  0  0  0  0  0  0  0  0
    1.2061   75.9245   28.0599 H   0  0  0  0  0  0  0  0  0  0  0  0
  4  2  2  0
  2  3  1  0
  2  5  1  0
  2  1  1  0
  5  6  1  0
  6  7  1  0
 20 19  1  0
 21 19  2  0
 21 22  1  0
 14 13  1  0
 14 15  2  0
  7 13  2  0
  7  8  1  0
 19 18  1  0
 22 16  2  0
 18 17  2  0
 13 11  1  0
 16 17  1  0
 16 15  1  0
  8  9  2  0
 15 12  1  0
 11 12  1  0
 11 10  2  0
  9 10  1  0
  1 23  1  0
  3 24  1  0
  5 25  1  0
  5 26  1  0
  6 27  1  0
  9 28  1  0
 14 29  1  0
 17 30  1  0
 18 31  1  0
 20 32  1  0
 20 33  1  0
 20 34  1  0
 21 35  1  0
 22 36  1  0
A    1
OAT
A    2
PAS
A    3
OAU
A    4
OAV
A    5
CAR
A    6
NAJ
A    7
C4
A    8
N3
A    9
C2
A   10
N1
A   11
C6
A   12
SAE
A   13
C5
A   14
CAC
A   15
CAD
A   16
CAK
A   17
CAL
A   18
CAM
A   19
CAN
A   20
CAQ
A   21
CAO
A   22
CAP
M  END
