4LS0_B3B_A_413
     RDKit          3D

 35 37  0  0  0  0  0  0  0  0999 V2000
  -34.5840  -16.0740    5.3640 O   0  0  0  0  0  0  0  0  0  0  0  0
  -34.6430  -17.0870    4.6720 C   0  0  0  0  0  0  0  0  0  0  0  0
  -34.9390  -17.1160    3.2030 C   0  0  0  0  0  0  0  0  0  0  0  0
  -34.7830  -16.0230    2.3520 C   0  0  0  0  0  0  0  0  0  0  0  0
  -35.0660  -16.1380    0.9870 C   0  0  0  0  0  0  0  0  0  0  0  0
  -35.5180  -17.3460    0.4620 C   0  0  0  0  0  0  0  0  0  0  0  0
  -35.6840  -18.4410    1.3040 C   0  0  0  0  0  0  0  0  0  0  0  0
  -35.3850  -18.3230    2.6590 C   0  0  0  0  0  0  0  0  0  0  0  0
  -34.2970  -14.7230    2.8580 C   0  0  0  0  0  0  0  0  0  0  0  0
  -33.6320  -13.9890    2.0950 N   0  0  0  0  0  0  0  0  0  0  0  0
  -33.1660  -12.8450    2.5430 N   0  0  0  0  0  0  0  0  0  0  0  0
  -32.6520  -11.9930    1.6410 C   0  0  0  0  0  0  0  0  0  0  0  0
  -32.5040  -10.6790    1.8740 N   0  0  0  0  0  0  0  0  0  0  0  0
  -31.9670  -10.0250    0.7970 C   0  0  0  0  0  0  0  0  0  0  0  0
  -31.6980  -10.8170   -0.3380 C   0  0  0  0  0  0  0  0  0  0  0  0
  -32.1480  -12.4500    0.0610 S   0  0  0  0  0  0  0  0  0  0  0  0
  -31.7670   -8.5620    0.8510 C   0  0  0  0  0  0  0  0  0  0  0  0
  -31.9940   -7.8140   -0.2970 C   0  0  0  0  0  0  0  0  0  0  0  0
  -31.8340   -6.4360   -0.2480 C   0  0  0  0  0  0  0  0  0  0  0  0
  -31.4670   -5.8140    0.9410 C   0  0  0  0  0  0  0  0  0  0  0  0
  -31.2620   -6.5710    2.0910 C   0  0  0  0  0  0  0  0  0  0  0  0
  -31.4260   -7.9500    2.0490 C   0  0  0  0  0  0  0  0  0  0  0  0
  -34.4641  -18.0510    5.1707 H   0  0  0  0  0  0  0  0  0  0  0  0
  -34.9308  -15.2700    0.3250 H   0  0  0  0  0  0  0  0  0  0  0  0
  -35.7423  -17.4339   -0.6113 H   0  0  0  0  0  0  0  0  0  0  0  0
  -36.0502  -19.3967    0.9008 H   0  0  0  0  0  0  0  0  0  0  0  0
  -35.5024  -19.1984    3.3146 H   0  0  0  0  0  0  0  0  0  0  0  0
  -34.5164  -14.4062    3.8883 H   0  0  0  0  0  0  0  0  0  0  0  0
  -33.1938  -12.6111    3.5457 H   0  0  0  0  0  0  0  0  0  0  0  0
  -31.2822  -10.4685   -1.2949 H   0  0  0  0  0  0  0  0  0  0  0  0
  -32.2966   -8.3070   -1.2326 H   0  0  0  0  0  0  0  0  0  0  0  0
  -31.9981   -5.8332   -1.1533 H   0  0  0  0  0  0  0  0  0  0  0  0
  -31.3386   -4.7220    0.9724 H   0  0  0  0  0  0  0  0  0  0  0  0
  -30.9709   -6.0787    3.0306 H   0  0  0  0  0  0  0  0  0  0  0  0
  -31.2866   -8.5524    2.9588 H   0  0  0  0  0  0  0  0  0  0  0  0
 15 16  1  0
 15 14  2  0
 18 19  2  0
 18 17  1  0
 19 20  1  0
 16 12  1  0
  6  5  2  0
  6  7  1  0
 14 17  1  0
 14 13  1  0
 17 22  2  0
 20 21  2  0
  5  4  1  0
  7  8  2  0
 12 13  2  0
 12 11  1  0
 22 21  1  0
 10 11  1  0
 10  9  2  0
  4  9  1  0
  4  3  2  0
  8  3  1  0
  3  2  1  0
  2  1  2  0
  2 23  1  0
  5 24  1  0
  6 25  1  0
  7 26  1  0
  8 27  1  0
  9 28  1  0
 11 29  1  0
 15 30  1  0
 18 31  1  0
 19 32  1  0
 20 33  1  0
 21 34  1  0
 22 35  1  0
A    1
O8
A    2
C7
A    3
C5
A    4
C6
A    5
C1
A    6
C2
A    7
C3
A    8
C4
A    9
C9
A   10
N10
A   11
N11
A   12
C12
A   13
N13
A   14
C14
A   15
C15
A   16
S16
A   17
C17
A   18
C18
A   19
C19
A   20
C20
A   21
C21
A   22
C22
M  END
