4LS2_3XS_A_409
     RDKit          3D

 40 42  0  0  0  0  0  0  0  0999 V2000
   32.6900  -20.5450   25.8010 O   0  0  0  0  0  0  0  0  0  0  0  0
   31.9210  -21.3490   25.2270 C   0  0  0  0  0  0  0  0  0  0  0  0
   31.0070  -21.9130   25.8860 O   0  0  0  0  0  0  0  0  0  0  0  0
   32.1410  -21.5940   23.7430 C   0  0  0  0  0  0  0  0  0  0  0  0
   33.4260  -21.4360   23.2180 C   0  0  0  0  0  0  0  0  0  0  0  0
   33.6810  -21.6460   21.8630 C   0  0  0  0  0  0  0  0  0  0  0  0
   32.6510  -22.0180   21.0020 C   0  0  0  0  0  0  0  0  0  0  0  0
   31.3650  -22.1810   21.5190 C   0  0  0  0  0  0  0  0  0  0  0  0
   31.1180  -21.9740   22.8810 C   0  0  0  0  0  0  0  0  0  0  0  0
   29.7420  -22.1270   23.3820 C   0  0  0  0  0  0  0  0  0  0  0  0
   28.7930  -22.0980   22.5720 N   0  0  0  0  0  0  0  0  0  0  0  0
   27.6380  -22.1870   22.9980 N   0  0  0  0  0  0  0  0  0  0  0  0
   26.6600  -22.1710   22.0600 C   0  0  0  0  0  0  0  0  0  0  0  0
   26.8620  -21.4830   20.4980 S   0  0  0  0  0  0  0  0  0  0  0  0
   25.2520  -21.9450   20.0240 C   0  0  0  0  0  0  0  0  0  0  0  0
   24.6640  -22.6040   21.1220 C   0  0  0  0  0  0  0  0  0  0  0  0
   25.4580  -22.7430   22.2330 N   0  0  0  0  0  0  0  0  0  0  0  0
   23.3170  -23.2160   21.1080 C   0  0  0  0  0  0  0  0  0  0  0  0
   22.5890  -23.3540   22.2780 C   0  0  0  0  0  0  0  0  0  0  0  0
   21.3370  -23.9610   22.2370 C   0  0  0  0  0  0  0  0  0  0  0  0
   20.5950  -24.0770   23.3840 O   0  0  0  0  0  0  0  0  0  0  0  0
   20.8790  -23.2250   24.4930 C   0  0  0  0  0  0  0  0  0  0  0  0
   20.8450  -24.4650   21.0400 C   0  0  0  0  0  0  0  0  0  0  0  0
   21.5960  -24.3580   19.8780 C   0  0  0  0  0  0  0  0  0  0  0  0
   22.8400  -23.7430   19.9150 C   0  0  0  0  0  0  0  0  0  0  0  0
   31.0295  -21.8991   26.8756 H   0  0  0  0  0  0  0  0  0  0  0  0
   34.2501  -21.1411   23.8842 H   0  0  0  0  0  0  0  0  0  0  0  0
   34.7011  -21.5172   21.4720 H   0  0  0  0  0  0  0  0  0  0  0  0
   32.8481  -22.1806   19.9321 H   0  0  0  0  0  0  0  0  0  0  0  0
   30.5407  -22.4739   20.8521 H   0  0  0  0  0  0  0  0  0  0  0  0
   29.5528  -22.2651   24.4568 H   0  0  0  0  0  0  0  0  0  0  0  0
   27.4304  -22.2683   24.0036 H   0  0  0  0  0  0  0  0  0  0  0  0
   24.7808  -21.7572   19.0479 H   0  0  0  0  0  0  0  0  0  0  0  0
   22.9966  -22.9871   23.2315 H   0  0  0  0  0  0  0  0  0  0  0  0
   20.6971  -23.7707   25.4306 H   0  0  0  0  0  0  0  0  0  0  0  0
   21.9315  -22.9078   24.4516 H   0  0  0  0  0  0  0  0  0  0  0  0
   20.2274  -22.3398   24.4516 H   0  0  0  0  0  0  0  0  0  0  0  0
   19.8580  -24.9500   21.0130 H   0  0  0  0  0  0  0  0  0  0  0  0
   21.2068  -24.7592   18.9306 H   0  0  0  0  0  0  0  0  0  0  0  0
   23.4472  -23.6732   19.0004 H   0  0  0  0  0  0  0  0  0  0  0  0
 24 25  2  0
 24 23  1  0
 25 18  1  0
 15 14  1  0
 15 16  2  0
 14 13  1  0
 23 20  2  0
  7  8  2  0
  7  6  1  0
 18 16  1  0
 18 19  2  0
 16 17  1  0
  8  9  1  0
  6  5  2  0
 13 17  2  0
 13 12  1  0
 20 19  1  0
 20 21  1  0
 11 12  1  0
 11 10  2  0
  9 10  1  0
  9  4  2  0
  5  4  1  0
 21 22  1  0
  4  2  1  0
  2  1  2  0
  2  3  1  0
  3 26  1  0
  5 27  1  0
  6 28  1  0
  7 29  1  0
  8 30  1  0
 10 31  1  0
 12 32  1  0
 15 33  1  0
 19 34  1  0
 22 35  1  0
 22 36  1  0
 22 37  1  0
 23 38  1  0
 24 39  1  0
 25 40  1  0
A    1
O9
A    2
C7
A    3
O8
A    4
C3
A    5
C4
A    6
C5
A    7
C6
A    8
C1
A    9
C2
A   10
C11
A   11
N12
A   12
N13
A   13
C14
A   14
S18
A   15
C17
A   16
C16
A   17
N15
A   18
C19
A   19
C24
A   20
C23
A   21
O25
A   22
C26
A   23
C22
A   24
C21
A   25
C20
M  END
