3RGZ_BLD_A_800
     RDKit          3D

 82 85  0  0  0  0  0  0  0  0999 V2000
   21.6440   -9.0840   32.7630 C   0  0  0  0  0  0  0  0  0  0  0  0
   23.0200   -9.4440   33.3260 C   0  0  0  0  0  0  0  0  0  0  0  0
   23.0360   -8.9980   34.6930 O   0  0  0  0  0  0  0  0  0  0  0  0
   23.3430  -10.9350   33.2700 C   0  0  0  0  0  0  0  0  0  0  0  0
   22.5170  -11.6570   34.1920 O   0  0  0  0  0  0  0  0  0  0  0  0
   23.0840  -11.4760   31.8770 C   0  0  0  0  0  0  0  0  0  0  0  0
   21.6370  -11.2360   31.4280 C   0  0  0  0  0  0  0  0  0  0  0  0
   21.5630  -11.7790   30.0380 C   0  0  0  0  0  0  0  0  0  0  0  0
   22.5260  -11.6450   29.3040 O   0  0  0  0  0  0  0  0  0  0  0  0
   19.1070  -11.6940   30.2240 C   0  0  0  0  0  0  0  0  0  0  0  0
   20.2600  -11.8620   29.4180 O   0  0  0  0  0  0  0  0  0  0  0  0
   18.8600  -10.2040   30.3020 C   0  0  0  0  0  0  0  0  0  0  0  0
   19.6530   -9.5560   31.4320 C   0  0  0  0  0  0  0  0  0  0  0  0
   21.1880   -9.7640   31.4720 C   0  0  0  0  0  0  0  0  0  0  0  0
   19.3190   -8.0630   31.4150 C   0  0  0  0  0  0  0  0  0  0  0  0
   17.8360   -7.7450   31.6290 C   0  0  0  0  0  0  0  0  0  0  0  0
   16.9740   -8.4730   30.6020 C   0  0  0  0  0  0  0  0  0  0  0  0
   17.3920   -9.9400   30.5990 C   0  0  0  0  0  0  0  0  0  0  0  0
   16.3570  -10.6600   29.7440 C   0  0  0  0  0  0  0  0  0  0  0  0
   15.0810   -9.8810   30.0680 C   0  0  0  0  0  0  0  0  0  0  0  0
   15.4960   -8.6800   30.9300 C   0  0  0  0  0  0  0  0  0  0  0  0
   17.1440   -7.8520   29.2170 C   0  0  0  0  0  0  0  0  0  0  0  0
   21.8250   -9.0020   30.3140 C   0  0  0  0  0  0  0  0  0  0  0  0
   14.4870   -7.5380   30.7800 C   0  0  0  0  0  0  0  0  0  0  0  0
   14.8020   -6.2770   31.5760 C   0  0  0  0  0  0  0  0  0  0  0  0
   13.1450   -8.0750   31.2640 C   0  0  0  0  0  0  0  0  0  0  0  0
   13.1820   -8.3620   32.6690 O   0  0  0  0  0  0  0  0  0  0  0  0
   12.0000   -7.1260   30.9660 C   0  0  0  0  0  0  0  0  0  0  0  0
   10.8250   -7.7500   31.4920 O   0  0  0  0  0  0  0  0  0  0  0  0
   11.8980   -6.9370   29.4540 C   0  0  0  0  0  0  0  0  0  0  0  0
   10.9470   -5.8160   29.0810 C   0  0  0  0  0  0  0  0  0  0  0  0
   10.9050   -5.6500   27.5590 C   0  0  0  0  0  0  0  0  0  0  0  0
   11.3510   -4.5350   29.8060 C   0  0  0  0  0  0  0  0  0  0  0  0
   11.5130   -8.2270   28.7340 C   0  0  0  0  0  0  0  0  0  0  0  0
   21.6414   -7.9996   32.5783 H   0  0  0  0  0  0  0  0  0  0  0  0
   20.9366   -9.4450   33.5241 H   0  0  0  0  0  0  0  0  0  0  0  0
   23.7871   -8.9553   32.7073 H   0  0  0  0  0  0  0  0  0  0  0  0
   23.0079   -9.7824   35.2964 H   0  0  0  0  0  0  0  0  0  0  0  0
   24.4032  -11.0634   33.5336 H   0  0  0  0  0  0  0  0  0  0  0  0
   22.7789  -11.4280   35.1189 H   0  0  0  0  0  0  0  0  0  0  0  0
   23.7628  -10.9766   31.1700 H   0  0  0  0  0  0  0  0  0  0  0  0
   23.2585  -12.5619   31.8960 H   0  0  0  0  0  0  0  0  0  0  0  0
   20.9479  -11.7352   32.1250 H   0  0  0  0  0  0  0  0  0  0  0  0
   18.2444  -12.2000   29.7658 H   0  0  0  0  0  0  0  0  0  0  0  0
   19.2501  -12.1294   31.2240 H   0  0  0  0  0  0  0  0  0  0  0  0
   19.1683   -9.7811   29.3345 H   0  0  0  0  0  0  0  0  0  0  0  0
   19.3356  -10.0801   32.3456 H   0  0  0  0  0  0  0  0  0  0  0  0
   19.8950   -7.5723   32.2134 H   0  0  0  0  0  0  0  0  0  0  0  0
   19.5780   -7.6943   30.4115 H   0  0  0  0  0  0  0  0  0  0  0  0
   17.5406   -8.0641   32.6394 H   0  0  0  0  0  0  0  0  0  0  0  0
   17.6864   -6.6616   31.5115 H   0  0  0  0  0  0  0  0  0  0  0  0
   17.3761  -10.3643   31.6138 H   0  0  0  0  0  0  0  0  0  0  0  0
   16.6055  -10.5933   28.6745 H   0  0  0  0  0  0  0  0  0  0  0  0
   16.2834  -11.7380   29.9500 H   0  0  0  0  0  0  0  0  0  0  0  0
   14.6045   -9.5332   29.1396 H   0  0  0  0  0  0  0  0  0  0  0  0
   14.3577  -10.5158   30.6008 H   0  0  0  0  0  0  0  0  0  0  0  0
   15.4485   -8.8038   32.0220 H   0  0  0  0  0  0  0  0  0  0  0  0
   17.4331   -6.7959   29.3217 H   0  0  0  0  0  0  0  0  0  0  0  0
   17.9269   -8.3936   28.6659 H   0  0  0  0  0  0  0  0  0  0  0  0
   16.1944   -7.9193   28.6659 H   0  0  0  0  0  0  0  0  0  0  0  0
   22.4830   -8.2149   30.7109 H   0  0  0  0  0  0  0  0  0  0  0  0
   22.4147   -9.6969   29.6981 H   0  0  0  0  0  0  0  0  0  0  0  0
   21.0366   -8.5448   29.6981 H   0  0  0  0  0  0  0  0  0  0  0  0
   14.5036   -7.2329   29.7233 H   0  0  0  0  0  0  0  0  0  0  0  0
   14.7465   -6.4991   32.6519 H   0  0  0  0  0  0  0  0  0  0  0  0
   15.8148   -5.9286   31.3253 H   0  0  0  0  0  0  0  0  0  0  0  0
   14.0720   -5.4932   31.3253 H   0  0  0  0  0  0  0  0  0  0  0  0
   12.9640   -9.0061   30.7069 H   0  0  0  0  0  0  0  0  0  0  0  0
   13.0736   -7.5213   33.1805 H   0  0  0  0  0  0  0  0  0  0  0  0
   12.1410   -6.1327   31.4170 H   0  0  0  0  0  0  0  0  0  0  0  0
   10.8571   -7.7330   32.4813 H   0  0  0  0  0  0  0  0  0  0  0  0
   12.9054   -6.6523   29.1161 H   0  0  0  0  0  0  0  0  0  0  0  0
    9.9247   -6.0626   29.4037 H   0  0  0  0  0  0  0  0  0  0  0  0
   10.6422   -4.6112   27.3106 H   0  0  0  0  0  0  0  0  0  0  0  0
   11.8920   -5.8895   27.1367 H   0  0  0  0  0  0  0  0  0  0  0  0
   10.1506   -6.3301   27.1367 H   0  0  0  0  0  0  0  0  0  0  0  0
   11.2999   -4.6971   30.8928 H   0  0  0  0  0  0  0  0  0  0  0  0
   12.3787   -4.2625   29.5238 H   0  0  0  0  0  0  0  0  0  0  0  0
   10.6656   -3.7222   29.5238 H   0  0  0  0  0  0  0  0  0  0  0  0
   11.2807   -9.0055   29.4756 H   0  0  0  0  0  0  0  0  0  0  0  0
   10.6298   -8.0456   28.1038 H   0  0  0  0  0  0  0  0  0  0  0  0
   12.3511   -8.5593   28.1038 H   0  0  0  0  0  0  0  0  0  0  0  0
  1 14  1  0
  2  4  1  0
  2  1  1  0
  3  2  1  0
  4  6  1  0
  5  4  1  0
  6  7  1  0
  7  8  1  0
  8  9  2  0
  8 11  1  0
 10 11  1  0
 12 10  1  0
 13 15  1  0
 13 12  1  0
 14 13  1  0
 14  7  1  0
 14 23  1  0
 16 15  1  0
 16 17  1  0
 17 18  1  0
 17 22  1  0
 18 12  1  0
 18 19  1  0
 20 19  1  0
 21 17  1  0
 21 24  1  0
 21 20  1  0
 25 24  1  0
 26 28  1  0
 26 24  1  0
 27 26  1  0
 28 30  1  0
 29 28  1  0
 30 31  1  0
 30 34  1  0
 31 33  1  0
 32 31  1  0
  1 35  1  0
  1 36  1  0
  2 37  1  0
  3 38  1  0
  4 39  1  0
  5 40  1  0
  6 41  1  0
  6 42  1  0
  7 43  1  0
 10 44  1  0
 10 45  1  0
 12 46  1  0
 13 47  1  0
 15 48  1  0
 15 49  1  0
 16 50  1  0
 16 51  1  0
 18 52  1  0
 19 53  1  0
 19 54  1  0
 20 55  1  0
 20 56  1  0
 21 57  1  0
 22 58  1  0
 22 59  1  0
 22 60  1  0
 23 61  1  0
 23 62  1  0
 23 63  1  0
 24 64  1  0
 25 65  1  0
 25 66  1  0
 25 67  1  0
 26 68  1  0
 27 69  1  0
 28 70  1  0
 29 71  1  0
 30 72  1  0
 31 73  1  0
 32 74  1  0
 32 75  1  0
 32 76  1  0
 33 77  1  0
 33 78  1  0
 33 79  1  0
 34 80  1  0
 34 81  1  0
 34 82  1  0
A    1
C01
A    2
C02
A    3
O02
A    4
C03
A    5
O03
A    6
C04
A    7
C05
A    8
C06
A    9
O06
A   10
C07
A   11
O07
A   12
C08
A   13
C09
A   14
C10
A   15
C11
A   16
C12
A   17
C13
A   18
C14
A   19
C15
A   20
C16
A   21
C17
A   22
C18
A   23
C19
A   24
C20
A   25
C21
A   26
C22
A   27
O22
A   28
C23
A   29
O23
A   30
C24
A   31
C25
A   32
C26
A   33
C27
A   34
C28
M  END
