4LUF_2Q5_A_601
     RDKit          3D

 43 42  0  0  0  0  0  0  0  0999 V2000
   77.6610  -25.8050    6.7540 O   0  0  0  0  0  0  0  0  0  0  0  0
   76.5970  -25.7690    7.7170 C   0  0  0  0  0  0  0  0  0  0  0  0
   77.0320  -26.6710    8.8840 C   0  0  0  0  0  0  0  0  0  0  0  0
   75.2160  -26.1240    7.0990 C   0  0  0  0  0  0  0  0  0  0  0  0
   75.0170  -25.4330    5.8460 O   0  0  0  0  0  0  0  0  0  0  0  0
   73.8330  -24.6410    5.5700 C   0  0  0  0  0  0  0  0  0  0  0  0
   73.6080  -23.3940    6.4420 C   0  0  0  0  0  0  0  0  0  0  0  0
   73.9320  -24.2370    4.0890 C   0  0  0  0  0  0  0  0  0  0  0  0
   74.0030  -25.4640    3.3260 O   0  0  0  0  0  0  0  0  0  0  0  0
   74.5200  -25.3790    1.9860 C   0  0  0  0  0  0  0  0  0  0  0  0
   75.1340  -24.0000    1.6850 C   0  0  0  0  0  0  0  0  0  0  0  0
   73.5080  -25.8100    0.9120 C   0  0  0  0  0  0  0  0  0  0  0  0
   73.7990  -25.0800   -0.3030 O   0  0  0  0  0  0  0  0  0  0  0  0
   74.0060  -25.7540   -1.5620 C   0  0  0  0  0  0  0  0  0  0  0  0
   72.6870  -25.9470   -2.2830 C   0  0  0  0  0  0  0  0  0  0  0  0
   74.7640  -27.0790   -1.4790 C   0  0  0  0  0  0  0  0  0  0  0  0
   75.5010  -27.1970   -2.7040 O   0  0  0  0  0  0  0  0  0  0  0  0
   78.5314  -25.8344    7.2248 H   0  0  0  0  0  0  0  0  0  0  0  0
   76.4325  -24.7485    8.0931 H   0  0  0  0  0  0  0  0  0  0  0  0
   76.7938  -26.1772    9.8376 H   0  0  0  0  0  0  0  0  0  0  0  0
   76.4977  -27.6307    8.8246 H   0  0  0  0  0  0  0  0  0  0  0  0
   78.1156  -26.8504    8.8246 H   0  0  0  0  0  0  0  0  0  0  0  0
   74.4216  -25.8314    7.8014 H   0  0  0  0  0  0  0  0  0  0  0  0
   75.1840  -27.2073    6.9109 H   0  0  0  0  0  0  0  0  0  0  0  0
   72.9619  -25.2669    5.8140 H   0  0  0  0  0  0  0  0  0  0  0  0
   73.6588  -23.6753    7.5042 H   0  0  0  0  0  0  0  0  0  0  0  0
   74.3860  -22.6480    6.2227 H   0  0  0  0  0  0  0  0  0  0  0  0
   72.6183  -22.9669    6.2227 H   0  0  0  0  0  0  0  0  0  0  0  0
   74.8360  -23.6333    3.9206 H   0  0  0  0  0  0  0  0  0  0  0  0
   73.0645  -23.6326    3.7855 H   0  0  0  0  0  0  0  0  0  0  0  0
   75.3371  -26.1139    1.9369 H   0  0  0  0  0  0  0  0  0  0  0  0
   75.3628  -23.4862    2.6304 H   0  0  0  0  0  0  0  0  0  0  0  0
   76.0595  -24.1295    1.1048 H   0  0  0  0  0  0  0  0  0  0  0  0
   74.4185  -23.3988    1.1048 H   0  0  0  0  0  0  0  0  0  0  0  0
   72.4866  -25.5796    1.2491 H   0  0  0  0  0  0  0  0  0  0  0  0
   73.5833  -26.8925    0.7319 H   0  0  0  0  0  0  0  0  0  0  0  0
   74.6641  -25.0844   -2.1351 H   0  0  0  0  0  0  0  0  0  0  0  0
   71.8797  -26.0651   -1.5452 H   0  0  0  0  0  0  0  0  0  0  0  0
   72.4819  -25.0693   -2.9135 H   0  0  0  0  0  0  0  0  0  0  0  0
   72.7420  -26.8467   -2.9135 H   0  0  0  0  0  0  0  0  0  0  0  0
   74.0579  -27.9163   -1.3768 H   0  0  0  0  0  0  0  0  0  0  0  0
   75.4323  -27.1040   -0.6056 H   0  0  0  0  0  0  0  0  0  0  0  0
   76.4576  -27.3502   -2.5001 H   0  0  0  0  0  0  0  0  0  0  0  0
 15 14  1  0
 17 16  1  0
 16 14  1  0
 14 13  1  0
 13 12  1  0
 12 10  1  0
 11 10  1  0
 10  9  1  0
  9  8  1  0
  8  6  1  0
  6  5  1  0
  6  7  1  0
  5  4  1  0
  1  2  1  0
  4  2  1  0
  2  3  1  0
  1 18  1  0
  2 19  1  0
  3 20  1  0
  3 21  1  0
  3 22  1  0
  4 23  1  0
  4 24  1  0
  6 25  1  0
  7 26  1  0
  7 27  1  0
  7 28  1  0
  8 29  1  0
  8 30  1  0
 10 31  1  0
 11 32  1  0
 11 33  1  0
 11 34  1  0
 12 35  1  0
 12 36  1  0
 14 37  1  0
 15 38  1  0
 15 39  1  0
 15 40  1  0
 16 41  1  0
 16 42  1  0
 17 43  1  0
A    1
OH
A    2
C2
A    3
C1
A    4
C3
A    5
O2
A    6
C5
A    7
C6
A    8
C4
A    9
O3
A   10
C7
A   11
C9
A   12
C8
A   13
O4
A   14
C11
A   15
C12
A   16
C10
A   17
O5
M  END
