4LUZ_1XT_A_201
     RDKit          3D

 59 63  0  0  0  0  0  0  0  0999 V2000
  -17.6170   13.6990  -18.4240 C   0  0  0  0  0  0  0  0  0  0  0  0
  -18.6070   13.5410  -17.6520 O   0  0  0  0  0  0  0  0  0  0  0  0
  -16.8790   14.7240  -18.3400 O   0  0  0  0  0  0  0  0  0  0  0  0
  -17.2910   12.6800  -19.4660 C   0  0  0  0  0  0  0  0  0  0  0  0
  -18.0490   11.5560  -19.8290 C   0  0  0  0  0  0  0  0  0  0  0  0
  -17.2940   10.9250  -20.8720 C   0  0  0  0  0  0  0  0  0  0  0  0
  -16.1560   11.7260  -21.0480 C   0  0  0  0  0  0  0  0  0  0  0  0
  -16.2030   12.7270  -20.2020 O   0  0  0  0  0  0  0  0  0  0  0  0
  -15.0390   11.5020  -22.0120 C   0  0  0  0  0  0  0  0  0  0  0  0
  -13.8700   12.2450  -21.8870 C   0  0  0  0  0  0  0  0  0  0  0  0
  -12.8240   12.0410  -22.7750 C   0  0  0  0  0  0  0  0  0  0  0  0
  -12.9510   11.0900  -23.7780 C   0  0  0  0  0  0  0  0  0  0  0  0
  -14.1150   10.3470  -23.9000 C   0  0  0  0  0  0  0  0  0  0  0  0
  -15.1640   10.5560  -23.0180 C   0  0  0  0  0  0  0  0  0  0  0  0
  -11.8340   10.8540  -24.7380 C   0  0  0  0  0  0  0  0  0  0  0  0
  -11.2410   11.9560  -25.3150 O   0  0  0  0  0  0  0  0  0  0  0  0
   -9.9370   12.2420  -24.9870 C   0  0  0  0  0  0  0  0  0  0  0  0
   -8.9550   11.2820  -25.1660 C   0  0  0  0  0  0  0  0  0  0  0  0
   -7.6330   11.5610  -24.8460 C   0  0  0  0  0  0  0  0  0  0  0  0
   -7.2930   12.8070  -24.3470 C   0  0  0  0  0  0  0  0  0  0  0  0
   -8.2830   13.7630  -24.1700 C   0  0  0  0  0  0  0  0  0  0  0  0
   -9.6050   13.4900  -24.4850 C   0  0  0  0  0  0  0  0  0  0  0  0
   -5.8810   13.1480  -23.9780 C   0  0  0  0  0  0  0  0  0  0  0  0
   -5.2040   14.3580  -24.3080 C   0  0  0  0  0  0  0  0  0  0  0  0
   -3.9100   14.2210  -23.7370 C   0  0  0  0  0  0  0  0  0  0  0  0
   -3.8740   13.0460  -23.1340 N   0  0  0  0  0  0  0  0  0  0  0  0
   -5.0230   12.4120  -23.2660 N   0  0  0  0  0  0  0  0  0  0  0  0
   -5.2320   11.1190  -22.7000 C   0  0  0  0  0  0  0  0  0  0  0  0
   -4.9670    9.9860  -23.4530 C   0  0  0  0  0  0  0  0  0  0  0  0
   -5.1510    8.7320  -22.8950 C   0  0  0  0  0  0  0  0  0  0  0  0
   -5.5900    8.6200  -21.5880 C   0  0  0  0  0  0  0  0  0  0  0  0
   -5.8490    9.7520  -20.8290 C   0  0  0  0  0  0  0  0  0  0  0  0
   -5.6620   11.0060  -21.3860 C   0  0  0  0  0  0  0  0  0  0  0  0
   -4.8790    7.5070  -23.7060 C   0  0  0  0  0  0  0  0  0  0  0  0
   -2.7770   15.1900  -23.7720 C   0  0  0  0  0  0  0  0  0  0  0  0
   -2.1970   15.4840  -22.6920 O   0  0  0  0  0  0  0  0  0  0  0  0
   -2.3990   15.6960  -24.8610 O   0  0  0  0  0  0  0  0  0  0  0  0
  -18.4777   13.5616  -16.6707 H   0  0  0  0  0  0  0  0  0  0  0  0
  -19.0110   11.2306  -19.4062 H   0  0  0  0  0  0  0  0  0  0  0  0
  -17.5527   10.0063  -21.4189 H   0  0  0  0  0  0  0  0  0  0  0  0
  -13.7751   12.9927  -21.0858 H   0  0  0  0  0  0  0  0  0  0  0  0
  -11.8991   12.6296  -22.6848 H   0  0  0  0  0  0  0  0  0  0  0  0
  -14.2062    9.5927  -24.6955 H   0  0  0  0  0  0  0  0  0  0  0  0
  -16.0920    9.9735  -23.1159 H   0  0  0  0  0  0  0  0  0  0  0  0
  -12.2278   10.2286  -25.5528 H   0  0  0  0  0  0  0  0  0  0  0  0
  -11.0386   10.3962  -24.1316 H   0  0  0  0  0  0  0  0  0  0  0  0
   -9.2240   10.2925  -25.5641 H   0  0  0  0  0  0  0  0  0  0  0  0
   -6.8576   10.7939  -24.9886 H   0  0  0  0  0  0  0  0  0  0  0  0
   -8.0145   14.7533  -23.7734 H   0  0  0  0  0  0  0  0  0  0  0  0
  -10.3814   14.2552  -24.3381 H   0  0  0  0  0  0  0  0  0  0  0  0
   -5.5973   15.2115  -24.8798 H   0  0  0  0  0  0  0  0  0  0  0  0
   -4.6120   10.0825  -24.4897 H   0  0  0  0  0  0  0  0  0  0  0  0
   -5.7352    7.6232  -21.1460 H   0  0  0  0  0  0  0  0  0  0  0  0
   -6.2007    9.6541  -19.7913 H   0  0  0  0  0  0  0  0  0  0  0  0
   -5.8538   11.9094  -20.7885 H   0  0  0  0  0  0  0  0  0  0  0  0
   -4.6902    6.6568  -23.0340 H   0  0  0  0  0  0  0  0  0  0  0  0
   -5.7501    7.2865  -24.3405 H   0  0  0  0  0  0  0  0  0  0  0  0
   -3.9965    7.6758  -24.3405 H   0  0  0  0  0  0  0  0  0  0  0  0
   -2.6244   15.2673  -21.8257 H   0  0  0  0  0  0  0  0  0  0  0  0
 16 17  1  0
 16 15  1  0
 18 17  2  0
 18 19  1  0
 17 22  1  0
 37 35  2  0
 19 20  2  0
 15 12  1  0
 22 21  2  0
 20 21  1  0
 20 23  1  0
 24 23  2  0
 24 25  1  0
 23 27  1  0
 13 12  2  0
 13 14  1  0
 12 11  1  0
 35 25  1  0
 35 36  1  0
 25 26  2  0
 34 30  1  0
 29 30  2  0
 29 28  1  0
 27 26  1  0
 27 28  1  0
 14  9  2  0
 30 31  1  0
 11 10  2  0
 28 33  2  0
  9 10  1  0
  9  7  1  0
 31 32  2  0
 33 32  1  0
  7  6  2  0
  7  8  1  0
  6  5  1  0
  8  4  1  0
  5  4  2  0
  4  1  1  0
  1  3  2  0
  1  2  1  0
  2 38  1  0
  5 39  1  0
  6 40  1  0
 10 41  1  0
 11 42  1  0
 13 43  1  0
 14 44  1  0
 15 45  1  0
 15 46  1  0
 18 47  1  0
 19 48  1  0
 21 49  1  0
 22 50  1  0
 24 51  1  0
 29 52  1  0
 31 53  1  0
 32 54  1  0
 33 55  1  0
 34 56  1  0
 34 57  1  0
 34 58  1  0
 36 59  1  0
A    1
C01
A    2
O02
A    3
O03
A    4
C04
A    5
C05
A    6
C06
A    7
C07
A    8
O08
A    9
C09
A   10
C10
A   11
C11
A   12
C12
A   13
C13
A   14
C14
A   15
C15
A   16
O16
A   17
C17
A   18
C18
A   19
C19
A   20
C20
A   21
C21
A   22
C22
A   23
C23
A   24
C24
A   25
C25
A   26
N26
A   27
N27
A   28
C28
A   29
C29
A   30
C30
A   31
C31
A   32
C32
A   33
C33
A   34
C34
A   35
C35
A   36
O36
A   37
O37
M  END
