4LV9_20J_A_601
     RDKit          3D

 21 22  0  0  0  0  0  0  0  0999 V2000
   17.5750    9.1210    1.8740 C   0  0  0  0  0  0  0  0  0  0  0  0
   16.4340    9.6410    2.7230 C   0  0  0  0  0  0  0  0  0  0  0  0
   16.6530    9.7890    3.9770 N   0  0  0  0  0  0  0  0  0  0  0  0
   15.8190   10.2160    4.9660 C   0  0  0  0  0  0  0  0  0  0  0  0
   16.1680   10.0550    6.3150 C   0  0  0  0  0  0  0  0  0  0  0  0
   15.3140   10.4870    7.3100 C   0  0  0  0  0  0  0  0  0  0  0  0
   14.1020   11.0750    6.9810 C   0  0  0  0  0  0  0  0  0  0  0  0
   13.7420   11.2340    5.6480 C   0  0  0  0  0  0  0  0  0  0  0  0
   14.5910   10.8050    4.6590 C   0  0  0  0  0  0  0  0  0  0  0  0
   14.2010   10.9830    2.9430 S   0  0  0  0  0  0  0  0  0  0  0  0
   12.9120   10.4340    2.7560 O   0  0  0  0  0  0  0  0  0  0  0  0
   14.5580   12.3140    2.5980 O   0  0  0  0  0  0  0  0  0  0  0  0
   15.2350    9.9460    2.1150 N   0  0  0  0  0  0  0  0  0  0  0  0
   13.0340   11.6080    8.2410 Cl  0  0  0  0  0  0  0  0  0  0  0  0
   18.3804    8.7540    2.5272 H   0  0  0  0  0  0  0  0  0  0  0  0
   17.2143    8.2984    1.2390 H   0  0  0  0  0  0  0  0  0  0  0  0
   17.9592    9.9329    1.2390 H   0  0  0  0  0  0  0  0  0  0  0  0
   17.1253    9.5830    6.5810 H   0  0  0  0  0  0  0  0  0  0  0  0
   15.5956   10.3645    8.3663 H   0  0  0  0  0  0  0  0  0  0  0  0
   12.7811   11.7015    5.3871 H   0  0  0  0  0  0  0  0  0  0  0  0
   14.9835    9.5565    1.1952 H   0  0  0  0  0  0  0  0  0  0  0  0
  1  2  1  0
 13  2  1  0
 13 10  1  0
 12 10  2  0
  2  3  2  0
 11 10  2  0
 10  9  1  0
  3  4  1  0
  9  4  2  0
  9  8  1  0
  4  5  1  0
  8  7  2  0
  5  6  2  0
  7  6  1  0
  7 14  1  0
  1 15  1  0
  1 16  1  0
  1 17  1  0
  5 18  1  0
  6 19  1  0
  8 20  1  0
 13 21  1  0
A    1
C1
A    2
C2
A    3
N3
A    4
C4
A    5
C5
A    6
C6
A    7
C7
A    8
C8
A    9
C9
A   10
S10
A   11
O11
A   12
O12
A   13
N13
A   14
CL1
M  END
