4LVA_20M_A_601
     RDKit          3D

 62 66  0  0  0  0  0  0  0  0999 V2000
   15.5800    6.8140   -0.8670 C   0  0  0  0  0  0  0  0  0  0  0  0
   14.7610    5.9890   -1.6150 C   0  0  0  0  0  0  0  0  0  0  0  0
   14.4590    4.7200   -1.1680 C   0  0  0  0  0  0  0  0  0  0  0  0
   14.9850    4.2640    0.0280 C   0  0  0  0  0  0  0  0  0  0  0  0
   15.8300    5.0760    0.7610 C   0  0  0  0  0  0  0  0  0  0  0  0
   16.0970    6.3600    0.3390 C   0  0  0  0  0  0  0  0  0  0  0  0
   17.0730    7.2890    1.0030 C   0  0  0  0  0  0  0  0  0  0  0  0
   17.1020    7.3510    2.4460 N   0  0  0  0  0  0  0  0  0  0  0  0
   16.1480    8.0450    3.0420 C   0  0  0  0  0  0  0  0  0  0  0  0
   16.2340    8.1990    4.3110 N   0  0  0  0  0  0  0  0  0  0  0  0
   15.2710    8.7250    5.1110 C   0  0  0  0  0  0  0  0  0  0  0  0
   15.3270    8.6300    6.5350 C   0  0  0  0  0  0  0  0  0  0  0  0
   14.2490    9.0850    7.2940 C   0  0  0  0  0  0  0  0  0  0  0  0
   13.1480    9.5370    6.7020 N   0  0  0  0  0  0  0  0  0  0  0  0
   13.0540    9.6580    5.4010 C   0  0  0  0  0  0  0  0  0  0  0  0
   14.0570    9.2300    4.5880 C   0  0  0  0  0  0  0  0  0  0  0  0
   13.9760    9.4550    2.8540 S   0  0  0  0  0  0  0  0  0  0  0  0
   12.7330    8.9630    2.3550 O   0  0  0  0  0  0  0  0  0  0  0  0
   14.2730   10.8740    2.6120 O   0  0  0  0  0  0  0  0  0  0  0  0
   15.1680    8.5200    2.2180 N   0  0  0  0  0  0  0  0  0  0  0  0
   13.4810    3.6040   -2.1260 S   0  0  0  0  0  0  0  0  0  0  0  0
   12.9780    2.5240   -1.3570 O   0  0  0  0  0  0  0  0  0  0  0  0
   12.8510    4.3150   -3.1630 O   0  0  0  0  0  0  0  0  0  0  0  0
   14.7390    2.9040   -3.0170 N   0  0  0  0  0  0  0  0  0  0  0  0
   14.9130    3.2070   -4.4560 C   0  0  0  0  0  0  0  0  0  0  0  0
   16.3300    2.9850   -5.0330 C   0  0  0  0  0  0  0  0  0  0  0  0
   17.1970    1.9150   -4.3370 C   0  0  0  0  0  0  0  0  0  0  0  0
   16.3810    1.0550   -3.3820 C   0  0  0  0  0  0  0  0  0  0  0  0
   15.6940    1.9780   -2.3680 C   0  0  0  0  0  0  0  0  0  0  0  0
   17.7360    0.9930   -5.3340 N   0  0  0  0  0  0  0  0  0  0  0  0
   18.6220   -0.0270   -4.7300 C   0  0  0  0  0  0  0  0  0  0  0  0
   18.6690   -1.1550   -5.7930 C   0  0  0  0  0  0  0  0  0  0  0  0
   17.3070   -1.0230   -6.5600 C   0  0  0  0  0  0  0  0  0  0  0  0
   16.6540    0.2720   -6.0240 C   0  0  0  0  0  0  0  0  0  0  0  0
   15.8210    7.8256   -1.2256 H   0  0  0  0  0  0  0  0  0  0  0  0
   14.3487    6.3461   -2.5702 H   0  0  0  0  0  0  0  0  0  0  0  0
   14.7314    3.2583    0.3943 H   0  0  0  0  0  0  0  0  0  0  0  0
   16.2909    4.6956    1.6845 H   0  0  0  0  0  0  0  0  0  0  0  0
   18.0790    6.9920    0.6717 H   0  0  0  0  0  0  0  0  0  0  0  0
   16.7354    8.2911    0.7000 H   0  0  0  0  0  0  0  0  0  0  0  0
   17.8362    6.8738    2.9883 H   0  0  0  0  0  0  0  0  0  0  0  0
   16.2120    8.2020    7.0285 H   0  0  0  0  0  0  0  0  0  0  0  0
   14.3104    9.0697    8.3922 H   0  0  0  0  0  0  0  0  0  0  0  0
   12.1534   10.1110    4.9609 H   0  0  0  0  0  0  0  0  0  0  0  0
   15.1760    8.2955    1.2128 H   0  0  0  0  0  0  0  0  0  0  0  0
   14.6491    4.2636   -4.6109 H   0  0  0  0  0  0  0  0  0  0  0  0
   14.2636    2.4959   -4.9876 H   0  0  0  0  0  0  0  0  0  0  0  0
   16.2193    2.6914   -6.0873 H   0  0  0  0  0  0  0  0  0  0  0  0
   16.8602    3.9360   -4.8767 H   0  0  0  0  0  0  0  0  0  0  0  0
   17.9833    2.4570   -3.7911 H   0  0  0  0  0  0  0  0  0  0  0  0
   15.6225    0.4914   -3.9451 H   0  0  0  0  0  0  0  0  0  0  0  0
   17.0366    0.3417   -2.8609 H   0  0  0  0  0  0  0  0  0  0  0  0
   15.1495    1.3607   -1.6383 H   0  0  0  0  0  0  0  0  0  0  0  0
   16.4719    2.5818   -1.8778 H   0  0  0  0  0  0  0  0  0  0  0  0
   18.2030   -0.3984   -3.7832 H   0  0  0  0  0  0  0  0  0  0  0  0
   19.6191    0.3678   -4.4854 H   0  0  0  0  0  0  0  0  0  0  0  0
   18.7510   -2.1407   -5.3116 H   0  0  0  0  0  0  0  0  0  0  0  0
   19.5379   -1.0659   -6.4617 H   0  0  0  0  0  0  0  0  0  0  0  0
   16.6641   -1.8914   -6.3538 H   0  0  0  0  0  0  0  0  0  0  0  0
   17.4545   -0.9846   -7.6494 H   0  0  0  0  0  0  0  0  0  0  0  0
   16.2562    0.8752   -6.8534 H   0  0  0  0  0  0  0  0  0  0  0  0
   15.8089    0.0589   -5.3529 H   0  0  0  0  0  0  0  0  0  0  0  0
 33 34  1  0
 33 32  1  0
 34 30  1  0
 32 31  1  0
 30 31  1  0
 30 27  1  0
 26 25  1  0
 26 27  1  0
 25 24  1  0
 27 28  1  0
 28 29  1  0
 23 21  2  0
 24 29  1  0
 24 21  1  0
 21 22  2  0
 21  3  1  0
  2  3  1  0
  2  1  2  0
  3  4  2  0
  1  6  1  0
  4  5  1  0
  6  5  2  0
  6  7  1  0
  7  8  1  0
 20 17  1  0
 20  9  1  0
 18 17  2  0
  8  9  1  0
 19 17  2  0
 17 16  1  0
  9 10  2  0
 10 11  1  0
 16 11  2  0
 16 15  1  0
 11 12  1  0
 15 14  2  0
 12 13  2  0
 14 13  1  0
  1 35  1  0
  2 36  1  0
  4 37  1  0
  5 38  1  0
  7 39  1  0
  7 40  1  0
  8 41  1  0
 12 42  1  0
 13 43  1  0
 15 44  1  0
 20 45  1  0
 25 46  1  0
 25 47  1  0
 26 48  1  0
 26 49  1  0
 27 50  1  0
 28 51  1  0
 28 52  1  0
 29 53  1  0
 29 54  1  0
 31 55  1  0
 31 56  1  0
 32 57  1  0
 32 58  1  0
 33 59  1  0
 33 60  1  0
 34 61  1  0
 34 62  1  0
A    1
C1
A    2
C2
A    3
C3
A    4
C4
A    5
C5
A    6
C6
A    7
C7
A    8
N8
A    9
C9
A   10
N10
A   11
C11
A   12
C12
A   13
C13
A   14
N14
A   15
C15
A   16
C16
A   17
S17
A   18
O18
A   19
O19
A   20
N20
A   21
S21
A   22
O22
A   23
O23
A   24
N24
A   25
C25
A   26
C26
A   27
C27
A   28
C28
A   29
C29
A   30
N30
A   31
C31
A   32
C32
A   33
C33
A   34
C34
M  END
