4LVB_20N_A_601
     RDKit          3D

 30 31  0  0  0  0  0  0  0  0999 V2000
   13.3730    3.9080   -3.8730 C   0  0  0  0  0  0  0  0  0  0  0  0
   13.4230    5.1200   -2.9800 C   0  0  0  0  0  0  0  0  0  0  0  0
   12.5010    5.9050   -3.0280 O   0  0  0  0  0  0  0  0  0  0  0  0
   14.4920    5.2840   -2.1600 N   0  0  0  0  0  0  0  0  0  0  0  0
   14.7130    6.3440   -1.2540 C   0  0  0  0  0  0  0  0  0  0  0  0
   15.6900    6.1600   -0.2840 C   0  0  0  0  0  0  0  0  0  0  0  0
   15.9570    7.1540    0.6320 C   0  0  0  0  0  0  0  0  0  0  0  0
   15.2730    8.3620    0.6000 C   0  0  0  0  0  0  0  0  0  0  0  0
   14.2830    8.5460   -0.3600 C   0  0  0  0  0  0  0  0  0  0  0  0
   14.0100    7.5460   -1.2790 C   0  0  0  0  0  0  0  0  0  0  0  0
   15.5950    9.2830    1.6140 N   0  0  0  0  0  0  0  0  0  0  0  0
   14.8700   10.3490    2.0430 C   0  0  0  0  0  0  0  0  0  0  0  0
   13.8270   10.7000    1.5300 O   0  0  0  0  0  0  0  0  0  0  0  0
   15.4040   11.1350    3.2160 C   0  0  0  0  0  0  0  0  0  0  0  0
   14.3810   11.5020    4.2960 C   0  0  0  0  0  0  0  0  0  0  0  0
   14.9590   12.5870    3.3860 C   0  0  0  0  0  0  0  0  0  0  0  0
   13.3355    2.9987   -3.2552 H   0  0  0  0  0  0  0  0  0  0  0  0
   12.4761    3.9571   -4.5080 H   0  0  0  0  0  0  0  0  0  0  0  0
   14.2709    3.8831   -4.5080 H   0  0  0  0  0  0  0  0  0  0  0  0
   15.2203    4.5570   -2.2033 H   0  0  0  0  0  0  0  0  0  0  0  0
   16.2534    5.2160   -0.2469 H   0  0  0  0  0  0  0  0  0  0  0  0
   16.7251    6.9878    1.4017 H   0  0  0  0  0  0  0  0  0  0  0  0
   13.7156    9.4879   -0.3894 H   0  0  0  0  0  0  0  0  0  0  0  0
   13.2288    7.7032   -2.0373 H   0  0  0  0  0  0  0  0  0  0  0  0
   16.4945    9.1295    2.0917 H   0  0  0  0  0  0  0  0  0  0  0  0
   16.3837   10.6357    3.1868 H   0  0  0  0  0  0  0  0  0  0  0  0
   14.6650   11.4657    5.3581 H   0  0  0  0  0  0  0  0  0  0  0  0
   13.3675   11.1624    4.5559 H   0  0  0  0  0  0  0  0  0  0  0  0
   14.3237   13.0601    2.6227 H   0  0  0  0  0  0  0  0  0  0  0  0
   15.4761   13.5440    3.5496 H   0  0  0  0  0  0  0  0  0  0  0  0
 16 15  1  0
 16 14  1  0
 15 14  1  0
 14 12  1  0
 12 13  2  0
 12 11  1  0
 11  8  1  0
  8  7  2  0
  8  9  1  0
  7  6  1  0
  9 10  2  0
  6  5  2  0
 10  5  1  0
  5  4  1  0
  4  2  1  0
  2  3  2  0
  2  1  1  0
  1 17  1  0
  1 18  1  0
  1 19  1  0
  4 20  1  0
  6 21  1  0
  7 22  1  0
  9 23  1  0
 10 24  1  0
 11 25  1  0
 14 26  1  0
 15 27  1  0
 15 28  1  0
 16 29  1  0
 16 30  1  0
A    1
C1
A    2
C2
A    3
O3
A    4
N4
A    5
C5
A    6
C6
A    7
C7
A    8
C8
A    9
C9
A   10
C10
A   11
N11
A   12
C12
A   13
O13
A   14
C14
A   15
C15
A   16
C16
M  END
