4LVD_1EB_B_603
     RDKit          3D

 25 26  0  0  0  0  0  0  0  0999 V2000
   15.4780  -17.0240    2.2160 C   0  0  0  0  0  0  0  0  0  0  0  0
   15.9780  -17.3510    3.4650 C   0  0  0  0  0  0  0  0  0  0  0  0
   15.3020  -16.9780    4.6090 C   0  0  0  0  0  0  0  0  0  0  0  0
   14.1140  -16.2830    4.5150 C   0  0  0  0  0  0  0  0  0  0  0  0
   13.6130  -15.9520    3.2730 C   0  0  0  0  0  0  0  0  0  0  0  0
   14.2740  -16.3290    2.1070 C   0  0  0  0  0  0  0  0  0  0  0  0
   13.7060  -15.9280    0.8820 N   0  0  0  0  0  0  0  0  0  0  0  0
   14.3700  -15.8090   -0.3020 C   0  0  0  0  0  0  0  0  0  0  0  0
   15.5510  -16.0940   -0.4340 O   0  0  0  0  0  0  0  0  0  0  0  0
   13.6020  -15.2890   -1.4940 C   0  0  0  0  0  0  0  0  0  0  0  0
   14.0830  -13.9350   -2.0260 C   0  0  0  0  0  0  0  0  0  0  0  0
   14.2720  -15.1900   -2.8680 C   0  0  0  0  0  0  0  0  0  0  0  0
   15.8560  -17.3400    5.9280 N   0  0  0  0  0  0  0  0  0  0  0  0
   16.8790  -18.0020    5.9870 O   0  0  0  0  0  0  0  0  0  0  0  0
   15.3000  -16.9720    6.9480 O   0  0  0  0  0  0  0  0  0  0  0  0
   16.0305  -17.3125    1.3096 H   0  0  0  0  0  0  0  0  0  0  0  0
   16.9207  -17.9120    3.5461 H   0  0  0  0  0  0  0  0  0  0  0  0
   13.5690  -15.9942    5.4258 H   0  0  0  0  0  0  0  0  0  0  0  0
   12.6756  -15.3807    3.2027 H   0  0  0  0  0  0  0  0  0  0  0  0
   12.7004  -15.7051    0.8811 H   0  0  0  0  0  0  0  0  0  0  0  0
   12.6589  -15.7412   -1.1534 H   0  0  0  0  0  0  0  0  0  0  0  0
   13.3508  -13.1732   -2.3318 H   0  0  0  0  0  0  0  0  0  0  0  0
   14.7490  -13.1447   -1.6495 H   0  0  0  0  0  0  0  0  0  0  0  0
   15.2800  -15.6038   -3.0188 H   0  0  0  0  0  0  0  0  0  0  0  0
   13.9957  -15.4884   -3.8901 H   0  0  0  0  0  0  0  0  0  0  0  0
 15 13  2  0
 13 14  1  0
 13  3  1  0
  4  3  2  0
  4  5  1  0
  3  2  1  0
  5  6  2  0
  2  1  2  0
  6  1  1  0
  6  7  1  0
  7  8  1  0
  8  9  2  0
  8 10  1  0
 10 11  1  0
 10 12  1  0
 11 12  1  0
  1 16  1  0
  2 17  1  0
  4 18  1  0
  5 19  1  0
  7 20  1  0
 10 21  1  0
 11 22  1  0
 11 23  1  0
 12 24  1  0
 12 25  1  0
M  CHG  2  13   1  14  -1
A    1
C1
A    2
C2
A    3
C3
A    4
C4
A    5
C5
A    6
C6
A    7
N7
A    8
C8
A    9
O9
A   10
C10
A   11
C11
A   12
C12
A   13
N13
A   14
O14
A   15
O15
M  END
