4LUW_QJ8_A_503
     RDKit          3D

 53 55  0  0  0  0  0  0  0  0999 V2000
   21.3710   14.7440   35.8790 N   0  0  0  0  0  0  0  0  0  0  0  0
   20.2050   15.4320   35.7240 C   0  0  0  0  0  0  0  0  0  0  0  0
   20.2110   16.8400   35.7080 C   0  0  0  0  0  0  0  0  0  0  0  0
   18.9960   17.5330   35.5480 C   0  0  0  0  0  0  0  0  0  0  0  0
   18.9680   19.0470   35.5300 C   0  0  0  0  0  0  0  0  0  0  0  0
   17.8020   16.8060   35.4040 C   0  0  0  0  0  0  0  0  0  0  0  0
   19.0210   14.7550   35.5830 N   0  0  0  0  0  0  0  0  0  0  0  0
   17.8270   15.4020   35.4200 C   0  0  0  0  0  0  0  0  0  0  0  0
   16.5570   14.5770   35.2620 C   0  0  0  0  0  0  0  0  0  0  0  0
   15.3960   15.2990   34.7870 O   0  0  0  0  0  0  0  0  0  0  0  0
   14.2430   14.4260   34.7610 C   0  0  0  0  0  0  0  0  0  0  0  0
   13.5930   14.3750   36.1470 C   0  0  0  0  0  0  0  0  0  0  0  0
   12.1590   14.4930   35.9220 N   0  0  0  0  0  0  0  0  0  0  0  0
   13.1070   14.8220   33.7940 C   0  0  0  0  0  0  0  0  0  0  0  0
   11.7720   14.6240   34.5410 C   0  0  0  0  0  0  0  0  0  0  0  0
   11.0250   13.3340   34.1990 C   0  0  0  0  0  0  0  0  0  0  0  0
   10.1990   13.4310   33.0370 O   0  0  0  0  0  0  0  0  0  0  0  0
    8.8030   13.3290   33.2780 C   0  0  0  0  0  0  0  0  0  0  0  0
    8.0550   12.4980   32.2530 C   0  0  0  0  0  0  0  0  0  0  0  0
    6.6780   12.4630   32.3500 N   0  0  0  0  0  0  0  0  0  0  0  0
    5.9110   11.7730   31.4800 C   0  0  0  0  0  0  0  0  0  0  0  0
    4.5440   11.8030   31.6660 N   0  0  0  0  0  0  0  0  0  0  0  0
    6.5180   11.0470   30.4430 C   0  0  0  0  0  0  0  0  0  0  0  0
    7.9330   11.0780   30.3280 C   0  0  0  0  0  0  0  0  0  0  0  0
    8.7170   11.8100   31.2360 C   0  0  0  0  0  0  0  0  0  0  0  0
    8.6280   10.3330   29.2110 C   0  0  0  0  0  0  0  0  0  0  0  0
   21.7243   14.5355   36.8238 H   0  0  0  0  0  0  0  0  0  0  0  0
   21.8990   14.4324   35.0514 H   0  0  0  0  0  0  0  0  0  0  0  0
   21.1554   17.3929   35.8194 H   0  0  0  0  0  0  0  0  0  0  0  0
   18.9610   19.4259   36.5627 H   0  0  0  0  0  0  0  0  0  0  0  0
   19.8593   19.4240   35.0071 H   0  0  0  0  0  0  0  0  0  0  0  0
   18.0633   19.3908   35.0071 H   0  0  0  0  0  0  0  0  0  0  0  0
   16.8469   17.3372   35.2786 H   0  0  0  0  0  0  0  0  0  0  0  0
   16.3092   14.1463   36.2434 H   0  0  0  0  0  0  0  0  0  0  0  0
   16.7806   13.8263   34.4897 H   0  0  0  0  0  0  0  0  0  0  0  0
   14.6634   13.4691   34.4180 H   0  0  0  0  0  0  0  0  0  0  0  0
   13.8249   13.4210   36.6431 H   0  0  0  0  0  0  0  0  0  0  0  0
   13.9665   15.1798   36.7972 H   0  0  0  0  0  0  0  0  0  0  0  0
   11.8226   15.3241   36.4290 H   0  0  0  0  0  0  0  0  0  0  0  0
   13.1353   14.1825   32.8995 H   0  0  0  0  0  0  0  0  0  0  0  0
   13.2193   15.8678   33.4720 H   0  0  0  0  0  0  0  0  0  0  0  0
   11.1037   15.4582   34.2812 H   0  0  0  0  0  0  0  0  0  0  0  0
   10.3879   13.0660   35.0548 H   0  0  0  0  0  0  0  0  0  0  0  0
   11.7884   12.5718   33.9839 H   0  0  0  0  0  0  0  0  0  0  0  0
    8.3775   14.3434   33.2768 H   0  0  0  0  0  0  0  0  0  0  0  0
    8.6853   12.8191   34.2456 H   0  0  0  0  0  0  0  0  0  0  0  0
    4.1540   11.8116   32.6193 H   0  0  0  0  0  0  0  0  0  0  0  0
    3.9136   11.8168   30.8516 H   0  0  0  0  0  0  0  0  0  0  0  0
    5.9099   10.4660   29.7340 H   0  0  0  0  0  0  0  0  0  0  0  0
    9.8131   11.8394   31.1479 H   0  0  0  0  0  0  0  0  0  0  0  0
    9.3192    9.5920   29.6390 H   0  0  0  0  0  0  0  0  0  0  0  0
    7.8785    9.8198   28.5906 H   0  0  0  0  0  0  0  0  0  0  0  0
    9.1920   11.0451   28.5906 H   0  0  0  0  0  0  0  0  0  0  0  0
 26 24  1  0
 24 23  2  0
 24 25  1  0
 23 21  1  0
 25 19  2  0
 21 22  1  0
 21 20  2  0
 19 20  1  0
 19 18  1  0
 17 18  1  0
 17 16  1  0
 14 15  1  0
 14 11  1  0
 16 15  1  0
 15 13  1  0
 11 10  1  0
 11 12  1  0
 10  9  1  0
  9  8  1  0
  6  8  2  0
  6  4  1  0
  8  7  1  0
  5  4  1  0
  4  3  2  0
  7  2  2  0
  3  2  1  0
  2  1  1  0
 13 12  1  0
  1 27  1  0
  1 28  1  0
  3 29  1  0
  5 30  1  0
  5 31  1  0
  5 32  1  0
  6 33  1  0
  9 34  1  0
  9 35  1  0
 11 36  1  0
 12 37  1  0
 12 38  1  0
 13 39  1  0
 14 40  1  0
 14 41  1  0
 15 42  1  0
 16 43  1  0
 16 44  1  0
 18 45  1  0
 18 46  1  0
 22 47  1  0
 22 48  1  0
 23 49  1  0
 25 50  1  0
 26 51  1  0
 26 52  1  0
 26 53  1  0
A    1
N22
A    2
C22
A    3
C23
A    4
C24
A    5
C27
A    6
C25
A    7
N21
A    8
C26
A    9
C12
A   10
O11
A   11
C4'
A   12
C5'
A   13
N1'
A   14
C3'
A   15
C2'
A   16
C10
A   17
O09
A   18
C08
A   19
C06
A   20
N01
A   21
C02
A   22
N02
A   23
C03
A   24
C04
A   25
C05
A   26
C07
M  END
