4LWH_FJ5_A_301
     RDKit          3D

 66 70  0  0  0  0  0  0  0  0999 V2000
    1.5640  -34.0610  -25.1020 C   0  0  0  0  0  0  0  0  0  0  0  0
    0.3060  -33.6680  -24.6490 C   0  0  0  0  0  0  0  0  0  0  0  0
    0.1990  -32.9500  -23.4350 C   0  0  0  0  0  0  0  0  0  0  0  0
    1.3380  -32.6250  -22.7080 C   0  0  0  0  0  0  0  0  0  0  0  0
    2.5890  -33.0330  -23.1560 C   0  0  0  0  0  0  0  0  0  0  0  0
    2.6960  -33.7510  -24.3760 C   0  0  0  0  0  0  0  0  0  0  0  0
    3.9550  -34.1070  -24.8660 O   0  0  0  0  0  0  0  0  0  0  0  0
    1.2510  -31.9370  -21.5170 O   0  0  0  0  0  0  0  0  0  0  0  0
   -1.1870  -32.4550  -22.9960 C   0  0  0  0  0  0  0  0  0  0  0  0
    1.6260  -34.8800  -26.3330 C   0  0  0  0  0  0  0  0  0  0  0  0
   -2.2430  -33.4170  -23.1960 C   0  0  0  0  0  0  0  0  0  0  0  0
   -1.4540  -31.1290  -23.6570 C   0  0  0  0  0  0  0  0  0  0  0  0
    2.3180  -34.7290  -27.4500 N   0  0  0  0  0  0  0  0  0  0  0  0
    2.0400  -35.7310  -28.2850 O   0  0  0  0  0  0  0  0  0  0  0  0
    1.1810  -36.5830  -27.7780 C   0  0  0  0  0  0  0  0  0  0  0  0
    0.8430  -36.1080  -26.4720 C   0  0  0  0  0  0  0  0  0  0  0  0
   -0.0710  -36.6210  -25.4110 C   0  0  0  0  0  0  0  0  0  0  0  0
   -1.4740  -36.6430  -25.6220 C   0  0  0  0  0  0  0  0  0  0  0  0
   -2.3070  -37.0980  -24.5880 C   0  0  0  0  0  0  0  0  0  0  0  0
   -1.7610  -37.5160  -23.3600 C   0  0  0  0  0  0  0  0  0  0  0  0
   -0.3660  -37.4710  -23.1350 C   0  0  0  0  0  0  0  0  0  0  0  0
    0.4670  -37.0140  -24.1690 C   0  0  0  0  0  0  0  0  0  0  0  0
   -2.6990  -37.9590  -22.2390 C   0  0  0  0  0  0  0  0  0  0  0  0
   -2.7420  -39.3930  -22.1070 N   0  0  0  0  0  0  0  0  0  0  0  0
    0.6030  -37.7570  -28.4110 N   0  0  0  0  0  0  0  0  0  0  0  0
    0.5110  -39.0490  -27.7310 C   0  0  0  0  0  0  0  0  0  0  0  0
    0.0040  -39.9590  -28.3360 O   0  0  0  0  0  0  0  0  0  0  0  0
    1.3500  -39.3430  -26.5210 C   0  0  0  0  0  0  0  0  0  0  0  0
    0.5750  -40.1620  -25.5450 C   0  0  0  0  0  0  0  0  0  0  0  0
    1.5880  -40.8120  -26.4230 C   0  0  0  0  0  0  0  0  0  0  0  0
   -3.3550  -40.0810  -23.1750 C   0  0  0  0  0  0  0  0  0  0  0  0
   -3.8740  -41.4470  -22.8890 C   0  0  0  0  0  0  0  0  0  0  0  0
   -4.4200  -41.5680  -21.6010 O   0  0  0  0  0  0  0  0  0  0  0  0
   -3.4760  -41.2120  -20.6410 C   0  0  0  0  0  0  0  0  0  0  0  0
   -3.1130  -39.7820  -20.7960 C   0  0  0  0  0  0  0  0  0  0  0  0
   -0.5951  -33.9138  -25.2300 H   0  0  0  0  0  0  0  0  0  0  0  0
    3.4900  -32.8011  -22.5692 H   0  0  0  0  0  0  0  0  0  0  0  0
    4.6904  -34.3150  -24.2367 H   0  0  0  0  0  0  0  0  0  0  0  0
    1.3127  -32.4250  -20.6578 H   0  0  0  0  0  0  0  0  0  0  0  0
   -1.1781  -32.3179  -21.9046 H   0  0  0  0  0  0  0  0  0  0  0  0
   -2.6177  -33.7584  -22.2198 H   0  0  0  0  0  0  0  0  0  0  0  0
   -3.0631  -32.9492  -23.7604 H   0  0  0  0  0  0  0  0  0  0  0  0
   -1.8534  -34.2771  -23.7604 H   0  0  0  0  0  0  0  0  0  0  0  0
   -1.6089  -30.3597  -22.8862 H   0  0  0  0  0  0  0  0  0  0  0  0
   -0.5936  -30.8519  -24.2839 H   0  0  0  0  0  0  0  0  0  0  0  0
   -2.3546  -31.2065  -24.2839 H   0  0  0  0  0  0  0  0  0  0  0  0
   -1.9013  -36.3093  -26.5791 H   0  0  0  0  0  0  0  0  0  0  0  0
   -3.3962  -37.1282  -24.7388 H   0  0  0  0  0  0  0  0  0  0  0  0
    0.0579  -37.7872  -22.1705 H   0  0  0  0  0  0  0  0  0  0  0  0
    1.5538  -36.9620  -24.0075 H   0  0  0  0  0  0  0  0  0  0  0  0
   -2.3489  -37.5253  -21.2907 H   0  0  0  0  0  0  0  0  0  0  0  0
   -3.7125  -37.6097  -22.4858 H   0  0  0  0  0  0  0  0  0  0  0  0
    0.2451  -37.6762  -29.3735 H   0  0  0  0  0  0  0  0  0  0  0  0
    1.9717  -38.4374  -26.4630 H   0  0  0  0  0  0  0  0  0  0  0  0
    0.7666  -40.0596  -24.4667 H   0  0  0  0  0  0  0  0  0  0  0  0
   -0.4938  -40.3223  -25.3400 H   0  0  0  0  0  0  0  0  0  0  0  0
    1.2643  -41.4771  -27.2372 H   0  0  0  0  0  0  0  0  0  0  0  0
    2.4700  -41.4473  -26.2545 H   0  0  0  0  0  0  0  0  0  0  0  0
   -2.6129  -40.1701  -23.9821 H   0  0  0  0  0  0  0  0  0  0  0  0
   -4.2440  -39.4842  -23.4269 H   0  0  0  0  0  0  0  0  0  0  0  0
   -4.6557  -41.6862  -23.6250 H   0  0  0  0  0  0  0  0  0  0  0  0
   -3.0237  -42.1420  -22.9525 H   0  0  0  0  0  0  0  0  0  0  0  0
   -3.8967  -41.3749  -19.6378 H   0  0  0  0  0  0  0  0  0  0  0  0
   -2.5757  -41.8304  -20.7715 H   0  0  0  0  0  0  0  0  0  0  0  0
   -2.2665  -39.5711  -20.1260 H   0  0  0  0  0  0  0  0  0  0  0  0
   -4.0195  -39.2085  -20.5522 H   0  0  0  0  0  0  0  0  0  0  0  0
 25 15  1  0
 25 26  1  0
 27 26  2  0
 14 15  1  0
 14 13  1  0
 15 16  2  0
 26 28  1  0
 13 10  2  0
 28 30  1  0
 28 29  1  0
 16 10  1  0
 16 17  1  0
 30 29  1  0
 10  1  1  0
 18 17  2  0
 18 19  1  0
 17 22  1  0
  1  2  2  0
  1  6  1  0
  7  6  1  0
  2  3  1  0
 19 20  2  0
  6  5  2  0
 22 21  2  0
 12  9  1  0
  3  9  1  0
  3  4  2  0
 20 21  1  0
 20 23  1  0
 11  9  1  0
 31 32  1  0
 31 24  1  0
  5  4  1  0
 32 33  1  0
  4  8  1  0
 23 24  1  0
 24 35  1  0
 33 34  1  0
 35 34  1  0
  2 36  1  0
  5 37  1  0
  7 38  1  0
  8 39  1  0
  9 40  1  0
 11 41  1  0
 11 42  1  0
 11 43  1  0
 12 44  1  0
 12 45  1  0
 12 46  1  0
 18 47  1  0
 19 48  1  0
 21 49  1  0
 22 50  1  0
 23 51  1  0
 23 52  1  0
 25 53  1  0
 28 54  1  0
 29 55  1  0
 29 56  1  0
 30 57  1  0
 30 58  1  0
 31 59  1  0
 31 60  1  0
 32 61  1  0
 32 62  1  0
 34 63  1  0
 34 64  1  0
 35 65  1  0
 35 66  1  0
A    1
C01
A    2
C02
A    3
C03
A    4
C04
A    5
C05
A    6
C06
A    7
O07
A    8
O08
A    9
C09
A   10
C10
A   11
C11
A   12
C12
A   13
N13
A   14
O14
A   15
C15
A   16
C16
A   17
C17
A   18
C18
A   19
C19
A   20
C20
A   21
C21
A   22
C22
A   23
C23
A   24
N24
A   25
N25
A   26
C26
A   27
O27
A   28
C28
A   29
C29
A   30
C30
A   31
C31
A   32
C32
A   33
O33
A   34
C34
A   35
C35
M  END
