4LWT_20Q_A_201
     RDKit          3D

 50 53  0  0  0  0  0  0  0  0999 V2000
   12.9010   10.1710   33.0750 C   0  0  0  0  0  0  0  0  0  0  0  0
   11.7150    9.2850   34.8110 C   0  0  0  0  0  0  0  0  0  0  0  0
   12.8530   10.0930   35.4400 C   0  0  0  0  0  0  0  0  0  0  0  0
   13.5740   10.5250   34.2060 C   0  0  0  0  0  0  0  0  0  0  0  0
   11.7850    9.4000   33.4340 N   0  0  0  0  0  0  0  0  0  0  0  0
   13.2550   10.5380   31.8010 C   0  0  0  0  0  0  0  0  0  0  0  0
   14.7540   11.2410   34.1360 C   0  0  0  0  0  0  0  0  0  0  0  0
   15.1970   11.6650   32.8860 C   0  0  0  0  0  0  0  0  0  0  0  0
   14.4080   11.3690   31.7200 C   0  0  0  0  0  0  0  0  0  0  0  0
   10.3080   13.8660   34.1220 C   0  0  0  0  0  0  0  0  0  0  0  0
   10.4740   15.3250   33.3190 Cl  0  0  0  0  0  0  0  0  0  0  0  0
   11.4200   13.2570   34.7980 C   0  0  0  0  0  0  0  0  0  0  0  0
   11.2080   12.0430   35.4630 C   0  0  0  0  0  0  0  0  0  0  0  0
   12.3350   11.3450   36.2040 C   0  0  0  0  0  0  0  0  0  0  0  0
   13.7480    9.2100   36.3320 C   0  0  0  0  0  0  0  0  0  0  0  0
    9.9380   11.4520   35.4620 C   0  0  0  0  0  0  0  0  0  0  0  0
    8.8720   12.0570   34.7940 C   0  0  0  0  0  0  0  0  0  0  0  0
    9.0410   13.2460   34.1240 C   0  0  0  0  0  0  0  0  0  0  0  0
   12.9170    8.2860   37.2260 C   0  0  0  0  0  0  0  0  0  0  0  0
   13.8110    7.4840   38.0820 N   0  0  0  0  0  0  0  0  0  0  0  0
   14.8060    8.2080   38.8910 C   0  0  0  0  0  0  0  0  0  0  0  0
   15.6240    9.1570   38.0020 C   0  0  0  0  0  0  0  0  0  0  0  0
   14.6950   10.0620   37.1830 C   0  0  0  0  0  0  0  0  0  0  0  0
   10.8480    8.6190   35.3930 O   0  0  0  0  0  0  0  0  0  0  0  0
   14.8350   12.0590   30.2780 Cl  0  0  0  0  0  0  0  0  0  0  0  0
   13.8650    6.1530   37.9650 C   0  0  0  0  0  0  0  0  0  0  0  0
   14.7410    5.5120   38.5590 O   0  0  0  0  0  0  0  0  0  0  0  0
   12.8200    5.5170   37.0910 C   0  0  0  0  0  0  0  0  0  0  0  0
   11.1170    8.9817   32.7709 H   0  0  0  0  0  0  0  0  0  0  0  0
   12.6923   10.2155   30.9125 H   0  0  0  0  0  0  0  0  0  0  0  0
   15.3290   11.4702   35.0453 H   0  0  0  0  0  0  0  0  0  0  0  0
   16.1413   12.2210   32.7909 H   0  0  0  0  0  0  0  0  0  0  0  0
   12.4121   13.7321   34.7933 H   0  0  0  0  0  0  0  0  0  0  0  0
   11.9680   11.0304   37.1921 H   0  0  0  0  0  0  0  0  0  0  0  0
   13.1703   12.0549   36.2949 H   0  0  0  0  0  0  0  0  0  0  0  0
   14.3523    8.5816   35.6612 H   0  0  0  0  0  0  0  0  0  0  0  0
    9.7791   10.5018   35.9929 H   0  0  0  0  0  0  0  0  0  0  0  0
    7.8828   11.5759   34.8037 H   0  0  0  0  0  0  0  0  0  0  0  0
    8.1956   13.7095   33.5943 H   0  0  0  0  0  0  0  0  0  0  0  0
   12.2515    8.8915   37.8588 H   0  0  0  0  0  0  0  0  0  0  0  0
   12.3172    7.6131   36.5956 H   0  0  0  0  0  0  0  0  0  0  0  0
   15.4826    7.4838   39.3683 H   0  0  0  0  0  0  0  0  0  0  0  0
   14.2837    8.7971   39.6593 H   0  0  0  0  0  0  0  0  0  0  0  0
   16.2473    8.5636   37.3169 H   0  0  0  0  0  0  0  0  0  0  0  0
   16.2582    9.7864   38.6435 H   0  0  0  0  0  0  0  0  0  0  0  0
   15.2992   10.7030   36.5242 H   0  0  0  0  0  0  0  0  0  0  0  0
   14.1017   10.6847   37.8688 H   0  0  0  0  0  0  0  0  0  0  0  0
   12.0501    5.0485   37.7217 H   0  0  0  0  0  0  0  0  0  0  0  0
   12.3557    6.2858   36.4559 H   0  0  0  0  0  0  0  0  0  0  0  0
   13.2896    4.7514   36.4559 H   0  0  0  0  0  0  0  0  0  0  0  0
 25  9  1  0
  9  6  1  0
  9  8  2  0
  6  1  2  0
  8  7  1  0
  1  5  1  0
  1  4  1  0
 11 10  1  0
  5  2  1  0
 10 18  2  0
 10 12  1  0
 18 17  1  0
  7  4  2  0
  4  3  1  0
 17 16  2  0
 12 13  2  0
  2 24  2  0
  2  3  1  0
  3 14  1  0
  3 15  1  0
 16 13  1  0
 13 14  1  0
 15 23  1  0
 15 19  1  0
 28 26  1  0
 23 22  1  0
 19 20  1  0
 26 20  1  0
 26 27  2  0
 22 21  1  0
 20 21  1  0
  5 29  1  0
  6 30  1  0
  7 31  1  0
  8 32  1  0
 12 33  1  0
 14 34  1  0
 14 35  1  0
 15 36  1  0
 16 37  1  0
 17 38  1  0
 18 39  1  0
 19 40  1  0
 19 41  1  0
 21 42  1  0
 21 43  1  0
 22 44  1  0
 22 45  1  0
 23 46  1  0
 23 47  1  0
 28 48  1  0
 28 49  1  0
 28 50  1  0
A    1
C9
A    2
C2
A    3
C3
A    4
C8
A    5
N1
A    6
C7
A    7
C4
A    8
C5
A    9
C6
A   10
C13
A   11
CL1
A   12
C12
A   13
C11
A   14
C10
A   15
C31
A   16
C16
A   17
C15
A   18
C14
A   19
C32
A   20
N33
A   21
C34
A   22
C35
A   23
C36
A   24
O2
A   25
CL6
A   26
C33
A   27
O33
A   28
C37
M  END
