4LWW_LWW_A_601
     RDKit          3D

 45 48  0  0  0  0  0  0  0  0999 V2000
   15.2040    4.6870   -3.0190 C   0  0  0  0  0  0  0  0  0  0  0  0
   15.4390    5.2770   -4.2460 C   0  0  0  0  0  0  0  0  0  0  0  0
   16.4440    4.7910   -5.0620 C   0  0  0  0  0  0  0  0  0  0  0  0
   14.8760    6.4330   -0.9760 C   0  0  0  0  0  0  0  0  0  0  0  0
   16.4120    8.1500    0.5780 C   0  0  0  0  0  0  0  0  0  0  0  0
   15.6450    5.9470    0.0640 C   0  0  0  0  0  0  0  0  0  0  0  0
   15.2940   10.4100    4.2670 C   0  0  0  0  0  0  0  0  0  0  0  0
   14.1430   11.0130    4.6600 C   0  0  0  0  0  0  0  0  0  0  0  0
   14.1140   10.9320    6.0780 C   0  0  0  0  0  0  0  0  0  0  0  0
   15.5020   10.0380    7.8560 C   0  0  0  0  0  0  0  0  0  0  0  0
   17.2210    3.7260   -4.6430 C   0  0  0  0  0  0  0  0  0  0  0  0
   16.9960    3.1370   -3.4130 C   0  0  0  0  0  0  0  0  0  0  0  0
   15.9910    3.6250   -2.5980 C   0  0  0  0  0  0  0  0  0  0  0  0
   13.9440    5.2880   -1.9400 S   0  0  0  0  0  0  0  0  0  0  0  0
   12.9530    5.9670   -2.6920 O   0  0  0  0  0  0  0  0  0  0  0  0
   13.6450    4.1890   -1.0840 O   0  0  0  0  0  0  0  0  0  0  0  0
   14.8900    7.7870   -1.2540 C   0  0  0  0  0  0  0  0  0  0  0  0
   15.6620    8.6350   -0.4800 C   0  0  0  0  0  0  0  0  0  0  0  0
   16.4120    6.7960    0.8390 C   0  0  0  0  0  0  0  0  0  0  0  0
   17.2700    9.0860    1.3870 C   0  0  0  0  0  0  0  0  0  0  0  0
   16.7680    9.3470    2.7340 N   0  0  0  0  0  0  0  0  0  0  0  0
   15.7560   10.2130    2.9000 C   0  0  0  0  0  0  0  0  0  0  0  0
   15.2260   10.7730    1.9560 O   0  0  0  0  0  0  0  0  0  0  0  0
   13.2190   11.3560    7.0520 C   0  0  0  0  0  0  0  0  0  0  0  0
   13.4640   11.1130    8.3270 N   0  0  0  0  0  0  0  0  0  0  0  0
   14.5570   10.4750    8.7310 C   0  0  0  0  0  0  0  0  0  0  0  0
   15.2940   10.2550    6.4860 C   0  0  0  0  0  0  0  0  0  0  0  0
   15.9950    9.9380    5.3600 N   0  0  0  0  0  0  0  0  0  0  0  0
   14.8281    6.1313   -4.5730 H   0  0  0  0  0  0  0  0  0  0  0  0
   16.6256    5.2513   -6.0444 H   0  0  0  0  0  0  0  0  0  0  0  0
   15.6467    4.8681    0.2783 H   0  0  0  0  0  0  0  0  0  0  0  0
   13.3840   11.4727    4.0100 H   0  0  0  0  0  0  0  0  0  0  0  0
   16.4077    9.5267    8.2141 H   0  0  0  0  0  0  0  0  0  0  0  0
   18.0229    3.3455   -5.2927 H   0  0  0  0  0  0  0  0  0  0  0  0
   17.6117    2.2865   -3.0849 H   0  0  0  0  0  0  0  0  0  0  0  0
   15.8150    3.1694   -1.6124 H   0  0  0  0  0  0  0  0  0  0  0  0
   14.2912    8.1877   -2.0852 H   0  0  0  0  0  0  0  0  0  0  0  0
   15.6802    9.7108   -0.7086 H   0  0  0  0  0  0  0  0  0  0  0  0
   17.0208    6.3928    1.6617 H   0  0  0  0  0  0  0  0  0  0  0  0
   18.2744    8.6458    1.4727 H   0  0  0  0  0  0  0  0  0  0  0  0
   17.2704   10.0504    0.8580 H   0  0  0  0  0  0  0  0  0  0  0  0
   17.1858    8.8720    3.5468 H   0  0  0  0  0  0  0  0  0  0  0  0
   12.3051   11.8948    6.7612 H   0  0  0  0  0  0  0  0  0  0  0  0
   14.7021   10.2946    9.8064 H   0  0  0  0  0  0  0  0  0  0  0  0
   16.8925    9.4336    5.3296 H   0  0  0  0  0  0  0  0  0  0  0  0
  1  2  2  0
  1 13  1  0
  1 14  1  0
  2  3  1  0
  3 11  2  0
  4  6  2  0
  4 14  1  0
  4 17  1  0
  5 18  1  0
  5 19  2  0
  5 20  1  0
  6 19  1  0
  7  8  2  0
  7 22  1  0
  7 28  1  0
  8  9  1  0
  9 24  2  0
  9 27  1  0
 10 26  1  0
 10 27  2  0
 11 12  1  0
 12 13  2  0
 14 15  2  0
 14 16  2  0
 17 18  2  0
 20 21  1  0
 21 22  1  0
 22 23  2  0
 24 25  1  0
 25 26  2  0
 27 28  1  0
  2 29  1  0
  3 30  1  0
  6 31  1  0
  8 32  1  0
 10 33  1  0
 11 34  1  0
 12 35  1  0
 13 36  1  0
 17 37  1  0
 18 38  1  0
 19 39  1  0
 20 40  1  0
 20 41  1  0
 21 42  1  0
 24 43  1  0
 26 44  1  0
 28 45  1  0
A    1
C4
A    2
C5
A    3
C6
A    4
C10
A    5
C13
A    6
C15
A    7
C20
A    8
C21
A    9
C22
A   10
C26
A   11
C1
A   12
C2
A   13
C3
A   14
S7
A   15
O8
A   16
O9
A   17
C11
A   18
C12
A   19
C14
A   20
C16
A   21
N17
A   22
C18
A   23
O19
A   24
C23
A   25
N24
A   26
C25
A   27
C27
A   28
N28
M  END
