4LY9_1YY_A_714
     RDKit          3D

 65 68  0  0  0  0  0  0  0  0999 V2000
   38.3610  -20.1460   13.5120 C   0  0  0  0  0  0  0  0  0  0  0  0
   36.9810  -20.7680   13.9080 C   0  0  0  0  0  0  0  0  0  0  0  0
   35.8760  -20.3360   12.9320 C   0  0  0  0  0  0  0  0  0  0  0  0
   36.0260  -20.9250   11.6160 O   0  0  0  0  0  0  0  0  0  0  0  0
   36.2560  -22.3580   11.5800 C   0  0  0  0  0  0  0  0  0  0  0  0
   37.3810  -22.6940   12.5800 C   0  0  0  0  0  0  0  0  0  0  0  0
   37.0070  -22.2400   13.9250 N   0  0  0  0  0  0  0  0  0  0  0  0
   37.9740  -22.7270   14.9270 C   0  0  0  0  0  0  0  0  0  0  0  0
   37.5180  -23.9710   15.7180 C   0  0  0  0  0  0  0  0  0  0  0  0
   38.2580  -25.2450   15.1800 C   0  0  0  0  0  0  0  0  0  0  0  0
   39.7210  -25.0170   15.0960 N   0  0  0  0  0  0  0  0  0  0  0  0
   40.4540  -26.1770   14.2610 S   0  0  0  0  0  0  0  0  0  0  0  0
   41.9100  -26.1510   14.5550 O   0  0  0  0  0  0  0  0  0  0  0  0
   40.0440  -25.9790   12.8430 O   0  0  0  0  0  0  0  0  0  0  0  0
   39.8670  -27.7520   14.7180 C   0  0  0  0  0  0  0  0  0  0  0  0
   38.9010  -28.4650   14.1160 C   0  0  0  0  0  0  0  0  0  0  0  0
   38.6450  -29.6230   14.7510 C   0  0  0  0  0  0  0  0  0  0  0  0
   39.3890  -29.9020   15.8550 C   0  0  0  0  0  0  0  0  0  0  0  0
   40.4700  -28.5870   16.0370 S   0  0  0  0  0  0  0  0  0  0  0  0
   40.1410  -25.0330   16.4750 C   0  0  0  0  0  0  0  0  0  0  0  0
   39.3990  -23.9860   17.3200 C   0  0  0  0  0  0  0  0  0  0  0  0
   38.0150  -23.7150   17.0180 N   0  0  0  0  0  0  0  0  0  0  0  0
   37.2960  -22.9030   17.8870 C   0  0  0  0  0  0  0  0  0  0  0  0
   37.8010  -22.6220   19.1490 C   0  0  0  0  0  0  0  0  0  0  0  0
   37.1200  -21.8240   20.0360 C   0  0  0  0  0  0  0  0  0  0  0  0
   36.0830  -22.3630   17.5500 C   0  0  0  0  0  0  0  0  0  0  0  0
   35.3730  -21.5490   18.4190 C   0  0  0  0  0  0  0  0  0  0  0  0
   35.8910  -21.2860   19.6620 C   0  0  0  0  0  0  0  0  0  0  0  0
   35.1670  -20.3890   20.6220 C   0  0  0  0  0  0  0  0  0  0  0  0
   34.4870  -21.1030   21.7460 C   0  0  0  0  0  0  0  0  0  0  0  0
   33.7030  -20.2520   22.4360 F   0  0  0  0  0  0  0  0  0  0  0  0
   35.4460  -21.6320   22.5550 F   0  0  0  0  0  0  0  0  0  0  0  0
   33.6990  -21.9800   21.1970 F   0  0  0  0  0  0  0  0  0  0  0  0
   36.2680  -19.5350   21.2450 C   0  0  0  0  0  0  0  0  0  0  0  0
   34.2300  -19.6290   19.9080 O   0  0  0  0  0  0  0  0  0  0  0  0
   38.9237  -19.8924   14.4225 H   0  0  0  0  0  0  0  0  0  0  0  0
   38.9338  -20.8730   12.9175 H   0  0  0  0  0  0  0  0  0  0  0  0
   38.1957  -19.2353   12.9175 H   0  0  0  0  0  0  0  0  0  0  0  0
   36.7724  -20.3967   14.9222 H   0  0  0  0  0  0  0  0  0  0  0  0
   35.9040  -19.2409   12.8320 H   0  0  0  0  0  0  0  0  0  0  0  0
   34.9169  -20.6843   13.3430 H   0  0  0  0  0  0  0  0  0  0  0  0
   35.3356  -22.8895   11.8634 H   0  0  0  0  0  0  0  0  0  0  0  0
   36.5455  -22.6697   10.5656 H   0  0  0  0  0  0  0  0  0  0  0  0
   37.5431  -23.7819   12.5944 H   0  0  0  0  0  0  0  0  0  0  0  0
   38.3050  -22.1840   12.2699 H   0  0  0  0  0  0  0  0  0  0  0  0
   38.9096  -22.9775   14.4056 H   0  0  0  0  0  0  0  0  0  0  0  0
   38.0895  -21.9180   15.6634 H   0  0  0  0  0  0  0  0  0  0  0  0
   36.4329  -24.1406   15.6568 H   0  0  0  0  0  0  0  0  0  0  0  0
   37.8740  -25.4872   14.1781 H   0  0  0  0  0  0  0  0  0  0  0  0
   38.0734  -26.0764   15.8762 H   0  0  0  0  0  0  0  0  0  0  0  0
   38.3776  -28.1385   13.2053 H   0  0  0  0  0  0  0  0  0  0  0  0
   37.8678  -30.3142   14.3930 H   0  0  0  0  0  0  0  0  0  0  0  0
   39.3119  -30.7905   16.4989 H   0  0  0  0  0  0  0  0  0  0  0  0
   39.9436  -26.0308   16.8939 H   0  0  0  0  0  0  0  0  0  0  0  0
   41.2138  -24.7917   16.5040 H   0  0  0  0  0  0  0  0  0  0  0  0
   39.4435  -24.3221   18.3665 H   0  0  0  0  0  0  0  0  0  0  0  0
   39.9147  -23.0413   17.0930 H   0  0  0  0  0  0  0  0  0  0  0  0
   38.7703  -23.0488   19.4462 H   0  0  0  0  0  0  0  0  0  0  0  0
   37.5406  -21.6124   21.0302 H   0  0  0  0  0  0  0  0  0  0  0  0
   35.6591  -22.5821   16.5589 H   0  0  0  0  0  0  0  0  0  0  0  0
   34.4068  -21.1195   18.1159 H   0  0  0  0  0  0  0  0  0  0  0  0
   36.1980  -19.5893   22.3414 H   0  0  0  0  0  0  0  0  0  0  0  0
   37.2502  -19.9098   20.9213 H   0  0  0  0  0  0  0  0  0  0  0  0
   36.1493  -18.4904   20.9213 H   0  0  0  0  0  0  0  0  0  0  0  0
   33.6402  -19.1506   20.5432 H   0  0  0  0  0  0  0  0  0  0  0  0
  5  4  1  0
  5  6  1  0
  4  3  1  0
  6  7  1  0
 14 12  2  0
  3  2  1  0
  1  2  1  0
  2  7  1  0
  7  8  1  0
 16 15  2  0
 16 17  1  0
 12 13  2  0
 12 15  1  0
 12 11  1  0
 15 19  1  0
 17 18  2  0
  8  9  1  0
 11 10  1  0
 11 20  1  0
 10  9  1  0
  9 22  1  0
 18 19  1  0
 20 21  1  0
 22 21  1  0
 22 23  1  0
 26 23  1  0
 26 27  2  0
 23 24  2  0
 27 28  1  0
 24 25  1  0
 28 25  2  0
 28 29  1  0
 35 29  1  0
 29 34  1  0
 29 30  1  0
 33 30  1  0
 30 31  1  0
 30 32  1  0
  1 36  1  0
  1 37  1  0
  1 38  1  0
  2 39  1  0
  3 40  1  0
  3 41  1  0
  5 42  1  0
  5 43  1  0
  6 44  1  0
  6 45  1  0
  8 46  1  0
  8 47  1  0
  9 48  1  0
 10 49  1  0
 10 50  1  0
 16 51  1  0
 17 52  1  0
 18 53  1  0
 20 54  1  0
 20 55  1  0
 21 56  1  0
 21 57  1  0
 24 58  1  0
 25 59  1  0
 26 60  1  0
 27 61  1  0
 34 62  1  0
 34 63  1  0
 34 64  1  0
 35 65  1  0
A    1
C22
A    2
C21
A    3
C20
A    4
O4
A    5
C19
A    6
C18
A    7
N3
A    8
C5
A    9
C3
A   10
C2
A   11
N1
A   12
S1
A   13
O1
A   14
O2
A   15
C6
A   16
C7
A   17
C8
A   18
C9
A   19
S2
A   20
C1
A   21
C4
A   22
N2
A   23
C10
A   24
C15
A   25
C14
A   26
C11
A   27
C12
A   28
C13
A   29
C16
A   30
C23
A   31
F2
A   32
F3
A   33
F1
A   34
C17
A   35
O3
M  END
