4LYW_21Q_A_1001
     RDKit          3D

 56 57  0  0  0  0  0  0  0  0999 V2000
    4.7060    9.9960   23.9470 C   0  0  0  0  0  0  0  0  0  0  0  0
    4.1290    9.7990   22.5520 C   0  0  0  0  0  0  0  0  0  0  0  0
    5.2040    9.4760   21.5890 C   0  0  0  0  0  0  0  0  0  0  0  0
    6.5950    8.3540   20.2800 N   0  0  0  0  0  0  0  0  0  0  0  0
    5.5660    8.2050   21.1660 C   0  0  0  0  0  0  0  0  0  0  0  0
    5.0770    6.8930   21.4620 C   0  0  0  0  0  0  0  0  0  0  0  0
    3.7240    5.5770   23.0290 C   0  0  0  0  0  0  0  0  0  0  0  0
    3.4720    4.4860   22.2120 C   0  0  0  0  0  0  0  0  0  0  0  0
    2.7930    3.4020   22.7610 C   0  0  0  0  0  0  0  0  0  0  0  0
    2.3650    3.3900   24.0760 C   0  0  0  0  0  0  0  0  0  0  0  0
    2.6210    4.4770   24.8820 C   0  0  0  0  0  0  0  0  0  0  0  0
    3.2970    5.5490   24.3410 C   0  0  0  0  0  0  0  0  0  0  0  0
    3.5670    6.6550   25.1260 O   0  0  0  0  0  0  0  0  0  0  0  0
    0.5180    3.4530   20.5740 C   0  0  0  0  0  0  0  0  0  0  0  0
   -0.2040    1.2260   21.4020 C   0  0  0  0  0  0  0  0  0  0  0  0
    6.0960   11.8390   21.0150 C   0  0  0  0  0  0  0  0  0  0  0  0
    7.1170   12.4840   20.8100 O   0  0  0  0  0  0  0  0  0  0  0  0
    6.0580   10.4020   20.9380 C   0  0  0  0  0  0  0  0  0  0  0  0
    6.9110    9.6700   20.1250 C   0  0  0  0  0  0  0  0  0  0  0  0
    8.0110   10.0460   19.1950 C   0  0  0  0  0  0  0  0  0  0  0  0
    4.8170   12.5450   21.3010 C   0  0  0  0  0  0  0  0  0  0  0  0
    0.1130    2.9090   19.2190 C   0  0  0  0  0  0  0  0  0  0  0  0
    0.5740   -0.0520   21.1720 C   0  0  0  0  0  0  0  0  0  0  0  0
    4.4030    6.7620   22.6510 N   0  0  0  0  0  0  0  0  0  0  0  0
    0.7560    2.3440   21.5290 N   0  0  0  0  0  0  0  0  0  0  0  0
    5.2740    5.9670   20.6990 O   0  0  0  0  0  0  0  0  0  0  0  0
    3.0720    1.8820   20.5450 O   0  0  0  0  0  0  0  0  0  0  0  0
    2.4630    0.8150   22.7790 O   0  0  0  0  0  0  0  0  0  0  0  0
    2.3880    1.9160   21.8280 S   0  0  0  0  0  0  0  0  0  0  0  0
    3.9456    9.7364   24.6983 H   0  0  0  0  0  0  0  0  0  0  0  0
    5.5848    9.3470   24.0753 H   0  0  0  0  0  0  0  0  0  0  0  0
    5.0044   11.0469   24.0753 H   0  0  0  0  0  0  0  0  0  0  0  0
    3.6244   10.7235   22.2349 H   0  0  0  0  0  0  0  0  0  0  0  0
    3.4114    8.9657   22.5777 H   0  0  0  0  0  0  0  0  0  0  0  0
    7.0674    7.5775   19.7954 H   0  0  0  0  0  0  0  0  0  0  0  0
    3.7987    4.4771   21.1617 H   0  0  0  0  0  0  0  0  0  0  0  0
    1.8244    2.5191   24.4751 H   0  0  0  0  0  0  0  0  0  0  0  0
    2.2938    4.4892   25.9321 H   0  0  0  0  0  0  0  0  0  0  0  0
    3.5482    6.5781   26.1128 H   0  0  0  0  0  0  0  0  0  0  0  0
    1.4406    4.0423   20.4664 H   0  0  0  0  0  0  0  0  0  0  0  0
   -0.2940    4.0867   20.9600 H   0  0  0  0  0  0  0  0  0  0  0  0
   -0.8764    1.4093   20.5509 H   0  0  0  0  0  0  0  0  0  0  0  0
   -0.8062    1.1406   22.3186 H   0  0  0  0  0  0  0  0  0  0  0  0
    8.8950   10.3482   19.7758 H   0  0  0  0  0  0  0  0  0  0  0  0
    8.2659    9.1840   18.5610 H   0  0  0  0  0  0  0  0  0  0  0  0
    7.6849   10.8837   18.5610 H   0  0  0  0  0  0  0  0  0  0  0  0
    4.6764   12.6226   22.3892 H   0  0  0  0  0  0  0  0  0  0  0  0
    4.8488   13.5533   20.8626 H   0  0  0  0  0  0  0  0  0  0  0  0
    3.9807   11.9807   20.8626 H   0  0  0  0  0  0  0  0  0  0  0  0
   -0.5388    2.0335   19.3553 H   0  0  0  0  0  0  0  0  0  0  0  0
   -0.4285    3.6856   18.6590 H   0  0  0  0  0  0  0  0  0  0  0  0
    1.0123    2.6130   18.6590 H   0  0  0  0  0  0  0  0  0  0  0  0
    0.8444   -0.4962   22.1413 H   0  0  0  0  0  0  0  0  0  0  0  0
   -0.0457   -0.7613   20.6038 H   0  0  0  0  0  0  0  0  0  0  0  0
    1.4887    0.1728   20.6038 H   0  0  0  0  0  0  0  0  0  0  0  0
    4.3903    7.5627   23.2987 H   0  0  0  0  0  0  0  0  0  0  0  0
 20 19  1  0
 22 14  1  0
 19  4  1  0
 19 18  2  0
  4  5  1  0
 27 29  2  0
 14 25  1  0
 26  6  2  0
 17 16  2  0
 18 16  1  0
 18  3  1  0
 16 21  1  0
  5  6  1  0
  5  3  2  0
 23 15  1  0
 15 25  1  0
  6 24  1  0
 25 29  1  0
  3  2  1  0
 29  9  1  0
 29 28  2  0
  8  9  2  0
  8  7  1  0
  2  1  1  0
 24  7  1  0
  9 10  1  0
  7 12  2  0
 10 11  2  0
 12 11  1  0
 12 13  1  0
  1 30  1  0
  1 31  1  0
  1 32  1  0
  2 33  1  0
  2 34  1  0
  4 35  1  0
  8 36  1  0
 10 37  1  0
 11 38  1  0
 13 39  1  0
 14 40  1  0
 14 41  1  0
 15 42  1  0
 15 43  1  0
 20 44  1  0
 20 45  1  0
 20 46  1  0
 21 47  1  0
 21 48  1  0
 21 49  1  0
 22 50  1  0
 22 51  1  0
 22 52  1  0
 23 53  1  0
 23 54  1  0
 23 55  1  0
 24 56  1  0
A    1
C1
A    2
C2
A    3
C3
A    4
N6
A    5
C7
A    6
C8
A    7
C11
A    8
C12
A    9
C13
A   10
C14
A   11
C15
A   12
C16
A   13
O17
A   14
C22
A   15
C24
A   16
C27
A   17
O28
A   18
C4
A   19
C5
A   20
C26
A   21
C29
A   22
C23
A   23
C25
A   24
N10
A   25
N21
A   26
O9
A   27
O19
A   28
O20
A   29
S18
M  END
