4M1J_B0S_C_801
     RDKit          3D

 45 44  0  0  0  0  0  0  0  0999 V2000
   24.5940   38.3170   11.2330 C   0  0  0  0  0  0  0  0  0  0  0  0
   24.0640   37.0960   10.5330 C   0  0  0  0  0  0  0  0  0  0  0  0
   24.7120   35.8390   11.0180 C   0  0  0  0  0  0  0  0  0  0  0  0
   24.3270   34.6200   10.2180 C   0  0  0  0  0  0  0  0  0  0  0  0
   25.1900   33.4150   10.5240 C   0  0  0  0  0  0  0  0  0  0  0  0
   24.6050   32.1420    9.9710 C   0  0  0  0  0  0  0  0  0  0  0  0
   25.4680   30.8940   10.0040 C   0  0  0  0  0  0  0  0  0  0  0  0
   26.0310   30.6110    8.6140 C   0  0  0  0  0  0  0  0  0  0  0  0
   25.5750   29.3390    7.9710 C   0  0  0  0  0  0  0  0  0  0  0  0
   25.6970   29.3980    6.4880 C   0  0  0  0  0  0  0  0  0  0  0  0
   25.9450   28.0290    6.0020 C   0  0  0  0  0  0  0  0  0  0  0  0
   24.8210   27.5600    5.1390 C   0  0  0  0  0  0  0  0  0  0  0  0
   25.3200   27.4180    3.7350 C   0  0  0  0  0  0  0  0  0  0  0  0
   24.6010   26.2340    3.0010 B   0  0  0  0  0  0  0  0  0  0  0  0
   23.1470   26.1140    3.1200 O   0  0  0  0  0  0  0  0  0  0  0  0
   24.9850   26.0920    1.5770 O   0  0  0  0  0  0  0  0  0  0  0  0
   24.5310   38.1719   12.3216 H   0  0  0  0  0  0  0  0  0  0  0  0
   25.6432   38.4785   10.9447 H   0  0  0  0  0  0  0  0  0  0  0  0
   23.9954   39.1937   10.9447 H   0  0  0  0  0  0  0  0  0  0  0  0
   24.2516   37.1973    9.4539 H   0  0  0  0  0  0  0  0  0  0  0  0
   22.9876   37.0249   10.7482 H   0  0  0  0  0  0  0  0  0  0  0  0
   24.4172   35.6763   12.0652 H   0  0  0  0  0  0  0  0  0  0  0  0
   25.7986   35.9702   10.9077 H   0  0  0  0  0  0  0  0  0  0  0  0
   24.4236   34.8578    9.1484 H   0  0  0  0  0  0  0  0  0  0  0  0
   23.2928   34.3615   10.4894 H   0  0  0  0  0  0  0  0  0  0  0  0
   25.2863   33.3160   11.6153 H   0  0  0  0  0  0  0  0  0  0  0  0
   26.1696   33.5713   10.0486 H   0  0  0  0  0  0  0  0  0  0  0  0
   24.3419   32.3313    8.9198 H   0  0  0  0  0  0  0  0  0  0  0  0
   23.7606   31.9126   10.6376 H   0  0  0  0  0  0  0  0  0  0  0  0
   24.8588   30.0385   10.3312 H   0  0  0  0  0  0  0  0  0  0  0  0
   26.3007   31.0496   10.7057 H   0  0  0  0  0  0  0  0  0  0  0  0
   27.1273   30.5733    8.6956 H   0  0  0  0  0  0  0  0  0  0  0  0
   25.6567   31.4208    7.9705 H   0  0  0  0  0  0  0  0  0  0  0  0
   24.5218   29.1633    8.2355 H   0  0  0  0  0  0  0  0  0  0  0  0
   26.2143   28.5215    8.3358 H   0  0  0  0  0  0  0  0  0  0  0  0
   26.5353   30.0525    6.2072 H   0  0  0  0  0  0  0  0  0  0  0  0
   24.7766   29.8033    6.0424 H   0  0  0  0  0  0  0  0  0  0  0  0
   26.0439   27.3529    6.8640 H   0  0  0  0  0  0  0  0  0  0  0  0
   26.8699   28.0289    5.4065 H   0  0  0  0  0  0  0  0  0  0  0  0
   24.0014   28.2931    5.1680 H   0  0  0  0  0  0  0  0  0  0  0  0
   24.4478   26.5916    5.5036 H   0  0  0  0  0  0  0  0  0  0  0  0
   26.4026   27.2242    3.7558 H   0  0  0  0  0  0  0  0  0  0  0  0
   25.1060   28.3497    3.1908 H   0  0  0  0  0  0  0  0  0  0  0  0
   22.8948   26.0932    4.0771 H   0  0  0  0  0  0  0  0  0  0  0  0
   25.9119   25.7492    1.5178 H   0  0  0  0  0  0  0  0  0  0  0  0
 16 14  1  0
 14 15  1  0
 14 13  1  0
 13 12  1  0
 12 11  1  0
 11 10  1  0
 10  9  1  0
  9  8  1  0
  8  7  1  0
  6  7  1  0
  6  5  1  0
  4  5  1  0
  4  3  1  0
  2  3  1  0
  2  1  1  0
  1 17  1  0
  1 18  1  0
  1 19  1  0
  2 20  1  0
  2 21  1  0
  3 22  1  0
  3 23  1  0
  4 24  1  0
  4 25  1  0
  5 26  1  0
  5 27  1  0
  6 28  1  0
  6 29  1  0
  7 30  1  0
  7 31  1  0
  8 32  1  0
  8 33  1  0
  9 34  1  0
  9 35  1  0
 10 36  1  0
 10 37  1  0
 11 38  1  0
 11 39  1  0
 12 40  1  0
 12 41  1  0
 13 42  1  0
 13 43  1  0
 15 44  1  0
 16 45  1  0
A    1
C1
A    2
C2
A    3
C3
A    4
C4
A    5
C5
A    6
C6
A    7
C7
A    8
C8
A    9
C9
A   10
C10
A   11
C11
A   12
C12
A   13
C13
A   14
B1
A   15
O2
A   16
O3
M  END
