4M3B_2B2_A_301
     RDKit          3D

 34 35  0  0  0  0  0  0  0  0999 V2000
   32.2130  -17.4240   -7.7590 F   0  0  0  0  0  0  0  0  0  0  0  0
   30.9710  -17.4980   -7.3620 C   0  0  0  0  0  0  0  0  0  0  0  0
   30.2820  -17.4360   -8.4660 F   0  0  0  0  0  0  0  0  0  0  0  0
   30.7560  -18.6680   -6.7530 F   0  0  0  0  0  0  0  0  0  0  0  0
   30.5640  -16.3400   -6.4780 C   0  0  0  0  0  0  0  0  0  0  0  0
   29.0670  -16.3640   -6.1160 C   0  0  0  0  0  0  0  0  0  0  0  0
   28.6360  -15.0430   -5.5700 N   0  0  0  0  0  0  0  0  0  0  0  0
   28.4180  -14.0110   -6.3820 C   0  0  0  0  0  0  0  0  0  0  0  0
   28.3150  -14.1820   -7.6130 O   0  0  0  0  0  0  0  0  0  0  0  0
   28.1510  -12.6480   -5.7960 C   0  0  0  0  0  0  0  0  0  0  0  0
   28.2910  -12.4380   -4.4080 C   0  0  0  0  0  0  0  0  0  0  0  0
   28.0540  -11.1570   -3.8690 C   0  0  0  0  0  0  0  0  0  0  0  0
   27.7470  -11.5930   -6.6310 C   0  0  0  0  0  0  0  0  0  0  0  0
   27.4880  -10.3170   -6.0730 C   0  0  0  0  0  0  0  0  0  0  0  0
   27.6480  -10.1080   -4.6920 C   0  0  0  0  0  0  0  0  0  0  0  0
   27.3710   -8.8400   -4.1670 C   0  0  0  0  0  0  0  0  0  0  0  0
   27.0420   -7.8190   -5.0010 N   0  0  0  0  0  0  0  0  0  0  0  0
   27.3940   -8.4500   -2.8440 C   0  0  0  0  0  0  0  0  0  0  0  0
   26.9270   -6.8200   -2.7130 S   0  0  0  0  0  0  0  0  0  0  0  0
   26.7930   -6.6400   -4.4090 C   0  0  0  0  0  0  0  0  0  0  0  0
   26.3960   -5.3560   -5.0820 C   0  0  0  0  0  0  0  0  0  0  0  0
   31.1512  -16.3836   -5.5489 H   0  0  0  0  0  0  0  0  0  0  0  0
   30.7550  -15.4125   -7.0377 H   0  0  0  0  0  0  0  0  0  0  0  0
   28.4806  -16.5906   -7.0187 H   0  0  0  0  0  0  0  0  0  0  0  0
   28.9003  -17.1354   -5.3497 H   0  0  0  0  0  0  0  0  0  0  0  0
   28.5060  -14.9290   -4.5546 H   0  0  0  0  0  0  0  0  0  0  0  0
   28.5835  -13.2694   -3.7498 H   0  0  0  0  0  0  0  0  0  0  0  0
   28.1905  -10.9842   -2.7913 H   0  0  0  0  0  0  0  0  0  0  0  0
   27.6324  -11.7569   -7.7127 H   0  0  0  0  0  0  0  0  0  0  0  0
   27.1617   -9.4896   -6.7203 H   0  0  0  0  0  0  0  0  0  0  0  0
   27.6729   -9.0971   -1.9993 H   0  0  0  0  0  0  0  0  0  0  0  0
   26.1620   -4.5991   -4.3189 H   0  0  0  0  0  0  0  0  0  0  0  0
   27.2258   -4.9993   -5.7098 H   0  0  0  0  0  0  0  0  0  0  0  0
   25.5097   -5.5299   -5.7098 H   0  0  0  0  0  0  0  0  0  0  0  0
  3  2  1  0
  1  2  1  0
  9  8  2  0
  2  4  1  0
  2  5  1  0
 13 14  1  0
 13 10  2  0
  5  6  1  0
  8 10  1  0
  8  7  1  0
  6  7  1  0
 14 15  2  0
 10 11  1  0
 21 20  1  0
 17 20  2  0
 17 16  1  0
 15 16  1  0
 15 12  1  0
 20 19  1  0
 11 12  2  0
 16 18  2  0
 18 19  1  0
  5 22  1  0
  5 23  1  0
  6 24  1  0
  6 25  1  0
  7 26  1  0
 11 27  1  0
 12 28  1  0
 13 29  1  0
 14 30  1  0
 18 31  1  0
 21 32  1  0
 21 33  1  0
 21 34  1  0
A    1
F3
A    2
C14
A    3
F1
A    4
F2
A    5
C13
A    6
C12
A    7
N2
A    8
C11
A    9
O
A   10
C8
A   11
C7
A   12
C6
A   13
C9
A   14
C10
A   15
C5
A   16
C3
A   17
N1
A   18
C4
A   19
S
A   20
C2
A   21
C1
M  END
