4M3E_2B3_A_301
     RDKit          3D

 48 49  0  0  0  0  0  0  0  0999 V2000
  -30.6140   18.5200   -7.0110 F   0  0  0  0  0  0  0  0  0  0  0  0
  -30.7990   17.2730   -7.3920 C   0  0  0  0  0  0  0  0  0  0  0  0
  -32.0500   17.1080   -7.6250 F   0  0  0  0  0  0  0  0  0  0  0  0
  -30.1240   17.1010   -8.5040 F   0  0  0  0  0  0  0  0  0  0  0  0
  -30.4090   16.2290   -6.3800 C   0  0  0  0  0  0  0  0  0  0  0  0
  -28.9050   16.0850   -6.5050 C   0  0  0  0  0  0  0  0  0  0  0  0
  -28.4370   14.8500   -5.9340 N   0  0  0  0  0  0  0  0  0  0  0  0
  -28.1180   13.8490   -6.7260 C   0  0  0  0  0  0  0  0  0  0  0  0
  -27.9850   14.0440   -7.9250 O   0  0  0  0  0  0  0  0  0  0  0  0
  -27.8820   12.5020   -6.1050 C   0  0  0  0  0  0  0  0  0  0  0  0
  -28.0650   12.3100   -4.7440 C   0  0  0  0  0  0  0  0  0  0  0  0
  -27.8300   11.0480   -4.1320 C   0  0  0  0  0  0  0  0  0  0  0  0
  -27.4910   11.4330   -6.8560 C   0  0  0  0  0  0  0  0  0  0  0  0
  -27.2750   10.1920   -6.2600 C   0  0  0  0  0  0  0  0  0  0  0  0
  -27.4250    9.9670   -4.8880 C   0  0  0  0  0  0  0  0  0  0  0  0
  -27.1810    8.6860   -4.3340 C   0  0  0  0  0  0  0  0  0  0  0  0
  -26.7680    7.6190   -5.1280 N   0  0  0  0  0  0  0  0  0  0  0  0
  -27.2770    8.3170   -2.9760 C   0  0  0  0  0  0  0  0  0  0  0  0
  -26.8530    6.6790   -2.8820 S   0  0  0  0  0  0  0  0  0  0  0  0
  -26.5650    6.4370   -4.5280 C   0  0  0  0  0  0  0  0  0  0  0  0
  -26.1350    5.1010   -5.1230 C   0  0  0  0  0  0  0  0  0  0  0  0
  -26.4190    3.9190   -4.3140 N   0  0  0  0  0  0  0  0  0  0  0  0
  -27.8390    3.1190   -4.2890 S   0  0  0  0  0  0  0  0  0  0  0  0
  -28.3570    3.1570   -2.9320 O   0  0  0  0  0  0  0  0  0  0  0  0
  -28.7910    3.7530   -5.1670 O   0  0  0  0  0  0  0  0  0  0  0  0
  -27.6610    1.5130   -4.7990 C   0  0  0  0  0  0  0  0  0  0  0  0
  -27.1350    0.5470   -3.7140 C   0  0  0  0  0  0  0  0  0  0  0  0
  -28.2300   -0.1660   -2.9340 C   0  0  0  0  0  0  0  0  0  0  0  0
  -30.6808   16.5565   -5.3657 H   0  0  0  0  0  0  0  0  0  0  0  0
  -30.9264   15.2748   -6.5583 H   0  0  0  0  0  0  0  0  0  0  0  0
  -28.6322   16.1106   -7.5703 H   0  0  0  0  0  0  0  0  0  0  0  0
  -28.4354   16.9148   -5.9565 H   0  0  0  0  0  0  0  0  0  0  0  0
  -28.3523   14.7503   -4.9123 H   0  0  0  0  0  0  0  0  0  0  0  0
  -28.3999   13.1539   -4.1229 H   0  0  0  0  0  0  0  0  0  0  0  0
  -27.9722   10.9327   -3.0473 H   0  0  0  0  0  0  0  0  0  0  0  0
  -27.3451   11.5511   -7.9399 H   0  0  0  0  0  0  0  0  0  0  0  0
  -26.9722    9.3495   -6.8991 H   0  0  0  0  0  0  0  0  0  0  0  0
  -27.5706    8.9674   -2.1389 H   0  0  0  0  0  0  0  0  0  0  0  0
  -26.6503    4.9806   -6.0873 H   0  0  0  0  0  0  0  0  0  0  0  0
  -25.0389    5.1503   -5.2015 H   0  0  0  0  0  0  0  0  0  0  0  0
  -25.7157    3.2203   -4.5933 H   0  0  0  0  0  0  0  0  0  0  0  0
  -28.6432    1.1491   -5.1351 H   0  0  0  0  0  0  0  0  0  0  0  0
  -26.9066    1.5224   -5.5995 H   0  0  0  0  0  0  0  0  0  0  0  0
  -26.5079   -0.2132   -4.2028 H   0  0  0  0  0  0  0  0  0  0  0  0
  -26.5754    1.1573   -2.9899 H   0  0  0  0  0  0  0  0  0  0  0  0
  -28.0484   -0.0477   -1.8556 H   0  0  0  0  0  0  0  0  0  0  0  0
  -29.2067    0.2698   -3.1913 H   0  0  0  0  0  0  0  0  0  0  0  0
  -28.2265   -1.2355   -3.1913 H   0  0  0  0  0  0  0  0  0  0  0  0
  4  2  1  0
  9  8  2  0
  3  2  1  0
  2  1  1  0
  2  5  1  0
 13 14  1  0
 13 10  2  0
  8 10  1  0
  8  7  1  0
  6  5  1  0
  6  7  1  0
 14 15  2  0
 10 11  1  0
 25 23  2  0
 17 20  2  0
 17 16  1  0
 21 20  1  0
 21 22  1  0
 15 16  1  0
 15 12  1  0
 26 23  1  0
 26 27  1  0
 11 12  2  0
 20 19  1  0
 16 18  2  0
 22 23  1  0
 23 24  2  0
 27 28  1  0
 18 19  1  0
  5 29  1  0
  5 30  1  0
  6 31  1  0
  6 32  1  0
  7 33  1  0
 11 34  1  0
 12 35  1  0
 13 36  1  0
 14 37  1  0
 18 38  1  0
 21 39  1  0
 21 40  1  0
 22 41  1  0
 26 42  1  0
 26 43  1  0
 27 44  1  0
 27 45  1  0
 28 46  1  0
 28 47  1  0
 28 48  1  0
A    1
F3
A    2
C17
A    3
F1
A    4
F2
A    5
C16
A    6
C15
A    7
N3
A    8
C14
A    9
O3
A   10
C11
A   11
C10
A   12
C9
A   13
C12
A   14
C13
A   15
C8
A   16
C6
A   17
N2
A   18
C7
A   19
S2
A   20
C5
A   21
C4
A   22
N1
A   23
S1
A   24
O1
A   25
O2
A   26
C3
A   27
C2
A   28
C1
M  END
