4M3M_22N_A_501
     RDKit          3D

 44 44  0  0  0  0  0  0  0  0999 V2000
  -68.5800   23.3450  141.1490 C   0  0  0  0  0  0  0  0  0  0  0  0
  -68.5300   22.3270  140.5050 O   0  0  0  0  0  0  0  0  0  0  0  0
  -68.0600   23.3590  142.2410 O   0  0  0  0  0  0  0  0  0  0  0  0
  -69.2040   24.4790  140.6920 C   0  0  0  0  0  0  0  0  0  0  0  0
  -68.9800   25.6770  141.4120 C   0  0  0  0  0  0  0  0  0  0  0  0
  -69.6300   26.8660  140.7920 C   0  0  0  0  0  0  0  0  0  0  0  0
  -71.0100   26.4830  140.4270 C   0  0  0  0  0  0  0  0  0  0  0  0
  -71.7410   26.1550  141.6670 N   0  0  0  0  0  0  0  0  0  0  0  0
  -72.5670   25.1290  142.0180 C   0  0  0  0  0  0  0  0  0  0  0  0
  -72.9180   24.2140  141.3220 O   0  0  0  0  0  0  0  0  0  0  0  0
  -73.1030   25.1630  143.4220 C   0  0  0  0  0  0  0  0  0  0  0  0
  -70.9260   25.4690  139.2400 C   0  0  0  0  0  0  0  0  0  0  0  0
  -70.0930   24.3980  139.6240 C   0  0  0  0  0  0  0  0  0  0  0  0
  -72.1560   25.0110  138.8020 O   0  0  0  0  0  0  0  0  0  0  0  0
  -72.4960   25.2390  137.4740 C   0  0  0  0  0  0  0  0  0  0  0  0
  -74.0200   25.1260  137.3630 C   0  0  0  0  0  0  0  0  0  0  0  0
  -71.8500   24.1960  136.6110 C   0  0  0  0  0  0  0  0  0  0  0  0
  -72.2480   22.8340  137.1220 C   0  0  0  0  0  0  0  0  0  0  0  0
  -74.6460   26.3760  137.9710 C   0  0  0  0  0  0  0  0  0  0  0  0
  -69.6150   28.0260  141.6810 N   0  0  0  0  0  0  0  0  0  0  0  0
  -68.6209   23.3439  143.0566 H   0  0  0  0  0  0  0  0  0  0  0  0
  -69.3778   25.5524  142.4300 H   0  0  0  0  0  0  0  0  0  0  0  0
  -67.8954   25.8604  141.4112 H   0  0  0  0  0  0  0  0  0  0  0  0
  -69.0684   27.1695  139.8962 H   0  0  0  0  0  0  0  0  0  0  0  0
  -71.6465   27.2738  140.0034 H   0  0  0  0  0  0  0  0  0  0  0  0
  -71.5975   26.8418  142.4211 H   0  0  0  0  0  0  0  0  0  0  0  0
  -72.2670   25.1100  144.1350 H   0  0  0  0  0  0  0  0  0  0  0  0
  -73.6602   26.0983  143.5792 H   0  0  0  0  0  0  0  0  0  0  0  0
  -73.7739   24.3056  143.5792 H   0  0  0  0  0  0  0  0  0  0  0  0
  -70.5012   26.0025  138.3769 H   0  0  0  0  0  0  0  0  0  0  0  0
  -70.1481   23.4581  139.0551 H   0  0  0  0  0  0  0  0  0  0  0  0
  -72.1561   26.2325  137.1463 H   0  0  0  0  0  0  0  0  0  0  0  0
  -74.3094   25.0438  136.3049 H   0  0  0  0  0  0  0  0  0  0  0  0
  -74.3705   24.2316  137.8988 H   0  0  0  0  0  0  0  0  0  0  0  0
  -70.7562   24.3035  136.6559 H   0  0  0  0  0  0  0  0  0  0  0  0
  -72.1775   24.3162  135.5678 H   0  0  0  0  0  0  0  0  0  0  0  0
  -72.2462   22.8402  138.2220 H   0  0  0  0  0  0  0  0  0  0  0  0
  -73.2561   22.5861  136.7584 H   0  0  0  0  0  0  0  0  0  0  0  0
  -71.5320   22.0823  136.7584 H   0  0  0  0  0  0  0  0  0  0  0  0
  -74.6114   26.3068  139.0683 H   0  0  0  0  0  0  0  0  0  0  0  0
  -74.0861   27.2637  137.6417 H   0  0  0  0  0  0  0  0  0  0  0  0
  -75.6922   26.4594  137.6417 H   0  0  0  0  0  0  0  0  0  0  0  0
  -69.6191   27.7079  142.6606 H   0  0  0  0  0  0  0  0  0  0  0  0
  -68.7667   28.5829  141.5044 H   0  0  0  0  0  0  0  0  0  0  0  0
 17 18  1  0
 17 15  1  0
 16 15  1  0
 16 19  1  0
 15 14  1  0
 14 12  1  0
 12 13  1  0
 12  7  1  0
 13  4  2  0
  7  6  1  0
  7  8  1  0
  2  1  2  0
  4  1  1  0
  4  5  1  0
  6  5  1  0
  6 20  1  0
  1  3  1  0
 10  9  2  0
  8  9  1  0
  9 11  1  0
  3 21  1  0
  5 22  1  0
  5 23  1  0
  6 24  1  0
  7 25  1  0
  8 26  1  0
 11 27  1  0
 11 28  1  0
 11 29  1  0
 12 30  1  0
 13 31  1  0
 15 32  1  0
 16 33  1  0
 16 34  1  0
 17 35  1  0
 17 36  1  0
 18 37  1  0
 18 38  1  0
 18 39  1  0
 19 40  1  0
 19 41  1  0
 19 42  1  0
 20 43  1  0
 20 44  1  0
A    1
C1
A    2
O1A
A    3
O1B
A    4
C2
A    5
C3
A    6
C4
A    7
C5
A    8
N5
A    9
C10
A   10
O10
A   11
C11
A   12
C6
A   13
C7
A   14
O7
A   15
C8
A   16
C9
A   17
C81
A   18
C82
A   19
C91
A   20
N4
M  END
