4A4G_DA2_A_1148
     RDKit          3D

 32 31  0  0  0  0  0  0  0  0999 V2000
    9.7290   -1.5210    1.8900 C   0  0  0  0  0  0  0  0  0  0  0  0
   10.0350   -3.6920    0.7170 C   0  0  0  0  0  0  0  0  0  0  0  0
   13.8110   -8.0090   -0.9830 N   0  0  0  0  0  0  0  0  0  0  0  0
   14.3100   -7.4700    0.2670 C   0  0  0  0  0  0  0  0  0  0  0  0
   13.9870   -5.9690    0.3680 C   0  0  0  0  0  0  0  0  0  0  0  0
   14.3010   -5.3420    1.7210 C   0  0  0  0  0  0  0  0  0  0  0  0
   13.9780   -3.8640    1.7320 C   0  0  0  0  0  0  0  0  0  0  0  0
   12.5680   -3.6490    1.4650 N   0  0  0  0  0  0  0  0  0  0  0  0
   11.8380   -2.6250    1.8470 C   0  0  0  0  0  0  0  0  0  0  0  0
   12.3350   -1.6400    2.5440 N   0  0  0  0  0  0  0  0  0  0  0  0
   10.5860   -2.6100    1.5060 N   0  0  0  0  0  0  0  0  0  0  0  0
   13.6600   -8.2320    1.3850 C   0  0  0  0  0  0  0  0  0  0  0  0
   14.3620   -8.8570    2.1840 O   0  0  0  0  0  0  0  0  0  0  0  0
   12.4300   -8.2790    1.4220 O   0  0  0  0  0  0  0  0  0  0  0  0
    9.6817   -1.4610    2.9873 H   0  0  0  0  0  0  0  0  0  0  0  0
   10.1306   -0.5791    1.4882 H   0  0  0  0  0  0  0  0  0  0  0  0
    8.7190   -1.6899    1.4882 H   0  0  0  0  0  0  0  0  0  0  0  0
    9.6391   -4.4695    1.3868 H   0  0  0  0  0  0  0  0  0  0  0  0
    9.2233   -3.3066    0.0824 H   0  0  0  0  0  0  0  0  0  0  0  0
   10.8240   -4.1218    0.0824 H   0  0  0  0  0  0  0  0  0  0  0  0
   13.1240   -8.7510   -0.7870 H   0  0  0  0  0  0  0  0  0  0  0  0
   13.3601   -7.2581   -1.5250 H   0  0  0  0  0  0  0  0  0  0  0  0
   15.4033   -7.5764    0.3243 H   0  0  0  0  0  0  0  0  0  0  0  0
   14.5714   -5.4399   -0.3992 H   0  0  0  0  0  0  0  0  0  0  0  0
   12.9005   -5.8737    0.2249 H   0  0  0  0  0  0  0  0  0  0  0  0
   13.7037   -5.8448    2.4959 H   0  0  0  0  0  0  0  0  0  0  0  0
   15.3765   -5.4631    1.9178 H   0  0  0  0  0  0  0  0  0  0  0  0
   14.2272   -3.4465    2.7187 H   0  0  0  0  0  0  0  0  0  0  0  0
   14.5680   -3.3655    0.9488 H   0  0  0  0  0  0  0  0  0  0  0  0
   12.0876   -4.3771    0.9173 H   0  0  0  0  0  0  0  0  0  0  0  0
   11.7328   -0.8534    2.8260 H   0  0  0  0  0  0  0  0  0  0  0  0
   11.9613   -8.2969    2.2939 H   0  0  0  0  0  0  0  0  0  0  0  0
  1 11  1  0
  2 11  1  0
  3  4  1  0
  4  5  1  0
  4 12  1  0
  5  6  1  0
  6  7  1  0
  7  8  1  0
  8  9  1  0
  9 10  2  3
  9 11  1  0
 12 13  2  0
 12 14  1  0
  1 15  1  0
  1 16  1  0
  1 17  1  0
  2 18  1  0
  2 19  1  0
  2 20  1  0
  3 21  1  0
  3 22  1  0
  4 23  1  0
  5 24  1  0
  5 25  1  0
  6 26  1  0
  6 27  1  0
  7 28  1  0
  7 29  1  0
  8 30  1  0
 10 31  1  0
 14 32  1  0
A    1
C1
A    2
C2
A    3
N
A    4
CA
A    5
CB
A    6
CG
A    7
CD
A    8
NE
A    9
CZ
A   10
NH2
A   11
NH1
A   12
C
A   13
O
A   14
OXT
M  END
