4CRJ_YH5_A_1163
     RDKit          3D

 36 38  0  0  0  0  0  0  0  0999 V2000
   27.1510  -32.9300    1.9290 C   0  0  0  0  0  0  0  0  0  0  0  0
   26.5740  -31.9360    1.1910 O   0  0  0  0  0  0  0  0  0  0  0  0
   28.3550  -31.4680    3.5690 N   0  0  0  0  0  0  0  0  0  0  0  0
   29.9440  -30.7820    5.6780 S   0  0  0  0  0  0  0  0  0  0  0  0
   34.8890  -32.0870    6.5380 C   0  0  0  0  0  0  0  0  0  0  0  0
   35.5290  -33.1740    5.9730 C   0  0  0  0  0  0  0  0  0  0  0  0
   35.0220  -33.7420    4.8320 C   0  0  0  0  0  0  0  0  0  0  0  0
   33.8850  -33.2370    4.2480 C   0  0  0  0  0  0  0  0  0  0  0  0
   37.1230  -33.2280    7.6690 C   0  0  0  0  0  0  0  0  0  0  0  0
   29.2380  -33.1960    4.6820 N   0  0  0  0  0  0  0  0  0  0  0  0
   27.9590  -32.6500    3.0070 C   0  0  0  0  0  0  0  0  0  0  0  0
   31.6530  -32.3700    3.1740 O   0  0  0  0  0  0  0  0  0  0  0  0
   28.2990  -35.0000    3.3940 N   0  0  0  0  0  0  0  0  0  0  0  0
   29.1160  -31.8420    4.5740 C   0  0  0  0  0  0  0  0  0  0  0  0
   36.6830  -33.7940    6.4460 O   0  0  0  0  0  0  0  0  0  0  0  0
   28.4910  -33.7200    3.6770 C   0  0  0  0  0  0  0  0  0  0  0  0
   26.9370  -34.1990    1.5870 N   0  0  0  0  0  0  0  0  0  0  0  0
   27.5120  -35.1550    2.3260 C   0  0  0  0  0  0  0  0  0  0  0  0
   27.2550  -36.4540    1.9420 N   0  0  0  0  0  0  0  0  0  0  0  0
   31.3140  -30.4340    4.5420 C   0  0  0  0  0  0  0  0  0  0  0  0
   32.0340  -31.6920    4.1190 C   0  0  0  0  0  0  0  0  0  0  0  0
   33.2470  -32.1550    4.8120 C   0  0  0  0  0  0  0  0  0  0  0  0
   33.7450  -31.5730    5.9590 C   0  0  0  0  0  0  0  0  0  0  0  0
   35.2926  -31.6290    7.4531 H   0  0  0  0  0  0  0  0  0  0  0  0
   35.5291  -34.6078    4.3812 H   0  0  0  0  0  0  0  0  0  0  0  0
   33.4855  -33.6963    3.3318 H   0  0  0  0  0  0  0  0  0  0  0  0
   36.6877  -33.7880    8.5098 H   0  0  0  0  0  0  0  0  0  0  0  0
   38.2205  -33.2797    7.7231 H   0  0  0  0  0  0  0  0  0  0  0  0
   36.8023  -32.1772    7.7231 H   0  0  0  0  0  0  0  0  0  0  0  0
   29.7854  -33.7152    5.3832 H   0  0  0  0  0  0  0  0  0  0  0  0
   26.3464  -34.4377    0.7776 H   0  0  0  0  0  0  0  0  0  0  0  0
   27.1108  -37.1829    2.6553 H   0  0  0  0  0  0  0  0  0  0  0  0
   27.2072  -36.6955    0.9419 H   0  0  0  0  0  0  0  0  0  0  0  0
   32.0303  -29.7669    5.0439 H   0  0  0  0  0  0  0  0  0  0  0  0
   30.8953  -29.9636    3.6401 H   0  0  0  0  0  0  0  0  0  0  0  0
   33.2360  -30.7076    6.4085 H   0  0  0  0  0  0  0  0  0  0  0  0
  9 15  1  0
 15  6  1  0
  6  5  2  0
  6  7  1  0
  5 23  1  0
  7  8  2  0
 23 22  2  0
  8 22  1  0
 22 21  1  0
  2  1  2  0
 21 12  2  0
 21 20  1  0
 20  4  1  0
  1 11  1  0
  1 17  1  0
  3 11  1  0
  3 14  2  0
 11 16  2  0
 17 18  1  0
 14  4  1  0
 14 10  1  0
 16 10  1  0
 16 13  1  0
 18 13  2  0
 18 19  1  0
  5 24  1  0
  7 25  1  0
  8 26  1  0
  9 27  1  0
  9 28  1  0
  9 29  1  0
 10 30  1  0
 17 31  1  0
 19 32  1  0
 19 33  1  0
 20 34  1  0
 20 35  1  0
 23 36  1  0
A    1
C1
A    2
O1
A    3
N1
A    4
S1
A    5
C10
A    6
C11
A    7
C12
A    8
C13
A    9
C14
A   10
N2
A   11
C2
A   12
O2
A   13
N3
A   14
C3
A   15
O3
A   16
C4
A   17
N4
A   18
C5
A   19
N5
A   20
C6
A   21
C7
A   22
C8
A   23
C9
M  END
