4M5K_YH3_A_305
     RDKit          3D

 35 37  0  0  0  0  0  0  0  0999 V2000
   54.2670   12.3580   34.5990 O   0  0  0  0  0  0  0  0  0  0  0  0
   54.7970   13.4160   34.2910 C   0  0  0  0  0  0  0  0  0  0  0  0
   53.9330   14.6550   34.3640 C   0  0  0  0  0  0  0  0  0  0  0  0
   52.6440   14.5710   34.9020 C   0  0  0  0  0  0  0  0  0  0  0  0
   51.8120   15.6880   34.9870 C   0  0  0  0  0  0  0  0  0  0  0  0
   50.4390   15.5820   35.5740 C   0  0  0  0  0  0  0  0  0  0  0  0
   52.2610   16.9130   34.5220 C   0  0  0  0  0  0  0  0  0  0  0  0
   53.5360   17.0150   33.9840 C   0  0  0  0  0  0  0  0  0  0  0  0
   54.3640   15.8980   33.9030 C   0  0  0  0  0  0  0  0  0  0  0  0
   56.2510   13.4310   33.8500 C   0  0  0  0  0  0  0  0  0  0  0  0
   57.3410   11.9950   33.7950 S   0  0  0  0  0  0  0  0  0  0  0  0
   56.3750   10.6960   33.1610 C   0  0  0  0  0  0  0  0  0  0  0  0
   55.5040   10.9040   32.1740 N   0  0  0  0  0  0  0  0  0  0  0  0
   54.8990    9.7150   31.9250 C   0  0  0  0  0  0  0  0  0  0  0  0
   55.4280    8.7730   32.7840 C   0  0  0  0  0  0  0  0  0  0  0  0
   56.3590    9.4150   33.5620 N   0  0  0  0  0  0  0  0  0  0  0  0
   53.9500    9.3900   31.0150 N   0  0  0  0  0  0  0  0  0  0  0  0
   53.5190    8.1370   31.0030 C   0  0  0  0  0  0  0  0  0  0  0  0
   52.5080    7.7840   30.0900 N   0  0  0  0  0  0  0  0  0  0  0  0
   53.9940    7.1870   31.8190 N   0  0  0  0  0  0  0  0  0  0  0  0
   54.9500    7.4510   32.7120 C   0  0  0  0  0  0  0  0  0  0  0  0
   55.4260    6.4780   33.5380 O   0  0  0  0  0  0  0  0  0  0  0  0
   52.2774   13.6002   35.2670 H   0  0  0  0  0  0  0  0  0  0  0  0
   50.5082   15.5873   36.6718 H   0  0  0  0  0  0  0  0  0  0  0  0
   49.8308   16.4359   35.2408 H   0  0  0  0  0  0  0  0  0  0  0  0
   49.9691   14.6449   35.2408 H   0  0  0  0  0  0  0  0  0  0  0  0
   51.6114   17.7989   34.5788 H   0  0  0  0  0  0  0  0  0  0  0  0
   53.8963   17.9877   33.6179 H   0  0  0  0  0  0  0  0  0  0  0  0
   55.3703   15.9978   33.4700 H   0  0  0  0  0  0  0  0  0  0  0  0
   56.7500   14.1501   34.5162 H   0  0  0  0  0  0  0  0  0  0  0  0
   56.1253   13.6204   32.7737 H   0  0  0  0  0  0  0  0  0  0  0  0
   55.3244   11.7965   31.6923 H   0  0  0  0  0  0  0  0  0  0  0  0
   51.5916    7.4640   30.4347 H   0  0  0  0  0  0  0  0  0  0  0  0
   52.6844    7.8456   29.0771 H   0  0  0  0  0  0  0  0  0  0  0  0
   53.6132    6.2320   31.7559 H   0  0  0  0  0  0  0  0  0  0  0  0
 19 18  1  0
 18 17  2  0
 18 20  1  0
 17 14  1  0
 20 21  1  0
 14 13  1  0
 14 15  2  0
 13 12  1  0
 21 15  1  0
 21 22  2  0
 15 16  1  0
 12 16  2  0
 12 11  1  0
 11 10  1  0
 10  2  1  0
  9  8  2  0
  9  3  1  0
  8  7  1  0
  2  3  1  0
  2  1  2  0
  3  4  2  0
  7  5  2  0
  4  5  1  0
  5  6  1  0
  4 23  1  0
  6 24  1  0
  6 25  1  0
  6 26  1  0
  7 27  1  0
  8 28  1  0
  9 29  1  0
 10 30  1  0
 10 31  1  0
 13 32  1  0
 19 33  1  0
 19 34  1  0
 20 35  1  0
A    1
O16
A    2
C14
A    3
C15
A    4
C17
A    5
C18
A    6
C22
A    7
C19
A    8
C20
A    9
C21
A   10
C13
A   11
S12
A   12
C10
A   13
N09
A   14
C04
A   15
C05
A   16
N11
A   17
N03
A   18
C02
A   19
N08
A   20
N01
A   21
C06
A   22
O07
M  END
