4M5L_YH4_A_306
     RDKit          3D

 35 37  0  0  0  0  0  0  0  0999 V2000
   54.2080   11.3910   34.9340 O   0  0  0  0  0  0  0  0  0  0  0  0
   54.6960   12.3860   34.4330 C   0  0  0  0  0  0  0  0  0  0  0  0
   53.9430   13.6830   34.3740 C   0  0  0  0  0  0  0  0  0  0  0  0
   52.5510   13.8260   34.4770 C   0  0  0  0  0  0  0  0  0  0  0  0
   51.5830   12.6790   34.6590 C   0  0  0  0  0  0  0  0  0  0  0  0
   51.9730   15.1020   34.4070 C   0  0  0  0  0  0  0  0  0  0  0  0
   52.7580   16.2340   34.2370 C   0  0  0  0  0  0  0  0  0  0  0  0
   54.1340   16.0990   34.1370 C   0  0  0  0  0  0  0  0  0  0  0  0
   54.7170   14.8380   34.2040 C   0  0  0  0  0  0  0  0  0  0  0  0
   56.0870   12.3050   33.8830 C   0  0  0  0  0  0  0  0  0  0  0  0
   57.1240   10.8320   33.9790 S   0  0  0  0  0  0  0  0  0  0  0  0
   56.1330    9.5640   33.3560 C   0  0  0  0  0  0  0  0  0  0  0  0
   56.0830    8.2880   33.7950 N   0  0  0  0  0  0  0  0  0  0  0  0
   55.1400    7.6780   32.9970 C   0  0  0  0  0  0  0  0  0  0  0  0
   54.6200    6.3670   32.9280 C   0  0  0  0  0  0  0  0  0  0  0  0
   55.0530    5.3820   33.7820 O   0  0  0  0  0  0  0  0  0  0  0  0
   53.6710    6.1110   32.0290 N   0  0  0  0  0  0  0  0  0  0  0  0
   53.2290    7.0570   31.1840 C   0  0  0  0  0  0  0  0  0  0  0  0
   52.2300    6.7010   30.2560 N   0  0  0  0  0  0  0  0  0  0  0  0
   53.6880    8.3120   31.1770 N   0  0  0  0  0  0  0  0  0  0  0  0
   54.6300    8.6120   32.0980 C   0  0  0  0  0  0  0  0  0  0  0  0
   55.2790    9.7910   32.3490 N   0  0  0  0  0  0  0  0  0  0  0  0
   51.4288   12.4962   35.7327 H   0  0  0  0  0  0  0  0  0  0  0  0
   50.6216   12.9324   34.1884 H   0  0  0  0  0  0  0  0  0  0  0  0
   51.9944   11.7739   34.1884 H   0  0  0  0  0  0  0  0  0  0  0  0
   50.8810   15.2072   34.4881 H   0  0  0  0  0  0  0  0  0  0  0  0
   52.2925   17.2291   34.1821 H   0  0  0  0  0  0  0  0  0  0  0  0
   54.7654   16.9900   34.0045 H   0  0  0  0  0  0  0  0  0  0  0  0
   55.8100   14.7457   34.1217 H   0  0  0  0  0  0  0  0  0  0  0  0
   56.6537   13.1023   34.3862 H   0  0  0  0  0  0  0  0  0  0  0  0
   55.8882   12.3514   32.8021 H   0  0  0  0  0  0  0  0  0  0  0  0
   56.6295    7.8641   34.5583 H   0  0  0  0  0  0  0  0  0  0  0  0
   53.2664    5.1650   31.9806 H   0  0  0  0  0  0  0  0  0  0  0  0
   51.3116    6.3737   30.5882 H   0  0  0  0  0  0  0  0  0  0  0  0
   52.4182    6.7681   29.2456 H   0  0  0  0  0  0  0  0  0  0  0  0
 19 18  1  0
 20 18  2  0
 20 21  1  0
 18 17  1  0
 17 15  1  0
 21 22  1  0
 21 14  2  0
 22 12  2  0
 15 14  1  0
 15 16  2  0
 14 13  1  0
 12 13  1  0
 12 11  1  0
 10 11  1  0
 10  2  1  0
  8  9  2  0
  8  7  1  0
  9  3  1  0
  7  6  2  0
  3  2  1  0
  3  4  2  0
  6  4  1  0
  2  1  2  0
  4  5  1  0
  5 23  1  0
  5 24  1  0
  5 25  1  0
  6 26  1  0
  7 27  1  0
  8 28  1  0
  9 29  1  0
 10 30  1  0
 10 31  1  0
 13 32  1  0
 17 33  1  0
 19 34  1  0
 19 35  1  0
A    1
O16
A    2
C14
A    3
C15
A    4
C21
A    5
C22
A    6
C20
A    7
C19
A    8
C18
A    9
C17
A   10
C13
A   11
S12
A   12
C10
A   13
N11
A   14
C05
A   15
C06
A   16
O07
A   17
N01
A   18
C02
A   19
N08
A   20
N03
A   21
C04
A   22
N09
M  END
