4M6P_20R_A_601
     RDKit          3D

 44 47  0  0  0  0  0  0  0  0999 V2000
   17.6850    3.5980   -3.8450 C   0  0  0  0  0  0  0  0  0  0  0  0
   17.5010    3.3580   -2.4850 C   0  0  0  0  0  0  0  0  0  0  0  0
   16.4510    3.9610   -1.8100 C   0  0  0  0  0  0  0  0  0  0  0  0
   15.5700    4.7930   -2.4980 C   0  0  0  0  0  0  0  0  0  0  0  0
   15.7430    5.0070   -3.8670 C   0  0  0  0  0  0  0  0  0  0  0  0
   16.8090    4.4040   -4.5560 C   0  0  0  0  0  0  0  0  0  0  0  0
   14.2320    5.5040   -1.5650 S   0  0  0  0  0  0  0  0  0  0  0  0
   13.7730    4.4110   -0.7400 O   0  0  0  0  0  0  0  0  0  0  0  0
   13.2850    6.0960   -2.4500 O   0  0  0  0  0  0  0  0  0  0  0  0
   15.0480    6.6720   -0.5330 C   0  0  0  0  0  0  0  0  0  0  0  0
   15.4620    7.8900   -1.0040 C   0  0  0  0  0  0  0  0  0  0  0  0
   16.1410    8.7690   -0.1970 C   0  0  0  0  0  0  0  0  0  0  0  0
   16.4220    8.4250    1.0980 C   0  0  0  0  0  0  0  0  0  0  0  0
   16.0390    7.2050    1.5630 C   0  0  0  0  0  0  0  0  0  0  0  0
   15.3410    6.3350    0.7620 C   0  0  0  0  0  0  0  0  0  0  0  0
   17.2320    9.3510    1.9690 C   0  0  0  0  0  0  0  0  0  0  0  0
   16.7410    9.5340    3.3570 N   0  0  0  0  0  0  0  0  0  0  0  0
   15.6900   10.3260    3.4400 C   0  0  0  0  0  0  0  0  0  0  0  0
   15.1650   10.7910    2.4160 O   0  0  0  0  0  0  0  0  0  0  0  0
   15.1110   10.5780    4.7700 C   0  0  0  0  0  0  0  0  0  0  0  0
   15.6610   10.0220    5.9260 C   0  0  0  0  0  0  0  0  0  0  0  0
   15.0360   10.3260    7.1380 C   0  0  0  0  0  0  0  0  0  0  0  0
   15.2440    9.9510    8.5180 C   0  0  0  0  0  0  0  0  0  0  0  0
   14.2960   10.5130    9.2100 N   0  0  0  0  0  0  0  0  0  0  0  0
   13.4960   11.3300    8.4160 N   0  0  0  0  0  0  0  0  0  0  0  0
   13.9110   11.1850    7.1290 C   0  0  0  0  0  0  0  0  0  0  0  0
   13.4600   11.6970    6.0080 N   0  0  0  0  0  0  0  0  0  0  0  0
   14.0110   11.4050    4.8480 C   0  0  0  0  0  0  0  0  0  0  0  0
   18.5401    3.1401   -4.3637 H   0  0  0  0  0  0  0  0  0  0  0  0
   18.1892    2.6898   -1.9466 H   0  0  0  0  0  0  0  0  0  0  0  0
   16.3135    3.7830   -0.7332 H   0  0  0  0  0  0  0  0  0  0  0  0
   15.0385    5.6534   -4.4110 H   0  0  0  0  0  0  0  0  0  0  0  0
   16.9454    4.5677   -5.6352 H   0  0  0  0  0  0  0  0  0  0  0  0
   15.2468    8.1684   -2.0462 H   0  0  0  0  0  0  0  0  0  0  0  0
   16.4582    9.7464   -0.5896 H   0  0  0  0  0  0  0  0  0  0  0  0
   16.2915    6.9121    2.5928 H   0  0  0  0  0  0  0  0  0  0  0  0
   15.0158    5.3633    1.1620 H   0  0  0  0  0  0  0  0  0  0  0  0
   18.2555    8.9517    2.0240 H   0  0  0  0  0  0  0  0  0  0  0  0
   17.1599   10.3415    1.4960 H   0  0  0  0  0  0  0  0  0  0  0  0
   17.1781    9.0864    4.1753 H   0  0  0  0  0  0  0  0  0  0  0  0
   16.5480    9.3727    5.8846 H   0  0  0  0  0  0  0  0  0  0  0  0
   16.0498    9.3124    8.9089 H   0  0  0  0  0  0  0  0  0  0  0  0
   14.1550   10.3709   10.2204 H   0  0  0  0  0  0  0  0  0  0  0  0
   13.5862   11.8282    3.9258 H   0  0  0  0  0  0  0  0  0  0  0  0
  6  1  2  0
  6  5  1  0
  1  2  1  0
  5  4  2  0
  2  3  2  0
  4  3  1  0
  4  7  1  0
  9  7  2  0
  7  8  2  0
  7 10  1  0
 11 10  2  0
 11 12  1  0
 10 15  1  0
 12 13  2  0
 15 14  2  0
 13 14  1  0
 13 16  1  0
 16 17  1  0
 19 18  2  0
 17 18  1  0
 18 20  1  0
 20 28  1  0
 20 21  2  0
 28 27  2  0
 21 22  1  0
 27 26  1  0
 22 26  1  0
 22 23  2  0
 26 25  2  0
 25 24  1  0
 23 24  1  0
  1 29  1  0
  2 30  1  0
  3 31  1  0
  5 32  1  0
  6 33  1  0
 11 34  1  0
 12 35  1  0
 14 36  1  0
 15 37  1  0
 16 38  1  0
 16 39  1  0
 17 40  1  0
 21 41  1  0
 23 42  1  0
 24 43  1  0
 28 44  1  0
A    1
C1
A    2
C2
A    3
C3
A    4
C4
A    5
C5
A    6
C6
A    7
S7
A    8
O8
A    9
O9
A   10
C10
A   11
C11
A   12
C12
A   13
C13
A   14
C14
A   15
C15
A   16
C16
A   17
N17
A   18
C18
A   19
O19
A   20
C20
A   21
C21
A   22
C22
A   23
C23
A   24
N24
A   25
N25
A   26
C27
A   27
N28
A   28
C29
M  END
