4KIB_56D_A_402
     RDKit          3D

 23 23  0  0  0  0  0  0  0  0999 V2000
   41.3170   50.9220   54.3360 O   0  0  0  0  0  0  0  0  0  0  0  0
   40.7310   49.8640   54.0280 C   0  0  0  0  0  0  0  0  0  0  0  0
   40.0980   49.8010   52.9540 O   0  0  0  0  0  0  0  0  0  0  0  0
   40.8020   48.6510   54.9690 C   0  0  0  0  0  0  0  0  0  0  0  0
   41.4480   48.6990   56.0150 O   0  0  0  0  0  0  0  0  0  0  0  0
   39.9520   47.4440   54.5390 C   0  0  0  0  0  0  0  0  0  0  0  0
   38.4980   47.8650   54.6670 C   0  0  0  0  0  0  0  0  0  0  0  0
   40.0940   46.2440   55.2510 C   0  0  0  0  0  0  0  0  0  0  0  0
   39.9480   45.0500   54.5430 C   0  0  0  0  0  0  0  0  0  0  0  0
   40.0590   43.8270   55.1910 C   0  0  0  0  0  0  0  0  0  0  0  0
   40.3020   43.7690   56.5630 C   0  0  0  0  0  0  0  0  0  0  0  0
   40.4210   44.9590   57.2750 C   0  0  0  0  0  0  0  0  0  0  0  0
   40.3060   46.1850   56.6320 C   0  0  0  0  0  0  0  0  0  0  0  0
   41.4469   51.1565   55.2890 H   0  0  0  0  0  0  0  0  0  0  0  0
   40.3046   47.2038   53.5251 H   0  0  0  0  0  0  0  0  0  0  0  0
   38.2310   47.9423   55.7313 H   0  0  0  0  0  0  0  0  0  0  0  0
   38.3549   48.8415   54.1812 H   0  0  0  0  0  0  0  0  0  0  0  0
   37.8553   47.1161   54.1812 H   0  0  0  0  0  0  0  0  0  0  0  0
   39.7433   45.0781   53.4626 H   0  0  0  0  0  0  0  0  0  0  0  0
   39.9542   42.8948   54.6166 H   0  0  0  0  0  0  0  0  0  0  0  0
   40.3980   42.7995   57.0737 H   0  0  0  0  0  0  0  0  0  0  0  0
   40.6081   44.9283   58.3585 H   0  0  0  0  0  0  0  0  0  0  0  0
   40.3822   47.1158   57.2132 H   0  0  0  0  0  0  0  0  0  0  0  0
  3  2  2  0
  2  1  1  0
  2  4  1  0
  6  7  1  0
  6  4  1  0
  6  8  1  0
  9 10  1  0
  9  8  2  0
  4  5  2  0
 10 11  2  0
  8 13  1  0
 11 12  1  0
 13 12  2  0
  1 14  1  0
  6 15  1  0
  7 16  1  0
  7 17  1  0
  7 18  1  0
  9 19  1  0
 10 20  1  0
 11 21  1  0
 12 22  1  0
 13 23  1  0
A    1
OAL
A    2
CAI
A    3
OAM
A    4
CAH
A    5
OAK
A    6
CAG
A    7
CAJ
A    8
CAD
A    9
CAC
A   10
CAB
A   11
CAA
A   12
CAF
A   13
CAE
M  END
