4M7B_28C_A_1202
     RDKit          3D

 35 37  0  0  0  0  0  0  0  0999 V2000
    4.0460   14.6180  -13.2230 C   0  0  0  0  0  0  0  0  0  0  0  0
    5.0300   13.5780  -13.5160 C   0  0  0  0  0  0  0  0  0  0  0  0
    5.5570   12.7870  -12.4800 C   0  0  0  0  0  0  0  0  0  0  0  0
    5.3980   13.3180  -14.7800 N   0  0  0  0  0  0  0  0  0  0  0  0
    6.2390   12.4050  -15.0480 N   0  0  0  0  0  0  0  0  0  0  0  0
    6.7450   12.0830  -16.2430 C   0  0  0  0  0  0  0  0  0  0  0  0
    7.6020   11.0620  -16.0260 N   0  0  0  0  0  0  0  0  0  0  0  0
    7.6150   10.7930  -14.7850 N   0  0  0  0  0  0  0  0  0  0  0  0
    6.7900   11.5950  -14.1140 C   0  0  0  0  0  0  0  0  0  0  0  0
    6.4810   11.7950  -12.8140 C   0  0  0  0  0  0  0  0  0  0  0  0
    6.9860   11.0120  -11.8530 N   0  0  0  0  0  0  0  0  0  0  0  0
    6.6470   11.1120  -10.4100 C   0  0  0  0  0  0  0  0  0  0  0  0
    7.4840   10.1650   -9.4850 C   0  0  0  0  0  0  0  0  0  0  0  0
    7.1510   10.3860   -8.1070 C   0  0  0  0  0  0  0  0  0  0  0  0
    7.9910   11.1730   -7.3170 C   0  0  0  0  0  0  0  0  0  0  0  0
    7.7210   11.4510   -5.9800 C   0  0  0  0  0  0  0  0  0  0  0  0
    6.5560   10.9900   -5.4230 C   0  0  0  0  0  0  0  0  0  0  0  0
    6.3490   11.2870   -4.1230 O   0  0  0  0  0  0  0  0  0  0  0  0
    5.6760   10.2120   -6.1710 C   0  0  0  0  0  0  0  0  0  0  0  0
    5.9630    9.9080   -7.5260 C   0  0  0  0  0  0  0  0  0  0  0  0
    3.9420   14.7279  -12.1335 H   0  0  0  0  0  0  0  0  0  0  0  0
    4.3801   15.5717  -13.6575 H   0  0  0  0  0  0  0  0  0  0  0  0
    3.0753   14.3372  -13.6575 H   0  0  0  0  0  0  0  0  0  0  0  0
    5.2500   12.9452  -11.4356 H   0  0  0  0  0  0  0  0  0  0  0  0
    6.5105   12.5548  -17.2086 H   0  0  0  0  0  0  0  0  0  0  0  0
    7.6600   10.2859  -12.1350 H   0  0  0  0  0  0  0  0  0  0  0  0
    6.8185   12.1493  -10.0868 H   0  0  0  0  0  0  0  0  0  0  0  0
    5.5963   10.8019  -10.3107 H   0  0  0  0  0  0  0  0  0  0  0  0
    7.2669    9.1188   -9.7466 H   0  0  0  0  0  0  0  0  0  0  0  0
    8.5531   10.3784   -9.6314 H   0  0  0  0  0  0  0  0  0  0  0  0
    8.9028   11.5902   -7.7692 H   0  0  0  0  0  0  0  0  0  0  0  0
    8.4337   12.0335   -5.3776 H   0  0  0  0  0  0  0  0  0  0  0  0
    6.7453   10.7183   -3.4161 H   0  0  0  0  0  0  0  0  0  0  0  0
    4.7535    9.8313   -5.7084 H   0  0  0  0  0  0  0  0  0  0  0  0
    5.2613    9.3025   -8.1184 H   0  0  0  0  0  0  0  0  0  0  0  0
  6  7  2  0
  6  5  1  0
  7  8  1  0
  5  4  1  0
  5  9  1  0
  8  9  2  0
  4  2  2  0
  9 10  1  0
  2  1  1  0
  2  3  1  0
 10  3  2  0
 10 11  1  0
 11 12  1  0
 12 13  1  0
 13 14  1  0
 14 20  1  0
 14 15  2  0
 20 19  2  0
 15 16  1  0
 19 17  1  0
 16 17  2  0
 17 18  1  0
  1 21  1  0
  1 22  1  0
  1 23  1  0
  3 24  1  0
  6 25  1  0
 11 26  1  0
 12 27  1  0
 12 28  1  0
 13 29  1  0
 13 30  1  0
 15 31  1  0
 16 32  1  0
 18 33  1  0
 19 34  1  0
 20 35  1  0
A    1
CAA
A    2
CAP
A    3
CAH
A    4
NAM
A    5
NAT
A    6
CAG
A    7
NAK
A    8
NAL
A    9
CAS
A   10
CAR
A   11
NAN
A   12
CAI
A   13
CAJ
A   14
CAQ
A   15
CAE
A   16
CAC
A   17
CAO
A   18
OAB
A   19
CAD
A   20
CAF
M  END
