4M82_NGB_A_501
     RDKit          3D

 57 59  0  0  0  0  0  0  0  0999 V2000
   31.5990   12.0180  -13.8970 O   0  0  0  0  0  0  0  0  0  0  0  0
   30.5650   12.6610  -13.8090 N   0  0  0  0  0  0  0  0  0  0  0  0
   30.3590   13.6030  -14.5590 O   0  0  0  0  0  0  0  0  0  0  0  0
   29.6080   12.3210  -12.8540 C   0  0  0  0  0  0  0  0  0  0  0  0
   28.5400   13.1780  -12.6530 C   0  0  0  0  0  0  0  0  0  0  0  0
   29.7260   11.1510  -12.1160 C   0  0  0  0  0  0  0  0  0  0  0  0
   28.7480   10.8400  -11.1680 C   0  0  0  0  0  0  0  0  0  0  0  0
   27.6770   11.7070  -10.9840 C   0  0  0  0  0  0  0  0  0  0  0  0
   27.5620   12.8770  -11.7220 C   0  0  0  0  0  0  0  0  0  0  0  0
   26.7190   11.4190  -10.0650 O   0  0  0  0  0  0  0  0  0  0  0  0
   27.0180   10.5830   -8.9710 C   0  0  0  0  0  0  0  0  0  0  0  0
   26.2000   11.0770   -7.7860 C   0  0  0  0  0  0  0  0  0  0  0  0
   26.6340   12.3990   -7.4380 O   0  0  0  0  0  0  0  0  0  0  0  0
   26.4130   10.1470   -6.6060 C   0  0  0  0  0  0  0  0  0  0  0  0
   25.6180   10.5650   -5.4890 O   0  0  0  0  0  0  0  0  0  0  0  0
   26.0520    8.7390   -7.0320 C   0  0  0  0  0  0  0  0  0  0  0  0
   26.2500    7.8120   -5.9600 O   0  0  0  0  0  0  0  0  0  0  0  0
   26.9230    8.3650   -8.2260 C   0  0  0  0  0  0  0  0  0  0  0  0
   26.6220    9.2550   -9.3040 O   0  0  0  0  0  0  0  0  0  0  0  0
   26.6940    6.9140   -8.6290 C   0  0  0  0  0  0  0  0  0  0  0  0
   25.5270    6.8070   -9.4390 O   0  0  0  0  0  0  0  0  0  0  0  0
   24.5670    5.9160   -8.8560 C   0  0  0  0  0  0  0  0  0  0  0  0
   25.1160    4.4930   -8.7530 C   0  0  0  0  0  0  0  0  0  0  0  0
   25.3680    3.9370  -10.0570 O   0  0  0  0  0  0  0  0  0  0  0  0
   24.1490    3.6170   -7.9780 C   0  0  0  0  0  0  0  0  0  0  0  0
   24.7230    2.3120   -7.8500 O   0  0  0  0  0  0  0  0  0  0  0  0
   23.9930    4.2460   -6.6030 C   0  0  0  0  0  0  0  0  0  0  0  0
   23.2370    3.4060   -5.7140 O   0  0  0  0  0  0  0  0  0  0  0  0
   23.3240    5.6100   -6.8230 C   0  0  0  0  0  0  0  0  0  0  0  0
   24.2550    6.4020   -7.5530 O   0  0  0  0  0  0  0  0  0  0  0  0
   22.9990    6.3620   -5.5330 C   0  0  0  0  0  0  0  0  0  0  0  0
   24.1840    6.6990   -4.8130 O   0  0  0  0  0  0  0  0  0  0  0  0
   28.4682   14.1064  -13.2385 H   0  0  0  0  0  0  0  0  0  0  0  0
   30.5800   10.4764  -12.2759 H   0  0  0  0  0  0  0  0  0  0  0  0
   28.8247    9.9180  -10.5730 H   0  0  0  0  0  0  0  0  0  0  0  0
   26.7079   13.5532  -11.5692 H   0  0  0  0  0  0  0  0  0  0  0  0
   28.0910   10.5975   -8.7290 H   0  0  0  0  0  0  0  0  0  0  0  0
   25.1321   11.0941   -8.0494 H   0  0  0  0  0  0  0  0  0  0  0  0
   26.6632   12.4880   -6.4524 H   0  0  0  0  0  0  0  0  0  0  0  0
   27.4664   10.1753   -6.2905 H   0  0  0  0  0  0  0  0  0  0  0  0
   26.0788   10.3227   -4.6469 H   0  0  0  0  0  0  0  0  0  0  0  0
   24.9883    8.6981   -7.3093 H   0  0  0  0  0  0  0  0  0  0  0  0
   26.1496    8.2820   -5.0945 H   0  0  0  0  0  0  0  0  0  0  0  0
   27.9854    8.4617   -7.9579 H   0  0  0  0  0  0  0  0  0  0  0  0
   26.5659    6.3015   -7.7244 H   0  0  0  0  0  0  0  0  0  0  0  0
   27.5630    6.5592   -9.2026 H   0  0  0  0  0  0  0  0  0  0  0  0
   23.6705    5.8810   -9.4925 H   0  0  0  0  0  0  0  0  0  0  0  0
   26.0740    4.5310   -8.2137 H   0  0  0  0  0  0  0  0  0  0  0  0
   25.7747    3.0396   -9.9601 H   0  0  0  0  0  0  0  0  0  0  0  0
   23.1745    3.5344   -8.4814 H   0  0  0  0  0  0  0  0  0  0  0  0
   24.8217    2.0875   -6.8908 H   0  0  0  0  0  0  0  0  0  0  0  0
   24.9705    4.3705   -6.1141 H   0  0  0  0  0  0  0  0  0  0  0  0
   23.4495    3.6422   -4.7764 H   0  0  0  0  0  0  0  0  0  0  0  0
   22.3688    5.4359   -7.3400 H   0  0  0  0  0  0  0  0  0  0  0  0
   22.4581    7.2863   -5.7843 H   0  0  0  0  0  0  0  0  0  0  0  0
   22.3826    5.7088   -4.8979 H   0  0  0  0  0  0  0  0  0  0  0  0
   24.0050    6.6481   -3.8406 H   0  0  0  0  0  0  0  0  0  0  0  0
  3  2  2  0
  1  2  1  0
  2  4  1  0
  4  5  2  0
  4  6  1  0
  5  9  1  0
  6  7  2  0
  9  8  2  0
  7  8  1  0
  8 10  1  0
 10 11  1  0
 24 23  1  0
 21 22  1  0
 21 20  1  0
 19 11  1  0
 19 18  1  0
 11 12  1  0
 22 23  1  0
 22 30  1  0
 23 25  1  0
 20 18  1  0
 18 16  1  0
 25 26  1  0
 25 27  1  0
 12 13  1  0
 12 14  1  0
 30 29  1  0
 16 14  1  0
 16 17  1  0
 29 27  1  0
 29 31  1  0
 14 15  1  0
 27 28  1  0
 31 32  1  0
  5 33  1  0
  6 34  1  0
  7 35  1  0
  9 36  1  0
 11 37  1  0
 12 38  1  0
 13 39  1  0
 14 40  1  0
 15 41  1  0
 16 42  1  0
 17 43  1  0
 18 44  1  0
 20 45  1  0
 20 46  1  0
 22 47  1  0
 23 48  1  0
 24 49  1  0
 25 50  1  0
 26 51  1  0
 27 52  1  0
 28 53  1  0
 29 54  1  0
 31 55  1  0
 31 56  1  0
 32 57  1  0
M  CHG  2   1  -1   2   1
A    1
O14
A    2
N1
A    3
O13
A    4
C16
A    5
C17
A    6
C15
A    7
C14
A    8
C13
A    9
C18
A   10
O7
A   11
C7
A   12
C8
A   13
O8
A   14
C9
A   15
O9
A   16
C10
A   17
O10
A   18
C11
A   19
O11
A   20
C12
A   21
O12
A   22
C1
A   23
C2
A   24
O2
A   25
C3
A   26
O3
A   27
C4
A   28
O4
A   29
C5
A   30
O5
A   31
C6
A   32
O6
M  END
