4M8E_29V_A_500
     RDKit          3D

 49 50  0  0  0  0  0  0  0  0999 V2000
   64.8980   48.6700   35.0270 C   0  0  0  0  0  0  0  0  0  0  0  0
   64.2420   49.3210   32.7020 C   0  0  0  0  0  0  0  0  0  0  0  0
   64.0470   48.8560   31.2520 C   0  0  0  0  0  0  0  0  0  0  0  0
   65.4070   47.7090   29.4240 C   0  0  0  0  0  0  0  0  0  0  0  0
   65.9080   47.4650   33.0630 C   0  0  0  0  0  0  0  0  0  0  0  0
   66.1380   47.3280   31.7100 C   0  0  0  0  0  0  0  0  0  0  0  0
   66.8630   46.9600   33.9590 C   0  0  0  0  0  0  0  0  0  0  0  0
   68.2370   46.2280   32.1220 C   0  0  0  0  0  0  0  0  0  0  0  0
   64.6500   48.1590   33.6070 C   0  0  0  0  0  0  0  0  0  0  0  0
   68.0130   46.3500   33.4850 C   0  0  0  0  0  0  0  0  0  0  0  0
   67.2860   46.7120   31.2200 C   0  0  0  0  0  0  0  0  0  0  0  0
   65.1960   47.9660   30.7840 C   0  0  0  0  0  0  0  0  0  0  0  0
   64.5970   48.2580   28.3320 C   0  0  0  0  0  0  0  0  0  0  0  0
   65.3470   49.0570   27.2500 C   0  0  0  0  0  0  0  0  0  0  0  0
   63.2350   48.1260   28.1820 C   0  0  0  0  0  0  0  0  0  0  0  0
   62.2730   47.4180   29.0490 C   0  0  0  0  0  0  0  0  0  0  0  0
   60.9340   47.4980   28.6370 C   0  0  0  0  0  0  0  0  0  0  0  0
   59.8140   46.9090   29.3240 C   0  0  0  0  0  0  0  0  0  0  0  0
   60.0140   45.9030   30.4590 C   0  0  0  0  0  0  0  0  0  0  0  0
   58.5140   47.2600   28.8950 C   0  0  0  0  0  0  0  0  0  0  0  0
   57.3190   46.7280   29.5270 C   0  0  0  0  0  0  0  0  0  0  0  0
   56.2740   47.4340   29.4810 O   0  0  0  0  0  0  0  0  0  0  0  0
   57.3550   45.6010   30.0510 O   0  0  0  0  0  0  0  0  0  0  0  0
   64.5370   47.9262   35.7526 H   0  0  0  0  0  0  0  0  0  0  0  0
   65.9757   48.8335   35.1749 H   0  0  0  0  0  0  0  0  0  0  0  0
   64.3597   49.6178   35.1749 H   0  0  0  0  0  0  0  0  0  0  0  0
   65.0283   50.0897   32.7292 H   0  0  0  0  0  0  0  0  0  0  0  0
   63.2877   49.7278   33.0678 H   0  0  0  0  0  0  0  0  0  0  0  0
   63.9918   49.7394   30.5989 H   0  0  0  0  0  0  0  0  0  0  0  0
   63.1176   48.2698   31.2024 H   0  0  0  0  0  0  0  0  0  0  0  0
   66.2424   47.0460   29.1547 H   0  0  0  0  0  0  0  0  0  0  0  0
   66.6976   47.0490   35.0428 H   0  0  0  0  0  0  0  0  0  0  0  0
   69.1580   45.7530   31.7531 H   0  0  0  0  0  0  0  0  0  0  0  0
   63.8325   47.4232   33.6274 H   0  0  0  0  0  0  0  0  0  0  0  0
   68.7552   45.9588   34.1964 H   0  0  0  0  0  0  0  0  0  0  0  0
   67.4426   46.6075   30.1362 H   0  0  0  0  0  0  0  0  0  0  0  0
   66.0243   49.7785   27.7304 H   0  0  0  0  0  0  0  0  0  0  0  0
   65.9311   48.3669   26.6234 H   0  0  0  0  0  0  0  0  0  0  0  0
   64.6214   49.5963   26.6234 H   0  0  0  0  0  0  0  0  0  0  0  0
   62.8051   48.6147   27.2952 H   0  0  0  0  0  0  0  0  0  0  0  0
   62.5580   46.3560   29.0792 H   0  0  0  0  0  0  0  0  0  0  0  0
   62.3228   47.9112   30.0310 H   0  0  0  0  0  0  0  0  0  0  0  0
   60.7226   48.0566   27.7133 H   0  0  0  0  0  0  0  0  0  0  0  0
   59.9119   46.4166   31.4264 H   0  0  0  0  0  0  0  0  0  0  0  0
   59.2560   45.1094   30.3834 H   0  0  0  0  0  0  0  0  0  0  0  0
   61.0179   45.4597   30.3834 H   0  0  0  0  0  0  0  0  0  0  0  0
   58.4467   48.3543   28.9840 H   0  0  0  0  0  0  0  0  0  0  0  0
   58.4701   46.7974   27.8980 H   0  0  0  0  0  0  0  0  0  0  0  0
   57.3578   45.5135   31.0371 H   0  0  0  0  0  0  0  0  0  0  0  0
 14 13  1  0
 15 13  2  0
 15 16  1  0
 13  4  1  0
 17 16  1  0
 17 18  2  0
 20 18  1  0
 20 21  1  0
 18 19  1  0
  4 12  2  0
 22 21  2  0
 21 23  1  0
 12  3  1  0
 12  6  1  0
 11  6  1  0
 11  8  2  0
  3  2  1  0
  6  5  2  0
  8 10  1  0
  2  9  1  0
  5  9  1  0
  5  7  1  0
 10  7  2  0
  9  1  1  0
  1 24  1  0
  1 25  1  0
  1 26  1  0
  2 27  1  0
  2 28  1  0
  3 29  1  0
  3 30  1  0
  4 31  1  0
  7 32  1  0
  8 33  1  0
  9 34  1  0
 10 35  1  0
 11 36  1  0
 14 37  1  0
 14 38  1  0
 14 39  1  0
 15 40  1  0
 16 41  1  0
 16 42  1  0
 17 43  1  0
 19 44  1  0
 19 45  1  0
 19 46  1  0
 20 47  1  0
 20 48  1  0
 23 49  1  0
A    1
C4'
A    2
C1'
A    3
C2'
A    4
C8
A    5
C5
A    6
C6
A    7
C4
A    8
C2
A    9
C18
A   10
C3
A   11
C1
A   12
C7
A   13
C9
A   14
C19
A   15
C10
A   16
C11
A   17
C12
A   18
C13
A   19
C20
A   20
C14
A   21
C15
A   22
O1
A   23
O2
M  END
