3APX_Z80_A_190
     RDKit          3D

 40 42  0  0  0  0  0  0  0  0999 V2000
   -3.8910   -8.3580   15.3150 C   0  0  0  0  0  0  0  0  0  0  0  0
   -5.1470   -9.0230   15.3440 N   0  0  0  0  0  0  0  0  0  0  0  0
   -2.5550  -10.6190   14.6510 S   0  0  0  0  0  0  0  0  0  0  0  0
   -2.6760   -8.9680   15.0070 C   0  0  0  0  0  0  0  0  0  0  0  0
   -8.7830   -6.8590   15.9870 N   0  0  0  0  0  0  0  0  0  0  0  0
   -4.1530  -11.0820   14.3160 C   0  0  0  0  0  0  0  0  0  0  0  0
   -5.2440  -10.2890   14.6880 C   0  0  0  0  0  0  0  0  0  0  0  0
   -2.7290   -6.2280   15.5760 C   0  0  0  0  0  0  0  0  0  0  0  0
   -1.5220   -6.8580   15.2830 C   0  0  0  0  0  0  0  0  0  0  0  0
   -1.5010   -8.2190   15.0000 C   0  0  0  0  0  0  0  0  0  0  0  0
   -4.3660  -12.2990   13.6610 C   0  0  0  0  0  0  0  0  0  0  0  0
   -5.6570  -12.7390   13.3590 C   0  0  0  0  0  0  0  0  0  0  0  0
   -6.7440  -11.9500   13.7200 C   0  0  0  0  0  0  0  0  0  0  0  0
   -6.5270  -10.7420   14.3700 C   0  0  0  0  0  0  0  0  0  0  0  0
   -5.7210   -9.0460   16.7070 C   0  0  0  0  0  0  0  0  0  0  0  0
   -7.1990   -8.6300   16.6400 C   0  0  0  0  0  0  0  0  0  0  0  0
   -7.4320   -7.1220   16.5190 C   0  0  0  0  0  0  0  0  0  0  0  0
   -9.6340   -6.2320   17.0100 C   0  0  0  0  0  0  0  0  0  0  0  0
   -8.6940   -5.9540   14.8280 C   0  0  0  0  0  0  0  0  0  0  0  0
   -8.4350  -12.4490   13.3690 Cl  0  0  0  0  0  0  0  0  0  0  0  0
   -3.9010   -6.9810   15.5890 C   0  0  0  0  0  0  0  0  0  0  0  0
   -2.7566   -5.1502   15.7942 H   0  0  0  0  0  0  0  0  0  0  0  0
   -0.5864   -6.2795   15.2755 H   0  0  0  0  0  0  0  0  0  0  0  0
   -0.5449   -8.7107   14.7677 H   0  0  0  0  0  0  0  0  0  0  0  0
   -3.5029  -12.9200   13.3790 H   0  0  0  0  0  0  0  0  0  0  0  0
   -5.8119  -13.6976   12.8421 H   0  0  0  0  0  0  0  0  0  0  0  0
   -7.3933  -10.1217   14.6434 H   0  0  0  0  0  0  0  0  0  0  0  0
   -5.6431  -10.0618   17.1219 H   0  0  0  0  0  0  0  0  0  0  0  0
   -5.1691   -8.3467   17.3523 H   0  0  0  0  0  0  0  0  0  0  0  0
   -7.6536   -9.1186   15.7656 H   0  0  0  0  0  0  0  0  0  0  0  0
   -7.6535   -8.9401   17.5925 H   0  0  0  0  0  0  0  0  0  0  0  0
   -6.6827   -6.6915   15.8384 H   0  0  0  0  0  0  0  0  0  0  0  0
   -7.3411   -6.6625   17.5143 H   0  0  0  0  0  0  0  0  0  0  0  0
   -9.2655   -6.5035   18.0102 H   0  0  0  0  0  0  0  0  0  0  0  0
   -9.6037   -5.1387   16.8924 H   0  0  0  0  0  0  0  0  0  0  0  0
  -10.6692   -6.5849   16.8924 H   0  0  0  0  0  0  0  0  0  0  0  0
   -8.5920   -4.9167   15.1797 H   0  0  0  0  0  0  0  0  0  0  0  0
   -7.8179   -6.2227   14.2194 H   0  0  0  0  0  0  0  0  0  0  0  0
   -9.6056   -6.0468   14.2194 H   0  0  0  0  0  0  0  0  0  0  0  0
   -4.8558   -6.4856   15.8191 H   0  0  0  0  0  0  0  0  0  0  0  0
  1 21  1  0
  2  1  1  0
  2  7  1  0
  4  1  2  0
  4  3  1  0
  5 17  1  0
  6  3  1  0
  6 11  1  0
  7  6  2  0
  8  9  1  0
  8 21  2  0
  9 10  2  0
 10  4  1  0
 12 11  2  0
 13 12  1  0
 14  7  1  0
 14 13  2  0
 15  2  1  0
 16 15  1  0
 17 16  1  0
 18  5  1  0
 19  5  1  0
 20 13  1  0
  8 22  1  0
  9 23  1  0
 10 24  1  0
 11 25  1  0
 12 26  1  0
 14 27  1  0
 15 28  1  0
 15 29  1  0
 16 30  1  0
 16 31  1  0
 17 32  1  0
 17 33  1  0
 18 34  1  0
 18 35  1  0
 18 36  1  0
 19 37  1  0
 19 38  1  0
 19 39  1  0
 21 40  1  0
A    1
C1
A    2
N1
A    3
S1
A    4
C2
A    5
N2
A    6
C3
A    7
C4
A    8
C5
A    9
C6
A   10
C7
A   11
C8
A   12
C9
A   13
C10
A   14
C11
A   15
C12
A   16
C13
A   17
C14
A   18
C15
A   19
C16
A   20
CL1
A   21
C17
M  END
