4MBI_26K_A_401
     RDKit          3D

 37 39  0  0  0  0  0  0  0  0999 V2000
   23.5870   32.9630   -5.0260 N   0  0  0  0  0  0  0  0  0  0  0  0
   23.6600   38.0040   -0.3540 N   0  0  0  0  0  0  0  0  0  0  0  0
   22.2440   34.8110   -4.0750 C   0  0  0  0  0  0  0  0  0  0  0  0
   22.9020   36.7940   -2.6990 C   0  0  0  0  0  0  0  0  0  0  0  0
   23.3550   38.1330   -2.6700 C   0  0  0  0  0  0  0  0  0  0  0  0
   23.7500   38.7250   -1.4760 C   0  0  0  0  0  0  0  0  0  0  0  0
   23.2120   36.7370   -0.3880 C   0  0  0  0  0  0  0  0  0  0  0  0
   22.9170   35.0480    1.4240 C   0  0  0  0  0  0  0  0  0  0  0  0
   23.7610   37.3500    1.7530 C   0  0  0  0  0  0  0  0  0  0  0  0
   23.7340   31.6320   -4.4470 C   0  0  0  0  0  0  0  0  0  0  0  0
   22.3740   33.0070   -5.8240 C   0  0  0  0  0  0  0  0  0  0  0  0
   23.5290   33.9720   -3.9900 C   0  0  0  0  0  0  0  0  0  0  0  0
   22.5520   36.2280   -3.8890 N   0  0  0  0  0  0  0  0  0  0  0  0
   22.8430   36.0900   -1.5300 N   0  0  0  0  0  0  0  0  0  0  0  0
   23.2760   36.3220    0.9390 C   0  0  0  0  0  0  0  0  0  0  0  0
   22.4430   33.9930    0.6430 C   0  0  0  0  0  0  0  0  0  0  0  0
   22.2060   32.9660    1.4880 N   0  0  0  0  0  0  0  0  0  0  0  0
   22.5430   33.4050    2.7730 N   0  0  0  0  0  0  0  0  0  0  0  0
   22.9900   34.6940    2.7670 C   0  0  0  0  0  0  0  0  0  0  0  0
   24.0200   38.4390    0.9360 N   0  0  0  0  0  0  0  0  0  0  0  0
   21.7806   34.6666   -5.0621 H   0  0  0  0  0  0  0  0  0  0  0  0
   21.5517   34.4877   -3.2837 H   0  0  0  0  0  0  0  0  0  0  0  0
   23.3953   38.7133   -3.6036 H   0  0  0  0  0  0  0  0  0  0  0  0
   24.1263   39.7584   -1.4550 H   0  0  0  0  0  0  0  0  0  0  0  0
   23.9097   37.3031    2.8419 H   0  0  0  0  0  0  0  0  0  0  0  0
   23.7258   31.7066   -3.3496 H   0  0  0  0  0  0  0  0  0  0  0  0
   22.9008   30.9943   -4.7774 H   0  0  0  0  0  0  0  0  0  0  0  0
   24.6863   31.1915   -4.7774 H   0  0  0  0  0  0  0  0  0  0  0  0
   21.4985   33.0388   -5.1588 H   0  0  0  0  0  0  0  0  0  0  0  0
   22.3851   33.9053   -6.4587 H   0  0  0  0  0  0  0  0  0  0  0  0
   22.3199   32.1102   -6.4587 H   0  0  0  0  0  0  0  0  0  0  0  0
   23.5651   33.4761   -3.0088 H   0  0  0  0  0  0  0  0  0  0  0  0
   24.3860   34.6482   -4.1258 H   0  0  0  0  0  0  0  0  0  0  0  0
   22.5010   36.8416   -4.7147 H   0  0  0  0  0  0  0  0  0  0  0  0
   22.2920   33.9969   -0.4466 H   0  0  0  0  0  0  0  0  0  0  0  0
   21.8452   32.0352    1.2341 H   0  0  0  0  0  0  0  0  0  0  0  0
   23.3264   35.3049    3.6177 H   0  0  0  0  0  0  0  0  0  0  0  0
 11  1  1  0
  1 10  1  0
  1 12  1  0
  3 12  1  0
  3 13  1  0
 13  4  1  0
  4  5  1  0
  4 14  2  0
  5  6  2  0
 14  7  1  0
  6  2  1  0
  7  2  1  0
  7 15  2  0
  2 20  1  0
 16  8  2  0
 16 17  1  0
 20  9  2  0
 15  8  1  0
 15  9  1  0
  8 19  1  0
 17 18  1  0
 19 18  2  0
  3 21  1  0
  3 22  1  0
  5 23  1  0
  6 24  1  0
  9 25  1  0
 10 26  1  0
 10 27  1  0
 10 28  1  0
 11 29  1  0
 11 30  1  0
 11 31  1  0
 12 32  1  0
 12 33  1  0
 13 34  1  0
 16 35  1  0
 17 36  1  0
 19 37  1  0
A    1
N1
A    2
N3
A    3
C4
A    4
C5
A    5
C6
A    6
C7
A    7
C8
A    8
C10
A    9
C13
A   10
C2
A   11
C1
A   12
C3
A   13
N2
A   14
N7
A   15
C9
A   16
C12
A   17
N5
A   18
N4
A   19
C11
A   20
N6
M  END
