4MC1_526_A_102
     RDKit          3D

 75 78  0  0  0  0  0  0  0  0999 V2000
    8.9590   27.2330    8.6300 C   0  0  0  0  0  0  0  0  0  0  0  0
    8.3160   27.7640    7.5350 C   0  0  0  0  0  0  0  0  0  0  0  0
    8.4490   27.2100    6.2790 C   0  0  0  0  0  0  0  0  0  0  0  0
    9.2240   26.0830    6.0730 C   0  0  0  0  0  0  0  0  0  0  0  0
    9.8610   25.5500    7.1870 C   0  0  0  0  0  0  0  0  0  0  0  0
    9.7310   26.1010    8.4490 C   0  0  0  0  0  0  0  0  0  0  0  0
    9.3100   25.6230    4.6470 C   0  0  0  0  0  0  0  0  0  0  0  0
    9.4770   24.1440    4.2990 C   0  0  0  0  0  0  0  0  0  0  0  0
   10.9280   23.6840    4.4010 C   0  0  0  0  0  0  0  0  0  0  0  0
   11.6210   24.1460    5.6180 N   0  0  0  0  0  0  0  0  0  0  0  0
   10.8800   24.1010    7.1280 S   0  0  0  0  0  0  0  0  0  0  0  0
   12.8850   24.8840    5.4960 C   0  0  0  0  0  0  0  0  0  0  0  0
   13.9950   23.9470    5.0690 C   0  0  0  0  0  0  0  0  0  0  0  0
   14.4060   22.8750    6.0740 C   0  0  0  0  0  0  0  0  0  0  0  0
   15.1220   24.7270    4.6900 O   0  0  0  0  0  0  0  0  0  0  0  0
   15.1180   23.3780    7.3290 C   0  0  0  0  0  0  0  0  0  0  0  0
   15.2530   21.9450    5.3600 N   0  0  0  0  0  0  0  0  0  0  0  0
   14.8290   20.6930    4.9700 C   0  0  0  0  0  0  0  0  0  0  0  0
   15.9150   20.0530    4.4320 O   0  0  0  0  0  0  0  0  0  0  0  0
   13.7040   20.2240    5.0980 O   0  0  0  0  0  0  0  0  0  0  0  0
   15.4030   22.2400    8.2540 C   0  0  0  0  0  0  0  0  0  0  0  0
   14.3960   21.7240    9.0530 C   0  0  0  0  0  0  0  0  0  0  0  0
   14.6620   20.6500    9.8820 C   0  0  0  0  0  0  0  0  0  0  0  0
   15.9260   20.0970    9.9070 C   0  0  0  0  0  0  0  0  0  0  0  0
   16.9360   20.6100    9.1130 C   0  0  0  0  0  0  0  0  0  0  0  0
   16.6720   21.6880    8.2900 C   0  0  0  0  0  0  0  0  0  0  0  0
   11.8840   24.2220    8.1450 O   0  0  0  0  0  0  0  0  0  0  0  0
    9.9630   22.9740    7.1250 O   0  0  0  0  0  0  0  0  0  0  0  0
    8.9010   23.8080    2.9150 C   0  0  0  0  0  0  0  0  0  0  0  0
    7.3990   23.9550    2.9060 C   0  0  0  0  0  0  0  0  0  0  0  0
    9.1530   22.3580    2.5280 C   0  0  0  0  0  0  0  0  0  0  0  0
    9.4610   24.6810    1.8090 C   0  0  0  0  0  0  0  0  0  0  0  0
    7.5660   28.8670    7.6950 F   0  0  0  0  0  0  0  0  0  0  0  0
   15.6570   18.7880    3.8260 C   0  0  0  0  0  0  0  0  0  0  0  0
   17.0170   18.1990    3.5220 C   0  0  0  0  0  0  0  0  0  0  0  0
   15.0240   19.0190    2.4770 C   0  0  0  0  0  0  0  0  0  0  0  0
   17.3080   18.6270    2.1940 O   0  0  0  0  0  0  0  0  0  0  0  0
   16.0770   18.5670    1.5030 C   0  0  0  0  0  0  0  0  0  0  0  0
    8.8611   27.6971    9.6225 H   0  0  0  0  0  0  0  0  0  0  0  0
    7.9299   27.6723    5.4265 H   0  0  0  0  0  0  0  0  0  0  0  0
   10.2412   25.6390    9.3071 H   0  0  0  0  0  0  0  0  0  0  0  0
   10.1691   26.1465    4.2022 H   0  0  0  0  0  0  0  0  0  0  0  0
    8.3039   25.8467    4.2628 H   0  0  0  0  0  0  0  0  0  0  0  0
    8.8976   23.5889    5.0514 H   0  0  0  0  0  0  0  0  0  0  0  0
   10.9434   22.5842    4.3909 H   0  0  0  0  0  0  0  0  0  0  0  0
   11.4615   24.1237    3.5454 H   0  0  0  0  0  0  0  0  0  0  0  0
   13.1403   25.3316    6.4678 H   0  0  0  0  0  0  0  0  0  0  0  0
   12.7693   25.6739    4.7392 H   0  0  0  0  0  0  0  0  0  0  0  0
   13.5852   23.3676    4.2286 H   0  0  0  0  0  0  0  0  0  0  0  0
   13.4849   22.4172    6.4638 H   0  0  0  0  0  0  0  0  0  0  0  0
   15.5881   25.0496    5.5017 H   0  0  0  0  0  0  0  0  0  0  0  0
   16.0651   23.8579    7.0413 H   0  0  0  0  0  0  0  0  0  0  0  0
   14.4693   24.1030    7.8424 H   0  0  0  0  0  0  0  0  0  0  0  0
   16.2160   22.2312    5.1329 H   0  0  0  0  0  0  0  0  0  0  0  0
   13.3893   22.1667    9.0280 H   0  0  0  0  0  0  0  0  0  0  0  0
   13.8673   20.2370   10.5206 H   0  0  0  0  0  0  0  0  0  0  0  0
   16.1325   19.2398   10.5647 H   0  0  0  0  0  0  0  0  0  0  0  0
   17.9410   20.1634    9.1367 H   0  0  0  0  0  0  0  0  0  0  0  0
   17.4716   22.1083    7.6623 H   0  0  0  0  0  0  0  0  0  0  0  0
    7.0279   23.9913    3.9409 H   0  0  0  0  0  0  0  0  0  0  0  0
    7.1246   24.8843    2.3853 H   0  0  0  0  0  0  0  0  0  0  0  0
    6.9497   23.0965    2.3853 H   0  0  0  0  0  0  0  0  0  0  0  0
    9.2589   21.7488    3.4377 H   0  0  0  0  0  0  0  0  0  0  0  0
    8.3063   21.9848    1.9333 H   0  0  0  0  0  0  0  0  0  0  0  0
   10.0760   22.2923    1.9333 H   0  0  0  0  0  0  0  0  0  0  0  0
   10.0049   25.5289    2.2510 H   0  0  0  0  0  0  0  0  0  0  0  0
   10.1482   24.0888    1.1868 H   0  0  0  0  0  0  0  0  0  0  0  0
    8.6362   25.0587    1.1868 H   0  0  0  0  0  0  0  0  0  0  0  0
   15.0224   18.1622    4.4708 H   0  0  0  0  0  0  0  0  0  0  0  0
   16.9853   17.1009    3.5775 H   0  0  0  0  0  0  0  0  0  0  0  0
   17.7822   18.5255    4.2416 H   0  0  0  0  0  0  0  0  0  0  0  0
   14.7878   20.0836    2.3323 H   0  0  0  0  0  0  0  0  0  0  0  0
   14.0733   18.4791    2.3557 H   0  0  0  0  0  0  0  0  0  0  0  0
   16.0982   19.2338    0.6284 H   0  0  0  0  0  0  0  0  0  0  0  0
   15.8730   17.5499    1.1370 H   0  0  0  0  0  0  0  0  0  0  0  0
 38 37  1  0
 38 36  1  0
 32 29  1  0
 37 35  1  0
 36 34  1  0
 31 29  1  0
 30 29  1  0
 29  8  1  0
 35 34  1  0
 34 19  1  0
  8  9  1  0
  8  7  1  0
  9 10  1  0
 19 18  1  0
  7  4  1  0
 15 13  1  0
 18 20  2  0
 18 17  1  0
 13 12  1  0
 13 14  1  0
 17 14  1  0
 12 10  1  0
 10 11  1  0
  4  3  2  0
  4  5  1  0
 14 16  1  0
  3  2  1  0
 28 11  2  0
 11  5  1  0
 11 27  2  0
  5  6  2  0
 16 21  1  0
  2 33  1  0
  2  1  2  0
 21 26  1  0
 21 22  2  0
 26 25  2  0
  6  1  1  0
 22 23  1  0
 25 24  1  0
 23 24  2  0
  1 39  1  0
  3 40  1  0
  6 41  1  0
  7 42  1  0
  7 43  1  0
  8 44  1  0
  9 45  1  0
  9 46  1  0
 12 47  1  0
 12 48  1  0
 13 49  1  0
 14 50  1  0
 15 51  1  0
 16 52  1  0
 16 53  1  0
 17 54  1  0
 22 55  1  0
 23 56  1  0
 24 57  1  0
 25 58  1  0
 26 59  1  0
 30 60  1  0
 30 61  1  0
 30 62  1  0
 31 63  1  0
 31 64  1  0
 31 65  1  0
 32 66  1  0
 32 67  1  0
 32 68  1  0
 34 69  1  0
 35 70  1  0
 35 71  1  0
 36 72  1  0
 36 73  1  0
 38 74  1  0
 38 75  1  0
A    1
C1
A    2
C2
A    3
C3
A    4
C4
A    5
C5
A    6
C6
A    7
C7
A    8
C8
A    9
C9
A   10
N10
A   11
S11
A   12
C12
A   13
C13
A   14
C14
A   15
O15
A   16
C16
A   17
N17
A   18
C18
A   19
O19
A   20
O20
A   21
C21
A   22
C22
A   23
C23
A   24
C24
A   25
C25
A   26
C26
A   27
O27
A   28
O28
A   29
C29
A   30
C30
A   31
C31
A   32
C32
A   33
F33
A   34
C34
A   35
C35
A   36
C36
A   37
O37
A   38
C38
M  END
