4MCB_21W_A_303
     RDKit          3D

 46 49  0  0  0  0  0  0  0  0999 V2000
   25.1930   44.2490   -2.5680 C   0  0  0  0  0  0  0  0  0  0  0  0
   23.6750   42.8880   -3.8210 C   0  0  0  0  0  0  0  0  0  0  0  0
   26.2580   43.5300   -3.0800 C   0  0  0  0  0  0  0  0  0  0  0  0
   24.7430   42.1550   -4.3160 C   0  0  0  0  0  0  0  0  0  0  0  0
   28.1150   38.6900   -8.6670 C   0  0  0  0  0  0  0  0  0  0  0  0
   28.1880   37.9490   -7.5100 C   0  0  0  0  0  0  0  0  0  0  0  0
   20.7320   42.9490    1.6530 C   0  0  0  0  0  0  0  0  0  0  0  0
   20.2110   41.6750   -0.1930 C   0  0  0  0  0  0  0  0  0  0  0  0
   20.8860   42.8430    0.2890 C   0  0  0  0  0  0  0  0  0  0  0  0
   23.8970   43.9380   -2.9510 C   0  0  0  0  0  0  0  0  0  0  0  0
   26.0370   42.4830   -3.9640 C   0  0  0  0  0  0  0  0  0  0  0  0
   19.5810   40.9840    0.8310 C   0  0  0  0  0  0  0  0  0  0  0  0
   28.4870   40.1180   -7.1160 C   0  0  0  0  0  0  0  0  0  0  0  0
   18.7750   39.3570   -0.4630 C   0  0  0  0  0  0  0  0  0  0  0  0
   20.0810   41.1260   -1.5360 C   0  0  0  0  0  0  0  0  0  0  0  0
   21.6720   43.8880   -0.3510 C   0  0  0  0  0  0  0  0  0  0  0  0
   22.7400   44.7020   -2.3960 C   0  0  0  0  0  0  0  0  0  0  0  0
   27.1800   41.6800   -4.5210 C   0  0  0  0  0  0  0  0  0  0  0  0
   28.7280   41.3440   -6.3280 C   0  0  0  0  0  0  0  0  0  0  0  0
   28.2990   40.0290   -8.4170 N   0  0  0  0  0  0  0  0  0  0  0  0
   18.8630   39.8370    0.7390 N   0  0  0  0  0  0  0  0  0  0  0  0
   28.4280   38.8790   -6.5360 N   0  0  0  0  0  0  0  0  0  0  0  0
   19.3540   39.9540   -1.5690 N   0  0  0  0  0  0  0  0  0  0  0  0
   21.8120   43.8280   -1.7050 N   0  0  0  0  0  0  0  0  0  0  0  0
   27.5010   42.0200   -5.9030 N   0  0  0  0  0  0  0  0  0  0  0  0
   20.5660   41.6140   -2.5490 O   0  0  0  0  0  0  0  0  0  0  0  0
   22.1960   44.7710    0.3220 O   0  0  0  0  0  0  0  0  0  0  0  0
   19.8250   41.6980    2.3820 S   0  0  0  0  0  0  0  0  0  0  0  0
   25.3742   45.0681   -1.8565 H   0  0  0  0  0  0  0  0  0  0  0  0
   22.6482   42.6327   -4.1219 H   0  0  0  0  0  0  0  0  0  0  0  0
   27.2855   43.7894   -2.7850 H   0  0  0  0  0  0  0  0  0  0  0  0
   24.5582   41.3077   -4.9927 H   0  0  0  0  0  0  0  0  0  0  0  0
   27.9326   38.2649   -9.6650 H   0  0  0  0  0  0  0  0  0  0  0  0
   28.0787   36.8605   -7.3949 H   0  0  0  0  0  0  0  0  0  0  0  0
   21.1621   43.7796    2.2320 H   0  0  0  0  0  0  0  0  0  0  0  0
   18.2096   38.4251   -0.6110 H   0  0  0  0  0  0  0  0  0  0  0  0
   22.2129   45.2031   -3.2213 H   0  0  0  0  0  0  0  0  0  0  0  0
   23.1249   45.4381   -1.6749 H   0  0  0  0  0  0  0  0  0  0  0  0
   28.0700   41.8615   -3.9005 H   0  0  0  0  0  0  0  0  0  0  0  0
   26.8750   40.6232   -4.5065 H   0  0  0  0  0  0  0  0  0  0  0  0
   29.3144   42.0426   -6.9429 H   0  0  0  0  0  0  0  0  0  0  0  0
   29.2609   41.0402   -5.4149 H   0  0  0  0  0  0  0  0  0  0  0  0
   28.2915   40.7989   -9.1011 H   0  0  0  0  0  0  0  0  0  0  0  0
   19.2337   39.4907   -2.4810 H   0  0  0  0  0  0  0  0  0  0  0  0
   21.2514   43.1531   -2.2446 H   0  0  0  0  0  0  0  0  0  0  0  0
   26.7244   41.7270   -6.5129 H   0  0  0  0  0  0  0  0  0  0  0  0
 28  7  1  0
 28 12  1  0
  7  9  2  0
 12 21  1  0
 12  8  2  0
 21 14  2  0
 27 16  2  0
  9  8  1  0
  9 16  1  0
  8 15  1  0
 16 24  1  0
 14 23  1  0
 15 23  1  0
 15 26  2  0
 24 17  1  0
 17 10  1  0
  1 10  2  0
  1  3  1  0
 10  2  1  0
  3 11  2  0
  2  4  2  0
 11  4  1  0
 11 18  1  0
 18 25  1  0
 25 19  1  0
 19 13  1  0
 22 13  2  0
 22  6  1  0
 13 20  1  0
  6  5  2  0
 20  5  1  0
  1 29  1  0
  2 30  1  0
  3 31  1  0
  4 32  1  0
  5 33  1  0
  6 34  1  0
  7 35  1  0
 14 36  1  0
 17 37  1  0
 17 38  1  0
 18 39  1  0
 18 40  1  0
 19 41  1  0
 19 42  1  0
 20 43  1  0
 23 44  1  0
 24 45  1  0
 25 46  1  0
A    1
C2
A    2
C4
A    3
C1
A    4
C5
A    5
C13
A    6
C12
A    7
C20
A    8
C23
A    9
C19
A   10
C3
A   11
C6
A   12
C22
A   13
C10
A   14
C27
A   15
C24
A   16
C17
A   17
C15
A   18
C7
A   19
C9
A   20
N14
A   21
N28
A   22
N11
A   23
N26
A   24
N16
A   25
N8
A   26
O25
A   27
O18
A   28
S21
M  END
