4MCP_28Z_A_818
     RDKit          3D

 67 69  0  0  0  0  0  0  0  0999 V2000
   29.0470   47.5310   44.9120 O   0  0  0  0  0  0  0  0  0  0  0  0
   29.3460   48.7040   45.5460 C   0  0  0  0  0  0  0  0  0  0  0  0
   29.0680   49.9740   45.0120 C   0  0  0  0  0  0  0  0  0  0  0  0
   29.9390   48.6260   46.7510 N   0  0  0  0  0  0  0  0  0  0  0  0
   29.4170   51.0950   45.7830 C   0  0  0  0  0  0  0  0  0  0  0  0
   28.4720   50.1700   43.8030 N   0  0  0  0  0  0  0  0  0  0  0  0
   30.2600   49.7250   47.4570 C   0  0  0  0  0  0  0  0  0  0  0  0
   29.1700   52.3370   45.3390 N   0  0  0  0  0  0  0  0  0  0  0  0
   30.0010   50.9520   46.9810 N   0  0  0  0  0  0  0  0  0  0  0  0
   28.2300   51.4320   43.3650 C   0  0  0  0  0  0  0  0  0  0  0  0
   30.8450   49.5930   48.6420 N   0  0  0  0  0  0  0  0  0  0  0  0
   28.5930   52.5180   44.1610 C   0  0  0  0  0  0  0  0  0  0  0  0
   27.5810   51.7840   42.0100 C   0  0  0  0  0  0  0  0  0  0  0  0
   26.7990   50.7020   41.3790 N   0  0  0  0  0  0  0  0  0  0  0  0
   25.6600   50.2230   41.9180 C   0  0  0  0  0  0  0  0  0  0  0  0
   25.0760   50.8350   43.0290 C   0  0  0  0  0  0  0  0  0  0  0  0
   25.0720   49.0910   41.3520 C   0  0  0  0  0  0  0  0  0  0  0  0
   23.9250   50.3400   43.6070 C   0  0  0  0  0  0  0  0  0  0  0  0
   23.9060   48.5730   41.9320 C   0  0  0  0  0  0  0  0  0  0  0  0
   23.3400   49.2000   43.0440 C   0  0  0  0  0  0  0  0  0  0  0  0
   22.0870   48.6910   43.6990 C   0  0  0  0  0  0  0  0  0  0  0  0
   21.5740   49.3300   44.6150 O   0  0  0  0  0  0  0  0  0  0  0  0
   21.6200   47.5000   43.3120 N   0  0  0  0  0  0  0  0  0  0  0  0
   20.3720   47.0200   43.9490 C   0  0  0  0  0  0  0  0  0  0  0  0
   20.6080   46.7250   45.4000 C   0  0  0  0  0  0  0  0  0  0  0  0
   19.7190   47.1610   46.1500 O   0  0  0  0  0  0  0  0  0  0  0  0
   19.8820   45.7280   43.2570 C   0  0  0  0  0  0  0  0  0  0  0  0
   18.6860   45.0850   43.9600 C   0  0  0  0  0  0  0  0  0  0  0  0
   17.8970   44.3980   42.8470 C   0  0  0  0  0  0  0  0  0  0  0  0
   18.3050   43.3540   42.3290 O   0  0  0  0  0  0  0  0  0  0  0  0
   21.6630   46.1050   45.7220 O   0  0  0  0  0  0  0  0  0  0  0  0
   16.7470   44.9570   42.4640 N   0  0  0  0  0  0  0  0  0  0  0  0
   16.0580   44.3890   41.2920 C   0  0  0  0  0  0  0  0  0  0  0  0
   17.0150   44.5230   40.0750 C   0  0  0  0  0  0  0  0  0  0  0  0
   17.8950   45.4370   40.0890 O   0  0  0  0  0  0  0  0  0  0  0  0
   14.7480   45.1690   41.0090 C   0  0  0  0  0  0  0  0  0  0  0  0
   15.0460   46.6490   40.7270 C   0  0  0  0  0  0  0  0  0  0  0  0
   13.8260   47.4290   40.1860 C   0  0  0  0  0  0  0  0  0  0  0  0
   12.9850   46.8400   39.4640 O   0  0  0  0  0  0  0  0  0  0  0  0
   13.7710   48.6470   40.4720 O   0  0  0  0  0  0  0  0  0  0  0  0
   16.8650   43.6870   39.1470 O   0  0  0  0  0  0  0  0  0  0  0  0
   30.1533   47.6984   47.1441 H   0  0  0  0  0  0  0  0  0  0  0  0
   30.2955   49.7170   49.5043 H   0  0  0  0  0  0  0  0  0  0  0  0
   31.8482   49.3666   48.6987 H   0  0  0  0  0  0  0  0  0  0  0  0
   28.3971   53.5402   43.8050 H   0  0  0  0  0  0  0  0  0  0  0  0
   28.3833   52.0720   41.3147 H   0  0  0  0  0  0  0  0  0  0  0  0
   26.8642   52.5917   42.2195 H   0  0  0  0  0  0  0  0  0  0  0  0
   27.1365   50.2980   40.4937 H   0  0  0  0  0  0  0  0  0  0  0  0
   25.5454   51.7344   43.4541 H   0  0  0  0  0  0  0  0  0  0  0  0
   25.5160   48.6136   40.4660 H   0  0  0  0  0  0  0  0  0  0  0  0
   23.4794   50.8281   44.4863 H   0  0  0  0  0  0  0  0  0  0  0  0
   23.4363   47.6718   41.5109 H   0  0  0  0  0  0  0  0  0  0  0  0
   22.1082   46.9387   42.5996 H   0  0  0  0  0  0  0  0  0  0  0  0
   19.6119   47.8088   43.8490 H   0  0  0  0  0  0  0  0  0  0  0  0
   19.5907   45.9730   42.2249 H   0  0  0  0  0  0  0  0  0  0  0  0
   20.7097   45.0043   43.2918 H   0  0  0  0  0  0  0  0  0  0  0  0
   18.0704   45.8508   44.4545 H   0  0  0  0  0  0  0  0  0  0  0  0
   18.9976   44.3781   44.7431 H   0  0  0  0  0  0  0  0  0  0  0  0
   21.8876   45.9730   46.6771 H   0  0  0  0  0  0  0  0  0  0  0  0
   16.3530   45.7614   42.9726 H   0  0  0  0  0  0  0  0  0  0  0  0
   15.8001   43.3356   41.4759 H   0  0  0  0  0  0  0  0  0  0  0  0
   14.0872   45.0946   41.8853 H   0  0  0  0  0  0  0  0  0  0  0  0
   14.2610   44.7322   40.1247 H   0  0  0  0  0  0  0  0  0  0  0  0
   15.8542   46.7063   39.9830 H   0  0  0  0  0  0  0  0  0  0  0  0
   15.3283   47.1114   41.6843 H   0  0  0  0  0  0  0  0  0  0  0  0
   13.7581   48.9328   41.4198 H   0  0  0  0  0  0  0  0  0  0  0  0
   16.6943   42.7355   39.3607 H   0  0  0  0  0  0  0  0  0  0  0  0
 35 34  2  0
 39 38  2  0
 34 41  1  0
 34 33  1  0
 38 40  1  0
 38 37  1  0
 37 36  1  0
 36 33  1  0
 33 32  1  0
 16 15  2  0
 16 18  1  0
 14 15  1  0
 14 13  1  0
 15 17  1  0
 18 20  2  0
 13 10  1  0
 30 29  2  0
 32 29  1  0
 29 28  1  0
 17 19  2  0
 20 19  1  0
 20 21  1  0
 27 24  1  0
 27 28  1  0
 23 21  1  0
 23 24  1  0
 10  6  1  0
 10 12  2  0
 21 22  2  0
  6  3  2  0
 24 25  1  0
 12  8  1  0
  1  2  2  0
  3  2  1  0
  3  5  1  0
  8  5  2  0
 25 26  2  0
 25 31  1  0
  2  4  1  0
  5  9  1  0
  4  7  1  0
  9  7  2  0
  7 11  1  0
  4 42  1  0
 11 43  1  0
 11 44  1  0
 12 45  1  0
 13 46  1  0
 13 47  1  0
 14 48  1  0
 16 49  1  0
 17 50  1  0
 18 51  1  0
 19 52  1  0
 23 53  1  0
 24 54  1  0
 27 55  1  0
 27 56  1  0
 28 57  1  0
 28 58  1  0
 31 59  1  0
 32 60  1  0
 33 61  1  0
 36 62  1  0
 36 63  1  0
 37 64  1  0
 37 65  1  0
 40 66  1  0
 41 67  1  0
A    1
O4
A    2
C4
A    3
C4A
A    4
N3
A    5
C8A
A    6
N5
A    7
C2
A    8
N8
A    9
N1
A   10
C6
A   11
N2
A   12
C7
A   13
C9
A   14
N10
A   15
CBH
A   16
CAL
A   17
CAK
A   18
CAN
A   19
CAM
A   20
CBI
A   21
CBF
A   22
OAF
A   23
NBA
A   24
CBO
A   25
CBD
A   26
OAI
A   27
CAS
A   28
CAQ
A   29
CBE
A   30
OAE
A   31
OAD
A   32
N
A   33
CA
A   34
C
A   35
OXT
A   36
CB
A   37
CG
A   38
CD
A   39
OE1
A   40
OE2
A   41
O
M  END
