4MCQ_29C_A_818
     RDKit          3D

 83 85  0  0  0  0  0  0  0  0999 V2000
   35.4580   53.5720   49.2750 O   0  0  0  0  0  0  0  0  0  0  0  0
   34.6880   54.2840   48.4170 C   0  0  0  0  0  0  0  0  0  0  0  0
   33.2930   54.0800   48.3470 C   0  0  0  0  0  0  0  0  0  0  0  0
   35.2810   55.2070   47.6190 N   0  0  0  0  0  0  0  0  0  0  0  0
   32.5790   54.8630   47.4220 C   0  0  0  0  0  0  0  0  0  0  0  0
   32.6360   53.1820   49.1350 N   0  0  0  0  0  0  0  0  0  0  0  0
   34.5500   55.9410   46.7330 C   0  0  0  0  0  0  0  0  0  0  0  0
   31.2510   54.7400   47.2960 N   0  0  0  0  0  0  0  0  0  0  0  0
   33.2100   55.7690   46.6450 N   0  0  0  0  0  0  0  0  0  0  0  0
   31.3060   53.0720   48.9950 C   0  0  0  0  0  0  0  0  0  0  0  0
   35.1330   56.8450   45.9270 N   0  0  0  0  0  0  0  0  0  0  0  0
   30.6300   53.8780   48.0670 C   0  0  0  0  0  0  0  0  0  0  0  0
   30.4440   52.0990   49.8100 C   0  0  0  0  0  0  0  0  0  0  0  0
   29.0260   52.3260   49.3830 N   0  0  0  0  0  0  0  0  0  0  0  0
   28.4800   51.8610   48.2220 C   0  0  0  0  0  0  0  0  0  0  0  0
   27.2150   52.3010   47.7440 C   0  0  0  0  0  0  0  0  0  0  0  0
   29.1830   50.9180   47.4550 C   0  0  0  0  0  0  0  0  0  0  0  0
   26.6740   51.7910   46.5340 C   0  0  0  0  0  0  0  0  0  0  0  0
   28.6510   50.4220   46.2600 C   0  0  0  0  0  0  0  0  0  0  0  0
   27.4020   50.8430   45.7690 C   0  0  0  0  0  0  0  0  0  0  0  0
   26.8910   50.1830   44.4360 C   0  0  0  0  0  0  0  0  0  0  0  0
   27.2080   49.0110   44.1750 O   0  0  0  0  0  0  0  0  0  0  0  0
   26.0500   50.9000   43.6810 N   0  0  0  0  0  0  0  0  0  0  0  0
   25.4080   50.4250   42.4200 C   0  0  0  0  0  0  0  0  0  0  0  0
   25.1580   51.6450   41.4680 C   0  0  0  0  0  0  0  0  0  0  0  0
   24.9950   52.7830   42.0350 O   0  0  0  0  0  0  0  0  0  0  0  0
   24.0170   49.8840   42.7700 C   0  0  0  0  0  0  0  0  0  0  0  0
   23.8900   48.4640   43.3030 C   0  0  0  0  0  0  0  0  0  0  0  0
   22.4840   48.3000   43.9440 C   0  0  0  0  0  0  0  0  0  0  0  0
   22.0200   49.1570   44.7040 O   0  0  0  0  0  0  0  0  0  0  0  0
   25.0700   51.4070   40.2120 O   0  0  0  0  0  0  0  0  0  0  0  0
   21.8550   47.1530   43.6940 N   0  0  0  0  0  0  0  0  0  0  0  0
   20.5170   46.8480   44.2890 C   0  0  0  0  0  0  0  0  0  0  0  0
   20.7240   46.4960   45.7720 C   0  0  0  0  0  0  0  0  0  0  0  0
   21.7190   45.7920   46.0890 O   0  0  0  0  0  0  0  0  0  0  0  0
   19.8830   45.6620   43.5690 C   0  0  0  0  0  0  0  0  0  0  0  0
   18.6850   45.0250   44.3000 C   0  0  0  0  0  0  0  0  0  0  0  0
   17.8920   44.2490   43.2090 C   0  0  0  0  0  0  0  0  0  0  0  0
   18.1640   43.0730   42.8440 O   0  0  0  0  0  0  0  0  0  0  0  0
   19.9100   46.9940   46.5630 O   0  0  0  0  0  0  0  0  0  0  0  0
   16.7610   44.8720   42.8640 N   0  0  0  0  0  0  0  0  0  0  0  0
   15.9720   44.3550   41.7110 C   0  0  0  0  0  0  0  0  0  0  0  0
   16.8910   44.4340   40.4710 C   0  0  0  0  0  0  0  0  0  0  0  0
   17.8010   45.3220   40.4630 O   0  0  0  0  0  0  0  0  0  0  0  0
   14.6710   45.1620   41.3430 C   0  0  0  0  0  0  0  0  0  0  0  0
   15.0040   46.6490   41.0540 C   0  0  0  0  0  0  0  0  0  0  0  0
   13.7630   47.4310   40.5380 C   0  0  0  0  0  0  0  0  0  0  0  0
   12.8960   46.7800   39.8570 O   0  0  0  0  0  0  0  0  0  0  0  0
   13.7280   48.6650   40.8290 O   0  0  0  0  0  0  0  0  0  0  0  0
   16.6900   43.5700   39.5560 O   0  0  0  0  0  0  0  0  0  0  0  0
   36.2982   55.3553   47.6835 H   0  0  0  0  0  0  0  0  0  0  0  0
   35.6463   57.6409   46.3320 H   0  0  0  0  0  0  0  0  0  0  0  0
   35.0665   56.7419   44.9043 H   0  0  0  0  0  0  0  0  0  0  0  0
   29.5373   53.7841   47.9821 H   0  0  0  0  0  0  0  0  0  0  0  0
   30.7421   51.0610   49.6012 H   0  0  0  0  0  0  0  0  0  0  0  0
   30.5660   52.2686   50.8900 H   0  0  0  0  0  0  0  0  0  0  0  0
   28.4195   52.8725   50.0110 H   0  0  0  0  0  0  0  0  0  0  0  0
   26.6475   53.0470   48.3197 H   0  0  0  0  0  0  0  0  0  0  0  0
   30.1662   50.5642   47.7987 H   0  0  0  0  0  0  0  0  0  0  0  0
   25.6870   52.1321   46.1885 H   0  0  0  0  0  0  0  0  0  0  0  0
   29.2269   49.6803   45.6870 H   0  0  0  0  0  0  0  0  0  0  0  0
   25.8282   51.8555   43.9951 H   0  0  0  0  0  0  0  0  0  0  0  0
   26.0541   49.6705   41.9474 H   0  0  0  0  0  0  0  0  0  0  0  0
   23.5933   50.5537   43.5329 H   0  0  0  0  0  0  0  0  0  0  0  0
   23.4960   49.8498   41.8018 H   0  0  0  0  0  0  0  0  0  0  0  0
   24.0072   47.7463   42.4776 H   0  0  0  0  0  0  0  0  0  0  0  0
   24.6705   48.2729   44.0542 H   0  0  0  0  0  0  0  0  0  0  0  0
   24.7446   50.5268   39.8966 H   0  0  0  0  0  0  0  0  0  0  0  0
   22.3005   46.4595   43.0763 H   0  0  0  0  0  0  0  0  0  0  0  0
   19.8518   47.7181   44.1867 H   0  0  0  0  0  0  0  0  0  0  0  0
   19.5382   46.0055   42.5825 H   0  0  0  0  0  0  0  0  0  0  0  0
   20.6590   44.8845   43.5121 H   0  0  0  0  0  0  0  0  0  0  0  0
   18.0534   45.8036   44.7526 H   0  0  0  0  0  0  0  0  0  0  0  0
   19.0117   44.3615   45.1143 H   0  0  0  0  0  0  0  0  0  0  0  0
   20.0516   46.9073   47.5390 H   0  0  0  0  0  0  0  0  0  0  0  0
   16.4393   45.6983   43.3881 H   0  0  0  0  0  0  0  0  0  0  0  0
   15.6420   43.3466   42.0012 H   0  0  0  0  0  0  0  0  0  0  0  0
   13.9641   45.1083   42.1841 H   0  0  0  0  0  0  0  0  0  0  0  0
   14.2275   44.7195   40.4389 H   0  0  0  0  0  0  0  0  0  0  0  0
   15.7955   46.6946   40.2914 H   0  0  0  0  0  0  0  0  0  0  0  0
   15.3331   47.1139   41.9950 H   0  0  0  0  0  0  0  0  0  0  0  0
   13.7199   48.9500   41.7771 H   0  0  0  0  0  0  0  0  0  0  0  0
   16.4724   42.6348   39.7974 H   0  0  0  0  0  0  0  0  0  0  0  0
 44 43  2  0
 48 47  2  0
 26 25  2  0
 50 43  1  0
 43 42  1  0
 47 49  1  0
 47 46  1  0
 46 45  1  0
 45 42  1  0
 25 31  1  0
 25 24  1  0
 42 41  1  0
 24 27  1  0
 24 23  1  0
 39 38  2  0
 27 28  1  0
 41 38  1  0
 38 37  1  0
 28 29  1  0
 36 33  1  0
 36 37  1  0
 23 21  1  0
 32 29  1  0
 32 33  1  0
 29 30  2  0
 22 21  2  0
 33 34  1  0
 21 20  1  0
 34 35  2  0
 34 40  1  0
 20 18  1  0
 20 19  2  0
 11  7  1  0
 18 16  2  0
 19 17  1  0
  9  7  2  0
  9  5  1  0
  7  4  1  0
  8  5  1  0
  8 12  2  0
  5  3  2  0
 16 15  1  0
  4  2  1  0
 17 15  2  0
 12 10  1  0
 15 14  1  0
  3  2  1  0
  3  6  1  0
  2  1  2  0
 10  6  2  0
 10 13  1  0
 14 13  1  0
  4 51  1  0
 11 52  1  0
 11 53  1  0
 12 54  1  0
 13 55  1  0
 13 56  1  0
 14 57  1  0
 16 58  1  0
 17 59  1  0
 18 60  1  0
 19 61  1  0
 23 62  1  0
 24 63  1  0
 27 64  1  0
 27 65  1  0
 28 66  1  0
 28 67  1  0
 31 68  1  0
 32 69  1  0
 33 70  1  0
 36 71  1  0
 36 72  1  0
 37 73  1  0
 37 74  1  0
 40 75  1  0
 41 76  1  0
 42 77  1  0
 45 78  1  0
 45 79  1  0
 46 80  1  0
 46 81  1  0
 49 82  1  0
 50 83  1  0
A    1
O4
A    2
C4
A    3
C4A
A    4
N3
A    5
C8A
A    6
N5
A    7
C2
A    8
N8
A    9
N1
A   10
C6
A   11
N2
A   12
C7
A   13
C9
A   14
N10
A   15
CBP
A   16
CAN
A   17
CAO
A   18
CAP
A   19
CAQ
A   20
CBQ
A   21
CBN
A   22
OAH
A   23
NBG
A   24
CBX
A   25
CBK
A   26
OAE
A   27
CAX
A   28
CAU
A   29
CBM
A   30
OAG
A   31
OAL
A   32
NBF
A   33
CBW
A   34
CBJ
A   35
OAK
A   36
CAW
A   37
CAT
A   38
CBL
A   39
OAF
A   40
OAD
A   41
N
A   42
CA
A   43
C
A   44
O
A   45
CB
A   46
CG
A   47
CD
A   48
OE2
A   49
OE1
A   50
OXT
M  END
