4MCV_29K_A_601
     RDKit          3D

 63 68  0  0  0  0  0  0  0  0999 V2000
   86.4200   71.3170  -40.8320 C   0  0  0  0  0  0  0  0  0  0  0  0
   88.7380   72.6710  -39.8120 C   0  0  0  0  0  0  0  0  0  0  0  0
   90.3430   71.4440  -40.9530 C   0  0  0  0  0  0  0  0  0  0  0  0
   92.4240   72.5160  -40.1600 C   0  0  0  0  0  0  0  0  0  0  0  0
   91.1060   70.5680  -41.7470 C   0  0  0  0  0  0  0  0  0  0  0  0
   90.3620   74.2620  -38.5440 C   0  0  0  0  0  0  0  0  0  0  0  0
   91.6900   73.7500  -36.3570 C   0  0  0  0  0  0  0  0  0  0  0  0
   85.6110   74.1010  -38.4050 C   0  0  0  0  0  0  0  0  0  0  0  0
   84.1520   70.4740  -41.4180 O   0  0  0  0  0  0  0  0  0  0  0  0
   85.4330   70.4340  -41.5280 C   0  0  0  0  0  0  0  0  0  0  0  0
   86.1700   69.5150  -42.3520 N   0  0  0  0  0  0  0  0  0  0  0  0
   87.5630   69.7990  -42.2070 C   0  0  0  0  0  0  0  0  0  0  0  0
   87.9500   70.1570  -43.6440 C   0  0  0  0  0  0  0  0  0  0  0  0
   88.9990   69.3530  -44.3680 C   0  0  0  0  0  0  0  0  0  0  0  0
   89.4340   69.9700  -45.6240 C   0  0  0  0  0  0  0  0  0  0  0  0
   88.6480   67.8510  -44.5350 C   0  0  0  0  0  0  0  0  0  0  0  0
   87.7010   70.9260  -41.2400 C   0  0  0  0  0  0  0  0  0  0  0  0
   86.2640   72.4400  -39.8640 C   0  0  0  0  0  0  0  0  0  0  0  0
   87.3980   73.0910  -39.3750 C   0  0  0  0  0  0  0  0  0  0  0  0
   88.8830   71.6200  -40.7180 C   0  0  0  0  0  0  0  0  0  0  0  0
   90.9980   72.4260  -40.1540 C   0  0  0  0  0  0  0  0  0  0  0  0
   93.1700   71.6480  -40.9450 C   0  0  0  0  0  0  0  0  0  0  0  0
   92.5010   70.6560  -41.7540 C   0  0  0  0  0  0  0  0  0  0  0  0
   90.0480   73.1470  -39.4850 N   0  0  0  0  0  0  0  0  0  0  0  0
   90.3360   73.9130  -37.0700 C   0  0  0  0  0  0  0  0  0  0  0  0
   92.3490   72.4040  -36.4420 C   0  0  0  0  0  0  0  0  0  0  0  0
   93.3300   72.0770  -35.4560 N   0  0  0  0  0  0  0  0  0  0  0  0
   86.9910   74.0820  -38.5030 N   0  0  0  0  0  0  0  0  0  0  0  0
   84.7290   74.9190  -37.6550 C   0  0  0  0  0  0  0  0  0  0  0  0
   83.3180   74.7170  -37.7460 C   0  0  0  0  0  0  0  0  0  0  0  0
   82.8070   73.7060  -38.5790 C   0  0  0  0  0  0  0  0  0  0  0  0
   83.6770   72.9020  -39.3170 C   0  0  0  0  0  0  0  0  0  0  0  0
   85.1040   73.1010  -39.2300 C   0  0  0  0  0  0  0  0  0  0  0  0
   92.9302   73.2728  -39.5428 H   0  0  0  0  0  0  0  0  0  0  0  0
   90.6022   69.8103  -42.3652 H   0  0  0  0  0  0  0  0  0  0  0  0
   91.3695   74.6321  -38.7847 H   0  0  0  0  0  0  0  0  0  0  0  0
   89.5639   75.0052  -38.6873 H   0  0  0  0  0  0  0  0  0  0  0  0
   92.3832   74.4864  -36.7895 H   0  0  0  0  0  0  0  0  0  0  0  0
   91.4685   73.8919  -35.2889 H   0  0  0  0  0  0  0  0  0  0  0  0
   85.7635   68.7778  -42.9455 H   0  0  0  0  0  0  0  0  0  0  0  0
   88.2017   68.9965  -41.8093 H   0  0  0  0  0  0  0  0  0  0  0  0
   88.3048   71.1981  -43.6266 H   0  0  0  0  0  0  0  0  0  0  0  0
   87.0327   69.9426  -44.2120 H   0  0  0  0  0  0  0  0  0  0  0  0
   89.8686   69.3718  -43.6947 H   0  0  0  0  0  0  0  0  0  0  0  0
   90.0550   70.8509  -45.4040 H   0  0  0  0  0  0  0  0  0  0  0  0
   90.0208   69.2436  -46.2054 H   0  0  0  0  0  0  0  0  0  0  0  0
   88.5527   70.2787  -46.2054 H   0  0  0  0  0  0  0  0  0  0  0  0
   88.5396   67.3873  -43.5434 H   0  0  0  0  0  0  0  0  0  0  0  0
   87.7032   67.7548  -45.0900 H   0  0  0  0  0  0  0  0  0  0  0  0
   89.4523   67.3460  -45.0900 H   0  0  0  0  0  0  0  0  0  0  0  0
   94.2679   71.7154  -40.9510 H   0  0  0  0  0  0  0  0  0  0  0  0
   93.0909   69.9679  -42.3773 H   0  0  0  0  0  0  0  0  0  0  0  0
   89.7841   74.7109  -36.5517 H   0  0  0  0  0  0  0  0  0  0  0  0
   89.8725   72.9164  -37.0249 H   0  0  0  0  0  0  0  0  0  0  0  0
   91.5547   71.6457  -36.3781 H   0  0  0  0  0  0  0  0  0  0  0  0
   92.9075   72.4294  -37.3893 H   0  0  0  0  0  0  0  0  0  0  0  0
   92.9300   72.2103  -34.5163 H   0  0  0  0  0  0  0  0  0  0  0  0
   93.6177   71.0946  -35.5705 H   0  0  0  0  0  0  0  0  0  0  0  0
   87.6251   74.7169  -37.9973 H   0  0  0  0  0  0  0  0  0  0  0  0
   85.1310   75.7088  -37.0034 H   0  0  0  0  0  0  0  0  0  0  0  0
   82.6321   75.3514  -37.1653 H   0  0  0  0  0  0  0  0  0  0  0  0
   81.7206   73.5486  -38.6491 H   0  0  0  0  0  0  0  0  0  0  0  0
   83.2732   72.1128  -39.9682 H   0  0  0  0  0  0  0  0  0  0  0  0
 15 14  1  0
 16 14  1  0
 14 13  1  0
 13 12  1  0
 11 12  1  0
 11 10  1  0
 12 17  1  0
 23  5  2  0
 23 22  1  0
  5  3  1  0
 10  9  2  0
 10  1  1  0
 17  1  1  0
 17 20  2  0
  3 20  1  0
  3 21  2  0
 22  4  2  0
  1 18  2  0
 20  2  1  0
  4 21  1  0
 21 24  1  0
 18 19  1  0
 18 33  1  0
  2 24  1  0
  2 19  2  0
 24  6  1  0
 19 28  1  0
 32 33  2  0
 32 31  1  0
 33  8  1  0
 31 30  2  0
  6 25  1  0
 28  8  1  0
  8 29  2  0
 30 29  1  0
 25  7  1  0
 26  7  1  0
 26 27  1  0
  4 34  1  0
  5 35  1  0
  6 36  1  0
  6 37  1  0
  7 38  1  0
  7 39  1  0
 11 40  1  0
 12 41  1  0
 13 42  1  0
 13 43  1  0
 14 44  1  0
 15 45  1  0
 15 46  1  0
 15 47  1  0
 16 48  1  0
 16 49  1  0
 16 50  1  0
 22 51  1  0
 23 52  1  0
 25 53  1  0
 25 54  1  0
 26 55  1  0
 26 56  1  0
 27 57  1  0
 27 58  1  0
 28 59  1  0
 29 60  1  0
 30 61  1  0
 31 62  1  0
 32 63  1  0
A    1
C10
A    2
C13
A    3
C15
A    4
C17
A    5
C20
A    6
C22
A    7
C24
A    8
C28
A    9
O01
A   10
C02
A   11
N03
A   12
C04
A   13
C05
A   14
C06
A   15
C07
A   16
C08
A   17
C09
A   18
C11
A   19
C12
A   20
C14
A   21
C16
A   22
C18
A   23
C19
A   24
N21
A   25
C23
A   26
C25
A   27
N26
A   28
N27
A   29
C29
A   30
C30
A   31
C31
A   32
C32
A   33
C33
M  END
