4MD6_24E_A_902
     RDKit          3D

 42 46  0  0  0  0  0  0  0  0999 V2000
   47.4890   16.2300   45.3900 C   0  0  0  0  0  0  0  0  0  0  0  0
   48.8620   16.3350   45.1990 C   0  0  0  0  0  0  0  0  0  0  0  0
   49.3610   17.0610   44.1230 C   0  0  0  0  0  0  0  0  0  0  0  0
   50.7030   17.2210   43.9740 O   0  0  0  0  0  0  0  0  0  0  0  0
   48.4860   17.6780   43.2360 C   0  0  0  0  0  0  0  0  0  0  0  0
   47.1130   17.5760   43.4300 C   0  0  0  0  0  0  0  0  0  0  0  0
   46.6130   16.8520   44.5070 C   0  0  0  0  0  0  0  0  0  0  0  0
   45.0910   16.7150   44.6960 C   0  0  0  0  0  0  0  0  0  0  0  0
   44.7370   16.6990   46.1950 C   0  0  0  0  0  0  0  0  0  0  0  0
   44.9520   17.7620   47.1390 N   0  0  0  0  0  0  0  0  0  0  0  0
   44.1900   15.6360   46.9020 C   0  0  0  0  0  0  0  0  0  0  0  0
   43.8320   14.3330   46.4540 O   0  0  0  0  0  0  0  0  0  0  0  0
   43.3490   13.3140   47.3230 C   0  0  0  0  0  0  0  0  0  0  0  0
   43.0480   12.0560   46.8120 C   0  0  0  0  0  0  0  0  0  0  0  0
   42.6050   11.0480   47.6610 C   0  0  0  0  0  0  0  0  0  0  0  0
   42.4590   11.2940   49.0220 C   0  0  0  0  0  0  0  0  0  0  0  0
   42.7560   12.5520   49.5360 C   0  0  0  0  0  0  0  0  0  0  0  0
   43.2030   13.5560   48.6840 C   0  0  0  0  0  0  0  0  0  0  0  0
   43.5680   14.9460   49.2320 C   0  0  0  0  0  0  0  0  0  0  0  0
   43.4550   15.1980   50.4300 O   0  0  0  0  0  0  0  0  0  0  0  0
   44.0750   16.0000   48.2310 C   0  0  0  0  0  0  0  0  0  0  0  0
   44.4880   17.2550   48.4040 C   0  0  0  0  0  0  0  0  0  0  0  0
   44.4960   17.9740   49.5820 C   0  0  0  0  0  0  0  0  0  0  0  0
   45.1100   19.5620   49.7650 S   0  0  0  0  0  0  0  0  0  0  0  0
   44.4640   19.9410   51.2950 C   0  0  0  0  0  0  0  0  0  0  0  0
   43.7720   18.8760   51.6940 C   0  0  0  0  0  0  0  0  0  0  0  0
   43.7910   17.7110   50.6810 C   0  0  0  0  0  0  0  0  0  0  0  0
   47.0951   15.6543   46.2405 H   0  0  0  0  0  0  0  0  0  0  0  0
   49.5538   15.8437   45.8991 H   0  0  0  0  0  0  0  0  0  0  0  0
   51.2849   17.2904   44.7720 H   0  0  0  0  0  0  0  0  0  0  0  0
   48.8799   18.2468   42.3808 H   0  0  0  0  0  0  0  0  0  0  0  0
   46.4213   18.0686   42.7307 H   0  0  0  0  0  0  0  0  0  0  0  0
   44.5875   17.5657   44.2134 H   0  0  0  0  0  0  0  0  0  0  0  0
   44.7576   15.7712   44.2398 H   0  0  0  0  0  0  0  0  0  0  0  0
   45.3538   18.6914   46.9499 H   0  0  0  0  0  0  0  0  0  0  0  0
   43.1605   11.8584   45.7357 H   0  0  0  0  0  0  0  0  0  0  0  0
   42.3693   10.0532   47.2551 H   0  0  0  0  0  0  0  0  0  0  0  0
   42.1090   10.4944   49.6915 H   0  0  0  0  0  0  0  0  0  0  0  0
   42.6378   12.7516   50.6113 H   0  0  0  0  0  0  0  0  0  0  0  0
   44.5936   20.8837   51.8468 H   0  0  0  0  0  0  0  0  0  0  0  0
   43.2374   18.8304   52.6543 H   0  0  0  0  0  0  0  0  0  0  0  0
   43.2723   16.7559   50.8506 H   0  0  0  0  0  0  0  0  0  0  0  0
  5  6  2  0
  5  3  1  0
  6  7  1  0
  4  3  1  0
  3  2  2  0
  7  8  1  0
  7  1  2  0
  8  9  1  0
  2  1  1  0
  9 11  2  0
  9 10  1  0
 12 11  1  0
 12 13  1  0
 14 13  2  0
 14 15  1  0
 11 21  1  0
 10 22  1  0
 13 18  1  0
 15 16  2  0
 21 22  2  0
 21 19  1  0
 22 23  1  0
 18 19  1  0
 18 17  2  0
 16 17  1  0
 19 20  2  0
 23 24  1  0
 23 27  2  0
 24 25  1  0
 27 26  1  0
 25 26  2  0
  1 28  1  0
  2 29  1  0
  4 30  1  0
  5 31  1  0
  6 32  1  0
  8 33  1  0
  8 34  1  0
 10 35  1  0
 14 36  1  0
 15 37  1  0
 16 38  1  0
 17 39  1  0
 25 40  1  0
 26 41  1  0
 27 42  1  0
A    1
C18
A    2
C19
A    3
C22
A    4
O3
A    5
C21
A    6
C20
A    7
C17
A    8
C16
A    9
C10
A   10
N1
A   11
C9
A   12
O1
A   13
C4
A   14
C6
A   15
C5
A   16
C3
A   17
C1
A   18
C2
A   19
C7
A   20
O2
A   21
C8
A   22
C11
A   23
C12
A   24
S1
A   25
C15
A   26
C14
A   27
C13
M  END
