3L2T_RLT_A_397
     RDKit          3D

 53 55  0  0  0  0  0  0  0  0999 V2000
  -41.7770   23.4220  -19.5630 C   0  0  0  0  0  0  0  0  0  0  0  0
  -36.6270   27.3090  -19.7170 C   0  0  0  0  0  0  0  0  0  0  0  0
  -38.2530   29.8800  -23.0820 C   0  0  0  0  0  0  0  0  0  0  0  0
  -36.0820   28.6440  -23.2060 C   0  0  0  0  0  0  0  0  0  0  0  0
  -36.2940   33.7080  -18.6280 O   0  0  0  0  0  0  0  0  0  0  0  0
  -39.6910   28.5290  -20.6700 O   0  0  0  0  0  0  0  0  0  0  0  0
  -35.9580   28.7880  -17.5480 O   0  0  0  0  0  0  0  0  0  0  0  0
  -35.7660   31.2440  -17.2220 O   0  0  0  0  0  0  0  0  0  0  0  0
  -40.9570   38.2500  -20.7310 F   0  0  0  0  0  0  0  0  0  0  0  0
  -39.6800   36.7690  -22.0810 C   0  0  0  0  0  0  0  0  0  0  0  0
  -38.9180   37.3580  -19.8500 C   0  0  0  0  0  0  0  0  0  0  0  0
  -38.5390   35.9660  -22.2130 C   0  0  0  0  0  0  0  0  0  0  0  0
  -37.7850   36.5540  -19.9950 C   0  0  0  0  0  0  0  0  0  0  0  0
  -36.3930   34.9750  -21.3930 C   0  0  0  0  0  0  0  0  0  0  0  0
  -39.5370   23.9840  -20.6300 N   0  0  0  0  0  0  0  0  0  0  0  0
  -38.8950   24.9800  -20.9990 N   0  0  0  0  0  0  0  0  0  0  0  0
  -36.7860   30.9080  -20.8000 N   0  0  0  0  0  0  0  0  0  0  0  0
  -36.4260   33.5740  -20.9390 N   0  0  0  0  0  0  0  0  0  0  0  0
  -37.9380   27.6550  -21.8990 N   0  0  0  0  0  0  0  0  0  0  0  0
  -40.7910   25.8130  -20.1940 O   0  0  0  0  0  0  0  0  0  0  0  0
  -36.3790   33.0670  -19.6710 C   0  0  0  0  0  0  0  0  0  0  0  0
  -39.0700   27.5600  -21.1130 C   0  0  0  0  0  0  0  0  0  0  0  0
  -40.7040   24.4150  -20.1290 C   0  0  0  0  0  0  0  0  0  0  0  0
  -39.8630   37.4660  -20.8870 C   0  0  0  0  0  0  0  0  0  0  0  0
  -37.6050   35.8550  -21.1940 C   0  0  0  0  0  0  0  0  0  0  0  0
  -36.1380   30.7880  -18.4810 C   0  0  0  0  0  0  0  0  0  0  0  0
  -39.5880   26.1220  -20.7680 C   0  0  0  0  0  0  0  0  0  0  0  0
  -36.4360   31.5320  -19.6460 C   0  0  0  0  0  0  0  0  0  0  0  0
  -36.8820   29.5750  -20.9490 C   0  0  0  0  0  0  0  0  0  0  0  0
  -36.2210   29.4220  -18.5760 C   0  0  0  0  0  0  0  0  0  0  0  0
  -36.5880   28.7910  -19.7910 N   0  0  0  0  0  0  0  0  0  0  0  0
  -37.2960   28.9460  -22.3290 C   0  0  0  0  0  0  0  0  0  0  0  0
  -41.7532   23.4441  -18.4635 H   0  0  0  0  0  0  0  0  0  0  0  0
  -42.7754   23.7218  -19.9142 H   0  0  0  0  0  0  0  0  0  0  0  0
  -41.5553   22.4034  -19.9142 H   0  0  0  0  0  0  0  0  0  0  0  0
  -36.6353   26.9946  -18.6629 H   0  0  0  0  0  0  0  0  0  0  0  0
  -37.5351   26.9407  -20.2166 H   0  0  0  0  0  0  0  0  0  0  0  0
  -35.7395   26.8934  -20.2166 H   0  0  0  0  0  0  0  0  0  0  0  0
  -38.8458   30.4586  -22.3582 H   0  0  0  0  0  0  0  0  0  0  0  0
  -37.6723   30.5682  -23.7137 H   0  0  0  0  0  0  0  0  0  0  0  0
  -38.9269   29.2827  -23.7137 H   0  0  0  0  0  0  0  0  0  0  0  0
  -35.2129   28.4278  -22.5673 H   0  0  0  0  0  0  0  0  0  0  0  0
  -36.2963   27.7718  -23.8411 H   0  0  0  0  0  0  0  0  0  0  0  0
  -35.8627   29.5150  -23.8411 H   0  0  0  0  0  0  0  0  0  0  0  0
  -36.1245   30.8046  -16.4105 H   0  0  0  0  0  0  0  0  0  0  0  0
  -40.4123   36.8475  -22.8981 H   0  0  0  0  0  0  0  0  0  0  0  0
  -39.0734   37.9137  -18.9135 H   0  0  0  0  0  0  0  0  0  0  0  0
  -38.3803   35.4097  -23.1486 H   0  0  0  0  0  0  0  0  0  0  0  0
  -37.0483   36.4718  -19.1823 H   0  0  0  0  0  0  0  0  0  0  0  0
  -35.5567   35.4606  -20.8688 H   0  0  0  0  0  0  0  0  0  0  0  0
  -36.3163   34.8881  -22.4869 H   0  0  0  0  0  0  0  0  0  0  0  0
  -36.4948   32.8718  -21.6894 H   0  0  0  0  0  0  0  0  0  0  0  0
  -37.5011   26.7771  -22.2140 H   0  0  0  0  0  0  0  0  0  0  0  0
  1 23  1  0
  2 31  1  0
  3 32  1  0
  4 32  1  0
  5 21  2  0
  6 22  2  0
  7 30  2  0
  8 26  1  0
  9 24  1  0
 10 12  2  0
 10 24  1  0
 11 13  1  0
 11 24  2  0
 12 25  1  0
 13 25  2  0
 14 18  1  0
 14 25  1  0
 15 16  1  0
 15 23  2  0
 16 27  2  0
 17 28  1  0
 17 29  2  0
 18 21  1  0
 19 22  1  0
 19 32  1  0
 20 23  1  0
 20 27  1  0
 21 28  1  0
 22 27  1  0
 26 28  2  0
 26 30  1  0
 29 31  1  0
 29 32  1  0
 30 31  1  0
  1 33  1  0
  1 34  1  0
  1 35  1  0
  2 36  1  0
  2 37  1  0
  2 38  1  0
  3 39  1  0
  3 40  1  0
  3 41  1  0
  4 42  1  0
  4 43  1  0
  4 44  1  0
  8 45  1  0
 10 46  1  0
 11 47  1  0
 12 48  1  0
 13 49  1  0
 14 50  1  0
 14 51  1  0
 18 52  1  0
 19 53  1  0
A    1
CAA
A    2
CAB
A    3
CAC
A    4
CAD
A    5
OAE
A    6
OAF
A    7
OAG
A    8
OAH
A    9
FAI
A   10
CAJ
A   11
CAK
A   12
CAL
A   13
CAM
A   14
CAN
A   15
NAO
A   16
NAP
A   17
NAQ
A   18
NAR
A   19
NAS
A   20
OAT
A   21
CAU
A   22
CAV
A   23
CAW
A   24
CAX
A   25
CAY
A   26
CAZ
A   27
CBA
A   28
CBB
A   29
CBC
A   30
CBD
A   31
NBE
A   32
CBF
M  END
