4MDD_29M_A_801
     RDKit          3D

 68 71  0  0  0  0  0  0  0  0999 V2000
   -6.1520  -15.4510   43.4710 C   0  0  0  0  0  0  0  0  0  0  0  0
  -13.1520  -16.2410   39.5520 F   0  0  0  0  0  0  0  0  0  0  0  0
   -8.5350  -18.0870   45.3910 N   0  0  0  0  0  0  0  0  0  0  0  0
  -12.0420  -16.3910   44.1930 O   0  0  0  0  0  0  0  0  0  0  0  0
   -4.7360  -18.8070   46.5450 S   0  0  0  0  0  0  0  0  0  0  0  0
   -5.6380  -15.9940   44.6380 C   0  0  0  0  0  0  0  0  0  0  0  0
  -10.4480  -20.3800   45.3190 N   0  0  0  0  0  0  0  0  0  0  0  0
   -4.4300  -19.2040   47.9050 O   0  0  0  0  0  0  0  0  0  0  0  0
   -6.3480  -16.9270   45.3680 C   0  0  0  0  0  0  0  0  0  0  0  0
   -5.8640  -17.5070   46.5950 N   0  0  0  0  0  0  0  0  0  0  0  0
   -5.1660  -19.8640   45.6440 O   0  0  0  0  0  0  0  0  0  0  0  0
   -7.6000  -17.2400   44.8800 C   0  0  0  0  0  0  0  0  0  0  0  0
   -9.6560  -18.1240   44.6150 C   0  0  0  0  0  0  0  0  0  0  0  0
   -9.4480  -17.2540   43.5620 C   0  0  0  0  0  0  0  0  0  0  0  0
   -8.1490  -16.7040   43.7300 C   0  0  0  0  0  0  0  0  0  0  0  0
   -7.4070  -15.7850   43.0110 C   0  0  0  0  0  0  0  0  0  0  0  0
  -10.4280  -16.9730   42.5310 C   0  0  0  0  0  0  0  0  0  0  0  0
  -10.0560  -17.1240   41.2060 C   0  0  0  0  0  0  0  0  0  0  0  0
  -10.9730  -16.8730   40.2020 C   0  0  0  0  0  0  0  0  0  0  0  0
  -12.2560  -16.4710   40.5280 C   0  0  0  0  0  0  0  0  0  0  0  0
  -12.6400  -16.3010   41.8430 C   0  0  0  0  0  0  0  0  0  0  0  0
  -11.7160  -16.5520   42.8440 C   0  0  0  0  0  0  0  0  0  0  0  0
  -13.3400  -15.8340   44.4040 C   0  0  0  0  0  0  0  0  0  0  0  0
  -10.7980  -18.9830   44.9920 C   0  0  0  0  0  0  0  0  0  0  0  0
  -11.5880  -21.0830   45.9620 C   0  0  0  0  0  0  0  0  0  0  0  0
   -9.9090  -21.1240   44.1530 C   0  0  0  0  0  0  0  0  0  0  0  0
   -9.0420  -22.2870   44.5190 C   0  0  0  0  0  0  0  0  0  0  0  0
   -8.4070  -22.3720   45.7490 C   0  0  0  0  0  0  0  0  0  0  0  0
   -7.6070  -23.4560   46.0540 C   0  0  0  0  0  0  0  0  0  0  0  0
   -7.4270  -24.4550   45.1220 C   0  0  0  0  0  0  0  0  0  0  0  0
   -8.0570  -24.3800   43.8960 C   0  0  0  0  0  0  0  0  0  0  0  0
   -8.8740  -23.3060   43.6020 C   0  0  0  0  0  0  0  0  0  0  0  0
   -3.3790  -17.9660   45.7980 C   0  0  0  0  0  0  0  0  0  0  0  0
   -5.4220  -14.4430   42.6440 C   0  0  0  0  0  0  0  0  0  0  0  0
   -4.1730  -14.9990   42.0090 C   0  0  0  0  0  0  0  0  0  0  0  0
   -5.1450  -13.1890   43.4350 C   0  0  0  0  0  0  0  0  0  0  0  0
   -8.4113  -18.6322   46.2561 H   0  0  0  0  0  0  0  0  0  0  0  0
   -4.6455  -15.6757   44.9896 H   0  0  0  0  0  0  0  0  0  0  0  0
   -6.1925  -17.1442   47.5013 H   0  0  0  0  0  0  0  0  0  0  0  0
   -7.8093  -15.3312   42.0933 H   0  0  0  0  0  0  0  0  0  0  0  0
   -9.0341  -17.4427   40.9528 H   0  0  0  0  0  0  0  0  0  0  0  0
  -10.6833  -16.9926   39.1476 H   0  0  0  0  0  0  0  0  0  0  0  0
  -13.6601  -15.9726   42.0912 H   0  0  0  0  0  0  0  0  0  0  0  0
  -13.5324  -15.7514   45.4839 H   0  0  0  0  0  0  0  0  0  0  0  0
  -13.3895  -14.8354   43.9453 H   0  0  0  0  0  0  0  0  0  0  0  0
  -14.0978  -16.4861   43.9453 H   0  0  0  0  0  0  0  0  0  0  0  0
  -11.2834  -18.5378   45.8730 H   0  0  0  0  0  0  0  0  0  0  0  0
  -11.4523  -19.0290   44.1089 H   0  0  0  0  0  0  0  0  0  0  0  0
  -11.4873  -21.0209   47.0556 H   0  0  0  0  0  0  0  0  0  0  0  0
  -12.5318  -20.6098   45.6532 H   0  0  0  0  0  0  0  0  0  0  0  0
  -11.5890  -22.1388   45.6532 H   0  0  0  0  0  0  0  0  0  0  0  0
   -9.3140  -20.4277   43.5438 H   0  0  0  0  0  0  0  0  0  0  0  0
  -10.7739  -21.5315   43.6091 H   0  0  0  0  0  0  0  0  0  0  0  0
   -8.5416  -21.5688   46.4885 H   0  0  0  0  0  0  0  0  0  0  0  0
   -7.1160  -23.5215   47.0361 H   0  0  0  0  0  0  0  0  0  0  0  0
   -6.7802  -25.3136   45.3554 H   0  0  0  0  0  0  0  0  0  0  0  0
   -7.9081  -25.1767   43.1523 H   0  0  0  0  0  0  0  0  0  0  0  0
   -9.3932  -23.2620   42.6332 H   0  0  0  0  0  0  0  0  0  0  0  0
   -2.7231  -17.5595   46.5820 H   0  0  0  0  0  0  0  0  0  0  0  0
   -2.8104  -18.6702   45.1729 H   0  0  0  0  0  0  0  0  0  0  0  0
   -3.7566  -17.1434   45.1729 H   0  0  0  0  0  0  0  0  0  0  0  0
   -6.0870  -14.1738   41.8102 H   0  0  0  0  0  0  0  0  0  0  0  0
   -3.4701  -15.3119   42.7951 H   0  0  0  0  0  0  0  0  0  0  0  0
   -4.4340  -15.8659   41.3842 H   0  0  0  0  0  0  0  0  0  0  0  0
   -3.7035  -14.2249   41.3842 H   0  0  0  0  0  0  0  0  0  0  0  0
   -5.1950  -13.4152   44.5103 H   0  0  0  0  0  0  0  0  0  0  0  0
   -4.1420  -12.8123   43.1858 H   0  0  0  0  0  0  0  0  0  0  0  0
   -5.8960  -12.4249   43.1858 H   0  0  0  0  0  0  0  0  0  0  0  0
  2 20  1  0
 19 20  1  0
 19 18  2  0
 20 21  2  0
 18 17  1  0
 21 22  1  0
 35 34  1  0
 17 22  2  0
 17 14  1  0
 34 36  1  0
 34  1  1  0
 22  4  1  0
 16  1  2  0
 16 15  1  0
  1  6  1  0
 14 15  1  0
 14 13  2  0
 32 31  2  0
 32 27  1  0
 15 12  2  0
 31 30  1  0
 26 27  1  0
 26  7  1  0
  4 23  1  0
 27 28  2  0
 13 24  1  0
 13  3  1  0
  6  9  2  0
 12  9  1  0
 12  3  1  0
 24  7  1  0
 30 29  2  0
  7 25  1  0
  9 10  1  0
 11  5  2  0
 28 29  1  0
 33  5  1  0
  5 10  1  0
  5  8  2  0
  3 37  1  0
  6 38  1  0
 10 39  1  0
 16 40  1  0
 18 41  1  0
 19 42  1  0
 21 43  1  0
 23 44  1  0
 23 45  1  0
 23 46  1  0
 24 47  1  0
 24 48  1  0
 25 49  1  0
 25 50  1  0
 25 51  1  0
 26 52  1  0
 26 53  1  0
 28 54  1  0
 29 55  1  0
 30 56  1  0
 31 57  1  0
 32 58  1  0
 33 59  1  0
 33 60  1  0
 33 61  1  0
 34 62  1  0
 35 63  1  0
 35 64  1  0
 35 65  1  0
 36 66  1  0
 36 67  1  0
 36 68  1  0
A    1
C
A    2
F
A    3
N
A    4
O
A    5
S
A    6
C1
A    7
N1
A    8
O1
A    9
C2
A   10
N2
A   11
O2
A   12
C3
A   13
C4
A   14
C5
A   15
C6
A   16
C7
A   17
C8
A   18
C9
A   19
C10
A   20
C11
A   21
C12
A   22
C13
A   23
C14
A   24
C15
A   25
C16
A   26
C17
A   27
C18
A   28
C19
A   29
C20
A   30
C21
A   31
C22
A   32
C23
A   33
C24
A   34
C25
A   35
C26
A   36
C27
M  END
