4MES_26G_A_203
     RDKit          3D

 35 36  0  0  0  0  0  0  0  0999 V2000
   15.8550   22.9360   42.1350 C   0  0  0  0  0  0  0  0  0  0  0  0
   16.3520   19.0510   44.9340 N   0  0  0  0  0  0  0  0  0  0  0  0
   23.0550   16.9990   48.2710 C   0  0  0  0  0  0  0  0  0  0  0  0
   21.5440   16.9610   48.1490 C   0  0  0  0  0  0  0  0  0  0  0  0
   19.5510   19.0890   44.9750 C   0  0  0  0  0  0  0  0  0  0  0  0
   20.8680   17.7250   47.0100 C   0  0  0  0  0  0  0  0  0  0  0  0
   19.9010   18.6990   47.3220 C   0  0  0  0  0  0  0  0  0  0  0  0
   19.2420   19.3840   46.3180 C   0  0  0  0  0  0  0  0  0  0  0  0
   18.2050   20.4460   46.7270 C   0  0  0  0  0  0  0  0  0  0  0  0
   16.6700   20.4020   44.6840 C   0  0  0  0  0  0  0  0  0  0  0  0
   16.1640   21.0240   43.6050 N   0  0  0  0  0  0  0  0  0  0  0  0
   16.4720   22.2820   43.3490 C   0  0  0  0  0  0  0  0  0  0  0  0
   17.2810   22.9920   44.0960 N   0  0  0  0  0  0  0  0  0  0  0  0
   17.8530   22.4620   45.1950 C   0  0  0  0  0  0  0  0  0  0  0  0
   17.5740   21.1020   45.5140 C   0  0  0  0  0  0  0  0  0  0  0  0
   21.1500   17.4330   45.6780 C   0  0  0  0  0  0  0  0  0  0  0  0
   20.5010   18.1200   44.6520 C   0  0  0  0  0  0  0  0  0  0  0  0
   23.5330   18.3240   48.3040 O   0  0  0  0  0  0  0  0  0  0  0  0
   15.1333   23.7009   42.4576 H   0  0  0  0  0  0  0  0  0  0  0  0
   16.6445   23.4080   41.5317 H   0  0  0  0  0  0  0  0  0  0  0  0
   15.3379   22.1753   41.5317 H   0  0  0  0  0  0  0  0  0  0  0  0
   16.2721   18.7116   45.9032 H   0  0  0  0  0  0  0  0  0  0  0  0
   16.1996   18.4037   44.1474 H   0  0  0  0  0  0  0  0  0  0  0  0
   23.3525   16.4876   49.1983 H   0  0  0  0  0  0  0  0  0  0  0  0
   23.4869   16.4960   47.3932 H   0  0  0  0  0  0  0  0  0  0  0  0
   21.1355   17.3589   49.0897 H   0  0  0  0  0  0  0  0  0  0  0  0
   21.3264   15.9069   47.9222 H   0  0  0  0  0  0  0  0  0  0  0  0
   19.0350   19.6313   44.1690 H   0  0  0  0  0  0  0  0  0  0  0  0
   19.6674   18.9173   48.3745 H   0  0  0  0  0  0  0  0  0  0  0  0
   18.7032   21.2177   47.3322 H   0  0  0  0  0  0  0  0  0  0  0  0
   17.4106   19.9491   47.3033 H   0  0  0  0  0  0  0  0  0  0  0  0
   18.5189   23.0647   45.8301 H   0  0  0  0  0  0  0  0  0  0  0  0
   21.8890   16.6559   45.4334 H   0  0  0  0  0  0  0  0  0  0  0  0
   20.7357   17.9001   43.6001 H   0  0  0  0  0  0  0  0  0  0  0  0
   23.6375   18.6138   49.2449 H   0  0  0  0  0  0  0  0  0  0  0  0
  1 12  1  0
 12 11  1  0
 12 13  2  0
 11 10  2  0
 13 14  1  0
 17  5  2  0
 17 16  1  0
 10  2  1  0
 10 15  1  0
  5  8  1  0
 14 15  2  0
 15  9  1  0
 16  6  2  0
  8  9  1  0
  8  7  2  0
  6  7  1  0
  6  4  1  0
  4  3  1  0
  3 18  1  0
  1 19  1  0
  1 20  1  0
  1 21  1  0
  2 22  1  0
  2 23  1  0
  3 24  1  0
  3 25  1  0
  4 26  1  0
  4 27  1  0
  5 28  1  0
  7 29  1  0
  9 30  1  0
  9 31  1  0
 14 32  1  0
 16 33  1  0
 17 34  1  0
 18 35  1  0
A    1
CM2
A    2
N4A
A    3
C02
A    4
C6
A    5
C2
A    6
C5
A    7
C4
A    8
C01
A    9
C7A
A   10
C4A
A   11
N3A
A   12
C2A
A   13
N1A
A   14
C6A
A   15
C5A
A   16
C28
A   17
C30
A   18
O31
M  END
