4MF0_29Z_A_701
     RDKit          3D

 55 59  0  0  0  0  0  0  0  0999 V2000
    0.7310   59.7420    6.9050 C   0  0  0  0  0  0  0  0  0  0  0  0
    0.3830   61.1520    7.1340 N   0  0  0  0  0  0  0  0  0  0  0  0
    0.6540   61.5150    8.5340 C   0  0  0  0  0  0  0  0  0  0  0  0
    1.1270   62.0260    6.2070 C   0  0  0  0  0  0  0  0  0  0  0  0
    0.2410   62.9330    5.3730 C   0  0  0  0  0  0  0  0  0  0  0  0
   -0.9390   63.4820    5.8840 C   0  0  0  0  0  0  0  0  0  0  0  0
   -1.7080   64.3420    5.1000 C   0  0  0  0  0  0  0  0  0  0  0  0
   -1.3200   64.6550    3.7960 C   0  0  0  0  0  0  0  0  0  0  0  0
   -0.1240   64.1300    3.3010 C   0  0  0  0  0  0  0  0  0  0  0  0
    0.6470   63.2700    4.0810 C   0  0  0  0  0  0  0  0  0  0  0  0
   -2.1920   65.6030    2.9870 C   0  0  0  0  0  0  0  0  0  0  0  0
   -1.7370   66.0440    1.5900 C   0  0  0  0  0  0  0  0  0  0  0  0
   -2.9140   65.0720    1.7410 C   0  0  0  0  0  0  0  0  0  0  0  0
   -4.3150   65.5320    1.3840 C   0  0  0  0  0  0  0  0  0  0  0  0
   -4.5960   66.7150    1.3680 O   0  0  0  0  0  0  0  0  0  0  0  0
   -5.2150   64.5810    1.0350 N   0  0  0  0  0  0  0  0  0  0  0  0
   -6.5500   64.7560    0.6790 C   0  0  0  0  0  0  0  0  0  0  0  0
   -7.3090   63.7740    0.3090 N   0  0  0  0  0  0  0  0  0  0  0  0
   -8.5970   64.0360    0.0250 C   0  0  0  0  0  0  0  0  0  0  0  0
   -9.5950   63.1400   -0.4250 C   0  0  0  0  0  0  0  0  0  0  0  0
  -10.8630   63.5970   -0.6590 C   0  0  0  0  0  0  0  0  0  0  0  0
  -11.2070   64.9600   -0.4860 C   0  0  0  0  0  0  0  0  0  0  0  0
  -10.2220   65.8650   -0.0670 C   0  0  0  0  0  0  0  0  0  0  0  0
   -8.9280   65.3990    0.1960 C   0  0  0  0  0  0  0  0  0  0  0  0
   -7.4810   66.2580    0.7290 S   0  0  0  0  0  0  0  0  0  0  0  0
  -12.6030   65.4240   -0.7570 C   0  0  0  0  0  0  0  0  0  0  0  0
  -13.2970   65.0010   -1.9130 C   0  0  0  0  0  0  0  0  0  0  0  0
  -14.5970   65.4510   -2.1540 C   0  0  0  0  0  0  0  0  0  0  0  0
  -15.1920   66.2980   -1.2220 C   0  0  0  0  0  0  0  0  0  0  0  0
  -14.5220   66.6860   -0.1380 N   0  0  0  0  0  0  0  0  0  0  0  0
  -13.2780   66.2870    0.1220 C   0  0  0  0  0  0  0  0  0  0  0  0
    0.8565   59.2335    7.8723 H   0  0  0  0  0  0  0  0  0  0  0  0
   -0.0735   59.2536    6.3357 H   0  0  0  0  0  0  0  0  0  0  0  0
    1.6704   59.6840    6.3357 H   0  0  0  0  0  0  0  0  0  0  0  0
    0.1312   60.8148    9.2021 H   0  0  0  0  0  0  0  0  0  0  0  0
    1.7364   61.4635    8.7232 H   0  0  0  0  0  0  0  0  0  0  0  0
    0.2970   62.5381    8.7232 H   0  0  0  0  0  0  0  0  0  0  0  0
    1.7113   61.3904    5.5254 H   0  0  0  0  0  0  0  0  0  0  0  0
    1.7620   62.6789    6.8238 H   0  0  0  0  0  0  0  0  0  0  0  0
   -1.2615   63.2352    6.9063 H   0  0  0  0  0  0  0  0  0  0  0  0
   -2.6294   64.7780    5.5134 H   0  0  0  0  0  0  0  0  0  0  0  0
    0.2118   64.3973    2.2882 H   0  0  0  0  0  0  0  0  0  0  0  0
    1.5813   62.8543    3.6758 H   0  0  0  0  0  0  0  0  0  0  0  0
   -2.4995   66.1278    3.9035 H   0  0  0  0  0  0  0  0  0  0  0  0
   -0.7779   65.6877    1.1861 H   0  0  0  0  0  0  0  0  0  0  0  0
   -1.5876   67.0126    1.0906 H   0  0  0  0  0  0  0  0  0  0  0  0
   -3.1601   64.0674    1.3666 H   0  0  0  0  0  0  0  0  0  0  0  0
   -4.8697   63.6106    1.0327 H   0  0  0  0  0  0  0  0  0  0  0  0
   -9.3522   62.0793   -0.5862 H   0  0  0  0  0  0  0  0  0  0  0  0
  -11.6355   62.8874   -0.9901 H   0  0  0  0  0  0  0  0  0  0  0  0
  -10.4633   66.9314    0.0541 H   0  0  0  0  0  0  0  0  0  0  0  0
  -12.8124   64.3160   -2.6244 H   0  0  0  0  0  0  0  0  0  0  0  0
  -15.1392   65.1432   -3.0602 H   0  0  0  0  0  0  0  0  0  0  0  0
  -16.2222   66.6489   -1.3822 H   0  0  0  0  0  0  0  0  0  0  0  0
  -12.7739   66.6371    1.0349 H   0  0  0  0  0  0  0  0  0  0  0  0
 28 27  2  0
 28 29  1  0
 27 26  1  0
 29 30  2  0
 26 22  1  0
 26 31  2  0
 21 22  2  0
 21 20  1  0
 22 23  1  0
 20 19  2  0
 30 31  1  0
 23 24  2  0
 19 24  1  0
 19 18  1  0
 24 25  1  0
 18 17  2  0
 17 25  1  0
 17 16  1  0
 16 14  1  0
 15 14  2  0
 14 13  1  0
 12 13  1  0
 12 11  1  0
 13 11  1  0
 11  8  1  0
  9  8  2  0
  9 10  1  0
  8  7  1  0
 10  5  2  0
  7  6  2  0
  5  6  1  0
  5  4  1  0
  4  2  1  0
  1  2  1  0
  2  3  1  0
  1 32  1  0
  1 33  1  0
  1 34  1  0
  3 35  1  0
  3 36  1  0
  3 37  1  0
  4 38  1  0
  4 39  1  0
  6 40  1  0
  7 41  1  0
  9 42  1  0
 10 43  1  0
 11 44  1  0
 12 45  1  0
 12 46  1  0
 13 47  1  0
 16 48  1  0
 20 49  1  0
 21 50  1  0
 23 51  1  0
 27 52  1  0
 28 53  1  0
 29 54  1  0
 31 55  1  0
A    1
C1
A    2
N2
A    3
C3
A    4
C4
A    5
C5
A    6
C6
A    7
C7
A    8
C8
A    9
C9
A   10
C10
A   11
C11
A   12
C12
A   13
C13
A   14
C14
A   15
O15
A   16
N16
A   17
C17
A   18
N18
A   19
C19
A   20
C20
A   21
C21
A   22
C22
A   23
C23
A   24
C24
A   25
S25
A   26
C26
A   27
C27
A   28
C28
A   29
C29
A   30
N30
A   31
C31
M  END
