4MF3_SXI_A_301
     RDKit          3D

 46 49  0  0  0  0  0  0  0  0999 V2000
  116.6860  145.3890  132.8480 O   0  0  0  0  0  0  0  0  0  0  0  0
  116.7770  145.4790  130.4730 C   0  0  0  0  0  0  0  0  0  0  0  0
  116.1610  143.5190  131.8760 O   0  0  0  0  0  0  0  0  0  0  0  0
  116.7850  145.4680  128.1570 C   0  0  0  0  0  0  0  0  0  0  0  0
  117.9260  150.4320  126.5400 C   0  0  0  0  0  0  0  0  0  0  0  0
  121.1750  150.8440  127.2660 N   0  0  0  0  0  0  0  0  0  0  0  0
  115.5930  146.2960  127.9640 C   0  0  0  0  0  0  0  0  0  0  0  0
  115.6310  147.2750  129.0420 C   0  0  0  0  0  0  0  0  0  0  0  0
  116.8030  148.1480  128.8310 C   0  0  0  0  0  0  0  0  0  0  0  0
  116.7060  148.8540  127.5350 C   0  0  0  0  0  0  0  0  0  0  0  0
  119.6480  153.7330  125.4360 Cl  0  0  0  0  0  0  0  0  0  0  0  0
  118.6590  152.3920  125.5460 C   0  0  0  0  0  0  0  0  0  0  0  0
  118.8550  151.4440  126.5170 C   0  0  0  0  0  0  0  0  0  0  0  0
  120.0020  151.4830  127.4090 C   0  0  0  0  0  0  0  0  0  0  0  0
  120.1320  152.1860  128.5900 N   0  0  0  0  0  0  0  0  0  0  0  0
  121.3480  151.9410  129.0940 N   0  0  0  0  0  0  0  0  0  0  0  0
  121.9320  151.1570  128.3020 N   0  0  0  0  0  0  0  0  0  0  0  0
  117.6750  152.3690  124.6350 C   0  0  0  0  0  0  0  0  0  0  0  0
  116.7970  151.3440  124.6780 C   0  0  0  0  0  0  0  0  0  0  0  0
  116.9250  150.3770  125.6410 C   0  0  0  0  0  0  0  0  0  0  0  0
  117.9210  149.4810  127.4160 O   0  0  0  0  0  0  0  0  0  0  0  0
  116.7840  147.8470  126.4610 C   0  0  0  0  0  0  0  0  0  0  0  0
  115.6130  146.9840  126.6400 C   0  0  0  0  0  0  0  0  0  0  0  0
  116.6070  144.7000  129.3420 N   0  0  0  0  0  0  0  0  0  0  0  0
  116.5220  144.7530  131.7340 C   0  0  0  0  0  0  0  0  0  0  0  0
  115.8270  146.6170  130.3940 C   0  0  0  0  0  0  0  0  0  0  0  0
  116.5644  144.9173  133.7098 H   0  0  0  0  0  0  0  0  0  0  0  0
  117.8282  145.8024  130.4920 H   0  0  0  0  0  0  0  0  0  0  0  0
  116.9159  144.7973  127.2950 H   0  0  0  0  0  0  0  0  0  0  0  0
  117.6782  146.1037  128.2473 H   0  0  0  0  0  0  0  0  0  0  0  0
  121.4369  150.2217  126.4881 H   0  0  0  0  0  0  0  0  0  0  0  0
  114.6771  145.6870  127.9805 H   0  0  0  0  0  0  0  0  0  0  0  0
  114.6770  147.8225  129.0328 H   0  0  0  0  0  0  0  0  0  0  0  0
  117.7159  147.5344  128.8399 H   0  0  0  0  0  0  0  0  0  0  0  0
  116.8357  148.8951  129.6377 H   0  0  0  0  0  0  0  0  0  0  0  0
  115.8063  149.4845  127.4803 H   0  0  0  0  0  0  0  0  0  0  0  0
  117.5859  153.1605  123.8764 H   0  0  0  0  0  0  0  0  0  0  0  0
  115.9813  151.2852  123.9423 H   0  0  0  0  0  0  0  0  0  0  0  0
  116.2030  149.5480  125.6798 H   0  0  0  0  0  0  0  0  0  0  0  0
  117.7101  147.2604  126.5519 H   0  0  0  0  0  0  0  0  0  0  0  0
  116.7946  148.3153  125.4657 H   0  0  0  0  0  0  0  0  0  0  0  0
  114.7063  147.6005  126.5516 H   0  0  0  0  0  0  0  0  0  0  0  0
  115.6568  146.2048  125.8648 H   0  0  0  0  0  0  0  0  0  0  0  0
  115.6560  144.3043  129.3463 H   0  0  0  0  0  0  0  0  0  0  0  0
  116.1832  147.3920  131.0887 H   0  0  0  0  0  0  0  0  0  0  0  0
  114.8471  146.1803  130.6369 H   0  0  0  0  0  0  0  0  0  0  0  0
 18 19  1  0
 18 12  2  0
 19 20  2  0
 11 12  1  0
 12 13  1  0
 20  5  1  0
 22 23  1  0
 22 10  1  0
 13  5  2  0
 13 14  1  0
  5 21  1  0
 23  7  1  0
  6 14  1  0
  6 17  1  0
 14 15  2  0
 21 10  1  0
 10  9  1  0
  7  4  1  0
  7  8  1  0
  4 24  1  0
 17 16  2  0
 15 16  1  0
  9  8  1  0
  8 26  1  0
 24  2  1  0
 26  2  1  0
  2 25  1  0
 25  3  2  0
 25  1  1  0
  1 27  1  0
  2 28  1  0
  4 29  1  0
  4 30  1  0
  6 31  1  0
  7 32  1  0
  8 33  1  0
  9 34  1  0
  9 35  1  0
 10 36  1  0
 18 37  1  0
 19 38  1  0
 20 39  1  0
 22 40  1  0
 22 41  1  0
 23 42  1  0
 23 43  1  0
 24 44  1  0
 26 45  1  0
 26 46  1  0
A    1
O1
A    2
C7
A    3
O2
A    4
C6
A    5
C1
A    6
N1
A    7
C5
A    8
C4
A    9
C3
A   10
C2
A   11
CL
A   12
C15
A   13
C
A   14
C16
A   15
N4
A   16
N3
A   17
N2
A   18
C14
A   19
C13
A   20
C12
A   21
O
A   22
C11
A   23
C10
A   24
N
A   25
C9
A   26
C8
M  END
