4MFB_29T_A_601
     RDKit          3D

 45 48  0  0  0  0  0  0  0  0999 V2000
  496.1310  -24.7930   26.4450 C   0  0  0  0  0  0  0  0  0  0  0  0
  495.6810  -22.9470   27.6710 C   0  0  0  0  0  0  0  0  0  0  0  0
  496.3180  -24.1670   27.6960 C   0  0  0  0  0  0  0  0  0  0  0  0
  497.0350  -24.7960   28.7870 C   0  0  0  0  0  0  0  0  0  0  0  0
  494.2320  -25.1130   19.8970 C   0  0  0  0  0  0  0  0  0  0  0  0
  495.4090  -24.5640   19.3540 C   0  0  0  0  0  0  0  0  0  0  0  0
  496.4720  -24.1530   20.1880 C   0  0  0  0  0  0  0  0  0  0  0  0
  496.3640  -24.2850   21.5850 C   0  0  0  0  0  0  0  0  0  0  0  0
  495.1810  -24.8320   22.1490 C   0  0  0  0  0  0  0  0  0  0  0  0
  494.1100  -25.2500   21.3060 C   0  0  0  0  0  0  0  0  0  0  0  0
  495.0700  -24.9660   23.5160 O   0  0  0  0  0  0  0  0  0  0  0  0
  494.8200  -23.8630   24.3120 C   0  0  0  0  0  0  0  0  0  0  0  0
  495.3630  -23.8990   25.6420 C   0  0  0  0  0  0  0  0  0  0  0  0
  495.1040  -22.7700   26.4270 N   0  0  0  0  0  0  0  0  0  0  0  0
  494.3870  -21.6510   26.0450 C   0  0  0  0  0  0  0  0  0  0  0  0
  493.8660  -21.5940   24.7950 C   0  0  0  0  0  0  0  0  0  0  0  0
  494.0810  -22.7120   23.9010 C   0  0  0  0  0  0  0  0  0  0  0  0
  497.5950  -25.3120   29.6550 N   0  0  0  0  0  0  0  0  0  0  0  0
  492.9930  -25.7790   21.9150 O   0  0  0  0  0  0  0  0  0  0  0  0
  491.8330  -26.1500   21.1730 C   0  0  0  0  0  0  0  0  0  0  0  0
  491.0460  -27.1480   22.0520 C   0  0  0  0  0  0  0  0  0  0  0  0
  491.8300  -28.2930   22.5930 N   0  0  0  0  0  0  0  0  0  0  0  0
  492.0490  -29.4830   21.9280 C   0  0  0  0  0  0  0  0  0  0  0  0
  492.7870  -30.4140   22.5860 N   0  0  0  0  0  0  0  0  0  0  0  0
  493.3430  -30.3210   23.8180 C   0  0  0  0  0  0  0  0  0  0  0  0
  493.1060  -29.0530   24.5080 C   0  0  0  0  0  0  0  0  0  0  0  0
  492.3700  -28.0890   23.8970 C   0  0  0  0  0  0  0  0  0  0  0  0
  491.6180  -29.7350   20.8070 O   0  0  0  0  0  0  0  0  0  0  0  0
  493.9920  -31.2470   24.2960 O   0  0  0  0  0  0  0  0  0  0  0  0
  496.5064  -25.7828   26.1460 H   0  0  0  0  0  0  0  0  0  0  0  0
  495.6380  -22.2302   28.5043 H   0  0  0  0  0  0  0  0  0  0  0  0
  493.4133  -25.4334   19.2359 H   0  0  0  0  0  0  0  0  0  0  0  0
  495.5022  -24.4534   18.2635 H   0  0  0  0  0  0  0  0  0  0  0  0
  497.3854  -23.7292   19.7452 H   0  0  0  0  0  0  0  0  0  0  0  0
  497.1912  -23.9663   22.2363 H   0  0  0  0  0  0  0  0  0  0  0  0
  494.2412  -20.8170   26.7473 H   0  0  0  0  0  0  0  0  0  0  0  0
  493.2912  -20.7156   24.4664 H   0  0  0  0  0  0  0  0  0  0  0  0
  493.6662  -22.6743   22.8829 H   0  0  0  0  0  0  0  0  0  0  0  0
  491.2177  -25.2629   20.9623 H   0  0  0  0  0  0  0  0  0  0  0  0
  492.1073  -26.6022   20.2085 H   0  0  0  0  0  0  0  0  0  0  0  0
  490.6294  -26.5914   22.9044 H   0  0  0  0  0  0  0  0  0  0  0  0
  490.2853  -27.5916   21.3928 H   0  0  0  0  0  0  0  0  0  0  0  0
  492.9435  -31.3010   22.0864 H   0  0  0  0  0  0  0  0  0  0  0  0
  493.5202  -28.8819   25.5126 H   0  0  0  0  0  0  0  0  0  0  0  0
  492.1876  -27.1363   24.4158 H   0  0  0  0  0  0  0  0  0  0  0  0
  6  5  2  0
  6  7  1  0
  5 10  1  0
  7  8  2  0
 28 23  2  0
 20 19  1  0
 20 21  1  0
 10 19  1  0
 10  9  2  0
  8  9  1  0
 23 24  1  0
 23 22  1  0
 21 22  1  0
  9 11  1  0
 24 25  1  0
 22 27  1  0
 11 12  1  0
 25 29  2  0
 25 26  1  0
 27 26  2  0
 17 12  2  0
 17 16  1  0
 12 13  1  0
 16 15  2  0
 13 14  1  0
 13  1  2  0
 15 14  1  0
 14  2  1  0
  1  3  1  0
  2  3  2  0
  3  4  1  0
  4 18  3  0
  1 30  1  0
  2 31  1  0
  5 32  1  0
  6 33  1  0
  7 34  1  0
  8 35  1  0
 15 36  1  0
 16 37  1  0
 17 38  1  0
 20 39  1  0
 20 40  1  0
 21 41  1  0
 21 42  1  0
 24 43  1  0
 26 44  1  0
 27 45  1  0
A    1
C10
A    2
C11
A    3
C14
A    4
C16
A    5
C00
A    6
C01
A    7
C02
A    8
C03
A    9
C04
A   10
C05
A   11
O0A
A   12
C0C
A   13
C0V
A   14
N0W
A   15
C0X
A   16
C0Y
A   17
C0Z
A   18
N19
A   19
O0B
A   20
C0D
A   21
C0E
A   22
N0H
A   23
C0K
A   24
N0M
A   25
C0N
A   26
C0O
A   27
C0P
A   28
O0Q
A   29
O0S
M  END
