1APK_CMP_?_401
     RDKit          3D

 19 19  0  0  0  0  0  0  0  0999 V2000
   40.6460   42.4350   52.0610 P   0  0  0  0  0  0  0  0  0  0  0  0
   40.4550   41.4190   50.9700 O   0  0  0  0  0  0  0  0  0  0  0  0
   40.9080   41.9240   53.4270 O   0  0  0  0  0  0  0  0  0  0  0  0
   37.9970   45.8480   48.3970 N   0  0  0  0  0  0  0  0  0  0  0  0
   37.8590   44.6480   47.6930 C   0  0  0  0  0  0  0  0  0  0  0  0
   37.1250   44.8020   46.6030 N   0  0  0  0  0  0  0  0  0  0  0  0
   36.7740   46.1230   46.5940 C   0  0  0  0  0  0  0  0  0  0  0  0
   35.9510   46.8750   45.7470 C   0  0  0  0  0  0  0  0  0  0  0  0
   35.2730   46.4160   44.6810 N   0  0  0  0  0  0  0  0  0  0  0  0
   35.7810   48.1970   46.1070 N   0  0  0  0  0  0  0  0  0  0  0  0
   36.3790   48.7290   47.2480 C   0  0  0  0  0  0  0  0  0  0  0  0
   37.1420   48.0650   48.0510 N   0  0  0  0  0  0  0  0  0  0  0  0
   37.2790   46.7870   47.6940 C   0  0  0  0  0  0  0  0  0  0  0  0
   40.5738   42.5759   54.0929 H   0  0  0  0  0  0  0  0  0  0  0  0
   38.5288   45.9984   49.2662 H   0  0  0  0  0  0  0  0  0  0  0  0
   38.3058   43.6931   48.0068 H   0  0  0  0  0  0  0  0  0  0  0  0
   34.4274   45.8436   44.8159 H   0  0  0  0  0  0  0  0  0  0  0  0
   35.5990   46.6367   43.7292 H   0  0  0  0  0  0  0  0  0  0  0  0
   36.1880   49.7870   47.4805 H   0  0  0  0  0  0  0  0  0  0  0  0
  1  2  2  0
  1  3  1  0
  4  5  1  0
  4 13  1  0
  5  6  2  0
  6  7  1  0
  7  8  1  0
  7 13  2  0
  8  9  1  0
  8 10  2  0
 10 11  1  0
 11 12  2  0
 12 13  1  0
  3 14  1  0
  4 15  1  0
  5 16  1  0
  9 17  1  0
  9 18  1  0
 11 19  1  0
A    1
P
A    2
O1P
A    3
O2P
A    4
N9
A    5
C8
A    6
N7
A    7
C5
A    8
C6
A    9
N6
A   10
N1
A   11
C2
A   12
N3
A   13
C4
M  END
