4MGY_H07_E_1001
     RDKit          3D

 48 52  0  0  0  0  0  0  0  0999 V2000
    5.9970  -10.1240  -58.9310 Cl  0  0  0  0  0  0  0  0  0  0  0  0
    4.7940  -11.4260  -59.2010 C   0  0  0  0  0  0  0  0  0  0  0  0
    4.4290  -12.2720  -58.1530 C   0  0  0  0  0  0  0  0  0  0  0  0
    3.4970  -13.2850  -58.3730 C   0  0  0  0  0  0  0  0  0  0  0  0
    4.2320  -11.5890  -60.4650 C   0  0  0  0  0  0  0  0  0  0  0  0
    3.3030  -12.6030  -60.6820 C   0  0  0  0  0  0  0  0  0  0  0  0
    2.9300  -13.4470  -59.6380 C   0  0  0  0  0  0  0  0  0  0  0  0
    1.8030  -14.6850  -59.9120 S   0  0  0  0  0  0  0  0  0  0  0  0
    2.5990  -16.1770  -59.4630 C   0  0  0  0  0  0  0  0  0  0  0  0
    2.2550  -16.8270  -58.3320 N   0  0  0  0  0  0  0  0  0  0  0  0
    3.0730  -17.8960  -58.3200 C   0  0  0  0  0  0  0  0  0  0  0  0
    3.2780  -19.0490  -57.4120 C   0  0  0  0  0  0  0  0  0  0  0  0
    2.5360  -19.1840  -56.2900 N   0  0  0  0  0  0  0  0  0  0  0  0
    4.2260  -19.9560  -57.7400 N   0  0  0  0  0  0  0  0  0  0  0  0
    4.9740  -19.8340  -58.8550 C   0  0  0  0  0  0  0  0  0  0  0  0
    4.8450  -18.8140  -59.7260 N   0  0  0  0  0  0  0  0  0  0  0  0
    3.9330  -17.8270  -59.5280 C   0  0  0  0  0  0  0  0  0  0  0  0
    3.5850  -16.7170  -60.1910 N   0  0  0  0  0  0  0  0  0  0  0  0
    4.1490  -16.2110  -61.4700 C   0  0  0  0  0  0  0  0  0  0  0  0
    5.6400  -15.8850  -61.3540 C   0  0  0  0  0  0  0  0  0  0  0  0
    5.9060  -14.5910  -61.8990 O   0  0  0  0  0  0  0  0  0  0  0  0
    6.8990  -13.8680  -61.1710 C   0  0  0  0  0  0  0  0  0  0  0  0
    3.9980  -17.2250  -62.4740 O   0  0  0  0  0  0  0  0  0  0  0  0
    5.2130  -17.2880  -63.2120 C   0  0  0  0  0  0  0  0  0  0  0  0
    6.2750  -16.9880  -62.1810 C   0  0  0  0  0  0  0  0  0  0  0  0
    7.4710  -16.6780  -62.8830 O   0  0  0  0  0  0  0  0  0  0  0  0
    5.5240  -18.6100  -63.8930 C   0  0  0  0  0  0  0  0  0  0  0  0
    6.7610  -18.4090  -64.5890 O   0  0  0  0  0  0  0  0  0  0  0  0
    8.0680  -17.8390  -63.8280 P   0  0  0  0  0  0  0  0  0  0  0  0
    8.5920  -18.9520  -62.9520 O   0  0  0  0  0  0  0  0  0  0  0  0
    8.9990  -17.2030  -64.8320 O   0  0  0  0  0  0  0  0  0  0  0  0
    4.8753  -12.1399  -57.1563 H   0  0  0  0  0  0  0  0  0  0  0  0
    3.2087  -13.9560  -57.5504 H   0  0  0  0  0  0  0  0  0  0  0  0
    4.5210  -10.9193  -61.2884 H   0  0  0  0  0  0  0  0  0  0  0  0
    2.8621  -12.7383  -61.6807 H   0  0  0  0  0  0  0  0  0  0  0  0
    2.9817  -19.1029  -55.3650 H   0  0  0  0  0  0  0  0  0  0  0  0
    1.5250  -19.3679  -56.3602 H   0  0  0  0  0  0  0  0  0  0  0  0
    5.7283  -20.6068  -59.0644 H   0  0  0  0  0  0  0  0  0  0  0  0
    3.6082  -15.2895  -61.7313 H   0  0  0  0  0  0  0  0  0  0  0  0
    6.0205  -15.8498  -60.3225 H   0  0  0  0  0  0  0  0  0  0  0  0
    6.7265  -13.9936  -60.0919 H   0  0  0  0  0  0  0  0  0  0  0  0
    7.8964  -14.2528  -61.4301 H   0  0  0  0  0  0  0  0  0  0  0  0
    6.8391  -12.8006  -61.4301 H   0  0  0  0  0  0  0  0  0  0  0  0
    5.1524  -16.5851  -64.0559 H   0  0  0  0  0  0  0  0  0  0  0  0
    6.5778  -17.7951  -61.4976 H   0  0  0  0  0  0  0  0  0  0  0  0
    4.7245  -18.8736  -64.6010 H   0  0  0  0  0  0  0  0  0  0  0  0
    5.5972  -19.4325  -63.1663 H   0  0  0  0  0  0  0  0  0  0  0  0
    8.4759  -18.7054  -62.0003 H   0  0  0  0  0  0  0  0  0  0  0  0
 31 29  2  0
 28 27  1  0
 28 29  1  0
 27 24  1  0
 29 30  1  0
 29 26  1  0
 24 23  1  0
 24 25  1  0
 26 25  1  0
 23 19  1  0
 25 20  1  0
 21 20  1  0
 21 22  1  0
 19 20  1  0
 19 18  1  0
  6  5  1  0
  6  7  2  0
  5  2  2  0
 18 17  1  0
 18  9  1  0
  8  7  1  0
  8  9  1  0
 16 17  1  0
 16 15  2  0
  7  4  1  0
 17 11  2  0
  9 10  2  0
  2  1  1  0
  2  3  1  0
 15 14  1  0
  4  3  2  0
 10 11  1  0
 11 12  1  0
 14 12  2  0
 12 13  1  0
  3 32  1  0
  4 33  1  0
  5 34  1  0
  6 35  1  0
 13 36  1  0
 13 37  1  0
 15 38  1  0
 19 39  1  0
 20 40  1  0
 22 41  1  0
 22 42  1  0
 22 43  1  0
 24 44  1  0
 25 45  1  0
 27 46  1  0
 27 47  1  0
 30 48  1  0
A    1
CL1
A    2
C12
A    3
C11
A    4
C10
A    5
C13
A    6
C14
A    7
C9
A    8
S2
A    9
C8
A   10
N7
A   11
C5
A   12
C6
A   13
N6
A   14
N1
A   15
C2
A   16
N3
A   17
C4
A   18
N9
A   19
C1'
A   20
C2'
A   21
O2'
A   22
C6'
A   23
O4'
A   24
C4'
A   25
C3'
A   26
O3'
A   27
C5'
A   28
O5'
A   29
P
A   30
O1P
A   31
O2P
M  END
