4MGZ_HR6_E_1001
     RDKit          3D

 48 52  0  0  0  0  0  0  0  0999 V2000
    8.6190  -18.9950  -61.6140 S   0  0  0  0  0  0  0  0  0  0  0  0
    7.7080  -17.7760  -62.8250 P   0  0  0  0  0  0  0  0  0  0  0  0
    8.7450  -17.2150  -63.9130 O   0  0  0  0  0  0  0  0  0  0  0  0
    6.4710  -18.5590  -63.5110 O   0  0  0  0  0  0  0  0  0  0  0  0
    5.2230  -18.7330  -62.8270 C   0  0  0  0  0  0  0  0  0  0  0  0
    7.0240  -16.5600  -62.0130 O   0  0  0  0  0  0  0  0  0  0  0  0
    5.8500  -16.9100  -61.2960 C   0  0  0  0  0  0  0  0  0  0  0  0
    5.1230  -15.8300  -60.5270 C   0  0  0  0  0  0  0  0  0  0  0  0
    5.1570  -14.5920  -61.2370 O   0  0  0  0  0  0  0  0  0  0  0  0
    4.8150  -17.3680  -62.2950 C   0  0  0  0  0  0  0  0  0  0  0  0
    3.5860  -17.3220  -61.5710 O   0  0  0  0  0  0  0  0  0  0  0  0
    3.6980  -16.3650  -60.5040 C   0  0  0  0  0  0  0  0  0  0  0  0
    3.3800  -17.0600  -59.2230 N   0  0  0  0  0  0  0  0  0  0  0  0
    3.7800  -18.2800  -58.8320 C   0  0  0  0  0  0  0  0  0  0  0  0
    4.5580  -19.2470  -59.3790 N   0  0  0  0  0  0  0  0  0  0  0  0
    4.8010  -20.4070  -58.7400 C   0  0  0  0  0  0  0  0  0  0  0  0
    4.2990  -20.7010  -57.5280 N   0  0  0  0  0  0  0  0  0  0  0  0
    3.5050  -19.8340  -56.8590 C   0  0  0  0  0  0  0  0  0  0  0  0
    2.9650  -20.1890  -55.5220 N   0  0  0  0  0  0  0  0  0  0  0  0
    3.1920  -18.5280  -57.4940 C   0  0  0  0  0  0  0  0  0  0  0  0
    2.4680  -17.4400  -57.1600 N   0  0  0  0  0  0  0  0  0  0  0  0
    2.6180  -16.6130  -58.2170 C   0  0  0  0  0  0  0  0  0  0  0  0
    1.8540  -15.0410  -58.2680 S   0  0  0  0  0  0  0  0  0  0  0  0
    1.9160  -14.2140  -56.7040 C   0  0  0  0  0  0  0  0  0  0  0  0
    1.0960  -12.9290  -56.6720 C   0  0  0  0  0  0  0  0  0  0  0  0
    1.7330  -11.6800  -56.7520 C   0  0  0  0  0  0  0  0  0  0  0  0
    0.9800  -10.4980  -56.7180 C   0  0  0  0  0  0  0  0  0  0  0  0
   -0.3020  -12.9760  -56.5460 C   0  0  0  0  0  0  0  0  0  0  0  0
   -1.0540  -11.7910  -56.5130 C   0  0  0  0  0  0  0  0  0  0  0  0
   -0.4120  -10.5520  -56.5990 C   0  0  0  0  0  0  0  0  0  0  0  0
    8.3514  -18.6370  -60.3190 H   0  0  0  0  0  0  0  0  0  0  0  0
    4.4598  -19.1109  -63.5233 H   0  0  0  0  0  0  0  0  0  0  0  0
    5.3217  -19.4607  -62.0080 H   0  0  0  0  0  0  0  0  0  0  0  0
    6.2269  -17.6403  -60.5648 H   0  0  0  0  0  0  0  0  0  0  0  0
    5.5549  -15.6313  -59.5351 H   0  0  0  0  0  0  0  0  0  0  0  0
    5.1776  -13.8418  -60.5914 H   0  0  0  0  0  0  0  0  0  0  0  0
    4.7128  -16.7485  -63.1982 H   0  0  0  0  0  0  0  0  0  0  0  0
    3.0006  -15.5215  -60.6137 H   0  0  0  0  0  0  0  0  0  0  0  0
    5.4424  -21.1514  -59.2344 H   0  0  0  0  0  0  0  0  0  0  0  0
    3.4488  -19.8709  -54.6701 H   0  0  0  0  0  0  0  0  0  0  0  0
    2.1066  -20.7533  -55.4465 H   0  0  0  0  0  0  0  0  0  0  0  0
    1.5285  -14.8955  -55.9324 H   0  0  0  0  0  0  0  0  0  0  0  0
    2.9649  -13.9375  -56.5214 H   0  0  0  0  0  0  0  0  0  0  0  0
    2.8281  -11.6289  -56.8418 H   0  0  0  0  0  0  0  0  0  0  0  0
    1.4865   -9.5239  -56.7852 H   0  0  0  0  0  0  0  0  0  0  0  0
   -0.8113  -13.9482  -56.4727 H   0  0  0  0  0  0  0  0  0  0  0  0
   -2.1490  -11.8373  -56.4194 H   0  0  0  0  0  0  0  0  0  0  0  0
   -1.0001   -9.6228  -56.5731 H   0  0  0  0  0  0  0  0  0  0  0  0
  3  2  2  0
  4  5  1  0
  4  2  1  0
  5 10  1  0
  2  6  1  0
  2  1  1  0
 10 11  1  0
 10  7  1  0
  6  7  1  0
 11 12  1  0
  7  8  1  0
  9  8  1  0
  8 12  1  0
 12 13  1  0
 15 14  2  0
 15 16  1  0
 13 14  1  0
 13 22  1  0
 14 20  1  0
 16 17  2  0
 23 22  1  0
 23 24  1  0
 22 21  2  0
 17 18  1  0
 20 21  1  0
 20 18  2  0
 18 19  1  0
 26 27  2  0
 26 25  1  0
 27 30  1  0
 24 25  1  0
 25 28  2  0
 30 29  2  0
 28 29  1  0
  1 31  1  0
  5 32  1  0
  5 33  1  0
  7 34  1  0
  8 35  1  0
  9 36  1  0
 10 37  1  0
 12 38  1  0
 16 39  1  0
 19 40  1  0
 19 41  1  0
 24 42  1  0
 24 43  1  0
 26 44  1  0
 27 45  1  0
 28 46  1  0
 29 47  1  0
 30 48  1  0
A    1
S1P
A    2
P
A    3
O2P
A    4
O5'
A    5
C5'
A    6
O3'
A    7
C3'
A    8
C2'
A    9
O2'
A   10
C4'
A   11
O4'
A   12
C1'
A   13
N9
A   14
C4
A   15
N3
A   16
C2
A   17
N1
A   18
C6
A   19
N6
A   20
C5
A   21
N7
A   22
C8
A   23
S2
A   24
C9
A   25
C10
A   26
C15
A   27
C14
A   28
C11
A   29
C12
A   30
C13
M  END
