4MHA_4MH_A_904
     RDKit          3D

 65 67  0  0  0  0  0  0  0  0999 V2000
    4.5530    3.3050   23.6140 C   0  0  0  0  0  0  0  0  0  0  0  0
    4.6420    2.3130   22.4500 C   0  0  0  0  0  0  0  0  0  0  0  0
    3.2800    1.9870   21.8650 C   0  0  0  0  0  0  0  0  0  0  0  0
    3.0840    0.4770   21.5820 C   0  0  0  0  0  0  0  0  0  0  0  0
    3.5970    0.0680   20.3020 N   0  0  0  0  0  0  0  0  0  0  0  0
    3.3510    0.8570   19.0920 C   0  0  0  0  0  0  0  0  0  0  0  0
    2.2910    0.5560   18.3070 N   0  0  0  0  0  0  0  0  0  0  0  0
    2.0500    1.2880   17.1770 C   0  0  0  0  0  0  0  0  0  0  0  0
    2.8920    2.3550   16.8240 C   0  0  0  0  0  0  0  0  0  0  0  0
    2.6100    3.1750   15.5480 C   0  0  0  0  0  0  0  0  0  0  0  0
    3.1710    4.2370   15.3690 O   0  0  0  0  0  0  0  0  0  0  0  0
    1.6650    2.6490   14.5680 N   0  0  0  0  0  0  0  0  0  0  0  0
    1.3490    3.3550   13.3590 C   0  0  0  0  0  0  0  0  0  0  0  0
    1.7920    2.5220   12.1330 C   0  0  0  0  0  0  0  0  0  0  0  0
    3.0990    2.1130   12.0250 C   0  0  0  0  0  0  0  0  0  0  0  0
    3.5070    1.3630   10.9210 C   0  0  0  0  0  0  0  0  0  0  0  0
    2.5890    1.0260    9.9360 C   0  0  0  0  0  0  0  0  0  0  0  0
    1.2770    1.4350   10.0440 C   0  0  0  0  0  0  0  0  0  0  0  0
    0.8710    2.1880   11.1460 C   0  0  0  0  0  0  0  0  0  0  0  0
    3.1100    0.0690    8.5350 S   0  0  0  0  0  0  0  0  0  0  0  0
    4.5080    0.2460    8.2780 O   0  0  0  0  0  0  0  0  0  0  0  0
    2.5370    0.5670    7.3230 O   0  0  0  0  0  0  0  0  0  0  0  0
    2.7410   -1.5260    8.7680 N   0  0  0  0  0  0  0  0  0  0  0  0
    4.0000    2.6480   17.6740 C   0  0  0  0  0  0  0  0  0  0  0  0
    4.9110    3.7390   17.3610 N   0  0  0  0  0  0  0  0  0  0  0  0
    4.7740    5.0210   17.9780 C   0  0  0  0  0  0  0  0  0  0  0  0
    6.0810    5.7710   17.7770 C   0  0  0  0  0  0  0  0  0  0  0  0
    6.1450    7.0570   18.5700 C   0  0  0  0  0  0  0  0  0  0  0  0
    5.8340    6.8340   20.0430 C   0  0  0  0  0  0  0  0  0  0  0  0
    5.8000    8.0890   20.7080 O   0  0  0  0  0  0  0  0  0  0  0  0
    4.5000    6.1380   20.2310 C   0  0  0  0  0  0  0  0  0  0  0  0
    4.4170    4.8410   19.4510 C   0  0  0  0  0  0  0  0  0  0  0  0
    4.1990    1.8970   18.7750 N   0  0  0  0  0  0  0  0  0  0  0  0
    4.6021    2.7576   24.5669 H   0  0  0  0  0  0  0  0  0  0  0  0
    5.3910    4.0151   23.5555 H   0  0  0  0  0  0  0  0  0  0  0  0
    3.6019    3.8546   23.5555 H   0  0  0  0  0  0  0  0  0  0  0  0
    5.2707    2.7500   21.6602 H   0  0  0  0  0  0  0  0  0  0  0  0
    5.0743    1.3784   22.8369 H   0  0  0  0  0  0  0  0  0  0  0  0
    2.5068    2.3128   22.5763 H   0  0  0  0  0  0  0  0  0  0  0  0
    3.2030    2.5131   20.9020 H   0  0  0  0  0  0  0  0  0  0  0  0
    3.6024   -0.0954   22.3653 H   0  0  0  0  0  0  0  0  0  0  0  0
    2.0011    0.2839   21.5764 H   0  0  0  0  0  0  0  0  0  0  0  0
    4.1495   -0.7987   20.2344 H   0  0  0  0  0  0  0  0  0  0  0  0
    1.1892    1.0387   16.5392 H   0  0  0  0  0  0  0  0  0  0  0  0
    1.2106    1.7427   14.7497 H   0  0  0  0  0  0  0  0  0  0  0  0
    0.2637    3.5274   13.3101 H   0  0  0  0  0  0  0  0  0  0  0  0
    1.8788    4.3190   13.3530 H   0  0  0  0  0  0  0  0  0  0  0  0
    3.8242    2.3767   12.8089 H   0  0  0  0  0  0  0  0  0  0  0  0
    4.5545    1.0394   10.8316 H   0  0  0  0  0  0  0  0  0  0  0  0
    0.5509    1.1679    9.2620 H   0  0  0  0  0  0  0  0  0  0  0  0
   -0.1750    2.5167   11.2340 H   0  0  0  0  0  0  0  0  0  0  0  0
    2.6952   -1.7238    9.7778 H   0  0  0  0  0  0  0  0  0  0  0  0
    1.8296   -1.7343    8.3357 H   0  0  0  0  0  0  0  0  0  0  0  0
    5.6694    3.5842   16.6815 H   0  0  0  0  0  0  0  0  0  0  0  0
    3.9611    5.6084   17.5261 H   0  0  0  0  0  0  0  0  0  0  0  0
    6.9111    5.1217   18.0922 H   0  0  0  0  0  0  0  0  0  0  0  0
    6.1519    6.0344   16.7114 H   0  0  0  0  0  0  0  0  0  0  0  0
    7.1567    7.4795   18.4805 H   0  0  0  0  0  0  0  0  0  0  0  0
    5.3893    7.7451   18.1634 H   0  0  0  0  0  0  0  0  0  0  0  0
    6.6207    6.1918   20.4658 H   0  0  0  0  0  0  0  0  0  0  0  0
    5.8039    7.9438   21.6873 H   0  0  0  0  0  0  0  0  0  0  0  0
    4.3625    5.9181   21.3000 H   0  0  0  0  0  0  0  0  0  0  0  0
    3.7129    6.8088   19.8563 H   0  0  0  0  0  0  0  0  0  0  0  0
    3.3901    4.4528   19.5202 H   0  0  0  0  0  0  0  0  0  0  0  0
    5.1443    4.1410   19.8881 H   0  0  0  0  0  0  0  0  0  0  0  0
  1  2  1  0
  2  3  1  0
  3  4  1  0
  4  5  1  0
  5  6  1  0
  6  7  2  0
  6 33  1  0
  7  8  1  0
  8  9  2  0
  9 10  1  0
  9 24  1  0
 10 11  2  0
 10 12  1  0
 12 13  1  0
 13 14  1  0
 14 15  2  0
 14 19  1  0
 15 16  1  0
 16 17  2  0
 17 18  1  0
 17 20  1  0
 18 19  2  0
 20 21  2  0
 20 22  2  0
 20 23  1  0
 24 25  1  0
 24 33  2  0
 25 26  1  0
 26 27  1  0
 26 32  1  0
 27 28  1  0
 28 29  1  0
 29 30  1  0
 29 31  1  0
 31 32  1  0
  1 34  1  0
  1 35  1  0
  1 36  1  0
  2 37  1  0
  2 38  1  0
  3 39  1  0
  3 40  1  0
  4 41  1  0
  4 42  1  0
  5 43  1  0
  8 44  1  0
 12 45  1  0
 13 46  1  0
 13 47  1  0
 15 48  1  0
 16 49  1  0
 18 50  1  0
 19 51  1  0
 23 52  1  0
 23 53  1  0
 25 54  1  0
 26 55  1  0
 27 56  1  0
 27 57  1  0
 28 58  1  0
 28 59  1  0
 29 60  1  0
 30 61  1  0
 31 62  1  0
 31 63  1  0
 32 64  1  0
 32 65  1  0
A    1
C01
A    2
C02
A    3
C03
A    4
C04
A    5
N05
A    6
C06
A    7
N07
A    8
C08
A    9
C09
A   10
C10
A   11
O11
A   12
N12
A   13
C13
A   14
C14
A   15
C15
A   16
C16
A   17
C17
A   18
C18
A   19
C19
A   20
S20
A   21
O21
A   22
O22
A   23
N23
A   24
C24
A   25
N25
A   26
C26
A   27
C27
A   28
C28
A   29
C29
A   30
O30
A   31
C31
A   32
C32
A   33
N33
M  END
