4HCY_0YN_A_401
     RDKit          3D

 35 36  0  0  0  0  0  0  0  0999 V2000
   62.1120   17.2850   29.5650 C   0  0  0  0  0  0  0  0  0  0  0  0
   63.0970   19.7220   24.4700 C   0  0  0  0  0  0  0  0  0  0  0  0
   60.6580   19.1250   23.9600 C   0  0  0  0  0  0  0  0  0  0  0  0
   59.3940   19.5820   22.8630 S   0  0  0  0  0  0  0  0  0  0  0  0
   60.3210   20.7650   22.0230 C   0  0  0  0  0  0  0  0  0  0  0  0
   61.6850   20.7990   22.6250 C   0  0  0  0  0  0  0  0  0  0  0  0
   62.7960   21.7090   22.1700 C   0  0  0  0  0  0  0  0  0  0  0  0
   59.6170   21.4860   20.8980 C   0  0  0  0  0  0  0  0  0  0  0  0
   60.3520   21.2580   19.5850 C   0  0  0  0  0  0  0  0  0  0  0  0
   59.5630   21.7650   18.5060 O   0  0  0  0  0  0  0  0  0  0  0  0
   62.5520   17.1480   27.1380 N   0  0  0  0  0  0  0  0  0  0  0  0
   62.3710   17.9250   28.2280 C   0  0  0  0  0  0  0  0  0  0  0  0
   62.4200   19.2710   28.1270 N   0  0  0  0  0  0  0  0  0  0  0  0
   62.6500   19.8600   26.9360 C   0  0  0  0  0  0  0  0  0  0  0  0
   62.6970   21.2100   26.8410 N   0  0  0  0  0  0  0  0  0  0  0  0
   62.8350   19.0770   25.8130 C   0  0  0  0  0  0  0  0  0  0  0  0
   62.7840   17.6950   25.9400 C   0  0  0  0  0  0  0  0  0  0  0  0
   61.8110   19.8800   23.6910 C   0  0  0  0  0  0  0  0  0  0  0  0
   62.3946   17.9832   30.3666 H   0  0  0  0  0  0  0  0  0  0  0  0
   61.0435   17.0389   29.6529 H   0  0  0  0  0  0  0  0  0  0  0  0
   62.7086   16.3650   29.6529 H   0  0  0  0  0  0  0  0  0  0  0  0
   63.7913   19.0908   23.8959 H   0  0  0  0  0  0  0  0  0  0  0  0
   63.5336   20.7179   24.6360 H   0  0  0  0  0  0  0  0  0  0  0  0
   60.5697   18.3606   24.7461 H   0  0  0  0  0  0  0  0  0  0  0  0
   63.3087   22.1290   23.0479 H   0  0  0  0  0  0  0  0  0  0  0  0
   63.5144   21.1364   21.5649 H   0  0  0  0  0  0  0  0  0  0  0  0
   62.3761   22.5261   21.5649 H   0  0  0  0  0  0  0  0  0  0  0  0
   59.5911   22.5636   21.1173 H   0  0  0  0  0  0  0  0  0  0  0  0
   58.5925   21.0958   20.8078 H   0  0  0  0  0  0  0  0  0  0  0  0
   60.5215   20.1807   19.4414 H   0  0  0  0  0  0  0  0  0  0  0  0
   61.3200   21.7800   19.6098 H   0  0  0  0  0  0  0  0  0  0  0  0
   58.7882   22.2629   18.8693 H   0  0  0  0  0  0  0  0  0  0  0  0
   62.7171   21.7860   27.6947 H   0  0  0  0  0  0  0  0  0  0  0  0
   62.7127   21.6609   25.9151 H   0  0  0  0  0  0  0  0  0  0  0  0
   62.9337   17.0533   25.0592 H   0  0  0  0  0  0  0  0  0  0  0  0
 10  9  1  0
  9  8  1  0
  8  5  1  0
  5  6  2  0
  5  4  1  0
  7  6  1  0
  6 18  1  0
  4  3  1  0
 18  3  2  0
 18  2  1  0
  2 16  1  0
 16 17  1  0
 16 14  2  0
 17 11  2  0
 15 14  1  0
 14 13  1  0
 11 12  1  0
 13 12  2  0
 12  1  1  0
  1 19  1  0
  1 20  1  0
  1 21  1  0
  2 22  1  0
  2 23  1  0
  3 24  1  0
  7 25  1  0
  7 26  1  0
  7 27  1  0
  8 28  1  0
  8 29  1  0
  9 30  1  0
  9 31  1  0
 10 32  1  0
 15 33  1  0
 15 34  1  0
 17 35  1  0
A    1
C2A
A    2
C35
A    3
C2
A    4
S1
A    5
C5
A    6
C4
A    7
C4A
A    8
C5A
A    9
C5B
A   10
O5G
A   11
N1'
A   12
C2'
A   13
N3'
A   14
C4'
A   15
N4'
A   16
C5'
A   17
C6'
A   18
C3
M  END
