4MIB_28M_A_602
     RDKit          3D

 66 69  0  0  0  0  0  0  0  0999 V2000
   -9.7340    8.9450   10.4620 C   0  0  0  0  0  0  0  0  0  0  0  0
   -8.6870    9.4700   11.1920 C   0  0  0  0  0  0  0  0  0  0  0  0
   -7.5550   10.1050   10.6760 C   0  0  0  0  0  0  0  0  0  0  0  0
   -7.4840   10.1770    9.3030 C   0  0  0  0  0  0  0  0  0  0  0  0
   -8.5390    9.7170    8.4560 C   0  0  0  0  0  0  0  0  0  0  0  0
   -9.6740    9.0760    9.0320 C   0  0  0  0  0  0  0  0  0  0  0  0
  -10.7010    8.5850    8.2760 N   0  0  0  0  0  0  0  0  0  0  0  0
  -10.6280    8.7180    6.9600 C   0  0  0  0  0  0  0  0  0  0  0  0
   -9.5650    9.3670    6.3040 C   0  0  0  0  0  0  0  0  0  0  0  0
   -8.5160    9.8690    7.0530 C   0  0  0  0  0  0  0  0  0  0  0  0
   -9.6520    9.5800    4.9230 N   0  0  0  0  0  0  0  0  0  0  0  0
   -8.6860   10.3790    4.1520 C   0  0  0  0  0  0  0  0  0  0  0  0
   -9.3650   10.5570    2.8040 C   0  0  0  0  0  0  0  0  0  0  0  0
  -10.2330    9.3000    2.6680 C   0  0  0  0  0  0  0  0  0  0  0  0
  -10.7530    9.0680    4.0960 C   0  0  0  0  0  0  0  0  0  0  0  0
  -11.4330    9.5070    1.7370 C   0  0  0  0  0  0  0  0  0  0  0  0
  -11.0010    9.6650    0.3220 N   0  0  0  0  0  0  0  0  0  0  0  0
  -11.1180    8.4350   -0.7110 S   0  0  0  0  0  0  0  0  0  0  0  0
  -10.5540    8.8690   -1.9500 O   0  0  0  0  0  0  0  0  0  0  0  0
  -10.5650    7.2830   -0.0700 O   0  0  0  0  0  0  0  0  0  0  0  0
  -12.8290    8.1570   -0.9550 C   0  0  0  0  0  0  0  0  0  0  0  0
   -6.3160   10.6140    8.7070 O   0  0  0  0  0  0  0  0  0  0  0  0
   -5.4850    9.6710    8.0400 C   0  0  0  0  0  0  0  0  0  0  0  0
   -6.5030   10.7040   11.6520 C   0  0  0  0  0  0  0  0  0  0  0  0
   -6.9830   10.6950   13.1180 C   0  0  0  0  0  0  0  0  0  0  0  0
   -5.1900    9.9100   11.6120 C   0  0  0  0  0  0  0  0  0  0  0  0
   -6.1900   12.1660   11.3290 C   0  0  0  0  0  0  0  0  0  0  0  0
  -10.8610    8.3000   11.1890 C   0  0  0  0  0  0  0  0  0  0  0  0
  -11.1700    6.8880   10.9470 C   0  0  0  0  0  0  0  0  0  0  0  0
  -10.6430    6.1650   10.0960 O   0  0  0  0  0  0  0  0  0  0  0  0
  -12.1820    6.3830   11.7560 N   0  0  0  0  0  0  0  0  0  0  0  0
  -12.8660    7.1010   12.6880 C   0  0  0  0  0  0  0  0  0  0  0  0
  -12.5950    8.4130   12.8880 C   0  0  0  0  0  0  0  0  0  0  0  0
  -11.5710    9.0170   12.1260 C   0  0  0  0  0  0  0  0  0  0  0  0
   -8.7501    9.3796   12.2865 H   0  0  0  0  0  0  0  0  0  0  0  0
  -11.4405    8.2994    6.3479 H   0  0  0  0  0  0  0  0  0  0  0  0
   -7.6749   10.3800    6.5616 H   0  0  0  0  0  0  0  0  0  0  0  0
   -8.5079   11.3518    4.6336 H   0  0  0  0  0  0  0  0  0  0  0  0
   -7.6996    9.8984    4.0737 H   0  0  0  0  0  0  0  0  0  0  0  0
   -9.9852   11.4654    2.7937 H   0  0  0  0  0  0  0  0  0  0  0  0
   -8.6490   10.6733    1.9771 H   0  0  0  0  0  0  0  0  0  0  0  0
   -9.6566    8.4655    2.2421 H   0  0  0  0  0  0  0  0  0  0  0  0
  -10.9289    7.9989    4.2861 H   0  0  0  0  0  0  0  0  0  0  0  0
  -11.7168    9.5588    4.2966 H   0  0  0  0  0  0  0  0  0  0  0  0
  -12.0993    8.6350    1.8126 H   0  0  0  0  0  0  0  0  0  0  0  0
  -11.9554   10.4250    2.0442 H   0  0  0  0  0  0  0  0  0  0  0  0
  -11.5590   10.4357   -0.0725 H   0  0  0  0  0  0  0  0  0  0  0  0
  -13.3301    8.0756    0.0209 H   0  0  0  0  0  0  0  0  0  0  0  0
  -13.2601    8.9969   -1.5196 H   0  0  0  0  0  0  0  0  0  0  0  0
  -12.9720    7.2238   -1.5196 H   0  0  0  0  0  0  0  0  0  0  0  0
   -4.9495    9.0633    8.7842 H   0  0  0  0  0  0  0  0  0  0  0  0
   -6.1054    9.0166    7.4101 H   0  0  0  0  0  0  0  0  0  0  0  0
   -4.7577   10.2042    7.4101 H   0  0  0  0  0  0  0  0  0  0  0  0
   -6.1117   10.7113   13.7892 H   0  0  0  0  0  0  0  0  0  0  0  0
   -7.6066   11.5816   13.3051 H   0  0  0  0  0  0  0  0  0  0  0  0
   -7.5730    9.7856   13.3051 H   0  0  0  0  0  0  0  0  0  0  0  0
   -4.8532    9.7063   12.6392 H   0  0  0  0  0  0  0  0  0  0  0  0
   -5.3527    8.9588   11.0841 H   0  0  0  0  0  0  0  0  0  0  0  0
   -4.4232   10.4959   11.0841 H   0  0  0  0  0  0  0  0  0  0  0  0
   -6.0691   12.7306   12.2653 H   0  0  0  0  0  0  0  0  0  0  0  0
   -5.2596   12.2214   10.7447 H   0  0  0  0  0  0  0  0  0  0  0  0
   -7.0161   12.5974   10.7447 H   0  0  0  0  0  0  0  0  0  0  0  0
  -12.4328    5.3906   11.6412 H   0  0  0  0  0  0  0  0  0  0  0  0
  -13.6481    6.6102   13.2859 H   0  0  0  0  0  0  0  0  0  0  0  0
  -13.1612    8.9962   13.6291 H   0  0  0  0  0  0  0  0  0  0  0  0
  -11.3361   10.0800   12.2839 H   0  0  0  0  0  0  0  0  0  0  0  0
 25 24  1  0
 33 32  2  0
 33 34  1  0
 32 31  1  0
 34 28  2  0
 24 27  1  0
 24 26  1  0
 24  3  1  0
 31 29  1  0
  2  3  2  0
  2  1  1  0
 28 29  1  0
 28  1  1  0
 29 30  2  0
  3  4  1  0
  1  6  2  0
  4 22  1  0
  4  5  2  0
  6  5  1  0
  6  7  1  0
 22 23  1  0
  5 10  1  0
  7  8  2  0
 10  9  2  0
  8  9  1  0
  9 11  1  0
 11 12  1  0
 11 15  1  0
 12 13  1  0
 15 14  1  0
 13 14  1  0
 14 16  1  0
 16 17  1  0
 17 18  1  0
 20 18  2  0
 18 21  1  0
 18 19  2  0
  2 35  1  0
  8 36  1  0
 10 37  1  0
 12 38  1  0
 12 39  1  0
 13 40  1  0
 13 41  1  0
 14 42  1  0
 15 43  1  0
 15 44  1  0
 16 45  1  0
 16 46  1  0
 17 47  1  0
 21 48  1  0
 21 49  1  0
 21 50  1  0
 23 51  1  0
 23 52  1  0
 23 53  1  0
 25 54  1  0
 25 55  1  0
 25 56  1  0
 26 57  1  0
 26 58  1  0
 26 59  1  0
 27 60  1  0
 27 61  1  0
 27 62  1  0
 31 63  1  0
 32 64  1  0
 33 65  1  0
 34 66  1  0
A    1
C1
A    2
C2
A    3
C3
A    4
C4
A    5
C5
A    6
C6
A    7
N7
A    8
C8
A    9
C9
A   10
C10
A   11
N11
A   12
C12
A   13
C13
A   14
C14
A   15
C15
A   16
C16
A   17
N17
A   18
S18
A   19
O19
A   20
O20
A   21
C21
A   22
O22
A   23
C23
A   24
C24
A   25
C25
A   26
C26
A   27
C27
A   28
C28
A   29
C29
A   30
O30
A   31
N31
A   32
C33
A   33
C34
A   34
C35
M  END
