4MJU_27S_A_501
     RDKit          3D

 48 49  0  0  0  0  0  0  0  0999 V2000
  113.4730  107.3130  129.0550 O   0  0  0  0  0  0  0  0  0  0  0  0
  113.3810  107.5640  127.8560 C   0  0  0  0  0  0  0  0  0  0  0  0
  113.0070  106.5980  126.9960 N   0  0  0  0  0  0  0  0  0  0  0  0
  112.9380  107.0090  125.7340 C   0  0  0  0  0  0  0  0  0  0  0  0
  113.0840  106.2220  124.6750 N   0  0  0  0  0  0  0  0  0  0  0  0
  112.7260  108.6650  125.7120 S   0  0  0  0  0  0  0  0  0  0  0  0
  113.6350  108.8390  127.2910 C   0  0  0  0  0  0  0  0  0  0  0  0
  115.1380  109.0800  127.1120 C   0  0  0  0  0  0  0  0  0  0  0  0
  115.6340  108.2540  126.0080 N   0  0  0  0  0  0  0  0  0  0  0  0
  116.4410  107.2000  126.2100 C   0  0  0  0  0  0  0  0  0  0  0  0
  116.8320  106.8460  127.3180 O   0  0  0  0  0  0  0  0  0  0  0  0
  116.8460  106.4440  124.9400 C   0  0  0  0  0  0  0  0  0  0  0  0
  113.0610  109.8390  128.0840 C   0  0  0  0  0  0  0  0  0  0  0  0
  113.6220  111.0970  128.3310 C   0  0  0  0  0  0  0  0  0  0  0  0
  112.7890  112.1060  128.8340 C   0  0  0  0  0  0  0  0  0  0  0  0
  111.6300  111.8360  129.2210 O   0  0  0  0  0  0  0  0  0  0  0  0
  113.1900  113.2920  128.9080 O   0  0  0  0  0  0  0  0  0  0  0  0
  114.8770  111.4650  127.8240 C   0  0  0  0  0  0  0  0  0  0  0  0
  115.4320  110.5240  126.7610 C   0  0  0  0  0  0  0  0  0  0  0  0
  116.8630  110.6770  126.6610 O   0  0  0  0  0  0  0  0  0  0  0  0
  117.3000  111.0530  125.3390 C   0  0  0  0  0  0  0  0  0  0  0  0
  116.7230  112.4160  124.9250 C   0  0  0  0  0  0  0  0  0  0  0  0
  117.5520  113.5890  125.4700 C   0  0  0  0  0  0  0  0  0  0  0  0
  118.8390  111.0960  125.2880 C   0  0  0  0  0  0  0  0  0  0  0  0
  119.4220  109.7880  125.8250 C   0  0  0  0  0  0  0  0  0  0  0  0
  113.2704  105.2170  124.8020 H   0  0  0  0  0  0  0  0  0  0  0  0
  113.0108  106.6163  123.7263 H   0  0  0  0  0  0  0  0  0  0  0  0
  115.6287  108.8256  128.0630 H   0  0  0  0  0  0  0  0  0  0  0  0
  115.3544  108.4897  125.0451 H   0  0  0  0  0  0  0  0  0  0  0  0
  117.3488  105.5055  125.2165 H   0  0  0  0  0  0  0  0  0  0  0  0
  115.9483  106.2178  124.3459 H   0  0  0  0  0  0  0  0  0  0  0  0
  117.5317  107.0660  124.3459 H   0  0  0  0  0  0  0  0  0  0  0  0
  112.0899  109.6182  128.5512 H   0  0  0  0  0  0  0  0  0  0  0  0
  111.4298  111.7894  130.1894 H   0  0  0  0  0  0  0  0  0  0  0  0
  115.5898  111.4956  128.6612 H   0  0  0  0  0  0  0  0  0  0  0  0
  114.7424  112.4418  127.3364 H   0  0  0  0  0  0  0  0  0  0  0  0
  114.9501  110.7794  125.8057 H   0  0  0  0  0  0  0  0  0  0  0  0
  116.9298  110.2979  124.6299 H   0  0  0  0  0  0  0  0  0  0  0  0
  116.7065  112.4745  123.8267 H   0  0  0  0  0  0  0  0  0  0  0  0
  115.7100  112.4950  125.3463 H   0  0  0  0  0  0  0  0  0  0  0  0
  117.5375  113.5685  126.5697 H   0  0  0  0  0  0  0  0  0  0  0  0
  118.5895  113.5008  125.1153 H   0  0  0  0  0  0  0  0  0  0  0  0
  117.1226  114.5375  125.1153 H   0  0  0  0  0  0  0  0  0  0  0  0
  119.1642  111.2384  124.2469 H   0  0  0  0  0  0  0  0  0  0  0  0
  119.1956  111.9301  125.9102 H   0  0  0  0  0  0  0  0  0  0  0  0
  119.4135  109.8070  126.9248 H   0  0  0  0  0  0  0  0  0  0  0  0
  118.8155  108.9425  125.4682 H   0  0  0  0  0  0  0  0  0  0  0  0
  120.4562  109.6738  125.4682 H   0  0  0  0  0  0  0  0  0  0  0  0
  5  4  1  0
 22 21  1  0
 22 23  1  0
 12 10  1  0
 24 21  1  0
 24 25  1  0
 21 20  1  0
  6  4  1  0
  6  7  1  0
  4  3  2  0
  9 10  1  0
  9  8  1  0
 10 11  2  0
 20 19  1  0
 19  8  1  0
 19 18  1  0
  3  2  1  0
  8  7  1  0
  7  2  1  0
  7 13  1  0
 18 14  1  0
  2  1  2  0
 13 14  2  0
 14 15  1  0
 15 17  2  0
 15 16  1  0
  5 26  1  0
  5 27  1  0
  8 28  1  0
  9 29  1  0
 12 30  1  0
 12 31  1  0
 12 32  1  0
 13 33  1  0
 16 34  1  0
 18 35  1  0
 18 36  1  0
 19 37  1  0
 21 38  1  0
 22 39  1  0
 22 40  1  0
 23 41  1  0
 23 42  1  0
 23 43  1  0
 24 44  1  0
 24 45  1  0
 25 46  1  0
 25 47  1  0
 25 48  1  0
A    1
OAG
A    2
CAT
A    3
NAM
A    4
CAS
A    5
NAD
A    6
SAP
A    7
CAY
A    8
CAX
A    9
NAN
A   10
CAQ
A   11
OAE
A   12
CAC
A   13
CAI
A   14
CAU
A   15
CAR
A   16
OAH
A   17
OAF
A   18
CAL
A   19
CAW
A   20
OAO
A   21
CAV
A   22
CAK
A   23
CAB
A   24
CAJ
A   25
CAA
M  END
