4MK8_28Q_A_602
     RDKit          3D

 62 64  0  0  0  0  0  0  0  0999 V2000
  -51.1180   -8.9210  -13.5710 C   0  0  0  0  0  0  0  0  0  0  0  0
  -50.0030   -9.4860  -12.9490 C   0  0  0  0  0  0  0  0  0  0  0  0
  -49.9720   -9.4410  -11.5230 C   0  0  0  0  0  0  0  0  0  0  0  0
  -50.9900   -8.8280  -10.7750 C   0  0  0  0  0  0  0  0  0  0  0  0
  -52.0670   -8.2690  -11.4590 C   0  0  0  0  0  0  0  0  0  0  0  0
  -52.1380   -8.3100  -12.8500 C   0  0  0  0  0  0  0  0  0  0  0  0
  -53.3100   -7.7320  -13.5600 C   0  0  0  0  0  0  0  0  0  0  0  0
  -53.9260   -8.4060  -14.5930 C   0  0  0  0  0  0  0  0  0  0  0  0
  -55.0130   -7.8350  -15.3080 C   0  0  0  0  0  0  0  0  0  0  0  0
  -55.4490   -6.6020  -14.9540 C   0  0  0  0  0  0  0  0  0  0  0  0
  -54.8720   -5.9320  -13.9190 N   0  0  0  0  0  0  0  0  0  0  0  0
  -53.7900   -6.4120  -13.1550 C   0  0  0  0  0  0  0  0  0  0  0  0
  -53.3310   -5.7360  -12.2300 O   0  0  0  0  0  0  0  0  0  0  0  0
  -50.9460   -8.7070   -9.2570 C   0  0  0  0  0  0  0  0  0  0  0  0
  -52.1880   -9.3810   -8.5810 C   0  0  0  0  0  0  0  0  0  0  0  0
  -52.1880   -9.3100   -7.0750 C   0  0  0  0  0  0  0  0  0  0  0  0
  -51.6440  -10.3380   -6.3130 C   0  0  0  0  0  0  0  0  0  0  0  0
  -51.7550  -10.3420   -4.9340 C   0  0  0  0  0  0  0  0  0  0  0  0
  -52.4170   -9.3060   -4.2840 C   0  0  0  0  0  0  0  0  0  0  0  0
  -52.9330   -8.2570   -5.0370 C   0  0  0  0  0  0  0  0  0  0  0  0
  -52.8170   -8.2650   -6.4160 C   0  0  0  0  0  0  0  0  0  0  0  0
  -52.5950   -9.3740   -2.8700 N   0  0  0  0  0  0  0  0  0  0  0  0
  -53.1620   -8.2170   -1.8810 S   0  0  0  0  0  0  0  0  0  0  0  0
  -52.8860   -8.6590   -0.5490 O   0  0  0  0  0  0  0  0  0  0  0  0
  -52.6110   -6.9700   -2.3180 O   0  0  0  0  0  0  0  0  0  0  0  0
  -54.8970   -8.1750   -2.0950 C   0  0  0  0  0  0  0  0  0  0  0  0
  -48.8600   -9.9330  -10.8620 O   0  0  0  0  0  0  0  0  0  0  0  0
  -49.0120  -11.1810  -10.1850 C   0  0  0  0  0  0  0  0  0  0  0  0
  -48.8270   -9.9340  -13.8610 C   0  0  0  0  0  0  0  0  0  0  0  0
  -49.1930   -9.8630  -15.3550 C   0  0  0  0  0  0  0  0  0  0  0  0
  -47.6010   -9.0160  -13.6650 C   0  0  0  0  0  0  0  0  0  0  0  0
  -48.4030  -11.3850  -13.5980 C   0  0  0  0  0  0  0  0  0  0  0  0
  -51.1920   -8.9605  -14.6678 H   0  0  0  0  0  0  0  0  0  0  0  0
  -52.8760   -7.7865  -10.8909 H   0  0  0  0  0  0  0  0  0  0  0  0
  -53.5678   -9.4085  -14.8699 H   0  0  0  0  0  0  0  0  0  0  0  0
  -55.4913   -8.3834  -16.1330 H   0  0  0  0  0  0  0  0  0  0  0  0
  -56.2777   -6.1376  -15.5086 H   0  0  0  0  0  0  0  0  0  0  0  0
  -55.2543   -5.0068  -13.6768 H   0  0  0  0  0  0  0  0  0  0  0  0
  -50.9282   -7.6412   -8.9856 H   0  0  0  0  0  0  0  0  0  0  0  0
  -50.0421   -9.2223   -8.9000 H   0  0  0  0  0  0  0  0  0  0  0  0
  -52.2085  -10.4405   -8.8761 H   0  0  0  0  0  0  0  0  0  0  0  0
  -53.0736   -8.8254   -8.9230 H   0  0  0  0  0  0  0  0  0  0  0  0
  -51.1163  -11.1622   -6.8152 H   0  0  0  0  0  0  0  0  0  0  0  0
  -51.3188  -11.1662   -4.3506 H   0  0  0  0  0  0  0  0  0  0  0  0
  -53.4355   -7.4174   -4.5345 H   0  0  0  0  0  0  0  0  0  0  0  0
  -53.2306   -7.4287   -6.9987 H   0  0  0  0  0  0  0  0  0  0  0  0
  -52.3324  -10.2638   -2.4226 H   0  0  0  0  0  0  0  0  0  0  0  0
  -55.3877   -8.1631   -1.1106 H   0  0  0  0  0  0  0  0  0  0  0  0
  -55.1756   -7.2698   -2.6545 H   0  0  0  0  0  0  0  0  0  0  0  0
  -55.2191   -9.0656   -2.6545 H   0  0  0  0  0  0  0  0  0  0  0  0
  -48.9916  -11.0134   -9.0980 H   0  0  0  0  0  0  0  0  0  0  0  0
  -49.9723  -11.6369  -10.4677 H   0  0  0  0  0  0  0  0  0  0  0  0
  -48.1892  -11.8541  -10.4677 H   0  0  0  0  0  0  0  0  0  0  0  0
  -50.2680   -9.6545  -15.4597 H   0  0  0  0  0  0  0  0  0  0  0  0
  -48.6152   -9.0602  -15.8363 H   0  0  0  0  0  0  0  0  0  0  0  0
  -48.9573  -10.8236  -15.8363 H   0  0  0  0  0  0  0  0  0  0  0  0
  -47.4152   -8.8769  -12.5898 H   0  0  0  0  0  0  0  0  0  0  0  0
  -46.7189   -9.4775  -14.1328 H   0  0  0  0  0  0  0  0  0  0  0  0
  -47.7955   -8.0396  -14.1328 H   0  0  0  0  0  0  0  0  0  0  0  0
  -48.3515  -11.5611  -12.5134 H   0  0  0  0  0  0  0  0  0  0  0  0
  -49.1388  -12.0690  -14.0460 H   0  0  0  0  0  0  0  0  0  0  0  0
  -47.4147  -11.5651  -14.0460 H   0  0  0  0  0  0  0  0  0  0  0  0
 24 23  2  0
 23 26  1  0
 23 25  2  0
 23 22  1  0
 22 19  1  0
 19 18  1  0
 19 20  2  0
 18 17  2  0
 20 21  1  0
 17 16  1  0
 21 16  2  0
 16 15  1  0
 15 14  1  0
 14  4  1  0
 28 27  1  0
  4  5  2  0
  4  3  1  0
 27  3  1  0
  5  6  1  0
  3  2  2  0
 13 12  2  0
  6  7  1  0
  6  1  2  0
  2  1  1  0
  2 29  1  0
 12  7  1  0
 12 11  1  0
  7  8  2  0
 32 29  1  0
 31 29  1  0
 11 10  1  0
 29 30  1  0
  8  9  1  0
 10  9  2  0
  1 33  1  0
  5 34  1  0
  8 35  1  0
  9 36  1  0
 10 37  1  0
 11 38  1  0
 14 39  1  0
 14 40  1  0
 15 41  1  0
 15 42  1  0
 17 43  1  0
 18 44  1  0
 20 45  1  0
 21 46  1  0
 22 47  1  0
 26 48  1  0
 26 49  1  0
 26 50  1  0
 28 51  1  0
 28 52  1  0
 28 53  1  0
 30 54  1  0
 30 55  1  0
 30 56  1  0
 31 57  1  0
 31 58  1  0
 31 59  1  0
 32 60  1  0
 32 61  1  0
 32 62  1  0
A    1
C1
A    2
C2
A    3
C3
A    4
C4
A    5
C5
A    6
C6
A    7
C7
A    8
C8
A    9
C9
A   10
C10
A   11
N11
A   12
C13
A   13
O14
A   14
C15
A   15
C16
A   16
C17
A   17
C18
A   18
C19
A   19
C20
A   20
C21
A   21
C22
A   22
N23
A   23
S24
A   24
O25
A   25
O26
A   26
C27
A   27
O28
A   28
C29
A   29
C30
A   30
C31
A   31
C32
A   32
C33
M  END
