4MKA_2AY_A_602
     RDKit          3D

 61 64  0  0  0  0  0  0  0  0999 V2000
  -10.1590    9.6890    2.5600 N   0  0  0  0  0  0  0  0  0  0  0  0
  -10.5670    8.4510    1.5850 S   0  0  0  0  0  0  0  0  0  0  0  0
  -10.3440    8.9040    0.2470 O   0  0  0  0  0  0  0  0  0  0  0  0
   -9.8700    7.2880    2.0470 O   0  0  0  0  0  0  0  0  0  0  0  0
  -12.2850    8.1970    1.7930 C   0  0  0  0  0  0  0  0  0  0  0  0
   -9.7620    9.7090    3.9400 C   0  0  0  0  0  0  0  0  0  0  0  0
   -9.1230   10.8600    4.3830 C   0  0  0  0  0  0  0  0  0  0  0  0
   -8.7060   10.9660    5.6970 C   0  0  0  0  0  0  0  0  0  0  0  0
   -8.9160    9.9290    6.6120 C   0  0  0  0  0  0  0  0  0  0  0  0
   -8.5030   10.0220    7.9900 C   0  0  0  0  0  0  0  0  0  0  0  0
   -8.7180    9.0260    8.8540 C   0  0  0  0  0  0  0  0  0  0  0  0
   -9.3290    7.8440    8.4340 O   0  0  0  0  0  0  0  0  0  0  0  0
   -9.7840    7.6430    7.1180 C   0  0  0  0  0  0  0  0  0  0  0  0
  -10.2990    6.5690    6.8780 O   0  0  0  0  0  0  0  0  0  0  0  0
   -9.5660    8.7520    6.1700 C   0  0  0  0  0  0  0  0  0  0  0  0
   -9.9910    8.6590    4.8330 C   0  0  0  0  0  0  0  0  0  0  0  0
   -8.5570    9.0410   10.3220 C   0  0  0  0  0  0  0  0  0  0  0  0
   -7.4530    9.6110   10.9910 C   0  0  0  0  0  0  0  0  0  0  0  0
   -7.3730    9.6600   12.4150 C   0  0  0  0  0  0  0  0  0  0  0  0
   -8.4440    9.1150   13.1270 C   0  0  0  0  0  0  0  0  0  0  0  0
   -9.5350    8.5400   12.4830 C   0  0  0  0  0  0  0  0  0  0  0  0
   -9.5850    8.5160   11.0950 C   0  0  0  0  0  0  0  0  0  0  0  0
  -10.6280    7.9120   13.2680 C   0  0  0  0  0  0  0  0  0  0  0  0
  -11.0580    6.5780   12.8700 C   0  0  0  0  0  0  0  0  0  0  0  0
  -10.5900    5.9340   11.9270 O   0  0  0  0  0  0  0  0  0  0  0  0
  -12.1240    6.0730   13.6180 N   0  0  0  0  0  0  0  0  0  0  0  0
  -12.7490    6.7400   14.6240 C   0  0  0  0  0  0  0  0  0  0  0  0
  -12.3540    7.9880   14.9770 C   0  0  0  0  0  0  0  0  0  0  0  0
  -11.2690    8.5790   14.2870 C   0  0  0  0  0  0  0  0  0  0  0  0
   -6.1780   10.2430   13.2240 C   0  0  0  0  0  0  0  0  0  0  0  0
   -6.5230   10.3950   14.7150 C   0  0  0  0  0  0  0  0  0  0  0  0
   -4.9340    9.3280   13.1580 C   0  0  0  0  0  0  0  0  0  0  0  0
   -5.7800   11.6370   12.7340 C   0  0  0  0  0  0  0  0  0  0  0  0
   -6.4430   10.1970   10.2520 O   0  0  0  0  0  0  0  0  0  0  0  0
   -5.4240    9.3510    9.7270 C   0  0  0  0  0  0  0  0  0  0  0  0
  -10.1910   10.6154    2.1109 H   0  0  0  0  0  0  0  0  0  0  0  0
  -12.5231    8.1618    2.8663 H   0  0  0  0  0  0  0  0  0  0  0  0
  -12.8375    9.0232    1.3217 H   0  0  0  0  0  0  0  0  0  0  0  0
  -12.5748    7.2462    1.3217 H   0  0  0  0  0  0  0  0  0  0  0  0
   -8.9478   11.6917    3.6847 H   0  0  0  0  0  0  0  0  0  0  0  0
   -8.1991   11.8839    6.0294 H   0  0  0  0  0  0  0  0  0  0  0  0
   -7.9986   10.9353    8.3386 H   0  0  0  0  0  0  0  0  0  0  0  0
  -10.5082    7.7519    4.4870 H   0  0  0  0  0  0  0  0  0  0  0  0
   -8.4243    9.1411   14.2265 H   0  0  0  0  0  0  0  0  0  0  0  0
  -10.4587    8.0710   10.5964 H   0  0  0  0  0  0  0  0  0  0  0  0
  -12.4609    5.1265   13.3908 H   0  0  0  0  0  0  0  0  0  0  0  0
  -13.5840    6.2622   15.1573 H   0  0  0  0  0  0  0  0  0  0  0  0
  -12.8672    8.5309   15.7844 H   0  0  0  0  0  0  0  0  0  0  0  0
  -10.9326    9.5875   14.5696 H   0  0  0  0  0  0  0  0  0  0  0  0
   -5.6851   10.0259   15.3247 H   0  0  0  0  0  0  0  0  0  0  0  0
   -6.7032   11.4558   14.9434 H   0  0  0  0  0  0  0  0  0  0  0  0
   -7.4274    9.8120   14.9434 H   0  0  0  0  0  0  0  0  0  0  0  0
   -4.6032    9.0847   14.1785 H   0  0  0  0  0  0  0  0  0  0  0  0
   -5.1889    8.4006   12.6243 H   0  0  0  0  0  0  0  0  0  0  0  0
   -4.1246    9.8476   12.6243 H   0  0  0  0  0  0  0  0  0  0  0  0
   -5.5935   12.2903   13.5991 H   0  0  0  0  0  0  0  0  0  0  0  0
   -4.8666   11.5648   12.1253 H   0  0  0  0  0  0  0  0  0  0  0  0
   -6.5939   12.0579   12.1253 H   0  0  0  0  0  0  0  0  0  0  0  0
   -4.8677    8.8891   10.5560 H   0  0  0  0  0  0  0  0  0  0  0  0
   -5.8825    8.5643    9.1098 H   0  0  0  0  0  0  0  0  0  0  0  0
   -4.7351    9.9464    9.1098 H   0  0  0  0  0  0  0  0  0  0  0  0
 31 30  1  0
 28 27  2  0
 28 29  1  0
 27 26  1  0
 29 23  2  0
 26 24  1  0
 30 32  1  0
 30 33  1  0
 30 19  1  0
 23 24  1  0
 23 21  1  0
 20 19  1  0
 20 21  2  0
 24 25  2  0
 19 18  2  0
 21 22  1  0
 18 34  1  0
 18 17  1  0
 22 17  2  0
 34 35  1  0
 17 11  1  0
 11 12  1  0
 11 10  2  0
 12 13  1  0
 10  9  1  0
 13 14  2  0
 13 15  1  0
  9 15  2  0
  9  8  1  0
 15 16  1  0
  8  7  2  0
 16  6  2  0
  7  6  1  0
  6  1  1  0
  1  2  1  0
  4  2  2  0
  5  2  1  0
  2  3  2  0
  1 36  1  0
  5 37  1  0
  5 38  1  0
  5 39  1  0
  7 40  1  0
  8 41  1  0
 10 42  1  0
 16 43  1  0
 20 44  1  0
 22 45  1  0
 26 46  1  0
 27 47  1  0
 28 48  1  0
 29 49  1  0
 31 50  1  0
 31 51  1  0
 31 52  1  0
 32 53  1  0
 32 54  1  0
 32 55  1  0
 33 56  1  0
 33 57  1  0
 33 58  1  0
 35 59  1  0
 35 60  1  0
 35 61  1  0
A    1
N1
A    2
S2
A    3
O3
A    4
O4
A    5
C5
A    6
C6
A    7
C7
A    8
C8
A    9
C9
A   10
C10
A   11
C11
A   12
O12
A   13
C13
A   14
O14
A   15
C15
A   16
C16
A   17
C17
A   18
C18
A   19
C19
A   20
C20
A   21
C21
A   22
C22
A   23
C23
A   24
C24
A   25
O25
A   26
N26
A   27
C28
A   28
C29
A   29
C30
A   30
C31
A   31
C32
A   32
C33
A   33
C34
A   34
O35
A   35
C36
M  END
