4MKC_4MK_A_1503
     RDKit          3D

 74 77  0  0  0  0  0  0  0  0999 V2000
  -27.8260    8.7850   -7.1560 C   0  0  0  0  0  0  0  0  0  0  0  0
  -26.6010    7.8280   -7.1320 C   0  0  0  0  0  0  0  0  0  0  0  0
  -26.8650    6.5500   -7.9830 C   0  0  0  0  0  0  0  0  0  0  0  0
  -25.4870    8.5920   -7.6500 O   0  0  0  0  0  0  0  0  0  0  0  0
  -24.1230    8.2730   -7.5080 C   0  0  0  0  0  0  0  0  0  0  0  0
  -23.6270    7.2280   -6.7040 C   0  0  0  0  0  0  0  0  0  0  0  0
  -22.2450    6.9710   -6.5660 C   0  0  0  0  0  0  0  0  0  0  0  0
  -21.7800    5.7880   -5.6670 C   0  0  0  0  0  0  0  0  0  0  0  0
  -21.7210    4.4570   -6.4900 C   0  0  0  0  0  0  0  0  0  0  0  0
  -21.1750    3.2740   -5.6310 C   0  0  0  0  0  0  0  0  0  0  0  0
  -21.9330    3.1980   -4.3490 N   0  0  0  0  0  0  0  0  0  0  0  0
  -21.9580    4.4250   -3.5020 C   0  0  0  0  0  0  0  0  0  0  0  0
  -22.5470    5.6270   -4.3120 C   0  0  0  0  0  0  0  0  0  0  0  0
  -21.3350    7.7610   -7.3130 C   0  0  0  0  0  0  0  0  0  0  0  0
  -19.8020    7.5940   -7.2480 C   0  0  0  0  0  0  0  0  0  0  0  0
  -21.8430    8.7800   -8.1450 C   0  0  0  0  0  0  0  0  0  0  0  0
  -23.2250    9.0640   -8.2320 C   0  0  0  0  0  0  0  0  0  0  0  0
  -23.7730   10.0520   -9.0150 N   0  0  0  0  0  0  0  0  0  0  0  0
  -23.1950   11.2120   -9.4020 C   0  0  0  0  0  0  0  0  0  0  0  0
  -23.7330   12.0060  -10.3610 N   0  0  0  0  0  0  0  0  0  0  0  0
  -23.0750   13.1070  -10.7830 C   0  0  0  0  0  0  0  0  0  0  0  0
  -21.8610   13.4650  -10.1760 C   0  0  0  0  0  0  0  0  0  0  0  0
  -21.0310   14.9090  -10.6640 Cl  0  0  0  0  0  0  0  0  0  0  0  0
  -21.3470   12.6810   -9.1410 C   0  0  0  0  0  0  0  0  0  0  0  0
  -20.1650   12.9820   -8.5220 N   0  0  0  0  0  0  0  0  0  0  0  0
  -19.5070   12.2680   -7.5370 C   0  0  0  0  0  0  0  0  0  0  0  0
  -20.2020   11.4350   -6.6220 C   0  0  0  0  0  0  0  0  0  0  0  0
  -19.5380   10.7450   -5.5920 C   0  0  0  0  0  0  0  0  0  0  0  0
  -18.1570   10.8990   -5.4210 C   0  0  0  0  0  0  0  0  0  0  0  0
  -17.4580   11.7640   -6.2750 C   0  0  0  0  0  0  0  0  0  0  0  0
  -18.1010   12.4280   -7.3470 C   0  0  0  0  0  0  0  0  0  0  0  0
  -17.1110   13.5470   -8.3390 S   0  0  0  0  0  0  0  0  0  0  0  0
  -17.9420   14.5970   -8.9150 O   0  0  0  0  0  0  0  0  0  0  0  0
  -16.0350   14.0540   -7.4940 O   0  0  0  0  0  0  0  0  0  0  0  0
  -16.4330   12.5510   -9.6970 C   0  0  0  0  0  0  0  0  0  0  0  0
  -15.3000   11.6340   -9.1600 C   0  0  0  0  0  0  0  0  0  0  0  0
  -17.5050   11.7990  -10.5280 C   0  0  0  0  0  0  0  0  0  0  0  0
  -22.0520   11.5870   -8.8150 N   0  0  0  0  0  0  0  0  0  0  0  0
  -28.1275    9.0206   -6.1247 H   0  0  0  0  0  0  0  0  0  0  0  0
  -27.5557    9.7135   -7.6801 H   0  0  0  0  0  0  0  0  0  0  0  0
  -28.6615    8.2980   -7.6801 H   0  0  0  0  0  0  0  0  0  0  0  0
  -26.3934    7.4697   -6.1129 H   0  0  0  0  0  0  0  0  0  0  0  0
  -27.0417    5.6944   -7.3146 H   0  0  0  0  0  0  0  0  0  0  0  0
  -27.7494    6.7083   -8.6176 H   0  0  0  0  0  0  0  0  0  0  0  0
  -25.9903    6.3449   -8.6176 H   0  0  0  0  0  0  0  0  0  0  0  0
  -24.3416    6.5892   -6.1643 H   0  0  0  0  0  0  0  0  0  0  0  0
  -20.7613    6.0497   -5.3450 H   0  0  0  0  0  0  0  0  0  0  0  0
  -22.7341    4.2074   -6.8382 H   0  0  0  0  0  0  0  0  0  0  0  0
  -21.0394    4.6081   -7.3401 H   0  0  0  0  0  0  0  0  0  0  0  0
  -21.2970    2.3317   -6.1853 H   0  0  0  0  0  0  0  0  0  0  0  0
  -20.1087    3.4385   -5.4168 H   0  0  0  0  0  0  0  0  0  0  0  0
  -22.9083    2.9594   -4.5787 H   0  0  0  0  0  0  0  0  0  0  0  0
  -22.5835    4.2424   -2.6158 H   0  0  0  0  0  0  0  0  0  0  0  0
  -20.9311    4.6690   -3.1922 H   0  0  0  0  0  0  0  0  0  0  0  0
  -22.4420    6.5497   -3.7224 H   0  0  0  0  0  0  0  0  0  0  0  0
  -23.6100    5.4354   -4.5199 H   0  0  0  0  0  0  0  0  0  0  0  0
  -19.4812    7.5591   -6.1964 H   0  0  0  0  0  0  0  0  0  0  0  0
  -19.5134    6.6591   -7.7506 H   0  0  0  0  0  0  0  0  0  0  0  0
  -19.3188    8.4448   -7.7506 H   0  0  0  0  0  0  0  0  0  0  0  0
  -21.1397    9.3742   -8.7469 H   0  0  0  0  0  0  0  0  0  0  0  0
  -24.7351    9.8902   -9.3452 H   0  0  0  0  0  0  0  0  0  0  0  0
  -23.4879   13.7199  -11.5978 H   0  0  0  0  0  0  0  0  0  0  0  0
  -19.7062   13.8517   -8.8287 H   0  0  0  0  0  0  0  0  0  0  0  0
  -21.2921   11.3258   -6.7213 H   0  0  0  0  0  0  0  0  0  0  0  0
  -20.1044   10.0835   -4.9199 H   0  0  0  0  0  0  0  0  0  0  0  0
  -17.6281   10.3495   -4.6283 H   0  0  0  0  0  0  0  0  0  0  0  0
  -16.3836   11.9306   -6.1078 H   0  0  0  0  0  0  0  0  0  0  0  0
  -15.9925   13.2429  -10.4300 H   0  0  0  0  0  0  0  0  0  0  0  0
  -15.3112   11.6431   -8.0601 H   0  0  0  0  0  0  0  0  0  0  0  0
  -15.4583   10.6066   -9.5198 H   0  0  0  0  0  0  0  0  0  0  0  0
  -14.3282   12.0029   -9.5198 H   0  0  0  0  0  0  0  0  0  0  0  0
  -18.2134   11.3021   -9.8488 H   0  0  0  0  0  0  0  0  0  0  0  0
  -18.0468   12.5160  -11.1623 H   0  0  0  0  0  0  0  0  0  0  0  0
  -17.0152   11.0455  -11.1623 H   0  0  0  0  0  0  0  0  0  0  0  0
  1  2  1  0
  2  3  1  0
  2  4  1  0
  4  5  1  0
  5  6  2  0
  5 17  1  0
  6  7  1  0
  7  8  1  0
  7 14  2  0
  8  9  1  0
  8 13  1  0
  9 10  1  0
 10 11  1  0
 11 12  1  0
 12 13  1  0
 14 15  1  0
 14 16  1  0
 16 17  2  0
 17 18  1  0
 18 19  1  0
 19 20  2  0
 19 38  1  0
 20 21  1  0
 21 22  2  0
 22 23  1  0
 22 24  1  0
 24 25  1  0
 24 38  2  0
 25 26  1  0
 26 27  2  0
 26 31  1  0
 27 28  1  0
 28 29  2  0
 29 30  1  0
 30 31  2  0
 31 32  1  0
 32 33  2  0
 32 34  2  0
 32 35  1  0
 35 36  1  0
 35 37  1  0
  1 39  1  0
  1 40  1  0
  1 41  1  0
  2 42  1  0
  3 43  1  0
  3 44  1  0
  3 45  1  0
  6 46  1  0
  8 47  1  0
  9 48  1  0
  9 49  1  0
 10 50  1  0
 10 51  1  0
 11 52  1  0
 12 53  1  0
 12 54  1  0
 13 55  1  0
 13 56  1  0
 15 57  1  0
 15 58  1  0
 15 59  1  0
 16 60  1  0
 18 61  1  0
 21 62  1  0
 25 63  1  0
 27 64  1  0
 28 65  1  0
 29 66  1  0
 30 67  1  0
 35 68  1  0
 36 69  1  0
 36 70  1  0
 36 71  1  0
 37 72  1  0
 37 73  1  0
 37 74  1  0
A    1
C1
A    2
C2
A    3
C3
A    4
O4
A    5
C5
A    6
C6
A    7
C7
A    8
C8
A    9
C9
A   10
C10
A   11
N11
A   12
C12
A   13
C13
A   14
C14
A   15
C15
A   16
C16
A   17
C17
A   18
N18
A   19
C19
A   20
N20
A   21
C21
A   22
C22
A   23
CL1
A   24
C24
A   25
N25
A   26
C26
A   27
C27
A   28
C28
A   29
C29
A   30
C30
A   31
C31
A   32
S32
A   33
O33
A   34
O34
A   35
C35
A   36
C36
A   37
C37
A   38
N38
M  END
