4L2L_1V6_A_702
     RDKit          3D

 33 35  0  0  0  0  0  0  0  0999 V2000
   15.9010  -11.9760   14.8680 C   0  0  0  0  0  0  0  0  0  0  0  0
   15.9910  -10.7760   14.1970 C   0  0  0  0  0  0  0  0  0  0  0  0
   15.2980   -9.6600   14.5890 C   0  0  0  0  0  0  0  0  0  0  0  0
   14.5480   -9.7470   15.7740 C   0  0  0  0  0  0  0  0  0  0  0  0
   14.5300  -10.9170   16.5010 C   0  0  0  0  0  0  0  0  0  0  0  0
   15.0890  -12.0780   16.0010 C   0  0  0  0  0  0  0  0  0  0  0  0
   15.0220  -13.2770   16.8040 C   0  0  0  0  0  0  0  0  0  0  0  0
   13.7750  -14.0290   16.8790 C   0  0  0  0  0  0  0  0  0  0  0  0
   13.2980  -14.5220   18.0860 C   0  0  0  0  0  0  0  0  0  0  0  0
   12.1080  -15.2290   18.2380 C   0  0  0  0  0  0  0  0  0  0  0  0
   12.9300  -14.2140   15.8040 C   0  0  0  0  0  0  0  0  0  0  0  0
   11.7160  -14.9080   15.9670 C   0  0  0  0  0  0  0  0  0  0  0  0
   11.2840  -15.4920   17.1620 C   0  0  0  0  0  0  0  0  0  0  0  0
   10.0580  -16.1310   17.3480 C   0  0  0  0  0  0  0  0  0  0  0  0
    9.3920  -16.8220   16.4270 N   0  0  0  0  0  0  0  0  0  0  0  0
    8.2080  -17.4000   16.8190 C   0  0  0  0  0  0  0  0  0  0  0  0
    7.3220  -18.0920   16.1070 N   0  0  0  0  0  0  0  0  0  0  0  0
    7.7840  -17.0110   18.3900 S   0  0  0  0  0  0  0  0  0  0  0  0
    9.3820  -16.0810   18.4940 C   0  0  0  0  0  0  0  0  0  0  0  0
   16.4661  -12.8505   14.5133 H   0  0  0  0  0  0  0  0  0  0  0  0
   16.6433  -10.7110   13.3137 H   0  0  0  0  0  0  0  0  0  0  0  0
   15.3279   -8.7323   13.9987 H   0  0  0  0  0  0  0  0  0  0  0  0
   13.9726   -8.8768   16.1228 H   0  0  0  0  0  0  0  0  0  0  0  0
   14.0626  -10.9274   17.4967 H   0  0  0  0  0  0  0  0  0  0  0  0
   15.7862  -13.9652   16.4136 H   0  0  0  0  0  0  0  0  0  0  0  0
   15.1583  -12.9052   17.8302 H   0  0  0  0  0  0  0  0  0  0  0  0
   13.9033  -14.3412   18.9865 H   0  0  0  0  0  0  0  0  0  0  0  0
   11.8181  -15.5858   19.2374 H   0  0  0  0  0  0  0  0  0  0  0  0
   13.2060  -13.8177   14.8157 H   0  0  0  0  0  0  0  0  0  0  0  0
   11.0587  -14.9975   15.0896 H   0  0  0  0  0  0  0  0  0  0  0  0
    6.6030  -18.6536   16.5850 H   0  0  0  0  0  0  0  0  0  0  0  0
    7.3552  -18.0660   15.0779 H   0  0  0  0  0  0  0  0  0  0  0  0
    9.7303  -15.5517   19.3931 H   0  0  0  0  0  0  0  0  0  0  0  0
  2  3  1  0
  2  1  2  0
  3  4  2  0
  1  6  1  0
  4  5  1  0
 11 12  2  0
 11  8  1  0
 12 13  1  0
  6  5  2  0
  6  7  1  0
 17 16  1  0
 15 16  2  0
 15 14  1  0
  7  8  1  0
 16 18  1  0
  8  9  2  0
 13 14  1  0
 13 10  2  0
 14 19  2  0
  9 10  1  0
 18 19  1  0
  1 20  1  0
  2 21  1  0
  3 22  1  0
  4 23  1  0
  5 24  1  0
  7 25  1  0
  7 26  1  0
  9 27  1  0
 10 28  1  0
 11 29  1  0
 12 30  1  0
 17 31  1  0
 17 32  1  0
 19 33  1  0
A    1
CAE
A    2
CAC
A    3
CAB
A    4
CAD
A    5
CAF
A    6
CAO
A    7
CAL
A    8
CAP
A    9
CAH
A   10
CAJ
A   11
CAG
A   12
CAI
A   13
CAQ
A   14
CAS
A   15
NAM
A   16
CAR
A   17
NAA
A   18
SAN
A   19
CAK
M  END
