4MLP_2CX_C_900
     RDKit          3D

 50 53  0  0  0  0  0  0  0  0999 V2000
   37.5440   62.2430   13.6250 C   0  0  0  0  0  0  0  0  0  0  0  0
   36.5860   59.5940   13.3080 C   0  0  0  0  0  0  0  0  0  0  0  0
   35.6250   60.6520   10.9430 C   0  0  0  0  0  0  0  0  0  0  0  0
   35.1890   62.3410    9.2210 C   0  0  0  0  0  0  0  0  0  0  0  0
   34.9200   59.7010   10.1980 C   0  0  0  0  0  0  0  0  0  0  0  0
   34.8390   66.9840   13.7120 C   0  0  0  0  0  0  0  0  0  0  0  0
   35.9590   66.6200   14.6960 C   0  0  0  0  0  0  0  0  0  0  0  0
   37.8540   66.6090   15.9150 C   0  0  0  0  0  0  0  0  0  0  0  0
   34.1740   67.4460   10.0590 O   0  0  0  0  0  0  0  0  0  0  0  0
   33.9080   67.7280   11.4100 S   0  0  0  0  0  0  0  0  0  0  0  0
   35.2540   67.4390   12.4000 N   0  0  0  0  0  0  0  0  0  0  0  0
   36.1480   66.5350   11.7300 C   0  0  0  0  0  0  0  0  0  0  0  0
   35.7970   64.9950   11.9500 C   0  0  0  0  0  0  0  0  0  0  0  0
   34.5560   64.7550   11.2930 O   0  0  0  0  0  0  0  0  0  0  0  0
   36.8250   64.0960   11.2600 C   0  0  0  0  0  0  0  0  0  0  0  0
   36.4680   62.6840   11.3950 N   0  0  0  0  0  0  0  0  0  0  0  0
   36.8180   61.9070   12.4630 C   0  0  0  0  0  0  0  0  0  0  0  0
   37.7920   61.2350   14.6190 C   0  0  0  0  0  0  0  0  0  0  0  0
   37.2990   59.9180   14.4350 C   0  0  0  0  0  0  0  0  0  0  0  0
   36.3410   60.6190   12.2670 C   0  0  0  0  0  0  0  0  0  0  0  0
   35.7520   61.9580   10.4690 C   0  0  0  0  0  0  0  0  0  0  0  0
   34.4680   61.3630    8.4550 C   0  0  0  0  0  0  0  0  0  0  0  0
   34.3520   60.0770    8.9290 C   0  0  0  0  0  0  0  0  0  0  0  0
   37.1730   67.3030   14.9220 C   0  0  0  0  0  0  0  0  0  0  0  0
   37.0610   65.5150   16.2890 C   0  0  0  0  0  0  0  0  0  0  0  0
   35.9400   65.5680   15.5410 O   0  0  0  0  0  0  0  0  0  0  0  0
   32.4480   66.8180   11.9540 C   0  0  0  0  0  0  0  0  0  0  0  0
   33.6220   69.2130   11.3250 O   0  0  0  0  0  0  0  0  0  0  0  0
   37.9171   63.2677   13.7690 H   0  0  0  0  0  0  0  0  0  0  0  0
   36.1966   58.5735   13.1778 H   0  0  0  0  0  0  0  0  0  0  0  0
   35.3037   63.3695    8.8481 H   0  0  0  0  0  0  0  0  0  0  0  0
   34.8005   58.6756   10.5777 H   0  0  0  0  0  0  0  0  0  0  0  0
   34.2394   67.7848   14.1693 H   0  0  0  0  0  0  0  0  0  0  0  0
   34.2905   66.0470   13.5354 H   0  0  0  0  0  0  0  0  0  0  0  0
   38.8376   66.8708   16.3322 H   0  0  0  0  0  0  0  0  0  0  0  0
   37.1666   66.7147   12.1044 H   0  0  0  0  0  0  0  0  0  0  0  0
   36.0524   66.7328   10.6522 H   0  0  0  0  0  0  0  0  0  0  0  0
   35.7756   64.7797   13.0285 H   0  0  0  0  0  0  0  0  0  0  0  0
   33.8459   64.6177   11.9690 H   0  0  0  0  0  0  0  0  0  0  0  0
   37.8114   64.2620   11.7176 H   0  0  0  0  0  0  0  0  0  0  0  0
   36.8464   64.3491   10.1897 H   0  0  0  0  0  0  0  0  0  0  0  0
   38.3651   61.4854   15.5239 H   0  0  0  0  0  0  0  0  0  0  0  0
   37.4893   59.1513   15.2005 H   0  0  0  0  0  0  0  0  0  0  0  0
   34.0108   61.6411    7.4939 H   0  0  0  0  0  0  0  0  0  0  0  0
   33.8176   59.3248    8.3302 H   0  0  0  0  0  0  0  0  0  0  0  0
   37.5158   68.2135   14.4087 H   0  0  0  0  0  0  0  0  0  0  0  0
   37.3064   64.7576   17.0480 H   0  0  0  0  0  0  0  0  0  0  0  0
   32.4167   66.7985   13.0534 H   0  0  0  0  0  0  0  0  0  0  0  0
   31.5436   67.3126   11.5701 H   0  0  0  0  0  0  0  0  0  0  0  0
   32.4937   65.7882   11.5701 H   0  0  0  0  0  0  0  0  0  0  0  0
 18 19  1  0
 18  1  2  0
 19  2  2  0
  1 17  1  0
  9 10  2  0
  2 20  1  0
 17 20  2  0
 17 16  1  0
 20  3  1  0
 14 13  1  0
 15 16  1  0
 15 13  1  0
 28 10  2  0
 10 27  1  0
 10 11  1  0
 16 21  1  0
 12 13  1  0
 12 11  1  0
  3 21  2  0
  3  5  1  0
 11  6  1  0
 21  4  1  0
  5 23  2  0
  6  7  1  0
  4 22  2  0
 23 22  1  0
  7 24  2  0
  7 26  1  0
 24  8  1  0
 26 25  1  0
  8 25  2  0
  1 29  1  0
  2 30  1  0
  4 31  1  0
  5 32  1  0
  6 33  1  0
  6 34  1  0
  8 35  1  0
 12 36  1  0
 12 37  1  0
 13 38  1  0
 14 39  1  0
 15 40  1  0
 15 41  1  0
 18 42  1  0
 19 43  1  0
 22 44  1  0
 23 45  1  0
 24 46  1  0
 25 47  1  0
 27 48  1  0
 27 49  1  0
 27 50  1  0
A    1
C10
A    2
C13
A    3
C15
A    4
C17
A    5
C20
A    6
C21
A    7
C22
A    8
C24
A    9
O01
A   10
S02
A   11
N03
A   12
C04
A   13
C05
A   14
O06
A   15
C07
A   16
N08
A   17
C09
A   18
C11
A   19
C12
A   20
C14
A   21
C16
A   22
C18
A   23
C19
A   24
C23
A   25
C25
A   26
O26
A   27
C27
A   28
O28
M  END
