4MNE_573_A_903
     RDKit          3D

 41 43  0  0  0  0  0  0  0  0999 V2000
    1.5690  -15.1840  -46.5160 C   0  0  0  0  0  0  0  0  0  0  0  0
    0.1630  -15.7490  -46.3290 C   0  0  0  0  0  0  0  0  0  0  0  0
   -0.5900  -14.9030  -45.3260 C   0  0  0  0  0  0  0  0  0  0  0  0
   -0.1920  -15.2580  -44.0080 O   0  0  0  0  0  0  0  0  0  0  0  0
   -0.6100  -16.5290  -43.4800 N   0  0  0  0  0  0  0  0  0  0  0  0
   -1.8980  -16.9310  -43.3150 C   0  0  0  0  0  0  0  0  0  0  0  0
   -2.8320  -16.2260  -43.6590 O   0  0  0  0  0  0  0  0  0  0  0  0
   -2.1640  -18.2030  -42.7280 C   0  0  0  0  0  0  0  0  0  0  0  0
   -3.4260  -18.7160  -42.4560 C   0  0  0  0  0  0  0  0  0  0  0  0
   -3.1900  -20.0420  -41.8760 C   0  0  0  0  0  0  0  0  0  0  0  0
   -3.9910  -21.0830  -41.4030 C   0  0  0  0  0  0  0  0  0  0  0  0
   -3.4420  -22.1930  -40.9450 N   0  0  0  0  0  0  0  0  0  0  0  0
   -2.1260  -22.3680  -40.9260 C   0  0  0  0  0  0  0  0  0  0  0  0
   -1.2610  -21.3850  -41.3870 C   0  0  0  0  0  0  0  0  0  0  0  0
   -1.7880  -20.1970  -41.8640 C   0  0  0  0  0  0  0  0  0  0  0  0
   -1.2140  -19.0930  -42.3430 O   0  0  0  0  0  0  0  0  0  0  0  0
   -4.6400  -18.0830  -42.6990 N   0  0  0  0  0  0  0  0  0  0  0  0
   -5.5890  -17.8070  -41.6890 C   0  0  0  0  0  0  0  0  0  0  0  0
   -5.4790  -18.3420  -40.4040 C   0  0  0  0  0  0  0  0  0  0  0  0
   -6.4310  -18.0640  -39.4420 C   0  0  0  0  0  0  0  0  0  0  0  0
   -7.5200  -17.2490  -39.7400 C   0  0  0  0  0  0  0  0  0  0  0  0
   -7.6380  -16.7220  -41.0210 C   0  0  0  0  0  0  0  0  0  0  0  0
   -6.6790  -16.9960  -41.9820 C   0  0  0  0  0  0  0  0  0  0  0  0
   -0.5780  -15.6180  -47.5230 O   0  0  0  0  0  0  0  0  0  0  0  0
    0.0850  -21.5310  -41.3880 F   0  0  0  0  0  0  0  0  0  0  0  0
   -6.7960  -16.4720  -43.2100 F   0  0  0  0  0  0  0  0  0  0  0  0
   -8.9640  -16.8170  -38.2730 I   0  0  0  0  0  0  0  0  0  0  0  0
    2.0245  -15.0009  -45.5316 H   0  0  0  0  0  0  0  0  0  0  0  0
    2.1826  -15.9054  -47.0756 H   0  0  0  0  0  0  0  0  0  0  0  0
    1.5128  -14.2386  -47.0756 H   0  0  0  0  0  0  0  0  0  0  0  0
    0.2676  -16.7982  -46.0154 H   0  0  0  0  0  0  0  0  0  0  0  0
   -0.3664  -13.8405  -45.5022 H   0  0  0  0  0  0  0  0  0  0  0  0
   -1.6703  -15.0759  -45.4403 H   0  0  0  0  0  0  0  0  0  0  0  0
    0.1293  -17.1907  -43.2035 H   0  0  0  0  0  0  0  0  0  0  0  0
   -5.0859  -20.9778  -41.4119 H   0  0  0  0  0  0  0  0  0  0  0  0
   -1.7130  -23.3105  -40.5373 H   0  0  0  0  0  0  0  0  0  0  0  0
   -4.8588  -17.8007  -43.6651 H   0  0  0  0  0  0  0  0  0  0  0  0
   -4.6264  -18.9909  -40.1552 H   0  0  0  0  0  0  0  0  0  0  0  0
   -6.3279  -18.4898  -38.4330 H   0  0  0  0  0  0  0  0  0  0  0  0
   -8.4978  -16.0838  -41.2728 H   0  0  0  0  0  0  0  0  0  0  0  0
   -1.5288  -15.4499  -47.3045 H   0  0  0  0  0  0  0  0  0  0  0  0
 24  2  1  0
  1  2  1  0
  2  3  1  0
  3  4  1  0
  4  5  1  0
  7  6  2  0
  5  6  1  0
  6  8  1  0
 26 23  1  0
  8  9  2  0
  8 16  1  0
 17  9  1  0
 17 18  1  0
  9 10  1  0
 16 15  1  0
 23 18  1  0
 23 22  2  0
 10 15  2  0
 10 11  1  0
 15 14  1  0
 18 19  2  0
 11 12  2  0
 25 14  1  0
 14 13  2  0
 22 21  1  0
 12 13  1  0
 19 20  1  0
 21 20  2  0
 21 27  1  0
  1 28  1  0
  1 29  1  0
  1 30  1  0
  2 31  1  0
  3 32  1  0
  3 33  1  0
  5 34  1  0
 11 35  1  0
 13 36  1  0
 17 37  1  0
 19 38  1  0
 20 39  1  0
 22 40  1  0
 24 41  1  0
A    1
C1
A    2
C2
A    3
C4
A    4
O5
A    5
N6
A    6
C7
A    7
O8
A    8
C9
A    9
C10
A   10
C11
A   11
C12
A   12
N13
A   13
C14
A   14
C15
A   15
C16
A   16
O17
A   17
N19
A   18
C20
A   19
C21
A   20
C22
A   21
C23
A   22
C24
A   23
C25
A   24
O28
A   25
F18
A   26
F26
A   27
I27
M  END
