4MNS_2AX_A_201
     RDKit          3D

 36 38  0  0  0  0  0  0  0  0999 V2000
    0.9140    5.1110   13.5430 C   0  0  0  0  0  0  0  0  0  0  0  0
    1.7950    4.5090   14.5410 C   0  0  0  0  0  0  0  0  0  0  0  0
    2.1980    3.1890   14.3370 C   0  0  0  0  0  0  0  0  0  0  0  0
    3.2670    3.1220   16.3710 C   0  0  0  0  0  0  0  0  0  0  0  0
    2.9290    4.4530   16.6470 C   0  0  0  0  0  0  0  0  0  0  0  0
    1.7660    6.5030   16.0040 C   0  0  0  0  0  0  0  0  0  0  0  0
   -0.7080    9.0570   14.8950 C   0  0  0  0  0  0  0  0  0  0  0  0
   -2.3910   10.3350   16.0710 O   0  0  0  0  0  0  0  0  0  0  0  0
   -1.2620    9.9650   15.9900 C   0  0  0  0  0  0  0  0  0  0  0  0
   -0.4280   10.3670   16.9170 O   0  0  0  0  0  0  0  0  0  0  0  0
   -0.5970    9.8170   13.5850 C   0  0  0  0  0  0  0  0  0  0  0  0
    0.1480   11.1000   13.8510 C   0  0  0  0  0  0  0  0  0  0  0  0
    0.6720    8.5370   15.2560 C   0  0  0  0  0  0  0  0  0  0  0  0
    0.5640    7.0510   15.2740 C   0  0  0  0  0  0  0  0  0  0  0  0
    0.1240    6.3600   13.9170 C   0  0  0  0  0  0  0  0  0  0  0  0
   -0.3110    7.3200   12.3900 S   0  0  0  0  0  0  0  0  0  0  0  0
    0.2160    9.0230   12.5710 C   0  0  0  0  0  0  0  0  0  0  0  0
    2.2720    7.1730   16.8960 O   0  0  0  0  0  0  0  0  0  0  0  0
    2.1810    5.1410   15.7120 C   0  0  0  0  0  0  0  0  0  0  0  0
    0.7420    4.5310   12.4790 O   0  0  0  0  0  0  0  0  0  0  0  0
    2.9080    2.4880   15.2290 N   0  0  0  0  0  0  0  0  0  0  0  0
    1.9174    2.6985   13.3932 H   0  0  0  0  0  0  0  0  0  0  0  0
    3.8521    2.5648   17.1175 H   0  0  0  0  0  0  0  0  0  0  0  0
    3.2501    4.9363   17.5815 H   0  0  0  0  0  0  0  0  0  0  0  0
   -1.4036    8.2112   14.7912 H   0  0  0  0  0  0  0  0  0  0  0  0
   -0.6594   10.2555   17.8731 H   0  0  0  0  0  0  0  0  0  0  0  0
   -1.6076    9.9975   13.1899 H   0  0  0  0  0  0  0  0  0  0  0  0
    0.2373   11.2538   14.9365 H   0  0  0  0  0  0  0  0  0  0  0  0
    1.1519   11.0402   13.4053 H   0  0  0  0  0  0  0  0  0  0  0  0
   -0.4015   11.9423   13.4053 H   0  0  0  0  0  0  0  0  0  0  0  0
    1.4088    8.8568   14.5044 H   0  0  0  0  0  0  0  0  0  0  0  0
    1.0056    8.9267   16.2290 H   0  0  0  0  0  0  0  0  0  0  0  0
   -0.3237    6.7533   15.8513 H   0  0  0  0  0  0  0  0  0  0  0  0
   -0.8802    6.1202   14.2967 H   0  0  0  0  0  0  0  0  0  0  0  0
    1.2684    9.0276   12.8912 H   0  0  0  0  0  0  0  0  0  0  0  0
    0.0691    9.5078   11.5946 H   0  0  0  0  0  0  0  0  0  0  0  0
 16 17  1  0
 16 15  1  0
 20  1  2  0
 17 11  1  0
  1 15  1  0
  1  2  1  0
 11 12  1  0
 11  7  1  0
 15 14  1  0
  3  2  2  0
  3 21  1  0
  2 19  1  0
  7 13  1  0
  7  9  1  0
 21  4  2  0
 13 14  1  0
 14  6  1  0
 19  6  1  0
 19  5  2  0
  9  8  2  0
  9 10  1  0
  6 18  2  0
  4  5  1  0
  3 22  1  0
  4 23  1  0
  5 24  1  0
  7 25  1  0
 10 26  1  0
 11 27  1  0
 12 28  1  0
 12 29  1  0
 12 30  1  0
 13 31  1  0
 13 32  1  0
 14 33  1  0
 15 34  1  0
 17 35  1  0
 17 36  1  0
A    1
C4
A    2
C5
A    3
C6
A    4
C7
A    5
C8
A    6
C10
A    7
C13
A    8
O2
A    9
C14
A   10
O3
A   11
C1
A   12
C
A   13
C12
A   14
C11
A   15
C3
A   16
S
A   17
C2
A   18
O1
A   19
C9
A   20
O
A   21
N
M  END
