4MNY_29O_C_101
     RDKit          3D

 33 33  0  0  0  0  0  0  0  0999 V2000
  -29.3680   -0.9990  -35.3280 C   0  0  0  0  0  0  0  0  0  0  0  0
  -30.1300   -1.5540  -36.3530 C   0  0  0  0  0  0  0  0  0  0  0  0
  -30.1520   -0.9160  -37.5940 C   0  0  0  0  0  0  0  0  0  0  0  0
  -29.4730    0.2750  -37.8080 C   0  0  0  0  0  0  0  0  0  0  0  0
  -28.7010    0.8100  -36.7860 C   0  0  0  0  0  0  0  0  0  0  0  0
  -28.6760    0.1920  -35.5380 C   0  0  0  0  0  0  0  0  0  0  0  0
  -29.2760   -1.5500  -34.0050 N   0  0  0  0  0  0  0  0  0  0  0  0
  -28.0460    2.0710  -36.9320 N   0  0  0  0  0  0  0  0  0  0  0  0
  -27.7860    2.7570  -38.1510 C   0  0  0  0  0  0  0  0  0  0  0  0
  -29.8620   -2.7470  -33.4960 C   0  0  0  0  0  0  0  0  0  0  0  0
  -29.6130   -3.0300  -32.0500 C   0  0  0  0  0  0  0  0  0  0  0  0
  -30.5410   -3.5280  -34.1660 O   0  0  0  0  0  0  0  0  0  0  0  0
  -28.0050    2.2730  -39.2480 O   0  0  0  0  0  0  0  0  0  0  0  0
  -27.1820    4.1130  -38.0240 C   0  0  0  0  0  0  0  0  0  0  0  0
  -30.9320   -1.3800  -38.7010 N   0  0  0  0  0  0  0  0  0  0  0  0
  -31.5900   -2.6490  -38.8230 C   0  0  0  0  0  0  0  0  0  0  0  0
  -31.4890   -3.5470  -37.9890 O   0  0  0  0  0  0  0  0  0  0  0  0
  -32.4260   -2.8690  -40.0390 C   0  0  0  0  0  0  0  0  0  0  0  0
  -30.7037   -2.4778  -36.1876 H   0  0  0  0  0  0  0  0  0  0  0  0
  -29.5457    0.7898  -38.7774 H   0  0  0  0  0  0  0  0  0  0  0  0
  -28.1069    0.6466  -34.7137 H   0  0  0  0  0  0  0  0  0  0  0  0
  -28.7118   -1.0089  -33.3343 H   0  0  0  0  0  0  0  0  0  0  0  0
  -27.7296    2.5306  -36.0662 H   0  0  0  0  0  0  0  0  0  0  0  0
  -30.2148   -2.3460  -31.4336 H   0  0  0  0  0  0  0  0  0  0  0  0
  -29.8947   -4.0694  -31.8260 H   0  0  0  0  0  0  0  0  0  0  0  0
  -28.5461   -2.8829  -31.8260 H   0  0  0  0  0  0  0  0  0  0  0  0
  -27.0693    4.3660  -36.9594 H   0  0  0  0  0  0  0  0  0  0  0  0
  -26.1949    4.1217  -38.5094 H   0  0  0  0  0  0  0  0  0  0  0  0
  -27.8358    4.8525  -38.5094 H   0  0  0  0  0  0  0  0  0  0  0  0
  -31.0316   -0.7327  -39.4960 H   0  0  0  0  0  0  0  0  0  0  0  0
  -33.4489   -3.1382  -39.7369 H   0  0  0  0  0  0  0  0  0  0  0  0
  -32.4513   -1.9469  -40.6383 H   0  0  0  0  0  0  0  0  0  0  0  0
  -31.9942   -3.6841  -40.6383 H   0  0  0  0  0  0  0  0  0  0  0  0
 18 16  1  0
 13  9  2  0
 16 15  1  0
 16 17  2  0
 15  3  1  0
  9 14  1  0
  9  8  1  0
  4  3  2  0
  4  5  1  0
  3  2  1  0
  8  5  1  0
  5  6  2  0
  2  1  2  0
  6  1  1  0
  1  7  1  0
 12 10  2  0
  7 10  1  0
 10 11  1  0
  2 19  1  0
  4 20  1  0
  6 21  1  0
  7 22  1  0
  8 23  1  0
 11 24  1  0
 11 25  1  0
 11 26  1  0
 14 27  1  0
 14 28  1  0
 14 29  1  0
 15 30  1  0
 18 31  1  0
 18 32  1  0
 18 33  1  0
A    1
C1
A    2
C2
A    3
C3
A    4
C4
A    5
C5
A    6
C6
A    7
N1
A    8
N2
A    9
C7
A   10
C8
A   11
C9
A   12
O1
A   13
O2
A   14
C10
A   15
N3
A   16
C11
A   17
O3
A   18
C12
M  END
