4MPV_2A4_A_301
     RDKit          3D

120126  0  0  0  0  0  0  0  0999 V2000
   29.7750  -17.9580   20.0650 O   0  0  0  0  0  0  0  0  0  0  0  0
   29.7830  -16.7900   20.2260 C   0  0  0  0  0  0  0  0  0  0  0  0
   29.5490  -16.2700   21.4090 N   0  0  0  0  0  0  0  0  0  0  0  0
   29.7060  -14.8690   21.6830 C   0  0  0  0  0  0  0  0  0  0  0  0
   30.8260  -14.7720   22.6970 C   0  0  0  0  0  0  0  0  0  0  0  0
   30.5110  -15.5680   23.9400 C   0  0  0  0  0  0  0  0  0  0  0  0
   31.6270  -15.3830   24.8850 C   0  0  0  0  0  0  0  0  0  0  0  0
   32.7740  -16.1580   24.9930 C   0  0  0  0  0  0  0  0  0  0  0  0
   33.7190  -15.7840   25.9380 C   0  0  0  0  0  0  0  0  0  0  0  0
   35.0100  -16.4830   26.2160 C   0  0  0  0  0  0  0  0  0  0  0  0
   35.3350  -17.4730   25.2550 N   0  0  0  0  0  0  0  0  0  0  0  0
   33.5230  -14.6920   26.7420 C   0  0  0  0  0  0  0  0  0  0  0  0
   32.3960  -13.9340   26.6260 C   0  0  0  0  0  0  0  0  0  0  0  0
   31.4610  -14.2890   25.6980 C   0  0  0  0  0  0  0  0  0  0  0  0
   30.2110  -17.0030   23.5800 C   0  0  0  0  0  0  0  0  0  0  0  0
   29.1150  -17.0570   22.5290 C   0  0  0  0  0  0  0  0  0  0  0  0
   30.0610  -15.9690   19.0300 C   0  0  0  0  0  0  0  0  0  0  0  0
   31.2550  -16.0860   18.3570 C   0  0  0  0  0  0  0  0  0  0  0  0
   31.4960  -15.3200   17.2250 C   0  0  0  0  0  0  0  0  0  0  0  0
   30.5390  -14.4380   16.7730 C   0  0  0  0  0  0  0  0  0  0  0  0
   29.1080  -15.1060   18.5640 C   0  0  0  0  0  0  0  0  0  0  0  0
   29.3400  -14.3330   17.4520 C   0  0  0  0  0  0  0  0  0  0  0  0
   28.3490  -13.5110   17.0830 N   0  0  0  0  0  0  0  0  0  0  0  0
   28.3720  -12.7380   16.0210 C   0  0  0  0  0  0  0  0  0  0  0  0
   29.1670  -12.7910   15.1340 O   0  0  0  0  0  0  0  0  0  0  0  0
   27.2970  -11.7180   15.9480 C   0  0  0  0  0  0  0  0  0  0  0  0
   27.0030  -11.4150   14.5980 O   0  0  0  0  0  0  0  0  0  0  0  0
   27.5290  -10.4660   16.8010 C   0  0  0  0  0  0  0  0  0  0  0  0
   27.2110   -9.1660   16.0820 C   0  0  0  0  0  0  0  0  0  0  0  0
   28.9200  -10.2930   17.3830 C   0  0  0  0  0  0  0  0  0  0  0  0
   26.1880  -12.3760   16.5060 O   0  0  0  0  0  0  0  0  0  0  0  0
   25.6650  -11.6860   17.6120 C   0  0  0  0  0  0  0  0  0  0  0  0
   26.6300  -10.6880   17.8690 O   0  0  0  0  0  0  0  0  0  0  0  0
   25.5370  -12.5770   18.8380 C   0  0  0  0  0  0  0  0  0  0  0  0
   25.3630  -14.0340   18.4710 C   0  0  0  0  0  0  0  0  0  0  0  0
   26.7620  -12.4460   19.5580 O   0  0  0  0  0  0  0  0  0  0  0  0
   24.3930  -12.1550   19.7440 C   0  0  0  0  0  0  0  0  0  0  0  0
   24.4600  -10.9190   17.1760 C   0  0  0  0  0  0  0  0  0  0  0  0
   23.3800  -11.4140   16.9210 O   0  0  0  0  0  0  0  0  0  0  0  0
   24.7360   -9.6300   17.1200 N   0  0  0  0  0  0  0  0  0  0  0  0
   24.0970   -8.7460   16.3580 C   0  0  0  0  0  0  0  0  0  0  0  0
   22.7430   -8.8210   16.2930 C   0  0  0  0  0  0  0  0  0  0  0  0
   22.0390   -7.9350   15.5420 C   0  0  0  0  0  0  0  0  0  0  0  0
   22.6730   -6.9340   14.8550 C   0  0  0  0  0  0  0  0  0  0  0  0
   24.0410   -6.8510   14.9340 C   0  0  0  0  0  0  0  0  0  0  0  0
   24.7640   -7.7530   15.6830 C   0  0  0  0  0  0  0  0  0  0  0  0
   20.5810   -8.1500   15.5500 C   0  0  0  0  0  0  0  0  0  0  0  0
   19.9220   -7.3690   16.1740 O   0  0  0  0  0  0  0  0  0  0  0  0
   20.0680   -9.1960   14.9250 N   0  0  0  0  0  0  0  0  0  0  0  0
   18.6720   -9.5050   14.9700 C   0  0  0  0  0  0  0  0  0  0  0  0
   18.1960   -9.2690   13.5670 C   0  0  0  0  0  0  0  0  0  0  0  0
   18.9580  -10.1550   12.6160 C   0  0  0  0  0  0  0  0  0  0  0  0
   20.4300   -9.8550   12.7220 C   0  0  0  0  0  0  0  0  0  0  0  0
   20.8570  -10.1220   14.1470 C   0  0  0  0  0  0  0  0  0  0  0  0
   18.5350   -9.9910   11.2220 C   0  0  0  0  0  0  0  0  0  0  0  0
   18.3070   -8.7690   10.6430 C   0  0  0  0  0  0  0  0  0  0  0  0
   17.9320   -8.6960    9.3270 C   0  0  0  0  0  0  0  0  0  0  0  0
   17.6760   -7.3960    8.6470 C   0  0  0  0  0  0  0  0  0  0  0  0
   16.4650   -6.8530    9.1790 N   0  0  0  0  0  0  0  0  0  0  0  0
   17.7730   -9.8280    8.5910 C   0  0  0  0  0  0  0  0  0  0  0  0
   18.0010  -11.0300    9.1730 C   0  0  0  0  0  0  0  0  0  0  0  0
   18.3770  -11.1220   10.4810 C   0  0  0  0  0  0  0  0  0  0  0  0
   29.9726  -14.3262   20.7642 H   0  0  0  0  0  0  0  0  0  0  0  0
   28.7750  -14.4232   22.0631 H   0  0  0  0  0  0  0  0  0  0  0  0
   31.7513  -15.1612   22.2472 H   0  0  0  0  0  0  0  0  0  0  0  0
   30.9459  -13.7163   22.9819 H   0  0  0  0  0  0  0  0  0  0  0  0
   29.5980  -15.2137   24.4410 H   0  0  0  0  0  0  0  0  0  0  0  0
   32.9283  -17.0382   24.3516 H   0  0  0  0  0  0  0  0  0  0  0  0
   34.9397  -16.9649   27.2023 H   0  0  0  0  0  0  0  0  0  0  0  0
   35.8042  -15.7228   26.1789 H   0  0  0  0  0  0  0  0  0  0  0  0
   35.6191  -18.3383   25.7361 H   0  0  0  0  0  0  0  0  0  0  0  0
   34.5120  -17.6623   24.6653 H   0  0  0  0  0  0  0  0  0  0  0  0
   34.2839  -14.4239   27.4898 H   0  0  0  0  0  0  0  0  0  0  0  0
   32.2435  -13.0537   27.2677 H   0  0  0  0  0  0  0  0  0  0  0  0
   30.5490  -13.6821   25.5984 H   0  0  0  0  0  0  0  0  0  0  0  0
   29.8800  -17.5426   24.4796 H   0  0  0  0  0  0  0  0  0  0  0  0
   31.1209  -17.4720   23.1772 H   0  0  0  0  0  0  0  0  0  0  0  0
   28.1816  -16.6437   22.9388 H   0  0  0  0  0  0  0  0  0  0  0  0
   28.9255  -18.0959   22.2212 H   0  0  0  0  0  0  0  0  0  0  0  0
   32.0209  -16.7886   18.7170 H   0  0  0  0  0  0  0  0  0  0  0  0
   32.4514  -15.4171   16.6885 H   0  0  0  0  0  0  0  0  0  0  0  0
   30.7275  -13.8234   15.8804 H   0  0  0  0  0  0  0  0  0  0  0  0
   28.1429  -15.0297   19.0863 H   0  0  0  0  0  0  0  0  0  0  0  0
   27.5069  -13.4828   17.6755 H   0  0  0  0  0  0  0  0  0  0  0  0
   26.3141  -10.7050   14.5616 H   0  0  0  0  0  0  0  0  0  0  0  0
   27.0176   -8.3755   16.8221 H   0  0  0  0  0  0  0  0  0  0  0  0
   28.0650   -8.8772   15.4517 H   0  0  0  0  0  0  0  0  0  0  0  0
   26.3201   -9.3040   15.4517 H   0  0  0  0  0  0  0  0  0  0  0  0
   28.8614  -10.3003   18.4814 H   0  0  0  0  0  0  0  0  0  0  0  0
   29.5642  -11.1179   17.0447 H   0  0  0  0  0  0  0  0  0  0  0  0
   29.3425   -9.3354   17.0447 H   0  0  0  0  0  0  0  0  0  0  0  0
   25.2910  -14.6371   19.3881 H   0  0  0  0  0  0  0  0  0  0  0  0
   24.4439  -14.1558   17.8790 H   0  0  0  0  0  0  0  0  0  0  0  0
   26.2275  -14.3688   17.8790 H   0  0  0  0  0  0  0  0  0  0  0  0
   26.5770  -12.4658   20.5304 H   0  0  0  0  0  0  0  0  0  0  0  0
   24.6972  -12.2672   20.7951 H   0  0  0  0  0  0  0  0  0  0  0  0
   24.1376  -11.1035   19.5465 H   0  0  0  0  0  0  0  0  0  0  0  0
   23.5159  -12.7888   19.5465 H   0  0  0  0  0  0  0  0  0  0  0  0
   25.5043   -9.2816   17.7109 H   0  0  0  0  0  0  0  0  0  0  0  0
   22.2122   -9.6052   16.8527 H   0  0  0  0  0  0  0  0  0  0  0  0
   22.0993   -6.2132   14.2539 H   0  0  0  0  0  0  0  0  0  0  0  0
   24.5676   -6.0523   14.3911 H   0  0  0  0  0  0  0  0  0  0  0  0
   25.8600   -7.6791   15.7398 H   0  0  0  0  0  0  0  0  0  0  0  0
   18.1487   -8.8431   15.6758 H   0  0  0  0  0  0  0  0  0  0  0  0
   18.4793  -10.5324   15.3125 H   0  0  0  0  0  0  0  0  0  0  0  0
   18.3614   -8.2155   13.2972 H   0  0  0  0  0  0  0  0  0  0  0  0
   17.1231   -9.5031   13.5023 H   0  0  0  0  0  0  0  0  0  0  0  0
   18.7461  -11.1952   12.9044 H   0  0  0  0  0  0  0  0  0  0  0  0
   20.9940  -10.5032   12.0351 H   0  0  0  0  0  0  0  0  0  0  0  0
   20.6279   -8.8070   12.4527 H   0  0  0  0  0  0  0  0  0  0  0  0
   20.6366  -11.1609   14.4335 H   0  0  0  0  0  0  0  0  0  0  0  0
   21.9385   -9.9890   14.2979 H   0  0  0  0  0  0  0  0  0  0  0  0
   18.4249   -7.8488   11.2340 H   0  0  0  0  0  0  0  0  0  0  0  0
   17.5700   -7.5553    7.5638 H   0  0  0  0  0  0  0  0  0  0  0  0
   18.5136   -6.7033    8.8165 H   0  0  0  0  0  0  0  0  0  0  0  0
   16.5039   -6.8704   10.2081 H   0  0  0  0  0  0  0  0  0  0  0  0
   16.3534   -5.8813    8.8561 H   0  0  0  0  0  0  0  0  0  0  0  0
   17.4634   -9.7688    7.5371 H   0  0  0  0  0  0  0  0  0  0  0  0
   17.8807  -11.9486    8.5799 H   0  0  0  0  0  0  0  0  0  0  0  0
   18.5522  -12.1080   10.9361 H   0  0  0  0  0  0  0  0  0  0  0  0
 60 61  2  0
 60 57  1  0
 58 59  1  0
 58 57  1  0
 61 62  1  0
 57 56  2  0
 62 55  2  0
 56 55  1  0
 55 52  1  0
 52 53  1  0
 52 51  1  0
 53 54  1  0
 51 50  1  0
 54 49  1  0
 27 26  1  0
 44 45  2  0
 44 43  1  0
 49 50  1  0
 49 47  1  0
 45 46  1  0
 25 24  2  0
 43 47  1  0
 43 42  2  0
 47 48  2  0
 46 41  2  0
 26 24  1  0
 26 31  1  0
 26 28  1  0
 24 23  1  0
 29 28  1  0
 42 41  1  0
 41 40  1  0
 31 32  1  0
 20 19  1  0
 20 22  2  0
 28 30  1  0
 28 33  1  0
 39 38  2  0
 23 22  1  0
 40 38  1  0
 38 32  1  0
 19 18  2  0
 22 21  1  0
 32 33  1  0
 32 34  1  0
 18 17  1  0
 35 34  1  0
 21 17  2  0
 34 36  1  0
 34 37  1  0
 17  2  1  0
  1  2  2  0
  2  3  1  0
  3  4  1  0
  3 16  1  0
  4  5  1  0
 16 15  1  0
  5  6  1  0
 15  6  1  0
  6  7  1  0
  7  8  2  0
  7 14  1  0
  8  9  1  0
 11 10  1  0
 14 13  2  0
  9 10  1  0
  9 12  2  0
 13 12  1  0
  4 63  1  0
  4 64  1  0
  5 65  1  0
  5 66  1  0
  6 67  1  0
  8 68  1  0
 10 69  1  0
 10 70  1  0
 11 71  1  0
 11 72  1  0
 12 73  1  0
 13 74  1  0
 14 75  1  0
 15 76  1  0
 15 77  1  0
 16 78  1  0
 16 79  1  0
 18 80  1  0
 19 81  1  0
 20 82  1  0
 21 83  1  0
 23 84  1  0
 27 85  1  0
 29 86  1  0
 29 87  1  0
 29 88  1  0
 30 89  1  0
 30 90  1  0
 30 91  1  0
 35 92  1  0
 35 93  1  0
 35 94  1  0
 36 95  1  0
 37 96  1  0
 37 97  1  0
 37 98  1  0
 40 99  1  0
 42100  1  0
 44101  1  0
 45102  1  0
 46103  1  0
 50104  1  0
 50105  1  0
 51106  1  0
 51107  1  0
 52108  1  0
 53109  1  0
 53110  1  0
 54111  1  0
 54112  1  0
 56113  1  0
 58114  1  0
 58115  1  0
 59116  1  0
 59117  1  0
 60118  1  0
 61119  1  0
 62120  1  0
A    1
O8
A    2
C36
A    3
N5
A    4
C41
A    5
C40
A    6
C39
A    7
C42
A    8
C47
A    9
C46
A   10
C48
A   11
N6
A   12
C45
A   13
C44
A   14
C43
A   15
C38
A   16
C37
A   17
C34
A   18
C33
A   19
C32
A   20
C31
A   21
C35
A   22
C30
A   23
N4
A   24
C29
A   25
O7
A   26
C1
A   27
O6
A   28
C2
A   29
C28
A   30
C3
A   31
O3
A   32
C4
A   33
O1
A   34
C5
A   35
C7
A   36
O2
A   37
C6
A   38
C8
A   39
O4
A   40
N1
A   41
C9
A   42
C14
A   43
C13
A   44
C12
A   45
C11
A   46
C10
A   47
C15
A   48
O5
A   49
N2
A   50
C20
A   51
C19
A   52
C18
A   53
C17
A   54
C16
A   55
C21
A   56
C26
A   57
C25
A   58
C27
A   59
N3
A   60
C24
A   61
C23
A   62
C22
M  END
