4MPX_2AV_B_301
     RDKit          3D

111118  0  0  0  0  0  0  0  0999 V2000
  -29.7240  -18.1230    6.7460 O   0  0  0  0  0  0  0  0  0  0  0  0
  -29.6090  -16.9220    6.6320 C   0  0  0  0  0  0  0  0  0  0  0  0
  -29.3530  -16.3430    5.4680 N   0  0  0  0  0  0  0  0  0  0  0  0
  -29.3430  -14.8710    5.2340 C   0  0  0  0  0  0  0  0  0  0  0  0
  -30.6610  -14.6340    4.4220 C   0  0  0  0  0  0  0  0  0  0  0  0
  -30.6550  -15.4490    3.1140 C   0  0  0  0  0  0  0  0  0  0  0  0
  -31.8650  -15.3130    2.2600 C   0  0  0  0  0  0  0  0  0  0  0  0
  -32.9480  -16.1400    2.3860 C   0  0  0  0  0  0  0  0  0  0  0  0
  -34.0610  -15.9690    1.5550 C   0  0  0  0  0  0  0  0  0  0  0  0
  -35.2710  -16.8050    1.7330 C   0  0  0  0  0  0  0  0  0  0  0  0
  -34.9810  -18.1360    1.2930 N   0  0  0  0  0  0  0  0  0  0  0  0
  -34.0610  -14.9910    0.5620 C   0  0  0  0  0  0  0  0  0  0  0  0
  -32.9320  -14.1850    0.4050 C   0  0  0  0  0  0  0  0  0  0  0  0
  -31.8230  -14.3610    1.2350 C   0  0  0  0  0  0  0  0  0  0  0  0
  -30.4260  -16.9460    3.3740 C   0  0  0  0  0  0  0  0  0  0  0  0
  -29.1730  -17.1430    4.2300 C   0  0  0  0  0  0  0  0  0  0  0  0
  -29.7340  -16.1380    7.8740 C   0  0  0  0  0  0  0  0  0  0  0  0
  -31.0330  -16.2650    9.0090 S   0  0  0  0  0  0  0  0  0  0  0  0
  -28.7960  -15.2530    8.3180 C   0  0  0  0  0  0  0  0  0  0  0  0
  -29.1060  -14.6650    9.5600 C   0  0  0  0  0  0  0  0  0  0  0  0
  -30.2950  -15.1560   10.0540 C   0  0  0  0  0  0  0  0  0  0  0  0
  -30.8210  -14.7230   11.2840 C   0  0  0  0  0  0  0  0  0  0  0  0
  -30.0800  -13.7790   11.9750 C   0  0  0  0  0  0  0  0  0  0  0  0
  -28.8800  -13.2590   11.4710 C   0  0  0  0  0  0  0  0  0  0  0  0
  -28.3770  -13.7120   10.2660 C   0  0  0  0  0  0  0  0  0  0  0  0
  -26.7810  -13.0260    9.5450 Si  0  0  0  0  0  4  0  0  0  0  0  0
  -27.2790  -12.0800    8.0050 C   0  0  0  0  0  0  0  0  0  0  0  0
  -25.5260  -14.3420    9.1150 C   0  0  0  0  0  0  0  0  0  0  0  0
  -26.1190  -11.9310   10.5180 O   0  0  0  0  0  0  0  0  0  0  0  0
  -24.6810  -11.1990   10.3520 Si  0  0  0  0  0  4  0  0  0  0  0  0
  -23.8840  -11.1670    8.6650 C   0  0  0  0  0  0  0  0  0  0  0  0
  -23.5260  -12.1470   11.4900 C   0  0  0  0  0  0  0  0  0  0  0  0
  -25.0700   -9.4920   11.0010 C   0  0  0  0  0  0  0  0  0  0  0  0
  -24.0020   -8.7720   11.4950 C   0  0  0  0  0  0  0  0  0  0  0  0
  -24.1970   -7.4910   11.9950 C   0  0  0  0  0  0  0  0  0  0  0  0
  -25.4630   -6.8930   12.0340 C   0  0  0  0  0  0  0  0  0  0  0  0
  -26.5480   -7.6360   11.5210 C   0  0  0  0  0  0  0  0  0  0  0  0
  -26.3430   -8.9380   11.0100 C   0  0  0  0  0  0  0  0  0  0  0  0
  -22.6390   -9.2000   11.5650 C   0  0  0  0  0  0  0  0  0  0  0  0
  -21.8280   -8.2600   12.1000 C   0  0  0  0  0  0  0  0  0  0  0  0
  -22.7300   -6.8290   12.5300 S   0  0  0  0  0  0  0  0  0  0  0  0
  -20.3860   -8.3880   12.2590 C   0  0  0  0  0  0  0  0  0  0  0  0
  -19.7810   -7.4770   11.7850 O   0  0  0  0  0  0  0  0  0  0  0  0
  -19.8220   -9.4420   12.8500 N   0  0  0  0  0  0  0  0  0  0  0  0
  -20.4900  -10.5630   13.5240 C   0  0  0  0  0  0  0  0  0  0  0  0
  -20.1250  -10.2280   14.9930 C   0  0  0  0  0  0  0  0  0  0  0  0
  -18.5750  -10.2740   15.1810 C   0  0  0  0  0  0  0  0  0  0  0  0
  -17.8700   -9.2920   14.2520 C   0  0  0  0  0  0  0  0  0  0  0  0
  -18.3770   -9.5380   12.8980 C   0  0  0  0  0  0  0  0  0  0  0  0
  -18.1550  -10.0540   16.6110 C   0  0  0  0  0  0  0  0  0  0  0  0
  -17.8840   -8.8120   17.1720 C   0  0  0  0  0  0  0  0  0  0  0  0
  -17.5180   -8.6370   18.5100 C   0  0  0  0  0  0  0  0  0  0  0  0
  -17.2460   -7.2840   19.0800 C   0  0  0  0  0  0  0  0  0  0  0  0
  -16.0430   -6.7110   18.4930 N   0  0  0  0  0  0  0  0  0  0  0  0
  -17.3680   -9.7340   19.3200 C   0  0  0  0  0  0  0  0  0  0  0  0
  -17.6730  -10.9940   18.7940 C   0  0  0  0  0  0  0  0  0  0  0  0
  -18.0240  -11.1800   17.4610 C   0  0  0  0  0  0  0  0  0  0  0  0
  -28.4601  -14.5694    4.6513 H   0  0  0  0  0  0  0  0  0  0  0  0
  -29.2954  -14.2848    6.1636 H   0  0  0  0  0  0  0  0  0  0  0  0
  -30.7473  -13.5645    4.1796 H   0  0  0  0  0  0  0  0  0  0  0  0
  -31.5147  -14.9591    5.0348 H   0  0  0  0  0  0  0  0  0  0  0  0
  -29.8165  -15.0050    2.5574 H   0  0  0  0  0  0  0  0  0  0  0  0
  -32.9437  -16.9399    3.1411 H   0  0  0  0  0  0  0  0  0  0  0  0
  -36.0976  -16.3905    1.1372 H   0  0  0  0  0  0  0  0  0  0  0  0
  -35.5641  -16.8174    2.7932 H   0  0  0  0  0  0  0  0  0  0  0  0
  -34.8479  -18.7469    2.1116 H   0  0  0  0  0  0  0  0  0  0  0  0
  -35.7649  -18.4884    0.7254 H   0  0  0  0  0  0  0  0  0  0  0  0
  -34.9378  -14.8562   -0.0885 H   0  0  0  0  0  0  0  0  0  0  0  0
  -32.9160  -13.4092   -0.3747 H   0  0  0  0  0  0  0  0  0  0  0  0
  -30.9188  -13.7531    1.0836 H   0  0  0  0  0  0  0  0  0  0  0  0
  -31.2969  -17.3614    3.9021 H   0  0  0  0  0  0  0  0  0  0  0  0
  -30.2913  -17.4629    2.4124 H   0  0  0  0  0  0  0  0  0  0  0  0
  -29.0537  -18.2068    4.4834 H   0  0  0  0  0  0  0  0  0  0  0  0
  -28.2742  -16.8193    3.6846 H   0  0  0  0  0  0  0  0  0  0  0  0
  -27.8794  -15.0193    7.7565 H   0  0  0  0  0  0  0  0  0  0  0  0
  -31.7713  -15.1136   11.6768 H   0  0  0  0  0  0  0  0  0  0  0  0
  -30.4449  -13.4259   12.9508 H   0  0  0  0  0  0  0  0  0  0  0  0
  -28.3366  -12.4876   12.0365 H   0  0  0  0  0  0  0  0  0  0  0  0
  -27.7733  -11.1411    8.2952 H   0  0  0  0  0  0  0  0  0  0  0  0
  -26.3832  -11.8535    7.4081 H   0  0  0  0  0  0  0  0  0  0  0  0
  -27.9727  -12.6903    7.4081 H   0  0  0  0  0  0  0  0  0  0  0  0
  -25.1150  -14.7729   10.0399 H   0  0  0  0  0  0  0  0  0  0  0  0
  -26.0121  -15.1337    8.5260 H   0  0  0  0  0  0  0  0  0  0  0  0
  -24.7121  -13.8940    8.5260 H   0  0  0  0  0  0  0  0  0  0  0  0
  -22.7906  -11.1231    8.7768 H   0  0  0  0  0  0  0  0  0  0  0  0
  -24.1598  -12.0769    8.1119 H   0  0  0  0  0  0  0  0  0  0  0  0
  -24.2318  -10.2821    8.1119 H   0  0  0  0  0  0  0  0  0  0  0  0
  -23.7862  -11.9334   12.5372 H   0  0  0  0  0  0  0  0  0  0  0  0
  -23.6275  -13.2256   11.2996 H   0  0  0  0  0  0  0  0  0  0  0  0
  -22.4878  -11.8372   11.2996 H   0  0  0  0  0  0  0  0  0  0  0  0
  -25.6061   -5.8840   12.4481 H   0  0  0  0  0  0  0  0  0  0  0  0
  -27.5578   -7.1998   11.5188 H   0  0  0  0  0  0  0  0  0  0  0  0
  -27.1945   -9.5138   10.6184 H   0  0  0  0  0  0  0  0  0  0  0  0
  -22.2894  -10.1848   11.2216 H   0  0  0  0  0  0  0  0  0  0  0  0
  -21.5774  -10.5530   13.3583 H   0  0  0  0  0  0  0  0  0  0  0  0
  -20.1880  -11.5638   13.1818 H   0  0  0  0  0  0  0  0  0  0  0  0
  -20.4923   -9.2208   15.2392 H   0  0  0  0  0  0  0  0  0  0  0  0
  -20.5921  -10.9681   15.6594 H   0  0  0  0  0  0  0  0  0  0  0  0
  -18.2628  -11.2929   14.9081 H   0  0  0  0  0  0  0  0  0  0  0  0
  -16.7829   -9.4571   14.2835 H   0  0  0  0  0  0  0  0  0  0  0  0
  -18.0644   -8.2540   14.5598 H   0  0  0  0  0  0  0  0  0  0  0  0
  -18.0744  -10.5466   12.5801 H   0  0  0  0  0  0  0  0  0  0  0  0
  -17.9564   -8.7750   12.2265 H   0  0  0  0  0  0  0  0  0  0  0  0
  -17.9613   -7.9214   16.5310 H   0  0  0  0  0  0  0  0  0  0  0  0
  -17.1107   -7.3711   20.1682 H   0  0  0  0  0  0  0  0  0  0  0  0
  -18.0982   -6.6266   18.8530 H   0  0  0  0  0  0  0  0  0  0  0  0
  -15.4059   -6.4075   19.2433 H   0  0  0  0  0  0  0  0  0  0  0  0
  -15.5744   -7.4193   17.9102 H   0  0  0  0  0  0  0  0  0  0  0  0
  -17.0168   -9.6257   20.3568 H   0  0  0  0  0  0  0  0  0  0  0  0
  -17.6338  -11.8695   19.4588 H   0  0  0  0  0  0  0  0  0  0  0  0
  -18.1985  -12.1932   17.0698 H   0  0  0  0  0  0  0  0  0  0  0  0
 13 12  2  0
 13 14  1  0
 12  9  1  0
 14  7  2  0
 11 10  1  0
  9 10  1  0
  9  8  2  0
  7  8  1  0
  7  6  1  0
  6 15  1  0
  6  5  1  0
 15 16  1  0
 16  3  1  0
  5  4  1  0
  4  3  1  0
  3  2  1  0
  2  1  2  0
  2 17  1  0
 17 19  2  0
 17 18  1  0
 27 26  1  0
 19 20  1  0
 31 30  1  0
 18 21  1  0
 28 26  1  0
 26 25  1  0
 26 29  1  0
 20 21  2  0
 20 25  1  0
 21 22  1  0
 25 24  2  0
 30 29  1  0
 30 33  1  0
 30 32  1  0
 33 38  2  0
 33 34  1  0
 38 37  1  0
 22 23  2  0
 24 23  1  0
 34 39  1  0
 34 35  2  0
 37 36  2  0
 39 40  2  0
 43 42  2  0
 35 36  1  0
 35 41  1  0
 40 42  1  0
 40 41  1  0
 42 44  1  0
 44 49  1  0
 44 45  1  0
 49 48  1  0
 45 46  1  0
 48 47  1  0
 46 47  1  0
 47 50  1  0
 50 51  2  0
 50 57  1  0
 51 52  1  0
 57 56  2  0
 54 53  1  0
 52 53  1  0
 52 55  2  0
 56 55  1  0
  4 58  1  0
  4 59  1  0
  5 60  1  0
  5 61  1  0
  6 62  1  0
  8 63  1  0
 10 64  1  0
 10 65  1  0
 11 66  1  0
 11 67  1  0
 12 68  1  0
 13 69  1  0
 14 70  1  0
 15 71  1  0
 15 72  1  0
 16 73  1  0
 16 74  1  0
 19 75  1  0
 22 76  1  0
 23 77  1  0
 24 78  1  0
 27 79  1  0
 27 80  1  0
 27 81  1  0
 28 82  1  0
 28 83  1  0
 28 84  1  0
 31 85  1  0
 31 86  1  0
 31 87  1  0
 32 88  1  0
 32 89  1  0
 32 90  1  0
 36 91  1  0
 37 92  1  0
 38 93  1  0
 39 94  1  0
 45 95  1  0
 45 96  1  0
 46 97  1  0
 46 98  1  0
 47 99  1  0
 48100  1  0
 48101  1  0
 49102  1  0
 49103  1  0
 51104  1  0
 53105  1  0
 53106  1  0
 54107  1  0
 54108  1  0
 55109  1  0
 56110  1  0
 57111  1  0
A    1
O43
A    2
C42
A    3
N44
A    4
C49
A    5
C48
A    6
C47
A    7
C50
A    8
C57
A    9
C54
A   10
C55
A   11
N56
A   12
C53
A   13
C52
A   14
C51
A   15
C46
A   16
C60
A   17
C39
A   18
S38
A   19
C40
A   20
C41
A   21
C37
A   22
C36
A   23
C45
A   24
C34
A   25
C33
A   26
SI2
A   27
C1
A   28
C3
A   29
O4
A   30
SI5
A   31
C6
A   32
C7
A   33
C8
A   34
C16
A   35
C12
A   36
C11
A   37
C10
A   38
C9
A   39
C15
A   40
C14
A   41
S13
A   42
C17
A   43
O18
A   44
N19
A   45
C24
A   46
C23
A   47
C22
A   48
C21
A   49
C20
A   50
C25
A   51
C32
A   52
C29
A   53
C30
A   54
N31
A   55
C28
A   56
C27
A   57
C26
M  END
