4MQ2_2C4_A_501
     RDKit          3D

 40 42  0  0  0  0  0  0  0  0999 V2000
   44.3860   17.2690  -38.9500 N   0  0  0  0  0  0  0  0  0  0  0  0
   44.4440   16.2660  -38.0570 C   0  0  0  0  0  0  0  0  0  0  0  0
   44.8770   14.0320  -37.8550 C   0  0  0  0  0  0  0  0  0  0  0  0
   42.8260   17.2930  -36.6820 C   0  0  0  0  0  0  0  0  0  0  0  0
   41.1490   18.4290  -35.2930 C   0  0  0  0  0  0  0  0  0  0  0  0
   41.8850   19.4330  -37.3400 C   0  0  0  0  0  0  0  0  0  0  0  0
   38.3810   21.4000  -34.8570 C   0  0  0  0  0  0  0  0  0  0  0  0
   36.3100   23.0910  -34.1770 C   0  0  0  0  0  0  0  0  0  0  0  0
   36.7800   22.1620  -33.2770 C   0  0  0  0  0  0  0  0  0  0  0  0
   37.8070   21.3220  -33.6150 C   0  0  0  0  0  0  0  0  0  0  0  0
   36.3380   24.1220  -36.3190 C   0  0  0  0  0  0  0  0  0  0  0  0
   40.4500   18.4280  -34.2650 O   0  0  0  0  0  0  0  0  0  0  0  0
   42.0310   17.3560  -35.5300 N   0  0  0  0  0  0  0  0  0  0  0  0
   43.6750   16.2560  -36.9250 N   0  0  0  0  0  0  0  0  0  0  0  0
   45.3280   15.2890  -38.3760 O   0  0  0  0  0  0  0  0  0  0  0  0
   43.5280   18.3650  -38.7180 C   0  0  0  0  0  0  0  0  0  0  0  0
   42.7370   18.3610  -37.5770 C   0  0  0  0  0  0  0  0  0  0  0  0
   41.0810   19.4820  -36.2090 C   0  0  0  0  0  0  0  0  0  0  0  0
   40.1900   20.5620  -36.0560 C   0  0  0  0  0  0  0  0  0  0  0  0
   40.1140   21.4560  -36.8980 O   0  0  0  0  0  0  0  0  0  0  0  0
   39.3310   20.4810  -35.0240 N   0  0  0  0  0  0  0  0  0  0  0  0
   37.9060   22.3070  -35.7990 C   0  0  0  0  0  0  0  0  0  0  0  0
   38.3730   20.1550  -32.4430 Cl  0  0  0  0  0  0  0  0  0  0  0  0
   36.8570   23.1640  -35.4430 C   0  0  0  0  0  0  0  0  0  0  0  0
   35.4440   24.9000  -35.9680 O   0  0  0  0  0  0  0  0  0  0  0  0
   36.8940   24.0840  -37.5730 O   0  0  0  0  0  0  0  0  0  0  0  0
   36.4200   25.1110  -38.4410 C   0  0  0  0  0  0  0  0  0  0  0  0
   44.8889   14.0653  -36.7556 H   0  0  0  0  0  0  0  0  0  0  0  0
   43.8526   13.8364  -38.2048 H   0  0  0  0  0  0  0  0  0  0  0  0
   45.5434   13.2298  -38.2048 H   0  0  0  0  0  0  0  0  0  0  0  0
   41.8467   20.2604  -38.0639 H   0  0  0  0  0  0  0  0  0  0  0  0
   35.4987   23.7753  -33.8880 H   0  0  0  0  0  0  0  0  0  0  0  0
   36.3265   22.0937  -32.2772 H   0  0  0  0  0  0  0  0  0  0  0  0
   42.0930   16.5966  -34.8369 H   0  0  0  0  0  0  0  0  0  0  0  0
   43.4867   19.2053  -39.4266 H   0  0  0  0  0  0  0  0  0  0  0  0
   39.4085   19.7007  -34.3562 H   0  0  0  0  0  0  0  0  0  0  0  0
   38.3467   22.3503  -36.8059 H   0  0  0  0  0  0  0  0  0  0  0  0
   36.0335   25.9484  -37.8415 H   0  0  0  0  0  0  0  0  0  0  0  0
   37.2459   25.4649  -39.0756 H   0  0  0  0  0  0  0  0  0  0  0  0
   35.6149   24.7121  -39.0756 H   0  0  0  0  0  0  0  0  0  0  0  0
  1 16  2  0
  1  2  1  0
 16 17  1  0
 27 26  1  0
 15  2  1  0
 15  3  1  0
  2 14  2  0
 17  6  1  0
 17  4  2  0
 26 11  1  0
  6 18  2  0
 14  4  1  0
 20 19  2  0
  4 13  1  0
 11 25  2  0
 11 24  1  0
 18 19  1  0
 18  5  1  0
 19 21  1  0
 22 24  1  0
 22  7  2  0
 13  5  1  0
 24  8  2  0
  5 12  2  0
 21  7  1  0
  7 10  1  0
  8  9  1  0
 10  9  2  0
 10 23  1  0
  3 28  1  0
  3 29  1  0
  3 30  1  0
  6 31  1  0
  8 32  1  0
  9 33  1  0
 13 34  1  0
 16 35  1  0
 21 36  1  0
 22 37  1  0
 27 38  1  0
 27 39  1  0
 27 40  1  0
A    1
N3
A    2
C4
A    3
C6
A    4
C8
A    5
C10
A    6
C13
A    7
C17
A    8
C20
A    9
C21
A   10
C22
A   11
C24
A   12
O11
A   13
N9
A   14
N7
A   15
O5
A   16
C2
A   17
C1
A   18
C12
A   19
C14
A   20
O15
A   21
N16
A   22
C18
A   23
CL2
A   24
C19
A   25
O25
A   26
O26
A   27
C27
M  END
