4MQP_2B1_A_501
     RDKit          3D

 41 43  0  0  0  0  0  0  0  0999 V2000
   23.9850    3.1250   25.8220 O   0  0  0  0  0  0  0  0  0  0  0  0
   24.2570    3.6320   27.3150 P   0  0  0  0  0  0  0  0  0  0  0  0
   25.6340    3.0500   27.8100 O   0  0  0  0  0  0  0  0  0  0  0  0
   23.0520    3.2490   28.2720 O   0  0  0  0  0  0  0  0  0  0  0  0
   24.3420    5.2750   27.2500 O   0  0  0  0  0  0  0  0  0  0  0  0
   24.7210    6.0120   28.4250 C   0  0  0  0  0  0  0  0  0  0  0  0
   24.2570    7.3580   28.3990 C   0  0  0  0  0  0  0  0  0  0  0  0
   25.2030    8.3610   28.3460 C   0  0  0  0  0  0  0  0  0  0  0  0
   24.8550    9.7170   28.3410 N   0  0  0  0  0  0  0  0  0  0  0  0
   23.5770   10.1060   28.4120 C   0  0  0  0  0  0  0  0  0  0  0  0
   23.2720   11.4900   28.4110 C   0  0  0  0  0  0  0  0  0  0  0  0
   22.5910    9.1190   28.4690 C   0  0  0  0  0  0  0  0  0  0  0  0
   21.3050    9.5550   28.5460 O   0  0  0  0  0  0  0  0  0  0  0  0
   22.8960    7.7250   28.4730 C   0  0  0  0  0  0  0  0  0  0  0  0
   21.9520    6.6860   28.5310 C   0  0  0  0  0  0  0  0  0  0  0  0
   20.6140    7.1180   28.9110 N   0  0  0  0  0  0  0  0  0  0  0  0
   19.6710    6.3480   28.9710 N   0  0  0  0  0  0  0  0  0  0  0  0
   18.5060    6.8920   29.3650 C   0  0  0  0  0  0  0  0  0  0  0  0
   17.3240    6.2750   29.4230 N   0  0  0  0  0  0  0  0  0  0  0  0
   16.3030    7.0590   29.8660 C   0  0  0  0  0  0  0  0  0  0  0  0
   15.0180    6.7040   30.0310 C   0  0  0  0  0  0  0  0  0  0  0  0
   14.0650    7.6160   30.4840 C   0  0  0  0  0  0  0  0  0  0  0  0
   14.4470    8.9130   30.7960 C   0  0  0  0  0  0  0  0  0  0  0  0
   15.7860    9.2440   30.6250 C   0  0  0  0  0  0  0  0  0  0  0  0
   16.6690    8.3380   30.1700 C   0  0  0  0  0  0  0  0  0  0  0  0
   18.3110    8.4870   29.8730 S   0  0  0  0  0  0  0  0  0  0  0  0
   25.6523    3.0423   28.7998 H   0  0  0  0  0  0  0  0  0  0  0  0
   23.3381    3.3399   29.2154 H   0  0  0  0  0  0  0  0  0  0  0  0
   24.2978    5.5102   29.3077 H   0  0  0  0  0  0  0  0  0  0  0  0
   25.8200    6.0385   28.4623 H   0  0  0  0  0  0  0  0  0  0  0  0
   26.2673    8.0857   28.3063 H   0  0  0  0  0  0  0  0  0  0  0  0
   23.1929   11.8488   29.4478 H   0  0  0  0  0  0  0  0  0  0  0  0
   24.0703   12.0410   27.8922 H   0  0  0  0  0  0  0  0  0  0  0  0
   22.3161   11.6544   27.8922 H   0  0  0  0  0  0  0  0  0  0  0  0
   20.8829    9.6981   29.4300 H   0  0  0  0  0  0  0  0  0  0  0  0
   21.8942    6.2161   27.5381 H   0  0  0  0  0  0  0  0  0  0  0  0
   22.2940    5.9903   29.3114 H   0  0  0  0  0  0  0  0  0  0  0  0
   14.7109    5.6724   29.8041 H   0  0  0  0  0  0  0  0  0  0  0  0
   13.0146    7.3083   30.5935 H   0  0  0  0  0  0  0  0  0  0  0  0
   13.7185    9.6504   31.1643 H   0  0  0  0  0  0  0  0  0  0  0  0
   16.1281   10.2615   30.8653 H   0  0  0  0  0  0  0  0  0  0  0  0
  1  2  2  0
  5  2  1  0
  5  6  1  0
  2  3  1  0
  2  4  1  0
  9  8  1  0
  9 10  2  0
  8  7  2  0
  7  6  1  0
  7 14  1  0
 11 10  1  0
 10 12  1  0
 12 14  2  0
 12 13  1  0
 14 15  1  0
 15 16  1  0
 16 17  2  0
 17 18  1  0
 18 19  2  0
 18 26  1  0
 19 20  1  0
 20 21  2  0
 20 25  1  0
 26 25  1  0
 21 22  1  0
 25 24  2  0
 22 23  2  0
 24 23  1  0
  3 27  1  0
  4 28  1  0
  6 29  1  0
  6 30  1  0
  8 31  1  0
 11 32  1  0
 11 33  1  0
 11 34  1  0
 13 35  1  0
 15 36  1  0
 15 37  1  0
 21 38  1  0
 22 39  1  0
 23 40  1  0
 24 41  1  0
A    1
OAC
A    2
PAZ
A    3
OAD
A    4
OAE
A    5
OAQ
A    6
CAL
A    7
CAT
A    8
CAJ
A    9
NAO
A   10
CAS
A   11
CAA
A   12
CAU
A   13
OAB
A   14
CAW
A   15
CAK
A   16
NAM
A   17
NAN
A   18
CAV
A   19
NAP
A   20
CAX
A   21
CAH
A   22
CAF
A   23
CAG
A   24
CAI
A   25
CAY
A   26
SAR
M  END
