4MQQ_2B6_A_505
     RDKit          3D

 43 45  0  0  0  0  0  0  0  0999 V2000
   -2.0440   26.8910  -22.8340 O   0  0  0  0  0  0  0  0  0  0  0  0
   -3.4180   27.2960  -23.5560 P   0  0  0  0  0  0  0  0  0  0  0  0
   -3.0670   28.4720  -24.5370 O   0  0  0  0  0  0  0  0  0  0  0  0
   -4.4480   27.7350  -22.5900 O   0  0  0  0  0  0  0  0  0  0  0  0
   -3.9040   26.0200  -24.4450 O   0  0  0  0  0  0  0  0  0  0  0  0
   -5.0680   26.1600  -25.2970 C   0  0  0  0  0  0  0  0  0  0  0  0
   -5.6300   24.8860  -25.5440 C   0  0  0  0  0  0  0  0  0  0  0  0
   -5.3650   24.2660  -26.7620 C   0  0  0  0  0  0  0  0  0  0  0  0
   -5.9040   23.0020  -27.0670 N   0  0  0  0  0  0  0  0  0  0  0  0
   -6.6910   22.3480  -26.2010 C   0  0  0  0  0  0  0  0  0  0  0  0
   -7.2040   21.0790  -26.5400 C   0  0  0  0  0  0  0  0  0  0  0  0
   -6.9720   22.9590  -24.9780 C   0  0  0  0  0  0  0  0  0  0  0  0
   -7.7740   22.2670  -24.1120 O   0  0  0  0  0  0  0  0  0  0  0  0
   -6.4130   24.2040  -24.5970 C   0  0  0  0  0  0  0  0  0  0  0  0
   -6.8400   24.8420  -23.4500 C   0  0  0  0  0  0  0  0  0  0  0  0
   -7.5240   24.2920  -22.4430 N   0  0  0  0  0  0  0  0  0  0  0  0
   -8.1920   25.1610  -21.6930 N   0  0  0  0  0  0  0  0  0  0  0  0
   -8.6710   24.7340  -20.5080 C   0  0  0  0  0  0  0  0  0  0  0  0
   -8.6020   23.5650  -20.1370 O   0  0  0  0  0  0  0  0  0  0  0  0
   -9.5060   25.5600  -19.8870 C   0  0  0  0  0  0  0  0  0  0  0  0
   -9.4490   26.8690  -19.6150 N   0  0  0  0  0  0  0  0  0  0  0  0
  -10.5930   27.3190  -19.0210 C   0  0  0  0  0  0  0  0  0  0  0  0
  -10.8730   28.5540  -18.5890 C   0  0  0  0  0  0  0  0  0  0  0  0
  -12.0980   28.8810  -17.9910 C   0  0  0  0  0  0  0  0  0  0  0  0
  -13.0660   27.8970  -17.8400 C   0  0  0  0  0  0  0  0  0  0  0  0
  -12.7470   26.6230  -18.2960 C   0  0  0  0  0  0  0  0  0  0  0  0
  -11.5540   26.3700  -18.8590 C   0  0  0  0  0  0  0  0  0  0  0  0
  -10.9870   24.9920  -19.4450 S   0  0  0  0  0  0  0  0  0  0  0  0
   -2.1643   26.9265  -21.8520 H   0  0  0  0  0  0  0  0  0  0  0  0
   -4.1169   27.5939  -21.6677 H   0  0  0  0  0  0  0  0  0  0  0  0
   -4.7705   26.6203  -26.2508 H   0  0  0  0  0  0  0  0  0  0  0  0
   -5.8124   26.7974  -24.7974 H   0  0  0  0  0  0  0  0  0  0  0  0
   -4.7236   24.7724  -27.4984 H   0  0  0  0  0  0  0  0  0  0  0  0
   -7.4308   20.5179  -25.6215 H   0  0  0  0  0  0  0  0  0  0  0  0
   -8.1234   21.2012  -27.1315 H   0  0  0  0  0  0  0  0  0  0  0  0
   -6.4580   20.5280  -27.1315 H   0  0  0  0  0  0  0  0  0  0  0  0
   -7.6533   22.3712  -23.1349 H   0  0  0  0  0  0  0  0  0  0  0  0
   -5.9256   25.2436  -22.9889 H   0  0  0  0  0  0  0  0  0  0  0  0
   -7.6274   25.4795  -23.8784 H   0  0  0  0  0  0  0  0  0  0  0  0
  -10.1142   29.3415  -18.7074 H   0  0  0  0  0  0  0  0  0  0  0  0
  -12.2905   29.9072  -17.6447 H   0  0  0  0  0  0  0  0  0  0  0  0
  -14.0412   28.1156  -17.3804 H   0  0  0  0  0  0  0  0  0  0  0  0
  -13.4819   25.8108  -18.1943 H   0  0  0  0  0  0  0  0  0  0  0  0
  9  8  1  0
  9 10  2  0
  8  7  2  0
 11 10  1  0
 10 12  1  0
  7  6  1  0
  7 14  1  0
  6  5  1  0
 12 14  2  0
 12 13  1  0
 14 15  1  0
  3  2  2  0
  5  2  1  0
  2  1  1  0
  2  4  1  0
 15 16  1  0
 16 17  2  0
 17 18  1  0
 18 19  2  0
 18 20  1  0
 20 21  2  0
 20 28  1  0
 21 22  1  0
 28 27  1  0
 22 27  2  0
 22 23  1  0
 27 26  1  0
 23 24  2  0
 26 25  2  0
 24 25  1  0
  1 29  1  0
  4 30  1  0
  6 31  1  0
  6 32  1  0
  8 33  1  0
 11 34  1  0
 11 35  1  0
 11 36  1  0
 13 37  1  0
 15 38  1  0
 15 39  1  0
 23 40  1  0
 24 41  1  0
 25 42  1  0
 26 43  1  0
A    1
OAE
A    2
PBB
A    3
OAF
A    4
OAC
A    5
OAR
A    6
CAM
A    7
CAW
A    8
CAL
A    9
NAQ
A   10
CAU
A   11
CAA
A   12
CAV
A   13
OAD
A   14
CAY
A   15
CAG
A   16
NAN
A   17
NAO
A   18
CAT
A   19
OAB
A   20
CAX
A   21
NAP
A   22
CAZ
A   23
CAJ
A   24
CAH
A   25
CAI
A   26
CAK
A   27
CBA
A   28
SAS
M  END
