4MQU_MG9_A_701
     RDKit          3D

 55 57  0  0  0  0  0  0  0  0999 V2000
   44.6490  -20.8770  -15.5030 C   0  0  0  0  0  0  0  0  0  0  0  0
   45.3420  -19.6930  -15.7450 C   0  0  0  0  0  0  0  0  0  0  0  0
   45.0860  -18.5850  -14.9480 C   0  0  0  0  0  0  0  0  0  0  0  0
   45.7390  -17.4710  -15.1680 N   0  0  0  0  0  0  0  0  0  0  0  0
   44.1820  -18.6340  -13.9390 N   0  0  0  0  0  0  0  0  0  0  0  0
   43.5040  -19.7580  -13.6840 C   0  0  0  0  0  0  0  0  0  0  0  0
   43.7170  -20.9150  -14.4610 C   0  0  0  0  0  0  0  0  0  0  0  0
   42.7890  -22.3300  -14.1680 S   0  0  0  0  0  0  0  0  0  0  0  0
   43.5320  -23.5390  -14.6350 O   0  0  0  0  0  0  0  0  0  0  0  0
   42.4450  -22.3780  -12.7280 O   0  0  0  0  0  0  0  0  0  0  0  0
   41.3910  -22.2030  -14.9480 N   0  0  0  0  0  0  0  0  0  0  0  0
   40.8130  -20.8560  -14.7460 C   0  0  0  0  0  0  0  0  0  0  0  0
   39.3850  -20.7470  -15.3830 C   0  0  0  0  0  0  0  0  0  0  0  0
   38.5120  -21.7560  -14.7390 C   0  0  0  0  0  0  0  0  0  0  0  0
   37.8150  -22.5870  -14.2360 C   0  0  0  0  0  0  0  0  0  0  0  0
   36.9700  -23.6170  -13.6350 C   0  0  0  0  0  0  0  0  0  0  0  0
   41.6320  -22.4280  -16.3730 C   0  0  0  0  0  0  0  0  0  0  0  0
   40.3230  -22.3530  -17.1520 C   0  0  0  0  0  0  0  0  0  0  0  0
   39.4220  -21.2450  -16.7910 N   0  0  0  0  0  0  0  0  0  0  0  0
   38.4060  -20.9920  -17.6790 C   0  0  0  0  0  0  0  0  0  0  0  0
   37.2650  -20.3540  -17.2750 C   0  0  0  0  0  0  0  0  0  0  0  0
   36.2370  -20.1120  -18.1830 C   0  0  0  0  0  0  0  0  0  0  0  0
   38.4780  -21.4020  -19.0030 C   0  0  0  0  0  0  0  0  0  0  0  0
   37.4630  -21.1300  -19.9090 C   0  0  0  0  0  0  0  0  0  0  0  0
   36.3070  -20.4970  -19.5010 C   0  0  0  0  0  0  0  0  0  0  0  0
   35.1280  -20.2280  -20.4460 C   0  0  0  0  0  0  0  0  0  0  0  0
   34.7430  -21.5250  -21.1680 C   0  0  0  0  0  0  0  0  0  0  0  0
   33.6850  -21.3160  -21.9530 F   0  0  0  0  0  0  0  0  0  0  0  0
   34.4290  -22.4880  -20.2790 F   0  0  0  0  0  0  0  0  0  0  0  0
   35.7850  -21.9150  -21.8960 F   0  0  0  0  0  0  0  0  0  0  0  0
   35.4130  -19.0930  -21.4320 C   0  0  0  0  0  0  0  0  0  0  0  0
   36.4390  -19.3680  -22.2310 F   0  0  0  0  0  0  0  0  0  0  0  0
   35.6320  -17.9700  -20.7720 F   0  0  0  0  0  0  0  0  0  0  0  0
   34.3520  -18.8930  -22.1990 F   0  0  0  0  0  0  0  0  0  0  0  0
   34.0150  -19.9170  -19.6560 O   0  0  0  0  0  0  0  0  0  0  0  0
   44.8320  -21.7679  -16.1217 H   0  0  0  0  0  0  0  0  0  0  0  0
   46.0822  -19.6365  -16.5567 H   0  0  0  0  0  0  0  0  0  0  0  0
   46.0715  -16.9038  -14.3752 H   0  0  0  0  0  0  0  0  0  0  0  0
   45.9200  -17.1623  -16.1338 H   0  0  0  0  0  0  0  0  0  0  0  0
   42.7741  -19.7801  -12.8613 H   0  0  0  0  0  0  0  0  0  0  0  0
   41.4719  -20.1096  -15.2138 H   0  0  0  0  0  0  0  0  0  0  0  0
   40.7253  -20.6747  -13.6646 H   0  0  0  0  0  0  0  0  0  0  0  0
   39.0513  -19.7034  -15.2854 H   0  0  0  0  0  0  0  0  0  0  0  0
   37.0285  -23.5457  -12.5389 H   0  0  0  0  0  0  0  0  0  0  0  0
   35.9284  -23.4706  -13.9569 H   0  0  0  0  0  0  0  0  0  0  0  0
   37.3171  -24.6099  -13.9569 H   0  0  0  0  0  0  0  0  0  0  0  0
   42.0801  -23.4229  -16.5121 H   0  0  0  0  0  0  0  0  0  0  0  0
   42.3145  -21.6504  -16.7465 H   0  0  0  0  0  0  0  0  0  0  0  0
   39.7798  -23.2956  -16.9897 H   0  0  0  0  0  0  0  0  0  0  0  0
   40.6095  -22.1746  -18.1989 H   0  0  0  0  0  0  0  0  0  0  0  0
   37.1592  -20.0309  -16.2289 H   0  0  0  0  0  0  0  0  0  0  0  0
   35.3334  -19.5923  -17.8317 H   0  0  0  0  0  0  0  0  0  0  0  0
   39.3641  -21.9579  -19.3434 H   0  0  0  0  0  0  0  0  0  0  0  0
   37.5811  -21.4219  -20.9630 H   0  0  0  0  0  0  0  0  0  0  0  0
   34.2599  -19.9854  -18.6992 H   0  0  0  0  0  0  0  0  0  0  0  0
 32 31  1  0
 34 31  1  0
 28 27  1  0
 30 27  1  0
 31 33  1  0
 31 26  1  0
 27 26  1  0
 27 29  1  0
 26 35  1  0
 26 25  1  0
 24 25  2  0
 24 23  1  0
 25 22  1  0
 23 20  2  0
 22 21  2  0
 20 21  1  0
 20 19  1  0
 18 19  1  0
 18 17  1  0
 19 13  1  0
 17 11  1  0
  2  1  2  0
  2  3  1  0
  1  7  1  0
 13 12  1  0
 13 14  1  0
  4  3  1  0
 11 12  1  0
 11  8  1  0
  3  5  2  0
 14 15  3  0
  9  8  2  0
  7  8  1  0
  7  6  2  0
 15 16  1  0
  8 10  2  0
  5  6  1  0
  1 36  1  0
  2 37  1  0
  4 38  1  0
  4 39  1  0
  6 40  1  0
 12 41  1  0
 12 42  1  0
 13 43  1  0
 16 44  1  0
 16 45  1  0
 16 46  1  0
 17 47  1  0
 17 48  1  0
 18 49  1  0
 18 50  1  0
 21 51  1  0
 22 52  1  0
 23 53  1  0
 24 54  1  0
 35 55  1  0
A    1
C13
A    2
C12
A    3
C11
A    4
N4
A    5
N3
A    6
C10
A    7
C9
A    8
S1
A    9
O1
A   10
O2
A   11
N2
A   12
C3
A   13
C2
A   14
C6
A   15
C7
A   16
C8
A   17
C4
A   18
C1
A   19
N1
A   20
C5
A   21
C14
A   22
C15
A   23
C18
A   24
C17
A   25
C16
A   26
C19
A   27
C20
A   28
F6
A   29
F4
A   30
F5
A   31
C21
A   32
F3
A   33
F1
A   34
F2
A   35
O3
M  END
