4MQY_2CW_A_402
     RDKit          3D

 48 49  0  0  0  0  0  0  0  0999 V2000
  191.7280  105.5660    0.8240 O   0  0  0  0  0  0  0  0  0  0  0  0
  192.4760  105.1640   -0.0650 C   0  0  0  0  0  0  0  0  0  0  0  0
  193.1470  105.9670   -0.9020 N   0  0  0  0  0  0  0  0  0  0  0  0
  192.9630  107.4050   -0.7280 O   0  0  0  0  0  0  0  0  0  0  0  0
  192.7030  103.6670   -0.2870 C   0  0  0  0  0  0  0  0  0  0  0  0
  192.4640  102.9430    0.9710 N   0  0  0  0  0  0  0  0  0  0  0  0
  193.2950  103.2030    1.9890 C   0  0  0  0  0  0  0  0  0  0  0  0
  193.0320  102.4980    3.1570 C   0  0  0  0  0  0  0  0  0  0  0  0
  193.2360  103.0990    4.3930 C   0  0  0  0  0  0  0  0  0  0  0  0
  192.9720  102.3930    5.5620 C   0  0  0  0  0  0  0  0  0  0  0  0
  192.5040  101.0860    5.4940 C   0  0  0  0  0  0  0  0  0  0  0  0
  192.2470  100.4880    6.7240 C   0  0  0  0  0  0  0  0  0  0  0  0
  192.0100   99.8790    7.9040 C   0  0  0  0  0  0  0  0  0  0  0  0
  191.7610   99.1900    9.0230 C   0  0  0  0  0  0  0  0  0  0  0  0
  191.5100   98.4830    9.9960 C   0  0  0  0  0  0  0  0  0  0  0  0
  191.2350   97.6850   11.1250 C   0  0  0  0  0  0  0  0  0  0  0  0
  189.9270   97.5570   11.5800 C   0  0  0  0  0  0  0  0  0  0  0  0
  189.6640   96.8520   12.7480 C   0  0  0  0  0  0  0  0  0  0  0  0
  190.7080   96.2730   13.4610 C   0  0  0  0  0  0  0  0  0  0  0  0
  192.0160   96.4020   13.0070 C   0  0  0  0  0  0  0  0  0  0  0  0
  192.2790   97.1080   11.8380 C   0  0  0  0  0  0  0  0  0  0  0  0
  190.4560   95.5990   14.5790 N   0  0  0  0  0  0  0  0  0  0  0  0
  192.3000  100.4850    4.2570 C   0  0  0  0  0  0  0  0  0  0  0  0
  192.5640  101.1900    3.0890 C   0  0  0  0  0  0  0  0  0  0  0  0
  194.2300  104.0000    1.9270 O   0  0  0  0  0  0  0  0  0  0  0  0
  191.7370  103.1580   -1.3590 C   0  0  0  0  0  0  0  0  0  0  0  0
  191.8380  103.9830   -2.5230 O   0  0  0  0  0  0  0  0  0  0  0  0
  190.3040  103.2070   -0.8210 C   0  0  0  0  0  0  0  0  0  0  0  0
  194.1430  103.4310   -0.7440 C   0  0  0  0  0  0  0  0  0  0  0  0
  191.6927  102.2668    1.0649 H   0  0  0  0  0  0  0  0  0  0  0  0
  193.6064  104.1334    4.4471 H   0  0  0  0  0  0  0  0  0  0  0  0
  193.1336  102.8691    6.5404 H   0  0  0  0  0  0  0  0  0  0  0  0
  189.1009   98.0138   11.0153 H   0  0  0  0  0  0  0  0  0  0  0  0
  188.6297   96.7519   13.1088 H   0  0  0  0  0  0  0  0  0  0  0  0
  192.8422   95.9459   13.5721 H   0  0  0  0  0  0  0  0  0  0  0  0
  193.3134   97.2097   11.4778 H   0  0  0  0  0  0  0  0  0  0  0  0
  190.6211   96.0405   15.4948 H   0  0  0  0  0  0  0  0  0  0  0  0
  190.0957   94.6354   14.5293 H   0  0  0  0  0  0  0  0  0  0  0  0
  191.9294   99.4507    4.2029 H   0  0  0  0  0  0  0  0  0  0  0  0
  192.4029  100.7136    2.1107 H   0  0  0  0  0  0  0  0  0  0  0  0
  191.9945  102.1212   -1.6212 H   0  0  0  0  0  0  0  0  0  0  0  0
  191.9536  104.9273   -2.2492 H   0  0  0  0  0  0  0  0  0  0  0  0
  190.3250  103.2063    0.2788 H   0  0  0  0  0  0  0  0  0  0  0  0
  189.8095  104.1226   -1.1777 H   0  0  0  0  0  0  0  0  0  0  0  0
  189.7481  102.3273   -1.1777 H   0  0  0  0  0  0  0  0  0  0  0  0
  194.7942  103.3243    0.1361 H   0  0  0  0  0  0  0  0  0  0  0  0
  194.1901  102.5132   -1.3484 H   0  0  0  0  0  0  0  0  0  0  0  0
  194.4806  104.2858   -1.3484 H   0  0  0  0  0  0  0  0  0  0  0  0
 27 26  1  0
 26 28  1  0
 26  5  1  0
  3  4  2  0
  3  2  1  0
 29  5  1  0
  5  2  1  0
  5  6  1  0
  2  1  2  0
  6  7  1  0
 25  7  2  0
  7  8  1  0
 24  8  2  0
 24 23  1  0
  8  9  1  0
 23 11  2  0
  9 10  2  0
 11 10  1  0
 11 12  1  0
 12 13  3  0
 13 14  1  0
 14 15  3  0
 15 16  1  0
 16 17  2  0
 16 21  1  0
 17 18  1  0
 21 20  2  0
 18 19  2  0
 20 19  1  0
 19 22  1  0
  6 30  1  0
  9 31  1  0
 10 32  1  0
 17 33  1  0
 18 34  1  0
 20 35  1  0
 21 36  1  0
 22 37  1  0
 22 38  1  0
 23 39  1  0
 24 40  1  0
 26 41  1  0
 27 42  1  0
 28 43  1  0
 28 44  1  0
 28 45  1  0
 29 46  1  0
 29 47  1  0
 29 48  1  0
A    1
O01
A    2
C02
A    3
N03
A    4
O04
A    5
C05
A    6
N06
A    7
C07
A    8
C08
A    9
C09
A   10
C10
A   11
C11
A   12
C12
A   13
C13
A   14
C14
A   15
C15
A   16
C16
A   17
C17
A   18
C18
A   19
C19
A   20
C20
A   21
C21
A   22
N22
A   23
C23
A   24
C24
A   25
O25
A   26
C26
A   27
O27
A   28
C28
A   29
C29
M  END
