4MR8_2BW_A_507
     RDKit          3D

 34 33  0  0  0  0  0  0  0  0999 V2000
  -45.4450   20.0510  -26.1050 O   0  0  0  0  0  0  0  0  0  0  0  0
  -46.5380   21.0130  -26.3660 P   0  0  0  0  0  0  0  0  0  0  0  0
  -46.0320   22.2100  -27.3020 O   0  0  0  0  0  0  0  0  0  0  0  0
  -47.9090   20.1290  -27.1280 C   0  0  0  0  0  0  0  0  0  0  0  0
  -48.9880   21.1290  -27.5310 C   0  0  0  0  0  0  0  0  0  0  0  0
  -50.0040   20.4380  -28.4220 C   0  0  0  0  0  0  0  0  0  0  0  0
  -50.8870   21.4370  -28.9930 N   0  0  0  0  0  0  0  0  0  0  0  0
  -47.2380   21.6890  -24.8270 C   0  0  0  0  0  0  0  0  0  0  0  0
  -47.0640   20.7700  -23.7550 O   0  0  0  0  0  0  0  0  0  0  0  0
  -48.0710   20.8370  -22.7540 C   0  0  0  0  0  0  0  0  0  0  0  0
  -47.7700   19.7270  -21.7750 C   0  0  0  0  0  0  0  0  0  0  0  0
  -46.7220   22.9820  -24.5030 O   0  0  0  0  0  0  0  0  0  0  0  0
  -45.3390   22.9870  -24.1050 C   0  0  0  0  0  0  0  0  0  0  0  0
  -44.7670   24.3690  -24.3010 C   0  0  0  0  0  0  0  0  0  0  0  0
  -45.3248   19.9452  -25.1280 H   0  0  0  0  0  0  0  0  0  0  0  0
  -48.3258   19.4072  -26.4102 H   0  0  0  0  0  0  0  0  0  0  0  0
  -47.5525   19.5908  -28.0186 H   0  0  0  0  0  0  0  0  0  0  0  0
  -48.5282   21.9654  -28.0779 H   0  0  0  0  0  0  0  0  0  0  0  0
  -49.4888   21.5140  -26.6304 H   0  0  0  0  0  0  0  0  0  0  0  0
  -50.5914   19.7235  -27.8266 H   0  0  0  0  0  0  0  0  0  0  0  0
  -49.4855   19.8963  -29.2268 H   0  0  0  0  0  0  0  0  0  0  0  0
  -51.3492   21.9599  -28.2355 H   0  0  0  0  0  0  0  0  0  0  0  0
  -50.3393   22.0872  -29.5745 H   0  0  0  0  0  0  0  0  0  0  0  0
  -48.3161   21.8289  -24.9947 H   0  0  0  0  0  0  0  0  0  0  0  0
  -48.0387   21.8121  -22.2459 H   0  0  0  0  0  0  0  0  0  0  0  0
  -49.0752   20.7251  -23.1889 H   0  0  0  0  0  0  0  0  0  0  0  0
  -47.8729   20.1063  -20.7476 H   0  0  0  0  0  0  0  0  0  0  0  0
  -48.4758   18.8981  -21.9322 H   0  0  0  0  0  0  0  0  0  0  0  0
  -46.7421   19.3682  -21.9322 H   0  0  0  0  0  0  0  0  0  0  0  0
  -45.2611   22.7044  -23.0448 H   0  0  0  0  0  0  0  0  0  0  0  0
  -44.7774   22.2663  -24.7176 H   0  0  0  0  0  0  0  0  0  0  0  0
  -44.5764   24.8294  -23.3203 H   0  0  0  0  0  0  0  0  0  0  0  0
  -43.8239   24.2992  -24.8628 H   0  0  0  0  0  0  0  0  0  0  0  0
  -45.4836   24.9861  -24.8628 H   0  0  0  0  0  0  0  0  0  0  0  0
  7  6  1  0
  6  5  1  0
  5  4  1  0
  3  2  2  0
  4  2  1  0
  2  1  1  0
  2  8  1  0
  8 12  1  0
  8  9  1  0
 12 13  1  0
 14 13  1  0
  9 10  1  0
 10 11  1  0
  1 15  1  0
  4 16  1  0
  4 17  1  0
  5 18  1  0
  5 19  1  0
  6 20  1  0
  6 21  1  0
  7 22  1  0
  7 23  1  0
  8 24  1  0
 10 25  1  0
 10 26  1  0
 11 27  1  0
 11 28  1  0
 11 29  1  0
 13 30  1  0
 13 31  1  0
 14 32  1  0
 14 33  1  0
 14 34  1  0
A    1
O3
A    2
P
A    3
O4
A    4
C6
A    5
C7
A    6
C8
A    7
N
A    8
C3
A    9
O2
A   10
C4
A   11
C5
A   12
O1
A   13
C2
A   14
C1
M  END
