4MRF_2CK_A_203
     RDKit          3D

 21 22  0  0  0  0  0  0  0  0999 V2000
    9.9300   -6.4600    0.8730 C   0  0  0  0  0  0  0  0  0  0  0  0
    9.1740   -5.6590   -0.2140 C   0  0  0  0  0  0  0  0  0  0  0  0
   10.0040   -4.7680   -0.9380 C   0  0  0  0  0  0  0  0  0  0  0  0
    9.4230   -4.0700   -1.9850 C   0  0  0  0  0  0  0  0  0  0  0  0
   10.1550   -3.1700   -2.7610 C   0  0  0  0  0  0  0  0  0  0  0  0
   11.5080   -2.9530   -2.4790 C   0  0  0  0  0  0  0  0  0  0  0  0
   12.1180   -3.6630   -1.4320 C   0  0  0  0  0  0  0  0  0  0  0  0
   11.3680   -4.5660   -0.6490 C   0  0  0  0  0  0  0  0  0  0  0  0
   11.9980   -5.2760    0.4040 C   0  0  0  0  0  0  0  0  0  0  0  0
   11.0540   -5.7150    1.4520 N   0  0  0  0  0  0  0  0  0  0  0  0
    9.2241   -6.7123    1.6780 H   0  0  0  0  0  0  0  0  0  0  0  0
   10.3421   -7.3602    0.3936 H   0  0  0  0  0  0  0  0  0  0  0  0
    8.3784   -5.0760    0.2730 H   0  0  0  0  0  0  0  0  0  0  0  0
    8.7749   -6.3879   -0.9347 H   0  0  0  0  0  0  0  0  0  0  0  0
    8.3581   -4.2294   -2.2100 H   0  0  0  0  0  0  0  0  0  0  0  0
    9.6704   -2.6339   -3.5903 H   0  0  0  0  0  0  0  0  0  0  0  0
   12.0894   -2.2321   -3.0725 H   0  0  0  0  0  0  0  0  0  0  0  0
   13.1873   -3.5142   -1.2210 H   0  0  0  0  0  0  0  0  0  0  0  0
   12.4905   -6.1644   -0.0182 H   0  0  0  0  0  0  0  0  0  0  0  0
   12.7181   -4.5918    0.8765 H   0  0  0  0  0  0  0  0  0  0  0  0
   11.5511   -6.3215    2.1197 H   0  0  0  0  0  0  0  0  0  0  0  0
  5  6  2  0
  5  4  1  0
  6  7  1  0
  4  3  2  0
  7  8  2  0
  3  8  1  0
  3  2  1  0
  8  9  1  0
  2  1  1  0
  9 10  1  0
  1 10  1  0
  1 11  1  0
  1 12  1  0
  2 13  1  0
  2 14  1  0
  4 15  1  0
  5 16  1  0
  6 17  1  0
  7 18  1  0
  9 19  1  0
  9 20  1  0
 10 21  1  0
A    1
CAE
A    2
CAF
A    3
CAI
A    4
CAC
A    5
CAA
A    6
CAB
A    7
CAD
A    8
CAJ
A    9
CAG
A   10
NAH
M  END
