4MRG_24W_A_201
     RDKit          3D

 23 24  0  0  0  0  0  0  0  0999 V2000
   12.3240   -4.9690    0.7350 C   0  0  0  0  0  0  0  0  0  0  0  0
   11.4020   -5.5960    1.7340 N   0  0  0  0  0  0  0  0  0  0  0  0
   10.3820   -6.3890    1.0260 C   0  0  0  0  0  0  0  0  0  0  0  0
    9.5190   -5.4860    0.1490 C   0  0  0  0  0  0  0  0  0  0  0  0
   10.3150   -4.6470   -0.7080 C   0  0  0  0  0  0  0  0  0  0  0  0
   11.6710   -4.3780   -0.4030 C   0  0  0  0  0  0  0  0  0  0  0  0
   12.3800   -3.5280   -1.2740 C   0  0  0  0  0  0  0  0  0  0  0  0
   11.7760   -2.9490   -2.4010 C   0  0  0  0  0  0  0  0  0  0  0  0
   10.4120   -3.1900   -2.6860 C   0  0  0  0  0  0  0  0  0  0  0  0
    9.7170   -4.0430   -1.8330 C   0  0  0  0  0  0  0  0  0  0  0  0
    8.3870   -4.3150   -2.0830 N   0  0  0  0  0  0  0  0  0  0  0  0
   13.0114   -5.7460    0.3694 H   0  0  0  0  0  0  0  0  0  0  0  0
   12.8351   -4.1479    1.2590 H   0  0  0  0  0  0  0  0  0  0  0  0
   11.9408   -6.2101    2.3612 H   0  0  0  0  0  0  0  0  0  0  0  0
    9.7424   -6.8971    1.7627 H   0  0  0  0  0  0  0  0  0  0  0  0
   10.8860   -7.1297    0.3877 H   0  0  0  0  0  0  0  0  0  0  0  0
    8.9008   -4.8472    0.7969 H   0  0  0  0  0  0  0  0  0  0  0  0
    8.8942   -6.1282   -0.4891 H   0  0  0  0  0  0  0  0  0  0  0  0
   13.4380   -3.3116   -1.0649 H   0  0  0  0  0  0  0  0  0  0  0  0
   12.3676   -2.3035   -3.0669 H   0  0  0  0  0  0  0  0  0  0  0  0
    9.9183   -2.7208   -3.5498 H   0  0  0  0  0  0  0  0  0  0  0  0
    7.7325   -4.4489   -1.2990 H   0  0  0  0  0  0  0  0  0  0  0  0
    8.0491   -4.3841   -3.0535 H   0  0  0  0  0  0  0  0  0  0  0  0
  9  8  2  0
  9 10  1  0
  8  7  1  0
 11 10  1  0
 10  5  2  0
  7  6  2  0
  5  6  1  0
  5  4  1  0
  6  1  1  0
  4  3  1  0
  1  2  1  0
  3  2  1  0
  1 12  1  0
  1 13  1  0
  2 14  1  0
  3 15  1  0
  3 16  1  0
  4 17  1  0
  4 18  1  0
  7 19  1  0
  8 20  1  0
  9 21  1  0
 11 22  1  0
 11 23  1  0
A    1
CAG
A    2
NAH
A    3
CAE
A    4
CAF
A    5
CAK
A    6
CAJ
A    7
CAD
A    8
CAB
A    9
CAC
A   10
CAI
A   11
NAA
M  END
