1M19_ABU_I_1965
     RDKit          3D

 17 16  0  0  0  0  0  0  0  0999 V2000
   35.9580   23.1400   90.3480 N   0  0  0  0  0  0  0  0  0  0  0  0
   36.4090   22.0860   89.4320 C   0  0  0  0  0  0  0  0  0  0  0  0
   35.5670   22.0140   88.1500 C   0  0  0  0  0  0  0  0  0  0  0  0
   34.3380   21.0880   88.2480 C   0  0  0  0  0  0  0  0  0  0  0  0
   33.5360   21.1870   89.5540 C   0  0  0  0  0  0  0  0  0  0  0  0
   33.4170   20.1450   90.2130 O   0  0  0  0  0  0  0  0  0  0  0  0
   36.0909   22.8293   91.3210 H   0  0  0  0  0  0  0  0  0  0  0  0
   36.5064   23.9961   90.1830 H   0  0  0  0  0  0  0  0  0  0  0  0
   37.4550   22.2843   89.1552 H   0  0  0  0  0  0  0  0  0  0  0  0
   36.3015   21.1239   89.9543 H   0  0  0  0  0  0  0  0  0  0  0  0
   35.2154   23.0287   87.9115 H   0  0  0  0  0  0  0  0  0  0  0  0
   36.2174   21.5919   87.3698 H   0  0  0  0  0  0  0  0  0  0  0  0
   33.6617   21.3337   87.4159 H   0  0  0  0  0  0  0  0  0  0  0  0
   34.7309   20.0612   88.2129 H   0  0  0  0  0  0  0  0  0  0  0  0
   34.0316   21.9317   90.1941 H   0  0  0  0  0  0  0  0  0  0  0  0
   32.5140   21.4536   89.2467 H   0  0  0  0  0  0  0  0  0  0  0  0
   33.4416   20.3608   91.1789 H   0  0  0  0  0  0  0  0  0  0  0  0
  1  2  1  0
  2  3  1  0
  3  4  1  0
  4  5  1  0
  5  6  1  0
  1  7  1  0
  1  8  1  0
  2  9  1  0
  2 10  1  0
  3 11  1  0
  3 12  1  0
  4 13  1  0
  4 14  1  0
  5 15  1  0
  5 16  1  0
  6 17  1  0
A    1
N
A    2
CA
A    3
CB
A    4
CG
A    5
CD
A    6
OE2
M  END
