4MS4_2C0_A_501
     RDKit          3D

 26 26  0  0  0  0  0  0  0  0999 V2000
  -18.1860   18.4140  -32.7940 Cl  0  0  0  0  0  0  0  0  0  0  0  0
  -19.6920   17.6110  -32.2910 C   0  0  0  0  0  0  0  0  0  0  0  0
  -20.8990   17.8960  -32.9470 C   0  0  0  0  0  0  0  0  0  0  0  0
  -22.0560   17.2460  -32.5220 C   0  0  0  0  0  0  0  0  0  0  0  0
  -19.6460   16.7610  -31.1960 C   0  0  0  0  0  0  0  0  0  0  0  0
  -20.8010   16.0890  -30.7830 C   0  0  0  0  0  0  0  0  0  0  0  0
  -22.0170   16.3370  -31.4580 C   0  0  0  0  0  0  0  0  0  0  0  0
  -23.2540   15.7100  -30.9260 C   0  0  0  0  0  0  0  0  0  0  0  0
  -24.1320   15.1110  -32.0540 C   0  0  0  0  0  0  0  0  0  0  0  0
  -23.4700   13.9300  -32.6270 N   0  0  0  0  0  0  0  0  0  0  0  0
  -24.0730   16.8170  -30.2100 C   0  0  0  0  0  0  0  0  0  0  0  0
  -23.5340   17.2310  -28.8500 C   0  0  0  0  0  0  0  0  0  0  0  0
  -23.0040   16.4290  -28.0740 O   0  0  0  0  0  0  0  0  0  0  0  0
  -23.6990   18.5010  -28.4730 O   0  0  0  0  0  0  0  0  0  0  0  0
  -20.9313   18.6161  -33.7779 H   0  0  0  0  0  0  0  0  0  0  0  0
  -23.0111   17.4495  -33.0284 H   0  0  0  0  0  0  0  0  0  0  0  0
  -18.7009   16.6153  -30.6523 H   0  0  0  0  0  0  0  0  0  0  0  0
  -20.7631   15.3777  -29.9448 H   0  0  0  0  0  0  0  0  0  0  0  0
  -22.9692   14.8941  -30.2454 H   0  0  0  0  0  0  0  0  0  0  0  0
  -24.2793   15.8649  -32.8413 H   0  0  0  0  0  0  0  0  0  0  0  0
  -25.1060   14.8147  -31.6373 H   0  0  0  0  0  0  0  0  0  0  0  0
  -23.1303   13.3240  -31.8665 H   0  0  0  0  0  0  0  0  0  0  0  0
  -24.1415   13.4081  -33.2080 H   0  0  0  0  0  0  0  0  0  0  0  0
  -24.0861   17.7059  -30.8578 H   0  0  0  0  0  0  0  0  0  0  0  0
  -25.0730   16.3951  -30.0311 H   0  0  0  0  0  0  0  0  0  0  0  0
  -23.0886   16.5569  -27.0960 H   0  0  0  0  0  0  0  0  0  0  0  0
  3  4  1  0
  3  2  2  0
  1  2  1  0
 10  9  1  0
  4  7  2  0
  2  5  1  0
  9  8  1  0
  7  8  1  0
  7  6  1  0
  5  6  2  0
  8 11  1  0
 11 12  1  0
 12 14  2  0
 12 13  1  0
  3 15  1  0
  4 16  1  0
  5 17  1  0
  6 18  1  0
  8 19  1  0
  9 20  1  0
  9 21  1  0
 10 22  1  0
 10 23  1  0
 11 24  1  0
 11 25  1  0
 13 26  1  0
A    1
CL
A    2
C8
A    3
C7
A    4
C6
A    5
C9
A    6
C10
A    7
C5
A    8
C2
A    9
C1
A   10
N
A   11
C3
A   12
C4
A   13
O2
A   14
O1
M  END
