4MSL_2ET_A_809
     RDKit          3D

 44 45  0  0  0  0  0  0  0  0999 V2000
  -32.9190   38.5640   15.8490 C   0  0  0  0  0  0  0  0  0  0  0  0
  -32.4500   34.5860   17.5840 C   0  0  0  0  0  0  0  0  0  0  0  0
  -33.8860   36.3900   16.8000 C   0  0  0  0  0  0  0  0  0  0  0  0
  -36.2430   34.8880   17.5020 C   0  0  0  0  0  0  0  0  0  0  0  0
  -34.9620   34.3210   17.7060 C   0  0  0  0  0  0  0  0  0  0  0  0
  -34.3890   39.3790   13.4310 O   0  0  0  0  0  0  0  0  0  0  0  0
  -33.6450   40.3830   13.6010 C   0  0  0  0  0  0  0  0  0  0  0  0
  -34.0230   41.5210   13.2100 O   0  0  0  0  0  0  0  0  0  0  0  0
  -32.3380   40.2280   14.2510 C   0  0  0  0  0  0  0  0  0  0  0  0
  -31.2460   40.6040   13.2690 C   0  0  0  0  0  0  0  0  0  0  0  0
  -29.8870   41.0400   13.8510 C   0  0  0  0  0  0  0  0  0  0  0  0
  -28.7120   40.7440   12.9720 C   0  0  0  0  0  0  0  0  0  0  0  0
  -29.6910   40.6290   15.2510 C   0  0  0  0  0  0  0  0  0  0  0  0
  -32.1740   38.8570   14.6630 N   0  0  0  0  0  0  0  0  0  0  0  0
  -32.7520   37.1470   16.4670 C   0  0  0  0  0  0  0  0  0  0  0  0
  -31.4680   36.6270   16.6910 C   0  0  0  0  0  0  0  0  0  0  0  0
  -30.3660   37.3570   16.3690 O   0  0  0  0  0  0  0  0  0  0  0  0
  -31.3220   35.3440   17.2500 C   0  0  0  0  0  0  0  0  0  0  0  0
  -33.7460   35.1010   17.3620 C   0  0  0  0  0  0  0  0  0  0  0  0
  -35.2170   36.9530   16.5580 O   0  0  0  0  0  0  0  0  0  0  0  0
  -36.3720   36.2430   16.9520 C   0  0  0  0  0  0  0  0  0  0  0  0
  -37.4660   36.7510   16.8370 O   0  0  0  0  0  0  0  0  0  0  0  0
  -34.8850   32.9250   18.2730 C   0  0  0  0  0  0  0  0  0  0  0  0
  -32.6211   39.2952   16.6149 H   0  0  0  0  0  0  0  0  0  0  0  0
  -33.9731   38.6130   15.5384 H   0  0  0  0  0  0  0  0  0  0  0  0
  -32.3265   33.5843   18.0215 H   0  0  0  0  0  0  0  0  0  0  0  0
  -37.1446   34.3114   17.7564 H   0  0  0  0  0  0  0  0  0  0  0  0
  -34.7498   38.8921   14.2138 H   0  0  0  0  0  0  0  0  0  0  0  0
  -32.2764   40.8830   15.1326 H   0  0  0  0  0  0  0  0  0  0  0  0
  -31.6249   41.4359   12.6571 H   0  0  0  0  0  0  0  0  0  0  0  0
  -31.0313   39.6760   12.7188 H   0  0  0  0  0  0  0  0  0  0  0  0
  -29.9396   42.1386   13.8710 H   0  0  0  0  0  0  0  0  0  0  0  0
  -27.8337   40.5227   13.5962 H   0  0  0  0  0  0  0  0  0  0  0  0
  -28.9389   39.8749   12.3370 H   0  0  0  0  0  0  0  0  0  0  0  0
  -28.5001   41.6168   12.3370 H   0  0  0  0  0  0  0  0  0  0  0  0
  -30.0667   41.4168   15.9205 H   0  0  0  0  0  0  0  0  0  0  0  0
  -30.2406   39.6949   15.4393 H   0  0  0  0  0  0  0  0  0  0  0  0
  -28.6192   40.4681   15.4393 H   0  0  0  0  0  0  0  0  0  0  0  0
  -32.4988   38.2402   13.9047 H   0  0  0  0  0  0  0  0  0  0  0  0
  -29.7959   37.7347   17.0849 H   0  0  0  0  0  0  0  0  0  0  0  0
  -30.3161   34.9347   17.4254 H   0  0  0  0  0  0  0  0  0  0  0  0
  -34.8878   32.9749   19.3719 H   0  0  0  0  0  0  0  0  0  0  0  0
  -35.7523   32.3417   17.9303 H   0  0  0  0  0  0  0  0  0  0  0  0
  -33.9588   32.4406   17.9303 H   0  0  0  0  0  0  0  0  0  0  0  0
 12 11  1  0
  8  7  2  0
 10 11  1  0
 10  9  1  0
  6  7  1  0
  7  9  1  0
 11 13  1  0
  9 14  1  0
 14  1  1  0
  1 15  1  0
 17 16  1  0
 15 16  2  0
 15  3  1  0
 20  3  1  0
 20 21  1  0
 16 18  1  0
  3 19  2  0
 22 21  2  0
 21  4  1  0
 18  2  2  0
 19  2  1  0
 19  5  1  0
  4  5  2  0
  5 23  1  0
  1 24  1  0
  1 25  1  0
  2 26  1  0
  4 27  1  0
  6 28  1  0
  9 29  1  0
 10 30  1  0
 10 31  1  0
 11 32  1  0
 12 33  1  0
 12 34  1  0
 12 35  1  0
 13 36  1  0
 13 37  1  0
 13 38  1  0
 14 39  1  0
 17 40  1  0
 18 41  1  0
 23 42  1  0
 23 43  1  0
 23 44  1  0
A    1
C10
A    2
C15
A    3
C17
A    4
C21
A    5
C22
A    6
O01
A    7
C02
A    8
O03
A    9
C04
A   10
C05
A   11
C06
A   12
C07
A   13
C08
A   14
N09
A   15
C11
A   16
C12
A   17
O13
A   18
C14
A   19
C16
A   20
O18
A   21
C19
A   22
O20
A   23
C23
M  END
