4MT9_2D6_A_1402
     RDKit          3D

 56 59  0  0  0  0  0  0  0  0999 V2000
   -5.9950   42.9850   26.9670 N   0  0  0  0  0  0  0  0  0  0  0  0
   -4.6320   43.0540   26.7700 C   0  0  0  0  0  0  0  0  0  0  0  0
   -3.9340   42.0640   26.5000 O   0  0  0  0  0  0  0  0  0  0  0  0
   -3.9740   44.4450   26.8100 C   0  0  0  0  0  0  0  0  0  0  0  0
   -3.9340   45.1290   28.1240 C   0  0  0  0  0  0  0  0  0  0  0  0
   -3.5250   44.0140   29.6050 S   0  0  0  0  0  0  0  0  0  0  0  0
   -1.7980   43.7370   29.4390 C   0  0  0  0  0  0  0  0  0  0  0  0
   -1.2540   42.6780   30.1310 N   0  0  0  0  0  0  0  0  0  0  0  0
    0.0650   42.2940   30.0490 C   0  0  0  0  0  0  0  0  0  0  0  0
    0.5240   41.3490   30.6960 O   0  0  0  0  0  0  0  0  0  0  0  0
   -1.0340   44.4970   28.6340 N   0  0  0  0  0  0  0  0  0  0  0  0
    0.2940   44.2250   28.4670 C   0  0  0  0  0  0  0  0  0  0  0  0
    0.9540   43.0600   29.1870 C   0  0  0  0  0  0  0  0  0  0  0  0
    2.3660   42.7820   28.9940 C   0  0  0  0  0  0  0  0  0  0  0  0
    3.1600   43.6510   28.1100 C   0  0  0  0  0  0  0  0  0  0  0  0
    2.5320   44.7920   27.4200 C   0  0  0  0  0  0  0  0  0  0  0  0
    1.1020   45.0760   27.6050 C   0  0  0  0  0  0  0  0  0  0  0  0
   -8.4820   40.1880   26.0880 C   0  0  0  0  0  0  0  0  0  0  0  0
   -7.5190   41.3310   25.8930 C   0  0  0  0  0  0  0  0  0  0  0  0
   -6.5700   41.6220   27.1060 C   0  0  0  0  0  0  0  0  0  0  0  0
   -7.2740   41.4650   28.4860 C   0  0  0  0  0  0  0  0  0  0  0  0
   -8.2140   40.2930   28.5830 C   0  0  0  0  0  0  0  0  0  0  0  0
   -9.2430   40.2080   27.4390 C   0  0  0  0  0  0  0  0  0  0  0  0
  -10.0800   38.9950   27.6030 O   0  0  0  0  0  0  0  0  0  0  0  0
  -11.3760   39.2000   28.2570 C   0  0  0  0  0  0  0  0  0  0  0  0
  -11.7510   40.5450   28.6880 C   0  0  0  0  0  0  0  0  0  0  0  0
  -13.0150   40.7570   29.3120 C   0  0  0  0  0  0  0  0  0  0  0  0
  -13.8510   39.6470   29.4940 C   0  0  0  0  0  0  0  0  0  0  0  0
  -13.5040   38.2700   29.0820 C   0  0  0  0  0  0  0  0  0  0  0  0
  -12.2470   38.0460   28.4510 C   0  0  0  0  0  0  0  0  0  0  0  0
  -15.0750   40.1440   30.1170 C   0  0  0  0  0  0  0  0  0  0  0  0
  -16.0060   40.6200   30.6070 N   0  0  0  0  0  0  0  0  0  0  0  0
   -6.5813   43.8305   27.0151 H   0  0  0  0  0  0  0  0  0  0  0  0
   -2.9366   44.3322   26.4621 H   0  0  0  0  0  0  0  0  0  0  0  0
   -4.6076   45.0809   26.1743 H   0  0  0  0  0  0  0  0  0  0  0  0
   -3.1711   45.9198   28.0727 H   0  0  0  0  0  0  0  0  0  0  0  0
   -4.9509   45.5095   28.3006 H   0  0  0  0  0  0  0  0  0  0  0  0
   -1.8749   42.1380   30.7505 H   0  0  0  0  0  0  0  0  0  0  0  0
    2.8383   41.9294   29.5039 H   0  0  0  0  0  0  0  0  0  0  0  0
    4.2309   43.4471   27.9632 H   0  0  0  0  0  0  0  0  0  0  0  0
    3.1368   45.4344   26.7631 H   0  0  0  0  0  0  0  0  0  0  0  0
    0.6414   45.9328   27.0915 H   0  0  0  0  0  0  0  0  0  0  0  0
   -9.2234   40.2218   25.2761 H   0  0  0  0  0  0  0  0  0  0  0  0
   -7.8788   39.2681   26.0837 H   0  0  0  0  0  0  0  0  0  0  0  0
   -6.8922   41.1018   25.0186 H   0  0  0  0  0  0  0  0  0  0  0  0
   -8.1377   42.2319   25.7680 H   0  0  0  0  0  0  0  0  0  0  0  0
   -5.7690   40.8685   27.0836 H   0  0  0  0  0  0  0  0  0  0  0  0
   -6.4970   41.3456   29.2554 H   0  0  0  0  0  0  0  0  0  0  0  0
   -7.8871   42.3674   28.6264 H   0  0  0  0  0  0  0  0  0  0  0  0
   -8.7617   40.3687   29.5339 H   0  0  0  0  0  0  0  0  0  0  0  0
   -7.5945   39.3864   28.5170 H   0  0  0  0  0  0  0  0  0  0  0  0
   -9.9116   41.0812   27.4595 H   0  0  0  0  0  0  0  0  0  0  0  0
  -11.0623   41.3884   28.5319 H   0  0  0  0  0  0  0  0  0  0  0  0
  -13.3245   41.7602   29.6403 H   0  0  0  0  0  0  0  0  0  0  0  0
  -14.2009   37.4375   29.2588 H   0  0  0  0  0  0  0  0  0  0  0  0
  -11.9444   37.0408   28.1224 H   0  0  0  0  0  0  0  0  0  0  0  0
 19 18  1  0
 19 20  1  0
 18 23  1  0
  3  2  2  0
  2  4  1  0
  2  1  1  0
  4  5  1  0
  1 20  1  0
 20 21  1  0
 16 17  2  0
 16 15  1  0
 23 24  1  0
 23 22  1  0
 24 25  1  0
 17 12  1  0
 15 14  2  0
  5  6  1  0
 25 30  1  0
 25 26  2  0
 30 29  2  0
 12 11  1  0
 12 13  2  0
 21 22  1  0
 11  7  2  0
 26 27  1  0
 14 13  1  0
 29 28  1  0
 13  9  1  0
 27 28  2  0
  7  6  1  0
  7  8  1  0
 28 31  1  0
  9  8  1  0
  9 10  2  0
 31 32  3  0
  1 33  1  0
  4 34  1  0
  4 35  1  0
  5 36  1  0
  5 37  1  0
  8 38  1  0
 14 39  1  0
 15 40  1  0
 16 41  1  0
 17 42  1  0
 18 43  1  0
 18 44  1  0
 19 45  1  0
 19 46  1  0
 20 47  1  0
 21 48  1  0
 21 49  1  0
 22 50  1  0
 22 51  1  0
 23 52  1  0
 26 53  1  0
 27 54  1  0
 29 55  1  0
 30 56  1  0
A    1
N4
A    2
C8
A    3
O2
A    4
C9
A    5
C10
A    6
S1
A    7
C11
A    8
N2
A    9
C12
A   10
O3
A   11
N3
A   12
C13
A   13
C14
A   14
C15
A   15
C16
A   16
C17
A   17
C18
A   18
C19
A   19
C20
A   20
C21
A   21
C22
A   22
C23
A   23
C24
A   24
O1
A   25
C1
A   26
C2
A   27
C3
A   28
C4
A   29
C5
A   30
C6
A   31
C7
A   32
N1
M  END
