4MTW_2G7_E_412
     RDKit          3D

 60 60  0  0  0  0  0  0  0  0999 V2000
   13.6240   41.6090  -11.0050 C   0  0  0  0  0  0  0  0  0  0  0  0
   15.0050   41.1940  -11.4430 C   0  0  0  0  0  0  0  0  0  0  0  0
   15.1730   40.6330  -12.7090 C   0  0  0  0  0  0  0  0  0  0  0  0
   16.4340   40.2300  -13.1470 C   0  0  0  0  0  0  0  0  0  0  0  0
   17.5480   40.3980  -12.3230 C   0  0  0  0  0  0  0  0  0  0  0  0
   17.3900   40.9690  -11.0620 C   0  0  0  0  0  0  0  0  0  0  0  0
   16.1260   41.3670  -10.6190 C   0  0  0  0  0  0  0  0  0  0  0  0
   12.5290   40.8990   -8.8960 C   0  0  0  0  0  0  0  0  0  0  0  0
   12.0140   41.9910   -8.7040 O   0  0  0  0  0  0  0  0  0  0  0  0
   13.0560   40.6120  -10.1200 O   0  0  0  0  0  0  0  0  0  0  0  0
   12.6070   39.9550   -7.9170 N   0  0  0  0  0  0  0  0  0  0  0  0
   11.9790   40.1470   -6.6150 C   0  0  0  0  0  0  0  0  0  0  0  0
   11.5230   38.4870   -5.9940 P   0  0  0  0  0  0  0  0  0  0  0  0
   10.1620   38.0880   -6.5570 O   0  0  0  0  0  0  0  0  0  0  0  0
   12.6490   37.5240   -6.1880 O   0  0  0  0  0  0  0  0  0  0  0  0
   11.3190   38.8780   -4.3150 N   0  0  0  0  0  0  0  0  0  0  0  0
   10.1000   38.4180   -3.6040 C   0  0  0  0  0  0  0  0  0  0  0  0
    8.8860   39.3100   -3.8510 C   0  0  0  0  0  0  0  0  0  0  0  0
    7.7540   38.8470   -3.8820 O   0  0  0  0  0  0  0  0  0  0  0  0
   10.4430   38.4290   -2.1190 C   0  0  0  0  0  0  0  0  0  0  0  0
    9.3290   37.9190   -1.1940 C   0  0  0  0  0  0  0  0  0  0  0  0
    9.2050   36.4030   -1.3180 C   0  0  0  0  0  0  0  0  0  0  0  0
    9.6190   38.3080    0.2580 C   0  0  0  0  0  0  0  0  0  0  0  0
    8.6320   42.4740   -1.7970 C   0  0  0  0  0  0  0  0  0  0  0  0
    8.3350   42.8550   -3.2480 C   0  0  0  0  0  0  0  0  0  0  0  0
    7.1200   43.7820   -3.2970 C   0  0  0  0  0  0  0  0  0  0  0  0
    8.1360   41.6490   -4.1910 C   0  0  0  0  0  0  0  0  0  0  0  0
    9.1700   40.6470   -4.0010 N   0  0  0  0  0  0  0  0  0  0  0  0
   13.6851   42.5714  -10.4757 H   0  0  0  0  0  0  0  0  0  0  0  0
   12.9816   41.7071  -11.8925 H   0  0  0  0  0  0  0  0  0  0  0  0
   14.3018   40.5072  -13.3686 H   0  0  0  0  0  0  0  0  0  0  0  0
   16.5510   39.7790  -14.1434 H   0  0  0  0  0  0  0  0  0  0  0  0
   18.5439   40.0817  -12.6669 H   0  0  0  0  0  0  0  0  0  0  0  0
   18.2659   41.1074  -10.4111 H   0  0  0  0  0  0  0  0  0  0  0  0
   16.0102   41.8169   -9.6219 H   0  0  0  0  0  0  0  0  0  0  0  0
   13.1230   39.0828   -8.1012 H   0  0  0  0  0  0  0  0  0  0  0  0
   12.6844   40.6293   -5.9223 H   0  0  0  0  0  0  0  0  0  0  0  0
   11.0929   40.7935   -6.6970 H   0  0  0  0  0  0  0  0  0  0  0  0
   12.9898   37.2326   -5.3054 H   0  0  0  0  0  0  0  0  0  0  0  0
   12.1267   38.4811   -3.8140 H   0  0  0  0  0  0  0  0  0  0  0  0
    9.8220   37.4198   -3.9733 H   0  0  0  0  0  0  0  0  0  0  0  0
   11.3291   37.7949   -1.9684 H   0  0  0  0  0  0  0  0  0  0  0  0
   10.6099   39.4822   -1.8490 H   0  0  0  0  0  0  0  0  0  0  0  0
    8.3784   38.3831   -1.4957 H   0  0  0  0  0  0  0  0  0  0  0  0
    9.1683   35.9548   -0.3141 H   0  0  0  0  0  0  0  0  0  0  0  0
    8.2835   36.1540   -1.8646 H   0  0  0  0  0  0  0  0  0  0  0  0
   10.0738   36.0075   -1.8646 H   0  0  0  0  0  0  0  0  0  0  0  0
    9.1006   37.6126    0.9345 H   0  0  0  0  0  0  0  0  0  0  0  0
   10.7025   38.2587    0.4414 H   0  0  0  0  0  0  0  0  0  0  0  0
    9.2623   39.3323    0.4414 H   0  0  0  0  0  0  0  0  0  0  0  0
    8.0983   43.1587   -1.1215 H   0  0  0  0  0  0  0  0  0  0  0  0
    8.2973   41.4424   -1.6129 H   0  0  0  0  0  0  0  0  0  0  0  0
    9.7140   42.5468   -1.6129 H   0  0  0  0  0  0  0  0  0  0  0  0
    9.2290   43.3748   -3.6230 H   0  0  0  0  0  0  0  0  0  0  0  0
    6.8022   44.0245   -2.2722 H   0  0  0  0  0  0  0  0  0  0  0  0
    7.3866   44.7083   -3.8270 H   0  0  0  0  0  0  0  0  0  0  0  0
    6.2971   43.2802   -3.8270 H   0  0  0  0  0  0  0  0  0  0  0  0
    8.1669   42.0011   -5.2327 H   0  0  0  0  0  0  0  0  0  0  0  0
    7.1637   41.1887   -3.9613 H   0  0  0  0  0  0  0  0  0  0  0  0
   10.1543   40.9496   -3.9777 H   0  0  0  0  0  0  0  0  0  0  0  0
  4  3  1  0
  4  5  2  0
  3  2  2  0
  5  6  1  0
  2  1  1  0
  2  7  1  0
  6  7  2  0
  1 10  1  0
 10  8  1  0
  8  9  2  0
  8 11  1  0
 11 12  1  0
 12 13  1  0
 14 13  2  0
 15 13  1  0
 13 16  1  0
 16 17  1  0
 27 28  1  0
 27 25  1  0
 28 18  1  0
 19 18  2  0
 18 17  1  0
 17 20  1  0
 26 25  1  0
 25 24  1  0
 20 21  1  0
 22 21  1  0
 21 23  1  0
  1 29  1  0
  1 30  1  0
  3 31  1  0
  4 32  1  0
  5 33  1  0
  6 34  1  0
  7 35  1  0
 11 36  1  0
 12 37  1  0
 12 38  1  0
 15 39  1  0
 16 40  1  0
 17 41  1  0
 20 42  1  0
 20 43  1  0
 21 44  1  0
 22 45  1  0
 22 46  1  0
 22 47  1  0
 23 48  1  0
 23 49  1  0
 23 50  1  0
 24 51  1  0
 24 52  1  0
 24 53  1  0
 25 54  1  0
 26 55  1  0
 26 56  1  0
 26 57  1  0
 27 58  1  0
 27 59  1  0
 28 60  1  0
A    1
C7
A    2
C6
A    3
C1
A    4
C2
A    5
C3
A    6
C4
A    7
C5
A    8
C9
A    9
O10
A   10
O8
A   11
N11
A   12
C12
A   13
P13
A   14
O14
A   15
O15
A   16
N16
A   17
C17
A   18
C22
A   19
O23
A   20
C18
A   21
C19
A   22
C20
A   23
C21
A   24
C28
A   25
C26
A   26
C29
A   27
C25
A   28
N24
M  END
