4MU3_IG2_A_303
     RDKit          3D

 26 26  0  0  0  0  0  0  0  0999 V2000
  -22.6500  -41.3300  -14.2480 O   0  0  0  0  0  0  0  0  0  0  0  0
  -23.7420  -40.7040  -13.4080 P   0  0  0  0  0  0  0  0  0  0  0  0
  -23.6830  -39.2200  -13.4920 O   0  0  0  0  0  0  0  0  0  0  0  0
  -25.1330  -41.2160  -13.6780 O   0  0  0  0  0  0  0  0  0  0  0  0
  -23.4850  -41.1040  -11.8740 O   0  0  0  0  0  0  0  0  0  0  0  0
  -22.2220  -40.8170  -11.3090 C   0  0  0  0  0  0  0  0  0  0  0  0
  -22.1070  -41.3920   -9.9140 C   0  0  0  0  0  0  0  0  0  0  0  0
  -22.9140  -40.6820   -8.9820 O   0  0  0  0  0  0  0  0  0  0  0  0
  -20.6700  -41.4320   -9.3900 C   0  0  0  0  0  0  0  0  0  0  0  0
  -19.6630  -41.7020  -10.3300 O   0  0  0  0  0  0  0  0  0  0  0  0
  -20.2120  -40.3090   -8.2880 C   0  0  0  0  0  0  0  0  0  0  0  0
  -18.8880  -40.0240   -8.0880 N   0  0  0  0  0  0  0  0  0  0  0  0
  -18.7790  -39.0850   -7.1470 C   0  0  0  0  0  0  0  0  0  0  0  0
  -20.0000  -38.7170   -6.6960 N   0  0  0  0  0  0  0  0  0  0  0  0
  -20.9050  -39.4450   -7.3700 C   0  0  0  0  0  0  0  0  0  0  0  0
  -23.6678  -38.8381  -12.5787 H   0  0  0  0  0  0  0  0  0  0  0  0
  -25.5946  -41.3859  -12.8189 H   0  0  0  0  0  0  0  0  0  0  0  0
  -21.4367  -41.2536  -11.9436 H   0  0  0  0  0  0  0  0  0  0  0  0
  -22.1062  -39.7248  -11.2478 H   0  0  0  0  0  0  0  0  0  0  0  0
  -22.4663  -42.4276  -10.0059 H   0  0  0  0  0  0  0  0  0  0  0  0
  -22.6421  -40.9212   -8.0606 H   0  0  0  0  0  0  0  0  0  0  0  0
  -20.7718  -42.3486   -8.7904 H   0  0  0  0  0  0  0  0  0  0  0  0
  -18.8226  -41.9273   -9.8578 H   0  0  0  0  0  0  0  0  0  0  0  0
  -18.1010  -40.4647   -8.5852 H   0  0  0  0  0  0  0  0  0  0  0  0
  -17.8271  -38.6673   -6.7872 H   0  0  0  0  0  0  0  0  0  0  0  0
  -21.9961  -39.3898   -7.2414 H   0  0  0  0  0  0  0  0  0  0  0  0
  1  2  2  0
  4  2  1  0
  3  2  1  0
  2  5  1  0
  5  6  1  0
  6  7  1  0
 10  9  1  0
  7  9  1  0
  7  8  1  0
  9 11  1  0
 11 12  1  0
 11 15  2  0
 12 13  1  0
 15 14  1  0
 13 14  2  0
  3 16  1  0
  4 17  1  0
  6 18  1  0
  6 19  1  0
  7 20  1  0
  8 21  1  0
  9 22  1  0
 10 23  1  0
 12 24  1  0
 13 25  1  0
 15 26  1  0
A    1
O4
A    2
P6
A    3
O6
A    4
O5
A    5
O3
A    6
C1
A    7
C2
A    8
O2
A    9
C3
A   10
O1
A   11
C4
A   12
N1
A   13
C6
A   14
N3
A   15
C5
M  END
