4MUH_2DN_A_403
     RDKit          3D

 45 47  0  0  0  0  0  0  0  0999 V2000
   18.4060   12.2200   -0.5440 O   0  0  0  0  0  0  0  0  0  0  0  0
   18.6400   11.1130   -0.8950 C   0  0  0  0  0  0  0  0  0  0  0  0
   19.8020   10.5890   -1.0160 O   0  0  0  0  0  0  0  0  0  0  0  0
   17.5170   10.2980   -1.4820 C   0  0  0  0  0  0  0  0  0  0  0  0
   16.0340   10.5220   -1.3800 N   0  0  0  0  0  0  0  0  0  0  0  0
   15.2620   10.4090   -2.4810 C   0  0  0  0  0  0  0  0  0  0  0  0
   15.6300   10.1610   -3.8020 C   0  0  0  0  0  0  0  0  0  0  0  0
   14.6600   10.0170   -4.7740 C   0  0  0  0  0  0  0  0  0  0  0  0
   13.3200   10.1560   -4.3950 C   0  0  0  0  0  0  0  0  0  0  0  0
   12.4620   10.0340   -5.4190 O   0  0  0  0  0  0  0  0  0  0  0  0
   11.0890    9.7310   -5.2280 C   0  0  0  0  0  0  0  0  0  0  0  0
   12.9750   10.4960   -3.0460 C   0  0  0  0  0  0  0  0  0  0  0  0
   13.9760   10.5830   -2.0970 C   0  0  0  0  0  0  0  0  0  0  0  0
   14.0020   10.8600   -0.7490 C   0  0  0  0  0  0  0  0  0  0  0  0
   15.2850   10.8360   -0.3300 C   0  0  0  0  0  0  0  0  0  0  0  0
   15.7820   11.0020    0.9460 C   0  0  0  0  0  0  0  0  0  0  0  0
   16.9870   10.9780    1.2080 O   0  0  0  0  0  0  0  0  0  0  0  0
   14.8730   10.9680    1.9270 N   0  0  0  0  0  0  0  0  0  0  0  0
   15.2960   11.1630    3.5840 S   0  0  0  0  0  0  0  0  0  0  0  0
   14.0650   10.7900    4.4060 O   0  0  0  0  0  0  0  0  0  0  0  0
   15.5740   12.6110    3.8370 O   0  0  0  0  0  0  0  0  0  0  0  0
   16.5030    9.9360    3.9600 C   0  0  0  0  0  0  0  0  0  0  0  0
   18.1760   10.0720    4.2790 S   0  0  0  0  0  0  0  0  0  0  0  0
   16.1700    8.6450    3.9670 N   0  0  0  0  0  0  0  0  0  0  0  0
   17.2420    7.7870    4.2170 N   0  0  0  0  0  0  0  0  0  0  0  0
   18.4180    8.4050    4.4280 C   0  0  0  0  0  0  0  0  0  0  0  0
   19.5670    7.7390    4.6910 N   0  0  0  0  0  0  0  0  0  0  0  0
   20.7570    8.3830    4.7100 C   0  0  0  0  0  0  0  0  0  0  0  0
   20.9380    9.5950    4.4920 O   0  0  0  0  0  0  0  0  0  0  0  0
   21.9230    7.4350    5.0210 C   0  0  0  0  0  0  0  0  0  0  0  0
   18.3608   12.4340    0.4215 H   0  0  0  0  0  0  0  0  0  0  0  0
   17.7193   10.2919   -2.5632 H   0  0  0  0  0  0  0  0  0  0  0  0
   17.5898    9.4274   -0.8136 H   0  0  0  0  0  0  0  0  0  0  0  0
   16.6937   10.0799   -4.0705 H   0  0  0  0  0  0  0  0  0  0  0  0
   14.9328    9.7991   -5.8171 H   0  0  0  0  0  0  0  0  0  0  0  0
   10.8705    9.6828   -4.1510 H   0  0  0  0  0  0  0  0  0  0  0  0
   10.4725   10.5147   -5.6925 H   0  0  0  0  0  0  0  0  0  0  0  0
   10.8596    8.7606   -5.6925 H   0  0  0  0  0  0  0  0  0  0  0  0
   11.9272   10.6852   -2.7696 H   0  0  0  0  0  0  0  0  0  0  0  0
   13.1244   11.0663   -0.1188 H   0  0  0  0  0  0  0  0  0  0  0  0
   13.8837   10.8197    1.6817 H   0  0  0  0  0  0  0  0  0  0  0  0
   19.5349    6.7269    4.8795 H   0  0  0  0  0  0  0  0  0  0  0  0
   22.0385    7.3411    6.1109 H   0  0  0  0  0  0  0  0  0  0  0  0
   21.7165    6.4453    4.5875 H   0  0  0  0  0  0  0  0  0  0  0  0
   22.8497    7.8391    4.5875 H   0  0  0  0  0  0  0  0  0  0  0  0
 20 19  2  0
 30 28  1  0
 29 28  2  0
 28 27  1  0
 27 26  1  0
 25 26  2  0
 25 24  1  0
 26 23  1  0
 24 22  2  0
 23 22  1  0
 22 19  1  0
 19 21  2  0
 19 18  1  0
 18 16  1  0
 16 17  2  0
 16 15  1  0
 15 14  2  0
 15  5  1  0
 14 13  1  0
  3  2  2  0
  2  1  1  0
  2  4  1  0
  5  4  1  0
  5  6  1  0
 13 12  1  0
 13  6  2  0
 12  9  2  0
  6  7  1  0
  9 10  1  0
  9  8  1  0
  7  8  2  0
 11 10  1  0
  1 31  1  0
  4 32  1  0
  4 33  1  0
  7 34  1  0
  8 35  1  0
 11 36  1  0
 11 37  1  0
 11 38  1  0
 12 39  1  0
 14 40  1  0
 18 41  1  0
 27 42  1  0
 30 43  1  0
 30 44  1  0
 30 45  1  0
A    1
O
A    2
C
A    3
OXT
A    4
CA
A    5
N
A    6
CBB
A    7
CAJ
A    8
CAI
A    9
CAW
A   10
OAR
A   11
CAA
A   12
CAK
A   13
CBA
A   14
CAL
A   15
CAY
A   16
CAV
A   17
OAE
A   18
NAQ
A   19
SBD
A   20
OAF
A   21
OAG
A   22
CAZ
A   23
SAS
A   24
NAO
A   25
NAN
A   26
CAX
A   27
NAP
A   28
CAT
A   29
OAC
A   30
CAB
M  END
