4MUI_2DQ_A_405
     RDKit          3D

 47 49  0  0  0  0  0  0  0  0999 V2000
   18.2930   12.3610   -0.7190 O   0  0  0  0  0  0  0  0  0  0  0  0
   18.7100   11.2310   -0.9340 C   0  0  0  0  0  0  0  0  0  0  0  0
   19.8430   10.8320   -0.7210 O   0  0  0  0  0  0  0  0  0  0  0  0
   17.7800   10.2440   -1.5610 C   0  0  0  0  0  0  0  0  0  0  0  0
   16.3330   10.4850   -1.3540 N   0  0  0  0  0  0  0  0  0  0  0  0
   15.5540   10.3530   -2.4300 C   0  0  0  0  0  0  0  0  0  0  0  0
   15.8720   10.0930   -3.7150 C   0  0  0  0  0  0  0  0  0  0  0  0
   14.8950    9.9950   -4.7060 C   0  0  0  0  0  0  0  0  0  0  0  0
   13.5730   10.1930   -4.3360 C   0  0  0  0  0  0  0  0  0  0  0  0
   12.6440   10.1080   -5.3280 O   0  0  0  0  0  0  0  0  0  0  0  0
   11.3510    9.8860   -4.8480 C   0  0  0  0  0  0  0  0  0  0  0  0
   13.2880   10.4950   -2.9610 C   0  0  0  0  0  0  0  0  0  0  0  0
   14.2860   10.5560   -2.0440 C   0  0  0  0  0  0  0  0  0  0  0  0
   14.3280   10.8180   -0.7020 C   0  0  0  0  0  0  0  0  0  0  0  0
   15.5960   10.7910   -0.2840 C   0  0  0  0  0  0  0  0  0  0  0  0
   16.0470   10.9580    1.0080 C   0  0  0  0  0  0  0  0  0  0  0  0
   16.9400   10.2590    1.4800 O   0  0  0  0  0  0  0  0  0  0  0  0
   15.4760   11.9150    1.7370 N   0  0  0  0  0  0  0  0  0  0  0  0
   15.9060   12.1840    3.3590 S   0  0  0  0  0  0  0  0  0  0  0  0
   15.3420   13.4970    3.7310 O   0  0  0  0  0  0  0  0  0  0  0  0
   17.3710   12.3230    3.6920 O   0  0  0  0  0  0  0  0  0  0  0  0
   15.2970   10.8860    4.3430 C   0  0  0  0  0  0  0  0  0  0  0  0
   13.9760   10.4660    4.2120 C   0  0  0  0  0  0  0  0  0  0  0  0
   13.4820    9.4340    5.0340 C   0  0  0  0  0  0  0  0  0  0  0  0
   14.3340    8.8280    5.9820 C   0  0  0  0  0  0  0  0  0  0  0  0
   13.8640    7.7990    6.7600 O   0  0  0  0  0  0  0  0  0  0  0  0
   14.5260    7.6640    8.0520 C   0  0  0  0  0  0  0  0  0  0  0  0
   15.6600    9.2550    6.0810 C   0  0  0  0  0  0  0  0  0  0  0  0
   16.1580   10.2890    5.2750 C   0  0  0  0  0  0  0  0  0  0  0  0
   18.1765   12.6768    0.2120 H   0  0  0  0  0  0  0  0  0  0  0  0
   18.0170    9.2516   -1.1499 H   0  0  0  0  0  0  0  0  0  0  0  0
   17.9413   10.3356   -2.6453 H   0  0  0  0  0  0  0  0  0  0  0  0
   16.9285    9.9548   -3.9883 H   0  0  0  0  0  0  0  0  0  0  0  0
   15.1646    9.7679   -5.7480 H   0  0  0  0  0  0  0  0  0  0  0  0
   11.3628    9.8880   -3.7481 H   0  0  0  0  0  0  0  0  0  0  0  0
   10.6840   10.6828   -5.2090 H   0  0  0  0  0  0  0  0  0  0  0  0
   10.9880    8.9124   -5.2090 H   0  0  0  0  0  0  0  0  0  0  0  0
   12.2496   10.6788   -2.6482 H   0  0  0  0  0  0  0  0  0  0  0  0
   13.4533   11.0196   -0.0661 H   0  0  0  0  0  0  0  0  0  0  0  0
   14.7534   12.5089    1.3057 H   0  0  0  0  0  0  0  0  0  0  0  0
   13.3189   10.9394    3.4676 H   0  0  0  0  0  0  0  0  0  0  0  0
   12.4377    9.1023    4.9374 H   0  0  0  0  0  0  0  0  0  0  0  0
   13.7920    7.8137    8.8575 H   0  0  0  0  0  0  0  0  0  0  0  0
   14.9633    6.6582    8.1366 H   0  0  0  0  0  0  0  0  0  0  0  0
   15.3222    8.4183    8.1366 H   0  0  0  0  0  0  0  0  0  0  0  0
   16.3286    8.7696    6.8072 H   0  0  0  0  0  0  0  0  0  0  0  0
   17.2012   10.6244    5.3718 H   0  0  0  0  0  0  0  0  0  0  0  0
 10 11  1  0
 10  9  1  0
  8  9  2  0
  8  7  1  0
  9 12  1  0
  7  6  2  0
 12 13  2  0
  6 13  1  0
  6  5  1  0
 13 14  1  0
  4  5  1  0
  4  2  1  0
  5 15  1  0
  2  3  2  0
  2  1  1  0
 14 15  2  0
 15 16  1  0
 16 17  2  0
 16 18  1  0
 18 19  1  0
 19 21  2  0
 19 20  2  0
 19 22  1  0
 23 22  2  0
 23 24  1  0
 22 29  1  0
 24 25  2  0
 29 28  2  0
 25 28  1  0
 25 26  1  0
 26 27  1  0
  1 30  1  0
  4 31  1  0
  4 32  1  0
  7 33  1  0
  8 34  1  0
 11 35  1  0
 11 36  1  0
 11 37  1  0
 12 38  1  0
 14 39  1  0
 18 40  1  0
 23 41  1  0
 24 42  1  0
 27 43  1  0
 27 44  1  0
 27 45  1  0
 28 46  1  0
 29 47  1  0
A    1
O
A    2
C
A    3
OXT
A    4
CA
A    5
N
A    6
CBA
A    7
CAM
A    8
CAL
A    9
CAW
A   10
OAS
A   11
CAB
A   12
CAN
A   13
CAZ
A   14
CAO
A   15
CAY
A   16
CAU
A   17
OAD
A   18
NAQ
A   19
SBC
A   20
OAE
A   21
OAF
A   22
CAX
A   23
CAJ
A   24
CAH
A   25
CAV
A   26
OAR
A   27
CAA
A   28
CAI
A   29
CAK
M  END
