4MUJ_2DU_A_404
     RDKit          3D

 46 48  0  0  0  0  0  0  0  0999 V2000
   19.6330   10.7070   -0.8360 O   0  0  0  0  0  0  0  0  0  0  0  0
   18.5170   11.1690   -0.9070 C   0  0  0  0  0  0  0  0  0  0  0  0
   18.2370   12.3510   -0.8260 O   0  0  0  0  0  0  0  0  0  0  0  0
   17.4650   10.1780   -1.2840 C   0  0  0  0  0  0  0  0  0  0  0  0
   16.0740   10.3750   -1.2220 N   0  0  0  0  0  0  0  0  0  0  0  0
   15.3450   10.2720   -2.3370 C   0  0  0  0  0  0  0  0  0  0  0  0
   15.7050   10.1200   -3.6120 C   0  0  0  0  0  0  0  0  0  0  0  0
   14.7870   10.0890   -4.6250 C   0  0  0  0  0  0  0  0  0  0  0  0
   13.4380   10.1880   -4.3640 C   0  0  0  0  0  0  0  0  0  0  0  0
   12.5720   10.1480   -5.3680 O   0  0  0  0  0  0  0  0  0  0  0  0
   11.2660    9.9860   -5.1070 C   0  0  0  0  0  0  0  0  0  0  0  0
   13.1140   10.3550   -3.0070 C   0  0  0  0  0  0  0  0  0  0  0  0
   14.0590   10.4130   -2.0430 C   0  0  0  0  0  0  0  0  0  0  0  0
   14.0140   10.5670   -0.7100 C   0  0  0  0  0  0  0  0  0  0  0  0
   15.2510   10.5190   -0.2040 C   0  0  0  0  0  0  0  0  0  0  0  0
   15.6080   10.6040    1.1050 C   0  0  0  0  0  0  0  0  0  0  0  0
   16.6470   11.0650    1.4300 O   0  0  0  0  0  0  0  0  0  0  0  0
   14.8180   10.0610    2.0010 N   0  0  0  0  0  0  0  0  0  0  0  0
   15.1300   10.0220    3.6680 S   0  0  0  0  0  0  0  0  0  0  0  0
   16.0820    8.9910    3.9320 O   0  0  0  0  0  0  0  0  0  0  0  0
   15.5590   11.2920    4.1060 O   0  0  0  0  0  0  0  0  0  0  0  0
   13.5750    9.5450    4.4790 C   0  0  0  0  0  0  0  0  0  0  0  0
   13.6930    9.2690    5.8350 C   0  0  0  0  0  0  0  0  0  0  0  0
   13.7940    7.9790    6.2820 C   0  0  0  0  0  0  0  0  0  0  0  0
   13.8720    7.6860    7.6150 C   0  0  0  0  0  0  0  0  0  0  0  0
   13.8590    8.7120    8.4970 C   0  0  0  0  0  0  0  0  0  0  0  0
   13.7250   10.0150    8.0800 C   0  0  0  0  0  0  0  0  0  0  0  0
   13.6840   10.2740    6.7400 C   0  0  0  0  0  0  0  0  0  0  0  0
   18.1363   12.7761    0.0624 H   0  0  0  0  0  0  0  0  0  0  0  0
   17.6586    9.2996   -0.6508 H   0  0  0  0  0  0  0  0  0  0  0  0
   17.6012   10.1717   -2.3755 H   0  0  0  0  0  0  0  0  0  0  0  0
   16.7725   10.0164   -3.8562 H   0  0  0  0  0  0  0  0  0  0  0  0
   15.1311    9.9834   -5.6645 H   0  0  0  0  0  0  0  0  0  0  0  0
   11.1093    9.9666   -4.0184 H   0  0  0  0  0  0  0  0  0  0  0  0
   10.6984   10.8206   -5.5443 H   0  0  0  0  0  0  0  0  0  0  0  0
   10.9195    9.0380   -5.5443 H   0  0  0  0  0  0  0  0  0  0  0  0
   12.0557   10.4414   -2.7199 H   0  0  0  0  0  0  0  0  0  0  0  0
   13.0960   10.7112   -0.1214 H   0  0  0  0  0  0  0  0  0  0  0  0
   13.9452    9.6270    1.6681 H   0  0  0  0  0  0  0  0  0  0  0  0
   12.8573   10.3697    4.3576 H   0  0  0  0  0  0  0  0  0  0  0  0
   13.2448    8.6126    3.9978 H   0  0  0  0  0  0  0  0  0  0  0  0
   13.8129    7.1578    5.5504 H   0  0  0  0  0  0  0  0  0  0  0  0
   13.9434    6.6443    7.9612 H   0  0  0  0  0  0  0  0  0  0  0  0
   13.9579    8.4987    9.5716 H   0  0  0  0  0  0  0  0  0  0  0  0
   13.6522   10.8332    8.8117 H   0  0  0  0  0  0  0  0  0  0  0  0
   13.6430   11.3164    6.3911 H   0  0  0  0  0  0  0  0  0  0  0  0
 10 11  1  0
 10  9  1  0
  8  9  2  0
  8  7  1  0
  9 12  1  0
  7  6  2  0
 12 13  2  0
  6 13  1  0
  6  5  1  0
 13 14  1  0
  4  5  1  0
  4  2  1  0
  5 15  1  0
  2  1  2  0
  2  3  1  0
 14 15  2  0
 15 16  1  0
 16 17  2  0
 16 18  1  0
 18 19  1  0
 19 20  2  0
 19 21  2  0
 19 22  1  0
 22 23  1  0
 23 24  2  0
 23 28  1  0
 24 25  1  0
 28 27  2  0
 25 26  2  0
 27 26  1  0
  3 29  1  0
  4 30  1  0
  4 31  1  0
  7 32  1  0
  8 33  1  0
 11 34  1  0
 11 35  1  0
 11 36  1  0
 12 37  1  0
 14 38  1  0
 18 39  1  0
 22 40  1  0
 22 41  1  0
 24 42  1  0
 25 43  1  0
 26 44  1  0
 27 45  1  0
 28 46  1  0
A    1
O
A    2
C
A    3
OXT
A    4
CA
A    5
N
A    6
CAZ
A    7
CAM
A    8
CAL
A    9
CAW
A   10
OAS
A   11
CAA
A   12
CAN
A   13
CAY
A   14
CAO
A   15
CAX
A   16
CAU
A   17
OAC
A   18
NAR
A   19
SBB
A   20
OAD
A   21
OAE
A   22
CAQ
A   23
CAV
A   24
CAJ
A   25
CAH
A   26
CAG
A   27
CAI
A   28
CAK
M  END
