4MUL_2DW_A_404
     RDKit          3D

 49 52  0  0  0  0  0  0  0  0999 V2000
   19.8300   10.6140   -0.9910 O   0  0  0  0  0  0  0  0  0  0  0  0
   18.6650   11.1260   -1.0250 C   0  0  0  0  0  0  0  0  0  0  0  0
   18.3440   12.2850   -0.7580 O   0  0  0  0  0  0  0  0  0  0  0  0
   17.6120   10.1980   -1.4820 C   0  0  0  0  0  0  0  0  0  0  0  0
   16.1470   10.4550   -1.3650 N   0  0  0  0  0  0  0  0  0  0  0  0
   15.3570   10.3510   -2.4500 C   0  0  0  0  0  0  0  0  0  0  0  0
   15.6770   10.1110   -3.7670 C   0  0  0  0  0  0  0  0  0  0  0  0
   14.6610   10.0320   -4.7290 C   0  0  0  0  0  0  0  0  0  0  0  0
   13.3330   10.2140   -4.3430 C   0  0  0  0  0  0  0  0  0  0  0  0
   12.4370   10.0710   -5.3770 O   0  0  0  0  0  0  0  0  0  0  0  0
   11.0740    9.6930   -4.9910 C   0  0  0  0  0  0  0  0  0  0  0  0
   13.0660   10.4950   -2.9680 C   0  0  0  0  0  0  0  0  0  0  0  0
   14.0800   10.5490   -2.0440 C   0  0  0  0  0  0  0  0  0  0  0  0
   14.1220   10.7660   -0.6760 C   0  0  0  0  0  0  0  0  0  0  0  0
   15.4220   10.7110   -0.2590 C   0  0  0  0  0  0  0  0  0  0  0  0
   15.9780   10.8790    0.9990 C   0  0  0  0  0  0  0  0  0  0  0  0
   17.1280   10.5230    1.2980 O   0  0  0  0  0  0  0  0  0  0  0  0
   15.2700   11.5890    1.8670 N   0  0  0  0  0  0  0  0  0  0  0  0
   15.7590   11.9630    3.4140 S   0  0  0  0  0  0  0  0  0  0  0  0
   15.1380   13.2640    3.7810 O   0  0  0  0  0  0  0  0  0  0  0  0
   17.2220   12.3080    3.6280 O   0  0  0  0  0  0  0  0  0  0  0  0
   15.2780   10.8530    4.4050 C   0  0  0  0  0  0  0  0  0  0  0  0
   16.2060   10.2050    5.2170 C   0  0  0  0  0  0  0  0  0  0  0  0
   15.7180    9.2610    6.1350 C   0  0  0  0  0  0  0  0  0  0  0  0
   16.6260    8.5820    6.9660 C   0  0  0  0  0  0  0  0  0  0  0  0
   16.1090    7.6580    7.8520 C   0  0  0  0  0  0  0  0  0  0  0  0
   14.7290    7.3840    7.9320 C   0  0  0  0  0  0  0  0  0  0  0  0
   13.8310    8.0390    7.1110 C   0  0  0  0  0  0  0  0  0  0  0  0
   14.3350    8.9870    6.2170 C   0  0  0  0  0  0  0  0  0  0  0  0
   13.4480    9.6280    5.3630 C   0  0  0  0  0  0  0  0  0  0  0  0
   13.9340   10.5770    4.4550 C   0  0  0  0  0  0  0  0  0  0  0  0
   18.2646   12.5716    0.1863 H   0  0  0  0  0  0  0  0  0  0  0  0
   17.7999   10.0436   -2.5548 H   0  0  0  0  0  0  0  0  0  0  0  0
   17.7329    9.3809   -0.7556 H   0  0  0  0  0  0  0  0  0  0  0  0
   16.7282    9.9815   -4.0639 H   0  0  0  0  0  0  0  0  0  0  0  0
   14.9090    9.8279   -5.7811 H   0  0  0  0  0  0  0  0  0  0  0  0
   10.9962    9.6714   -3.8940 H   0  0  0  0  0  0  0  0  0  0  0  0
   10.3616   10.4275   -5.3947 H   0  0  0  0  0  0  0  0  0  0  0  0
   10.8416    8.6965   -5.3947 H   0  0  0  0  0  0  0  0  0  0  0  0
   12.0297   10.6712   -2.6439 H   0  0  0  0  0  0  0  0  0  0  0  0
   13.2507   10.9522   -0.0309 H   0  0  0  0  0  0  0  0  0  0  0  0
   14.3492   11.9348    1.5614 H   0  0  0  0  0  0  0  0  0  0  0  0
   17.2812   10.4246    5.1419 H   0  0  0  0  0  0  0  0  0  0  0  0
   17.7068    8.7793    6.9124 H   0  0  0  0  0  0  0  0  0  0  0  0
   16.7976    7.1174    8.5180 H   0  0  0  0  0  0  0  0  0  0  0  0
   14.3628    6.6409    8.6556 H   0  0  0  0  0  0  0  0  0  0  0  0
   12.7539    7.8210    7.1598 H   0  0  0  0  0  0  0  0  0  0  0  0
   12.3740    9.3929    5.3991 H   0  0  0  0  0  0  0  0  0  0  0  0
   13.2392   11.1010    3.7822 H   0  0  0  0  0  0  0  0  0  0  0  0
 26 27  1  0
 26 25  2  0
 27 28  2  0
 25 24  1  0
 28 29  1  0
 24 29  1  0
 24 23  2  0
 29 30  2  0
 23 22  1  0
 30 31  1  0
 22 31  2  0
 22 19  1  0
 20 19  2  0
 19 21  2  0
 19 18  1  0
 18 16  1  0
 17 16  2  0
 16 15  1  0
 15 14  2  0
 15  5  1  0
 14 13  1  0
  1  2  2  0
  3  2  1  0
  2  4  1  0
  5  4  1  0
  5  6  1  0
 13 12  1  0
 13  6  2  0
 12  9  2  0
  6  7  1  0
  9 10  1  0
  9  8  1  0
 11 10  1  0
  7  8  2  0
  3 32  1  0
  4 33  1  0
  4 34  1  0
  7 35  1  0
  8 36  1  0
 11 37  1  0
 11 38  1  0
 11 39  1  0
 12 40  1  0
 14 41  1  0
 18 42  1  0
 23 43  1  0
 25 44  1  0
 26 45  1  0
 27 46  1  0
 28 47  1  0
 30 48  1  0
 31 49  1  0
A    1
O
A    2
C
A    3
OXT
A    4
CA
A    5
N
A    6
CBC
A    7
CAN
A    8
CAI
A    9
CAW
A   10
OAT
A   11
CAA
A   12
CAO
A   13
CBB
A   14
CAQ
A   15
CAY
A   16
CAV
A   17
OAC
A   18
NAS
A   19
SBE
A   20
OAD
A   21
OAE
A   22
CAX
A   23
CAP
A   24
CBA
A   25
CAL
A   26
CAH
A   27
CAG
A   28
CAK
A   29
CAZ
A   30
CAM
A   31
CAJ
M  END
