4MUX_2E4_A_402
     RDKit          3D

 25 25  0  0  0  0  0  0  0  0999 V2000
   -4.4790   -0.1430   14.1620 C   0  0  0  0  0  0  0  0  0  0  0  0
   -5.0230    0.9850   13.5780 C   0  0  0  0  0  0  0  0  0  0  0  0
   -7.7050    1.6370   16.5680 O   0  0  0  0  0  0  0  0  0  0  0  0
   -8.9030    0.7650   16.8810 P   0  0  0  0  0  0  0  0  0  0  0  0
  -10.1400    0.8760   16.0630 O   0  0  0  0  0  0  0  0  0  0  0  0
   -9.1400    1.0810   18.4280 O   0  0  0  0  0  0  0  0  0  0  0  0
   -8.0880   -0.6330   16.8700 O   0  0  0  0  0  0  0  0  0  0  0  0
   -8.7890   -2.1010   16.5620 P   0  0  0  0  0  0  0  0  0  0  0  0
   -7.6640   -2.9790   16.9850 O   0  0  0  0  0  0  0  0  0  0  0  0
  -10.2610   -2.1860   16.9400 O   0  0  0  0  0  0  0  0  0  0  0  0
   -8.8720   -2.1240   14.9420 O   0  0  0  0  0  0  0  0  0  0  0  0
   -7.6290   -2.3320   14.1840 C   0  0  0  0  0  0  0  0  0  0  0  0
   -6.6630   -1.1660   14.0030 C   0  0  0  0  0  0  0  0  0  0  0  0
   -5.3290   -1.2150   14.3760 C   0  0  0  0  0  0  0  0  0  0  0  0
   -7.1250   -0.0240   13.3640 C   0  0  0  0  0  0  0  0  0  0  0  0
   -6.3150    1.0110   13.1720 N   0  0  0  0  0  0  0  0  0  0  0  0
   -3.4169   -0.1875   14.4446 H   0  0  0  0  0  0  0  0  0  0  0  0
   -4.3955    1.8779   13.4403 H   0  0  0  0  0  0  0  0  0  0  0  0
   -7.2880    1.9405   17.4130 H   0  0  0  0  0  0  0  0  0  0  0  0
   -8.6464    0.4228   18.9787 H   0  0  0  0  0  0  0  0  0  0  0  0
  -10.3487   -2.1911   17.9261 H   0  0  0  0  0  0  0  0  0  0  0  0
   -7.9190   -2.6681   13.1775 H   0  0  0  0  0  0  0  0  0  0  0  0
   -7.0636   -3.0463   14.8005 H   0  0  0  0  0  0  0  0  0  0  0  0
   -4.9369   -2.1256   14.8525 H   0  0  0  0  0  0  0  0  0  0  0  0
   -8.1670    0.0243   13.0148 H   0  0  0  0  0  0  0  0  0  0  0  0
 16 15  2  0
 16  2  1  0
 15 13  1  0
  2  1  2  0
 13 12  1  0
 13 14  2  0
  1 14  1  0
 12 11  1  0
 11  8  1  0
  5  4  2  0
  3  4  1  0
  8  7  1  0
  8  9  2  0
  8 10  1  0
  7  4  1  0
  4  6  1  0
  1 17  1  0
  2 18  1  0
  3 19  1  0
  6 20  1  0
 10 21  1  0
 12 22  1  0
 12 23  1  0
 14 24  1  0
 15 25  1  0
A    1
C1
A    2
C2
A    3
O14
A    4
P13
A    5
O15
A    6
O16
A    7
O12
A    8
P9
A    9
O10
A   10
O11
A   11
O8
A   12
C7
A   13
C5
A   14
C6
A   15
C4
A   16
N3
M  END
