4MVH_2F5_A_1010
     RDKit          3D

 49 53  0  0  0  0  0  0  0  0999 V2000
  -14.4200   45.0050   86.6820 O   0  0  0  0  0  0  0  0  0  0  0  0
  -15.1930   44.2400   87.2380 C   0  0  0  0  0  0  0  0  0  0  0  0
  -16.6080   44.7030   87.4830 C   0  0  0  0  0  0  0  0  0  0  0  0
  -17.6910   43.9210   87.6340 N   0  0  0  0  0  0  0  0  0  0  0  0
  -18.8050   44.7350   87.8450 C   0  0  0  0  0  0  0  0  0  0  0  0
  -20.1790   44.4410   88.0690 C   0  0  0  0  0  0  0  0  0  0  0  0
  -21.0970   45.4920   88.2510 C   0  0  0  0  0  0  0  0  0  0  0  0
  -20.6560   46.8310   88.2150 C   0  0  0  0  0  0  0  0  0  0  0  0
  -19.3100   47.1210   87.9980 C   0  0  0  0  0  0  0  0  0  0  0  0
  -18.3680   46.0460   87.8130 C   0  0  0  0  0  0  0  0  0  0  0  0
  -17.0010   46.0080   87.5860 N   0  0  0  0  0  0  0  0  0  0  0  0
  -14.6970   42.8700   87.6740 C   0  0  0  0  0  0  0  0  0  0  0  0
  -15.5740   41.9320   88.2670 C   0  0  0  0  0  0  0  0  0  0  0  0
  -15.1070   40.6800   88.6630 C   0  0  0  0  0  0  0  0  0  0  0  0
  -13.7710   40.3440   88.4690 C   0  0  0  0  0  0  0  0  0  0  0  0
  -13.3370   39.1020   88.8920 O   0  0  0  0  0  0  0  0  0  0  0  0
  -12.9630   38.2090   87.9070 C   0  0  0  0  0  0  0  0  0  0  0  0
  -13.6950   38.0730   86.7760 N   0  0  0  0  0  0  0  0  0  0  0  0
  -13.3250   37.1830   85.8270 C   0  0  0  0  0  0  0  0  0  0  0  0
  -12.1900   36.4020   86.0270 C   0  0  0  0  0  0  0  0  0  0  0  0
  -11.4570   36.5320   87.1700 N   0  0  0  0  0  0  0  0  0  0  0  0
  -11.8200   37.4160   88.1220 C   0  0  0  0  0  0  0  0  0  0  0  0
  -11.0310   37.5650   89.3590 N   0  0  0  0  0  0  0  0  0  0  0  0
  -10.9010   36.3450   89.9070 C   0  0  0  0  0  0  0  0  0  0  0  0
  -10.6060   36.4750   91.3780 C   0  0  0  0  0  0  0  0  0  0  0  0
   -9.6300   37.5340   91.6740 O   0  0  0  0  0  0  0  0  0  0  0  0
  -10.0310   38.8090   91.0620 C   0  0  0  0  0  0  0  0  0  0  0  0
  -10.2730   38.6580   89.5840 C   0  0  0  0  0  0  0  0  0  0  0  0
  -12.8890   41.2720   87.8940 C   0  0  0  0  0  0  0  0  0  0  0  0
  -13.3630   42.5320   87.4940 C   0  0  0  0  0  0  0  0  0  0  0  0
  -17.6976   42.8916   87.5997 H   0  0  0  0  0  0  0  0  0  0  0  0
  -20.5223   43.3964   88.0998 H   0  0  0  0  0  0  0  0  0  0  0  0
  -22.1605   45.2687   88.4217 H   0  0  0  0  0  0  0  0  0  0  0  0
  -21.3767   47.6495   88.3587 H   0  0  0  0  0  0  0  0  0  0  0  0
  -18.9681   48.1661   87.9681 H   0  0  0  0  0  0  0  0  0  0  0  0
  -16.6322   42.1925   88.4167 H   0  0  0  0  0  0  0  0  0  0  0  0
  -15.7942   39.9581   89.1285 H   0  0  0  0  0  0  0  0  0  0  0  0
  -13.9158   37.0772   84.9052 H   0  0  0  0  0  0  0  0  0  0  0  0
  -11.8828   35.6764   85.2594 H   0  0  0  0  0  0  0  0  0  0  0  0
  -11.8360   35.7819   89.7705 H   0  0  0  0  0  0  0  0  0  0  0  0
  -10.0727   35.8129   89.4162 H   0  0  0  0  0  0  0  0  0  0  0  0
  -11.5438   36.7045   91.9052 H   0  0  0  0  0  0  0  0  0  0  0  0
  -10.1710   35.5219   91.7131 H   0  0  0  0  0  0  0  0  0  0  0  0
   -9.2321   39.5485   91.2199 H   0  0  0  0  0  0  0  0  0  0  0  0
  -10.9682   39.1393   91.5338 H   0  0  0  0  0  0  0  0  0  0  0  0
   -9.3096   38.5486   89.0646 H   0  0  0  0  0  0  0  0  0  0  0  0
  -10.7957   39.5492   89.2064 H   0  0  0  0  0  0  0  0  0  0  0  0
  -11.8288   41.0130   87.7569 H   0  0  0  0  0  0  0  0  0  0  0  0
  -12.6728   43.2554   87.0353 H   0  0  0  0  0  0  0  0  0  0  0  0
 19 20  1  0
 19 18  2  0
 20 21  2  0
  1  2  2  0
 18 17  1  0
 21 22  1  0
  2  3  1  0
  2 12  1  0
  3 11  2  0
  3  4  1  0
 30 12  1  0
 30 29  2  0
 11 10  1  0
  4  5  1  0
 12 13  2  0
 10  5  2  0
 10  9  1  0
  5  6  1  0
 29 15  1  0
 17 22  2  0
 17 16  1  0
  9  8  2  0
  6  7  2  0
 22 23  1  0
  8  7  1  0
 13 14  1  0
 15 14  2  0
 15 16  1  0
 23 28  1  0
 23 24  1  0
 28 27  1  0
 24 25  1  0
 27 26  1  0
 25 26  1  0
  4 31  1  0
  6 32  1  0
  7 33  1  0
  8 34  1  0
  9 35  1  0
 13 36  1  0
 14 37  1  0
 19 38  1  0
 20 39  1  0
 24 40  1  0
 24 41  1  0
 25 42  1  0
 25 43  1  0
 27 44  1  0
 27 45  1  0
 28 46  1  0
 28 47  1  0
 29 48  1  0
 30 49  1  0
A    1
O01
A    2
C02
A    3
C03
A    4
N04
A    5
C05
A    6
C06
A    7
C07
A    8
C08
A    9
C09
A   10
C10
A   11
N11
A   12
C12
A   13
C13
A   14
C14
A   15
C15
A   16
O16
A   17
C17
A   18
N18
A   19
C19
A   20
C20
A   21
N21
A   22
C22
A   23
N23
A   24
C24
A   25
C25
A   26
O26
A   27
C27
A   28
C28
A   29
C29
A   30
C30
M  END
