4MX1_1MX_A_301
     RDKit          3D

 43 45  0  0  0  0  0  0  0  0999 V2000
  -23.9710    8.8080   -6.3600 C   0  0  0  0  0  0  0  0  0  0  0  0
  -24.2870    8.0680   -5.2840 N   0  0  0  0  0  0  0  0  0  0  0  0
  -22.1220    8.2520   -9.2320 O   0  0  0  0  0  0  0  0  0  0  0  0
  -22.8220    8.8190   -8.3660 C   0  0  0  0  0  0  0  0  0  0  0  0
  -23.1990    8.1510   -7.2600 N   0  0  0  0  0  0  0  0  0  0  0  0
  -25.5170   14.6200   -8.1710 O   0  0  0  0  0  0  0  0  0  0  0  0
  -23.2180   10.1600   -8.5610 C   0  0  0  0  0  0  0  0  0  0  0  0
  -24.2950   10.0880   -6.4430 N   0  0  0  0  0  0  0  0  0  0  0  0
  -25.1990   15.1030  -14.9190 O   0  0  0  0  0  0  0  0  0  0  0  0
  -24.0210   10.7840   -7.5220 C   0  0  0  0  0  0  0  0  0  0  0  0
  -24.4810   12.0270   -7.6700 N   0  0  0  0  0  0  0  0  0  0  0  0
  -24.2190   12.6980   -8.8080 C   0  0  0  0  0  0  0  0  0  0  0  0
  -22.9010   10.9390   -9.6780 N   0  0  0  0  0  0  0  0  0  0  0  0
  -23.3510   12.1930   -9.8060 C   0  0  0  0  0  0  0  0  0  0  0  0
  -24.6770   14.6440  -10.2080 N   0  0  0  0  0  0  0  0  0  0  0  0
  -24.7670   14.0890   -8.9990 C   0  0  0  0  0  0  0  0  0  0  0  0
  -25.2110   15.6490  -12.7770 N   0  0  0  0  0  0  0  0  0  0  0  0
  -25.1500   16.0490  -10.4410 C   0  0  0  0  0  0  0  0  0  0  0  0
  -26.1190   13.6760  -13.3560 N   0  0  0  0  0  0  0  0  0  0  0  0
  -26.0570   16.0010  -11.6500 C   0  0  0  0  0  0  0  0  0  0  0  0
  -25.5140   14.7920  -13.7700 C   0  0  0  0  0  0  0  0  0  0  0  0
  -26.5030   12.4790  -13.9200 C   0  0  0  0  0  0  0  0  0  0  0  0
  -26.3360   11.3710  -13.1410 C   0  0  0  0  0  0  0  0  0  0  0  0
  -26.7100   10.0730  -13.5600 C   0  0  0  0  0  0  0  0  0  0  0  0
  -27.2960    9.9230  -14.8060 C   0  0  0  0  0  0  0  0  0  0  0  0
  -27.4810   11.0540  -15.5980 C   0  0  0  0  0  0  0  0  0  0  0  0
  -27.0920   12.3420  -15.2030 C   0  0  0  0  0  0  0  0  0  0  0  0
  -24.1276    8.4413   -4.3374 H   0  0  0  0  0  0  0  0  0  0  0  0
  -24.6887    7.1274   -5.4058 H   0  0  0  0  0  0  0  0  0  0  0  0
  -22.9110    7.1746   -7.1029 H   0  0  0  0  0  0  0  0  0  0  0  0
  -23.0544   12.8146  -10.6637 H   0  0  0  0  0  0  0  0  0  0  0  0
  -24.2791   14.1034  -10.9893 H   0  0  0  0  0  0  0  0  0  0  0  0
  -24.2863   16.1005  -12.8208 H   0  0  0  0  0  0  0  0  0  0  0  0
  -25.7047   16.4137   -9.5639 H   0  0  0  0  0  0  0  0  0  0  0  0
  -24.3035   16.7319  -10.6053 H   0  0  0  0  0  0  0  0  0  0  0  0
  -26.3614   13.7218  -12.3560 H   0  0  0  0  0  0  0  0  0  0  0  0
  -26.5240   16.9831  -11.8157 H   0  0  0  0  0  0  0  0  0  0  0  0
  -26.8682   15.2706  -11.5140 H   0  0  0  0  0  0  0  0  0  0  0  0
  -25.8906   11.4929  -12.1426 H   0  0  0  0  0  0  0  0  0  0  0  0
  -26.5392    9.2017  -12.9106 H   0  0  0  0  0  0  0  0  0  0  0  0
  -27.6090    8.9307  -15.1630 H   0  0  0  0  0  0  0  0  0  0  0  0
  -27.9560   10.9305  -16.5825 H   0  0  0  0  0  0  0  0  0  0  0  0
  -27.2377   13.2110  -15.8615 H   0  0  0  0  0  0  0  0  0  0  0  0
  1  2  1  0
  1  5  1  0
  1  8  2  0
  3  4  2  0
  4  5  1  0
  4  7  1  0
  6 16  2  0
  7 10  2  0
  7 13  1  0
  8 10  1  0
  9 21  2  0
 10 11  1  0
 11 12  2  0
 12 14  1  0
 12 16  1  0
 13 14  2  0
 15 16  1  0
 15 18  1  0
 17 20  1  0
 17 21  1  0
 18 20  1  0
 19 21  1  0
 19 22  1  0
 22 23  2  0
 22 27  1  0
 23 24  1  0
 24 25  2  0
 25 26  1  0
 26 27  2  0
  2 28  1  0
  2 29  1  0
  5 30  1  0
 14 31  1  0
 15 32  1  0
 17 33  1  0
 18 34  1  0
 18 35  1  0
 19 36  1  0
 20 37  1  0
 20 38  1  0
 23 39  1  0
 24 40  1  0
 25 41  1  0
 26 42  1  0
 27 43  1  0
A    1
C
A    2
N
A    3
O
A    4
C1
A    5
N1
A    6
O1
A    7
C2
A    8
N2
A    9
O2
A   10
C3
A   11
N3
A   12
C4
A   13
N4
A   14
C5
A   15
N5
A   16
C6
A   17
N6
A   18
C7
A   19
N7
A   20
C8
A   21
C9
A   22
C10
A   23
C11
A   24
C12
A   25
C13
A   26
C14
A   27
C15
M  END
