4N1T_2GD_A_201
     RDKit          3D

 27 28  0  0  0  0  0  0  0  0999 V2000
   16.2810  -10.7210    2.6500 C   0  0  0  0  0  0  0  0  0  0  0  0
   17.4760  -13.1170    5.7870 N   0  0  0  0  0  0  0  0  0  0  0  0
   17.0860  -12.2500    4.7540 C   0  0  0  0  0  0  0  0  0  0  0  0
   15.7540  -12.1010    4.4600 N   0  0  0  0  0  0  0  0  0  0  0  0
   15.3470  -11.2810    3.4220 C   0  0  0  0  0  0  0  0  0  0  0  0
   13.8890  -11.2650    3.1270 C   0  0  0  0  0  0  0  0  0  0  0  0
   13.4250  -11.6570    1.9000 C   0  0  0  0  0  0  0  0  0  0  0  0
   12.0300  -11.7020    1.6790 C   0  0  0  0  0  0  0  0  0  0  0  0
   11.1680  -11.3390    2.6560 C   0  0  0  0  0  0  0  0  0  0  0  0
   11.6610  -10.9470    3.8460 C   0  0  0  0  0  0  0  0  0  0  0  0
   10.6300  -10.5160    5.1210 Cl  0  0  0  0  0  0  0  0  0  0  0  0
   13.0310  -10.9050    4.0990 C   0  0  0  0  0  0  0  0  0  0  0  0
   13.5790  -10.3550    5.6010 Cl  0  0  0  0  0  0  0  0  0  0  0  0
   17.6680  -10.8520    3.0430 C   0  0  0  0  0  0  0  0  0  0  0  0
   18.6820  -10.2420    2.2580 N   0  0  0  0  0  0  0  0  0  0  0  0
   18.3850   -9.4420    1.0840 C   0  0  0  0  0  0  0  0  0  0  0  0
   18.0250  -11.5950    4.0700 N   0  0  0  0  0  0  0  0  0  0  0  0
   16.0034  -10.1733    1.7373 H   0  0  0  0  0  0  0  0  0  0  0  0
   17.3498  -12.8365    6.7700 H   0  0  0  0  0  0  0  0  0  0  0  0
   17.8883  -14.0336    5.5619 H   0  0  0  0  0  0  0  0  0  0  0  0
   14.1269  -11.9325    1.0991 H   0  0  0  0  0  0  0  0  0  0  0  0
   11.6422  -12.0348    0.7049 H   0  0  0  0  0  0  0  0  0  0  0  0
   10.0822  -11.3636    2.4813 H   0  0  0  0  0  0  0  0  0  0  0  0
   19.6662  -10.3723    2.5323 H   0  0  0  0  0  0  0  0  0  0  0  0
   18.0180   -8.4535    1.3972 H   0  0  0  0  0  0  0  0  0  0  0  0
   19.2979   -9.3205    0.4825 H   0  0  0  0  0  0  0  0  0  0  0  0
   17.6140   -9.9457    0.4825 H   0  0  0  0  0  0  0  0  0  0  0  0
  1  5  2  0
  1 14  1  0
  2  3  1  0
  3  4  2  0
  3 17  1  0
  4  5  1  0
  5  6  1  0
  6  7  2  0
  6 12  1  0
  7  8  1  0
  8  9  2  0
  9 10  1  0
 10 12  2  0
 12 13  1  0
 14 15  1  0
 14 17  2  0
 15 16  1  0
 10 11  1  0
  1 18  1  0
  2 19  1  0
  2 20  1  0
  7 21  1  0
  8 22  1  0
  9 23  1  0
 15 24  1  0
 16 25  1  0
 16 26  1  0
 16 27  1  0
A    1
C13
A    2
N01
A    3
C02
A    4
N03
A    5
C04
A    6
C05
A    7
C06
A    8
C07
A    9
C08
A   10
C09
A   11
CL1
A   12
C11
A   13
CL2
A   14
C14
A   15
N15
A   16
C16
A   17
N17
M  END
