4N32_2F8_A_401
     RDKit          3D

 33 33  0  0  0  0  0  0  0  0999 V2000
   33.8490   43.5320    3.0320 O   0  0  0  0  0  0  0  0  0  0  0  0
   33.0300   42.5440    3.6620 C   0  0  0  0  0  0  0  0  0  0  0  0
   32.5630   43.0780    5.0090 C   0  0  0  0  0  0  0  0  0  0  0  0
   31.6190   44.1340    4.7990 O   0  0  0  0  0  0  0  0  0  0  0  0
   31.0540   44.6920    5.9990 C   0  0  0  0  0  0  0  0  0  0  0  0
   31.9920   45.5480    6.6590 O   0  0  0  0  0  0  0  0  0  0  0  0
   32.6150   46.4870    5.7810 C   0  0  0  0  0  0  0  0  0  0  0  0
   30.5290   43.6200    6.9700 C   0  0  0  0  0  0  0  0  0  0  0  0
   30.1430   44.2330    8.2280 N   0  0  0  0  0  0  0  0  0  0  0  0
   28.9130   44.1910    8.7380 C   0  0  0  0  0  0  0  0  0  0  0  0
   28.0090   43.5240    8.2620 O   0  0  0  0  0  0  0  0  0  0  0  0
   28.7070   45.0220    9.9680 C   0  0  0  0  0  0  0  0  0  0  0  0
   31.5560   42.5240    7.2090 C   0  0  0  0  0  0  0  0  0  0  0  0
   30.9850   41.4680    8.0000 O   0  0  0  0  0  0  0  0  0  0  0  0
   31.9580   41.9680    5.8600 C   0  0  0  0  0  0  0  0  0  0  0  0
   32.9120   40.9190    6.0410 O   0  0  0  0  0  0  0  0  0  0  0  0
   34.3005   44.0767    3.7244 H   0  0  0  0  0  0  0  0  0  0  0  0
   32.1577   42.3280    3.0276 H   0  0  0  0  0  0  0  0  0  0  0  0
   33.6067   41.6186    3.8071 H   0  0  0  0  0  0  0  0  0  0  0  0
   33.4310   43.4737    5.5568 H   0  0  0  0  0  0  0  0  0  0  0  0
   30.1862   45.2890    5.6819 H   0  0  0  0  0  0  0  0  0  0  0  0
   33.1273   47.2592    6.3737 H   0  0  0  0  0  0  0  0  0  0  0  0
   33.3471   45.9659    5.1466 H   0  0  0  0  0  0  0  0  0  0  0  0
   31.8503   46.9590    5.1466 H   0  0  0  0  0  0  0  0  0  0  0  0
   29.6470   43.1519    6.5085 H   0  0  0  0  0  0  0  0  0  0  0  0
   30.8680   44.7335    8.7616 H   0  0  0  0  0  0  0  0  0  0  0  0
   28.8614   44.3991   10.8614 H   0  0  0  0  0  0  0  0  0  0  0  0
   29.4260   45.8545    9.9727 H   0  0  0  0  0  0  0  0  0  0  0  0
   27.6824   45.4223    9.9727 H   0  0  0  0  0  0  0  0  0  0  0  0
   32.4243   42.9343    7.7453 H   0  0  0  0  0  0  0  0  0  0  0  0
   31.0982   41.6773    8.9610 H   0  0  0  0  0  0  0  0  0  0  0  0
   31.0705   41.5659    5.3494 H   0  0  0  0  0  0  0  0  0  0  0  0
   33.0527   40.7643    7.0087 H   0  0  0  0  0  0  0  0  0  0  0  0
  1  2  1  0
  2  3  1  0
  4  3  1  0
  4  5  1  0
  3 15  1  0
  7  6  1  0
 15 16  1  0
 15 13  1  0
  5  6  1  0
  5  8  1  0
  8 13  1  0
  8  9  1  0
 13 14  1  0
  9 10  1  0
 11 10  2  0
 10 12  1  0
  1 17  1  0
  2 18  1  0
  2 19  1  0
  3 20  1  0
  5 21  1  0
  7 22  1  0
  7 23  1  0
  7 24  1  0
  8 25  1  0
  9 26  1  0
 12 27  1  0
 12 28  1  0
 12 29  1  0
 13 30  1  0
 14 31  1  0
 15 32  1  0
 16 33  1  0
A    1
O6
A    2
C6
A    3
C5
A    4
O5
A    5
C1
A    6
O1
A    7
CM
A    8
C2
A    9
N2
A   10
C7
A   11
O7
A   12
C8
A   13
C3
A   14
O3
A   15
C4
A   16
O4
M  END
