4N4D_XX8_A_201
     RDKit          3D

 32 33  0  0  0  0  0  0  0  0999 V2000
   15.7720   21.8510   42.0700 C   0  0  0  0  0  0  0  0  0  0  0  0
   16.3790   17.9470   45.0450 N   0  0  0  0  0  0  0  0  0  0  0  0
   20.7930   18.1980   42.4580 O   0  0  0  0  0  0  0  0  0  0  0  0
   21.1020   17.0430   43.3630 C   0  0  0  0  0  0  0  0  0  0  0  0
   19.8200   17.5790   47.4530 C   0  0  0  0  0  0  0  0  0  0  0  0
   20.6600   17.2180   44.8100 C   0  0  0  0  0  0  0  0  0  0  0  0
   19.7050   18.2030   45.1210 C   0  0  0  0  0  0  0  0  0  0  0  0
   19.2750   18.3670   46.4800 C   0  0  0  0  0  0  0  0  0  0  0  0
   18.2010   19.4640   46.8420 C   0  0  0  0  0  0  0  0  0  0  0  0
   16.6950   19.3280   44.7480 C   0  0  0  0  0  0  0  0  0  0  0  0
   16.1380   19.9380   43.6230 N   0  0  0  0  0  0  0  0  0  0  0  0
   16.4050   21.2020   43.3180 C   0  0  0  0  0  0  0  0  0  0  0  0
   17.2220   21.9230   44.0820 N   0  0  0  0  0  0  0  0  0  0  0  0
   17.8110   21.4130   45.2150 C   0  0  0  0  0  0  0  0  0  0  0  0
   17.5580   20.0670   45.5960 C   0  0  0  0  0  0  0  0  0  0  0  0
   21.1990   16.4230   45.7910 C   0  0  0  0  0  0  0  0  0  0  0  0
   20.7770   16.6000   47.1490 C   0  0  0  0  0  0  0  0  0  0  0  0
   15.0357   22.6059   42.3829 H   0  0  0  0  0  0  0  0  0  0  0  0
   16.5574   22.3320   41.4686 H   0  0  0  0  0  0  0  0  0  0  0  0
   15.2715   21.0778   41.4686 H   0  0  0  0  0  0  0  0  0  0  0  0
   16.3074   17.6341   46.0237 H   0  0  0  0  0  0  0  0  0  0  0  0
   16.2257   17.2772   44.2776 H   0  0  0  0  0  0  0  0  0  0  0  0
   20.5794   18.9964   43.0031 H   0  0  0  0  0  0  0  0  0  0  0  0
   22.1908   16.8868   43.3561 H   0  0  0  0  0  0  0  0  0  0  0  0
   20.5334   16.1868   42.9710 H   0  0  0  0  0  0  0  0  0  0  0  0
   19.5017   17.7150   48.4971 H   0  0  0  0  0  0  0  0  0  0  0  0
   19.2908   18.8429   44.3279 H   0  0  0  0  0  0  0  0  0  0  0  0
   17.4159   19.0025   47.4590 H   0  0  0  0  0  0  0  0  0  0  0  0
   18.7109   20.2724   47.3866 H   0  0  0  0  0  0  0  0  0  0  0  0
   18.4752   22.0439   45.8240 H   0  0  0  0  0  0  0  0  0  0  0  0
   21.9473   15.6578   45.5371 H   0  0  0  0  0  0  0  0  0  0  0  0
   21.2006   15.9726   47.9471 H   0  0  0  0  0  0  0  0  0  0  0  0
  5 17  2  0
  5  8  1  0
 17 16  1  0
  9  8  1  0
  9 15  1  0
  8  7  2  0
 16  6  2  0
 15 14  1  0
 15 10  2  0
  7  6  1  0
 14 13  2  0
  6  4  1  0
  2 10  1  0
 10 11  1  0
 13 12  1  0
  4  3  1  0
 11 12  2  0
 12  1  1  0
  1 18  1  0
  1 19  1  0
  1 20  1  0
  2 21  1  0
  2 22  1  0
  3 23  1  0
  4 24  1  0
  4 25  1  0
  5 26  1  0
  7 27  1  0
  9 28  1  0
  9 29  1  0
 14 30  1  0
 16 31  1  0
 17 32  1  0
A    1
CM2
A    2
N4A
A    3
O01
A    4
C6
A    5
C2
A    6
C5
A    7
C4
A    8
C01
A    9
C7A
A   10
C4A
A   11
N3A
A   12
C2A
A   13
N1A
A   14
C6A
A   15
C5A
A   16
C28
A   17
C30
M  END
