4N4T_2GV_A_1402
     RDKit          3D

 56 60  0  0  0  0  0  0  0  0999 V2000
   -7.2950   46.6320   28.4240 C   0  0  0  0  0  0  0  0  0  0  0  0
   -7.4840   47.2320   29.7220 C   0  0  0  0  0  0  0  0  0  0  0  0
   -6.6190   46.7990   30.8230 C   0  0  0  0  0  0  0  0  0  0  0  0
   -5.5650   45.7910   30.6860 C   0  0  0  0  0  0  0  0  0  0  0  0
   -5.3840   45.2010   29.3900 C   0  0  0  0  0  0  0  0  0  0  0  0
   -6.2560   45.6300   28.2730 C   0  0  0  0  0  0  0  0  0  0  0  0
   -6.1720   45.0680   26.9140 C   0  0  0  0  0  0  0  0  0  0  0  0
   -4.9910   45.5460   26.1540 C   0  0  0  0  0  0  0  0  0  0  0  0
   -4.2930   46.8490   26.4120 C   0  0  0  0  0  0  0  0  0  0  0  0
   -5.2800   45.4350   24.6970 C   0  0  0  0  0  0  0  0  0  0  0  0
   -3.9980   44.3890   26.6200 O   0  0  0  0  0  0  0  0  0  0  0  0
   -4.6880   43.1960   26.8960 C   0  0  0  0  0  0  0  0  0  0  0  0
   -4.0010   42.1940   27.0070 O   0  0  0  0  0  0  0  0  0  0  0  0
   -6.0190   43.5770   26.9710 N   0  0  0  0  0  0  0  0  0  0  0  0
   -8.3450   43.0950   26.7280 C   0  0  0  0  0  0  0  0  0  0  0  0
   -6.9900   42.7030   27.0710 C   0  0  0  0  0  0  0  0  0  0  0  0
   -6.5870   41.3870   27.5280 C   0  0  0  0  0  0  0  0  0  0  0  0
   -7.5430   40.3980   27.6550 C   0  0  0  0  0  0  0  0  0  0  0  0
   -8.9290   40.7310   27.3160 C   0  0  0  0  0  0  0  0  0  0  0  0
   -9.3270   42.0750   26.8590 C   0  0  0  0  0  0  0  0  0  0  0  0
   -9.8530   39.6090   27.4280 C   0  0  0  0  0  0  0  0  0  0  0  0
  -11.0320   39.7720   28.2100 C   0  0  0  0  0  0  0  0  0  0  0  0
  -11.9610   38.7200   28.4190 C   0  0  0  0  0  0  0  0  0  0  0  0
  -11.5980   37.4560   27.7780 C   0  0  0  0  0  0  0  0  0  0  0  0
  -10.4590   37.3110   27.0120 N   0  0  0  0  0  0  0  0  0  0  0  0
   -9.5630   38.3140   26.7890 C   0  0  0  0  0  0  0  0  0  0  0  0
  -13.4210   40.3200   29.8140 N   0  0  0  0  0  0  0  0  0  0  0  0
  -14.6240   40.6110   30.4240 C   0  0  0  0  0  0  0  0  0  0  0  0
  -15.7280   39.6590   30.4160 C   0  0  0  0  0  0  0  0  0  0  0  0
  -15.4830   38.3970   29.7250 C   0  0  0  0  0  0  0  0  0  0  0  0
  -14.2650   38.1390   29.1210 N   0  0  0  0  0  0  0  0  0  0  0  0
  -13.1950   39.0690   29.1340 C   0  0  0  0  0  0  0  0  0  0  0  0
  -12.2590   36.3120   27.8890 N   0  0  0  0  0  0  0  0  0  0  0  0
   -7.9226   46.9265   27.5700 H   0  0  0  0  0  0  0  0  0  0  0  0
   -8.2588   47.9963   29.8817 H   0  0  0  0  0  0  0  0  0  0  0  0
   -6.7703   47.2583   31.8110 H   0  0  0  0  0  0  0  0  0  0  0  0
   -4.9380   45.4982   31.5411 H   0  0  0  0  0  0  0  0  0  0  0  0
   -4.6069   44.4394   29.2287 H   0  0  0  0  0  0  0  0  0  0  0  0
   -7.1006   45.3885   26.4190 H   0  0  0  0  0  0  0  0  0  0  0  0
   -4.2066   47.0102   27.4967 H   0  0  0  0  0  0  0  0  0  0  0  0
   -3.2886   46.8219   25.9642 H   0  0  0  0  0  0  0  0  0  0  0  0
   -4.8720   47.6701   25.9642 H   0  0  0  0  0  0  0  0  0  0  0  0
   -6.2981   45.0440   24.5539 H   0  0  0  0  0  0  0  0  0  0  0  0
   -5.1997   46.4280   24.2306 H   0  0  0  0  0  0  0  0  0  0  0  0
   -4.5556   44.7511   24.2306 H   0  0  0  0  0  0  0  0  0  0  0  0
   -8.5950   44.1115   26.3899 H   0  0  0  0  0  0  0  0  0  0  0  0
   -5.5343   41.1792   27.7702 H   0  0  0  0  0  0  0  0  0  0  0  0
   -7.2716   39.3896   28.0006 H   0  0  0  0  0  0  0  0  0  0  0  0
  -10.3795   42.2879   26.6203 H   0  0  0  0  0  0  0  0  0  0  0  0
  -11.2302   40.7514   28.6698 H   0  0  0  0  0  0  0  0  0  0  0  0
   -8.6700   38.1640   26.1644 H   0  0  0  0  0  0  0  0  0  0  0  0
  -14.7526   41.5810   30.9265 H   0  0  0  0  0  0  0  0  0  0  0  0
  -16.6897   39.8790   30.9025 H   0  0  0  0  0  0  0  0  0  0  0  0
  -16.2791   37.6390   29.6837 H   0  0  0  0  0  0  0  0  0  0  0  0
  -12.4784   35.9323   28.8210 H   0  0  0  0  0  0  0  0  0  0  0  0
  -12.5531   35.8030   27.0432 H   0  0  0  0  0  0  0  0  0  0  0  0
  3  4  2  0
  3  2  1  0
  4  5  1  0
 28 29  1  0
 28 27  2  0
 29 30  2  0
 27 32  1  0
 30 31  1  0
  2  1  2  0
  5  6  2  0
 32 31  2  0
 32 23  1  0
 23 22  2  0
 23 24  1  0
  1  6  1  0
 22 21  1  0
  6  7  1  0
 33 24  1  0
 24 25  2  0
 18 19  2  0
 18 17  1  0
 21 19  1  0
 21 26  2  0
 19 20  1  0
 17 16  2  0
 20 15  2  0
 16 15  1  0
 16 14  1  0
 14  7  1  0
 14 12  1  0
 25 26  1  0
  7  8  1  0
 13 12  2  0
 12 11  1  0
  9  8  1  0
 11  8  1  0
  8 10  1  0
  1 34  1  0
  2 35  1  0
  3 36  1  0
  4 37  1  0
  5 38  1  0
  7 39  1  0
  9 40  1  0
  9 41  1  0
  9 42  1  0
 10 43  1  0
 10 44  1  0
 10 45  1  0
 15 46  1  0
 17 47  1  0
 18 48  1  0
 20 49  1  0
 22 50  1  0
 26 51  1  0
 28 52  1  0
 29 53  1  0
 30 54  1  0
 33 55  1  0
 33 56  1  0
A    1
C12
A    2
C13
A    3
C14
A    4
C15
A    5
C16
A    6
C17
A    7
C7
A    8
C8
A    9
C9
A   10
C10
A   11
O1
A   12
C11
A   13
O2
A   14
N2
A   15
C18
A   16
C19
A   17
C20
A   18
C21
A   19
C5
A   20
C22
A   21
C1
A   22
C23
A   23
C24
A   24
C25
A   25
N3
A   26
C26
A   27
N1
A   28
C2
A   29
C3
A   30
C4
A   31
N5
A   32
C6
A   33
N4
M  END
