4N7E_2JQ_A_807
     RDKit          3D

 34 35  0  0  0  0  0  0  0  0999 V2000
  -29.7770   39.7990   14.3930 C   0  0  0  0  0  0  0  0  0  0  0  0
  -31.3400   40.5770   12.7670 C   0  0  0  0  0  0  0  0  0  0  0  0
  -33.8020   40.1420   13.0420 C   0  0  0  0  0  0  0  0  0  0  0  0
  -28.8810   41.0290   12.4330 C   0  0  0  0  0  0  0  0  0  0  0  0
  -33.9810   39.4970   16.0620 O   0  0  0  0  0  0  0  0  0  0  0  0
  -33.1670   38.7700   15.5400 C   0  0  0  0  0  0  0  0  0  0  0  0
  -33.1430   37.3690   15.7220 N   0  0  0  0  0  0  0  0  0  0  0  0
  -34.0670   36.6280   16.4980 C   0  0  0  0  0  0  0  0  0  0  0  0
  -35.2570   37.1840   16.9510 C   0  0  0  0  0  0  0  0  0  0  0  0
  -36.1560   36.4390   17.6930 C   0  0  0  0  0  0  0  0  0  0  0  0
  -35.8030   35.1230   17.9610 C   0  0  0  0  0  0  0  0  0  0  0  0
  -34.5990   34.5950   17.5000 C   0  0  0  0  0  0  0  0  0  0  0  0
  -34.2420   33.1610   17.8140 C   0  0  0  0  0  0  0  0  0  0  0  0
  -33.7610   35.3490   16.7820 N   0  0  0  0  0  0  0  0  0  0  0  0
  -32.0850   39.3730   14.6920 C   0  0  0  0  0  0  0  0  0  0  0  0
  -30.7920   39.2570   15.1360 C   0  0  0  0  0  0  0  0  0  0  0  0
  -30.0440   40.4660   13.2230 C   0  0  0  0  0  0  0  0  0  0  0  0
  -32.3700   40.0340   13.5160 C   0  0  0  0  0  0  0  0  0  0  0  0
  -34.1990   41.2060   12.4930 O   0  0  0  0  0  0  0  0  0  0  0  0
  -34.5830   39.1580   13.1800 O   0  0  0  0  0  0  0  0  0  0  0  0
  -27.8450   41.3290   13.2350 F   0  0  0  0  0  0  0  0  0  0  0  0
  -29.2390   42.0980   11.7010 F   0  0  0  0  0  0  0  0  0  0  0  0
  -28.4960   40.0420   11.6240 F   0  0  0  0  0  0  0  0  0  0  0  0
  -28.7371   39.6989   14.7373 H   0  0  0  0  0  0  0  0  0  0  0  0
  -31.5536   41.0914   11.8184 H   0  0  0  0  0  0  0  0  0  0  0  0
  -32.3920   36.8438   15.2518 H   0  0  0  0  0  0  0  0  0  0  0  0
  -35.4880   38.2334   16.7159 H   0  0  0  0  0  0  0  0  0  0  0  0
  -37.1030   36.8676   18.0527 H   0  0  0  0  0  0  0  0  0  0  0  0
  -36.4843   34.4878   18.5461 H   0  0  0  0  0  0  0  0  0  0  0  0
  -34.2074   33.0221   18.9047 H   0  0  0  0  0  0  0  0  0  0  0  0
  -35.0009   32.4914   17.3830 H   0  0  0  0  0  0  0  0  0  0  0  0
  -33.2578   32.9254   17.3830 H   0  0  0  0  0  0  0  0  0  0  0  0
  -30.5728   38.7342   16.0787 H   0  0  0  0  0  0  0  0  0  0  0  0
  -34.8307   38.8459   14.0863 H   0  0  0  0  0  0  0  0  0  0  0  0
 23  4  1  0
 22  4  1  0
  4 17  1  0
  4 21  1  0
 19  3  2  0
  2 17  1  0
  2 18  2  0
  3 20  1  0
  3 18  1  0
 17  1  2  0
 18 15  1  0
  1 16  1  0
 15 16  2  0
 15  6  1  0
  6  7  1  0
  6  5  2  0
  7  8  1  0
  8 14  1  0
  8  9  2  0
 14 12  2  0
  9 10  1  0
 12 13  1  0
 12 11  1  0
 10 11  2  0
  1 24  1  0
  2 25  1  0
  7 26  1  0
  9 27  1  0
 10 28  1  0
 11 29  1  0
 13 30  1  0
 13 31  1  0
 13 32  1  0
 16 33  1  0
 20 34  1  0
A    1
C13
A    2
C15
A    3
C17
A    4
C20
A    5
O01
A    6
C02
A    7
N03
A    8
C04
A    9
C05
A   10
C06
A   11
C07
A   12
C08
A   13
C09
A   14
N10
A   15
C11
A   16
C12
A   17
C14
A   18
C16
A   19
O18
A   20
O19
A   21
F21
A   22
F22
A   23
F23
M  END
