4N8R_K08_A_501
     RDKit          3D

 51 54  0  0  0  0  0  0  0  0999 V2000
   47.0390   -6.8110  113.2700 C   0  0  0  0  0  0  0  0  0  0  0  0
   48.5300   -6.9920  113.1040 C   0  0  0  0  0  0  0  0  0  0  0  0
   49.3990   -6.2380  112.1840 C   0  0  0  0  0  0  0  0  0  0  0  0
   50.8380   -6.7530  112.3570 C   0  0  0  0  0  0  0  0  0  0  0  0
   50.8220   -7.7920  113.3530 C   0  0  0  0  0  0  0  0  0  0  0  0
   49.3600   -7.9600  113.8410 C   0  0  0  0  0  0  0  0  0  0  0  0
   48.8320   -8.8070  114.7590 C   0  0  0  0  0  0  0  0  0  0  0  0
   49.5330   -9.9910  115.3840 C   0  0  0  0  0  0  0  0  0  0  0  0
   49.4360  -10.1610  116.7550 C   0  0  0  0  0  0  0  0  0  0  0  0
   50.0570  -11.2310  117.3650 C   0  0  0  0  0  0  0  0  0  0  0  0
   50.7710  -12.1420  116.6060 C   0  0  0  0  0  0  0  0  0  0  0  0
   50.8520  -11.9860  115.2310 C   0  0  0  0  0  0  0  0  0  0  0  0
   50.2270  -10.9150  114.6130 C   0  0  0  0  0  0  0  0  0  0  0  0
   51.4330  -13.3190  117.2970 C   0  0  0  0  0  0  0  0  0  0  0  0
   52.9420  -13.2630  117.2860 C   0  0  0  0  0  0  0  0  0  0  0  0
   50.9270  -14.6370  116.7600 C   0  0  0  0  0  0  0  0  0  0  0  0
   52.0270   -8.4240  113.6860 C   0  0  0  0  0  0  0  0  0  0  0  0
   53.2300   -8.0480  113.0570 C   0  0  0  0  0  0  0  0  0  0  0  0
   53.2270   -7.0190  112.0720 C   0  0  0  0  0  0  0  0  0  0  0  0
   52.0260   -6.3790  111.7290 C   0  0  0  0  0  0  0  0  0  0  0  0
   48.9620   -5.1330  111.2550 C   0  0  0  0  0  0  0  0  0  0  0  0
   49.4590   -3.7950  111.7750 C   0  0  0  0  0  0  0  0  0  0  0  0
   49.0620   -3.5720  113.2200 C   0  0  0  0  0  0  0  0  0  0  0  0
   49.8440   -3.7360  114.2990 N   0  0  0  0  0  0  0  0  0  0  0  0
   49.1120   -3.4480  115.3870 N   0  0  0  0  0  0  0  0  0  0  0  0
   47.8870   -3.1060  115.0070 N   0  0  0  0  0  0  0  0  0  0  0  0
   47.8460   -3.1810  113.6620 N   0  0  0  0  0  0  0  0  0  0  0  0
   46.7903   -6.7808  114.3411 H   0  0  0  0  0  0  0  0  0  0  0  0
   46.7289   -5.8686  112.7949 H   0  0  0  0  0  0  0  0  0  0  0  0
   46.5124   -7.6518  112.7949 H   0  0  0  0  0  0  0  0  0  0  0  0
   47.7972   -8.6143  115.0785 H   0  0  0  0  0  0  0  0  0  0  0  0
   48.8629   -9.4417  117.3584 H   0  0  0  0  0  0  0  0  0  0  0  0
   49.9848  -11.3603  118.4550 H   0  0  0  0  0  0  0  0  0  0  0  0
   51.4142  -12.7148  114.6287 H   0  0  0  0  0  0  0  0  0  0  0  0
   50.2799  -10.7973  113.5206 H   0  0  0  0  0  0  0  0  0  0  0  0
   51.1386  -13.2420  118.3541 H   0  0  0  0  0  0  0  0  0  0  0  0
   53.3160  -13.2491  118.3204 H   0  0  0  0  0  0  0  0  0  0  0  0
   53.3379  -14.1471  116.7648 H   0  0  0  0  0  0  0  0  0  0  0  0
   53.2713  -12.3520  116.7648 H   0  0  0  0  0  0  0  0  0  0  0  0
   50.6720  -15.3011  117.5990 H   0  0  0  0  0  0  0  0  0  0  0  0
   50.0318  -14.4629  116.1450 H   0  0  0  0  0  0  0  0  0  0  0  0
   51.7087  -15.1067  116.1450 H   0  0  0  0  0  0  0  0  0  0  0  0
   52.0339   -9.2203  114.4448 H   0  0  0  0  0  0  0  0  0  0  0  0
   54.1716   -8.5489  113.3264 H   0  0  0  0  0  0  0  0  0  0  0  0
   54.1662   -6.7259  111.5801 H   0  0  0  0  0  0  0  0  0  0  0  0
   52.0216   -5.5852  110.9675 H   0  0  0  0  0  0  0  0  0  0  0  0
   47.8636   -5.1172  111.1980 H   0  0  0  0  0  0  0  0  0  0  0  0
   49.3832   -5.3124  110.2548 H   0  0  0  0  0  0  0  0  0  0  0  0
   50.5560   -3.7683  111.6987 H   0  0  0  0  0  0  0  0  0  0  0  0
   49.0017   -3.0001  111.1675 H   0  0  0  0  0  0  0  0  0  0  0  0
   47.0275   -2.9754  113.0715 H   0  0  0  0  0  0  0  0  0  0  0  0
 21 22  1  0
 21  3  1  0
 20 19  1  0
 20  4  2  0
 22 23  1  0
 19 18  2  0
  3  4  1  0
  3  2  2  0
  4  5  1  0
 18 17  1  0
  2  1  1  0
  2  6  1  0
 23 27  1  0
 23 24  2  0
  5 17  2  0
  5  6  1  0
 27 26  1  0
  6  7  2  0
 24 25  1  0
 13 12  2  0
 13  8  1  0
  7  8  1  0
 26 25  2  0
 12 11  1  0
  8  9  2  0
 11 14  1  0
 11 10  2  0
  9 10  1  0
 16 14  1  0
 15 14  1  0
  1 28  1  0
  1 29  1  0
  1 30  1  0
  7 31  1  0
  9 32  1  0
 10 33  1  0
 12 34  1  0
 13 35  1  0
 14 36  1  0
 15 37  1  0
 15 38  1  0
 15 39  1  0
 16 40  1  0
 16 41  1  0
 16 42  1  0
 17 43  1  0
 18 44  1  0
 19 45  1  0
 20 46  1  0
 21 47  1  0
 21 48  1  0
 22 49  1  0
 22 50  1  0
 27 51  1  0
A    1
C01
A    2
C02
A    3
C03
A    4
C04
A    5
C05
A    6
C06
A    7
C07
A    8
C08
A    9
C09
A   10
C10
A   11
C11
A   12
C12
A   13
C13
A   14
C14
A   15
C15
A   16
C16
A   17
C17
A   18
C18
A   19
C19
A   20
C20
A   21
C21
A   22
C22
A   23
C23
A   24
N24
A   25
N25
A   26
N26
A   27
N27
M  END
