4N94_2HO_A_401
     RDKit          3D

 16 16  0  0  0  0  0  0  0  0999 V2000
  -25.8410   -0.7200  -23.7690 N   0  0  0  0  0  0  0  0  0  0  0  0
  -23.4430   -0.1880  -23.3850 C   0  0  0  0  0  0  0  0  0  0  0  0
  -22.2880   -0.5390  -22.6710 C   0  0  0  0  0  0  0  0  0  0  0  0
  -21.0500    0.0030  -23.0010 C   0  0  0  0  0  0  0  0  0  0  0  0
  -20.9530    0.9080  -24.0520 C   0  0  0  0  0  0  0  0  0  0  0  0
  -22.0190    2.1350  -25.7900 F   0  0  0  0  0  0  0  0  0  0  0  0
  -22.0990    1.2650  -24.7680 C   0  0  0  0  0  0  0  0  0  0  0  0
  -19.7500    1.4210  -24.3780 F   0  0  0  0  0  0  0  0  0  0  0  0
  -23.3390    0.7190  -24.4450 C   0  0  0  0  0  0  0  0  0  0  0  0
  -24.7610   -0.8110  -22.9860 C   0  0  0  0  0  0  0  0  0  0  0  0
  -24.8220   -1.4200  -21.9340 O   0  0  0  0  0  0  0  0  0  0  0  0
  -26.7775   -0.6411  -23.3475 H   0  0  0  0  0  0  0  0  0  0  0  0
  -25.7365   -0.7288  -24.7936 H   0  0  0  0  0  0  0  0  0  0  0  0
  -22.3621   -1.2534  -21.8378 H   0  0  0  0  0  0  0  0  0  0  0  0
  -20.1523   -0.2830  -22.4332 H   0  0  0  0  0  0  0  0  0  0  0  0
  -24.2330    0.9999  -25.0211 H   0  0  0  0  0  0  0  0  0  0  0  0
  6  7  1  0
  7  9  1  0
  7  5  2  0
  9  2  2  0
  8  5  1  0
  5  4  1  0
  1 10  1  0
  2 10  1  0
  2  3  1  0
  4  3  2  0
 10 11  2  0
  1 12  1  0
  1 13  1  0
  3 14  1  0
  4 15  1  0
  9 16  1  0
A    1
N1
A    2
C4
A    3
C5
A    4
C6
A    5
C7
A    6
F10
A    7
C9
A    8
F8
A    9
C11
A   10
C2
A   11
O3
M  END
