1YSG_4FC_A_1000
     RDKit          3D

 25 26  0  0  0  0  0  0  0  0999 V2000
    3.9900   -9.7100   -4.7920 C   0  0  0  0  0  0  0  0  0  0  0  0
    3.3080   -8.7090   -5.4810 C   0  0  0  0  0  0  0  0  0  0  0  0
    3.7180   -7.3810   -5.3630 C   0  0  0  0  0  0  0  0  0  0  0  0
    4.7950   -7.0610   -4.5610 C   0  0  0  0  0  0  0  0  0  0  0  0
    5.4700   -8.0650   -3.8760 C   0  0  0  0  0  0  0  0  0  0  0  0
    5.0680   -9.3840   -3.9950 C   0  0  0  0  0  0  0  0  0  0  0  0
    6.7230   -6.4450   -2.4590 C   0  0  0  0  0  0  0  0  0  0  0  0
    6.6150   -7.7250   -2.9850 C   0  0  0  0  0  0  0  0  0  0  0  0
    7.5650   -8.6900   -2.6800 C   0  0  0  0  0  0  0  0  0  0  0  0
    8.6280   -8.3760   -1.8540 C   0  0  0  0  0  0  0  0  0  0  0  0
    8.7420   -7.0920   -1.3260 C   0  0  0  0  0  0  0  0  0  0  0  0
    7.7840   -6.1280   -1.6280 C   0  0  0  0  0  0  0  0  0  0  0  0
    2.2640   -9.0220   -6.2580 F   0  0  0  0  0  0  0  0  0  0  0  0
    9.8720   -6.7560   -0.4460 C   0  0  0  0  0  0  0  0  0  0  0  0
   10.3970   -5.6660   -0.4920 O   0  0  0  0  0  0  0  0  0  0  0  0
   10.3140   -7.5660    0.3390 O   0  0  0  0  0  0  0  0  0  0  0  0
    3.6694  -10.7583   -4.8834 H   0  0  0  0  0  0  0  0  0  0  0  0
    3.1835   -6.5894   -5.9086 H   0  0  0  0  0  0  0  0  0  0  0  0
    5.1184   -6.0141   -4.4641 H   0  0  0  0  0  0  0  0  0  0  0  0
    5.6089  -10.1738   -3.4532 H   0  0  0  0  0  0  0  0  0  0  0  0
    5.9669   -5.6839   -2.7020 H   0  0  0  0  0  0  0  0  0  0  0  0
    7.4720   -9.7043   -3.0955 H   0  0  0  0  0  0  0  0  0  0  0  0
    9.3830   -9.1391   -1.6139 H   0  0  0  0  0  0  0  0  0  0  0  0
    7.8700   -5.1155   -1.2068 H   0  0  0  0  0  0  0  0  0  0  0  0
   10.6258   -5.1910    0.3459 H   0  0  0  0  0  0  0  0  0  0  0  0
  1  2  2  0
  1  6  1  0
  2  3  1  0
  2 13  1  0
  3  4  2  0
  4  5  1  0
  5  6  2  0
  5  8  1  0
  7  8  2  0
  7 12  1  0
  8  9  1  0
  9 10  2  0
 10 11  1  0
 11 12  2  0
 11 14  1  0
 14 15  1  0
 14 16  2  0
  1 17  1  0
  3 18  1  0
  4 19  1  0
  6 20  1  0
  7 21  1  0
  9 22  1  0
 10 23  1  0
 12 24  1  0
 15 25  1  0
A    1
C1
A    2
C2
A    3
C3
A    4
C4
A    5
C5
A    6
C6
A    7
C7
A    8
C8
A    9
C9
A   10
C10
A   11
C11
A   12
C12
A   13
F1
A   14
C13
A   15
O1
A   16
O2
M  END
