4N99_2J1_A_401
     RDKit          3D

 29 31  0  0  0  0  0  0  0  0999 V2000
  -20.9160    1.0330  -23.7810 Cl  0  0  0  0  0  0  0  0  0  0  0  0
  -22.6740    0.8280  -24.0760 C   0  0  0  0  0  0  0  0  0  0  0  0
  -23.4770    0.2370  -23.1020 C   0  0  0  0  0  0  0  0  0  0  0  0
  -24.8330    0.0970  -23.3720 C   0  0  0  0  0  0  0  0  0  0  0  0
  -25.9420   -0.4710  -22.5800 C   0  0  0  0  0  0  0  0  0  0  0  0
  -25.9580   -1.0870  -21.2020 C   0  0  0  0  0  0  0  0  0  0  0  0
  -27.4150   -1.1330  -20.7290 C   0  0  0  0  0  0  0  0  0  0  0  0
  -28.4110   -1.6350  -21.7850 C   0  0  0  0  0  0  0  0  0  0  0  0
  -28.5170   -0.7580  -23.0380 C   0  0  0  0  0  0  0  0  0  0  0  0
  -27.1340   -0.3120  -23.4490 C   0  0  0  0  0  0  0  0  0  0  0  0
  -26.7710    0.2770  -24.6100 N   0  0  0  0  0  0  0  0  0  0  0  0
  -25.4480    0.5480  -24.6490 C   0  0  0  0  0  0  0  0  0  0  0  0
  -24.6350    1.1360  -25.6160 C   0  0  0  0  0  0  0  0  0  0  0  0
  -23.2700    1.2890  -25.3670 C   0  0  0  0  0  0  0  0  0  0  0  0
  -22.3960    1.9200  -26.4090 C   0  0  0  0  0  0  0  0  0  0  0  0
  -21.8380    2.9820  -26.1960 O   0  0  0  0  0  0  0  0  0  0  0  0
  -22.2190    1.3210  -27.5830 O   0  0  0  0  0  0  0  0  0  0  0  0
  -23.0504   -0.1081  -22.1486 H   0  0  0  0  0  0  0  0  0  0  0  0
  -25.5448   -2.1057  -21.2422 H   0  0  0  0  0  0  0  0  0  0  0  0
  -25.3460   -0.4929  -20.5073 H   0  0  0  0  0  0  0  0  0  0  0  0
  -27.7122   -0.1164  -20.4320 H   0  0  0  0  0  0  0  0  0  0  0  0
  -27.4517   -1.8517  -19.8971 H   0  0  0  0  0  0  0  0  0  0  0  0
  -29.4061   -1.6875  -21.3191 H   0  0  0  0  0  0  0  0  0  0  0  0
  -28.0373   -2.6129  -22.1226 H   0  0  0  0  0  0  0  0  0  0  0  0
  -29.1381    0.1231  -22.8191 H   0  0  0  0  0  0  0  0  0  0  0  0
  -28.9782   -1.3332  -23.8544 H   0  0  0  0  0  0  0  0  0  0  0  0
  -27.4258    0.4937  -25.3749 H   0  0  0  0  0  0  0  0  0  0  0  0
  -25.0658    1.4772  -26.5689 H   0  0  0  0  0  0  0  0  0  0  0  0
  -21.6810    3.2808  -25.2653 H   0  0  0  0  0  0  0  0  0  0  0  0
 17 15  2  0
 15 16  1  0
 15 14  1  0
 13 14  1  0
 13 12  2  0
 14  2  2  0
 12 11  1  0
 12  4  1  0
 11 10  1  0
  2  1  1  0
  2  3  1  0
 10  9  1  0
 10  5  2  0
  4  3  2  0
  4  5  1  0
  9  8  1  0
  5  6  1  0
  8  7  1  0
  6  7  1  0
  3 18  1  0
  6 19  1  0
  6 20  1  0
  7 21  1  0
  7 22  1  0
  8 23  1  0
  8 24  1  0
  9 25  1  0
  9 26  1  0
 11 27  1  0
 13 28  1  0
 16 29  1  0
A    1
CL
A    2
C1
A    3
C2
A    4
C3
A    5
C6
A    6
C7
A    7
C8
A    8
C9
A    9
C10
A   10
C5
A   11
N
A   12
C4
A   13
C11
A   14
C12
A   15
C13
A   16
O2
A   17
O1
M  END
