4N9E_2HL_A_601
     RDKit          3D

 58 62  0  0  0  0  0  0  0  0999 V2000
    9.3010    4.0900   -5.8250 C   0  0  0  0  0  0  0  0  0  0  0  0
   10.0700    3.1910   -6.5390 C   0  0  0  0  0  0  0  0  0  0  0  0
   11.4500    3.3180   -6.5430 C   0  0  0  0  0  0  0  0  0  0  0  0
   12.0530    4.3460   -5.8080 C   0  0  0  0  0  0  0  0  0  0  0  0
   11.2510    5.2510   -5.0890 C   0  0  0  0  0  0  0  0  0  0  0  0
    9.8760    5.1250   -5.0940 C   0  0  0  0  0  0  0  0  0  0  0  0
   13.5350    4.4960   -5.7990 C   0  0  0  0  0  0  0  0  0  0  0  0
   14.1080    4.8900   -6.8030 O   0  0  0  0  0  0  0  0  0  0  0  0
   14.2650    4.1970   -4.6960 N   0  0  0  0  0  0  0  0  0  0  0  0
   15.7290    4.3610   -4.7150 C   0  0  0  0  0  0  0  0  0  0  0  0
   16.0770    5.3490   -3.5900 C   0  0  0  0  0  0  0  0  0  0  0  0
   15.6470    4.7350   -2.2470 C   0  0  0  0  0  0  0  0  0  0  0  0
   14.1310    4.4530   -2.2070 C   0  0  0  0  0  0  0  0  0  0  0  0
   13.6350    3.6980   -3.4520 C   0  0  0  0  0  0  0  0  0  0  0  0
   16.1200    5.6320   -1.0820 C   0  0  0  0  0  0  0  0  0  0  0  0
   15.3450    6.8570   -0.8070 N   0  0  0  0  0  0  0  0  0  0  0  0
   14.3870    7.4690   -1.5650 C   0  0  0  0  0  0  0  0  0  0  0  0
   13.9330    8.5270   -0.9580 N   0  0  0  0  0  0  0  0  0  0  0  0
   14.5610    8.6670    0.2440 C   0  0  0  0  0  0  0  0  0  0  0  0
   15.4670    7.6050    0.3520 C   0  0  0  0  0  0  0  0  0  0  0  0
   16.2610    7.4850    1.4840 C   0  0  0  0  0  0  0  0  0  0  0  0
   16.1540    8.3950    2.4990 C   0  0  0  0  0  0  0  0  0  0  0  0
   15.2810    9.4850    2.3840 C   0  0  0  0  0  0  0  0  0  0  0  0
   14.4490    9.6000    1.2740 C   0  0  0  0  0  0  0  0  0  0  0  0
   15.0810   10.4000    3.5190 C   0  0  0  0  0  0  0  0  0  0  0  0
   14.5470   11.4870    3.4100 O   0  0  0  0  0  0  0  0  0  0  0  0
   15.4070    9.8340    4.7060 N   0  0  0  0  0  0  0  0  0  0  0  0
   15.1960   10.2940    6.0060 C   0  0  0  0  0  0  0  0  0  0  0  0
   15.9540    9.7970    7.0720 C   0  0  0  0  0  0  0  0  0  0  0  0
   15.6100   10.2340    8.3420 C   0  0  0  0  0  0  0  0  0  0  0  0
   14.5290   11.0810    8.5230 C   0  0  0  0  0  0  0  0  0  0  0  0
   13.8050   11.4980    7.4990 N   0  0  0  0  0  0  0  0  0  0  0  0
   14.0930   11.1150    6.2730 C   0  0  0  0  0  0  0  0  0  0  0  0
    8.2061    3.9848   -5.8347 H   0  0  0  0  0  0  0  0  0  0  0  0
    9.5887    2.3777   -7.1020 H   0  0  0  0  0  0  0  0  0  0  0  0
   12.0683    2.6150   -7.1205 H   0  0  0  0  0  0  0  0  0  0  0  0
   11.7227    6.0648   -4.5187 H   0  0  0  0  0  0  0  0  0  0  0  0
    9.2468    5.8297   -4.5306 H   0  0  0  0  0  0  0  0  0  0  0  0
   16.2213    3.3937   -4.5359 H   0  0  0  0  0  0  0  0  0  0  0  0
   16.0728    4.7350   -5.6907 H   0  0  0  0  0  0  0  0  0  0  0  0
   17.1612    5.5348   -3.5823 H   0  0  0  0  0  0  0  0  0  0  0  0
   15.5531    6.3026   -3.7520 H   0  0  0  0  0  0  0  0  0  0  0  0
   16.1347    3.7557   -2.1328 H   0  0  0  0  0  0  0  0  0  0  0  0
   13.5962    5.4120   -2.1406 H   0  0  0  0  0  0  0  0  0  0  0  0
   13.9343    3.8163   -1.3318 H   0  0  0  0  0  0  0  0  0  0  0  0
   12.5451    3.8235   -3.5317 H   0  0  0  0  0  0  0  0  0  0  0  0
   13.9083    2.6388   -3.3361 H   0  0  0  0  0  0  0  0  0  0  0  0
   16.1045    5.0202   -0.1679 H   0  0  0  0  0  0  0  0  0  0  0  0
   17.1125    5.9919   -1.3908 H   0  0  0  0  0  0  0  0  0  0  0  0
   14.0471    7.1169   -2.5501 H   0  0  0  0  0  0  0  0  0  0  0  0
   16.9786    6.6553    1.5649 H   0  0  0  0  0  0  0  0  0  0  0  0
   16.7566    8.2707    3.4108 H   0  0  0  0  0  0  0  0  0  0  0  0
   13.7135   10.4155    1.2103 H   0  0  0  0  0  0  0  0  0  0  0  0
   15.8842    8.9237    4.6381 H   0  0  0  0  0  0  0  0  0  0  0  0
   16.7835    9.0929    6.9101 H   0  0  0  0  0  0  0  0  0  0  0  0
   16.1991    9.9061    9.2112 H   0  0  0  0  0  0  0  0  0  0  0  0
   14.2681   11.4130    9.5387 H   0  0  0  0  0  0  0  0  0  0  0  0
   13.4543   11.4465    5.4410 H   0  0  0  0  0  0  0  0  0  0  0  0
  8  7  2  0
  3  2  1  0
  3  4  2  0
  2  1  2  0
  1  6  1  0
  4  7  1  0
  4  5  1  0
  7  9  1  0
  6  5  2  0
 10  9  1  0
 10 11  1  0
  9 14  1  0
 11 12  1  0
 14 13  1  0
 12 13  1  0
 12 15  1  0
 17 18  2  0
 17 16  1  0
 15 16  1  0
 18 19  1  0
 16 20  1  0
 19 20  2  0
 19 24  1  0
 20 21  1  0
 24 23  2  0
 21 22  2  0
 23 22  1  0
 23 25  1  0
 26 25  2  0
 25 27  1  0
 27 28  1  0
 28 33  1  0
 28 29  2  0
 33 32  2  0
 29 30  1  0
 32 31  1  0
 30 31  2  0
  1 34  1  0
  2 35  1  0
  3 36  1  0
  5 37  1  0
  6 38  1  0
 10 39  1  0
 10 40  1  0
 11 41  1  0
 11 42  1  0
 12 43  1  0
 13 44  1  0
 13 45  1  0
 14 46  1  0
 14 47  1  0
 15 48  1  0
 15 49  1  0
 17 50  1  0
 21 51  1  0
 22 52  1  0
 24 53  1  0
 27 54  1  0
 29 55  1  0
 30 56  1  0
 31 57  1  0
 33 58  1  0
A    1
C1
A    2
C2
A    3
C3
A    4
C4
A    5
C5
A    6
C6
A    7
C7
A    8
O8
A    9
N9
A   10
C10
A   11
C11
A   12
C12
A   13
C13
A   14
C14
A   15
C15
A   16
N16
A   17
C17
A   18
N18
A   19
C19
A   20
C20
A   21
C21
A   22
C22
A   23
C23
A   24
C24
A   25
C25
A   26
O26
A   27
N27
A   28
C28
A   29
C29
A   30
C30
A   31
C31
A   32
N32
A   33
C33
M  END
