4NAN_2JM_A_401
     RDKit          3D

 21 22  0  0  0  0  0  0  0  0999 V2000
    4.5370   24.8310  -21.3160 C   0  0  0  0  0  0  0  0  0  0  0  0
    4.1680   25.9470  -21.9810 C   0  0  0  0  0  0  0  0  0  0  0  0
    3.8880   27.0750  -21.2890 C   0  0  0  0  0  0  0  0  0  0  0  0
    5.0470   23.5600  -19.2890 C   0  0  0  0  0  0  0  0  0  0  0  0
    6.3830   21.8480  -18.9240 C   0  0  0  0  0  0  0  0  0  0  0  0
    7.9580   20.6140  -19.1300 Br  0  0  0  0  0  0  0  0  0  0  0  0
    5.3380   21.7070  -18.0590 C   0  0  0  0  0  0  0  0  0  0  0  0
    5.1380   20.1850  -16.7870 Br  0  0  0  0  0  0  0  0  0  0  0  0
    4.4960   22.7750  -18.2910 C   0  0  0  0  0  0  0  0  0  0  0  0
    2.7560   23.1990  -17.4180 Br  0  0  0  0  0  0  0  0  0  0  0  0
    6.2260   22.9750  -19.6520 N   0  0  0  0  0  0  0  0  0  0  0  0
    4.5900   24.8140  -19.9320 C   0  0  0  0  0  0  0  0  0  0  0  0
    4.3010   25.9650  -19.2180 C   0  0  0  0  0  0  0  0  0  0  0  0
    4.7780   23.7770  -22.1190 O   0  0  0  0  0  0  0  0  0  0  0  0
    4.0680   25.7530  -23.8550 Br  0  0  0  0  0  0  0  0  0  0  0  0
    3.9480   27.0800  -19.9110 C   0  0  0  0  0  0  0  0  0  0  0  0
    3.6110   27.9930  -21.8280 H   0  0  0  0  0  0  0  0  0  0  0  0
    6.8834   23.3320  -20.3600 H   0  0  0  0  0  0  0  0  0  0  0  0
    4.3556   25.9767  -18.1194 H   0  0  0  0  0  0  0  0  0  0  0  0
    4.9805   22.8913  -21.7258 H   0  0  0  0  0  0  0  0  0  0  0  0
    3.7059   28.0026  -19.3631 H   0  0  0  0  0  0  0  0  0  0  0  0
 15  2  1  0
 14  1  1  0
  2  1  2  0
  2  3  1  0
  1 12  1  0
  3 16  2  0
 12  4  1  0
 12 13  2  0
 16 13  1  0
 11  4  1  0
 11  5  1  0
  4  9  2  0
  6  5  1  0
  5  7  2  0
  9  7  1  0
  9 10  1  0
  7  8  1  0
  3 17  1  0
 11 18  1  0
 13 19  1  0
 14 20  1  0
 16 21  1  0
A    1
C4
A    2
C5
A    3
C6
A    4
C10
A    5
C13
A    6
BR1
A    7
C12
A    8
BR2
A    9
C11
A   10
BR3
A   11
N14
A   12
C3
A   13
C2
A   14
O2
A   15
BR8
A   16
C1
M  END
