4NAT_2W5_A_201
     RDKit          3D

 51 53  0  0  0  0  0  0  0  0999 V2000
   26.6110   44.3150  -32.5050 C   0  0  0  0  0  0  0  0  0  0  0  0
   24.5480   43.5960  -31.5580 C   0  0  0  0  0  0  0  0  0  0  0  0
   21.3200   40.7940  -29.8370 C   0  0  0  0  0  0  0  0  0  0  0  0
   22.7360   43.0050  -32.8100 C   0  0  0  0  0  0  0  0  0  0  0  0
   21.9840   42.7000  -34.0300 C   0  0  0  0  0  0  0  0  0  0  0  0
   22.5710   41.5370  -34.8870 C   0  0  0  0  0  0  0  0  0  0  0  0
   22.2080   41.8240  -36.3470 C   0  0  0  0  0  0  0  0  0  0  0  0
   20.6930   41.5830  -36.4690 C   0  0  0  0  0  0  0  0  0  0  0  0
   19.9460   42.6820  -35.7180 C   0  0  0  0  0  0  0  0  0  0  0  0
   19.8380   44.1750  -33.6080 C   0  0  0  0  0  0  0  0  0  0  0  0
   18.2550   44.9410  -32.0320 C   0  0  0  0  0  0  0  0  0  0  0  0
   19.8390   44.6540  -30.1100 C   0  0  0  0  0  0  0  0  0  0  0  0
   18.8230   46.8140  -30.6040 C   0  0  0  0  0  0  0  0  0  0  0  0
   25.7840   44.1610  -31.3630 O   0  0  0  0  0  0  0  0  0  0  0  0
   23.8630   43.1410  -30.3920 C   0  0  0  0  0  0  0  0  0  0  0  0
   22.5960   42.5660  -30.5270 C   0  0  0  0  0  0  0  0  0  0  0  0
   21.8640   42.0890  -29.4720 O   0  0  0  0  0  0  0  0  0  0  0  0
   22.0790   42.5250  -31.7550 N   0  0  0  0  0  0  0  0  0  0  0  0
   23.9780   43.5300  -32.7580 N   0  0  0  0  0  0  0  0  0  0  0  0
   20.6040   43.1620  -34.4450 C   0  0  0  0  0  0  0  0  0  0  0  0
   20.1360   45.3000  -33.8590 O   0  0  0  0  0  0  0  0  0  0  0  0
   18.9130   43.8190  -32.6850 N   0  0  0  0  0  0  0  0  0  0  0  0
   19.0210   45.4690  -30.8860 C   0  0  0  0  0  0  0  0  0  0  0  0
   20.5090   45.2290  -29.0270 C   0  0  0  0  0  0  0  0  0  0  0  0
   20.2970   46.5920  -28.7520 C   0  0  0  0  0  0  0  0  0  0  0  0
   21.0260   47.3020  -27.3720 Cl  0  0  0  0  0  0  0  0  0  0  0  0
   19.4660   47.3730  -29.5240 C   0  0  0  0  0  0  0  0  0  0  0  0
   19.2620   49.0620  -29.2170 Cl  0  0  0  0  0  0  0  0  0  0  0  0
   27.6457   44.5077  -32.1851 H   0  0  0  0  0  0  0  0  0  0  0  0
   26.5788   43.3954  -33.1078 H   0  0  0  0  0  0  0  0  0  0  0  0
   26.2499   45.1613  -33.1078 H   0  0  0  0  0  0  0  0  0  0  0  0
   21.0815   40.2263  -28.9255 H   0  0  0  0  0  0  0  0  0  0  0  0
   20.4050   40.9349  -30.4311 H   0  0  0  0  0  0  0  0  0  0  0  0
   22.0611   40.2392  -30.4311 H   0  0  0  0  0  0  0  0  0  0  0  0
   22.0888   43.7942  -34.0715 H   0  0  0  0  0  0  0  0  0  0  0  0
   23.6642   41.4976  -34.7710 H   0  0  0  0  0  0  0  0  0  0  0  0
   22.1606   40.5685  -34.5652 H   0  0  0  0  0  0  0  0  0  0  0  0
   22.4499   42.8663  -36.6021 H   0  0  0  0  0  0  0  0  0  0  0  0
   22.7730   41.1776  -37.0347 H   0  0  0  0  0  0  0  0  0  0  0  0
   20.4024   41.5998  -37.5298 H   0  0  0  0  0  0  0  0  0  0  0  0
   20.4395   40.6035  -36.0374 H   0  0  0  0  0  0  0  0  0  0  0  0
   19.8438   43.5446  -36.3929 H   0  0  0  0  0  0  0  0  0  0  0  0
   18.9852   42.2411  -35.4140 H   0  0  0  0  0  0  0  0  0  0  0  0
   18.1240   45.7478  -32.7682 H   0  0  0  0  0  0  0  0  0  0  0  0
   17.2910   44.5786  -31.6456 H   0  0  0  0  0  0  0  0  0  0  0  0
   19.9552   43.5852  -30.3429 H   0  0  0  0  0  0  0  0  0  0  0  0
   18.1609   47.4244  -31.2357 H   0  0  0  0  0  0  0  0  0  0  0  0
   24.3261   43.2414  -29.3993 H   0  0  0  0  0  0  0  0  0  0  0  0
   21.0509   44.0042  -34.9936 H   0  0  0  0  0  0  0  0  0  0  0  0
   18.6937   42.8372  -32.4639 H   0  0  0  0  0  0  0  0  0  0  0  0
   21.1875   44.6287  -28.4030 H   0  0  0  0  0  0  0  0  0  0  0  0
  1 14  1  0
 14  2  1  0
 15  2  2  0
 15 16  1  0
  2 19  1  0
 17 16  1  0
 17  3  1  0
 16 18  2  0
 19  4  2  0
 18  4  1  0
  6  5  1  0
  6  7  1  0
  4  5  1  0
  5 20  1  0
  7  8  1  0
  8  9  1  0
 24 12  2  0
 24 25  1  0
 12 23  1  0
 20  9  1  0
 20 10  1  0
 22 10  1  0
 22 11  1  0
 10 21  2  0
 26 25  1  0
 25 27  2  0
 23 11  1  0
 23 13  2  0
 27 13  1  0
 27 28  1  0
  1 29  1  0
  1 30  1  0
  1 31  1  0
  3 32  1  0
  3 33  1  0
  3 34  1  0
  5 35  1  0
  6 36  1  0
  6 37  1  0
  7 38  1  0
  7 39  1  0
  8 40  1  0
  8 41  1  0
  9 42  1  0
  9 43  1  0
 11 44  1  0
 11 45  1  0
 12 46  1  0
 13 47  1  0
 15 48  1  0
 20 49  1  0
 22 50  1  0
 24 51  1  0
A    1
C1
A    2
C3
A    3
C7
A    4
C9
A    5
C11
A    6
C13
A    7
C14
A    8
C15
A    9
C16
A   10
C19
A   11
C22
A   12
C24
A   13
C30
A   14
O2
A   15
C4
A   16
C5
A   17
O6
A   18
N8
A   19
N10
A   20
C17
A   21
O20
A   22
N21
A   23
C23
A   24
C25
A   25
C26
A   26
CL7
A   27
C28
A   28
CL9
M  END
