4NCT_2K2_A_501
     RDKit          3D

 73 81  0  0  0  0  0  0  0  0999 V2000
   36.4290   30.2370   -9.2630 O   0  0  0  0  0  0  0  0  0  0  0  0
   36.6920   29.3740  -10.1030 C   0  0  0  0  0  0  0  0  0  0  0  0
   35.7610   28.5260  -10.4940 N   0  0  0  0  0  0  0  0  0  0  0  0
   36.4000   27.6760  -11.4900 C   0  0  0  0  0  0  0  0  0  0  0  0
   37.7070   28.1560  -11.6210 C   0  0  0  0  0  0  0  0  0  0  0  0
   37.8740   29.1950  -10.7630 C   0  0  0  0  0  0  0  0  0  0  0  0
   39.0910   29.8120  -10.7310 C   0  0  0  0  0  0  0  0  0  0  0  0
   39.6120   30.8430  -10.0320 C   0  0  0  0  0  0  0  0  0  0  0  0
   39.1070   31.6560   -9.0950 C   0  0  0  0  0  0  0  0  0  0  0  0
   39.8740   32.6760   -8.5150 C   0  0  0  0  0  0  0  0  0  0  0  0
   41.1840   32.8500   -8.9170 C   0  0  0  0  0  0  0  0  0  0  0  0
   41.6750   31.9950   -9.8930 C   0  0  0  0  0  0  0  0  0  0  0  0
   40.8930   31.0270  -10.4210 C   0  0  0  0  0  0  0  0  0  0  0  0
   45.3480   27.6830  -11.5600 N   0  0  0  0  0  0  0  0  0  0  0  0
   40.0780   29.3710  -11.5490 C   0  0  0  0  0  0  0  0  0  0  0  0
   39.8890   28.3320  -12.3910 C   0  0  0  0  0  0  0  0  0  0  0  0
   38.7020   27.7290  -12.4300 C   0  0  0  0  0  0  0  0  0  0  0  0
   38.7890   26.7350  -13.3350 C   0  0  0  0  0  0  0  0  0  0  0  0
   37.8880   25.8320  -13.7430 C   0  0  0  0  0  0  0  0  0  0  0  0
   38.1980   24.8650  -14.6910 C   0  0  0  0  0  0  0  0  0  0  0  0
   39.4730   24.8670  -15.2240 C   0  0  0  0  0  0  0  0  0  0  0  0
   40.3690   25.8350  -14.7940 C   0  0  0  0  0  0  0  0  0  0  0  0
   40.0230   26.7350  -13.8610 C   0  0  0  0  0  0  0  0  0  0  0  0
   41.1720   30.1060  -11.3370 N   0  0  0  0  0  0  0  0  0  0  0  0
   42.1350   28.1180  -13.5270 C   0  0  0  0  0  0  0  0  0  0  0  0
   43.0610   27.3600  -12.5440 C   0  0  0  0  0  0  0  0  0  0  0  0
   42.3400   27.0370  -11.3230 O   0  0  0  0  0  0  0  0  0  0  0  0
   41.7970   25.7220  -11.2440 C   0  0  0  0  0  0  0  0  0  0  0  0
   42.6460   27.8870  -14.9510 C   0  0  0  0  0  0  0  0  0  0  0  0
   42.2200   29.5330  -13.3420 O   0  0  0  0  0  0  0  0  0  0  0  0
   42.4840   30.0590  -12.0320 C   0  0  0  0  0  0  0  0  0  0  0  0
   43.6500   29.3910  -11.3320 C   0  0  0  0  0  0  0  0  0  0  0  0
   45.1340   26.7880  -10.4000 C   0  0  0  0  0  0  0  0  0  0  0  0
   46.6020   28.0160  -11.9770 C   0  0  0  0  0  0  0  0  0  0  0  0
   46.8050   28.7900  -12.9190 O   0  0  0  0  0  0  0  0  0  0  0  0
   47.7050   27.5630  -11.2600 C   0  0  0  0  0  0  0  0  0  0  0  0
   48.5940   26.6440  -11.8050 C   0  0  0  0  0  0  0  0  0  0  0  0
   49.7080   26.2510  -11.0640 C   0  0  0  0  0  0  0  0  0  0  0  0
   49.9380   26.7790   -9.7910 C   0  0  0  0  0  0  0  0  0  0  0  0
   49.0560   27.7130   -9.2490 C   0  0  0  0  0  0  0  0  0  0  0  0
   47.9490   28.1140   -9.9930 C   0  0  0  0  0  0  0  0  0  0  0  0
   40.7020   27.7330  -13.2850 N   0  0  0  0  0  0  0  0  0  0  0  0
   44.1950   28.2950  -12.2370 C   0  0  0  0  0  0  0  0  0  0  0  0
   34.7865   28.4752  -10.1644 H   0  0  0  0  0  0  0  0  0  0  0  0
   35.8685   27.7460  -12.4505 H   0  0  0  0  0  0  0  0  0  0  0  0
   36.3863   26.6185  -11.1875 H   0  0  0  0  0  0  0  0  0  0  0  0
   38.0642   31.5199   -8.7725 H   0  0  0  0  0  0  0  0  0  0  0  0
   39.4369   33.3314   -7.7473 H   0  0  0  0  0  0  0  0  0  0  0  0
   41.8148   33.6377   -8.4793 H   0  0  0  0  0  0  0  0  0  0  0  0
   42.7125   32.1060  -10.2412 H   0  0  0  0  0  0  0  0  0  0  0  0
   36.8747   25.8567  -13.3157 H   0  0  0  0  0  0  0  0  0  0  0  0
   37.4520   24.1211  -15.0074 H   0  0  0  0  0  0  0  0  0  0  0  0
   39.7708   24.1179  -15.9724 H   0  0  0  0  0  0  0  0  0  0  0  0
   41.3804   25.8652  -15.2254 H   0  0  0  0  0  0  0  0  0  0  0  0
   43.4202   26.4154  -12.9784 H   0  0  0  0  0  0  0  0  0  0  0  0
   41.6792   25.4368  -10.1882 H   0  0  0  0  0  0  0  0  0  0  0  0
   40.8161   25.6998  -11.7414 H   0  0  0  0  0  0  0  0  0  0  0  0
   42.4765   25.0142  -11.7414 H   0  0  0  0  0  0  0  0  0  0  0  0
   43.6477   27.4342  -14.9121 H   0  0  0  0  0  0  0  0  0  0  0  0
   41.9588   27.2120  -15.4822 H   0  0  0  0  0  0  0  0  0  0  0  0
   42.6987   28.8488  -15.4822 H   0  0  0  0  0  0  0  0  0  0  0  0
   42.8779   31.0858  -12.0554 H   0  0  0  0  0  0  0  0  0  0  0  0
   43.3104   28.9527  -10.3820 H   0  0  0  0  0  0  0  0  0  0  0  0
   44.4364   30.1308  -11.1214 H   0  0  0  0  0  0  0  0  0  0  0  0
   45.2700   27.3566   -9.4682 H   0  0  0  0  0  0  0  0  0  0  0  0
   44.1130   26.3801  -10.4350 H   0  0  0  0  0  0  0  0  0  0  0  0
   45.8601   25.9624  -10.4350 H   0  0  0  0  0  0  0  0  0  0  0  0
   48.4207   26.2312  -12.8098 H   0  0  0  0  0  0  0  0  0  0  0  0
   50.4122   25.5186  -11.4856 H   0  0  0  0  0  0  0  0  0  0  0  0
   50.8177   26.4568   -9.2146 H   0  0  0  0  0  0  0  0  0  0  0  0
   49.2324   28.1282   -8.2458 H   0  0  0  0  0  0  0  0  0  0  0  0
   47.2608   28.8684   -9.5841 H   0  0  0  0  0  0  0  0  0  0  0  0
   44.5698   28.6581  -13.2053 H   0  0  0  0  0  0  0  0  0  0  0  0
 21 22  2  0
 21 20  1  0
 29 25  1  0
 22 23  1  0
 20 19  2  0
 23 18  2  0
 23 42  1  0
 19 18  1  0
 25 30  1  0
 25 42  1  0
 25 26  1  0
 30 31  1  0
 18 17  1  0
 42 16  1  0
 35 34  2  0
 26 43  1  0
 26 27  1  0
 17 16  2  0
 17  5  1  0
 16 15  1  0
 43 14  1  0
 43 32  1  0
 31 24  1  0
 31 32  1  0
 34 14  1  0
 34 36  1  0
 37 36  2  0
 37 38  1  0
  5  4  1  0
  5  6  2  0
 14 33  1  0
 15 24  1  0
 15  7  2  0
  4  3  1  0
 24 13  1  0
 27 28  1  0
 36 41  1  0
 38 39  2  0
  6  7  1  0
  6  2  1  0
  7  8  1  0
  3  2  1  0
 13  8  2  0
 13 12  1  0
  2  1  2  0
  8  9  1  0
 41 40  2  0
 12 11  2  0
 39 40  1  0
  9 10  2  0
 11 10  1  0
  3 44  1  0
  4 45  1  0
  4 46  1  0
  9 47  1  0
 10 48  1  0
 11 49  1  0
 12 50  1  0
 19 51  1  0
 20 52  1  0
 21 53  1  0
 22 54  1  0
 26 55  1  0
 28 56  1  0
 28 57  1  0
 28 58  1  0
 29 59  1  0
 29 60  1  0
 29 61  1  0
 31 62  1  0
 32 63  1  0
 32 64  1  0
 33 65  1  0
 33 66  1  0
 33 67  1  0
 37 68  1  0
 38 69  1  0
 39 70  1  0
 40 71  1  0
 41 72  1  0
 43 73  1  0
A    1
OAD
A    2
CAX
A    3
NAU
A    4
CAS
A    5
CBA
A    6
CBB
A    7
CBH
A    8
CBC
A    9
CAO
A   10
CAI
A   11
CAK
A   12
CAQ
A   13
CBE
A   14
NBM
A   15
CBI
A   16
CBJ
A   17
CBG
A   18
CBD
A   19
CAP
A   20
CAJ
A   21
CAL
A   22
CAR
A   23
CBF
A   24
NBN
A   25
CBQ
A   26
CBP
A   27
OAV
A   28
CAA
A   29
CAC
A   30
OAW
A   31
CBK
A   32
CAT
A   33
CAB
A   34
CAY
A   35
OAE
A   36
CAZ
A   37
CAM
A   38
CAG
A   39
CAF
A   40
CAH
A   41
CAN
A   42
NBO
A   43
CBL
M  END
