4NE2_SH2_A_402
     RDKit          3D

 52 53  0  0  0  0  0  0  0  0999 V2000
  -32.5100  -17.0430    8.3740 C   0  0  0  0  0  0  0  0  0  0  0  0
  -33.0470  -17.2160    9.5830 C   0  0  0  0  0  0  0  0  0  0  0  0
  -34.3190  -16.9210   10.0020 O   0  0  0  0  0  0  0  0  0  0  0  0
  -34.3000  -17.1140   11.4250 C   0  0  0  0  0  0  0  0  0  0  0  0
  -33.0770  -17.8240   11.6920 O   0  0  0  0  0  0  0  0  0  0  0  0
  -32.3260  -17.7410   10.5760 C   0  0  0  0  0  0  0  0  0  0  0  0
  -31.0510  -18.0980   10.3980 C   0  0  0  0  0  0  0  0  0  0  0  0
  -30.4350  -17.9380    9.1550 C   0  0  0  0  0  0  0  0  0  0  0  0
  -31.1930  -17.3970    8.1190 C   0  0  0  0  0  0  0  0  0  0  0  0
  -30.6630  -17.2040    6.8380 C   0  0  0  0  0  0  0  0  0  0  0  0
  -31.2720  -18.2320    5.8590 C   0  0  0  0  0  0  0  0  0  0  0  0
  -30.8130  -19.5990    6.2030 N   0  0  0  0  0  0  0  0  0  0  0  0
  -31.6000  -20.5530    6.7440 C   0  0  0  0  0  0  0  0  0  0  0  0
  -32.7830  -20.4310    7.0740 O   0  0  0  0  0  0  0  0  0  0  0  0
  -30.9010  -21.8610    7.0040 C   0  0  0  0  0  0  0  0  0  0  0  0
  -31.1270  -22.0880    8.4860 C   0  0  0  0  0  0  0  0  0  0  0  0
  -29.9750  -22.7740    9.0020 N   0  0  0  0  0  0  0  0  0  0  0  0
  -29.2850  -22.3750   10.0620 C   0  0  0  0  0  0  0  0  0  0  0  0
  -29.5240  -21.3800   10.7530 O   0  0  0  0  0  0  0  0  0  0  0  0
  -28.1590  -23.3690   10.3290 C   0  0  0  0  0  0  0  0  0  0  0  0
  -28.7540  -24.6650   10.2340 O   0  0  0  0  0  0  0  0  0  0  0  0
  -27.4590  -23.1920   11.6760 C   0  0  0  0  0  0  0  0  0  0  0  0
  -26.6080  -24.4290   11.9240 C   0  0  0  0  0  0  0  0  0  0  0  0
  -28.4670  -23.0790   12.8430 C   0  0  0  0  0  0  0  0  0  0  0  0
  -26.5260  -21.9740   11.5290 C   0  0  0  0  0  0  0  0  0  0  0  0
  -26.3360  -21.2860   12.7520 O   0  0  0  0  0  0  0  0  0  0  0  0
  -33.1210  -16.6129    7.5667 H   0  0  0  0  0  0  0  0  0  0  0  0
  -34.3055  -16.1452   11.9460 H   0  0  0  0  0  0  0  0  0  0  0  0
  -35.1828  -17.6678   11.7771 H   0  0  0  0  0  0  0  0  0  0  0  0
  -30.4813  -18.5218   11.2381 H   0  0  0  0  0  0  0  0  0  0  0  0
  -29.3859  -18.2295    8.9991 H   0  0  0  0  0  0  0  0  0  0  0  0
  -30.9010  -16.1867    6.4939 H   0  0  0  0  0  0  0  0  0  0  0  0
  -29.5717  -17.3380    6.8726 H   0  0  0  0  0  0  0  0  0  0  0  0
  -32.3693  -18.1899    5.9237 H   0  0  0  0  0  0  0  0  0  0  0  0
  -30.9472  -17.9905    4.8362 H   0  0  0  0  0  0  0  0  0  0  0  0
  -29.8282  -19.8366    6.0169 H   0  0  0  0  0  0  0  0  0  0  0  0
  -31.3469  -22.6714    6.4086 H   0  0  0  0  0  0  0  0  0  0  0  0
  -29.8362  -21.8425    6.7286 H   0  0  0  0  0  0  0  0  0  0  0  0
  -32.0277  -22.7008    8.6383 H   0  0  0  0  0  0  0  0  0  0  0  0
  -31.2701  -21.1292    9.0058 H   0  0  0  0  0  0  0  0  0  0  0  0
  -29.6656  -23.6292    8.5185 H   0  0  0  0  0  0  0  0  0  0  0  0
  -27.3577  -23.2086    9.5927 H   0  0  0  0  0  0  0  0  0  0  0  0
  -28.9173  -25.0206   11.1434 H   0  0  0  0  0  0  0  0  0  0  0  0
  -26.4988  -24.5878   13.0070 H   0  0  0  0  0  0  0  0  0  0  0  0
  -27.0950  -25.3057   11.4721 H   0  0  0  0  0  0  0  0  0  0  0  0
  -25.6151  -24.2876   11.4721 H   0  0  0  0  0  0  0  0  0  0  0  0
  -27.9282  -23.1394   13.8001 H   0  0  0  0  0  0  0  0  0  0  0  0
  -28.9949  -22.1160   12.7796 H   0  0  0  0  0  0  0  0  0  0  0  0
  -29.1950  -23.9012   12.7796 H   0  0  0  0  0  0  0  0  0  0  0  0
  -25.5481  -22.3207   11.1636 H   0  0  0  0  0  0  0  0  0  0  0  0
  -26.9972  -21.2753   10.8220 H   0  0  0  0  0  0  0  0  0  0  0  0
  -26.5063  -21.9027   13.5075 H   0  0  0  0  0  0  0  0  0  0  0  0
  3  4  1  0
  3  2  1  0
  1  2  2  0
  1  9  1  0
  4  5  1  0
  2  6  1  0
 10  9  1  0
 10 11  1  0
  9  8  2  0
  6  5  1  0
  6  7  2  0
  8  7  1  0
 11 12  1  0
 12 13  1  0
 14 13  2  0
 13 15  1  0
 19 18  2  0
 17 18  1  0
 17 16  1  0
 18 20  1  0
 15 16  1  0
 24 22  1  0
 23 22  1  0
 20 22  1  0
 20 21  1  0
 22 25  1  0
 25 26  1  0
  1 27  1  0
  4 28  1  0
  4 29  1  0
  7 30  1  0
  8 31  1  0
 10 32  1  0
 10 33  1  0
 11 34  1  0
 11 35  1  0
 12 36  1  0
 15 37  1  0
 15 38  1  0
 16 39  1  0
 16 40  1  0
 17 41  1  0
 20 42  1  0
 21 43  1  0
 23 44  1  0
 23 45  1  0
 23 46  1  0
 24 47  1  0
 24 48  1  0
 24 49  1  0
 25 50  1  0
 25 51  1  0
 26 52  1  0
A    1
CAZ
A    2
CAY
A    3
OAX
A    4
CAW
A    5
OAV
A    6
CAU
A    7
CAT
A    8
CAS
A    9
CAR
A   10
CAQ
A   11
CAP
A   12
NAO
A   13
CAM
A   14
OAN
A   15
CAL
A   16
CAK
A   17
NAJ
A   18
CAH
A   19
OAI
A   20
CAF
A   21
OAG
A   22
CAB
A   23
CAA
A   24
CAC
A   25
CAD
A   26
OAE
M  END
