4NEU_Q1A_A_402
     RDKit          3D

 53 56  0  0  0  0  0  0  0  0999 V2000
   23.5010   64.0120   48.4790 N   0  0  0  0  0  0  0  0  0  0  0  0
   26.9320   60.9870   53.8380 C   0  0  0  0  0  0  0  0  0  0  0  0
   29.4880   61.3650   52.8840 C   0  0  0  0  0  0  0  0  0  0  0  0
   30.5110   60.5890   55.0050 C   0  0  0  0  0  0  0  0  0  0  0  0
   31.6280   61.1170   57.0750 C   0  0  0  0  0  0  0  0  0  0  0  0
   34.0770   59.3860   54.8050 C   0  0  0  0  0  0  0  0  0  0  0  0
   32.9860   58.9020   52.8160 C   0  0  0  0  0  0  0  0  0  0  0  0
   31.8170   59.4580   53.2060 C   0  0  0  0  0  0  0  0  0  0  0  0
   25.5430   64.7990   44.6690 C   0  0  0  0  0  0  0  0  0  0  0  0
   25.5860   65.6990   45.9010 C   0  0  0  0  0  0  0  0  0  0  0  0
   27.0370   66.1020   46.1660 C   0  0  0  0  0  0  0  0  0  0  0  0
   24.7510   66.9470   45.6260 C   0  0  0  0  0  0  0  0  0  0  0  0
   24.9980   64.9380   47.0850 C   0  0  0  0  0  0  0  0  0  0  0  0
   25.6850   64.3010   48.0410 C   0  0  0  0  0  0  0  0  0  0  0  0
   24.7090   63.7790   48.9080 C   0  0  0  0  0  0  0  0  0  0  0  0
   24.8690   62.9560   50.0170 N   0  0  0  0  0  0  0  0  0  0  0  0
   26.0560   62.7840   50.7150 C   0  0  0  0  0  0  0  0  0  0  0  0
   27.0310   63.4660   50.4510 O   0  0  0  0  0  0  0  0  0  0  0  0
   26.0400   61.8350   51.7040 N   0  0  0  0  0  0  0  0  0  0  0  0
   27.1200   61.4990   52.5590 C   0  0  0  0  0  0  0  0  0  0  0  0
   28.0220   60.6750   54.6320 C   0  0  0  0  0  0  0  0  0  0  0  0
   29.3190   60.8040   54.1500 C   0  0  0  0  0  0  0  0  0  0  0  0
   28.4090   61.6580   52.0800 C   0  0  0  0  0  0  0  0  0  0  0  0
   30.5100   61.1650   56.2610 C   0  0  0  0  0  0  0  0  0  0  0  0
   32.7900   60.5640   56.6300 C   0  0  0  0  0  0  0  0  0  0  0  0
   32.8760   59.9910   55.3320 C   0  0  0  0  0  0  0  0  0  0  0  0
   35.2090   59.3270   55.5320 N   0  0  0  0  0  0  0  0  0  0  0  0
   34.0740   58.8680   53.5790 N   0  0  0  0  0  0  0  0  0  0  0  0
   31.7220   60.0340   54.4960 C   0  0  0  0  0  0  0  0  0  0  0  0
   23.6780   64.7850   47.3030 O   0  0  0  0  0  0  0  0  0  0  0  0
   25.9128   60.8292   54.2204 H   0  0  0  0  0  0  0  0  0  0  0  0
   30.5041   61.5777   52.5204 H   0  0  0  0  0  0  0  0  0  0  0  0
   31.5774   61.5303   58.0932 H   0  0  0  0  0  0  0  0  0  0  0  0
   33.0397   58.4535   51.8130 H   0  0  0  0  0  0  0  0  0  0  0  0
   30.9499   59.4628   52.5292 H   0  0  0  0  0  0  0  0  0  0  0  0
   25.4927   63.7466   44.9853 H   0  0  0  0  0  0  0  0  0  0  0  0
   24.6555   65.0437   44.0669 H   0  0  0  0  0  0  0  0  0  0  0  0
   26.4498   64.9580   44.0669 H   0  0  0  0  0  0  0  0  0  0  0  0
   27.2118   66.1505   47.2509 H   0  0  0  0  0  0  0  0  0  0  0  0
   27.7119   65.3573   45.7188 H   0  0  0  0  0  0  0  0  0  0  0  0
   27.2312   67.0881   45.7188 H   0  0  0  0  0  0  0  0  0  0  0  0
   24.4465   67.4020   46.5801 H   0  0  0  0  0  0  0  0  0  0  0  0
   25.3489   67.6686   45.0499 H   0  0  0  0  0  0  0  0  0  0  0  0
   23.8559   66.6697   45.0499 H   0  0  0  0  0  0  0  0  0  0  0  0
   26.7774   64.2064   48.1293 H   0  0  0  0  0  0  0  0  0  0  0  0
   24.0439   62.4343   50.3455 H   0  0  0  0  0  0  0  0  0  0  0  0
   25.1600   61.3169   51.8388 H   0  0  0  0  0  0  0  0  0  0  0  0
   27.8591   60.3195   55.6602 H   0  0  0  0  0  0  0  0  0  0  0  0
   28.5719   62.0195   51.0540 H   0  0  0  0  0  0  0  0  0  0  0  0
   29.6025   61.6718   56.6209 H   0  0  0  0  0  0  0  0  0  0  0  0
   33.6744   60.5606   57.2840 H   0  0  0  0  0  0  0  0  0  0  0  0
   35.1610   59.3295   56.5609 H   0  0  0  0  0  0  0  0  0  0  0  0
   36.1228   59.2794   55.0592 H   0  0  0  0  0  0  0  0  0  0  0  0
  9 10  1  0
 12 10  1  0
 10 11  1  0
 10 13  1  0
 13 30  1  0
 13 14  2  0
 30  1  1  0
 14 15  1  0
  1 15  2  0
 15 16  1  0
 16 17  1  0
 18 17  2  0
 17 19  1  0
 19 20  1  0
 23 20  1  0
 23  3  2  0
 20  2  2  0
  7  8  2  0
  7 28  1  0
  3 22  1  0
  8 29  1  0
 28  6  2  0
  2 21  1  0
 22 21  2  0
 22  4  1  0
 29  4  2  0
 29 26  1  0
  6 26  1  0
  6 27  1  0
  4 24  1  0
 26 25  2  0
 24  5  2  0
 25  5  1  0
  2 31  1  0
  3 32  1  0
  5 33  1  0
  7 34  1  0
  8 35  1  0
  9 36  1  0
  9 37  1  0
  9 38  1  0
 11 39  1  0
 11 40  1  0
 11 41  1  0
 12 42  1  0
 12 43  1  0
 12 44  1  0
 14 45  1  0
 16 46  1  0
 19 47  1  0
 21 48  1  0
 23 49  1  0
 24 50  1  0
 25 51  1  0
 27 52  1  0
 27 53  1  0
A    1
N1
A    2
C10
A    3
C13
A    4
C15
A    5
C17
A    6
C20
A    7
C21
A    8
C22
A    9
C01
A   10
C02
A   11
C03
A   12
C04
A   13
C05
A   14
C06
A   15
C07
A   16
N01
A   17
C08
A   18
O01
A   19
N02
A   20
C09
A   21
C11
A   22
C12
A   23
C14
A   24
C16
A   25
C18
A   26
C19
A   27
N03
A   28
N04
A   29
C1
A   30
O1
M  END
