5EHS_2JJ_A_301
     RDKit          3D

 24 23  0  0  0  0  0  0  0  0999 V2000
   52.8290   39.5160    7.1740 O   0  0  0  0  0  0  0  0  0  0  0  0
   52.1870   38.1900    6.8480 P   0  0  0  0  0  0  0  0  0  0  0  0
   50.9080   38.2690    6.0240 O   0  0  0  0  0  0  0  0  0  0  0  0
   53.1320   37.1540    6.2360 O   0  0  0  0  0  0  0  0  0  0  0  0
   51.6480   37.4130    8.5310 C   0  0  0  0  0  0  0  0  0  0  0  0
   50.3070   37.8820    9.0140 C   0  0  0  0  0  0  0  0  0  0  0  0
   50.1370   37.9620   10.5600 C   0  0  0  0  0  0  0  0  0  0  0  0
   48.9950   37.1420   11.2160 C   0  0  0  0  0  0  0  0  0  0  0  0
   48.3880   36.1270   10.2990 N   0  0  0  0  0  0  0  0  0  0  0  0
   49.5270   36.3380   12.4190 C   0  0  0  0  0  0  0  0  0  0  0  0
   50.6530   36.5510   12.9100 O   0  0  0  0  0  0  0  0  0  0  0  0
   48.7340   35.4510   12.8590 O   0  0  0  0  0  0  0  0  0  0  0  0
   52.8815   39.6245    8.1566 H   0  0  0  0  0  0  0  0  0  0  0  0
   53.5874   36.6547    6.9595 H   0  0  0  0  0  0  0  0  0  0  0  0
   52.4004   37.6738    9.2899 H   0  0  0  0  0  0  0  0  0  0  0  0
   51.5688   36.3275    8.3714 H   0  0  0  0  0  0  0  0  0  0  0  0
   49.5463   37.1888    8.6256 H   0  0  0  0  0  0  0  0  0  0  0  0
   50.1994   38.9132    8.6464 H   0  0  0  0  0  0  0  0  0  0  0  0
   51.0818   37.6229   11.0099 H   0  0  0  0  0  0  0  0  0  0  0  0
   49.8632   39.0103   10.7499 H   0  0  0  0  0  0  0  0  0  0  0  0
   48.2413   37.8909   11.5008 H   0  0  0  0  0  0  0  0  0  0  0  0
   47.9433   35.3834   10.8561 H   0  0  0  0  0  0  0  0  0  0  0  0
   47.6797   36.5811    9.7049 H   0  0  0  0  0  0  0  0  0  0  0  0
   50.7683   36.5728   13.8930 H   0  0  0  0  0  0  0  0  0  0  0  0
  9  8  1  0
  6  7  1  0
  6  5  1  0
  8  7  1  0
  8 10  1  0
 12 10  2  0
  5  2  1  0
 10 11  1  0
  3  2  2  0
  2  1  1  0
  2  4  1  0
  1 13  1  0
  4 14  1  0
  5 15  1  0
  5 16  1  0
  6 17  1  0
  6 18  1  0
  7 19  1  0
  7 20  1  0
  8 21  1  0
  9 22  1  0
  9 23  1  0
 11 24  1  0
A    1
OAC
A    2
PAL
A    3
OAE
A    4
OAF
A    5
CAI
A    6
CAG
A    7
CB
A    8
CA
A    9
N
A   10
C
A   11
O
A   12
OXT
M  END
