1H2B_NAJ_A_1361
     RDKit          3D

 71 75  0  0  0  0  0  0  0  0999 V2000
   79.5440    7.1650   -8.5380 P   0  0  0  0  0  0  0  0  0  0  0  0
   79.2050    6.9970  -10.0190 O   0  0  0  0  0  0  0  0  0  0  0  0
   78.4140    7.5500   -7.5950 O   0  0  0  0  0  0  0  0  0  0  0  0
   80.6290    8.2670   -8.3070 O   0  0  0  0  0  0  0  0  0  0  0  0
   81.7630    8.4650   -9.1560 C   0  0  0  0  0  0  0  0  0  0  0  0
   82.1600    9.9240   -8.9720 C   0  0  0  0  0  0  0  0  0  0  0  0
   83.3410   10.1390   -9.7080 O   0  0  0  0  0  0  0  0  0  0  0  0
   81.1240   10.9260   -9.5480 C   0  0  0  0  0  0  0  0  0  0  0  0
   80.7730   11.8980   -8.5810 O   0  0  0  0  0  0  0  0  0  0  0  0
   81.8100   11.4330  -10.7990 C   0  0  0  0  0  0  0  0  0  0  0  0
   81.3800   12.7010  -11.2800 O   0  0  0  0  0  0  0  0  0  0  0  0
   83.2620   11.4090  -10.3630 C   0  0  0  0  0  0  0  0  0  0  0  0
   84.1940   11.4200  -11.4780 N   0  0  0  0  0  0  0  0  0  0  0  0
   84.0770   10.8700  -12.7440 C   0  0  0  0  0  0  0  0  0  0  0  0
   85.2290   11.1110  -13.4030 N   0  0  0  0  0  0  0  0  0  0  0  0
   86.0780   11.8110  -12.5800 C   0  0  0  0  0  0  0  0  0  0  0  0
   87.3470   12.3460  -12.7350 C   0  0  0  0  0  0  0  0  0  0  0  0
   88.0470   12.2440  -13.8790 N   0  0  0  0  0  0  0  0  0  0  0  0
   87.9550   13.0120  -11.6810 N   0  0  0  0  0  0  0  0  0  0  0  0
   87.2260   13.1810  -10.4980 C   0  0  0  0  0  0  0  0  0  0  0  0
   85.9870   12.6820  -10.3380 N   0  0  0  0  0  0  0  0  0  0  0  0
   85.4120   11.9950  -11.3720 C   0  0  0  0  0  0  0  0  0  0  0  0
   80.2190    5.7710   -8.1330 O   0  0  0  0  0  0  0  0  0  0  0  0
   80.1990    5.0260   -6.7040 P   0  0  0  0  0  0  0  0  0  0  0  0
   79.0020    4.1780   -6.6320 O   0  0  0  0  0  0  0  0  0  0  0  0
   80.5420    6.0300   -5.6680 O   0  0  0  0  0  0  0  0  0  0  0  0
   81.4510    4.0550   -6.9160 O   0  0  0  0  0  0  0  0  0  0  0  0
   82.7540    4.6180   -7.0180 C   0  0  0  0  0  0  0  0  0  0  0  0
   83.7790    3.5660   -7.4820 C   0  0  0  0  0  0  0  0  0  0  0  0
   83.9570    2.6310   -6.3920 O   0  0  0  0  0  0  0  0  0  0  0  0
   83.2670    2.6820   -8.6310 C   0  0  0  0  0  0  0  0  0  0  0  0
   84.3850    2.2990   -9.4070 O   0  0  0  0  0  0  0  0  0  0  0  0
   82.6430    1.4940   -7.9430 C   0  0  0  0  0  0  0  0  0  0  0  0
   82.5070    0.3510   -8.7490 O   0  0  0  0  0  0  0  0  0  0  0  0
   83.6810    1.3110   -6.8450 C   0  0  0  0  0  0  0  0  0  0  0  0
   83.2950    0.4730   -5.6930 N   0  0  0  0  0  0  0  0  0  0  0  0
   84.3540   -0.0740   -4.9970 C   0  0  0  0  0  0  0  0  0  0  0  0
   84.0980   -0.7750   -3.8370 C   0  0  0  0  0  0  0  0  0  0  0  0
   85.2680   -1.4260   -3.1430 C   0  0  0  0  0  0  0  0  0  0  0  0
   84.9520   -2.1760   -2.1000 O   0  0  0  0  0  0  0  0  0  0  0  0
   86.5190   -1.2720   -3.5380 N   0  0  0  0  0  0  0  0  0  0  0  0
   82.7870   -0.9080   -3.2900 C   0  0  0  0  0  0  0  0  0  0  0  0
   81.7540   -0.1930   -3.9410 C   0  0  0  0  0  0  0  0  0  0  0  0
   82.0410    0.4990   -5.1080 C   0  0  0  0  0  0  0  0  0  0  0  0
   82.5878    7.8016   -8.8566 H   0  0  0  0  0  0  0  0  0  0  0  0
   81.5313    8.2347  -10.2064 H   0  0  0  0  0  0  0  0  0  0  0  0
   82.2554   10.0943   -7.8895 H   0  0  0  0  0  0  0  0  0  0  0  0
   80.1417   10.5027   -9.8048 H   0  0  0  0  0  0  0  0  0  0  0  0
   80.9078   11.5248   -7.6740 H   0  0  0  0  0  0  0  0  0  0  0  0
   81.5798   10.8180  -11.6815 H   0  0  0  0  0  0  0  0  0  0  0  0
   81.1789   13.2940  -10.5131 H   0  0  0  0  0  0  0  0  0  0  0  0
   83.5274   12.2872   -9.7561 H   0  0  0  0  0  0  0  0  0  0  0  0
   83.2024   10.3335  -13.1404 H   0  0  0  0  0  0  0  0  0  0  0  0
   89.0658   12.0956  -13.8479 H   0  0  0  0  0  0  0  0  0  0  0  0
   87.5643   12.3143  -14.7862 H   0  0  0  0  0  0  0  0  0  0  0  0
   88.9162   13.3722  -11.7665 H   0  0  0  0  0  0  0  0  0  0  0  0
   87.6827   13.7420   -9.6694 H   0  0  0  0  0  0  0  0  0  0  0  0
   82.7326    5.4435   -7.7448 H   0  0  0  0  0  0  0  0  0  0  0  0
   83.0547    4.9840   -6.0252 H   0  0  0  0  0  0  0  0  0  0  0  0
   84.6769    4.1179   -7.7970 H   0  0  0  0  0  0  0  0  0  0  0  0
   82.5439    3.1746   -9.2977 H   0  0  0  0  0  0  0  0  0  0  0  0
   85.1306    2.0436   -8.8079 H   0  0  0  0  0  0  0  0  0  0  0  0
   81.6020    1.6460   -7.6216 H   0  0  0  0  0  0  0  0  0  0  0  0
   82.4118   -0.4490   -8.1737 H   0  0  0  0  0  0  0  0  0  0  0  0
   84.5336    0.7646   -7.2745 H   0  0  0  0  0  0  0  0  0  0  0  0
   85.3848    0.0471   -5.3613 H   0  0  0  0  0  0  0  0  0  0  0  0
   87.2715   -1.1794   -2.8408 H   0  0  0  0  0  0  0  0  0  0  0  0
   86.7420   -1.2445   -4.5432 H   0  0  0  0  0  0  0  0  0  0  0  0
   82.5894   -1.5342   -2.4075 H   0  0  0  0  0  0  0  0  0  0  0  0
   80.7352   -0.1861   -3.5263 H   0  0  0  0  0  0  0  0  0  0  0  0
   81.2445    1.0889   -5.5852 H   0  0  0  0  0  0  0  0  0  0  0  0
  1  2  2  0
  1  3  1  0
  1  4  1  0
  1 23  1  0
  4  5  1  0
  5  6  1  0
  6  7  1  0
  6  8  1  0
  7 12  1  0
  8  9  1  0
  8 10  1  0
 10 11  1  0
 10 12  1  0
 12 13  1  0
 13 14  1  0
 13 22  1  0
 14 15  2  0
 15 16  1  0
 16 17  1  0
 16 22  2  0
 17 18  1  0
 17 19  2  0
 19 20  1  0
 20 21  2  0
 21 22  1  0
 23 24  1  0
 24 25  2  0
 24 26  1  0
 24 27  1  0
 27 28  1  0
 28 29  1  0
 29 30  1  0
 29 31  1  0
 30 35  1  0
 31 32  1  0
 31 33  1  0
 33 34  1  0
 33 35  1  0
 35 36  1  0
 36 37  2  0
 36 44  1  0
 37 38  1  0
 38 39  1  0
 38 42  2  0
 39 40  2  0
 39 41  1  0
 42 43  1  0
 43 44  2  0
  5 45  1  0
  5 46  1  0
  6 47  1  0
  8 48  1  0
  9 49  1  0
 10 50  1  0
 11 51  1  0
 12 52  1  0
 14 53  1  0
 18 54  1  0
 18 55  1  0
 19 56  1  0
 20 57  1  0
 28 58  1  0
 28 59  1  0
 29 60  1  0
 31 61  1  0
 32 62  1  0
 33 63  1  0
 34 64  1  0
 35 65  1  0
 37 66  1  0
 41 67  1  0
 41 68  1  0
 42 69  1  0
 43 70  1  0
 44 71  1  0
M  CHG  4   3  -1  19   1  26  -1  36   1
A    1
PA
A    2
O1A
A    3
O2A
A    4
O5B
A    5
C5B
A    6
C4B
A    7
O4B
A    8
C3B
A    9
O3B
A   10
C2B
A   11
O2B
A   12
C1B
A   13
N9A
A   14
C8A
A   15
N7A
A   16
C5A
A   17
C6A
A   18
N6A
A   19
N1A
A   20
C2A
A   21
N3A
A   22
C4A
A   23
O3
A   24
PN
A   25
O1N
A   26
O2N
A   27
O5D
A   28
C5D
A   29
C4D
A   30
O4D
A   31
C3D
A   32
O3D
A   33
C2D
A   34
O2D
A   35
C1D
A   36
N1N
A   37
C2N
A   38
C3N
A   39
C7N
A   40
O7N
A   41
N7N
A   42
C4N
A   43
C5N
A   44
C6N
M  END
