4NG9_2KE_H_301
     RDKit          3D

 73 76  0  0  0  0  0  0  0  0999 V2000
    5.1270   36.2720   24.8080 C   0  0  0  0  0  0  0  0  0  0  0  0
    5.7750   37.1000   25.7570 C   0  0  0  0  0  0  0  0  0  0  0  0
    7.1530   38.2490   24.1430 C   0  0  0  0  0  0  0  0  0  0  0  0
    3.7870   35.9300   25.0210 C   0  0  0  0  0  0  0  0  0  0  0  0
    3.0630   36.4330   26.1760 C   0  0  0  0  0  0  0  0  0  0  0  0
    3.7490   37.2520   27.1230 C   0  0  0  0  0  0  0  0  0  0  0  0
    5.1000   37.5730   26.9150 C   0  0  0  0  0  0  0  0  0  0  0  0
    9.6220   33.6090   27.2470 C   0  0  0  0  0  0  0  0  0  0  0  0
    2.8490   38.6080   21.0260 C   0  0  0  0  0  0  0  0  0  0  0  0
    0.7740   36.5460   27.2120 C   0  0  0  0  0  0  0  0  0  0  0  0
    2.7950   38.8070   22.4270 C   0  0  0  0  0  0  0  0  0  0  0  0
    6.5840   39.5000   24.1610 N   0  0  0  0  0  0  0  0  0  0  0  0
    9.6950   33.5190   31.0160 N   0  0  0  0  0  0  0  0  0  0  0  0
    9.0770   34.7000   31.2740 C   0  0  0  0  0  0  0  0  0  0  0  0
    8.5530   35.5480   30.3010 C   0  0  0  0  0  0  0  0  0  0  0  0
    8.7080   35.1790   28.9300 C   0  0  0  0  0  0  0  0  0  0  0  0
    9.3890   33.9460   28.6050 C   0  0  0  0  0  0  0  0  0  0  0  0
    9.8290   33.1210   29.7130 C   0  0  0  0  0  0  0  0  0  0  0  0
    8.2210   36.0290   27.8800 C   0  0  0  0  0  0  0  0  0  0  0  0
    8.4460   35.6370   26.5430 C   0  0  0  0  0  0  0  0  0  0  0  0
    9.1770   34.4130   26.2510 C   0  0  0  0  0  0  0  0  0  0  0  0
   10.3420   31.8370   29.5270 N   0  0  0  0  0  0  0  0  0  0  0  0
    8.0320   36.3440   25.4060 N   0  0  0  0  0  0  0  0  0  0  0  0
    7.1950   37.5330   25.4940 C   0  0  0  0  0  0  0  0  0  0  0  0
    7.6240   37.7380   23.1190 O   0  0  0  0  0  0  0  0  0  0  0  0
    1.7090   36.0400   26.2310 O   0  0  0  0  0  0  0  0  0  0  0  0
    3.1100   35.0230   24.2330 O   0  0  0  0  0  0  0  0  0  0  0  0
    3.5860   34.7810   22.9200 C   0  0  0  0  0  0  0  0  0  0  0  0
    2.8830   33.6710   22.4360 C   0  0  0  0  0  0  0  0  0  0  0  0
   -0.5940   36.4200   26.6050 C   0  0  0  0  0  0  0  0  0  0  0  0
    0.9200   35.7800   28.5000 C   0  0  0  0  0  0  0  0  0  0  0  0
    6.3650   40.2760   22.9610 C   0  0  0  0  0  0  0  0  0  0  0  0
    5.1470   39.6200   22.2970 C   0  0  0  0  0  0  0  0  0  0  0  0
    3.9790   39.3070   23.0470 C   0  0  0  0  0  0  0  0  0  0  0  0
    4.0020   38.8870   20.2820 C   0  0  0  0  0  0  0  0  0  0  0  0
    5.1510   39.3900   20.9180 C   0  0  0  0  0  0  0  0  0  0  0  0
    1.3440   38.5330   23.2980 S   0  0  0  0  0  0  0  0  0  0  0  0
    1.5810   38.7720   24.6900 O   0  0  0  0  0  0  0  0  0  0  0  0
    0.3170   39.2620   22.6290 O   0  0  0  0  0  0  0  0  0  0  0  0
    0.9500   36.9650   23.0940 N   0  0  0  0  0  0  0  0  0  0  0  0
    5.6660   35.9054   23.9219 H   0  0  0  0  0  0  0  0  0  0  0  0
    3.2217   37.6298   28.0114 H   0  0  0  0  0  0  0  0  0  0  0  0
    5.6368   38.1915   27.6494 H   0  0  0  0  0  0  0  0  0  0  0  0
   10.1687   32.6869   27.0002 H   0  0  0  0  0  0  0  0  0  0  0  0
    1.9589   38.2229   20.5069 H   0  0  0  0  0  0  0  0  0  0  0  0
    0.9613   37.5998   27.4657 H   0  0  0  0  0  0  0  0  0  0  0  0
    6.3020   39.9012   25.0668 H   0  0  0  0  0  0  0  0  0  0  0  0
    8.9835   35.0090   32.3256 H   0  0  0  0  0  0  0  0  0  0  0  0
    8.0340   36.4766   30.5810 H   0  0  0  0  0  0  0  0  0  0  0  0
    7.6862   36.9619   28.1119 H   0  0  0  0  0  0  0  0  0  0  0  0
    9.3716   34.1358   25.2044 H   0  0  0  0  0  0  0  0  0  0  0  0
   10.5755   31.2526   30.3424 H   0  0  0  0  0  0  0  0  0  0  0  0
   10.4872   31.4735   28.5743 H   0  0  0  0  0  0  0  0  0  0  0  0
    8.3294   36.0119   24.4774 H   0  0  0  0  0  0  0  0  0  0  0  0
    7.5997   38.1844   26.2826 H   0  0  0  0  0  0  0  0  0  0  0  0
    4.6648   34.5669   22.9412 H   0  0  0  0  0  0  0  0  0  0  0  0
    3.4325   35.6588   22.2751 H   0  0  0  0  0  0  0  0  0  0  0  0
    2.5071   33.0775   23.2824 H   0  0  0  0  0  0  0  0  0  0  0  0
    2.0360   34.0123   21.8227 H   0  0  0  0  0  0  0  0  0  0  0  0
    3.5536   33.0512   21.8227 H   0  0  0  0  0  0  0  0  0  0  0  0
   -1.3453   36.3508   27.4054 H   0  0  0  0  0  0  0  0  0  0  0  0
   -0.8017   37.3028   25.9825 H   0  0  0  0  0  0  0  0  0  0  0  0
   -0.6369   35.5141   25.9825 H   0  0  0  0  0  0  0  0  0  0  0  0
    0.7894   36.4649   29.3508 H   0  0  0  0  0  0  0  0  0  0  0  0
    0.1563   34.9896   28.5451 H   0  0  0  0  0  0  0  0  0  0  0  0
    1.9209   35.3259   28.5451 H   0  0  0  0  0  0  0  0  0  0  0  0
    7.2426   40.2257   22.2997 H   0  0  0  0  0  0  0  0  0  0  0  0
    6.2008   41.3422   23.1762 H   0  0  0  0  0  0  0  0  0  0  0  0
    3.9891   39.4548   24.1370 H   0  0  0  0  0  0  0  0  0  0  0  0
    4.0090   38.7121   19.1960 H   0  0  0  0  0  0  0  0  0  0  0  0
    6.0552   39.6030   20.3289 H   0  0  0  0  0  0  0  0  0  0  0  0
    0.8374   36.5167   24.0145 H   0  0  0  0  0  0  0  0  0  0  0  0
    0.0662   36.8985   22.5693 H   0  0  0  0  0  0  0  0  0  0  0  0
 35 36  1  0
 35  9  2  0
 36 33  2  0
  9 11  1  0
 33 32  1  0
 33 34  1  0
 11 34  2  0
 11 37  1  0
 29 28  1  0
 39 37  2  0
 28 27  1  0
 32 12  1  0
 40 37  1  0
 25  3  2  0
 37 38  2  0
  3 12  1  0
  3 24  1  0
 27  4  1  0
  1  4  2  0
  1  2  1  0
  4  5  1  0
 23 24  1  0
 23 20  1  0
 24  2  1  0
  2  7  2  0
  5 26  1  0
  5  6  2  0
 26 10  1  0
 21 20  1  0
 21  8  2  0
 20 19  2  0
 30 10  1  0
  7  6  1  0
 10 31  1  0
  8 17  1  0
 19 16  1  0
 17 16  2  0
 17 18  1  0
 16 15  1  0
 22 18  1  0
 18 13  2  0
 15 14  2  0
 13 14  1  0
  1 41  1  0
  6 42  1  0
  7 43  1  0
  8 44  1  0
  9 45  1  0
 10 46  1  0
 12 47  1  0
 14 48  1  0
 15 49  1  0
 19 50  1  0
 21 51  1  0
 22 52  1  0
 22 53  1  0
 23 54  1  0
 24 55  1  0
 28 56  1  0
 28 57  1  0
 29 58  1  0
 29 59  1  0
 29 60  1  0
 30 61  1  0
 30 62  1  0
 30 63  1  0
 31 64  1  0
 31 65  1  0
 31 66  1  0
 32 67  1  0
 32 68  1  0
 34 69  1  0
 35 70  1  0
 36 71  1  0
 40 72  1  0
 40 73  1  0
A    1
C18
A    2
C17
A    3
C15
A    4
C19
A    5
C20
A    6
C21
A    7
C22
A    8
C11
A    9
C34
A   10
C27
A   11
C33
A   12
N1
A   13
N2
A   14
C3
A   15
C4
A   16
C5
A   17
C6
A   18
C7
A   19
C8
A   20
C9
A   21
C10
A   22
N12
A   23
N13
A   24
C14
A   25
O16
A   26
O23
A   27
O24
A   28
C25
A   29
C26
A   30
C28
A   31
C29
A   32
C30
A   33
C31
A   34
C32
A   35
C35
A   36
C36
A   37
S37
A   38
O38
A   39
O39
A   40
N40
M  END
