4NGA_2KF_H_301
     RDKit          3D

 80 83  0  0  0  0  0  0  0  0999 V2000
    5.8160   36.8360   25.9100 C   0  0  0  0  0  0  0  0  0  0  0  0
    3.7450   35.8240   25.2270 C   0  0  0  0  0  0  0  0  0  0  0  0
    5.1090   36.0750   25.0040 C   0  0  0  0  0  0  0  0  0  0  0  0
    3.0910   36.3570   26.3990 C   0  0  0  0  0  0  0  0  0  0  0  0
    3.8520   37.1380   27.3300 C   0  0  0  0  0  0  0  0  0  0  0  0
    5.1990   37.3620   27.0800 C   0  0  0  0  0  0  0  0  0  0  0  0
    0.9680   36.3570   27.7110 C   0  0  0  0  0  0  0  0  0  0  0  0
    7.2710   37.1470   25.6230 C   0  0  0  0  0  0  0  0  0  0  0  0
    4.8910   39.4530   20.0730 C   0  0  0  0  0  0  0  0  0  0  0  0
    3.7290   34.3110   23.3400 C   0  0  0  0  0  0  0  0  0  0  0  0
    3.7840   38.7770   20.6020 C   0  0  0  0  0  0  0  0  0  0  0  0
    9.0050   34.6030   31.4180 C   0  0  0  0  0  0  0  0  0  0  0  0
    9.6060   33.3790   31.2530 N   0  0  0  0  0  0  0  0  0  0  0  0
    9.7730   32.8930   29.9560 C   0  0  0  0  0  0  0  0  0  0  0  0
    9.3400   33.6240   28.7910 C   0  0  0  0  0  0  0  0  0  0  0  0
    8.7080   34.9020   29.0340 C   0  0  0  0  0  0  0  0  0  0  0  0
    8.5470   35.3820   30.3670 C   0  0  0  0  0  0  0  0  0  0  0  0
    9.5580   33.1740   27.4440 C   0  0  0  0  0  0  0  0  0  0  0  0
    9.1750   33.9680   26.3940 C   0  0  0  0  0  0  0  0  0  0  0  0
    8.5050   35.2450   26.6440 C   0  0  0  0  0  0  0  0  0  0  0  0
    8.2790   35.6910   27.9500 C   0  0  0  0  0  0  0  0  0  0  0  0
    8.1060   35.9540   25.5190 N   0  0  0  0  0  0  0  0  0  0  0  0
    7.4110   37.9610   24.3600 C   0  0  0  0  0  0  0  0  0  0  0  0
    7.8460   37.4940   23.2880 O   0  0  0  0  0  0  0  0  0  0  0  0
    6.9850   39.2880   24.5120 N   0  0  0  0  0  0  0  0  0  0  0  0
    3.0000   35.0520   24.3320 O   0  0  0  0  0  0  0  0  0  0  0  0
    1.7370   36.0310   26.5250 O   0  0  0  0  0  0  0  0  0  0  0  0
   -0.4540   36.3050   27.2790 C   0  0  0  0  0  0  0  0  0  0  0  0
    1.2540   35.4160   28.8580 C   0  0  0  0  0  0  0  0  0  0  0  0
    2.7880   33.4230   22.6840 C   0  0  0  0  0  0  0  0  0  0  0  0
    6.8980   40.1700   23.3470 C   0  0  0  0  0  0  0  0  0  0  0  0
    5.8400   39.7060   22.3180 C   0  0  0  0  0  0  0  0  0  0  0  0
    4.7130   39.0290   22.8380 C   0  0  0  0  0  0  0  0  0  0  0  0
    3.6950   38.5670   22.0040 C   0  0  0  0  0  0  0  0  0  0  0  0
    5.9580   39.9450   20.8850 C   0  0  0  0  0  0  0  0  0  0  0  0
    7.1950   40.7830   20.0890 S   0  0  0  0  0  0  0  0  0  0  0  0
    6.6440   41.3900   18.9310 O   0  0  0  0  0  0  0  0  0  0  0  0
    7.8910   41.6500   20.9650 O   0  0  0  0  0  0  0  0  0  0  0  0
    8.3260   39.5390   19.4700 C   0  0  0  0  0  0  0  0  0  0  0  0
    8.7250   38.4200   20.4080 C   0  0  0  0  0  0  0  0  0  0  0  0
    9.6150   40.1860   19.0320 C   0  0  0  0  0  0  0  0  0  0  0  0
   10.4060   31.6660   29.8300 N   0  0  0  0  0  0  0  0  0  0  0  0
    5.6091   35.6673   24.1131 H   0  0  0  0  0  0  0  0  0  0  0  0
    3.3751   37.5539   28.2298 H   0  0  0  0  0  0  0  0  0  0  0  0
    5.7949   37.9513   27.7925 H   0  0  0  0  0  0  0  0  0  0  0  0
    1.2343   37.3495   28.1035 H   0  0  0  0  0  0  0  0  0  0  0  0
    7.6262   37.7277   26.4871 H   0  0  0  0  0  0  0  0  0  0  0  0
    4.9406   39.6117   18.9856 H   0  0  0  0  0  0  0  0  0  0  0  0
    4.5272   33.7253   23.8194 H   0  0  0  0  0  0  0  0  0  0  0  0
    4.1943   34.9910   22.6112 H   0  0  0  0  0  0  0  0  0  0  0  0
    2.9887   38.4111   19.9359 H   0  0  0  0  0  0  0  0  0  0  0  0
    8.8802   34.9865   32.4414 H   0  0  0  0  0  0  0  0  0  0  0  0
    8.0677   36.3535   30.5579 H   0  0  0  0  0  0  0  0  0  0  0  0
   10.0295   32.1981   27.2563 H   0  0  0  0  0  0  0  0  0  0  0  0
    9.3717   33.6445   25.3612 H   0  0  0  0  0  0  0  0  0  0  0  0
    7.7705   36.6499   28.1287 H   0  0  0  0  0  0  0  0  0  0  0  0
    8.4064   35.6305   24.5884 H   0  0  0  0  0  0  0  0  0  0  0  0
    6.7327   39.6431   25.4454 H   0  0  0  0  0  0  0  0  0  0  0  0
   -1.1057   36.2812   28.1649 H   0  0  0  0  0  0  0  0  0  0  0  0
   -0.6869   37.1952   26.6763 H   0  0  0  0  0  0  0  0  0  0  0  0
   -0.6213   35.4001   26.6763 H   0  0  0  0  0  0  0  0  0  0  0  0
    1.0945   35.9409   29.8114 H   0  0  0  0  0  0  0  0  0  0  0  0
    0.5785   34.5498   28.7988 H   0  0  0  0  0  0  0  0  0  0  0  0
    2.2972   35.0722   28.7988 H   0  0  0  0  0  0  0  0  0  0  0  0
    2.2091   32.8767   23.4432 H   0  0  0  0  0  0  0  0  0  0  0  0
    2.1043   34.0127   22.0557 H   0  0  0  0  0  0  0  0  0  0  0  0
    3.3371   32.7063   22.0557 H   0  0  0  0  0  0  0  0  0  0  0  0
    7.8803   40.1964   22.8527 H   0  0  0  0  0  0  0  0  0  0  0  0
    6.5941   41.1638   23.7075 H   0  0  0  0  0  0  0  0  0  0  0  0
    4.6375   38.8632   23.9228 H   0  0  0  0  0  0  0  0  0  0  0  0
    2.8271   38.0424   22.4301 H   0  0  0  0  0  0  0  0  0  0  0  0
    7.7411   39.0778   18.6606 H   0  0  0  0  0  0  0  0  0  0  0  0
    8.6058   38.7543   21.4492 H   0  0  0  0  0  0  0  0  0  0  0  0
    8.0836   37.5446   20.2282 H   0  0  0  0  0  0  0  0  0  0  0  0
    9.7755   38.1479   20.2282 H   0  0  0  0  0  0  0  0  0  0  0  0
   10.1979   40.4786   19.9178 H   0  0  0  0  0  0  0  0  0  0  0  0
   10.1968   39.4731   18.4293 H   0  0  0  0  0  0  0  0  0  0  0  0
    9.3910   41.0785   18.4293 H   0  0  0  0  0  0  0  0  0  0  0  0
   10.6783   31.1382   30.6715 H   0  0  0  0  0  0  0  0  0  0  0  0
   10.6040   31.2823   28.8949 H   0  0  0  0  0  0  0  0  0  0  0  0
 37 36  2  0
 41 39  1  0
 39 36  1  0
 39 40  1  0
  9 11  2  0
  9 35  1  0
 36 35  1  0
 36 38  2  0
 11 34  1  0
 35 32  2  0
 34 33  2  0
 32 33  1  0
 32 31  1  0
 30 10  1  0
 24 23  2  0
 10 26  1  0
 31 25  1  0
 26  2  1  0
 23 25  1  0
 23  8  1  0
  3  2  2  0
  3  1  1  0
  2  4  1  0
 22  8  1  0
 22 20  1  0
  8  1  1  0
  1  6  2  0
 19 20  2  0
 19 18  1  0
  4 27  1  0
  4  5  2  0
 27  7  1  0
 20 21  1  0
  6  5  1  0
 28  7  1  0
 18 15  2  0
  7 29  1  0
 21 16  2  0
 15 16  1  0
 15 14  1  0
 16 17  1  0
 42 14  1  0
 14 13  2  0
 17 12  2  0
 13 12  1  0
  3 43  1  0
  5 44  1  0
  6 45  1  0
  7 46  1  0
  8 47  1  0
  9 48  1  0
 10 49  1  0
 10 50  1  0
 11 51  1  0
 12 52  1  0
 17 53  1  0
 18 54  1  0
 19 55  1  0
 21 56  1  0
 22 57  1  0
 25 58  1  0
 28 59  1  0
 28 60  1  0
 28 61  1  0
 29 62  1  0
 29 63  1  0
 29 64  1  0
 30 65  1  0
 30 66  1  0
 30 67  1  0
 31 68  1  0
 31 69  1  0
 33 70  1  0
 34 71  1  0
 39 72  1  0
 40 73  1  0
 40 74  1  0
 40 75  1  0
 41 76  1  0
 41 77  1  0
 41 78  1  0
 42 79  1  0
 42 80  1  0
A    1
C13
A    2
C18
A    3
C17
A    4
C19
A    5
C20
A    6
C21
A    7
C24
A    8
C12
A    9
C34
A   10
C27
A   11
C33
A   12
C1
A   13
N2
A   14
C3
A   15
C4
A   16
C5
A   17
C6
A   18
C7
A   19
C8
A   20
C9
A   21
C10
A   22
N11
A   23
C14
A   24
O15
A   25
N16
A   26
O22
A   27
O23
A   28
C25
A   29
C26
A   30
C28
A   31
C29
A   32
C30
A   33
C31
A   34
C32
A   35
C35
A   36
S36
A   37
O37
A   38
O38
A   39
C39
A   40
C40
A   41
C41
A   42
N42
M  END
