4NGN_J96_A_819
     RDKit          3D

 45 44  0  0  0  0  0  0  0  0999 V2000
  -25.3400  -16.8820  -40.9830 O   0  0  0  0  0  0  0  0  0  0  0  0
  -25.3720  -16.4730  -42.1370 C   0  0  0  0  0  0  0  0  0  0  0  0
  -24.5750  -16.9320  -43.1010 N   0  0  0  0  0  0  0  0  0  0  0  0
  -23.2330  -17.4600  -42.7830 C   0  0  0  0  0  0  0  0  0  0  0  0
  -23.1460  -18.9350  -42.3480 C   0  0  0  0  0  0  0  0  0  0  0  0
  -22.3500  -19.8630  -43.3050 C   0  0  0  0  0  0  0  0  0  0  0  0
  -20.8820  -19.5320  -43.1800 C   0  0  0  0  0  0  0  0  0  0  0  0
  -19.8960  -20.1320  -44.2020 C   0  0  0  0  0  0  0  0  0  0  0  0
  -18.5820  -19.7750  -43.7250 N   0  0  0  0  0  0  0  0  0  0  0  0
  -17.8630  -20.5210  -42.8720 C   0  0  0  0  0  0  0  0  0  0  0  0
  -18.3100  -21.5880  -42.3970 O   0  0  0  0  0  0  0  0  0  0  0  0
  -16.5900  -20.1540  -42.6210 N   0  0  0  0  0  0  0  0  0  0  0  0
  -16.0100  -20.6590  -41.3710 C   0  0  0  0  0  0  0  0  0  0  0  0
  -16.9970  -20.4520  -40.2400 C   0  0  0  0  0  0  0  0  0  0  0  0
  -17.9050  -19.5810  -40.1950 O   0  0  0  0  0  0  0  0  0  0  0  0
  -16.8880  -21.3100  -39.2220 O   0  0  0  0  0  0  0  0  0  0  0  0
  -14.6800  -19.9680  -40.9720 C   0  0  0  0  0  0  0  0  0  0  0  0
  -14.9460  -18.4370  -40.9140 C   0  0  0  0  0  0  0  0  0  0  0  0
  -13.8530  -17.6530  -40.2660 C   0  0  0  0  0  0  0  0  0  0  0  0
  -13.7130  -16.4240  -40.4570 O   0  0  0  0  0  0  0  0  0  0  0  0
  -13.0150  -18.2090  -39.4460 O   0  0  0  0  0  0  0  0  0  0  0  0
  -20.0910  -19.4650  -45.5480 C   0  0  0  0  0  0  0  0  0  0  0  0
  -19.5640  -18.3700  -45.7830 O   0  0  0  0  0  0  0  0  0  0  0  0
  -20.7270  -20.0950  -46.4670 O   0  0  0  0  0  0  0  0  0  0  0  0
  -26.0967  -15.6854  -42.3909 H   0  0  0  0  0  0  0  0  0  0  0  0
  -24.8984  -16.9184  -44.0788 H   0  0  0  0  0  0  0  0  0  0  0  0
  -22.6087  -17.3416  -43.6809 H   0  0  0  0  0  0  0  0  0  0  0  0
  -22.9001  -16.8841  -41.9069 H   0  0  0  0  0  0  0  0  0  0  0  0
  -22.6627  -18.9702  -41.3605 H   0  0  0  0  0  0  0  0  0  0  0  0
  -24.1789  -19.3133  -42.3468 H   0  0  0  0  0  0  0  0  0  0  0  0
  -22.5185  -20.9142  -43.0282 H   0  0  0  0  0  0  0  0  0  0  0  0
  -22.6841  -19.7117  -44.3421 H   0  0  0  0  0  0  0  0  0  0  0  0
  -20.7905  -18.4378  -43.2463 H   0  0  0  0  0  0  0  0  0  0  0  0
  -20.5864  -19.9899  -42.2245 H   0  0  0  0  0  0  0  0  0  0  0  0
  -20.0396  -21.2174  -44.3078 H   0  0  0  0  0  0  0  0  0  0  0  0
  -18.1700  -18.8925  -44.0601 H   0  0  0  0  0  0  0  0  0  0  0  0
  -16.0568  -19.5553  -43.2676 H   0  0  0  0  0  0  0  0  0  0  0  0
  -15.7928  -21.7231  -41.5455 H   0  0  0  0  0  0  0  0  0  0  0  0
  -16.9300  -20.9798  -38.2896 H   0  0  0  0  0  0  0  0  0  0  0  0
  -14.3502  -20.3292  -39.9867 H   0  0  0  0  0  0  0  0  0  0  0  0
  -13.8909  -20.1961  -41.7037 H   0  0  0  0  0  0  0  0  0  0  0  0
  -15.0720  -18.0690  -41.9429 H   0  0  0  0  0  0  0  0  0  0  0  0
  -15.8466  -18.2944  -40.2988 H   0  0  0  0  0  0  0  0  0  0  0  0
  -13.1468  -18.1216  -38.4687 H   0  0  0  0  0  0  0  0  0  0  0  0
  -19.2826  -17.7854  -45.0352 H   0  0  0  0  0  0  0  0  0  0  0  0
  1  2  2  0
  2  3  1  0
  3  4  1  0
  4  5  1  0
  5  6  1  0
  6  7  1  0
  7  8  1  0
  8  9  1  0
  8 22  1  0
  9 10  1  0
 10 11  2  0
 10 12  1  0
 12 13  1  0
 13 14  1  0
 13 17  1  0
 14 15  2  0
 14 16  1  0
 17 18  1  0
 18 19  1  0
 19 20  2  0
 19 21  1  0
 22 23  1  0
 22 24  2  0
  2 25  1  0
  3 26  1  0
  4 27  1  0
  4 28  1  0
  5 29  1  0
  5 30  1  0
  6 31  1  0
  6 32  1  0
  7 33  1  0
  7 34  1  0
  8 35  1  0
  9 36  1  0
 12 37  1  0
 13 38  1  0
 16 39  1  0
 17 40  1  0
 17 41  1  0
 18 42  1  0
 18 43  1  0
 21 44  1  0
 23 45  1  0
A    1
O23
A    2
C12
A    3
N2
A    4
C11
A    5
C10
A    6
C9
A    7
C8
A    8
C1
A    9
N
A   10
C2
A   11
O6
A   12
N1
A   13
C3
A   14
C7
A   15
O5
A   16
O4
A   17
C4
A   18
C5
A   19
C6
A   20
O3
A   21
O2
A   22
C
A   23
O1
A   24
O
M  END
