4NGP_J31_A_817
     RDKit          3D

 80 80  0  0  0  0  0  0  0  0999 V2000
  -26.5320   -9.8700  -42.8420 O   0  0  0  0  0  0  0  0  0  0  0  0
  -26.3320  -10.7570  -41.9920 C   0  0  0  0  0  0  0  0  0  0  0  0
  -25.4950  -11.7860  -42.1600 N   0  0  0  0  0  0  0  0  0  0  0  0
  -24.7020  -11.9340  -43.3460 C   0  0  0  0  0  0  0  0  0  0  0  0
  -25.4430  -12.6730  -44.4270 C   0  0  0  0  0  0  0  0  0  0  0  0
  -25.5560  -14.0490  -44.0380 O   0  0  0  0  0  0  0  0  0  0  0  0
  -26.3020  -14.9420  -44.7650 C   0  0  0  0  0  0  0  0  0  0  0  0
  -27.0160  -14.5550  -45.9090 C   0  0  0  0  0  0  0  0  0  0  0  0
  -27.7600  -15.5230  -46.6120 C   0  0  0  0  0  0  0  0  0  0  0  0
  -27.7580  -16.8310  -46.1340 C   0  0  0  0  0  0  0  0  0  0  0  0
  -27.0560  -17.1950  -44.9890 C   0  0  0  0  0  0  0  0  0  0  0  0
  -26.3240  -16.2550  -44.2920 C   0  0  0  0  0  0  0  0  0  0  0  0
  -25.4900  -16.6560  -43.0790 C   0  0  0  0  0  0  0  0  0  0  0  0
  -24.3450  -17.2680  -43.3770 N   0  0  0  0  0  0  0  0  0  0  0  0
  -23.3760  -17.7620  -42.3860 C   0  0  0  0  0  0  0  0  0  0  0  0
  -23.1190  -19.2620  -42.4700 C   0  0  0  0  0  0  0  0  0  0  0  0
  -22.3470  -19.6400  -43.7480 C   0  0  0  0  0  0  0  0  0  0  0  0
  -20.8740  -19.4160  -43.5890 C   0  0  0  0  0  0  0  0  0  0  0  0
  -19.9890  -20.1080  -44.6390 C   0  0  0  0  0  0  0  0  0  0  0  0
  -18.6700  -19.8140  -44.1960 N   0  0  0  0  0  0  0  0  0  0  0  0
  -17.9360  -20.6110  -43.4270 C   0  0  0  0  0  0  0  0  0  0  0  0
  -18.4000  -21.6560  -42.9410 O   0  0  0  0  0  0  0  0  0  0  0  0
  -16.6850  -20.2330  -43.1240 N   0  0  0  0  0  0  0  0  0  0  0  0
  -16.0720  -20.7560  -41.9040 C   0  0  0  0  0  0  0  0  0  0  0  0
  -17.0100  -20.6330  -40.7160 C   0  0  0  0  0  0  0  0  0  0  0  0
  -16.8790  -21.3930  -39.7350 O   0  0  0  0  0  0  0  0  0  0  0  0
  -17.9460  -19.7240  -40.7230 O   0  0  0  0  0  0  0  0  0  0  0  0
  -14.7510  -20.0260  -41.5190 C   0  0  0  0  0  0  0  0  0  0  0  0
  -15.0310  -18.5050  -41.3610 C   0  0  0  0  0  0  0  0  0  0  0  0
  -13.8740  -17.7570  -40.7820 C   0  0  0  0  0  0  0  0  0  0  0  0
  -13.7520  -16.5250  -41.0100 O   0  0  0  0  0  0  0  0  0  0  0  0
  -13.0050  -18.3740  -40.0110 O   0  0  0  0  0  0  0  0  0  0  0  0
  -20.2010  -19.4910  -45.9990 C   0  0  0  0  0  0  0  0  0  0  0  0
  -19.5930  -18.3650  -46.3010 O   0  0  0  0  0  0  0  0  0  0  0  0
  -20.7850  -20.0640  -46.9060 O   0  0  0  0  0  0  0  0  0  0  0  0
  -25.7690  -16.3900  -41.8950 O   0  0  0  0  0  0  0  0  0  0  0  0
  -27.0470  -10.6630  -40.6650 C   0  0  0  0  0  0  0  0  0  0  0  0
  -28.4690  -10.1190  -40.8510 C   0  0  0  0  0  0  0  0  0  0  0  0
  -29.0340   -9.8040  -39.5680 O   0  0  0  0  0  0  0  0  0  0  0  0
  -30.4800   -9.7890  -39.4980 C   0  0  0  0  0  0  0  0  0  0  0  0
  -31.0130   -8.7360  -38.5170 C   0  0  0  0  0  0  0  0  0  0  0  0
  -30.1370   -7.6070  -38.4180 O   0  0  0  0  0  0  0  0  0  0  0  0
  -25.4173  -12.4936  -41.4155 H   0  0  0  0  0  0  0  0  0  0  0  0
  -24.4307  -10.9355  -43.7194 H   0  0  0  0  0  0  0  0  0  0  0  0
  -23.8060  -12.5170  -43.0868 H   0  0  0  0  0  0  0  0  0  0  0  0
  -26.4458  -12.2390  -44.5535 H   0  0  0  0  0  0  0  0  0  0  0  0
  -24.9002  -12.5928  -45.3804 H   0  0  0  0  0  0  0  0  0  0  0  0
  -26.9952  -13.5102  -46.2523 H   0  0  0  0  0  0  0  0  0  0  0  0
  -28.3275  -15.2528  -47.5147 H   0  0  0  0  0  0  0  0  0  0  0  0
  -28.3280  -17.5989  -46.6775 H   0  0  0  0  0  0  0  0  0  0  0  0
  -27.0846  -18.2370  -44.6376 H   0  0  0  0  0  0  0  0  0  0  0  0
  -24.1218  -17.4053  -44.3731 H   0  0  0  0  0  0  0  0  0  0  0  0
  -22.4219  -17.2376  -42.5429 H   0  0  0  0  0  0  0  0  0  0  0  0
  -23.8063  -17.5663  -41.3928 H   0  0  0  0  0  0  0  0  0  0  0  0
  -22.5305  -19.5719  -41.5939 H   0  0  0  0  0  0  0  0  0  0  0  0
  -24.0920  -19.7745  -42.4945 H   0  0  0  0  0  0  0  0  0  0  0  0
  -22.5245  -20.7024  -43.9712 H   0  0  0  0  0  0  0  0  0  0  0  0
  -22.7057  -19.0010  -44.5684 H   0  0  0  0  0  0  0  0  0  0  0  0
  -20.6864  -18.3336  -43.6459 H   0  0  0  0  0  0  0  0  0  0  0  0
  -20.6009  -19.8592  -42.6200 H   0  0  0  0  0  0  0  0  0  0  0  0
  -20.2022  -21.1831  -44.7325 H   0  0  0  0  0  0  0  0  0  0  0  0
  -18.2541  -18.9195  -44.4924 H   0  0  0  0  0  0  0  0  0  0  0  0
  -16.1673  -19.5880  -43.7378 H   0  0  0  0  0  0  0  0  0  0  0  0
  -15.8527  -21.8099  -42.1305 H   0  0  0  0  0  0  0  0  0  0  0  0
  -18.3044  -19.3759  -39.8683 H   0  0  0  0  0  0  0  0  0  0  0  0
  -14.3713  -20.4302  -40.5690 H   0  0  0  0  0  0  0  0  0  0  0  0
  -14.0005  -20.1823  -42.3079 H   0  0  0  0  0  0  0  0  0  0  0  0
  -15.2595  -18.0855  -42.3519 H   0  0  0  0  0  0  0  0  0  0  0  0
  -15.8758  -18.3958  -40.6651 H   0  0  0  0  0  0  0  0  0  0  0  0
  -13.0877  -18.3153  -39.0262 H   0  0  0  0  0  0  0  0  0  0  0  0
  -21.4761  -20.7421  -46.6993 H   0  0  0  0  0  0  0  0  0  0  0  0
  -27.1000  -11.6640  -40.2120 H   0  0  0  0  0  0  0  0  0  0  0  0
  -26.4891   -9.9765  -40.0112 H   0  0  0  0  0  0  0  0  0  0  0  0
  -28.4357   -9.2102  -41.4699 H   0  0  0  0  0  0  0  0  0  0  0  0
  -29.0898  -10.8791  -41.3479 H   0  0  0  0  0  0  0  0  0  0  0  0
  -30.8789   -9.5710  -40.4997 H   0  0  0  0  0  0  0  0  0  0  0  0
  -30.8061  -10.7756  -39.1370 H   0  0  0  0  0  0  0  0  0  0  0  0
  -31.9983   -8.3923  -38.8648 H   0  0  0  0  0  0  0  0  0  0  0  0
  -31.0838   -9.2010  -37.5227 H   0  0  0  0  0  0  0  0  0  0  0  0
  -29.9747   -7.3979  -37.4640 H   0  0  0  0  0  0  0  0  0  0  0  0
  1  2  2  0
  2  3  1  0
  2 37  1  0
  3  4  1  0
  4  5  1  0
  5  6  1  0
  6  7  1  0
  7  8  2  0
  7 12  1  0
  8  9  1  0
  9 10  2  0
 10 11  1  0
 11 12  2  0
 12 13  1  0
 13 14  1  0
 13 36  2  0
 14 15  1  0
 15 16  1  0
 16 17  1  0
 17 18  1  0
 18 19  1  0
 19 20  1  0
 19 33  1  0
 20 21  1  0
 21 22  2  0
 21 23  1  0
 23 24  1  0
 24 25  1  0
 24 28  1  0
 25 26  2  0
 25 27  1  0
 28 29  1  0
 29 30  1  0
 30 31  2  0
 30 32  1  0
 33 34  2  0
 33 35  1  0
 37 38  1  0
 38 39  1  0
 39 40  1  0
 40 41  1  0
 41 42  1  0
  3 43  1  0
  4 44  1  0
  4 45  1  0
  5 46  1  0
  5 47  1  0
  8 48  1  0
  9 49  1  0
 10 50  1  0
 11 51  1  0
 14 52  1  0
 15 53  1  0
 15 54  1  0
 16 55  1  0
 16 56  1  0
 17 57  1  0
 17 58  1  0
 18 59  1  0
 18 60  1  0
 19 61  1  0
 20 62  1  0
 23 63  1  0
 24 64  1  0
 27 65  1  0
 28 66  1  0
 28 67  1  0
 29 68  1  0
 29 69  1  0
 32 70  1  0
 35 71  1  0
 37 72  1  0
 37 73  1  0
 38 74  1  0
 38 75  1  0
 40 76  1  0
 40 77  1  0
 41 78  1  0
 41 79  1  0
 42 80  1  0
A    1
O23
A    2
C21
A    3
N3
A    4
C20
A    5
C19
A    6
O8
A    7
C18
A    8
C17
A    9
C16
A   10
C15
A   11
C14
A   12
C13
A   13
C
A   14
N
A   15
C1
A   16
C2
A   17
C3
A   18
C4
A   19
C5
A   20
N1
A   21
C7
A   22
O7
A   23
N2
A   24
C8
A   25
C12
A   26
O6
A   27
O5
A   28
C9
A   29
C10
A   30
C11
A   31
O4
A   32
O3
A   33
C6
A   34
O2
A   35
O1
A   36
O
A   37
C22
A   38
C23
A   39
O9
A   40
C24
A   41
C25
A   42
O10
M  END
