4NGQ_J37_A_820
     RDKit          3D

 64 64  0  0  0  0  0  0  0  0999 V2000
  -23.7000  -15.5120  -50.6330 Br  0  0  0  0  0  0  0  0  0  0  0  0
  -23.7080  -15.4870  -48.7010 C   0  0  0  0  0  0  0  0  0  0  0  0
  -23.9250  -16.6000  -47.8820 C   0  0  0  0  0  0  0  0  0  0  0  0
  -23.8630  -16.5130  -46.4740 C   0  0  0  0  0  0  0  0  0  0  0  0
  -23.4530  -14.3060  -48.0600 C   0  0  0  0  0  0  0  0  0  0  0  0
  -23.3890  -14.1910  -46.6810 C   0  0  0  0  0  0  0  0  0  0  0  0
  -23.5870  -15.2880  -45.8430 C   0  0  0  0  0  0  0  0  0  0  0  0
  -23.5010  -15.0790  -44.3320 C   0  0  0  0  0  0  0  0  0  0  0  0
  -23.8260  -16.3250  -43.6220 N   0  0  0  0  0  0  0  0  0  0  0  0
  -22.6670  -17.2040  -43.3870 C   0  0  0  0  0  0  0  0  0  0  0  0
  -22.9340  -18.5650  -42.6560 C   0  0  0  0  0  0  0  0  0  0  0  0
  -22.1540  -19.6930  -43.3460 C   0  0  0  0  0  0  0  0  0  0  0  0
  -20.6800  -19.5400  -43.1880 C   0  0  0  0  0  0  0  0  0  0  0  0
  -19.7630  -20.1250  -44.2730 C   0  0  0  0  0  0  0  0  0  0  0  0
  -18.4850  -19.7960  -43.6830 N   0  0  0  0  0  0  0  0  0  0  0  0
  -17.8550  -20.6210  -42.8350 C   0  0  0  0  0  0  0  0  0  0  0  0
  -18.3640  -21.6540  -42.3990 O   0  0  0  0  0  0  0  0  0  0  0  0
  -16.6690  -20.2260  -42.4330 N   0  0  0  0  0  0  0  0  0  0  0  0
  -16.0400  -20.6990  -41.2530 C   0  0  0  0  0  0  0  0  0  0  0  0
  -17.0130  -20.4940  -40.1730 C   0  0  0  0  0  0  0  0  0  0  0  0
  -17.8900  -19.5860  -40.1960 O   0  0  0  0  0  0  0  0  0  0  0  0
  -16.8830  -21.3590  -39.1970 O   0  0  0  0  0  0  0  0  0  0  0  0
  -14.7570  -19.9510  -40.9080 C   0  0  0  0  0  0  0  0  0  0  0  0
  -14.9660  -18.4090  -40.9880 C   0  0  0  0  0  0  0  0  0  0  0  0
  -13.8820  -17.6280  -40.2610 C   0  0  0  0  0  0  0  0  0  0  0  0
  -13.7340  -16.4050  -40.4230 O   0  0  0  0  0  0  0  0  0  0  0  0
  -13.0580  -18.2450  -39.4350 O   0  0  0  0  0  0  0  0  0  0  0  0
  -20.0370  -19.4440  -45.5900 C   0  0  0  0  0  0  0  0  0  0  0  0
  -19.5680  -18.2380  -45.7870 O   0  0  0  0  0  0  0  0  0  0  0  0
  -20.7800  -19.9030  -46.4280 O   0  0  0  0  0  0  0  0  0  0  0  0
  -25.1090  -16.5460  -43.2810 C   0  0  0  0  0  0  0  0  0  0  0  0
  -25.9910  -16.1540  -44.0190 O   0  0  0  0  0  0  0  0  0  0  0  0
  -25.5030  -17.2420  -41.9790 C   0  0  0  0  0  0  0  0  0  0  0  0
  -25.8450  -16.3380  -40.9210 C   0  0  0  0  0  0  0  0  0  0  0  0
  -24.1503  -17.5706  -48.3480 H   0  0  0  0  0  0  0  0  0  0  0  0
  -24.0324  -17.4132  -45.8649 H   0  0  0  0  0  0  0  0  0  0  0  0
  -23.2910  -13.4042  -48.6687 H   0  0  0  0  0  0  0  0  0  0  0  0
  -23.1763  -13.2082  -46.2351 H   0  0  0  0  0  0  0  0  0  0  0  0
  -22.4801  -14.7667  -44.0670 H   0  0  0  0  0  0  0  0  0  0  0  0
  -24.2226  -14.3026  -44.0379 H   0  0  0  0  0  0  0  0  0  0  0  0
  -22.2243  -17.4364  -44.3668 H   0  0  0  0  0  0  0  0  0  0  0  0
  -22.0174  -16.6384  -42.7028 H   0  0  0  0  0  0  0  0  0  0  0  0
  -22.6092  -18.4856  -41.6081 H   0  0  0  0  0  0  0  0  0  0  0  0
  -24.0095  -18.7921  -42.6968 H   0  0  0  0  0  0  0  0  0  0  0  0
  -22.4590  -20.6542  -42.9066 H   0  0  0  0  0  0  0  0  0  0  0  0
  -22.3833  -19.6520  -44.4211 H   0  0  0  0  0  0  0  0  0  0  0  0
  -20.4694  -18.4618  -43.1312 H   0  0  0  0  0  0  0  0  0  0  0  0
  -20.4426  -20.1273  -42.2887 H   0  0  0  0  0  0  0  0  0  0  0  0
  -19.8692  -21.1926  -44.5156 H   0  0  0  0  0  0  0  0  0  0  0  0
  -18.0434  -18.8968  -43.9224 H   0  0  0  0  0  0  0  0  0  0  0  0
  -16.1671  -19.5335  -43.0070 H   0  0  0  0  0  0  0  0  0  0  0  0
  -15.7510  -21.7508  -41.3949 H   0  0  0  0  0  0  0  0  0  0  0  0
  -16.9288  -21.0543  -38.2562 H   0  0  0  0  0  0  0  0  0  0  0  0
  -14.4488  -20.2190  -39.8866 H   0  0  0  0  0  0  0  0  0  0  0  0
  -13.9813  -20.2359  -41.6340 H   0  0  0  0  0  0  0  0  0  0  0  0
  -14.9655  -18.1088  -42.0463 H   0  0  0  0  0  0  0  0  0  0  0  0
  -15.9240  -18.1791  -40.4987 H   0  0  0  0  0  0  0  0  0  0  0  0
  -13.1785  -18.1548  -38.4565 H   0  0  0  0  0  0  0  0  0  0  0  0
  -19.3439  -17.6616  -45.0139 H   0  0  0  0  0  0  0  0  0  0  0  0
  -26.3718  -17.8863  -42.1792 H   0  0  0  0  0  0  0  0  0  0  0  0
  -24.6249  -17.8124  -41.6420 H   0  0  0  0  0  0  0  0  0  0  0  0
  -25.6616  -16.8228  -39.9508 H   0  0  0  0  0  0  0  0  0  0  0  0
  -25.2279  -15.4308  -41.0000 H   0  0  0  0  0  0  0  0  0  0  0  0
  -26.9080  -16.0664  -41.0000 H   0  0  0  0  0  0  0  0  0  0  0  0
  1  2  1  0
  2  3  2  0
  2  5  1  0
  3  4  1  0
  4  7  2  0
  5  6  2  0
  6  7  1  0
  7  8  1  0
  8  9  1  0
  9 10  1  0
  9 31  1  0
 10 11  1  0
 11 12  1  0
 12 13  1  0
 13 14  1  0
 14 15  1  0
 14 28  1  0
 15 16  1  0
 16 17  2  0
 16 18  1  0
 18 19  1  0
 19 20  1  0
 19 23  1  0
 20 21  2  0
 20 22  1  0
 23 24  1  0
 24 25  1  0
 25 26  2  0
 25 27  1  0
 28 29  1  0
 28 30  2  0
 31 32  2  0
 31 33  1  0
 33 34  1  0
  3 35  1  0
  4 36  1  0
  5 37  1  0
  6 38  1  0
  8 39  1  0
  8 40  1  0
 10 41  1  0
 10 42  1  0
 11 43  1  0
 11 44  1  0
 12 45  1  0
 12 46  1  0
 13 47  1  0
 13 48  1  0
 14 49  1  0
 15 50  1  0
 18 51  1  0
 19 52  1  0
 22 53  1  0
 23 54  1  0
 23 55  1  0
 24 56  1  0
 24 57  1  0
 27 58  1  0
 29 59  1  0
 33 60  1  0
 33 61  1  0
 34 62  1  0
 34 63  1  0
 34 64  1  0
A    1
BR
A    2
C54
A    3
C53
A    4
C52
A    5
C55
A    6
C56
A    7
C51
A    8
C50
A    9
N2
A   10
C11
A   11
C10
A   12
C9
A   13
C8
A   14
C1
A   15
N
A   16
C2
A   17
O6
A   18
N1
A   19
C3
A   20
C7
A   21
O5
A   22
O4
A   23
C4
A   24
C5
A   25
C6
A   26
O3
A   27
O2
A   28
C
A   29
O1
A   30
O
A   31
C12
A   32
O21
A   33
C13
A   34
C14
M  END
