4NGS_J34_A_815
     RDKit          3D

 71 71  0  0  0  0  0  0  0  0999 V2000
  -24.1750  -18.4860  -36.0780 O   0  0  0  0  0  0  0  0  0  0  0  0
  -24.8100  -17.4890  -36.4230 C   0  0  0  0  0  0  0  0  0  0  0  0
  -25.8130  -17.5360  -37.3480 N   0  0  0  0  0  0  0  0  0  0  0  0
  -26.2890  -18.7620  -37.9830 C   0  0  0  0  0  0  0  0  0  0  0  0
  -27.8090  -18.9050  -37.8870 C   0  0  0  0  0  0  0  0  0  0  0  0
  -28.3000  -19.3610  -36.5170 C   0  0  0  0  0  0  0  0  0  0  0  0
  -29.8420  -19.2570  -36.5150 C   0  0  0  0  0  0  0  0  0  0  0  0
  -30.6940  -19.9410  -35.4000 C   0  0  0  0  0  0  0  0  0  0  0  0
  -32.0680  -19.6790  -35.7570 N   0  0  0  0  0  0  0  0  0  0  0  0
  -32.7970  -20.4700  -36.5570 C   0  0  0  0  0  0  0  0  0  0  0  0
  -32.3170  -21.4820  -37.0460 O   0  0  0  0  0  0  0  0  0  0  0  0
  -34.0680  -20.1460  -36.8200 N   0  0  0  0  0  0  0  0  0  0  0  0
  -34.6540  -20.6790  -38.0450 C   0  0  0  0  0  0  0  0  0  0  0  0
  -33.6880  -20.4610  -39.1980 C   0  0  0  0  0  0  0  0  0  0  0  0
  -33.8460  -21.3030  -40.2110 O   0  0  0  0  0  0  0  0  0  0  0  0
  -32.8000  -19.6120  -39.2540 O   0  0  0  0  0  0  0  0  0  0  0  0
  -35.9850  -19.9690  -38.4110 C   0  0  0  0  0  0  0  0  0  0  0  0
  -35.7310  -18.4430  -38.5370 C   0  0  0  0  0  0  0  0  0  0  0  0
  -36.8730  -17.7170  -39.1980 C   0  0  0  0  0  0  0  0  0  0  0  0
  -37.7140  -18.2470  -39.9580 O   0  0  0  0  0  0  0  0  0  0  0  0
  -36.9810  -16.4230  -39.0040 O   0  0  0  0  0  0  0  0  0  0  0  0
  -30.5100  -19.3580  -34.0160 C   0  0  0  0  0  0  0  0  0  0  0  0
  -30.0100  -20.0140  -33.0820 O   0  0  0  0  0  0  0  0  0  0  0  0
  -31.0630  -18.2070  -33.7730 O   0  0  0  0  0  0  0  0  0  0  0  0
  -24.5120  -16.2790  -35.9120 N   0  0  0  0  0  0  0  0  0  0  0  0
  -23.7890  -15.9890  -34.7880 C   0  0  0  0  0  0  0  0  0  0  0  0
  -23.9490  -14.7260  -34.1940 C   0  0  0  0  0  0  0  0  0  0  0  0
  -23.2420  -14.3800  -33.0450 C   0  0  0  0  0  0  0  0  0  0  0  0
  -22.3410  -15.2980  -32.5040 C   0  0  0  0  0  0  0  0  0  0  0  0
  -22.1540  -16.5600  -33.0980 C   0  0  0  0  0  0  0  0  0  0  0  0
  -22.8750  -16.9100  -34.2380 C   0  0  0  0  0  0  0  0  0  0  0  0
  -24.8390  -13.8220  -34.7070 O   0  0  0  0  0  0  0  0  0  0  0  0
  -24.4770  -12.8550  -35.6900 C   0  0  0  0  0  0  0  0  0  0  0  0
  -25.7420  -12.1900  -36.2300 C   0  0  0  0  0  0  0  0  0  0  0  0
  -25.4880  -11.4450  -37.4480 N   0  0  0  0  0  0  0  0  0  0  0  0
  -25.0110  -11.9350  -38.6110 C   0  0  0  0  0  0  0  0  0  0  0  0
  -25.4040  -12.9770  -39.2030 O   0  0  0  0  0  0  0  0  0  0  0  0
  -23.9270  -11.0390  -39.1600 C   0  0  0  0  0  0  0  0  0  0  0  0
  -26.2633  -16.6491  -37.6154 H   0  0  0  0  0  0  0  0  0  0  0  0
  -26.0001  -18.7474  -39.0443 H   0  0  0  0  0  0  0  0  0  0  0  0
  -25.8340  -19.6149  -37.4581 H   0  0  0  0  0  0  0  0  0  0  0  0
  -28.2638  -17.9288  -38.1109 H   0  0  0  0  0  0  0  0  0  0  0  0
  -28.1034  -19.6824  -38.6074 H   0  0  0  0  0  0  0  0  0  0  0  0
  -27.9940  -20.4020  -36.3362 H   0  0  0  0  0  0  0  0  0  0  0  0
  -27.8693  -18.7327  -35.7234 H   0  0  0  0  0  0  0  0  0  0  0  0
  -30.0827  -18.1843  -36.4783 H   0  0  0  0  0  0  0  0  0  0  0  0
  -30.1231  -19.8235  -37.4150 H   0  0  0  0  0  0  0  0  0  0  0  0
  -30.3948  -20.9984  -35.3507 H   0  0  0  0  0  0  0  0  0  0  0  0
  -32.5150  -18.8337  -35.3741 H   0  0  0  0  0  0  0  0  0  0  0  0
  -34.6107  -19.5448  -36.1836 H   0  0  0  0  0  0  0  0  0  0  0  0
  -34.8528  -21.7473  -37.8740 H   0  0  0  0  0  0  0  0  0  0  0  0
  -32.4144  -19.2433  -38.4201 H   0  0  0  0  0  0  0  0  0  0  0  0
  -36.3595  -20.3600  -39.3685 H   0  0  0  0  0  0  0  0  0  0  0  0
  -36.7319  -20.1559  -37.6254 H   0  0  0  0  0  0  0  0  0  0  0  0
  -35.5848  -18.0261  -37.5296 H   0  0  0  0  0  0  0  0  0  0  0  0
  -34.8400  -18.3051  -39.1672 H   0  0  0  0  0  0  0  0  0  0  0  0
  -37.0112  -16.0614  -38.0829 H   0  0  0  0  0  0  0  0  0  0  0  0
  -30.2009  -19.7635  -32.1434 H   0  0  0  0  0  0  0  0  0  0  0  0
  -24.8749  -15.4688  -36.4343 H   0  0  0  0  0  0  0  0  0  0  0  0
  -23.3915  -13.3985  -32.5714 H   0  0  0  0  0  0  0  0  0  0  0  0
  -21.7700  -15.0320  -31.6023 H   0  0  0  0  0  0  0  0  0  0  0  0
  -21.4374  -17.2714  -32.6617 H   0  0  0  0  0  0  0  0  0  0  0  0
  -22.7321  -17.8960  -34.7043 H   0  0  0  0  0  0  0  0  0  0  0  0
  -23.8266  -12.0935  -35.2350 H   0  0  0  0  0  0  0  0  0  0  0  0
  -23.9386  -13.3480  -36.5128 H   0  0  0  0  0  0  0  0  0  0  0  0
  -26.4903  -12.9685  -36.4397 H   0  0  0  0  0  0  0  0  0  0  0  0
  -26.1047  -11.4830  -35.4693 H   0  0  0  0  0  0  0  0  0  0  0  0
  -25.6933  -10.4360  -37.4225 H   0  0  0  0  0  0  0  0  0  0  0  0
  -23.3730  -10.5811  -38.3272 H   0  0  0  0  0  0  0  0  0  0  0  0
  -23.2369  -11.6338  -39.7764 H   0  0  0  0  0  0  0  0  0  0  0  0
  -24.3813  -10.2493  -39.7764 H   0  0  0  0  0  0  0  0  0  0  0  0
  1  2  2  0
  2  3  1  0
  2 25  1  0
  3  4  1  0
  4  5  1  0
  5  6  1  0
  6  7  1  0
  7  8  1  0
  8  9  1  0
  8 22  1  0
  9 10  1  0
 10 11  2  0
 10 12  1  0
 12 13  1  0
 13 14  1  0
 13 17  1  0
 14 15  2  0
 14 16  1  0
 17 18  1  0
 18 19  1  0
 19 20  2  0
 19 21  1  0
 22 23  1  0
 22 24  2  0
 25 26  1  0
 26 27  2  0
 26 31  1  0
 27 28  1  0
 27 32  1  0
 28 29  2  0
 29 30  1  0
 30 31  2  0
 32 33  1  0
 33 34  1  0
 34 35  1  0
 35 36  1  0
 36 37  2  0
 36 38  1  0
  3 39  1  0
  4 40  1  0
  4 41  1  0
  5 42  1  0
  5 43  1  0
  6 44  1  0
  6 45  1  0
  7 46  1  0
  7 47  1  0
  8 48  1  0
  9 49  1  0
 12 50  1  0
 13 51  1  0
 16 52  1  0
 17 53  1  0
 17 54  1  0
 18 55  1  0
 18 56  1  0
 21 57  1  0
 23 58  1  0
 25 59  1  0
 28 60  1  0
 29 61  1  0
 30 62  1  0
 31 63  1  0
 33 64  1  0
 33 65  1  0
 34 66  1  0
 34 67  1  0
 35 68  1  0
 38 69  1  0
 38 70  1  0
 38 71  1  0
A    1
O23
A    2
C12
A    3
N2
A    4
C11
A    5
C10
A    6
C9
A    7
C8
A    8
C1
A    9
N
A   10
C2
A   11
O6
A   12
N1
A   13
C3
A   14
C7
A   15
O5
A   16
O4
A   17
C4
A   18
C5
A   19
C6
A   20
O3
A   21
O2
A   22
C
A   23
O1
A   24
O
A   25
N3
A   26
C13
A   27
C18
A   28
C17
A   29
C16
A   30
C15
A   31
C14
A   32
O7
A   33
C19
A   34
C20
A   35
N4
A   36
C21
A   37
O22
A   38
C22
M  END
