4NIE_NBH_A_601
     RDKit          3D

 65 67  0  0  0  0  0  0  0  0999 V2000
   20.9890   -8.1840   -6.4500 C   0  0  0  0  0  0  0  0  0  0  0  0
   21.4630   -8.0560   -5.0220 C   0  0  0  0  0  0  0  0  0  0  0  0
   22.4980   -6.8750   -4.6780 C   0  0  0  0  0  0  0  0  0  0  0  0
   21.9900   -5.5130   -4.6290 N   0  0  0  0  0  0  0  0  0  0  0  0
   21.4160   -5.1740   -3.3090 C   0  0  0  0  0  0  0  0  0  0  0  0
   20.3560   -4.1320   -3.2530 C   0  0  0  0  0  0  0  0  0  0  0  0
   20.3380   -3.2150   -2.1710 C   0  0  0  0  0  0  0  0  0  0  0  0
   19.3350   -2.2140   -2.0960 C   0  0  0  0  0  0  0  0  0  0  0  0
   18.3730   -2.1240   -3.0660 C   0  0  0  0  0  0  0  0  0  0  0  0
   18.3820   -3.0390   -4.1530 C   0  0  0  0  0  0  0  0  0  0  0  0
   19.3880   -4.0420   -4.2350 C   0  0  0  0  0  0  0  0  0  0  0  0
   22.9540   -4.4950   -5.1530 C   0  0  0  0  0  0  0  0  0  0  0  0
   23.2610   -4.5620   -6.6560 C   0  0  0  0  0  0  0  0  0  0  0  0
   22.2880   -4.2650   -7.6030 C   0  0  0  0  0  0  0  0  0  0  0  0
   22.5810   -4.3440   -8.9750 C   0  0  0  0  0  0  0  0  0  0  0  0
   23.8600   -4.7330   -9.4070 C   0  0  0  0  0  0  0  0  0  0  0  0
   24.2720   -4.8510  -10.7650 N   0  0  0  0  0  0  0  0  0  0  0  0
   23.4110   -4.8870  -11.9140 C   0  0  0  0  0  0  0  0  0  0  0  0
   22.2160   -4.8380  -11.8330 O   0  0  0  0  0  0  0  0  0  0  0  0
   24.0380   -5.0650  -13.2770 C   0  0  0  0  0  0  0  0  0  0  0  0
   23.7770   -6.4890  -13.7590 C   0  0  0  0  0  0  0  0  0  0  0  0
   24.4050   -7.5510  -13.0690 C   0  0  0  0  0  0  0  0  0  0  0  0
   24.1660   -8.8940  -13.4560 C   0  0  0  0  0  0  0  0  0  0  0  0
   23.2920   -9.1730  -14.5350 C   0  0  0  0  0  0  0  0  0  0  0  0
   22.6410   -8.1110  -15.2110 C   0  0  0  0  0  0  0  0  0  0  0  0
   22.8690   -6.7650  -14.8280 C   0  0  0  0  0  0  0  0  0  0  0  0
   22.9820  -10.8400  -15.0040 S   0  0  0  0  0  0  0  0  0  0  0  0
   22.9390  -10.9650  -16.4350 O   0  0  0  0  0  0  0  0  0  0  0  0
   24.0300  -11.7580  -14.5970 O   0  0  0  0  0  0  0  0  0  0  0  0
   21.3770  -11.3070  -14.2570 C   0  0  0  0  0  0  0  0  0  0  0  0
   21.1740  -10.9830  -12.7430 C   0  0  0  0  0  0  0  0  0  0  0  0
   24.8340   -5.0400   -8.4310 C   0  0  0  0  0  0  0  0  0  0  0  0
   24.5470   -4.9640   -7.0790 C   0  0  0  0  0  0  0  0  0  0  0  0
   19.9271   -8.4708   -6.4595 H   0  0  0  0  0  0  0  0  0  0  0  0
   21.1132   -7.2202   -6.9653 H   0  0  0  0  0  0  0  0  0  0  0  0
   21.5815   -8.9543   -6.9653 H   0  0  0  0  0  0  0  0  0  0  0  0
   21.9472   -9.0057   -4.7508 H   0  0  0  0  0  0  0  0  0  0  0  0
   20.5569   -7.8048   -4.4512 H   0  0  0  0  0  0  0  0  0  0  0  0
   23.2895   -6.9014   -5.4414 H   0  0  0  0  0  0  0  0  0  0  0  0
   22.8204   -7.0846   -3.6474 H   0  0  0  0  0  0  0  0  0  0  0  0
   22.2441   -4.8322   -2.6707 H   0  0  0  0  0  0  0  0  0  0  0  0
   20.9110   -6.0960   -2.9851 H   0  0  0  0  0  0  0  0  0  0  0  0
   21.1056   -3.2802   -1.3858 H   0  0  0  0  0  0  0  0  0  0  0  0
   19.3304   -1.5064   -1.2538 H   0  0  0  0  0  0  0  0  0  0  0  0
   17.5968   -1.3470   -3.0041 H   0  0  0  0  0  0  0  0  0  0  0  0
   17.6094   -2.9718   -4.9331 H   0  0  0  0  0  0  0  0  0  0  0  0
   19.3951   -4.7459   -5.0803 H   0  0  0  0  0  0  0  0  0  0  0  0
   22.5391   -3.4989   -4.9394 H   0  0  0  0  0  0  0  0  0  0  0  0
   23.9082   -4.7062   -4.6481 H   0  0  0  0  0  0  0  0  0  0  0  0
   21.2812   -3.9659   -7.2761 H   0  0  0  0  0  0  0  0  0  0  0  0
   21.8046   -4.0999   -9.7150 H   0  0  0  0  0  0  0  0  0  0  0  0
   25.2849   -4.9169  -10.9401 H   0  0  0  0  0  0  0  0  0  0  0  0
   23.5941   -4.3487  -13.9840 H   0  0  0  0  0  0  0  0  0  0  0  0
   25.1214   -4.8852  -13.2152 H   0  0  0  0  0  0  0  0  0  0  0  0
   25.0814   -7.3348  -12.2289 H   0  0  0  0  0  0  0  0  0  0  0  0
   24.6587   -9.7180  -12.9190 H   0  0  0  0  0  0  0  0  0  0  0  0
   21.9529   -8.3329  -16.0400 H   0  0  0  0  0  0  0  0  0  0  0  0
   22.3536   -5.9434  -15.3470 H   0  0  0  0  0  0  0  0  0  0  0  0
   21.2573  -12.3933  -14.3820 H   0  0  0  0  0  0  0  0  0  0  0  0
   20.6304  -10.6925  -14.7813 H   0  0  0  0  0  0  0  0  0  0  0  0
   21.6602  -11.7590  -12.1336 H   0  0  0  0  0  0  0  0  0  0  0  0
   21.6205  -10.0040  -12.5145 H   0  0  0  0  0  0  0  0  0  0  0  0
   20.0983  -10.9577  -12.5145 H   0  0  0  0  0  0  0  0  0  0  0  0
   25.8408   -5.3456   -8.7519 H   0  0  0  0  0  0  0  0  0  0  0  0
   25.3183   -5.2160   -6.3363 H   0  0  0  0  0  0  0  0  0  0  0  0
 11 10  2  0
 11  6  1  0
  5  6  1  0
  5  4  1  0
 10  9  1  0
  3  4  1  0
  3  2  1  0
  6  7  2  0
 12  4  1  0
 12 13  1  0
 33 13  1  0
 33 32  2  0
  2  1  1  0
 13 14  2  0
  9  8  2  0
  7  8  1  0
 32 16  1  0
 14 15  1  0
 16 15  2  0
 16 17  1  0
 17 18  1  0
 18 19  2  0
 18 20  1  0
 22 23  2  0
 22 21  1  0
 20 21  1  0
 23 24  1  0
 21 26  2  0
 28 27  2  0
 24 27  1  0
 24 25  2  0
 31 30  1  0
 26 25  1  0
 27 30  1  0
 27 29  2  0
  1 34  1  0
  1 35  1  0
  1 36  1  0
  2 37  1  0
  2 38  1  0
  3 39  1  0
  3 40  1  0
  5 41  1  0
  5 42  1  0
  7 43  1  0
  8 44  1  0
  9 45  1  0
 10 46  1  0
 11 47  1  0
 12 48  1  0
 12 49  1  0
 14 50  1  0
 15 51  1  0
 17 52  1  0
 20 53  1  0
 20 54  1  0
 22 55  1  0
 23 56  1  0
 25 57  1  0
 26 58  1  0
 30 59  1  0
 30 60  1  0
 31 61  1  0
 31 62  1  0
 31 63  1  0
 32 64  1  0
 33 65  1  0
A    1
C01
A    2
C02
A    3
C03
A    4
N04
A    5
C05
A    6
C06
A    7
C07
A    8
C08
A    9
C09
A   10
C10
A   11
C11
A   12
C12
A   13
C13
A   14
C14
A   15
C15
A   16
C16
A   17
N17
A   18
C18
A   19
O19
A   20
C20
A   21
C21
A   22
C22
A   23
C23
A   24
C24
A   25
C25
A   26
C26
A   27
S27
A   28
O28
A   29
O29
A   30
C30
A   31
C31
A   32
C32
A   33
C33
M  END
