4NJD_NJD_A_600
     RDKit          3D

 50 54  0  0  0  0  0  0  0  0999 V2000
  -20.9560   -3.0750   15.0930 C   0  0  0  0  0  0  0  0  0  0  0  0
  -21.9390   -3.3670   15.9770 C   0  0  0  0  0  0  0  0  0  0  0  0
  -22.4120   -4.5300   16.4260 C   0  0  0  0  0  0  0  0  0  0  0  0
  -23.4140   -4.2960   17.2820 N   0  0  0  0  0  0  0  0  0  0  0  0
  -23.5340   -2.9370   17.3850 N   0  0  0  0  0  0  0  0  0  0  0  0
  -22.6400   -2.3860   16.6020 C   0  0  0  0  0  0  0  0  0  0  0  0
  -22.3990   -1.1060   16.3660 C   0  0  0  0  0  0  0  0  0  0  0  0
  -21.4130   -0.7230   15.4700 C   0  0  0  0  0  0  0  0  0  0  0  0
  -20.6720   -1.7020   14.7990 C   0  0  0  0  0  0  0  0  0  0  0  0
  -19.7480   -1.2300   13.9060 N   0  0  0  0  0  0  0  0  0  0  0  0
  -19.0310   -1.9920   13.0680 C   0  0  0  0  0  0  0  0  0  0  0  0
  -19.1600   -3.3050   12.9670 N   0  0  0  0  0  0  0  0  0  0  0  0
  -18.1100   -1.3900   12.3080 N   0  0  0  0  0  0  0  0  0  0  0  0
  -17.3430   -2.0610   11.4510 C   0  0  0  0  0  0  0  0  0  0  0  0
  -16.4190   -1.3800   10.7120 O   0  0  0  0  0  0  0  0  0  0  0  0
  -16.8420   -0.0080   10.5040 C   0  0  0  0  0  0  0  0  0  0  0  0
  -17.4680   -3.4010   11.3580 N   0  0  0  0  0  0  0  0  0  0  0  0
  -18.3550   -4.0240   12.1400 C   0  0  0  0  0  0  0  0  0  0  0  0
  -18.5530   -5.3510   12.0820 N   0  0  0  0  0  0  0  0  0  0  0  0
  -19.9860   -5.7010   11.8650 C   0  0  0  0  0  0  0  0  0  0  0  0
  -20.1550   -7.0920   12.1470 C   0  0  0  0  0  0  0  0  0  0  0  0
  -21.3010   -7.4120   13.0510 C   0  0  0  0  0  0  0  0  0  0  0  0
  -21.3330   -8.6540   13.5180 C   0  0  0  0  0  0  0  0  0  0  0  0
  -20.4690   -9.6670   13.3210 C   0  0  0  0  0  0  0  0  0  0  0  0
  -20.6950  -10.8990   13.9550 C   0  0  0  0  0  0  0  0  0  0  0  0
  -21.8410  -10.9730   14.7800 C   0  0  0  0  0  0  0  0  0  0  0  0
  -22.6820   -9.8530   14.9300 C   0  0  0  0  0  0  0  0  0  0  0  0
  -22.4150   -8.7070   14.2990 C   0  0  0  0  0  0  0  0  0  0  0  0
  -23.0350   -7.4880   14.2620 N   0  0  0  0  0  0  0  0  0  0  0  0
  -22.3280   -6.6830   13.4650 C   0  0  0  0  0  0  0  0  0  0  0  0
  -20.3841   -3.8798   14.6079 H   0  0  0  0  0  0  0  0  0  0  0  0
  -22.0382   -5.5238   16.1386 H   0  0  0  0  0  0  0  0  0  0  0  0
  -24.2107   -2.4338   17.9764 H   0  0  0  0  0  0  0  0  0  0  0  0
  -22.9882   -0.3370   16.8871 H   0  0  0  0  0  0  0  0  0  0  0  0
  -21.2145    0.3435   15.2877 H   0  0  0  0  0  0  0  0  0  0  0  0
  -19.5919   -0.2124   13.8757 H   0  0  0  0  0  0  0  0  0  0  0  0
  -16.9927    0.4809   11.4778 H   0  0  0  0  0  0  0  0  0  0  0  0
  -16.0687    0.5323    9.9382 H   0  0  0  0  0  0  0  0  0  0  0  0
  -17.7853    0.0031    9.9382 H   0  0  0  0  0  0  0  0  0  0  0  0
  -17.8004   -6.0478   12.1767 H   0  0  0  0  0  0  0  0  0  0  0  0
  -20.6205   -5.1052   12.5376 H   0  0  0  0  0  0  0  0  0  0  0  0
  -20.2757   -5.4867   10.8257 H   0  0  0  0  0  0  0  0  0  0  0  0
  -20.3134   -7.6179   11.1939 H   0  0  0  0  0  0  0  0  0  0  0  0
  -19.2448   -7.4146   12.6738 H   0  0  0  0  0  0  0  0  0  0  0  0
  -19.5936   -9.5308   12.6690 H   0  0  0  0  0  0  0  0  0  0  0  0
  -20.0200  -11.7567   13.8180 H   0  0  0  0  0  0  0  0  0  0  0  0
  -22.0768  -11.9093   15.3070 H   0  0  0  0  0  0  0  0  0  0  0  0
  -23.5701   -9.9234   15.5752 H   0  0  0  0  0  0  0  0  0  0  0  0
  -23.8987   -7.2347   14.7628 H   0  0  0  0  0  0  0  0  0  0  0  0
  -22.5505   -5.6371   13.2068 H   0  0  0  0  0  0  0  0  0  0  0  0
 16 15  1  0
 15 14  1  0
 17 14  2  0
 17 18  1  0
 14 13  1  0
 20 19  1  0
 20 21  1  0
 19 18  1  0
 18 12  2  0
 21 22  1  0
 13 11  2  0
 12 11  1  0
 22 30  2  0
 22 23  1  0
 11 10  1  0
 24 23  2  0
 24 25  1  0
 30 29  1  0
 23 28  1  0
 10  9  1  0
 25 26  2  0
 29 28  1  0
 28 27  2  0
 26 27  1  0
  9  1  2  0
  9  8  1  0
  1  2  1  0
  8  7  2  0
  2  3  1  0
  2  6  2  0
  7  6  1  0
  3  4  2  0
  6  5  1  0
  4  5  1  0
  1 31  1  0
  3 32  1  0
  5 33  1  0
  7 34  1  0
  8 35  1  0
 10 36  1  0
 16 37  1  0
 16 38  1  0
 16 39  1  0
 19 40  1  0
 20 41  1  0
 20 42  1  0
 21 43  1  0
 21 44  1  0
 24 45  1  0
 25 46  1  0
 26 47  1  0
 27 48  1  0
 29 49  1  0
 30 50  1  0
A    1
CAJ
A    2
CBA
A    3
CAH
A    4
NAM
A    5
NAT
A    6
CBB
A    7
CAG
A    8
CAD
A    9
CAV
A   10
NAR
A   11
CAY
A   12
NAN
A   13
NAP
A   14
CAZ
A   15
OAU
A   16
CAA
A   17
NAO
A   18
CAX
A   19
NAQ
A   20
CAK
A   21
CAL
A   22
CAW
A   23
CBD
A   24
CAF
A   25
CAC
A   26
CAB
A   27
CAE
A   28
CBC
A   29
NAS
A   30
CAI
M  END
