4NK9_2K5_A_807
     RDKit          3D

 57 60  0  0  0  0  0  0  0  0999 V2000
   89.8260    1.8940   19.4540 C   0  0  0  0  0  0  0  0  0  0  0  0
   89.5550    1.7530   18.0520 O   0  0  0  0  0  0  0  0  0  0  0  0
   90.0300    2.7040   17.1660 C   0  0  0  0  0  0  0  0  0  0  0  0
   89.3170    2.8220   15.9480 C   0  0  0  0  0  0  0  0  0  0  0  0
   91.1940    3.4760   17.4120 C   0  0  0  0  0  0  0  0  0  0  0  0
   91.6050    4.3940   16.4320 C   0  0  0  0  0  0  0  0  0  0  0  0
   92.7300    5.1980   16.5620 O   0  0  0  0  0  0  0  0  0  0  0  0
   93.2440    5.5050   17.8640 C   0  0  0  0  0  0  0  0  0  0  0  0
   90.9050    4.5350   15.2260 C   0  0  0  0  0  0  0  0  0  0  0  0
   89.7530    3.7560   14.9900 C   0  0  0  0  0  0  0  0  0  0  0  0
   89.0400    3.8830   13.6600 C   0  0  0  0  0  0  0  0  0  0  0  0
   90.0440    3.4410   12.5420 C   0  0  0  0  0  0  0  0  0  0  0  0
   89.4080    2.7440   11.4090 C   0  0  0  0  0  0  0  0  0  0  0  0
   88.6580    3.2890   10.3490 C   0  0  0  0  0  0  0  0  0  0  0  0
   89.5020    1.4050   11.2670 N   0  0  0  0  0  0  0  0  0  0  0  0
   88.7830    1.1330   10.1580 N   0  0  0  0  0  0  0  0  0  0  0  0
   88.2770    2.2220    9.5720 C   0  0  0  0  0  0  0  0  0  0  0  0
   87.4720    2.2050    8.4340 N   0  0  0  0  0  0  0  0  0  0  0  0
   86.4700    3.0900    8.0410 C   0  0  0  0  0  0  0  0  0  0  0  0
   85.4660    2.7470    7.1330 C   0  0  0  0  0  0  0  0  0  0  0  0
   84.5260    3.7330    6.8490 C   0  0  0  0  0  0  0  0  0  0  0  0
   84.5310    4.9870    7.4180 N   0  0  0  0  0  0  0  0  0  0  0  0
   86.4910    4.3490    8.6470 N   0  0  0  0  0  0  0  0  0  0  0  0
   85.5160    5.2210    8.2960 C   0  0  0  0  0  0  0  0  0  0  0  0
   85.5380    6.4350    8.8830 N   0  0  0  0  0  0  0  0  0  0  0  0
   86.4790    6.8590    9.9200 C   0  0  0  0  0  0  0  0  0  0  0  0
   86.1600    6.3060   11.2630 C   0  0  0  0  0  0  0  0  0  0  0  0
   85.4680    5.2310   11.6620 C   0  0  0  0  0  0  0  0  0  0  0  0
   86.6450    6.9730   12.3600 O   0  0  0  0  0  0  0  0  0  0  0  0
   86.2140    6.2550   13.4960 N   0  0  0  0  0  0  0  0  0  0  0  0
   85.5290    5.2460   13.0590 C   0  0  0  0  0  0  0  0  0  0  0  0
   84.9090    4.2830   14.0240 C   0  0  0  0  0  0  0  0  0  0  0  0
   88.9963    1.4623   20.0331 H   0  0  0  0  0  0  0  0  0  0  0  0
   90.7593    1.3671   19.7019 H   0  0  0  0  0  0  0  0  0  0  0  0
   89.9302    2.9606   19.7019 H   0  0  0  0  0  0  0  0  0  0  0  0
   88.4357    2.1930   15.7538 H   0  0  0  0  0  0  0  0  0  0  0  0
   91.7609    3.3586   18.3473 H   0  0  0  0  0  0  0  0  0  0  0  0
   92.5666    5.1004   18.6304 H   0  0  0  0  0  0  0  0  0  0  0  0
   94.2405    5.0541   17.9805 H   0  0  0  0  0  0  0  0  0  0  0  0
   93.3194    6.5962   17.9805 H   0  0  0  0  0  0  0  0  0  0  0  0
   91.2527    5.2505   14.4663 H   0  0  0  0  0  0  0  0  0  0  0  0
   88.7325    4.9265   13.4971 H   0  0  0  0  0  0  0  0  0  0  0  0
   88.1390    3.2523   13.6423 H   0  0  0  0  0  0  0  0  0  0  0  0
   90.7870    2.7655   12.9911 H   0  0  0  0  0  0  0  0  0  0  0  0
   90.4967    4.3588   12.1386 H   0  0  0  0  0  0  0  0  0  0  0  0
   88.4252    4.3504   10.1783 H   0  0  0  0  0  0  0  0  0  0  0  0
   90.0084    0.7406   11.8694 H   0  0  0  0  0  0  0  0  0  0  0  0
   87.6434    1.4217    7.7875 H   0  0  0  0  0  0  0  0  0  0  0  0
   85.4207    1.7514    6.6675 H   0  0  0  0  0  0  0  0  0  0  0  0
   83.7310    3.4965    6.1264 H   0  0  0  0  0  0  0  0  0  0  0  0
   84.8337    7.1208    8.5757 H   0  0  0  0  0  0  0  0  0  0  0  0
   87.4874    6.5245    9.6348 H   0  0  0  0  0  0  0  0  0  0  0  0
   86.4121    7.9545    9.9936 H   0  0  0  0  0  0  0  0  0  0  0  0
   84.9591    4.4923   11.0253 H   0  0  0  0  0  0  0  0  0  0  0  0
   85.1189    4.6091   15.0534 H   0  0  0  0  0  0  0  0  0  0  0  0
   83.8212    4.2525   13.8637 H   0  0  0  0  0  0  0  0  0  0  0  0
   85.3315    3.2801   13.8637 H   0  0  0  0  0  0  0  0  0  0  0  0
 21 20  2  0
 21 22  1  0
 20 19  1  0
 22 24  2  0
 19 18  1  0
 19 23  2  0
 24 23  1  0
 24 25  1  0
 18 17  1  0
 25 26  1  0
 17 16  2  0
 17 14  1  0
 26 27  1  0
 16 15  1  0
 14 13  2  0
 27 28  2  0
 27 29  1  0
 15 13  1  0
 13 12  1  0
 28 31  1  0
 29 30  1  0
 12 11  1  0
 31 30  2  0
 31 32  1  0
 11 10  1  0
 10  9  2  0
 10  4  1  0
  9  6  1  0
  4  3  2  0
  6  7  1  0
  6  5  2  0
  7  8  1  0
  3  5  1  0
  3  2  1  0
  2  1  1  0
  1 33  1  0
  1 34  1  0
  1 35  1  0
  4 36  1  0
  5 37  1  0
  8 38  1  0
  8 39  1  0
  8 40  1  0
  9 41  1  0
 11 42  1  0
 11 43  1  0
 12 44  1  0
 12 45  1  0
 14 46  1  0
 15 47  1  0
 18 48  1  0
 20 49  1  0
 21 50  1  0
 25 51  1  0
 26 52  1  0
 26 53  1  0
 28 54  1  0
 32 55  1  0
 32 56  1  0
 32 57  1  0
A    1
C21
A    2
O2
A    3
C16
A    4
C15
A    5
C17
A    6
C18
A    7
O1
A    8
C20
A    9
C19
A   10
C14
A   11
C13
A   12
C12
A   13
C11
A   14
C10
A   15
N5
A   16
N6
A   17
C9
A   18
N4
A   19
C8
A   20
C7
A   21
C6
A   22
N2
A   23
N3
A   24
C5
A   25
N1
A   26
C4
A   27
C3
A   28
C2
A   29
O
A   30
N
A   31
C1
A   32
C
M  END
