4NKS_2M2_A_801
     RDKit          3D

 49 52  0  0  0  0  0  0  0  0999 V2000
   83.3670    2.1930   14.2340 C   0  0  0  0  0  0  0  0  0  0  0  0
   84.3150    3.0600   13.4110 C   0  0  0  0  0  0  0  0  0  0  0  0
   84.2450    3.4160   12.0260 C   0  0  0  0  0  0  0  0  0  0  0  0
   85.3620    4.1810   11.7910 C   0  0  0  0  0  0  0  0  0  0  0  0
   85.7890    4.8430   10.5190 C   0  0  0  0  0  0  0  0  0  0  0  0
   84.7710    4.5020    9.5200 N   0  0  0  0  0  0  0  0  0  0  0  0
   84.8850    3.3780    8.7350 C   0  0  0  0  0  0  0  0  0  0  0  0
   84.1100    3.2850    7.6490 N   0  0  0  0  0  0  0  0  0  0  0  0
   84.1710    2.2090    6.8420 C   0  0  0  0  0  0  0  0  0  0  0  0
   85.0480    1.1780    7.1490 C   0  0  0  0  0  0  0  0  0  0  0  0
   85.8360    1.3090    8.3060 C   0  0  0  0  0  0  0  0  0  0  0  0
   86.7430    0.3120    8.5820 N   0  0  0  0  0  0  0  0  0  0  0  0
   87.4930    0.2420    9.7390 C   0  0  0  0  0  0  0  0  0  0  0  0
   87.6100    1.1480   10.7860 C   0  0  0  0  0  0  0  0  0  0  0  0
   88.4460    0.5880   11.7190 C   0  0  0  0  0  0  0  0  0  0  0  0
   88.8710    1.1000   13.0740 C   0  0  0  0  0  0  0  0  0  0  0  0
   89.6680    2.3710   12.9370 C   0  0  0  0  0  0  0  0  0  0  0  0
   90.3810    2.7220   14.2170 C   0  0  0  0  0  0  0  0  0  0  0  0
   91.7360    3.0690   14.1620 C   0  0  0  0  0  0  0  0  0  0  0  0
   92.4130    3.4240   15.3380 C   0  0  0  0  0  0  0  0  0  0  0  0
   91.7100    3.4390   16.5540 C   0  0  0  0  0  0  0  0  0  0  0  0
   90.3580    3.1090   16.5930 C   0  0  0  0  0  0  0  0  0  0  0  0
   89.6940    2.7510   15.4220 C   0  0  0  0  0  0  0  0  0  0  0  0
   88.8180   -0.6010   11.2410 N   0  0  0  0  0  0  0  0  0  0  0  0
   88.2030   -0.7990    9.9840 N   0  0  0  0  0  0  0  0  0  0  0  0
   85.7460    2.4040    9.0660 N   0  0  0  0  0  0  0  0  0  0  0  0
   86.0050    4.2550   12.9690 O   0  0  0  0  0  0  0  0  0  0  0  0
   85.4050    3.6170   13.8440 N   0  0  0  0  0  0  0  0  0  0  0  0
   83.5520    2.3622   15.3051 H   0  0  0  0  0  0  0  0  0  0  0  0
   82.3266    2.4586   13.9952 H   0  0  0  0  0  0  0  0  0  0  0  0
   83.5389    1.1331   13.9952 H   0  0  0  0  0  0  0  0  0  0  0  0
   83.4636    3.1367   11.3039 H   0  0  0  0  0  0  0  0  0  0  0  0
   86.7734    4.4662   10.2046 H   0  0  0  0  0  0  0  0  0  0  0  0
   85.8796    5.9321   10.6441 H   0  0  0  0  0  0  0  0  0  0  0  0
   83.9532    5.1172    9.4036 H   0  0  0  0  0  0  0  0  0  0  0  0
   83.5323    2.1477    5.9485 H   0  0  0  0  0  0  0  0  0  0  0  0
   85.1241    0.2873    6.5079 H   0  0  0  0  0  0  0  0  0  0  0  0
   86.8708   -0.4305    7.8797 H   0  0  0  0  0  0  0  0  0  0  0  0
   87.1228    2.1318   10.8543 H   0  0  0  0  0  0  0  0  0  0  0  0
   87.9760    1.2988   13.6819 H   0  0  0  0  0  0  0  0  0  0  0  0
   89.5000    0.3386   13.5584 H   0  0  0  0  0  0  0  0  0  0  0  0
   90.4129    2.2404   12.1382 H   0  0  0  0  0  0  0  0  0  0  0  0
   88.9719    3.1882   12.6969 H   0  0  0  0  0  0  0  0  0  0  0  0
   92.2683    3.0633   13.1994 H   0  0  0  0  0  0  0  0  0  0  0  0
   93.4806    3.6873   15.3084 H   0  0  0  0  0  0  0  0  0  0  0  0
   92.2317    3.7136   17.4826 H   0  0  0  0  0  0  0  0  0  0  0  0
   89.8140    3.1310   17.5488 H   0  0  0  0  0  0  0  0  0  0  0  0
   88.6255    2.4914   15.4526 H   0  0  0  0  0  0  0  0  0  0  0  0
   89.4495   -1.2653   11.7109 H   0  0  0  0  0  0  0  0  0  0  0  0
  9 10  1  0
  9  8  2  0
 10 11  2  0
  8  7  1  0
 11 12  1  0
 11 26  1  0
 12 13  1  0
  7 26  2  0
  7  6  1  0
  6  5  1  0
 13 25  2  0
 13 14  1  0
 25 24  1  0
  5  4  1  0
 14 15  2  0
 24 15  1  0
 15 16  1  0
  4  3  2  0
  4 27  1  0
  3  2  1  0
 17 16  1  0
 17 18  1  0
 27 28  1  0
  2 28  2  0
  2  1  1  0
 19 18  2  0
 19 20  1  0
 18 23  1  0
 20 21  2  0
 23 22  2  0
 21 22  1  0
  1 29  1  0
  1 30  1  0
  1 31  1  0
  3 32  1  0
  5 33  1  0
  5 34  1  0
  6 35  1  0
  9 36  1  0
 10 37  1  0
 12 38  1  0
 14 39  1  0
 16 40  1  0
 16 41  1  0
 17 42  1  0
 17 43  1  0
 19 44  1  0
 20 45  1  0
 21 46  1  0
 22 47  1  0
 23 48  1  0
 24 49  1  0
A    1
C1
A    2
C2
A    3
C3
A    4
C4
A    5
C5
A    6
N6
A    7
C7
A    8
N8
A    9
C9
A   10
C10
A   11
C11
A   12
N12
A   13
C13
A   14
C14
A   15
C15
A   16
C16
A   17
C17
A   18
C18
A   19
C19
A   20
C20
A   21
C21
A   22
C22
A   23
C23
A   24
N24
A   25
N26
A   26
N27
A   27
O28
A   28
N29
M  END
