4NKZ_LZZ_A_601
     RDKit          3D

 56 59  0  0  0  0  0  0  0  0999 V2000
   25.5920   -4.9530  201.3970 C   0  0  0  0  0  0  0  0  0  0  0  0
   26.8510   -4.9220  202.2530 C   0  0  0  0  0  0  0  0  0  0  0  0
   26.6800   -3.8230  203.3550 C   0  0  0  0  0  0  0  0  0  0  0  0
   26.6050   -2.4770  202.6410 C   0  0  0  0  0  0  0  0  0  0  0  0
   27.8830   -2.1660  201.7970 C   0  0  0  0  0  0  0  0  0  0  0  0
   27.7700   -0.8210  201.1240 C   0  0  0  0  0  0  0  0  0  0  0  0
   26.4780   -0.6740  200.3640 C   0  0  0  0  0  0  0  0  0  0  0  0
   27.8510    0.2960  202.1600 C   0  0  0  0  0  0  0  0  0  0  0  0
   28.1100    1.6020  201.4880 C   0  0  0  0  0  0  0  0  0  0  0  0
   29.4580    1.5460  200.8520 C   0  0  0  0  0  0  0  0  0  0  0  0
   29.9190    2.8760  200.5940 O   0  0  0  0  0  0  0  0  0  0  0  0
   29.3770    0.7400  199.5780 C   0  0  0  0  0  0  0  0  0  0  0  0
   28.9960   -0.6510  200.0960 C   0  0  0  0  0  0  0  0  0  0  0  0
   29.7140   -1.7610  199.6600 C   0  0  0  0  0  0  0  0  0  0  0  0
   29.4610   -3.1700  200.0830 C   0  0  0  0  0  0  0  0  0  0  0  0
   28.1150   -3.2640  200.7620 C   0  0  0  0  0  0  0  0  0  0  0  0
   28.0980   -4.5680  201.4860 C   0  0  0  0  0  0  0  0  0  0  0  0
   28.2140   -5.7770  200.5110 C   0  0  0  0  0  0  0  0  0  0  0  0
   27.7870   -6.8360  201.3140 C   0  0  0  0  0  0  0  0  0  0  0  0
   27.2210   -6.1690  202.7180 C   0  0  0  0  0  0  0  0  0  0  0  0
   28.1940   -6.2130  203.7240 O   0  0  0  0  0  0  0  0  0  0  0  0
   26.1280   -6.9530  203.3850 C   0  0  0  0  0  0  0  0  0  0  0  0
   25.4680   -7.7970  202.7980 O   0  0  0  0  0  0  0  0  0  0  0  0
   25.8440   -6.7290  204.8610 C   0  0  0  0  0  0  0  0  0  0  0  0
   24.7060   -4.9748  202.0486 H   0  0  0  0  0  0  0  0  0  0  0  0
   25.5581   -4.0554  200.7620 H   0  0  0  0  0  0  0  0  0  0  0  0
   25.6024   -5.8512  200.7620 H   0  0  0  0  0  0  0  0  0  0  0  0
   25.7552   -4.0001  203.9237 H   0  0  0  0  0  0  0  0  0  0  0  0
   27.5226   -3.8440  204.0618 H   0  0  0  0  0  0  0  0  0  0  0  0
   26.4809   -1.6858  203.3951 H   0  0  0  0  0  0  0  0  0  0  0  0
   25.7523   -2.5176  201.9473 H   0  0  0  0  0  0  0  0  0  0  0  0
   28.7464   -2.1352  202.4779 H   0  0  0  0  0  0  0  0  0  0  0  0
   25.6435   -0.5791  201.0744 H   0  0  0  0  0  0  0  0  0  0  0  0
   26.5250    0.2246  199.7313 H   0  0  0  0  0  0  0  0  0  0  0  0
   26.3219   -1.5602  199.7313 H   0  0  0  0  0  0  0  0  0  0  0  0
   26.8997    0.3521  202.7094 H   0  0  0  0  0  0  0  0  0  0  0  0
   28.6743    0.0808  202.8571 H   0  0  0  0  0  0  0  0  0  0  0  0
   28.0830    2.4134  202.2303 H   0  0  0  0  0  0  0  0  0  0  0  0
   27.3405    1.7935  200.7257 H   0  0  0  0  0  0  0  0  0  0  0  0
   30.1756    1.0569  201.5272 H   0  0  0  0  0  0  0  0  0  0  0  0
   30.0804    3.3417  201.4526 H   0  0  0  0  0  0  0  0  0  0  0  0
   30.3456    0.7197  199.0571 H   0  0  0  0  0  0  0  0  0  0  0  0
   28.6662    1.1467  198.8436 H   0  0  0  0  0  0  0  0  0  0  0  0
   30.5331   -1.5859  198.9469 H   0  0  0  0  0  0  0  0  0  0  0  0
   29.4711   -3.8245  199.1990 H   0  0  0  0  0  0  0  0  0  0  0  0
   30.2462   -3.4859  200.7856 H   0  0  0  0  0  0  0  0  0  0  0  0
   27.3329   -3.1643  199.9949 H   0  0  0  0  0  0  0  0  0  0  0  0
   28.9435   -4.4118  202.1721 H   0  0  0  0  0  0  0  0  0  0  0  0
   29.2514   -5.9223  200.1754 H   0  0  0  0  0  0  0  0  0  0  0  0
   27.6324   -5.6587  199.5848 H   0  0  0  0  0  0  0  0  0  0  0  0
   26.9851   -7.3950  200.8095 H   0  0  0  0  0  0  0  0  0  0  0  0
   28.6096   -7.5386  201.5130 H   0  0  0  0  0  0  0  0  0  0  0  0
   27.7534   -6.1931  204.6103 H   0  0  0  0  0  0  0  0  0  0  0  0
   26.5664   -7.2988  205.4640 H   0  0  0  0  0  0  0  0  0  0  0  0
   25.9362   -5.6579  205.0937 H   0  0  0  0  0  0  0  0  0  0  0  0
   24.8238   -7.0682  205.0937 H   0  0  0  0  0  0  0  0  0  0  0  0
 12 13  1  0
 12 10  1  0
 14 15  1  0
 14 13  2  0
 15 16  1  0
 13  6  1  0
  7  6  1  0
 18 19  1  0
 18 17  1  0
 11 10  1  0
 16 17  1  0
 16  5  1  0
 10  9  1  0
  6  5  1  0
  6  8  1  0
 19 20  1  0
  1  2  1  0
 17  2  1  0
  9  8  1  0
  5  4  1  0
  2 20  1  0
  2  3  1  0
  4  3  1  0
 20 22  1  0
 20 21  1  0
 23 22  2  0
 22 24  1  0
  1 25  1  0
  1 26  1  0
  1 27  1  0
  3 28  1  0
  3 29  1  0
  4 30  1  0
  4 31  1  0
  5 32  1  0
  7 33  1  0
  7 34  1  0
  7 35  1  0
  8 36  1  0
  8 37  1  0
  9 38  1  0
  9 39  1  0
 10 40  1  0
 11 41  1  0
 12 42  1  0
 12 43  1  0
 14 44  1  0
 15 45  1  0
 15 46  1  0
 16 47  1  0
 17 48  1  0
 18 49  1  0
 18 50  1  0
 19 51  1  0
 19 52  1  0
 21 53  1  0
 24 54  1  0
 24 55  1  0
 24 56  1  0
A    1
CAR
A    2
CAQ
A    3
CAS
A    4
CAT
A    5
CAU
A    6
CAV
A    7
CAW
A    8
CAA
A    9
CAB
A   10
CAC
A   11
OAD
A   12
CAE
A   13
CAF
A   14
CAG
A   15
CAH
A   16
CAI
A   17
CAJ
A   18
CAK
A   19
CAL
A   20
CAM
A   21
OAX
A   22
CAN
A   23
OAO
A   24
CAP
M  END
