4NNS_75D_A_201
     RDKit          3D

 43 43  0  0  0  0  0  0  0  0999 V2000
   -3.7030    5.2940  -16.2000 O   0  0  0  0  0  0  0  0  0  0  0  0
   -4.1820    6.6730  -16.5290 S   0  0  0  0  0  0  0  0  0  0  0  0
   -3.1020    7.6100  -16.1960 O   0  0  0  0  0  0  0  0  0  0  0  0
   -5.3620    6.9650  -15.6740 O   0  0  0  0  0  0  0  0  0  0  0  0
   -4.5190    6.9010  -18.2950 C   0  0  0  0  0  0  0  0  0  0  0  0
   -3.5060    6.5060  -19.2300 C   0  0  0  0  0  0  0  0  0  0  0  0
   -2.1720    5.8650  -18.8100 C   0  0  0  0  0  0  0  0  0  0  0  0
   -2.0260    4.4370  -19.2930 C   0  0  0  0  0  0  0  0  0  0  0  0
   -0.9620    6.7480  -19.0900 C   0  0  0  0  0  0  0  0  0  0  0  0
   -3.6900    6.6710  -20.5770 C   0  0  0  0  0  0  0  0  0  0  0  0
   -4.8640    7.2420  -21.0710 C   0  0  0  0  0  0  0  0  0  0  0  0
   -5.0620    7.4330  -22.5920 C   0  0  0  0  0  0  0  0  0  0  0  0
   -6.5460    7.4980  -23.0250 C   0  0  0  0  0  0  0  0  0  0  0  0
   -4.2100    6.5180  -23.4360 C   0  0  0  0  0  0  0  0  0  0  0  0
   -5.8780    7.6540  -20.1640 C   0  0  0  0  0  0  0  0  0  0  0  0
   -5.7210    7.4980  -18.8130 C   0  0  0  0  0  0  0  0  0  0  0  0
   -6.9050    7.9950  -17.9750 C   0  0  0  0  0  0  0  0  0  0  0  0
   -6.7760    9.4670  -17.5960 C   0  0  0  0  0  0  0  0  0  0  0  0
   -8.2720    7.6780  -18.6260 C   0  0  0  0  0  0  0  0  0  0  0  0
   -5.1028    6.9008  -14.7207 H   0  0  0  0  0  0  0  0  0  0  0  0
   -2.2050    5.7897  -17.7131 H   0  0  0  0  0  0  0  0  0  0  0  0
   -1.9570    3.7623  -18.4270 H   0  0  0  0  0  0  0  0  0  0  0  0
   -2.9010    4.1644  -19.9014 H   0  0  0  0  0  0  0  0  0  0  0  0
   -1.1140    4.3471  -19.9014 H   0  0  0  0  0  0  0  0  0  0  0  0
   -0.5169    7.0728  -18.1379 H   0  0  0  0  0  0  0  0  0  0  0  0
   -0.2184    6.1788  -19.6671 H   0  0  0  0  0  0  0  0  0  0  0  0
   -1.2773    7.6298  -19.6671 H   0  0  0  0  0  0  0  0  0  0  0  0
   -2.9044    6.3502  -21.2769 H   0  0  0  0  0  0  0  0  0  0  0  0
   -4.6725    8.4397  -22.8037 H   0  0  0  0  0  0  0  0  0  0  0  0
   -7.1876    7.5261  -22.1320 H   0  0  0  0  0  0  0  0  0  0  0  0
   -6.7134    8.4043  -23.6254 H   0  0  0  0  0  0  0  0  0  0  0  0
   -6.7920    6.6098  -23.6254 H   0  0  0  0  0  0  0  0  0  0  0  0
   -3.6075    5.8709  -22.7816 H   0  0  0  0  0  0  0  0  0  0  0  0
   -4.8579    5.8959  -24.0709 H   0  0  0  0  0  0  0  0  0  0  0  0
   -3.5433    7.1200  -24.0709 H   0  0  0  0  0  0  0  0  0  0  0  0
   -6.8027    8.1049  -20.5535 H   0  0  0  0  0  0  0  0  0  0  0  0
   -6.8698    7.4250  -17.0349 H   0  0  0  0  0  0  0  0  0  0  0  0
   -6.7675    9.5641  -16.5003 H   0  0  0  0  0  0  0  0  0  0  0  0
   -5.8390    9.8707  -18.0072 H   0  0  0  0  0  0  0  0  0  0  0  0
   -7.6285   10.0276  -18.0072 H   0  0  0  0  0  0  0  0  0  0  0  0
   -9.0212    7.5043  -17.8395 H   0  0  0  0  0  0  0  0  0  0  0  0
   -8.5863    8.5271  -19.2507 H   0  0  0  0  0  0  0  0  0  0  0  0
   -8.1805    6.7772  -19.2507 H   0  0  0  0  0  0  0  0  0  0  0  0
 14 12  1  0
 13 12  1  0
 12 11  1  0
 11 10  2  0
 11 15  1  0
 10  6  1  0
 15 16  2  0
  8  7  1  0
  6  7  1  0
  6  5  2  0
  9  7  1  0
 16  5  1  0
 16 17  1  0
 19 17  1  0
  5  2  1  0
 17 18  1  0
  2  1  2  0
  2  3  2  0
  2  4  1  0
  4 20  1  0
  7 21  1  0
  8 22  1  0
  8 23  1  0
  8 24  1  0
  9 25  1  0
  9 26  1  0
  9 27  1  0
 10 28  1  0
 12 29  1  0
 13 30  1  0
 13 31  1  0
 13 32  1  0
 14 33  1  0
 14 34  1  0
 14 35  1  0
 15 36  1  0
 17 37  1  0
 18 38  1  0
 18 39  1  0
 18 40  1  0
 19 41  1  0
 19 42  1  0
 19 43  1  0
A    1
OAI
A    2
SAS
A    3
OAG
A    4
OAH
A    5
CAO
A    6
CAM
A    7
CAQ
A    8
CAD
A    9
CAC
A   10
CAJ
A   11
CAL
A   12
CAP
A   13
CAB
A   14
CAA
A   15
CAK
A   16
CAN
A   17
CAR
A   18
CAF
A   19
CAE
M  END
