4NNT_76D_A_201
     RDKit          3D

 42 42  0  0  0  0  0  0  0  0999 V2000
   -3.0110    7.6180  -16.2900 O   0  0  0  0  0  0  0  0  0  0  0  0
   -3.6680    6.6560  -16.8120 C   0  0  0  0  0  0  0  0  0  0  0  0
   -3.9930    5.6310  -16.1490 O   0  0  0  0  0  0  0  0  0  0  0  0
   -4.0420    6.7990  -18.2990 C   0  0  0  0  0  0  0  0  0  0  0  0
   -5.2510    7.3710  -18.6420 C   0  0  0  0  0  0  0  0  0  0  0  0
   -6.2380    7.8160  -17.5370 C   0  0  0  0  0  0  0  0  0  0  0  0
   -6.5790    9.2780  -17.6110 C   0  0  0  0  0  0  0  0  0  0  0  0
   -7.5130    6.8950  -17.5040 C   0  0  0  0  0  0  0  0  0  0  0  0
   -5.5880    7.5280  -19.9780 C   0  0  0  0  0  0  0  0  0  0  0  0
   -4.6770    7.1220  -20.9590 C   0  0  0  0  0  0  0  0  0  0  0  0
   -5.0340    7.3020  -22.4740 C   0  0  0  0  0  0  0  0  0  0  0  0
   -4.1540    6.4760  -23.4180 C   0  0  0  0  0  0  0  0  0  0  0  0
   -6.5210    7.2930  -22.7810 C   0  0  0  0  0  0  0  0  0  0  0  0
   -3.4610    6.5540  -20.6050 C   0  0  0  0  0  0  0  0  0  0  0  0
   -3.1230    6.4000  -19.2740 C   0  0  0  0  0  0  0  0  0  0  0  0
   -1.8190    5.7810  -18.8890 C   0  0  0  0  0  0  0  0  0  0  0  0
   -1.6920    4.3680  -19.4230 C   0  0  0  0  0  0  0  0  0  0  0  0
   -0.5750    6.6620  -19.2060 C   0  0  0  0  0  0  0  0  0  0  0  0
   -3.9843    5.6583  -15.1594 H   0  0  0  0  0  0  0  0  0  0  0  0
   -5.7206    7.6870  -16.5749 H   0  0  0  0  0  0  0  0  0  0  0  0
   -6.6738    9.6844  -16.5932 H   0  0  0  0  0  0  0  0  0  0  0  0
   -5.7817    9.8138  -18.1470 H   0  0  0  0  0  0  0  0  0  0  0  0
   -7.5311    9.4058  -18.1470 H   0  0  0  0  0  0  0  0  0  0  0  0
   -7.7925    6.6931  -16.4594 H   0  0  0  0  0  0  0  0  0  0  0  0
   -8.3449    7.4020  -18.0147 H   0  0  0  0  0  0  0  0  0  0  0  0
   -7.2931    5.9459  -18.0147 H   0  0  0  0  0  0  0  0  0  0  0  0
   -6.5567    7.9650  -20.2620 H   0  0  0  0  0  0  0  0  0  0  0  0
   -4.7553    8.3401  -22.7078 H   0  0  0  0  0  0  0  0  0  0  0  0
   -3.4776    5.8411  -22.8270 H   0  0  0  0  0  0  0  0  0  0  0  0
   -4.7910    5.8421  -24.0523 H   0  0  0  0  0  0  0  0  0  0  0  0
   -3.5617    7.1518  -24.0523 H   0  0  0  0  0  0  0  0  0  0  0  0
   -7.0898    7.2896  -21.8395 H   0  0  0  0  0  0  0  0  0  0  0  0
   -6.7807    8.1896  -23.3630 H   0  0  0  0  0  0  0  0  0  0  0  0
   -6.7698    6.3933  -23.3630 H   0  0  0  0  0  0  0  0  0  0  0  0
   -2.7625    6.2246  -21.3883 H   0  0  0  0  0  0  0  0  0  0  0  0
   -1.8324    5.7162  -17.7910 H   0  0  0  0  0  0  0  0  0  0  0  0
   -1.6286    3.6623  -18.5816 H   0  0  0  0  0  0  0  0  0  0  0  0
   -2.5722    4.1277  -20.0375 H   0  0  0  0  0  0  0  0  0  0  0  0
   -0.7831    4.2886  -20.0375 H   0  0  0  0  0  0  0  0  0  0  0  0
   -0.1097    6.9915  -18.2653 H   0  0  0  0  0  0  0  0  0  0  0  0
    0.1509    6.0755  -19.7883 H   0  0  0  0  0  0  0  0  0  0  0  0
   -0.8873    7.5414  -19.7883 H   0  0  0  0  0  0  0  0  0  0  0  0
 12 11  1  0
 13 11  1  0
 11 10  1  0
 10 14  2  0
 10  9  1  0
 14 15  1  0
  9  5  2  0
 17 16  1  0
 15 16  1  0
 15  4  2  0
 18 16  1  0
  5  4  1  0
  5  6  1  0
  4  2  1  0
  7  6  1  0
  6  8  1  0
  2  1  2  0
  2  3  1  0
  3 19  1  0
  6 20  1  0
  7 21  1  0
  7 22  1  0
  7 23  1  0
  8 24  1  0
  8 25  1  0
  8 26  1  0
  9 27  1  0
 11 28  1  0
 12 29  1  0
 12 30  1  0
 12 31  1  0
 13 32  1  0
 13 33  1  0
 13 34  1  0
 14 35  1  0
 16 36  1  0
 17 37  1  0
 17 38  1  0
 17 39  1  0
 18 40  1  0
 18 41  1  0
 18 42  1  0
A    1
OAG
A    2
CAK
A    3
OAH
A    4
CAO
A    5
CAM
A    6
CAQ
A    7
CAD
A    8
CAC
A    9
CAI
A   10
CAL
A   11
CAP
A   12
CAB
A   13
CAA
A   14
CAJ
A   15
CAN
A   16
CAR
A   17
CAF
A   18
CAE
M  END
