4NR4_2LK_A_1201
     RDKit          3D

 40 43  0  0  0  0  0  0  0  0999 V2000
   13.8360   40.1320   20.5340 C   0  0  0  0  0  0  0  0  0  0  0  0
   13.6820   41.6570   20.5110 C   0  0  0  0  0  0  0  0  0  0  0  0
   13.8060   42.3820   19.3300 O   0  0  0  0  0  0  0  0  0  0  0  0
   13.6310   43.7100   19.6540 N   0  0  0  0  0  0  0  0  0  0  0  0
   13.4160   43.7760   20.9910 C   0  0  0  0  0  0  0  0  0  0  0  0
   13.1690   45.1140   21.7210 C   0  0  0  0  0  0  0  0  0  0  0  0
   13.4500   42.5210   21.5460 C   0  0  0  0  0  0  0  0  0  0  0  0
   13.2340   42.1860   22.8990 C   0  0  0  0  0  0  0  0  0  0  0  0
   13.9540   42.7390   23.9670 C   0  0  0  0  0  0  0  0  0  0  0  0
   12.2310   41.2800   23.2540 C   0  0  0  0  0  0  0  0  0  0  0  0
   11.9740   40.9240   24.5910 C   0  0  0  0  0  0  0  0  0  0  0  0
   12.6740   41.5110   25.5650 C   0  0  0  0  0  0  0  0  0  0  0  0
   13.6880   42.3550   25.2540 C   0  0  0  0  0  0  0  0  0  0  0  0
   14.2350   42.7630   26.4140 N   0  0  0  0  0  0  0  0  0  0  0  0
   13.6100   42.1320   27.4180 C   0  0  0  0  0  0  0  0  0  0  0  0
   12.6520   41.3570   26.9240 N   0  0  0  0  0  0  0  0  0  0  0  0
   11.6670   40.4870   27.6890 C   0  0  0  0  0  0  0  0  0  0  0  0
   10.4220   41.2230   27.8270 C   0  0  0  0  0  0  0  0  0  0  0  0
   10.3270   42.3410   28.6750 C   0  0  0  0  0  0  0  0  0  0  0  0
    9.0880   42.9820   28.7870 C   0  0  0  0  0  0  0  0  0  0  0  0
    8.0000   42.5850   28.0270 C   0  0  0  0  0  0  0  0  0  0  0  0
    6.5000   43.4430   28.1800 Cl  0  0  0  0  0  0  0  0  0  0  0  0
    8.0820   41.4890   27.1980 C   0  0  0  0  0  0  0  0  0  0  0  0
    9.2920   40.8300   27.1410 C   0  0  0  0  0  0  0  0  0  0  0  0
   13.8713   39.7827   21.5765 H   0  0  0  0  0  0  0  0  0  0  0  0
   12.9800   39.6692   20.0210 H   0  0  0  0  0  0  0  0  0  0  0  0
   14.7672   39.8497   20.0210 H   0  0  0  0  0  0  0  0  0  0  0  0
   13.1994   44.9496   22.8082 H   0  0  0  0  0  0  0  0  0  0  0  0
   13.9491   45.8359   21.4374 H   0  0  0  0  0  0  0  0  0  0  0  0
   12.1826   45.5098   21.4374 H   0  0  0  0  0  0  0  0  0  0  0  0
   14.7373   43.4858   23.7700 H   0  0  0  0  0  0  0  0  0  0  0  0
   11.6197   40.8283   22.4588 H   0  0  0  0  0  0  0  0  0  0  0  0
   11.2071   40.1726   24.8304 H   0  0  0  0  0  0  0  0  0  0  0  0
   13.8531   42.2396   28.4854 H   0  0  0  0  0  0  0  0  0  0  0  0
   11.4879   39.5530   27.1361 H   0  0  0  0  0  0  0  0  0  0  0  0
   12.0720   40.2369   28.6807 H   0  0  0  0  0  0  0  0  0  0  0  0
   11.2025   42.7017   29.2348 H   0  0  0  0  0  0  0  0  0  0  0  0
    8.9758   43.8181   29.4929 H   0  0  0  0  0  0  0  0  0  0  0  0
    7.2182   41.1529   26.6057 H   0  0  0  0  0  0  0  0  0  0  0  0
    9.3603   39.9332   26.5077 H   0  0  0  0  0  0  0  0  0  0  0  0
  3  4  1  0
  3  2  1  0
  4  5  2  0
  2  1  1  0
  2  7  2  0
  5  7  1  0
  5  6  1  0
  7  8  1  0
  8 10  1  0
  8  9  2  0
 10 11  2  0
  9 13  1  0
 11 12  1  0
 13 12  2  0
 13 14  1  0
 12 16  1  0
 14 15  2  0
 16 15  1  0
 16 17  1  0
 24 23  2  0
 24 18  1  0
 23 21  1  0
 17 18  1  0
 18 19  2  0
 21 22  1  0
 21 20  2  0
 19 20  1  0
  1 25  1  0
  1 26  1  0
  1 27  1  0
  6 28  1  0
  6 29  1  0
  6 30  1  0
  9 31  1  0
 10 32  1  0
 11 33  1  0
 15 34  1  0
 17 35  1  0
 17 36  1  0
 19 37  1  0
 20 38  1  0
 23 39  1  0
 24 40  1  0
A    1
CAU
A    2
CAN
A    3
OAM
A    4
NAL
A    5
CAK
A    6
CAV
A    7
CAJ
A    8
CAD
A    9
CAC
A   10
CAE
A   11
CAF
A   12
CAA
A   13
CAB
A   14
NAI
A   15
CAH
A   16
NAG
A   17
CAX
A   18
CAQ
A   19
CAP
A   20
CAO
A   21
CAT
A   22
CL
A   23
CAS
A   24
CAR
M  END
