4NRC_2LY_A_2001
     RDKit          3D

 22 23  0  0  0  0  0  0  0  0999 V2000
  -24.7950  -11.5230    0.6430 C   0  0  0  0  0  0  0  0  0  0  0  0
  -25.9850  -10.7100    0.5590 N   0  0  0  0  0  0  0  0  0  0  0  0
  -25.8010   -9.2690    0.7590 C   0  0  0  0  0  0  0  0  0  0  0  0
  -26.9580   -8.3780    0.6470 C   0  0  0  0  0  0  0  0  0  0  0  0
  -28.3330   -8.8660    0.4190 C   0  0  0  0  0  0  0  0  0  0  0  0
  -29.2340   -7.7510    0.3340 C   0  0  0  0  0  0  0  0  0  0  0  0
  -28.4730   -6.4560    0.4910 C   0  0  0  0  0  0  0  0  0  0  0  0
  -26.8860   -6.7520    0.6870 S   0  0  0  0  0  0  0  0  0  0  0  0
  -30.5770   -7.9360    0.1470 O   0  0  0  0  0  0  0  0  0  0  0  0
  -31.0640   -9.2180   -0.0200 C   0  0  0  0  0  0  0  0  0  0  0  0
  -30.2270  -10.4050    0.4610 C   0  0  0  0  0  0  0  0  0  0  0  0
  -28.7830  -10.2480    0.3350 O   0  0  0  0  0  0  0  0  0  0  0  0
  -24.7190   -8.7390    0.9710 O   0  0  0  0  0  0  0  0  0  0  0  0
  -24.5426  -11.6954    1.6997 H   0  0  0  0  0  0  0  0  0  0  0  0
  -24.9745  -12.4881    0.1467 H   0  0  0  0  0  0  0  0  0  0  0  0
  -23.9612  -11.0049    0.1467 H   0  0  0  0  0  0  0  0  0  0  0  0
  -26.9111  -11.1190    0.3693 H   0  0  0  0  0  0  0  0  0  0  0  0
  -28.9277   -5.4545    0.4750 H   0  0  0  0  0  0  0  0  0  0  0  0
  -32.0261   -9.2676    0.5109 H   0  0  0  0  0  0  0  0  0  0  0  0
  -31.0936   -9.3454   -1.1122 H   0  0  0  0  0  0  0  0  0  0  0  0
  -30.4579  -10.5740    1.5231 H   0  0  0  0  0  0  0  0  0  0  0  0
  -30.4967  -11.2484   -0.1916 H   0  0  0  0  0  0  0  0  0  0  0  0
 10  9  1  0
 10 11  1  0
  9  6  1  0
  6  5  1  0
  6  7  2  0
 12  5  1  0
 12 11  1  0
  5  4  2  0
  7  8  1  0
  2  1  1  0
  2  3  1  0
  4  8  1  0
  4  3  1  0
  3 13  2  0
  1 14  1  0
  1 15  1  0
  1 16  1  0
  2 17  1  0
  7 18  1  0
 10 19  1  0
 10 20  1  0
 11 21  1  0
 11 22  1  0
A    1
C01
A    2
N02
A    3
C03
A    4
C04
A    5
C05
A    6
C06
A    7
C07
A    8
S08
A    9
O09
A   10
C10
A   11
C11
A   12
O12
A   13
O13
M  END
