4NT0_3DU_A_301
     RDKit          3D

 35 36  0  0  0  0  0  0  0  0999 V2000
    7.4330    4.1510  -10.3000 O   0  0  0  0  0  0  0  0  0  0  0  0
    6.3240    3.3590   -9.6650 P   0  0  0  0  0  0  0  0  0  0  0  0
    6.9390    2.1630   -8.9280 O   0  0  0  0  0  0  0  0  0  0  0  0
    5.4290    4.3140   -8.8660 O   0  0  0  0  0  0  0  0  0  0  0  0
    5.3910    2.7670  -10.8140 O   0  0  0  0  0  0  0  0  0  0  0  0
    5.8330    1.6960  -11.6410 C   0  0  0  0  0  0  0  0  0  0  0  0
    4.7170    1.1660  -12.5060 C   0  0  0  0  0  0  0  0  0  0  0  0
    5.2350    0.0740  -13.3160 O   0  0  0  0  0  0  0  0  0  0  0  0
    3.5200    0.5950  -11.7510 C   0  0  0  0  0  0  0  0  0  0  0  0
    2.3500    0.7370  -12.5530 O   0  0  0  0  0  0  0  0  0  0  0  0
    3.8740   -0.8860  -11.6460 C   0  0  0  0  0  0  0  0  0  0  0  0
    2.7570   -1.7410  -11.4570 O   0  0  0  0  0  0  0  0  0  0  0  0
    4.5580   -1.1290  -12.9950 C   0  0  0  0  0  0  0  0  0  0  0  0
    5.5580   -2.2130  -13.0040 N   0  0  0  0  0  0  0  0  0  0  0  0
    5.4280   -3.2510  -13.8560 C   0  0  0  0  0  0  0  0  0  0  0  0
    4.3760   -3.3260  -14.6820 O   0  0  0  0  0  0  0  0  0  0  0  0
    6.3820   -4.2960  -13.8960 C   0  0  0  0  0  0  0  0  0  0  0  0
    7.4820   -4.2150  -13.0350 C   0  0  0  0  0  0  0  0  0  0  0  0
    8.4380   -5.1910  -13.0410 O   0  0  0  0  0  0  0  0  0  0  0  0
    7.6160   -3.1200  -12.1610 C   0  0  0  0  0  0  0  0  0  0  0  0
    6.6290   -2.1220  -12.1760 C   0  0  0  0  0  0  0  0  0  0  0  0
    6.8662    2.3046   -7.9509 H   0  0  0  0  0  0  0  0  0  0  0  0
    5.5690    4.1647   -7.8974 H   0  0  0  0  0  0  0  0  0  0  0  0
    6.2067    0.8823  -11.0021 H   0  0  0  0  0  0  0  0  0  0  0  0
    6.6285    2.0752  -12.2994 H   0  0  0  0  0  0  0  0  0  0  0  0
    4.3666    2.0356  -13.0813 H   0  0  0  0  0  0  0  0  0  0  0  0
    3.3285    1.0812  -10.7830 H   0  0  0  0  0  0  0  0  0  0  0  0
    1.5579    0.8331  -11.9670 H   0  0  0  0  0  0  0  0  0  0  0  0
    4.4921   -1.1120  -10.7646 H   0  0  0  0  0  0  0  0  0  0  0  0
    2.5960   -1.8642  -10.4880 H   0  0  0  0  0  0  0  0  0  0  0  0
    3.7767   -1.4291  -13.7088 H   0  0  0  0  0  0  0  0  0  0  0  0
    6.2622   -5.1463  -14.5834 H   0  0  0  0  0  0  0  0  0  0  0  0
    8.7870   -5.5473  -12.1858 H   0  0  0  0  0  0  0  0  0  0  0  0
    8.4768   -3.0477  -11.4799 H   0  0  0  0  0  0  0  0  0  0  0  0
    6.7252   -1.2540  -11.5071 H   0  0  0  0  0  0  0  0  0  0  0  0
 16 15  2  0
 17 15  1  0
 17 18  2  0
 15 14  1  0
  8 13  1  0
  8  7  1  0
 19 18  1  0
 18 20  1  0
 14 13  1  0
 14 21  1  0
 13 11  1  0
 10  9  1  0
  7  9  1  0
  7  6  1  0
 21 20  2  0
  9 11  1  0
 11 12  1  0
  6  5  1  0
  5  2  1  0
  1  2  2  0
  2  3  1  0
  2  4  1  0
  3 22  1  0
  4 23  1  0
  6 24  1  0
  6 25  1  0
  7 26  1  0
  9 27  1  0
 10 28  1  0
 11 29  1  0
 12 30  1  0
 13 31  1  0
 17 32  1  0
 19 33  1  0
 20 34  1  0
 21 35  1  0
A    1
OP3
A    2
P
A    3
OP1
A    4
OP2
A    5
O5'
A    6
C5'
A    7
C4'
A    8
O4'
A    9
C3'
A   10
O3'
A   11
C2'
A   12
O2'
A   13
C1'
A   14
N1
A   15
C2
A   16
O2
A   17
C3
A   18
C4
A   19
O4
A   20
C5
A   21
C6
M  END
