4NTJ_AZJ_A_1201
     RDKit          3D

 59 61  0  0  0  0  0  0  0  0999 V2000
   15.9210   94.1750   57.3890 C   0  0  0  0  0  0  0  0  0  0  0  0
   13.7710  100.3390   55.7690 C   0  0  0  0  0  0  0  0  0  0  0  0
   18.7320   97.5250   52.1240 N   0  0  0  0  0  0  0  0  0  0  0  0
   19.3140  103.0570   48.9460 O   0  0  0  0  0  0  0  0  0  0  0  0
   13.9550   97.9480   57.2890 O   0  0  0  0  0  0  0  0  0  0  0  0
   17.2190  106.0380   46.4550 O   0  0  0  0  0  0  0  0  0  0  0  0
   19.1540  105.9810   48.0450 O   0  0  0  0  0  0  0  0  0  0  0  0
   17.8800   97.9800   52.7570 C   0  0  0  0  0  0  0  0  0  0  0  0
   17.5640  101.5630   43.1690 C   0  0  0  0  0  0  0  0  0  0  0  0
   18.0810  102.7790   42.7150 C   0  0  0  0  0  0  0  0  0  0  0  0
   17.6190  101.2490   44.5310 C   0  0  0  0  0  0  0  0  0  0  0  0
   18.6560  103.6760   43.6240 C   0  0  0  0  0  0  0  0  0  0  0  0
   18.1880  102.1480   45.4390 C   0  0  0  0  0  0  0  0  0  0  0  0
   16.3670   97.8880   54.6700 C   0  0  0  0  0  0  0  0  0  0  0  0
   15.0310   95.2870   56.8260 C   0  0  0  0  0  0  0  0  0  0  0  0
   17.0380  102.9050   51.1080 C   0  0  0  0  0  0  0  0  0  0  0  0
   17.5770  100.7870   49.7120 C   0  0  0  0  0  0  0  0  0  0  0  0
   16.1740  102.0070   51.9960 C   0  0  0  0  0  0  0  0  0  0  0  0
   16.6730   99.9840   50.6710 C   0  0  0  0  0  0  0  0  0  0  0  0
   19.3190  104.2820   45.8810 C   0  0  0  0  0  0  0  0  0  0  0  0
   15.2540  100.2950   53.9820 N   0  0  0  0  0  0  0  0  0  0  0  0
   17.4270  104.0470   48.0910 N   0  0  0  0  0  0  0  0  0  0  0  0
   15.7140   96.5520   56.8950 O   0  0  0  0  0  0  0  0  0  0  0  0
   18.0870  103.1560   48.8540 C   0  0  0  0  0  0  0  0  0  0  0  0
   14.9350   97.6440   56.6050 C   0  0  0  0  0  0  0  0  0  0  0  0
   14.7980   99.6680   55.0910 C   0  0  0  0  0  0  0  0  0  0  0  0
   18.6840  103.3830   44.9960 C   0  0  0  0  0  0  0  0  0  0  0  0
   16.8140   98.5660   53.5360 C   0  0  0  0  0  0  0  0  0  0  0  0
   15.3500   98.4110   55.4850 C   0  0  0  0  0  0  0  0  0  0  0  0
   16.2130   99.7860   53.1770 C   0  0  0  0  0  0  0  0  0  0  0  0
   17.1430  102.2920   49.6980 C   0  0  0  0  0  0  0  0  0  0  0  0
   16.7030  100.6040   52.0280 N   0  0  0  0  0  0  0  0  0  0  0  0
   18.2510  105.1280   47.1410 S   0  0  0  0  0  0  0  0  0  0  0  0
   15.8958   94.2064   58.4883 H   0  0  0  0  0  0  0  0  0  0  0  0
   15.5520   93.1987   57.0416 H   0  0  0  0  0  0  0  0  0  0  0  0
   16.9544   94.3212   57.0416 H   0  0  0  0  0  0  0  0  0  0  0  0
   13.9223  100.2401   56.8540 H   0  0  0  0  0  0  0  0  0  0  0  0
   13.7836  101.4036   55.4925 H   0  0  0  0  0  0  0  0  0  0  0  0
   12.8011   99.8998   55.4925 H   0  0  0  0  0  0  0  0  0  0  0  0
   17.1150  100.8545   42.4574 H   0  0  0  0  0  0  0  0  0  0  0  0
   18.0365  103.0315   41.6453 H   0  0  0  0  0  0  0  0  0  0  0  0
   17.2132  100.2914   44.8893 H   0  0  0  0  0  0  0  0  0  0  0  0
   19.0896  104.6188   43.2591 H   0  0  0  0  0  0  0  0  0  0  0  0
   18.2468  101.8852   46.5055 H   0  0  0  0  0  0  0  0  0  0  0  0
   16.8216   96.9212   54.9320 H   0  0  0  0  0  0  0  0  0  0  0  0
   14.1029   95.3425   57.4138 H   0  0  0  0  0  0  0  0  0  0  0  0
   14.7965   95.0621   55.7751 H   0  0  0  0  0  0  0  0  0  0  0  0
   18.0438  102.9927   51.5447 H   0  0  0  0  0  0  0  0  0  0  0  0
   16.5778  103.9017   51.0393 H   0  0  0  0  0  0  0  0  0  0  0  0
   17.4886  100.3733   48.6966 H   0  0  0  0  0  0  0  0  0  0  0  0
   18.6196  100.7158   50.0554 H   0  0  0  0  0  0  0  0  0  0  0  0
   16.1692  102.4119   53.0188 H   0  0  0  0  0  0  0  0  0  0  0  0
   15.1550  101.9853   51.5822 H   0  0  0  0  0  0  0  0  0  0  0  0
   15.6411   99.9879   50.2900 H   0  0  0  0  0  0  0  0  0  0  0  0
   17.0391   98.9487   50.7354 H   0  0  0  0  0  0  0  0  0  0  0  0
   20.0916  103.7197   46.4259 H   0  0  0  0  0  0  0  0  0  0  0  0
   19.6969  105.0919   45.2397 H   0  0  0  0  0  0  0  0  0  0  0  0
   16.3971  104.0575   48.0973 H   0  0  0  0  0  0  0  0  0  0  0  0
   16.1409  102.2913   49.2444 H   0  0  0  0  0  0  0  0  0  0  0  0
 10  9  2  0
 10 12  1  0
  9 11  1  0
 12 27  2  0
 11 13  2  0
 27 13  1  0
 27 20  1  0
 20 33  1  0
  6 33  2  0
 33  7  2  0
 33 22  1  0
 22 24  1  0
 24  4  2  0
 24 31  1  0
 31 17  1  0
 31 16  1  0
 17 19  1  0
 19 32  1  0
 16 18  1  0
 18 32  1  0
 32 30  1  0
  3  8  3  0
  8 28  1  0
 30 28  1  0
 30 21  2  0
 28 14  2  0
 21 26  1  0
 14 29  1  0
 26 29  2  0
 26  2  1  0
 29 25  1  0
 25 23  1  0
 25  5  2  0
 15 23  1  0
 15  1  1  0
  1 34  1  0
  1 35  1  0
  1 36  1  0
  2 37  1  0
  2 38  1  0
  2 39  1  0
  9 40  1  0
 10 41  1  0
 11 42  1  0
 12 43  1  0
 13 44  1  0
 14 45  1  0
 15 46  1  0
 15 47  1  0
 16 48  1  0
 16 49  1  0
 17 50  1  0
 17 51  1  0
 18 52  1  0
 18 53  1  0
 19 54  1  0
 19 55  1  0
 20 56  1  0
 20 57  1  0
 22 58  1  0
 31 59  1  0
A    1
CAA
A    2
CAB
A    3
NAC
A    4
OAD
A    5
OAE
A    6
OAF
A    7
OAG
A    8
CAH
A    9
CAI
A   10
CAJ
A   11
CAK
A   12
CAL
A   13
CAM
A   14
CAN
A   15
CAO
A   16
CAP
A   17
CAQ
A   18
CAR
A   19
CAS
A   20
CAT
A   21
NAU
A   22
NAV
A   23
OAW
A   24
CAX
A   25
CAY
A   26
CAZ
A   27
CBA
A   28
CBB
A   29
CBC
A   30
CBD
A   31
CBE
A   32
NBF
A   33
SBG
M  END
