4NJH_2K8_A_303
     RDKit          3D

 24 25  0  0  0  0  0  0  0  0999 V2000
  -11.6960   83.2860   23.7440 O   0  0  0  0  0  0  0  0  0  0  0  0
  -10.8350   84.0250   23.2120 C   0  0  0  0  0  0  0  0  0  0  0  0
  -10.8580   85.2710   23.1900 O   0  0  0  0  0  0  0  0  0  0  0  0
   -9.6460   83.3370   22.5280 C   0  0  0  0  0  0  0  0  0  0  0  0
   -9.2900   82.2300   23.4010 N   0  0  0  0  0  0  0  0  0  0  0  0
   -7.9470   81.9500   23.6090 C   0  0  0  0  0  0  0  0  0  0  0  0
   -8.4950   84.3270   22.1940 C   0  0  0  0  0  0  0  0  0  0  0  0
   -7.1460   83.7670   22.2030 N   0  0  0  0  0  0  0  0  0  0  0  0
   -6.9000   82.7020   23.0620 C   0  0  0  0  0  0  0  0  0  0  0  0
   -5.5920   82.4570   23.3090 N   0  0  0  0  0  0  0  0  0  0  0  0
   -5.3650   81.4320   24.1270 C   0  0  0  0  0  0  0  0  0  0  0  0
   -4.1120   81.1100   24.4530 N   0  0  0  0  0  0  0  0  0  0  0  0
   -6.3620   80.6680   24.6680 N   0  0  0  0  0  0  0  0  0  0  0  0
   -7.7090   80.8610   24.4460 C   0  0  0  0  0  0  0  0  0  0  0  0
   -8.5460   80.1040   24.9430 O   0  0  0  0  0  0  0  0  0  0  0  0
  -11.7599   83.2312   24.7304 H   0  0  0  0  0  0  0  0  0  0  0  0
   -9.8986   82.9483   21.5304 H   0  0  0  0  0  0  0  0  0  0  0  0
  -10.0207   81.6646   23.8562 H   0  0  0  0  0  0  0  0  0  0  0  0
   -8.5263   85.1412   22.9330 H   0  0  0  0  0  0  0  0  0  0  0  0
   -8.6744   84.6518   21.1585 H   0  0  0  0  0  0  0  0  0  0  0  0
   -6.4054   84.1466   21.5962 H   0  0  0  0  0  0  0  0  0  0  0  0
   -3.8394   81.0400   25.4438 H   0  0  0  0  0  0  0  0  0  0  0  0
   -3.4172   80.9315   23.7139 H   0  0  0  0  0  0  0  0  0  0  0  0
   -6.0865   79.8918   25.2864 H   0  0  0  0  0  0  0  0  0  0  0  0
  7  8  1  0
  7  4  1  0
  8  9  1  0
  4  2  1  0
  4  5  1  0
  9 10  1  0
  9  6  2  0
  3  2  2  0
  2  1  1  0
 10 11  2  0
  5  6  1  0
  6 14  1  0
 11 12  1  0
 11 13  1  0
 14 13  1  0
 14 15  2  0
  1 16  1  0
  4 17  1  0
  5 18  1  0
  7 19  1  0
  7 20  1  0
  8 21  1  0
 12 22  1  0
 12 23  1  0
 13 24  1  0
A    1
O6A
A    2
C6A
A    3
O6B
A    4
C6
A    5
N5
A    6
C4A
A    7
C7
A    8
N8
A    9
C8A
A   10
N1
A   11
C2
A   12
N2
A   13
N3
A   14
C4
A   15
O4
M  END
