4NUC_435_A_201
     RDKit          3D

 45 47  0  0  0  0  0  0  0  0999 V2000
  -15.2860   13.2230   -6.4670 C   0  0  0  0  0  0  0  0  0  0  0  0
  -15.8050   11.9990   -6.1170 C   0  0  0  0  0  0  0  0  0  0  0  0
  -15.3150   10.8030   -6.6030 C   0  0  0  0  0  0  0  0  0  0  0  0
  -14.1630   10.8270   -7.4010 C   0  0  0  0  0  0  0  0  0  0  0  0
  -13.5730   12.0650   -7.7230 C   0  0  0  0  0  0  0  0  0  0  0  0
  -14.1480   13.2570   -7.2370 C   0  0  0  0  0  0  0  0  0  0  0  0
  -13.5680   14.4690   -7.5620 O   0  0  0  0  0  0  0  0  0  0  0  0
  -12.3840   12.1140   -8.6080 C   0  0  0  0  0  0  0  0  0  0  0  0
  -15.8980    9.5870   -6.1690 N   0  0  0  0  0  0  0  0  0  0  0  0
  -15.3980    8.5140   -6.6350 N   0  0  0  0  0  0  0  0  0  0  0  0
  -15.8760    7.2620   -6.1850 C   0  0  0  0  0  0  0  0  0  0  0  0
  -15.3630    6.0910   -6.7700 C   0  0  0  0  0  0  0  0  0  0  0  0
  -15.7500    4.8480   -6.3670 C   0  0  0  0  0  0  0  0  0  0  0  0
  -16.6190    4.6840   -5.2740 C   0  0  0  0  0  0  0  0  0  0  0  0
  -17.0830    5.8880   -4.6470 C   0  0  0  0  0  0  0  0  0  0  0  0
  -16.6860    7.1590   -5.0840 C   0  0  0  0  0  0  0  0  0  0  0  0
  -16.9900    3.1580   -4.7460 S   0  0  0  0  0  0  0  0  0  0  0  0
  -17.2610    2.3180   -5.9240 O   0  0  0  0  0  0  0  0  0  0  0  0
  -18.0990    3.4170   -3.7990 O   0  0  0  0  0  0  0  0  0  0  0  0
  -15.7010    2.4440   -4.0310 N   0  0  0  0  0  0  0  0  0  0  0  0
  -15.1150    2.8310   -2.8890 C   0  0  0  0  0  0  0  0  0  0  0  0
  -13.9010    2.2750   -2.6020 N   0  0  0  0  0  0  0  0  0  0  0  0
  -13.2220    2.6100   -1.4960 C   0  0  0  0  0  0  0  0  0  0  0  0
  -13.7460    3.5700   -0.6160 C   0  0  0  0  0  0  0  0  0  0  0  0
  -14.9900    4.1590   -0.8940 C   0  0  0  0  0  0  0  0  0  0  0  0
  -15.6940    3.7920   -2.0410 C   0  0  0  0  0  0  0  0  0  0  0  0
  -15.9000   14.4970   -5.9510 C   0  0  0  0  0  0  0  0  0  0  0  0
  -16.6519   11.9710   -5.4156 H   0  0  0  0  0  0  0  0  0  0  0  0
  -13.7242    9.8890   -7.7719 H   0  0  0  0  0  0  0  0  0  0  0  0
  -13.2733   15.0848   -6.8450 H   0  0  0  0  0  0  0  0  0  0  0  0
  -11.4717   12.1516   -7.9946 H   0  0  0  0  0  0  0  0  0  0  0  0
  -12.3622   11.2160   -9.2429 H   0  0  0  0  0  0  0  0  0  0  0  0
  -12.4362   13.0108   -9.2429 H   0  0  0  0  0  0  0  0  0  0  0  0
  -14.6245    6.1811   -7.5802 H   0  0  0  0  0  0  0  0  0  0  0  0
  -15.3781    3.9625   -6.9032 H   0  0  0  0  0  0  0  0  0  0  0  0
  -17.7737    5.8110   -3.7944 H   0  0  0  0  0  0  0  0  0  0  0  0
  -17.0198    8.0614   -4.5509 H   0  0  0  0  0  0  0  0  0  0  0  0
  -15.3030    1.6198   -4.5034 H   0  0  0  0  0  0  0  0  0  0  0  0
  -12.2550    2.1331   -1.2781 H   0  0  0  0  0  0  0  0  0  0  0  0
  -13.1858    3.8590    0.2855 H   0  0  0  0  0  0  0  0  0  0  0  0
  -15.4092    4.9095   -0.2076 H   0  0  0  0  0  0  0  0  0  0  0  0
  -16.6710    4.2400   -2.2748 H   0  0  0  0  0  0  0  0  0  0  0  0
  -15.8952   14.4871   -4.8511 H   0  0  0  0  0  0  0  0  0  0  0  0
  -15.3176   15.3573   -6.3125 H   0  0  0  0  0  0  0  0  0  0  0  0
  -16.9358   14.5775   -6.3125 H   0  0  0  0  0  0  0  0  0  0  0  0
  1  2  2  0
  1  6  1  0
  1 27  1  0
  2  3  1  0
  3  4  2  0
  3  9  1  0
  4  5  1  0
  5  6  2  0
  5  8  1  0
  6  7  1  0
  9 10  2  0
 10 11  1  0
 11 12  2  0
 11 16  1  0
 12 13  1  0
 13 14  2  0
 14 15  1  0
 14 17  1  0
 15 16  2  0
 17 18  2  0
 17 19  2  0
 17 20  1  0
 20 21  1  0
 21 22  2  0
 21 26  1  0
 22 23  1  0
 23 24  2  0
 24 25  1  0
 25 26  2  0
  2 28  1  0
  4 29  1  0
  7 30  1  0
  8 31  1  0
  8 32  1  0
  8 33  1  0
 12 34  1  0
 13 35  1  0
 15 36  1  0
 16 37  1  0
 20 38  1  0
 23 39  1  0
 24 40  1  0
 25 41  1  0
 26 42  1  0
 27 43  1  0
 27 44  1  0
 27 45  1  0
A    1
C1
A    2
C2
A    3
C3
A    4
C4
A    5
C5
A    6
C6
A    7
O7
A    8
C8
A    9
N9
A   10
N10
A   11
C11
A   12
C12
A   13
C13
A   14
C14
A   15
C15
A   16
C16
A   17
S17
A   18
O18
A   19
O19
A   20
N20
A   21
C21
A   22
N22
A   23
C23
A   24
C24
A   25
C25
A   26
C26
A   27
C27
M  END
