4NUD_NUD_A_201
     RDKit          3D

 44 46  0  0  0  0  0  0  0  0999 V2000
  -14.2510   12.7250   -6.4730 C   0  0  0  0  0  0  0  0  0  0  0  0
  -14.9410   11.7140   -5.8580 C   0  0  0  0  0  0  0  0  0  0  0  0
  -14.8680   10.4210   -6.4400 C   0  0  0  0  0  0  0  0  0  0  0  0
  -14.0450   10.1590   -7.5760 C   0  0  0  0  0  0  0  0  0  0  0  0
  -13.3160   11.1990   -8.1450 C   0  0  0  0  0  0  0  0  0  0  0  0
  -13.4360   12.5060   -7.6010 C   0  0  0  0  0  0  0  0  0  0  0  0
  -12.7560   13.5150   -8.1040 O   0  0  0  0  0  0  0  0  0  0  0  0
  -12.3870   10.9820   -9.3530 C   0  0  0  0  0  0  0  0  0  0  0  0
  -15.5840    9.4420   -5.7800 N   0  0  0  0  0  0  0  0  0  0  0  0
  -15.5800    8.2350   -6.1990 N   0  0  0  0  0  0  0  0  0  0  0  0
  -16.3380    7.3030   -5.4660 C   0  0  0  0  0  0  0  0  0  0  0  0
  -16.5320    6.0330   -5.9940 C   0  0  0  0  0  0  0  0  0  0  0  0
  -17.3070    5.1330   -5.2650 C   0  0  0  0  0  0  0  0  0  0  0  0
  -17.9870    5.4700   -4.0960 C   0  0  0  0  0  0  0  0  0  0  0  0
  -17.8180    6.7320   -3.5960 C   0  0  0  0  0  0  0  0  0  0  0  0
  -17.0040    7.6840   -4.2340 C   0  0  0  0  0  0  0  0  0  0  0  0
  -18.9980    4.3530   -3.3260 S   0  0  0  0  0  0  0  0  0  0  0  0
  -19.6230    3.6350   -4.3890 O   0  0  0  0  0  0  0  0  0  0  0  0
  -19.9610    5.0780   -2.4430 O   0  0  0  0  0  0  0  0  0  0  0  0
  -18.0550    3.3400   -2.4860 N   0  0  0  0  0  0  0  0  0  0  0  0
  -17.5010    3.6610   -1.2700 C   0  0  0  0  0  0  0  0  0  0  0  0
  -16.8460    2.6750   -0.6570 N   0  0  0  0  0  0  0  0  0  0  0  0
  -16.1610    2.7790    0.5160 C   0  0  0  0  0  0  0  0  0  0  0  0
  -16.2670    4.0040    1.1790 C   0  0  0  0  0  0  0  0  0  0  0  0
  -16.9370    5.0730    0.5540 C   0  0  0  0  0  0  0  0  0  0  0  0
  -17.5730    4.8610   -0.6550 C   0  0  0  0  0  0  0  0  0  0  0  0
  -15.6870   11.9420   -4.7640 N   0  0  0  0  0  0  0  0  0  0  0  0
  -14.3364   13.7454   -6.0713 H   0  0  0  0  0  0  0  0  0  0  0  0
  -13.9874    9.1447   -7.9979 H   0  0  0  0  0  0  0  0  0  0  0  0
  -12.3173   14.1660   -7.5008 H   0  0  0  0  0  0  0  0  0  0  0  0
  -11.3732   10.7452   -8.9980 H   0  0  0  0  0  0  0  0  0  0  0  0
  -12.7663   10.1483   -9.9621 H   0  0  0  0  0  0  0  0  0  0  0  0
  -12.3577   11.8975   -9.9621 H   0  0  0  0  0  0  0  0  0  0  0  0
  -16.0873    5.7463   -6.9584 H   0  0  0  0  0  0  0  0  0  0  0  0
  -17.3865    4.0993   -5.6326 H   0  0  0  0  0  0  0  0  0  0  0  0
  -18.3351    7.0105   -2.6659 H   0  0  0  0  0  0  0  0  0  0  0  0
  -16.8752    8.6911   -3.8107 H   0  0  0  0  0  0  0  0  0  0  0  0
  -17.8608    2.4094   -2.8824 H   0  0  0  0  0  0  0  0  0  0  0  0
  -15.5609    1.9488    0.9167 H   0  0  0  0  0  0  0  0  0  0  0  0
  -15.8308    4.1323    2.1806 H   0  0  0  0  0  0  0  0  0  0  0  0
  -16.9542    6.0677    1.0234 H   0  0  0  0  0  0  0  0  0  0  0  0
  -18.1435    5.6781   -1.1207 H   0  0  0  0  0  0  0  0  0  0  0  0
  -15.2784   11.8171   -3.8268 H   0  0  0  0  0  0  0  0  0  0  0  0
  -16.6675   12.2417   -4.8625 H   0  0  0  0  0  0  0  0  0  0  0  0
  1  2  2  0
  1  6  1  0
  2  3  1  0
  2 27  1  0
  3  4  2  0
  3  9  1  0
  4  5  1  0
  5  6  2  0
  5  8  1  0
  6  7  1  0
  9 10  2  0
 10 11  1  0
 11 12  2  0
 11 16  1  0
 12 13  1  0
 13 14  2  0
 14 15  1  0
 14 17  1  0
 15 16  2  0
 17 18  2  0
 17 19  2  0
 17 20  1  0
 20 21  1  0
 21 22  2  0
 21 26  1  0
 22 23  1  0
 23 24  2  0
 24 25  1  0
 25 26  2  0
  1 28  1  0
  4 29  1  0
  7 30  1  0
  8 31  1  0
  8 32  1  0
  8 33  1  0
 12 34  1  0
 13 35  1  0
 15 36  1  0
 16 37  1  0
 20 38  1  0
 23 39  1  0
 24 40  1  0
 25 41  1  0
 26 42  1  0
 27 43  1  0
 27 44  1  0
A    1
C1
A    2
C2
A    3
C3
A    4
C4
A    5
C5
A    6
C6
A    7
O7
A    8
C8
A    9
N9
A   10
N10
A   11
C11
A   12
C12
A   13
C13
A   14
C14
A   15
C15
A   16
C16
A   17
S17
A   18
O18
A   19
O19
A   20
N20
A   21
C21
A   22
N22
A   23
C23
A   24
C24
A   25
C25
A   26
C26
A   27
N41
M  END
