4NUE_NUE_A_201
     RDKit          3D

 47 49  0  0  0  0  0  0  0  0999 V2000
  -13.6920    3.4370   -0.3270 C   0  0  0  0  0  0  0  0  0  0  0  0
  -14.9250    4.0470   -0.5820 C   0  0  0  0  0  0  0  0  0  0  0  0
  -13.1450    2.5440   -1.2770 C   0  0  0  0  0  0  0  0  0  0  0  0
  -15.5810    3.7440   -1.7620 C   0  0  0  0  0  0  0  0  0  0  0  0
  -13.7720    2.2800   -2.4210 N   0  0  0  0  0  0  0  0  0  0  0  0
  -14.9860    2.8590   -2.6900 C   0  0  0  0  0  0  0  0  0  0  0  0
  -15.5770    2.5540   -3.8690 N   0  0  0  0  0  0  0  0  0  0  0  0
  -16.9140    3.3420   -4.4500 S   0  0  0  0  0  0  0  0  0  0  0  0
  -16.9000    6.0710   -4.4120 C   0  0  0  0  0  0  0  0  0  0  0  0
  -16.4730    4.8630   -5.0460 C   0  0  0  0  0  0  0  0  0  0  0  0
  -16.4940    7.3880   -4.9110 C   0  0  0  0  0  0  0  0  0  0  0  0
  -15.6720    5.0230   -6.2120 C   0  0  0  0  0  0  0  0  0  0  0  0
  -15.7000    7.4450   -6.0240 C   0  0  0  0  0  0  0  0  0  0  0  0
  -15.3000    6.2890   -6.6730 C   0  0  0  0  0  0  0  0  0  0  0  0
  -17.9500    3.8210   -3.5000 O   0  0  0  0  0  0  0  0  0  0  0  0
  -17.2400    2.6230   -5.6570 O   0  0  0  0  0  0  0  0  0  0  0  0
  -15.2090    8.6610   -6.5070 N   0  0  0  0  0  0  0  0  0  0  0  0
  -15.5960    9.7460   -5.9690 N   0  0  0  0  0  0  0  0  0  0  0  0
  -15.0190   10.9530   -6.3990 C   0  0  0  0  0  0  0  0  0  0  0  0
  -14.0160   11.0180   -7.4150 C   0  0  0  0  0  0  0  0  0  0  0  0
  -15.4910   12.1740   -5.8830 C   0  0  0  0  0  0  0  0  0  0  0  0
  -13.4630   12.2070   -7.7450 C   0  0  0  0  0  0  0  0  0  0  0  0
  -14.9880   13.3850   -6.2800 C   0  0  0  0  0  0  0  0  0  0  0  0
  -13.9830   13.4250   -7.2040 C   0  0  0  0  0  0  0  0  0  0  0  0
  -16.5090   12.1360   -4.9590 N   0  0  0  0  0  0  0  0  0  0  0  0
  -15.5070   14.6960   -5.7580 C   0  0  0  0  0  0  0  0  0  0  0  0
  -13.4250   14.5660   -7.5200 O   0  0  0  0  0  0  0  0  0  0  0  0
  -12.3540   12.2480   -8.7560 C   0  0  0  0  0  0  0  0  0  0  0  0
  -13.1514    3.6508    0.6069 H   0  0  0  0  0  0  0  0  0  0  0  0
  -15.3633    4.7520    0.1397 H   0  0  0  0  0  0  0  0  0  0  0  0
  -12.1813    2.0574   -1.0663 H   0  0  0  0  0  0  0  0  0  0  0  0
  -16.5629    4.1906   -1.9774 H   0  0  0  0  0  0  0  0  0  0  0  0
  -15.1748    1.7927   -4.4343 H   0  0  0  0  0  0  0  0  0  0  0  0
  -17.5501    6.0106   -3.5267 H   0  0  0  0  0  0  0  0  0  0  0  0
  -16.8196    8.3079   -4.4033 H   0  0  0  0  0  0  0  0  0  0  0  0
  -15.3385    4.1308   -6.7622 H   0  0  0  0  0  0  0  0  0  0  0  0
  -14.6739    6.3690   -7.5739 H   0  0  0  0  0  0  0  0  0  0  0  0
  -13.6937   10.1003   -7.9288 H   0  0  0  0  0  0  0  0  0  0  0  0
  -16.2913   12.1441   -3.9523 H   0  0  0  0  0  0  0  0  0  0  0  0
  -17.4891   12.0994   -5.2737 H   0  0  0  0  0  0  0  0  0  0  0  0
  -15.5010   14.6809   -4.6581 H   0  0  0  0  0  0  0  0  0  0  0  0
  -14.8648   15.5137   -6.1170 H   0  0  0  0  0  0  0  0  0  0  0  0
  -16.5349   14.8525   -6.1170 H   0  0  0  0  0  0  0  0  0  0  0  0
  -13.1230   15.1835   -6.8075 H   0  0  0  0  0  0  0  0  0  0  0  0
  -11.3852   12.2838   -8.2363 H   0  0  0  0  0  0  0  0  0  0  0  0
  -12.3989   11.3476   -9.3863 H   0  0  0  0  0  0  0  0  0  0  0  0
  -12.4653   13.1426   -9.3863 H   0  0  0  0  0  0  0  0  0  0  0  0
  1  2  2  0
  1  3  1  0
  2  4  1  0
  3  5  2  0
  4  6  2  0
  5  6  1  0
  6  7  1  0
  7  8  1  0
  8 10  1  0
  8 15  2  0
  8 16  2  0
  9 10  2  0
  9 11  1  0
 10 12  1  0
 11 13  2  0
 12 14  2  0
 13 14  1  0
 13 17  1  0
 17 18  2  0
 18 19  1  0
 19 20  2  0
 19 21  1  0
 20 22  1  0
 21 23  2  0
 21 25  1  0
 22 24  2  0
 22 28  1  0
 23 24  1  0
 23 26  1  0
 24 27  1  0
  1 29  1  0
  2 30  1  0
  3 31  1  0
  4 32  1  0
  7 33  1  0
  9 34  1  0
 11 35  1  0
 12 36  1  0
 14 37  1  0
 20 38  1  0
 25 39  1  0
 25 40  1  0
 26 41  1  0
 26 42  1  0
 26 43  1  0
 27 44  1  0
 28 45  1  0
 28 46  1  0
 28 47  1  0
A    1
C1
A    2
C2
A    3
C3
A    4
C4
A    5
N5
A    6
C6
A    7
N7
A    8
S8
A    9
C9
A   10
C10
A   11
C11
A   12
C12
A   13
C13
A   14
C14
A   15
O15
A   16
O16
A   17
N17
A   18
N18
A   19
C19
A   20
C20
A   21
C21
A   22
C22
A   23
C23
A   24
C24
A   25
N25
A   26
C26
A   27
O27
A   28
C28
M  END
