4NUS_2NK_A_1001
     RDKit          3D

 49 52  0  0  0  0  0  0  0  0999 V2000
  -15.8240    2.2260  -26.8690 C   0  0  0  0  0  0  0  0  0  0  0  0
  -17.1200    1.9860  -27.0890 N   0  0  0  0  0  0  0  0  0  0  0  0
  -17.9500    3.0310  -27.0680 C   0  0  0  0  0  0  0  0  0  0  0  0
  -17.5500    4.3290  -26.8050 C   0  0  0  0  0  0  0  0  0  0  0  0
  -16.1990    4.5740  -26.5410 C   0  0  0  0  0  0  0  0  0  0  0  0
  -15.2940    3.4880  -26.6080 C   0  0  0  0  0  0  0  0  0  0  0  0
  -13.8210    3.6330  -26.4250 C   0  0  0  0  0  0  0  0  0  0  0  0
  -15.8330    5.9520  -26.0930 C   0  0  0  0  0  0  0  0  0  0  0  0
  -13.1430    2.8640  -25.4720 C   0  0  0  0  0  0  0  0  0  0  0  0
  -11.8140    3.0890  -25.2130 C   0  0  0  0  0  0  0  0  0  0  0  0
  -11.1100    4.0720  -25.8800 C   0  0  0  0  0  0  0  0  0  0  0  0
  -11.7810    4.8030  -26.8370 C   0  0  0  0  0  0  0  0  0  0  0  0
  -13.1030    4.5960  -27.1380 C   0  0  0  0  0  0  0  0  0  0  0  0
  -11.1840    2.3200  -24.2910 F   0  0  0  0  0  0  0  0  0  0  0  0
  -16.2530    7.0730  -26.8050 C   0  0  0  0  0  0  0  0  0  0  0  0
  -15.8560    8.3480  -26.4390 C   0  0  0  0  0  0  0  0  0  0  0  0
  -15.0250    8.5490  -25.3280 C   0  0  0  0  0  0  0  0  0  0  0  0
  -14.6190    7.4270  -24.5980 C   0  0  0  0  0  0  0  0  0  0  0  0
  -15.0350    6.1570  -24.9660 C   0  0  0  0  0  0  0  0  0  0  0  0
   -9.8270    4.4380  -25.7010 O   0  0  0  0  0  0  0  0  0  0  0  0
  -11.1090    5.7920  -27.4660 F   0  0  0  0  0  0  0  0  0  0  0  0
  -14.6490    9.8620  -24.9210 N   0  0  0  0  0  0  0  0  0  0  0  0
  -15.3580   10.9590  -25.5920 C   0  0  0  0  0  0  0  0  0  0  0  0
  -14.7410   12.3030  -25.2500 C   0  0  0  0  0  0  0  0  0  0  0  0
  -14.7180   12.5130  -23.8050 N   0  0  0  0  0  0  0  0  0  0  0  0
  -13.9290   11.4580  -23.1720 C   0  0  0  0  0  0  0  0  0  0  0  0
  -14.5150   10.0830  -23.4750 C   0  0  0  0  0  0  0  0  0  0  0  0
  -14.1690   13.8400  -23.4820 C   0  0  0  0  0  0  0  0  0  0  0  0
  -15.1309    1.3723  -26.8957 H   0  0  0  0  0  0  0  0  0  0  0  0
  -19.0156    2.8494  -27.2720 H   0  0  0  0  0  0  0  0  0  0  0  0
  -18.2801    5.1517  -26.8036 H   0  0  0  0  0  0  0  0  0  0  0  0
  -13.6793    2.0735  -24.9266 H   0  0  0  0  0  0  0  0  0  0  0  0
  -13.5918    5.1810  -27.9310 H   0  0  0  0  0  0  0  0  0  0  0  0
  -16.9131    6.9428  -27.6752 H   0  0  0  0  0  0  0  0  0  0  0  0
  -16.1966    9.2132  -27.0268 H   0  0  0  0  0  0  0  0  0  0  0  0
  -13.9635    7.5537  -23.7238 H   0  0  0  0  0  0  0  0  0  0  0  0
  -14.7301    5.2929  -24.3575 H   0  0  0  0  0  0  0  0  0  0  0  0
   -9.4648    4.5413  -24.7854 H   0  0  0  0  0  0  0  0  0  0  0  0
  -16.4101   10.9553  -25.2711 H   0  0  0  0  0  0  0  0  0  0  0  0
  -15.2830   10.8083  -26.6790 H   0  0  0  0  0  0  0  0  0  0  0  0
  -13.7111   12.3350  -25.6351 H   0  0  0  0  0  0  0  0  0  0  0  0
  -15.3482   13.0961  -25.7109 H   0  0  0  0  0  0  0  0  0  0  0  0
  -12.8980   11.5018  -23.5528 H   0  0  0  0  0  0  0  0  0  0  0  0
  -13.9437   11.6138  -22.0832 H   0  0  0  0  0  0  0  0  0  0  0  0
  -15.5081   10.0069  -23.0082 H   0  0  0  0  0  0  0  0  0  0  0  0
  -13.8330    9.3204  -23.0709 H   0  0  0  0  0  0  0  0  0  0  0  0
  -14.1192   13.9603  -22.3897 H   0  0  0  0  0  0  0  0  0  0  0  0
  -13.1588   13.9324  -23.9074 H   0  0  0  0  0  0  0  0  0  0  0  0
  -14.8187   14.6191  -23.9074 H   0  0  0  0  0  0  0  0  0  0  0  0
 21 12  1  0
 13 12  2  0
 13  7  1  0
  2  3  1  0
  2  1  2  0
  3  4  2  0
  1  6  1  0
 12 11  1  0
 15 16  2  0
 15  8  1  0
  4  5  1  0
  6  5  2  0
  6  7  1  0
  5  8  1  0
 16 17  1  0
  7  9  2  0
  8 19  2  0
 11 20  1  0
 11 10  2  0
 23 24  1  0
 23 22  1  0
  9 10  1  0
 17 22  1  0
 17 18  2  0
 24 25  1  0
 10 14  1  0
 19 18  1  0
 22 27  1  0
 25 28  1  0
 25 26  1  0
 27 26  1  0
  1 29  1  0
  3 30  1  0
  4 31  1  0
  9 32  1  0
 13 33  1  0
 15 34  1  0
 16 35  1  0
 18 36  1  0
 19 37  1  0
 20 38  1  0
 23 39  1  0
 23 40  1  0
 24 41  1  0
 24 42  1  0
 26 43  1  0
 26 44  1  0
 27 45  1  0
 27 46  1  0
 28 47  1  0
 28 48  1  0
 28 49  1  0
A    1
C1
A    2
N1
A    3
C2
A    4
C3
A    5
C4
A    6
C5
A    7
C6
A    8
C7
A    9
C8
A   10
C9
A   11
C10
A   12
C11
A   13
C12
A   14
F1
A   15
C13
A   16
C14
A   17
C15
A   18
C16
A   19
C17
A   20
O1
A   21
F2
A   22
N2
A   23
C18
A   24
C19
A   25
N3
A   26
C20
A   27
C21
A   28
C22
M  END
