4JQM_1LQ_A_303
     RDKit          3D

 18 19  0  0  0  0  0  0  0  0999 V2000
  -15.1860    2.7280    5.0170 C   0  0  0  0  0  0  0  0  0  0  0  0
  -15.1810    1.9720    3.8520 C   0  0  0  0  0  0  0  0  0  0  0  0
  -16.3500    1.9150    3.0600 C   0  0  0  0  0  0  0  0  0  0  0  0
  -17.4640    2.6510    3.4530 C   0  0  0  0  0  0  0  0  0  0  0  0
  -17.4730    3.3500    4.6660 C   0  0  0  0  0  0  0  0  0  0  0  0
  -16.2860    3.4390    5.4110 C   0  0  0  0  0  0  0  0  0  0  0  0
  -16.2310    4.2070    6.5660 N   0  0  0  0  0  0  0  0  0  0  0  0
  -17.3120    4.8920    6.9700 C   0  0  0  0  0  0  0  0  0  0  0  0
  -18.5390    4.7890    6.2770 N   0  0  0  0  0  0  0  0  0  0  0  0
  -18.5940    4.1110    5.1370 C   0  0  0  0  0  0  0  0  0  0  0  0
  -19.7270    4.0430    4.5070 N   0  0  0  0  0  0  0  0  0  0  0  0
  -14.2800    2.7557    5.6403 H   0  0  0  0  0  0  0  0  0  0  0  0
  -14.2769    1.4235    3.5490 H   0  0  0  0  0  0  0  0  0  0  0  0
  -16.3790    1.2996    2.1487 H   0  0  0  0  0  0  0  0  0  0  0  0
  -18.3497    2.6839    2.8015 H   0  0  0  0  0  0  0  0  0  0  0  0
  -17.2418    5.5433    7.8537 H   0  0  0  0  0  0  0  0  0  0  0  0
  -20.6086    3.9901    5.0370 H   0  0  0  0  0  0  0  0  0  0  0  0
  -19.7444    4.0420    3.4771 H   0  0  0  0  0  0  0  0  0  0  0  0
  3  4  2  0
  3  2  1  0
  4  5  1  0
  2  1  2  0
 11 10  1  0
  5 10  1  0
  5  6  2  0
  1  6  1  0
 10  9  2  0
  6  7  1  0
  9  8  1  0
  7  8  2  0
  1 12  1  0
  2 13  1  0
  3 14  1  0
  4 15  1  0
  8 16  1  0
 11 17  1  0
 11 18  1  0
A    1
CAE
A    2
CAB
A    3
CAC
A    4
CAF
A    5
C5
A    6
C4
A    7
N3
A    8
C2
A    9
N1
A   10
C6
A   11
NAA
M  END
