4NVH_2NB_B_302
     RDKit          3D

 21 22  0  0  0  0  0  0  0  0999 V2000
  -20.7070    4.8230    6.8220 O   0  0  0  0  0  0  0  0  0  0  0  0
  -19.5330    5.3330    6.8570 N   0  0  0  0  0  0  0  0  0  0  0  0
  -19.2810    6.4100    7.5050 O   0  0  0  0  0  0  0  0  0  0  0  0
  -18.5080    4.6710    6.3430 C   0  0  0  0  0  0  0  0  0  0  0  0
  -17.2780    4.7280    6.9710 C   0  0  0  0  0  0  0  0  0  0  0  0
  -16.2150    4.0300    6.4390 N   0  0  0  0  0  0  0  0  0  0  0  0
  -16.3470    3.3020    5.3230 C   0  0  0  0  0  0  0  0  0  0  0  0
  -15.2370    2.6280    4.8470 C   0  0  0  0  0  0  0  0  0  0  0  0
  -15.3320    1.8680    3.6950 C   0  0  0  0  0  0  0  0  0  0  0  0
  -16.5490    1.7870    3.0300 C   0  0  0  0  0  0  0  0  0  0  0  0
  -17.6640    2.4630    3.5000 C   0  0  0  0  0  0  0  0  0  0  0  0
  -17.5660    3.2210    4.6580 C   0  0  0  0  0  0  0  0  0  0  0  0
  -18.6530    3.9180    5.1840 C   0  0  0  0  0  0  0  0  0  0  0  0
  -19.8290    3.8590    4.5700 N   0  0  0  0  0  0  0  0  0  0  0  0
  -17.1487    5.3244    7.8862 H   0  0  0  0  0  0  0  0  0  0  0  0
  -14.2794    2.6962    5.3840 H   0  0  0  0  0  0  0  0  0  0  0  0
  -14.4519    1.3327    3.3091 H   0  0  0  0  0  0  0  0  0  0  0  0
  -16.6289    1.1778    2.1176 H   0  0  0  0  0  0  0  0  0  0  0  0
  -18.6196    2.3990    2.9589 H   0  0  0  0  0  0  0  0  0  0  0  0
  -20.6970    3.8155    5.1228 H   0  0  0  0  0  0  0  0  0  0  0  0
  -19.8732    3.8568    3.5409 H   0  0  0  0  0  0  0  0  0  0  0  0
 10 11  1  0
 10  9  2  0
 11 12  2  0
  9  8  1  0
 14 13  1  0
 12 13  1  0
 12  7  1  0
  8  7  2  0
 13  4  2  0
  7  6  1  0
  4  2  1  0
  4  5  1  0
  6  5  2  0
  1  2  1  0
  2  3  2  0
  5 15  1  0
  8 16  1  0
  9 17  1  0
 10 18  1  0
 11 19  1  0
 14 20  1  0
 14 21  1  0
M  CHG  2   1  -1   2   1
A    1
OAB
A    2
NAN
A    3
OAC
A    4
CAK
A    5
CAH
A    6
NAI
A    7
CAL
A    8
CAF
A    9
CAD
A   10
CAE
A   11
CAG
A   12
CAM
A   13
CAJ
A   14
NAA
M  END
