4NVL_2NZ_A_302
     RDKit          3D

 23 24  0  0  0  0  0  0  0  0999 V2000
  -29.2910  -67.0950   -4.3970 C   0  0  0  0  0  0  0  0  0  0  0  0
  -30.6360  -67.8330   -4.6630 C   0  0  0  0  0  0  0  0  0  0  0  0
  -31.5840  -67.1940   -5.1290 O   0  0  0  0  0  0  0  0  0  0  0  0
  -30.6820  -69.2810   -4.2350 C   0  0  0  0  0  0  0  0  0  0  0  0
  -32.0840  -69.9110   -4.4020 N   0  0  0  0  0  0  0  0  0  0  0  0
  -32.7350  -70.7120   -3.4910 C   0  0  0  0  0  0  0  0  0  0  0  0
  -32.4200  -71.0950   -2.2060 C   0  0  0  0  0  0  0  0  0  0  0  0
  -33.2910  -71.8950   -1.5040 C   0  0  0  0  0  0  0  0  0  0  0  0
  -34.5120  -72.2380   -2.0730 C   0  0  0  0  0  0  0  0  0  0  0  0
  -34.8190  -71.8200   -3.3320 C   0  0  0  0  0  0  0  0  0  0  0  0
  -33.9540  -71.0330   -4.0230 C   0  0  0  0  0  0  0  0  0  0  0  0
  -34.0110  -70.4180   -5.2430 N   0  0  0  0  0  0  0  0  0  0  0  0
  -32.8880  -69.7790   -5.4820 C   0  0  0  0  0  0  0  0  0  0  0  0
  -29.1296  -67.0064   -3.3125 H   0  0  0  0  0  0  0  0  0  0  0  0
  -28.4646  -67.6660   -4.8453 H   0  0  0  0  0  0  0  0  0  0  0  0
  -29.3287  -66.0912   -4.8453 H   0  0  0  0  0  0  0  0  0  0  0  0
  -29.9657  -69.8508   -4.8452 H   0  0  0  0  0  0  0  0  0  0  0  0
  -30.4274  -69.3184   -3.1655 H   0  0  0  0  0  0  0  0  0  0  0  0
  -31.4782  -70.7633   -1.7444 H   0  0  0  0  0  0  0  0  0  0  0  0
  -33.0239  -72.2601   -0.5013 H   0  0  0  0  0  0  0  0  0  0  0  0
  -35.2308  -72.8476   -1.5057 H   0  0  0  0  0  0  0  0  0  0  0  0
  -35.7719  -72.1210   -3.7916 H   0  0  0  0  0  0  0  0  0  0  0  0
  -32.6433  -69.2302   -6.4034 H   0  0  0  0  0  0  0  0  0  0  0  0
 13 12  2  0
 13  5  1  0
 12 11  1  0
  3  2  2  0
  2  1  1  0
  2  4  1  0
  5  4  1  0
  5  6  1  0
 11  6  2  0
 11 10  1  0
  6  7  1  0
 10  9  2  0
  7  8  2  0
  9  8  1  0
  1 14  1  0
  1 15  1  0
  1 16  1  0
  4 17  1  0
  4 18  1  0
  7 19  1  0
  8 20  1  0
  9 21  1  0
 10 22  1  0
 13 23  1  0
A    1
CAA
A    2
C
A    3
O
A    4
CA
A    5
N
A    6
CAL
A    7
CAF
A    8
CAD
A    9
CAC
A   10
CAE
A   11
CAK
A   12
NAI
A   13
CAG
M  END
