4NX2_2LT_A_401
     RDKit          3D

 24 24  0  0  0  0  0  0  0  0999 V2000
   15.8920  -11.5740  -10.3720 N   0  0  0  0  0  0  0  0  0  0  0  0
   14.8880  -11.9940   -9.4680 C   0  0  0  0  0  0  0  0  0  0  0  0
   13.5440  -11.9700  -10.1200 C   0  0  0  0  0  0  0  0  0  0  0  0
   13.4750  -11.9190  -11.3490 O   0  0  0  0  0  0  0  0  0  0  0  0
   14.8020  -11.1380   -8.2650 C   0  0  0  0  0  0  0  0  0  0  0  0
   16.0380  -10.9560   -7.3970 C   0  0  0  0  0  0  0  0  0  0  0  0
   16.7190   -9.7290   -7.4480 C   0  0  0  0  0  0  0  0  0  0  0  0
   16.4640  -12.0280   -6.5890 C   0  0  0  0  0  0  0  0  0  0  0  0
   17.8690   -9.5560   -6.6340 C   0  0  0  0  0  0  0  0  0  0  0  0
   17.6060  -11.8690   -5.7990 C   0  0  0  0  0  0  0  0  0  0  0  0
   18.2710  -10.6490   -5.8460 C   0  0  0  0  0  0  0  0  0  0  0  0
   19.3140  -10.5600   -5.0390 O   0  0  0  0  0  0  0  0  0  0  0  0
   12.5130  -11.9920   -9.4240 O   0  0  0  0  0  0  0  0  0  0  0  0
   18.6070   -8.2570   -6.6720 Cl  0  0  0  0  0  0  0  0  0  0  0  0
   18.0910  -12.9670   -4.9140 Cl  0  0  0  0  0  0  0  0  0  0  0  0
   16.7081  -11.2326   -9.8444 H   0  0  0  0  0  0  0  0  0  0  0  0
   16.1740  -12.3676  -10.9649 H   0  0  0  0  0  0  0  0  0  0  0  0
   15.1717  -13.0137   -9.1684 H   0  0  0  0  0  0  0  0  0  0  0  0
   14.4960  -10.1371   -8.6033 H   0  0  0  0  0  0  0  0  0  0  0  0
   14.0981  -11.6736   -7.6111 H   0  0  0  0  0  0  0  0  0  0  0  0
   16.3687   -8.9191   -8.1048 H   0  0  0  0  0  0  0  0  0  0  0  0
   15.9064  -12.9761   -6.5798 H   0  0  0  0  0  0  0  0  0  0  0  0
   19.1830  -10.5712   -4.0578 H   0  0  0  0  0  0  0  0  0  0  0  0
   12.5823  -11.9905   -8.4364 H   0  0  0  0  0  0  0  0  0  0  0  0
  4  3  2  0
  1  2  1  0
  3  2  1  0
  3 13  1  0
  2  5  1  0
  5  6  1  0
  7  6  2  0
  7  9  1  0
  6  8  1  0
 14  9  1  0
  9 11  2  0
  8 10  2  0
 11 10  1  0
 11 12  1  0
 10 15  1  0
  1 16  1  0
  1 17  1  0
  2 18  1  0
  5 19  1  0
  5 20  1  0
  7 21  1  0
  8 22  1  0
 12 23  1  0
 13 24  1  0
A    1
N
A    2
CA
A    3
C
A    4
O
A    5
CB
A    6
CG
A    7
CD1
A    8
CD2
A    9
CE1
A   10
CE2
A   11
CZ
A   12
OH
A   13
OXT
A   14
CL1
A   15
CL2
M  END
