4NXO_2H7_A_1102
     RDKit          3D

 55 58  0  0  0  0  0  0  0  0999 V2000
  168.3790    2.8390  -61.3860 C   0  0  0  0  0  0  0  0  0  0  0  0
  168.4730    4.7850  -62.8170 C   0  0  0  0  0  0  0  0  0  0  0  0
  170.1600    4.4540  -61.1320 C   0  0  0  0  0  0  0  0  0  0  0  0
  161.4850    4.8160  -62.9400 C   0  0  0  0  0  0  0  0  0  0  0  0
  162.3840    5.7700  -63.5790 C   0  0  0  0  0  0  0  0  0  0  0  0
  163.6780    5.4200  -63.8680 C   0  0  0  0  0  0  0  0  0  0  0  0
  163.2850    3.1880  -62.9200 C   0  0  0  0  0  0  0  0  0  0  0  0
  162.7920    8.0050  -64.5380 C   0  0  0  0  0  0  0  0  0  0  0  0
  164.5710    6.3580  -64.5010 C   0  0  0  0  0  0  0  0  0  0  0  0
  161.6140    1.1080  -62.1700 C   0  0  0  0  0  0  0  0  0  0  0  0
  162.5280    0.6580  -61.1450 N   0  0  0  0  0  0  0  0  0  0  0  0
  163.8860    0.8260  -61.2470 C   0  0  0  0  0  0  0  0  0  0  0  0
  164.4370    0.2590  -60.0520 C   0  0  0  0  0  0  0  0  0  0  0  0
  163.3730   -0.2070  -59.3200 N   0  0  0  0  0  0  0  0  0  0  0  0
  162.2510    0.0450  -60.0010 N   0  0  0  0  0  0  0  0  0  0  0  0
  165.9380    0.2320  -59.7230 C   0  0  0  0  0  0  0  0  0  0  0  0
  166.5100    1.4960  -60.1110 N   0  0  0  0  0  0  0  0  0  0  0  0
  167.7100    1.5110  -60.9430 C   0  0  0  0  0  0  0  0  0  0  0  0
  168.2150    0.4480  -61.2930 O   0  0  0  0  0  0  0  0  0  0  0  0
  167.8430    3.5880  -62.4290 C   0  0  0  0  0  0  0  0  0  0  0  0
  169.6260    5.2080  -62.1720 C   0  0  0  0  0  0  0  0  0  0  0  0
  169.5330    3.2660  -60.7450 C   0  0  0  0  0  0  0  0  0  0  0  0
  161.0410    2.4890  -61.9370 C   0  0  0  0  0  0  0  0  0  0  0  0
  161.9470    3.5380  -62.6160 C   0  0  0  0  0  0  0  0  0  0  0  0
  164.1560    4.1010  -63.5350 C   0  0  0  0  0  0  0  0  0  0  0  0
  161.9210    7.0880  -63.9160 C   0  0  0  0  0  0  0  0  0  0  0  0
  164.1170    7.6410  -64.8270 C   0  0  0  0  0  0  0  0  0  0  0  0
  160.6960    0.0570  -62.7600 C   0  0  0  0  0  0  0  0  0  0  0  0
  159.3990   -0.2080  -62.0220 C   0  0  0  0  0  0  0  0  0  0  0  0
  159.0720   -1.5450  -61.6540 N   0  0  0  0  0  0  0  0  0  0  0  0
  157.9050   -1.8100  -60.9910 O   0  0  0  0  0  0  0  0  0  0  0  0
  158.6350    0.6890  -61.7490 O   0  0  0  0  0  0  0  0  0  0  0  0
  170.2330    6.3590  -62.5480 F   0  0  0  0  0  0  0  0  0  0  0  0
  168.0498    5.3872  -63.6344 H   0  0  0  0  0  0  0  0  0  0  0  0
  171.0714    4.7911  -60.6165 H   0  0  0  0  0  0  0  0  0  0  0  0
  160.4470    5.1016  -62.7140 H   0  0  0  0  0  0  0  0  0  0  0  0
  163.6490    2.1807  -62.6693 H   0  0  0  0  0  0  0  0  0  0  0  0
  162.4319    9.0112  -64.7984 H   0  0  0  0  0  0  0  0  0  0  0  0
  165.6071    6.0659  -64.7273 H   0  0  0  0  0  0  0  0  0  0  0  0
  162.2622    1.2782  -63.0423 H   0  0  0  0  0  0  0  0  0  0  0  0
  164.4370    1.2977  -62.0740 H   0  0  0  0  0  0  0  0  0  0  0  0
  166.0792    0.0758  -58.6433 H   0  0  0  0  0  0  0  0  0  0  0  0
  166.4298   -0.5886  -60.2659 H   0  0  0  0  0  0  0  0  0  0  0  0
  166.0774    2.3792  -59.8050 H   0  0  0  0  0  0  0  0  0  0  0  0
  166.9340    3.2471  -62.9462 H   0  0  0  0  0  0  0  0  0  0  0  0
  169.9574    2.6657  -59.9268 H   0  0  0  0  0  0  0  0  0  0  0  0
  160.9927    2.6894  -60.8565 H   0  0  0  0  0  0  0  0  0  0  0  0
  160.0286    2.5448  -62.3636 H   0  0  0  0  0  0  0  0  0  0  0  0
  165.1933    3.8130  -63.7608 H   0  0  0  0  0  0  0  0  0  0  0  0
  160.8856    7.3815  -63.6883 H   0  0  0  0  0  0  0  0  0  0  0  0
  164.7953    8.3613  -65.3076 H   0  0  0  0  0  0  0  0  0  0  0  0
  160.4391    0.3747  -63.7813 H   0  0  0  0  0  0  0  0  0  0  0  0
  161.2601   -0.8854  -62.6992 H   0  0  0  0  0  0  0  0  0  0  0  0
  159.7160   -2.3141  -61.8878 H   0  0  0  0  0  0  0  0  0  0  0  0
  158.0646   -1.7738  -60.0146 H   0  0  0  0  0  0  0  0  0  0  0  0
 27  8  1  0
 27  9  2  0
  8 26  2  0
  9  6  1  0
 26  5  1  0
  6  5  1  0
  6 25  2  0
  5  4  2  0
 25  7  1  0
 28 10  1  0
 28 29  1  0
  4 24  1  0
  7 24  2  0
 24 23  1  0
 10 23  1  0
 10 11  1  0
 29 30  1  0
 29 32  2  0
  2 20  2  0
  2 21  1  0
 30 31  1  0
 20  1  1  0
 33 21  1  0
 19 18  2  0
 21  3  2  0
 11 12  1  0
 11 15  1  0
 12 13  2  0
  1 18  1  0
  1 22  2  0
 18 17  1  0
  3 22  1  0
 15 14  2  0
 13 14  1  0
 13 16  1  0
 17 16  1  0
  2 34  1  0
  3 35  1  0
  4 36  1  0
  7 37  1  0
  8 38  1  0
  9 39  1  0
 10 40  1  0
 12 41  1  0
 16 42  1  0
 16 43  1  0
 17 44  1  0
 20 45  1  0
 22 46  1  0
 23 47  1  0
 23 48  1  0
 25 49  1  0
 26 50  1  0
 27 51  1  0
 28 52  1  0
 28 53  1  0
 30 54  1  0
 31 55  1  0
A    1
C10
A    2
C13
A    3
C15
A    4
C20
A    5
C21
A    6
C22
A    7
C24
A    8
C26
A    9
C28
A   10
C01
A   11
N02
A   12
C03
A   13
C04
A   14
N05
A   15
N06
A   16
C07
A   17
N08
A   18
C09
A   19
O11
A   20
C12
A   21
C14
A   22
C16
A   23
C18
A   24
C19
A   25
C23
A   26
C25
A   27
C27
A   28
C29
A   29
C30
A   30
N31
A   31
O32
A   32
O33
A   33
F17
M  END
