4NYW_2O3_A_1202
     RDKit          3D

 54 57  0  0  0  0  0  0  0  0999 V2000
   14.7460   28.9260    0.8740 C   0  0  0  0  0  0  0  0  0  0  0  0
   14.3880   30.3610    0.8770 C   0  0  0  0  0  0  0  0  0  0  0  0
   15.5640   31.2100    0.3930 C   0  0  0  0  0  0  0  0  0  0  0  0
   16.2450   30.6770   -0.7050 C   0  0  0  0  0  0  0  0  0  0  0  0
   17.0980   31.5230   -1.4210 C   0  0  0  0  0  0  0  0  0  0  0  0
   17.8340   31.0860   -2.5030 C   0  0  0  0  0  0  0  0  0  0  0  0
   17.7280   29.7750   -2.9190 C   0  0  0  0  0  0  0  0  0  0  0  0
   16.8850   28.9200   -2.1950 C   0  0  0  0  0  0  0  0  0  0  0  0
   16.1170   29.3480   -1.1060 C   0  0  0  0  0  0  0  0  0  0  0  0
   15.3390   28.4690   -0.4030 N   0  0  0  0  0  0  0  0  0  0  0  0
   15.4160   27.0080   -0.5950 C   0  0  0  0  0  0  0  0  0  0  0  0
   16.7270   26.5370    0.0890 C   0  0  0  0  0  0  0  0  0  0  0  0
   17.1870   25.2300   -0.5350 C   0  0  0  0  0  0  0  0  0  0  0  0
   17.8650   25.5420   -1.8270 N   0  0  0  0  0  0  0  0  0  0  0  0
   19.1620   25.8970   -1.9050 C   0  0  0  0  0  0  0  0  0  0  0  0
   19.8460   25.9480   -0.8760 O   0  0  0  0  0  0  0  0  0  0  0  0
   19.7000   26.2460   -3.1720 C   0  0  0  0  0  0  0  0  0  0  0  0
   21.0550   26.5920   -3.3480 C   0  0  0  0  0  0  0  0  0  0  0  0
   21.9820   26.5830   -2.2760 N   0  0  0  0  0  0  0  0  0  0  0  0
   23.3660   26.2620   -2.5720 C   0  0  0  0  0  0  0  0  0  0  0  0
   24.2200   26.5300   -1.3100 C   0  0  0  0  0  0  0  0  0  0  0  0
   23.8740   26.9250   -3.7150 C   0  0  0  0  0  0  0  0  0  0  0  0
   25.0320   27.2690   -3.8710 O   0  0  0  0  0  0  0  0  0  0  0  0
   22.9640   27.2730   -4.7110 N   0  0  0  0  0  0  0  0  0  0  0  0
   21.6060   26.9190   -4.5870 C   0  0  0  0  0  0  0  0  0  0  0  0
   20.8060   26.9940   -5.7210 C   0  0  0  0  0  0  0  0  0  0  0  0
   19.4750   26.6560   -5.5790 C   0  0  0  0  0  0  0  0  0  0  0  0
   18.9160   26.3300   -4.3420 C   0  0  0  0  0  0  0  0  0  0  0  0
   13.8353   28.3394    1.0648 H   0  0  0  0  0  0  0  0  0  0  0  0
   15.5068   28.7803    1.6550 H   0  0  0  0  0  0  0  0  0  0  0  0
   14.1197   30.6645    1.8997 H   0  0  0  0  0  0  0  0  0  0  0  0
   13.5361   30.5154    0.1984 H   0  0  0  0  0  0  0  0  0  0  0  0
   16.2779   31.3149    1.2233 H   0  0  0  0  0  0  0  0  0  0  0  0
   15.1439   32.1726    0.0660 H   0  0  0  0  0  0  0  0  0  0  0  0
   17.1852   32.5746   -1.1103 H   0  0  0  0  0  0  0  0  0  0  0  0
   18.5030   31.7806   -3.0321 H   0  0  0  0  0  0  0  0  0  0  0  0
   18.2883   29.4112   -3.7929 H   0  0  0  0  0  0  0  0  0  0  0  0
   16.8244   27.8640   -2.4968 H   0  0  0  0  0  0  0  0  0  0  0  0
   14.5482   26.5181   -0.1292 H   0  0  0  0  0  0  0  0  0  0  0  0
   15.4121   26.7486   -1.6640 H   0  0  0  0  0  0  0  0  0  0  0  0
   17.5060   27.3017   -0.0471 H   0  0  0  0  0  0  0  0  0  0  0  0
   16.5441   26.3844    1.1629 H   0  0  0  0  0  0  0  0  0  0  0  0
   16.3192   24.5792   -0.7178 H   0  0  0  0  0  0  0  0  0  0  0  0
   17.8809   24.7100    0.1418 H   0  0  0  0  0  0  0  0  0  0  0  0
   17.3173   25.4833   -2.6973 H   0  0  0  0  0  0  0  0  0  0  0  0
   21.6820   26.7981   -1.3144 H   0  0  0  0  0  0  0  0  0  0  0  0
   23.4190   25.1951   -2.8345 H   0  0  0  0  0  0  0  0  0  0  0  0
   23.6153   26.3402   -0.4110 H   0  0  0  0  0  0  0  0  0  0  0  0
   25.0949   25.8632   -1.3109 H   0  0  0  0  0  0  0  0  0  0  0  0
   24.5570   27.5771   -1.3109 H   0  0  0  0  0  0  0  0  0  0  0  0
   23.2853   27.7911   -5.5412 H   0  0  0  0  0  0  0  0  0  0  0  0
   21.2164   27.3096   -6.6916 H   0  0  0  0  0  0  0  0  0  0  0  0
   18.8325   26.6431   -6.4718 H   0  0  0  0  0  0  0  0  0  0  0  0
   17.8356   26.1334   -4.2778 H   0  0  0  0  0  0  0  0  0  0  0  0
 26 27  1  0
 26 25  2  0
 27 28  2  0
 24 25  1  0
 24 22  1  0
 25 18  1  0
 28 17  1  0
 23 22  2  0
 22 20  1  0
 18 17  2  0
 18 19  1  0
 17 15  1  0
  7  6  2  0
  7  8  1  0
 20 19  1  0
 20 21  1  0
  6  5  1  0
  8  9  2  0
 15 14  1  0
 15 16  2  0
 14 13  1  0
  5  4  2  0
  9  4  1  0
  9 10  1  0
  4  3  1  0
 11 10  1  0
 11 12  1  0
 13 12  1  0
 10  1  1  0
  3  2  1  0
  1  2  1  0
  1 29  1  0
  1 30  1  0
  2 31  1  0
  2 32  1  0
  3 33  1  0
  3 34  1  0
  5 35  1  0
  6 36  1  0
  7 37  1  0
  8 38  1  0
 11 39  1  0
 11 40  1  0
 12 41  1  0
 12 42  1  0
 13 43  1  0
 13 44  1  0
 14 45  1  0
 19 46  1  0
 20 47  1  0
 21 48  1  0
 21 49  1  0
 21 50  1  0
 24 51  1  0
 26 52  1  0
 27 53  1  0
 28 54  1  0
A    1
CAS
A    2
CAT
A    3
CAU
A    4
CAV
A    5
CBA
A    6
CAZ
A    7
CAY
A    8
CAX
A    9
CAW
A   10
NAR
A   11
CAQ
A   12
CAP
A   13
CAO
A   14
NAN
A   15
CAM
A   16
OBB
A   17
CAL
A   18
CAG
A   19
N
A   20
CA
A   21
CB
A   22
C
A   23
O
A   24
NAC
A   25
CAH
A   26
CAI
A   27
CAJ
A   28
CAK
M  END
