4NZ2_2QJ_A_504
     RDKit          3D

 39 40  0  0  0  0  0  0  0  0999 V2000
  -64.8780  -40.0800  -19.4560 C   0  0  0  0  0  0  0  0  0  0  0  0
  -64.7760  -40.5960  -20.8770 C   0  0  0  0  0  0  0  0  0  0  0  0
  -64.2590  -42.0120  -20.8890 C   0  0  0  0  0  0  0  0  0  0  0  0
  -64.6130  -42.8490  -20.0680 O   0  0  0  0  0  0  0  0  0  0  0  0
  -63.4050  -42.2230  -21.9530 N   0  0  0  0  0  0  0  0  0  0  0  0
  -62.5880  -43.3450  -22.1760 C   0  0  0  0  0  0  0  0  0  0  0  0
  -62.4610  -44.3690  -21.2550 C   0  0  0  0  0  0  0  0  0  0  0  0
  -61.6450  -45.4460  -21.5300 C   0  0  0  0  0  0  0  0  0  0  0  0
  -60.9630  -45.4720  -22.7280 C   0  0  0  0  0  0  0  0  0  0  0  0
  -61.0710  -44.4660  -23.6590 C   0  0  0  0  0  0  0  0  0  0  0  0
  -61.8930  -43.4000  -23.3700 C   0  0  0  0  0  0  0  0  0  0  0  0
  -62.0320  -42.1430  -24.5340 Cl  0  0  0  0  0  0  0  0  0  0  0  0
  -59.9190  -46.8590  -23.0830 S   0  0  0  0  0  0  0  0  0  0  0  0
  -59.1590  -46.5560  -24.2810 O   0  0  0  0  0  0  0  0  0  0  0  0
  -59.2800  -47.1870  -21.8240 O   0  0  0  0  0  0  0  0  0  0  0  0
  -61.0330  -48.1750  -23.5070 C   0  0  0  0  0  0  0  0  0  0  0  0
  -62.0780  -47.9000  -24.3660 C   0  0  0  0  0  0  0  0  0  0  0  0
  -62.9570  -48.9080  -24.7030 C   0  0  0  0  0  0  0  0  0  0  0  0
  -62.7760  -50.1730  -24.1800 C   0  0  0  0  0  0  0  0  0  0  0  0
  -61.7200  -50.4310  -23.3280 C   0  0  0  0  0  0  0  0  0  0  0  0
  -60.8340  -49.4330  -22.9770 C   0  0  0  0  0  0  0  0  0  0  0  0
  -61.4940  -52.1780  -22.6330 Br  0  0  0  0  0  0  0  0  0  0  0  0
  -66.0920  -40.5510  -21.6330 C   0  0  0  0  0  0  0  0  0  0  0  0
  -66.6140  -39.2940  -21.6580 F   0  0  0  0  0  0  0  0  0  0  0  0
  -65.9040  -40.9320  -22.9270 F   0  0  0  0  0  0  0  0  0  0  0  0
  -67.0190  -41.3870  -21.0870 F   0  0  0  0  0  0  0  0  0  0  0  0
  -63.8350  -39.7770  -21.5570 O   0  0  0  0  0  0  0  0  0  0  0  0
  -64.7141  -40.9093  -18.7521 H   0  0  0  0  0  0  0  0  0  0  0  0
  -64.1159  -39.3039  -19.2921 H   0  0  0  0  0  0  0  0  0  0  0  0
  -65.8781  -39.6522  -19.2921 H   0  0  0  0  0  0  0  0  0  0  0  0
  -63.3617  -41.4763  -22.6612 H   0  0  0  0  0  0  0  0  0  0  0  0
  -63.0108  -44.3243  -20.3033 H   0  0  0  0  0  0  0  0  0  0  0  0
  -61.5402  -46.2687  -20.8074 H   0  0  0  0  0  0  0  0  0  0  0  0
  -60.5164  -44.5116  -24.6078 H   0  0  0  0  0  0  0  0  0  0  0  0
  -62.2082  -46.8881  -24.7772 H   0  0  0  0  0  0  0  0  0  0  0  0
  -63.7968  -48.7055  -25.3840 H   0  0  0  0  0  0  0  0  0  0  0  0
  -63.4764  -50.9794  -24.4432 H   0  0  0  0  0  0  0  0  0  0  0  0
  -59.9945  -49.6344  -22.2953 H   0  0  0  0  0  0  0  0  0  0  0  0
  -63.2795  -39.2935  -20.8954 H   0  0  0  0  0  0  0  0  0  0  0  0
 18 17  2  0
 18 19  1  0
 12 11  1  0
 17 16  1  0
 14 13  2  0
 19 20  2  0
 10 11  1  0
 10  9  2  0
 16 13  1  0
 16 21  2  0
 11  6  2  0
 20 21  1  0
 20 22  1  0
 13  9  1  0
 13 15  2  0
 25 23  1  0
  9  8  1  0
  6  5  1  0
  6  7  1  0
  5  3  1  0
 24 23  1  0
 23 26  1  0
 23  2  1  0
 27  2  1  0
  8  7  2  0
  3  2  1  0
  3  4  2  0
  2  1  1  0
  1 28  1  0
  1 29  1  0
  1 30  1  0
  5 31  1  0
  7 32  1  0
  8 33  1  0
 10 34  1  0
 17 35  1  0
 18 36  1  0
 19 37  1  0
 21 38  1  0
 27 39  1  0
A    1
C1
A    2
C2
A    3
C3
A    4
O4
A    5
N5
A    6
C6
A    7
C7
A    8
C8
A    9
C9
A   10
C10
A   11
C11
A   12
CL1
A   13
S13
A   14
O14
A   15
O15
A   16
C16
A   17
C17
A   18
C18
A   19
C19
A   20
C20
A   21
C21
A   22
BR2
A   23
C23
A   24
F24
A   25
F25
A   26
F26
A   27
O27
M  END
