4J3F_1JT_A_301
     RDKit          3D

 45 48  0  0  0  0  0  0  0  0999 V2000
    3.6640   11.0820    9.3490 C   0  0  0  0  0  0  0  0  0  0  0  0
    3.8380   10.9790    7.9510 C   0  0  0  0  0  0  0  0  0  0  0  0
    4.1480   10.0660   10.1860 C   0  0  0  0  0  0  0  0  0  0  0  0
    4.4510    9.8460    7.4140 C   0  0  0  0  0  0  0  0  0  0  0  0
    4.8960    8.8400    8.2570 C   0  0  0  0  0  0  0  0  0  0  0  0
    4.7630    8.9400    9.6410 C   0  0  0  0  0  0  0  0  0  0  0  0
    5.2800    7.8010   10.2580 N   0  0  0  0  0  0  0  0  0  0  0  0
    5.6930    7.0540    9.2610 C   0  0  0  0  0  0  0  0  0  0  0  0
    5.4970    7.6100    8.0340 N   0  0  0  0  0  0  0  0  0  0  0  0
    5.8540    7.0440    6.7280 C   0  0  0  0  0  0  0  0  0  0  0  0
    7.2440    7.4350    6.2720 C   0  0  0  0  0  0  0  0  0  0  0  0
    7.5030    8.7040    5.7550 C   0  0  0  0  0  0  0  0  0  0  0  0
    8.7750    9.0900    5.3340 C   0  0  0  0  0  0  0  0  0  0  0  0
    9.8120    8.1660    5.4640 C   0  0  0  0  0  0  0  0  0  0  0  0
    9.5760    6.8890    5.9670 C   0  0  0  0  0  0  0  0  0  0  0  0
    8.2960    6.5370    6.3610 C   0  0  0  0  0  0  0  0  0  0  0  0
    3.4020   12.0870    7.0240 C   0  0  0  0  0  0  0  0  0  0  0  0
    2.3010   12.9580    7.5900 C   0  0  0  0  0  0  0  0  0  0  0  0
    2.6110   13.4100    9.0090 C   0  0  0  0  0  0  0  0  0  0  0  0
    2.8770   12.2220    9.9550 C   0  0  0  0  0  0  0  0  0  0  0  0
   11.0530    8.6200    5.0950 O   0  0  0  0  0  0  0  0  0  0  0  0
   12.1760    7.7800    5.3830 C   0  0  0  0  0  0  0  0  0  0  0  0
    9.0080   10.4510    4.7220 C   0  0  0  0  0  0  0  0  0  0  0  0
    4.0419   10.1581   11.2770 H   0  0  0  0  0  0  0  0  0  0  0  0
    4.5805    9.7518    6.3257 H   0  0  0  0  0  0  0  0  0  0  0  0
    6.1562    6.0666    9.4041 H   0  0  0  0  0  0  0  0  0  0  0  0
    5.1278    7.3992    5.9820 H   0  0  0  0  0  0  0  0  0  0  0  0
    5.8376    5.9488    6.8292 H   0  0  0  0  0  0  0  0  0  0  0  0
    6.6758    9.4249    5.6767 H   0  0  0  0  0  0  0  0  0  0  0  0
   10.4002    6.1654    6.0507 H   0  0  0  0  0  0  0  0  0  0  0  0
    8.1106    5.5257    6.7520 H   0  0  0  0  0  0  0  0  0  0  0  0
    3.0405   11.6348    6.0887 H   0  0  0  0  0  0  0  0  0  0  0  0
    4.2759   12.7363    6.8668 H   0  0  0  0  0  0  0  0  0  0  0  0
    2.1853   13.8458    6.9509 H   0  0  0  0  0  0  0  0  0  0  0  0
    1.3748   12.3651    7.6148 H   0  0  0  0  0  0  0  0  0  0  0  0
    3.5032   14.0531    8.9887 H   0  0  0  0  0  0  0  0  0  0  0  0
    1.7334   13.9536    9.3890 H   0  0  0  0  0  0  0  0  0  0  0  0
    3.4363   12.5976   10.8245 H   0  0  0  0  0  0  0  0  0  0  0  0
    1.8904   11.8095   10.2129 H   0  0  0  0  0  0  0  0  0  0  0  0
   12.2965    7.6898    6.4727 H   0  0  0  0  0  0  0  0  0  0  0  0
   12.0092    6.7832    4.9488 H   0  0  0  0  0  0  0  0  0  0  0  0
   13.0851    8.2216    4.9488 H   0  0  0  0  0  0  0  0  0  0  0  0
    9.1355   11.1956    5.5216 H   0  0  0  0  0  0  0  0  0  0  0  0
    9.9144   10.4228    4.0994 H   0  0  0  0  0  0  0  0  0  0  0  0
    8.1438   10.7259    4.0994 H   0  0  0  0  0  0  0  0  0  0  0  0
 23 13  1  0
 21 22  1  0
 21 14  1  0
 13 14  1  0
 13 12  2  0
 14 15  2  0
 12 11  1  0
 15 16  1  0
 11 16  2  0
 11 10  1  0
 10  9  1  0
 17 18  1  0
 17  2  1  0
  4  2  2  0
  4  5  1  0
 18 19  1  0
  2  1  1  0
  9  5  1  0
  9  8  1  0
  5  6  2  0
 19 20  1  0
  8  7  2  0
  1 20  1  0
  1  3  2  0
  6  3  1  0
  6  7  1  0
  3 24  1  0
  4 25  1  0
  8 26  1  0
 10 27  1  0
 10 28  1  0
 12 29  1  0
 15 30  1  0
 16 31  1  0
 17 32  1  0
 17 33  1  0
 18 34  1  0
 18 35  1  0
 19 36  1  0
 19 37  1  0
 20 38  1  0
 20 39  1  0
 22 40  1  0
 22 41  1  0
 22 42  1  0
 23 43  1  0
 23 44  1  0
 23 45  1  0
A    1
C1
A    2
C2
A    3
C3
A    4
C4
A    5
C5
A    6
C6
A    7
N7
A    8
C8
A    9
N9
A   10
C10
A   11
C11
A   12
C12
A   13
C13
A   14
C14
A   15
C15
A   16
C16
A   17
C17
A   18
C18
A   19
C19
A   20
C20
A   21
O21
A   22
C22
A   23
C23
M  END
