4NZB_NSE_E_301
     RDKit          3D

 27 29  0  0  0  0  0  0  0  0999 V2000
   50.1470   27.9040   39.4030 C   0  0  0  0  0  0  0  0  0  0  0  0
   56.9460   29.3690   32.2580 C   0  0  0  0  0  0  0  0  0  0  0  0
   50.9940   27.3850   37.1880 C   0  0  0  0  0  0  0  0  0  0  0  0
   50.1690   25.4420   35.9860 C   0  0  0  0  0  0  0  0  0  0  0  0
   53.4320   27.5560   33.6820 C   0  0  0  0  0  0  0  0  0  0  0  0
   51.8940   26.9230   34.9580 C   0  0  0  0  0  0  0  0  0  0  0  0
   50.9900   26.5780   36.0540 C   0  0  0  0  0  0  0  0  0  0  0  0
   54.6530   28.1710   33.1600 C   0  0  0  0  0  0  0  0  0  0  0  0
   55.5380   28.8530   34.0180 C   0  0  0  0  0  0  0  0  0  0  0  0
   54.9550   28.1120   31.7840 C   0  0  0  0  0  0  0  0  0  0  0  0
   56.1210   28.7230   31.3210 C   0  0  0  0  0  0  0  0  0  0  0  0
   50.1740   28.6120   40.3170 N   0  0  0  0  0  0  0  0  0  0  0  0
   53.0450   27.5670   35.0110 N   0  0  0  0  0  0  0  0  0  0  0  0
   50.1490   27.0590   38.2530 C   0  0  0  0  0  0  0  0  0  0  0  0
   52.5820   26.9470   32.8760 N   0  0  0  0  0  0  0  0  0  0  0  0
   56.6670   29.4430   33.5770 N   0  0  0  0  0  0  0  0  0  0  0  0
   51.5480   26.5070   33.7220 O   0  0  0  0  0  0  0  0  0  0  0  0
   49.3480   25.1280   37.0640 C   0  0  0  0  0  0  0  0  0  0  0  0
   49.3220   25.9290   38.2050 C   0  0  0  0  0  0  0  0  0  0  0  0
   57.8714   29.8410   31.8962 H   0  0  0  0  0  0  0  0  0  0  0  0
   51.6514   28.2651   37.2453 H   0  0  0  0  0  0  0  0  0  0  0  0
   50.1746   24.8058   35.0886 H   0  0  0  0  0  0  0  0  0  0  0  0
   55.2983   28.9062   35.0902 H   0  0  0  0  0  0  0  0  0  0  0  0
   54.2819   27.5924   31.0863 H   0  0  0  0  0  0  0  0  0  0  0  0
   56.3868   28.6998   30.2538 H   0  0  0  0  0  0  0  0  0  0  0  0
   48.7092   24.2338   37.0156 H   0  0  0  0  0  0  0  0  0  0  0  0
   48.6650   25.6786   39.0510 H   0  0  0  0  0  0  0  0  0  0  0  0
 11  2  2  0
 11 10  1  0
  2 16  1  0
 10  8  2  0
 16  9  2  0
  8  9  1  0
  8  5  1  0
 15  5  2  0
 15 17  1  0
  5 13  1  0
 17  6  1  0
 13  6  2  0
  6  7  1  0
  7  4  1  0
  7  3  2  0
  4 18  2  0
  3 14  1  0
 18 19  1  0
 14 19  2  0
 14  1  1  0
  1 12  3  0
  2 20  1  0
  3 21  1  0
  4 22  1  0
  9 23  1  0
 10 24  1  0
 11 25  1  0
 18 26  1  0
 19 27  1  0
A    1
C4
A    2
C14
A    3
C5
A    4
C6
A    5
C11
A    6
C7
A    7
C8
A    8
C9
A    9
C10
A   10
C12
A   11
C13
A   12
N1
A   13
N2
A   14
C3
A   15
N3
A   16
N4
A   17
O1
A   18
C2
A   19
C1
M  END
