4O09_2R6_A_4000
     RDKit          3D

 58 61  0  0  0  0  0  0  0  0999 V2000
   -1.1740  -10.6650  -26.4400 O   0  0  0  0  0  0  0  0  0  0  0  0
   -0.7710  -11.1080  -25.3650 C   0  0  0  0  0  0  0  0  0  0  0  0
   -1.5910  -11.8460  -24.5890 N   0  0  0  0  0  0  0  0  0  0  0  0
   -1.2210  -12.5500  -23.3480 C   0  0  0  0  0  0  0  0  0  0  0  0
    0.2020  -13.0500  -23.4740 C   0  0  0  0  0  0  0  0  0  0  0  0
    1.1160  -11.9670  -23.9990 C   0  0  0  0  0  0  0  0  0  0  0  0
    2.4490  -11.9470  -23.5870 C   0  0  0  0  0  0  0  0  0  0  0  0
    0.6390  -10.9560  -24.8890 C   0  0  0  0  0  0  0  0  0  0  0  0
    1.5210   -9.9130  -25.3100 C   0  0  0  0  0  0  0  0  0  0  0  0
    1.1630   -8.7060  -26.1480 C   0  0  0  0  0  0  0  0  0  0  0  0
    0.4060   -7.5520  -25.4770 C   0  0  0  0  0  0  0  0  0  0  0  0
    0.1500   -6.4470  -26.4950 C   0  0  0  0  0  0  0  0  0  0  0  0
    1.0980   -6.9660  -24.2420 C   0  0  0  0  0  0  0  0  0  0  0  0
    2.8520   -9.9380  -24.8940 C   0  0  0  0  0  0  0  0  0  0  0  0
    3.3110  -10.9500  -24.0510 C   0  0  0  0  0  0  0  0  0  0  0  0
    4.7100  -10.9970  -23.7010 N   0  0  0  0  0  0  0  0  0  0  0  0
    5.4490   -9.9140  -23.2690 C   0  0  0  0  0  0  0  0  0  0  0  0
    5.6110  -11.9980  -24.0540 C   0  0  0  0  0  0  0  0  0  0  0  0
    5.2730  -13.3350  -24.6470 C   0  0  0  0  0  0  0  0  0  0  0  0
    6.4270  -14.0140  -25.3970 C   0  0  0  0  0  0  0  0  0  0  0  0
    6.6140  -13.3680  -26.7740 C   0  0  0  0  0  0  0  0  0  0  0  0
    6.1040  -15.4940  -25.5890 C   0  0  0  0  0  0  0  0  0  0  0  0
    7.7090  -13.8620  -24.5640 C   0  0  0  0  0  0  0  0  0  0  0  0
    8.0220  -12.4580  -24.0960 C   0  0  0  0  0  0  0  0  0  0  0  0
    9.1880  -12.0990  -23.9940 O   0  0  0  0  0  0  0  0  0  0  0  0
    6.8940  -11.5410  -23.8220 C   0  0  0  0  0  0  0  0  0  0  0  0
    6.7770  -10.1940  -23.3270 C   0  0  0  0  0  0  0  0  0  0  0  0
    7.8760   -9.2340  -22.9550 C   0  0  0  0  0  0  0  0  0  0  0  0
   -2.5718  -11.9254  -24.8934 H   0  0  0  0  0  0  0  0  0  0  0  0
   -1.2956  -11.8592  -22.4952 H   0  0  0  0  0  0  0  0  0  0  0  0
   -1.9012  -13.3987  -23.1838 H   0  0  0  0  0  0  0  0  0  0  0  0
    0.2224  -13.9041  -24.1669 H   0  0  0  0  0  0  0  0  0  0  0  0
    0.5553  -13.3517  -22.4769 H   0  0  0  0  0  0  0  0  0  0  0  0
    2.8218  -12.7173  -22.8959 H   0  0  0  0  0  0  0  0  0  0  0  0
    0.5407   -9.0620  -26.9823 H   0  0  0  0  0  0  0  0  0  0  0  0
    2.1344   -8.2693  -26.4231 H   0  0  0  0  0  0  0  0  0  0  0  0
   -0.5381   -7.9840  -25.1135 H   0  0  0  0  0  0  0  0  0  0  0  0
   -0.0679   -5.5063  -25.9681 H   0  0  0  0  0  0  0  0  0  0  0  0
    1.0416   -6.3159  -27.1258 H   0  0  0  0  0  0  0  0  0  0  0  0
   -0.7084   -6.7213  -27.1258 H   0  0  0  0  0  0  0  0  0  0  0  0
    0.6257   -7.3660  -23.3327 H   0  0  0  0  0  0  0  0  0  0  0  0
    2.1630   -7.2411  -24.2533 H   0  0  0  0  0  0  0  0  0  0  0  0
    1.0022   -5.8702  -24.2533 H   0  0  0  0  0  0  0  0  0  0  0  0
    3.5448   -9.1539  -25.2332 H   0  0  0  0  0  0  0  0  0  0  0  0
    5.0229   -8.9595  -22.9263 H   0  0  0  0  0  0  0  0  0  0  0  0
    4.4404  -13.1964  -25.3524 H   0  0  0  0  0  0  0  0  0  0  0  0
    5.0202  -13.9941  -23.8034 H   0  0  0  0  0  0  0  0  0  0  0  0
    6.9179  -12.3183  -26.6483 H   0  0  0  0  0  0  0  0  0  0  0  0
    7.3919  -13.9107  -27.3310 H   0  0  0  0  0  0  0  0  0  0  0  0
    5.6665  -13.4113  -27.3310 H   0  0  0  0  0  0  0  0  0  0  0  0
    5.9986  -15.9768  -24.6062 H   0  0  0  0  0  0  0  0  0  0  0  0
    5.1628  -15.5942  -26.1495 H   0  0  0  0  0  0  0  0  0  0  0  0
    6.9178  -15.9772  -26.1495 H   0  0  0  0  0  0  0  0  0  0  0  0
    7.6123  -14.5016  -23.6743 H   0  0  0  0  0  0  0  0  0  0  0  0
    8.5362  -14.1485  -25.2300 H   0  0  0  0  0  0  0  0  0  0  0  0
    7.9506   -9.1688  -21.8595 H   0  0  0  0  0  0  0  0  0  0  0  0
    8.8309   -9.5924  -23.3669 H   0  0  0  0  0  0  0  0  0  0  0  0
    7.6492   -8.2396  -23.3669 H   0  0  0  0  0  0  0  0  0  0  0  0
 21 20  1  0
 12 11  1  0
  1  2  2  0
 10 11  1  0
 10  9  1  0
 22 20  1  0
 11 13  1  0
 20 19  1  0
 20 23  1  0
  2  8  1  0
  2  3  1  0
  9 14  2  0
  9  8  1  0
 14 15  1  0
  8  6  2  0
 19 18  1  0
  3  4  1  0
 23 24  1  0
 24 25  2  0
 24 26  1  0
 18 26  2  0
 18 16  1  0
 15 16  1  0
 15  7  2  0
  6  7  1  0
  6  5  1  0
 26 27  1  0
 16 17  1  0
  5  4  1  0
 27 17  2  0
 27 28  1  0
  3 29  1  0
  4 30  1  0
  4 31  1  0
  5 32  1  0
  5 33  1  0
  7 34  1  0
 10 35  1  0
 10 36  1  0
 11 37  1  0
 12 38  1  0
 12 39  1  0
 12 40  1  0
 13 41  1  0
 13 42  1  0
 13 43  1  0
 14 44  1  0
 17 45  1  0
 19 46  1  0
 19 47  1  0
 21 48  1  0
 21 49  1  0
 21 50  1  0
 22 51  1  0
 22 52  1  0
 22 53  1  0
 23 54  1  0
 23 55  1  0
 28 56  1  0
 28 57  1  0
 28 58  1  0
A    1
O1
A    2
C21
A    3
N1
A    4
C22
A    5
C23
A    6
C13
A    7
C12
A    8
C14
A    9
C15
A   10
C17
A   11
C18
A   12
C20
A   13
C19
A   14
C16
A   15
C11
A   16
N
A   17
C2
A   18
C3
A   19
C8
A   20
C7
A   21
C10
A   22
C9
A   23
C6
A   24
C5
A   25
O
A   26
C4
A   27
C1
A   28
C
M  END
