4O0A_2P9_A_201
     RDKit          3D

 59 63  0  0  0  0  0  0  0  0999 V2000
   -7.2470   10.0720   -3.1180 O   0  0  0  0  0  0  0  0  0  0  0  0
   -6.1360   10.6360   -3.2570 C   0  0  0  0  0  0  0  0  0  0  0  0
   -5.2320   10.7230   -2.0640 C   0  0  0  0  0  0  0  0  0  0  0  0
   -5.5910   10.3190   -0.8630 N   0  0  0  0  0  0  0  0  0  0  0  0
   -4.6200   10.5120   -0.0250 N   0  0  0  0  0  0  0  0  0  0  0  0
   -4.7230   10.1450    1.3390 C   0  0  0  0  0  0  0  0  0  0  0  0
   -4.2340    8.9080    1.7170 C   0  0  0  0  0  0  0  0  0  0  0  0
   -4.3090    8.5000    3.0350 C   0  0  0  0  0  0  0  0  0  0  0  0
   -3.6680    6.9200    3.3900 Cl  0  0  0  0  0  0  0  0  0  0  0  0
   -4.8880    9.3220    4.0040 C   0  0  0  0  0  0  0  0  0  0  0  0
   -4.9840    8.8360    5.6760 Cl  0  0  0  0  0  0  0  0  0  0  0  0
   -5.3840   10.5580    3.6100 C   0  0  0  0  0  0  0  0  0  0  0  0
   -5.3050   10.9700    2.2820 C   0  0  0  0  0  0  0  0  0  0  0  0
   -3.5470   11.0180   -0.6350 C   0  0  0  0  0  0  0  0  0  0  0  0
   -2.2200   11.4010   -0.0140 C   0  0  0  0  0  0  0  0  0  0  0  0
   -2.1940   11.9400    1.2580 C   0  0  0  0  0  0  0  0  0  0  0  0
   -1.0000   12.3230    1.8390 C   0  0  0  0  0  0  0  0  0  0  0  0
    0.1850   12.1850    1.1480 C   0  0  0  0  0  0  0  0  0  0  0  0
    1.4620   12.6170    1.8300 C   0  0  0  0  0  0  0  0  0  0  0  0
    2.5110   11.7420    1.4460 N   0  0  0  0  0  0  0  0  0  0  0  0
    2.9180   10.8910    2.5090 C   0  0  0  0  0  0  0  0  0  0  0  0
    3.9450    9.8470    2.0800 C   0  0  0  0  0  0  0  0  0  0  0  0
    5.0970    9.8830    2.8480 C   0  0  0  0  0  0  0  0  0  0  0  0
    6.1590    9.0310    2.6010 C   0  0  0  0  0  0  0  0  0  0  0  0
    6.0560    8.1400    1.5530 C   0  0  0  0  0  0  0  0  0  0  0  0
    7.1430    7.1750    1.2320 C   0  0  0  0  0  0  0  0  0  0  0  0
    8.3290    6.9060    1.9120 C   0  0  0  0  0  0  0  0  0  0  0  0
    8.9750    5.8790    1.1510 C   0  0  0  0  0  0  0  0  0  0  0  0
    8.0990    5.6390    0.0970 C   0  0  0  0  0  0  0  0  0  0  0  0
    8.2400    4.6660   -1.0220 C   0  0  0  0  0  0  0  0  0  0  0  0
    9.2410    3.9130   -1.0560 O   0  0  0  0  0  0  0  0  0  0  0  0
    7.3040    4.6440   -1.8520 O   0  0  0  0  0  0  0  0  0  0  0  0
    7.0520    6.4080    0.1740 O   0  0  0  0  0  0  0  0  0  0  0  0
    4.9180    8.0890    0.7770 C   0  0  0  0  0  0  0  0  0  0  0  0
    3.8520    8.9390    1.0160 C   0  0  0  0  0  0  0  0  0  0  0  0
    2.4470    8.8020   -0.0150 Cl  0  0  0  0  0  0  0  0  0  0  0  0
    1.5810   10.3430    3.5450 S   0  0  0  0  0  0  0  0  0  0  0  0
    0.1800   11.6520   -0.1410 C   0  0  0  0  0  0  0  0  0  0  0  0
   -1.0310   11.2700   -0.7200 C   0  0  0  0  0  0  0  0  0  0  0  0
   -3.9000   11.2000   -2.0030 C   0  0  0  0  0  0  0  0  0  0  0  0
   -5.7540   11.0990   -4.3570 O   0  0  0  0  0  0  0  0  0  0  0  0
   -7.6009    9.8923   -2.2110 H   0  0  0  0  0  0  0  0  0  0  0  0
   -3.7827    8.2450    0.9641 H   0  0  0  0  0  0  0  0  0  0  0  0
   -5.8455   11.2205    4.3570 H   0  0  0  0  0  0  0  0  0  0  0  0
   -5.7053   11.9505    1.9845 H   0  0  0  0  0  0  0  0  0  0  0  0
   -3.1344   12.0657    1.8146 H   0  0  0  0  0  0  0  0  0  0  0  0
   -0.9951   12.7397    2.8570 H   0  0  0  0  0  0  0  0  0  0  0  0
    1.7110   13.6453    1.5290 H   0  0  0  0  0  0  0  0  0  0  0  0
    1.3301   12.5817    2.9215 H   0  0  0  0  0  0  0  0  0  0  0  0
    2.9294   11.7255    0.5050 H   0  0  0  0  0  0  0  0  0  0  0  0
    5.1694   10.6060    3.6739 H   0  0  0  0  0  0  0  0  0  0  0  0
    7.0639    9.0635    3.2256 H   0  0  0  0  0  0  0  0  0  0  0  0
    8.6916    7.3808    2.8356 H   0  0  0  0  0  0  0  0  0  0  0  0
    9.9406    5.3924    1.3531 H   0  0  0  0  0  0  0  0  0  0  0  0
    9.6550    3.6016   -0.2124 H   0  0  0  0  0  0  0  0  0  0  0  0
    4.8560    7.3611   -0.0454 H   0  0  0  0  0  0  0  0  0  0  0  0
    1.1222   11.5338   -0.6962 H   0  0  0  0  0  0  0  0  0  0  0  0
   -1.0440   10.8627   -1.7417 H   0  0  0  0  0  0  0  0  0  0  0  0
   -3.2854   11.6122   -2.8168 H   0  0  0  0  0  0  0  0  0  0  0  0
 41  2  2  0
  2  1  1  0
  2  3  1  0
  3 40  1  0
  3  4  2  0
 40 14  2  0
 32 30  2  0
 31 30  1  0
 30 29  1  0
  4  5  1  0
 39 38  2  0
 39 15  1  0
 14  5  1  0
 14 15  1  0
 38 18  1  0
  5  6  1  0
 15 16  2  0
 36 35  1  0
 29 33  1  0
 29 28  2  0
 33 26  1  0
 34 35  2  0
 34 25  1  0
 35 22  1  0
 18 19  1  0
 18 17  2  0
 28 27  1  0
 26 25  1  0
 26 27  2  0
 16 17  1  0
  6  7  2  0
  6 13  1  0
 20 19  1  0
 20 21  1  0
 25 24  2  0
  7  8  1  0
 22 21  1  0
 22 23  2  0
 13 12  2  0
 21 37  2  0
 24 23  1  0
  8  9  1  0
  8 10  2  0
 12 10  1  0
 10 11  1  0
  1 42  1  0
  7 43  1  0
 12 44  1  0
 13 45  1  0
 16 46  1  0
 17 47  1  0
 19 48  1  0
 19 49  1  0
 20 50  1  0
 23 51  1  0
 24 52  1  0
 27 53  1  0
 28 54  1  0
 31 55  1  0
 34 56  1  0
 38 57  1  0
 39 58  1  0
 40 59  1  0
A    1
O01
A    2
C02
A    3
C03
A    4
N04
A    5
N05
A    6
C06
A    7
C07
A    8
C08
A    9
CL2
A   10
C10
A   11
CL
A   12
C12
A   13
C13
A   14
C14
A   15
C15
A   16
C16
A   17
C17
A   18
C18
A   19
C19
A   20
N20
A   21
C21
A   22
C22
A   23
C23
A   24
C24
A   25
C25
A   26
C26
A   27
C27
A   28
C28
A   29
C29
A   30
C30
A   31
O31
A   32
O32
A   33
O33
A   34
C34
A   35
C35
A   36
CL3
A   37
S37
A   38
C38
A   39
C39
A   40
C40
A   41
O41
M  END
