4O0T_2OL_A_601
     RDKit          3D

 56 59  0  0  0  0  0  0  0  0999 V2000
   13.3550  -11.8340   15.5130 C   0  0  0  0  0  0  0  0  0  0  0  0
   13.0080  -12.5910   14.3520 O   0  0  0  0  0  0  0  0  0  0  0  0
   12.4070  -13.8600   14.6260 C   0  0  0  0  0  0  0  0  0  0  0  0
   12.6240  -14.7750   13.4160 C   0  0  0  0  0  0  0  0  0  0  0  0
   13.8130  -15.6120   13.6150 N   0  0  0  0  0  0  0  0  0  0  0  0
   15.0160  -15.3510   12.9920 C   0  0  0  0  0  0  0  0  0  0  0  0
   15.2040  -14.5450   11.9740 N   0  0  0  0  0  0  0  0  0  0  0  0
   16.5200  -14.5330   11.6240 C   0  0  0  0  0  0  0  0  0  0  0  0
   17.2460  -13.8590   10.6260 C   0  0  0  0  0  0  0  0  0  0  0  0
   18.5950  -14.0400   10.5080 C   0  0  0  0  0  0  0  0  0  0  0  0
   19.2580  -14.9140   11.3730 C   0  0  0  0  0  0  0  0  0  0  0  0
   18.5530  -15.5840   12.3690 C   0  0  0  0  0  0  0  0  0  0  0  0
   17.1850  -15.4090   12.5080 C   0  0  0  0  0  0  0  0  0  0  0  0
   16.2070  -15.9210   13.3680 N   0  0  0  0  0  0  0  0  0  0  0  0
   16.3470  -16.8260   14.4330 C   0  0  0  0  0  0  0  0  0  0  0  0
   17.4150  -17.7200   14.5620 C   0  0  0  0  0  0  0  0  0  0  0  0
   17.4620  -18.5740   15.6530 C   0  0  0  0  0  0  0  0  0  0  0  0
   16.4910  -18.5310   16.5520 N   0  0  0  0  0  0  0  0  0  0  0  0
   15.4890  -17.6760   16.4110 C   0  0  0  0  0  0  0  0  0  0  0  0
   15.4190  -16.8450   15.3790 N   0  0  0  0  0  0  0  0  0  0  0  0
   14.4870  -17.6480   17.3640 N   0  0  0  0  0  0  0  0  0  0  0  0
   20.6730  -15.1140   11.2830 C   0  0  0  0  0  0  0  0  0  0  0  0
   21.8170  -15.3510   11.2550 C   0  0  0  0  0  0  0  0  0  0  0  0
   23.2640  -15.6240   11.2190 C   0  0  0  0  0  0  0  0  0  0  0  0
   23.7650  -15.8060   12.6490 C   0  0  0  0  0  0  0  0  0  0  0  0
   25.2260  -16.2550   12.6600 C   0  0  0  0  0  0  0  0  0  0  0  0
   25.3740  -17.5670   11.8950 C   0  0  0  0  0  0  0  0  0  0  0  0
   24.9250  -17.3600   10.4500 C   0  0  0  0  0  0  0  0  0  0  0  0
   23.4640  -16.9170   10.4210 C   0  0  0  0  0  0  0  0  0  0  0  0
   23.9660  -14.5540   10.5890 O   0  0  0  0  0  0  0  0  0  0  0  0
   13.0929  -12.4058   16.4154 H   0  0  0  0  0  0  0  0  0  0  0  0
   14.4361  -11.6309   15.5087 H   0  0  0  0  0  0  0  0  0  0  0  0
   12.8032  -10.8824   15.5087 H   0  0  0  0  0  0  0  0  0  0  0  0
   11.3293  -13.7291   14.8031 H   0  0  0  0  0  0  0  0  0  0  0  0
   12.8636  -14.3066   15.5216 H   0  0  0  0  0  0  0  0  0  0  0  0
   12.7611  -14.1586   12.5153 H   0  0  0  0  0  0  0  0  0  0  0  0
   11.7449  -15.4257   13.2981 H   0  0  0  0  0  0  0  0  0  0  0  0
   13.7468  -16.4252   14.2437 H   0  0  0  0  0  0  0  0  0  0  0  0
   16.7238  -13.1809    9.9350 H   0  0  0  0  0  0  0  0  0  0  0  0
   19.1580  -13.4986    9.7334 H   0  0  0  0  0  0  0  0  0  0  0  0
   19.0873  -16.2596   13.0531 H   0  0  0  0  0  0  0  0  0  0  0  0
   18.2114  -17.7452   13.8037 H   0  0  0  0  0  0  0  0  0  0  0  0
   18.2973  -19.2800   15.7705 H   0  0  0  0  0  0  0  0  0  0  0  0
   14.7283  -17.6547   18.3653 H   0  0  0  0  0  0  0  0  0  0  0  0
   13.4995  -17.6204   17.0724 H   0  0  0  0  0  0  0  0  0  0  0  0
   23.6776  -14.8500   13.1860 H   0  0  0  0  0  0  0  0  0  0  0  0
   23.1553  -16.5786   13.1402 H   0  0  0  0  0  0  0  0  0  0  0  0
   25.5547  -16.4003   13.6996 H   0  0  0  0  0  0  0  0  0  0  0  0
   25.8446  -15.4838   12.1777 H   0  0  0  0  0  0  0  0  0  0  0  0
   24.7500  -18.3403   12.3668 H   0  0  0  0  0  0  0  0  0  0  0  0
   26.4260  -17.8880   11.9124 H   0  0  0  0  0  0  0  0  0  0  0  0
   25.0314  -18.3041    9.8957 H   0  0  0  0  0  0  0  0  0  0  0  0
   25.5493  -16.5839    9.9832 H   0  0  0  0  0  0  0  0  0  0  0  0
   23.1611  -16.7457    9.3775 H   0  0  0  0  0  0  0  0  0  0  0  0
   22.8499  -17.7076   10.8768 H   0  0  0  0  0  0  0  0  0  0  0  0
   24.3545  -13.9618   11.2807 H   0  0  0  0  0  0  0  0  0  0  0  0
 29 28  1  0
 29 24  1  0
 28 27  1  0
 10  9  1  0
 10 11  2  0
 30 24  1  0
  9  8  2  0
 24 23  1  0
 24 25  1  0
 23 22  3  0
 22 11  1  0
 11 12  1  0
  8  7  1  0
  8 13  1  0
 27 26  1  0
  7  6  2  0
 12 13  2  0
 13 14  1  0
 25 26  1  0
  6 14  1  0
  6  5  1  0
 14 15  1  0
  4  5  1  0
  4  3  1  0
  2  3  1  0
  2  1  1  0
 15 16  2  0
 15 20  1  0
 16 17  1  0
 20 19  2  0
 17 18  2  0
 19 18  1  0
 19 21  1  0
  1 31  1  0
  1 32  1  0
  1 33  1  0
  3 34  1  0
  3 35  1  0
  4 36  1  0
  4 37  1  0
  5 38  1  0
  9 39  1  0
 10 40  1  0
 12 41  1  0
 16 42  1  0
 17 43  1  0
 21 44  1  0
 21 45  1  0
 25 46  1  0
 25 47  1  0
 26 48  1  0
 26 49  1  0
 27 50  1  0
 27 51  1  0
 28 52  1  0
 28 53  1  0
 29 54  1  0
 29 55  1  0
 30 56  1  0
A    1
C1
A    2
O2
A    3
C3
A    4
C4
A    5
N5
A    6
C6
A    7
N7
A    8
C8
A    9
C9
A   10
C10
A   11
C11
A   12
C12
A   13
C13
A   14
N14
A   15
C15
A   16
C16
A   17
C17
A   18
N18
A   19
C19
A   20
N20
A   21
N21
A   22
C22
A   23
C23
A   24
C24
A   25
C25
A   26
C26
A   27
C27
A   28
C28
A   29
C29
A   30
O30
M  END
