4O0Z_2RM_A_601
     RDKit          3D

 46 49  0  0  0  0  0  0  0  0999 V2000
   14.7630   10.4680    8.8290 C   0  0  0  0  0  0  0  0  0  0  0  0
   13.8000   11.2620    8.1980 C   0  0  0  0  0  0  0  0  0  0  0  0
   14.0540   11.1900    6.8380 C   0  0  0  0  0  0  0  0  0  0  0  0
   13.4050   11.7770    5.7310 C   0  0  0  0  0  0  0  0  0  0  0  0
   13.8540   11.5450    4.4730 C   0  0  0  0  0  0  0  0  0  0  0  0
   15.0190   10.6770    4.3000 C   0  0  0  0  0  0  0  0  0  0  0  0
   15.6240   10.1260    5.3920 C   0  0  0  0  0  0  0  0  0  0  0  0
   15.1500   10.3730    6.6520 N   0  0  0  0  0  0  0  0  0  0  0  0
   15.5730    9.9410    7.8800 C   0  0  0  0  0  0  0  0  0  0  0  0
   15.5410   10.3940    2.9530 C   0  0  0  0  0  0  0  0  0  0  0  0
   14.9540   10.7770    1.9550 O   0  0  0  0  0  0  0  0  0  0  0  0
   16.6760    9.6800    2.8460 N   0  0  0  0  0  0  0  0  0  0  0  0
   17.2330    9.3870    1.5290 C   0  0  0  0  0  0  0  0  0  0  0  0
   16.4170    8.4230    0.7120 C   0  0  0  0  0  0  0  0  0  0  0  0
   16.0580    7.2040    1.2390 C   0  0  0  0  0  0  0  0  0  0  0  0
   15.3320    6.3140    0.4760 C   0  0  0  0  0  0  0  0  0  0  0  0
   14.9510    6.6380   -0.8110 C   0  0  0  0  0  0  0  0  0  0  0  0
   15.3280    7.8520   -1.3590 C   0  0  0  0  0  0  0  0  0  0  0  0
   16.0590    8.7430   -0.5880 C   0  0  0  0  0  0  0  0  0  0  0  0
   14.0560    5.4530   -1.7580 S   0  0  0  0  0  0  0  0  0  0  0  0
   13.6140    4.4300   -0.8730 O   0  0  0  0  0  0  0  0  0  0  0  0
   13.1970    6.1210   -2.6690 O   0  0  0  0  0  0  0  0  0  0  0  0
   15.4690    4.8160   -2.6040 C   0  0  0  0  0  0  0  0  0  0  0  0
   16.3720    4.0680   -1.8680 C   0  0  0  0  0  0  0  0  0  0  0  0
   17.5140    3.5510   -2.4550 C   0  0  0  0  0  0  0  0  0  0  0  0
   17.7610    3.7990   -3.7890 C   0  0  0  0  0  0  0  0  0  0  0  0
   16.8700    4.5590   -4.5290 C   0  0  0  0  0  0  0  0  0  0  0  0
   15.7230    5.0790   -3.9410 C   0  0  0  0  0  0  0  0  0  0  0  0
   17.1360    4.7910   -5.8310 F   0  0  0  0  0  0  0  0  0  0  0  0
   18.3790    2.8140   -1.7250 F   0  0  0  0  0  0  0  0  0  0  0  0
   14.8482   10.2999    9.9127 H   0  0  0  0  0  0  0  0  0  0  0  0
   12.9967   11.8329    8.6867 H   0  0  0  0  0  0  0  0  0  0  0  0
   12.5309   12.4257    5.8895 H   0  0  0  0  0  0  0  0  0  0  0  0
   13.3548   11.9982    3.6039 H   0  0  0  0  0  0  0  0  0  0  0  0
   16.5017    9.4766    5.2582 H   0  0  0  0  0  0  0  0  0  0  0  0
   16.4292    9.2758    8.0655 H   0  0  0  0  0  0  0  0  0  0  0  0
   17.1522    9.3399    3.6937 H   0  0  0  0  0  0  0  0  0  0  0  0
   18.2365    8.9580    1.6671 H   0  0  0  0  0  0  0  0  0  0  0  0
   17.2465   10.3369    0.9744 H   0  0  0  0  0  0  0  0  0  0  0  0
   16.3493    6.9400    2.2663 H   0  0  0  0  0  0  0  0  0  0  0  0
   15.0537    5.3365    0.8967 H   0  0  0  0  0  0  0  0  0  0  0  0
   15.0513    8.1066   -2.3927 H   0  0  0  0  0  0  0  0  0  0  0  0
   16.3576    9.7130   -1.0122 H   0  0  0  0  0  0  0  0  0  0  0  0
   16.1791    3.8818   -0.8012 H   0  0  0  0  0  0  0  0  0  0  0  0
   18.6656    3.3933   -4.2655 H   0  0  0  0  0  0  0  0  0  0  0  0
   15.0249    5.6921   -4.5298 H   0  0  0  0  0  0  0  0  0  0  0  0
 29 27  1  0
 27 28  2  0
 27 26  1  0
 28 23  1  0
 26 25  2  0
 22 20  2  0
 23 24  2  0
 23 20  1  0
 25 24  1  0
 25 30  1  0
 20 21  2  0
 20 17  1  0
 18 17  2  0
 18 19  1  0
 17 16  1  0
 19 14  2  0
 16 15  2  0
 14 15  1  0
 14 13  1  0
 13 12  1  0
 11 10  2  0
 12 10  1  0
 10  6  1  0
  6  5  1  0
  6  7  2  0
  5  4  2  0
  7  8  1  0
  4  3  1  0
  8  3  1  0
  8  9  1  0
  3  2  2  0
  9  1  2  0
  2  1  1  0
  1 31  1  0
  2 32  1  0
  4 33  1  0
  5 34  1  0
  7 35  1  0
  9 36  1  0
 12 37  1  0
 13 38  1  0
 13 39  1  0
 15 40  1  0
 16 41  1  0
 18 42  1  0
 19 43  1  0
 24 44  1  0
 26 45  1  0
 28 46  1  0
A    1
C1
A    2
C2
A    3
C3
A    4
C4
A    5
C5
A    6
C6
A    7
C7
A    8
N8
A    9
C9
A   10
C10
A   11
O11
A   12
N12
A   13
C13
A   14
C14
A   15
C15
A   16
C16
A   17
C17
A   18
C18
A   19
C19
A   20
S20
A   21
O21
A   22
O22
A   23
C23
A   24
C24
A   25
C25
A   26
C26
A   27
C27
A   28
C28
A   29
F29
A   30
F30
M  END
