4O10_2QF_A_601
     RDKit          3D

 46 49  0  0  0  0  0  0  0  0999 V2000
   15.7390    9.9980    5.6750 C   0  0  0  0  0  0  0  0  0  0  0  0
   15.2150   10.6100    4.5420 C   0  0  0  0  0  0  0  0  0  0  0  0
   14.1020   11.5320    4.6760 C   0  0  0  0  0  0  0  0  0  0  0  0
   13.5880   11.7660    5.8790 C   0  0  0  0  0  0  0  0  0  0  0  0
   15.7580   10.3610    3.2060 C   0  0  0  0  0  0  0  0  0  0  0  0
   16.8330    9.5840    3.1260 N   0  0  0  0  0  0  0  0  0  0  0  0
   17.3280    9.3670    1.7730 C   0  0  0  0  0  0  0  0  0  0  0  0
   15.8880    7.3490    1.4600 C   0  0  0  0  0  0  0  0  0  0  0  0
   14.9550    6.7420   -0.6680 C   0  0  0  0  0  0  0  0  0  0  0  0
   15.7630    5.0170   -3.7250 C   0  0  0  0  0  0  0  0  0  0  0  0
   17.8260    3.7120   -3.5710 C   0  0  0  0  0  0  0  0  0  0  0  0
   16.4450    4.0970   -1.6360 C   0  0  0  0  0  0  0  0  0  0  0  0
   14.4510   10.5370    9.0660 C   0  0  0  0  0  0  0  0  0  0  0  0
   15.3890    9.9130    8.2330 C   0  0  0  0  0  0  0  0  0  0  0  0
   15.1510   10.3140    6.9290 C   0  0  0  0  0  0  0  0  0  0  0  0
   14.0850   11.1840    7.0080 N   0  0  0  0  0  0  0  0  0  0  0  0
   13.6580   11.3320    8.2970 C   0  0  0  0  0  0  0  0  0  0  0  0
   15.2260   10.8300    2.1920 O   0  0  0  0  0  0  0  0  0  0  0  0
   16.4640    8.4690    0.9410 C   0  0  0  0  0  0  0  0  0  0  0  0
   15.1450    6.4930    0.6820 C   0  0  0  0  0  0  0  0  0  0  0  0
   15.5510    7.8760   -1.2110 C   0  0  0  0  0  0  0  0  0  0  0  0
   16.2950    8.7310   -0.4130 C   0  0  0  0  0  0  0  0  0  0  0  0
   14.0730    5.5480   -1.6170 S   0  0  0  0  0  0  0  0  0  0  0  0
   13.5390    4.5220   -0.7590 O   0  0  0  0  0  0  0  0  0  0  0  0
   13.2720    6.1860   -2.6070 O   0  0  0  0  0  0  0  0  0  0  0  0
   15.5100    4.8250   -2.3790 C   0  0  0  0  0  0  0  0  0  0  0  0
   16.9030    4.4490   -4.2940 C   0  0  0  0  0  0  0  0  0  0  0  0
   17.5920    3.5450   -2.2060 C   0  0  0  0  0  0  0  0  0  0  0  0
   18.4740    2.8430   -1.4540 F   0  0  0  0  0  0  0  0  0  0  0  0
   17.1090    4.6460   -5.6140 F   0  0  0  0  0  0  0  0  0  0  0  0
   16.5803    9.2930    5.6029 H   0  0  0  0  0  0  0  0  0  0  0  0
   13.6873   12.0330    3.7889 H   0  0  0  0  0  0  0  0  0  0  0  0
   12.7328   12.4522    5.9672 H   0  0  0  0  0  0  0  0  0  0  0  0
   17.2809    9.1680    3.9550 H   0  0  0  0  0  0  0  0  0  0  0  0
   18.3297    8.9174    1.8398 H   0  0  0  0  0  0  0  0  0  0  0  0
   17.3346   10.3488    1.2769 H   0  0  0  0  0  0  0  0  0  0  0  0
   16.0207    7.1238    2.5285 H   0  0  0  0  0  0  0  0  0  0  0  0
   15.0722    5.6117   -4.3408 H   0  0  0  0  0  0  0  0  0  0  0  0
   18.7113    3.2743   -4.0554 H   0  0  0  0  0  0  0  0  0  0  0  0
   16.2688    3.9542   -0.5596 H   0  0  0  0  0  0  0  0  0  0  0  0
   14.3695   10.4066   10.1552 H   0  0  0  0  0  0  0  0  0  0  0  0
   16.1801    9.2219    8.5594 H   0  0  0  0  0  0  0  0  0  0  0  0
   12.8329   11.9702    8.6460 H   0  0  0  0  0  0  0  0  0  0  0  0
   14.6952    5.5983    1.1372 H   0  0  0  0  0  0  0  0  0  0  0  0
   15.4308    8.0957   -2.2821 H   0  0  0  0  0  0  0  0  0  0  0  0
   16.7563    9.6259   -0.8561 H   0  0  0  0  0  0  0  0  0  0  0  0
 30 27  1  0
 27 10  2  0
 27 11  1  0
 10 26  1  0
 11 28  2  0
 25 23  2  0
 26 12  2  0
 26 23  1  0
 28 12  1  0
 28 29  1  0
 23 24  2  0
 23  9  1  0
 21  9  2  0
 21 22  1  0
  9 20  1  0
 22 19  2  0
 20  8  2  0
 19  8  1  0
 19  7  1  0
  7  6  1  0
 18  5  2  0
  6  5  1  0
  5  2  1  0
  2  3  1  0
  2  1  2  0
  3  4  2  0
  1 15  1  0
  4 16  1  0
 15 16  1  0
 15 14  2  0
 16 17  1  0
 14 13  1  0
 17 13  2  0
  1 31  1  0
  3 32  1  0
  4 33  1  0
  6 34  1  0
  7 35  1  0
  7 36  1  0
  8 37  1  0
 10 38  1  0
 11 39  1  0
 12 40  1  0
 13 41  1  0
 14 42  1  0
 17 43  1  0
 20 44  1  0
 21 45  1  0
 22 46  1  0
A    1
C4
A    2
C5
A    3
C6
A    4
C7
A    5
C10
A    6
N12
A    7
C13
A    8
C15
A    9
C17
A   10
C24
A   11
C26
A   12
C28
A   13
C1
A   14
C2
A   15
C3
A   16
N8
A   17
C9
A   18
O11
A   19
C14
A   20
C16
A   21
C18
A   22
C19
A   23
S20
A   24
O21
A   25
O22
A   26
C23
A   27
C25
A   28
C27
A   29
F29
A   30
F30
M  END
