4O13_2P1_A_601
     RDKit          3D

 47 50  0  0  0  0  0  0  0  0999 V2000
   16.5690    4.5500   -4.7750 C   0  0  0  0  0  0  0  0  0  0  0  0
   17.5670    3.8280   -4.1370 C   0  0  0  0  0  0  0  0  0  0  0  0
   17.5240    3.6300   -2.7730 C   0  0  0  0  0  0  0  0  0  0  0  0
   16.4790    4.1630   -2.0290 C   0  0  0  0  0  0  0  0  0  0  0  0
   15.4710    4.8940   -2.6510 C   0  0  0  0  0  0  0  0  0  0  0  0
   15.5270    5.0800   -4.0280 C   0  0  0  0  0  0  0  0  0  0  0  0
   14.1440    5.5700   -1.6850 S   0  0  0  0  0  0  0  0  0  0  0  0
   13.2850    6.2490   -2.5970 O   0  0  0  0  0  0  0  0  0  0  0  0
   13.7150    4.4840   -0.8810 O   0  0  0  0  0  0  0  0  0  0  0  0
   15.0380    6.7170   -0.6950 C   0  0  0  0  0  0  0  0  0  0  0  0
   15.4160    6.3380    0.5760 C   0  0  0  0  0  0  0  0  0  0  0  0
   16.1430    7.1940    1.3740 C   0  0  0  0  0  0  0  0  0  0  0  0
   16.5000    8.4420    0.9200 C   0  0  0  0  0  0  0  0  0  0  0  0
   16.1360    8.8260   -0.3610 C   0  0  0  0  0  0  0  0  0  0  0  0
   15.4080    7.9650   -1.1690 C   0  0  0  0  0  0  0  0  0  0  0  0
   17.3210    9.3730    1.7830 C   0  0  0  0  0  0  0  0  0  0  0  0
   16.7950    9.5700    3.1360 N   0  0  0  0  0  0  0  0  0  0  0  0
   15.7030   10.3370    3.2530 C   0  0  0  0  0  0  0  0  0  0  0  0
   15.1770   10.8060    2.2510 O   0  0  0  0  0  0  0  0  0  0  0  0
   15.1280   10.5980    4.5800 C   0  0  0  0  0  0  0  0  0  0  0  0
   15.6990   10.0650    5.7440 C   0  0  0  0  0  0  0  0  0  0  0  0
   15.0810   10.3750    6.9590 C   0  0  0  0  0  0  0  0  0  0  0  0
   15.3280   10.0370    8.3560 C   0  0  0  0  0  0  0  0  0  0  0  0
   14.3960   10.6080    9.0710 N   0  0  0  0  0  0  0  0  0  0  0  0
   13.5400   11.3510    8.2570 N   0  0  0  0  0  0  0  0  0  0  0  0
   13.9340   11.2070    6.9580 C   0  0  0  0  0  0  0  0  0  0  0  0
   13.4540   11.6880    5.8220 N   0  0  0  0  0  0  0  0  0  0  0  0
   14.0010   11.4130    4.6620 C   0  0  0  0  0  0  0  0  0  0  0  0
   18.6370    2.8420   -2.1230 C   0  0  0  0  0  0  0  0  0  0  0  0
   19.7390    3.6690   -1.8940 F   0  0  0  0  0  0  0  0  0  0  0  0
   18.2390    2.3390   -0.8930 F   0  0  0  0  0  0  0  0  0  0  0  0
   18.9970    1.7870   -2.9660 F   0  0  0  0  0  0  0  0  0  0  0  0
   16.6035    4.7010   -5.8640 H   0  0  0  0  0  0  0  0  0  0  0  0
   18.3987    3.4104   -4.7234 H   0  0  0  0  0  0  0  0  0  0  0  0
   16.4479    4.0063   -0.9407 H   0  0  0  0  0  0  0  0  0  0  0  0
   14.7353    5.6545   -4.5312 H   0  0  0  0  0  0  0  0  0  0  0  0
   15.1349    5.3446    0.9556 H   0  0  0  0  0  0  0  0  0  0  0  0
   16.4408    6.8761    2.3841 H   0  0  0  0  0  0  0  0  0  0  0  0
   16.4256    9.8177   -0.7386 H   0  0  0  0  0  0  0  0  0  0  0  0
   15.1245    8.2732   -2.1862 H   0  0  0  0  0  0  0  0  0  0  0  0
   17.3650   10.3531    1.2855 H   0  0  0  0  0  0  0  0  0  0  0  0
   18.3092    8.9035    1.8971 H   0  0  0  0  0  0  0  0  0  0  0  0
   17.2431    9.1396    3.9575 H   0  0  0  0  0  0  0  0  0  0  0  0
   16.5958    9.4294    5.7031 H   0  0  0  0  0  0  0  0  0  0  0  0
   16.1501    9.4141    8.7382 H   0  0  0  0  0  0  0  0  0  0  0  0
   14.3054   10.5219   10.0934 H   0  0  0  0  0  0  0  0  0  0  0  0
   13.5646   11.8309    3.7428 H   0  0  0  0  0  0  0  0  0  0  0  0
 24 25  1  0
 24 23  1  0
 25 26  2  0
 23 22  2  0
 26 22  1  0
 26 27  1  0
 22 21  1  0
 27 28  2  0
 21 20  2  0
 28 20  1  0
 20 18  1  0
 18 17  1  0
 18 19  2  0
 17 16  1  0
 16 13  1  0
 12 13  1  0
 12 11  2  0
 13 14  2  0
 11 10  1  0
 14 15  1  0
  9  7  2  0
 10 15  2  0
 10  7  1  0
  7  8  2  0
  7  5  1  0
 31 29  1  0
  4  5  2  0
  4  3  1  0
  5  6  1  0
 29 30  1  0
 29  3  1  0
 29 32  1  0
  3  2  2  0
  6  1  2  0
  2  1  1  0
  1 33  1  0
  2 34  1  0
  4 35  1  0
  6 36  1  0
 11 37  1  0
 12 38  1  0
 14 39  1  0
 15 40  1  0
 16 41  1  0
 16 42  1  0
 17 43  1  0
 21 44  1  0
 23 45  1  0
 24 46  1  0
 28 47  1  0
A    1
C1
A    2
C2
A    3
C3
A    4
C4
A    5
C5
A    6
C6
A    7
S7
A    8
O8
A    9
O9
A   10
C10
A   11
C11
A   12
C12
A   13
C13
A   14
C14
A   15
C15
A   16
C16
A   17
N17
A   18
C18
A   19
O19
A   20
C20
A   21
C21
A   22
C22
A   23
C23
A   24
N24
A   25
N25
A   26
C27
A   27
N28
A   28
C29
A   29
C30
A   30
F31
A   31
F32
A   32
F33
M  END
