4O1L_HO4_A_403
     RDKit          3D

 35 37  0  0  0  0  0  0  0  0999 V2000
   16.2100   22.5570   14.0030 C   0  0  0  0  0  0  0  0  0  0  0  0
   16.6050   21.6840   14.5540 C   0  0  0  0  0  0  0  0  0  0  0  0
   17.1140   20.6550   15.1040 C   0  0  0  0  0  0  0  0  0  0  0  0
   18.4510   20.6160   15.1380 C   0  0  0  0  0  0  0  0  0  0  0  0
   16.5630   19.6180   15.7730 C   0  0  0  0  0  0  0  0  0  0  0  0
   15.2920   19.1740   16.0760 C   0  0  0  0  0  0  0  0  0  0  0  0
   14.2260   19.8610   15.6540 N   0  0  0  0  0  0  0  0  0  0  0  0
   15.1020   18.0660   16.7810 N   0  0  0  0  0  0  0  0  0  0  0  0
   16.2170   17.3350   17.1990 C   0  0  0  0  0  0  0  0  0  0  0  0
   17.4870   17.7700   16.8410 N   0  0  0  0  0  0  0  0  0  0  0  0
   17.6400   18.9010   16.1820 C   0  0  0  0  0  0  0  0  0  0  0  0
   18.7740   19.5080   15.7860 N   0  0  0  0  0  0  0  0  0  0  0  0
   20.1190   18.9730   16.0500 C   0  0  0  0  0  0  0  0  0  0  0  0
   20.8750   19.8880   16.7590 O   0  0  0  0  0  0  0  0  0  0  0  0
   22.2680   19.4050   16.5980 C   0  0  0  0  0  0  0  0  0  0  0  0
   23.2530   20.5090   16.7360 C   0  0  0  0  0  0  0  0  0  0  0  0
   23.4180   20.6380   18.1180 O   0  0  0  0  0  0  0  0  0  0  0  0
   22.3270   18.8920   15.1770 C   0  0  0  0  0  0  0  0  0  0  0  0
   22.9330   17.6000   15.1980 O   0  0  0  0  0  0  0  0  0  0  0  0
   20.8710   18.8140   14.7560 C   0  0  0  0  0  0  0  0  0  0  0  0
   20.6100   17.5110   14.2200 O   0  0  0  0  0  0  0  0  0  0  0  0
   15.8169   23.4258   13.4547 H   0  0  0  0  0  0  0  0  0  0  0  0
   19.1436   21.3570   14.7123 H   0  0  0  0  0  0  0  0  0  0  0  0
   13.5785   20.2783   16.3378 H   0  0  0  0  0  0  0  0  0  0  0  0
   14.0520   19.9731   14.6450 H   0  0  0  0  0  0  0  0  0  0  0  0
   16.0907   16.4255   17.8046 H   0  0  0  0  0  0  0  0  0  0  0  0
   19.9827   18.0256   16.5921 H   0  0  0  0  0  0  0  0  0  0  0  0
   22.5132   18.6515   17.3609 H   0  0  0  0  0  0  0  0  0  0  0  0
   24.2048   20.2479   16.2504 H   0  0  0  0  0  0  0  0  0  0  0  0
   22.9165   21.4413   16.2590 H   0  0  0  0  0  0  0  0  0  0  0  0
   22.7299   20.1001   18.5841 H   0  0  0  0  0  0  0  0  0  0  0  0
   22.9108   19.5201   14.4880 H   0  0  0  0  0  0  0  0  0  0  0  0
   23.0673   17.3137   16.1361 H   0  0  0  0  0  0  0  0  0  0  0  0
   20.5952   19.5616   13.9977 H   0  0  0  0  0  0  0  0  0  0  0  0
   20.4813   16.8686   14.9622 H   0  0  0  0  0  0  0  0  0  0  0  0
  1  2  3  0
 21 20  1  0
  2  3  1  0
 20 18  1  0
 20 13  1  0
  3  4  2  0
  3  5  1  0
  4 12  1  0
 18 19  1  0
 18 15  1  0
  7  6  1  0
  5  6  2  0
  5 11  1  0
 12 13  1  0
 12 11  1  0
 13 14  1  0
  6  8  1  0
 11 10  2  0
 15 16  1  0
 15 14  1  0
 16 17  1  0
  8  9  2  0
 10  9  1  0
  1 22  1  0
  4 23  1  0
  7 24  1  0
  7 25  1  0
  9 26  1  0
 13 27  1  0
 15 28  1  0
 16 29  1  0
 16 30  1  0
 17 31  1  0
 18 32  1  0
 19 33  1  0
 20 34  1  0
 21 35  1  0
A    1
C11
A    2
C10
A    3
C7
A    4
C8
A    5
C5
A    6
C6
A    7
N6
A    8
N1
A    9
C2
A   10
N3
A   11
C4
A   12
N9
A   13
C1'
A   14
O4'
A   15
C4'
A   16
C5'
A   17
O5'
A   18
C3'
A   19
O3'
A   20
C2'
A   21
O2'
M  END
