4O2A_2RR_B_504
     RDKit          3D

 46 49  0  0  0  0  0  0  0  0999 V2000
   17.3360   63.5760   43.5860 C   0  0  0  0  0  0  0  0  0  0  0  0
   16.2280   64.2930   42.8700 C   0  0  0  0  0  0  0  0  0  0  0  0
   15.6810   65.2450   43.4220 O   0  0  0  0  0  0  0  0  0  0  0  0
   15.4210   63.3270   38.8400 C   0  0  0  0  0  0  0  0  0  0  0  0
   16.3340   62.5440   39.5650 C   0  0  0  0  0  0  0  0  0  0  0  0
   16.5950   62.8660   40.8850 C   0  0  0  0  0  0  0  0  0  0  0  0
   14.7710   64.4240   39.4270 C   0  0  0  0  0  0  0  0  0  0  0  0
   15.0410   64.7340   40.7480 C   0  0  0  0  0  0  0  0  0  0  0  0
   15.9540   63.9610   41.4840 C   0  0  0  0  0  0  0  0  0  0  0  0
   15.1570   63.0070   37.5140 N   0  0  0  0  0  0  0  0  0  0  0  0
   17.9730   65.1330   45.5060 C   0  0  0  0  0  0  0  0  0  0  0  0
   17.2870   63.9820   47.1960 C   0  0  0  0  0  0  0  0  0  0  0  0
   17.3710   63.9880   45.0020 N   0  0  0  0  0  0  0  0  0  0  0  0
   16.9290   63.2390   46.0830 C   0  0  0  0  0  0  0  0  0  0  0  0
   16.9670   63.4800   48.4760 C   0  0  0  0  0  0  0  0  0  0  0  0
   16.2590   62.0050   46.1110 C   0  0  0  0  0  0  0  0  0  0  0  0
   16.3070   62.2650   48.5390 C   0  0  0  0  0  0  0  0  0  0  0  0
   15.9550   61.5320   47.3730 C   0  0  0  0  0  0  0  0  0  0  0  0
   17.9220   65.1320   46.8400 N   0  0  0  0  0  0  0  0  0  0  0  0
   17.2590   70.2390   46.7180 C   0  0  0  0  0  0  0  0  0  0  0  0
   19.1870   67.3180   45.0160 C   0  0  0  0  0  0  0  0  0  0  0  0
   19.5640   67.9700   43.9500 N   0  0  0  0  0  0  0  0  0  0  0  0
   18.5510   66.1390   44.6140 C   0  0  0  0  0  0  0  0  0  0  0  0
   18.5700   66.0800   43.3070 N   0  0  0  0  0  0  0  0  0  0  0  0
   16.2780   70.1080   47.2880 N   0  0  0  0  0  0  0  0  0  0  0  0
   19.1910   67.1970   42.8980 O   0  0  0  0  0  0  0  0  0  0  0  0
   18.8640   67.9740   46.2160 N   0  0  0  0  0  0  0  0  0  0  0  0
   19.5000   69.2920   46.3920 C   0  0  0  0  0  0  0  0  0  0  0  0
   18.5230   70.3970   45.9830 C   0  0  0  0  0  0  0  0  0  0  0  0
   17.1660   62.4909   43.5264 H   0  0  0  0  0  0  0  0  0  0  0  0
   18.2958   63.8297   43.1122 H   0  0  0  0  0  0  0  0  0  0  0  0
   16.8344   61.6871   39.0903 H   0  0  0  0  0  0  0  0  0  0  0  0
   17.3070   62.2619   41.4665 H   0  0  0  0  0  0  0  0  0  0  0  0
   14.0583   65.0276   38.8459 H   0  0  0  0  0  0  0  0  0  0  0  0
   14.5387   65.5892   41.2238 H   0  0  0  0  0  0  0  0  0  0  0  0
   14.5174   62.2317   37.2888 H   0  0  0  0  0  0  0  0  0  0  0  0
   15.6009   63.5451   36.7562 H   0  0  0  0  0  0  0  0  0  0  0  0
   17.2322   64.0335   49.3889 H   0  0  0  0  0  0  0  0  0  0  0  0
   15.9956   61.4554   45.1953 H   0  0  0  0  0  0  0  0  0  0  0  0
   16.0460   61.8526   49.5248 H   0  0  0  0  0  0  0  0  0  0  0  0
   15.4309   60.5705   47.4774 H   0  0  0  0  0  0  0  0  0  0  0  0
   18.2314   67.5652   46.9186 H   0  0  0  0  0  0  0  0  0  0  0  0
   20.4009   69.3498   45.7634 H   0  0  0  0  0  0  0  0  0  0  0  0
   19.7766   69.4240   47.4484 H   0  0  0  0  0  0  0  0  0  0  0  0
   18.9619   71.3781   46.2173 H   0  0  0  0  0  0  0  0  0  0  0  0
   18.3270   70.3281   44.9028 H   0  0  0  0  0  0  0  0  0  0  0  0
 10  4  1  0
  4  7  2  0
  4  5  1  0
  7  8  1  0
  5  6  2  0
  8  9  2  0
  6  9  1  0
  9  2  1  0
  2  3  2  0
  2  1  1  0
 26 24  1  0
 26 22  1  0
 24 23  2  0
  1 13  1  0
 22 21  2  0
 23 21  1  0
 23 11  1  0
 13 11  1  0
 13 14  1  0
 21 27  1  0
 11 19  2  0
 29 28  1  0
 29 20  1  0
 14 16  2  0
 14 12  1  0
 16 18  1  0
 27 28  1  0
 20 25  3  0
 19 12  1  0
 12 15  2  0
 18 17  2  0
 15 17  1  0
  1 30  1  0
  1 31  1  0
  5 32  1  0
  6 33  1  0
  7 34  1  0
  8 35  1  0
 10 36  1  0
 10 37  1  0
 15 38  1  0
 16 39  1  0
 17 40  1  0
 18 41  1  0
 27 42  1  0
 28 43  1  0
 28 44  1  0
 29 45  1  0
 29 46  1  0
A    1
C20
A    2
C21
A    3
O21
A    4
C25
A    5
C26
A    6
C27
A    7
C24
A    8
C23
A    9
C22
A   10
N28
A   11
C2
A   12
C4
A   13
N1
A   14
C9
A   15
C5
A   16
C8
A   17
C6
A   18
C7
A   19
N3
A   20
C18
A   21
C14
A   22
N13
A   23
C10
A   24
N11
A   25
N19
A   26
O12
A   27
N15
A   28
C16
A   29
C17
M  END
