4O33_TZN_A_501
     RDKit          3D

 53 56  0  0  0  0  0  0  0  0999 V2000
   22.4350    2.6930   19.8390 C   0  0  0  0  0  0  0  0  0  0  0  0
   21.7990    1.3700   20.0710 C   0  0  0  0  0  0  0  0  0  0  0  0
   20.7160    1.3690   18.9850 C   0  0  0  0  0  0  0  0  0  0  0  0
   21.0800    2.4240   18.1270 O   0  0  0  0  0  0  0  0  0  0  0  0
   21.3950    3.3860   19.0430 C   0  0  0  0  0  0  0  0  0  0  0  0
   20.1910    3.7370   19.8030 C   0  0  0  0  0  0  0  0  0  0  0  0
   20.1070    3.2350   20.8770 O   0  0  0  0  0  0  0  0  0  0  0  0
   19.1360    4.6010   19.2730 N   0  0  0  0  0  0  0  0  0  0  0  0
   18.0330    4.8230   20.0930 C   0  0  0  0  0  0  0  0  0  0  0  0
   17.3670    6.2100   19.8540 C   0  0  0  0  0  0  0  0  0  0  0  0
   19.1400    5.1950   17.9760 C   0  0  0  0  0  0  0  0  0  0  0  0
   19.0400    6.6780   18.1120 C   0  0  0  0  0  0  0  0  0  0  0  0
   17.8440    6.9840   18.8050 N   0  0  0  0  0  0  0  0  0  0  0  0
   17.2330    8.2410   18.6740 C   0  0  0  0  0  0  0  0  0  0  0  0
   16.3180    8.4130   19.5010 N   0  0  0  0  0  0  0  0  0  0  0  0
   17.5820    9.0460   17.7760 N   0  0  0  0  0  0  0  0  0  0  0  0
   17.0180   10.2200   17.6410 C   0  0  0  0  0  0  0  0  0  0  0  0
   17.3960   11.1210   16.6740 C   0  0  0  0  0  0  0  0  0  0  0  0
   16.7100   12.3340   16.6570 C   0  0  0  0  0  0  0  0  0  0  0  0
   16.9440   13.3780   15.7800 O   0  0  0  0  0  0  0  0  0  0  0  0
   18.1320   13.4040   15.1100 C   0  0  0  0  0  0  0  0  0  0  0  0
   15.6510   12.5780   17.5270 C   0  0  0  0  0  0  0  0  0  0  0  0
   15.0510   13.7830   17.3650 O   0  0  0  0  0  0  0  0  0  0  0  0
   13.9370   14.0230   18.1230 C   0  0  0  0  0  0  0  0  0  0  0  0
   15.2720   11.6620   18.4650 C   0  0  0  0  0  0  0  0  0  0  0  0
   15.9480   10.4880   18.5300 C   0  0  0  0  0  0  0  0  0  0  0  0
   15.6310    9.4930   19.4890 C   0  0  0  0  0  0  0  0  0  0  0  0
   14.6060    9.6370   20.4150 N   0  0  0  0  0  0  0  0  0  0  0  0
   23.3737    2.5939   19.2741 H   0  0  0  0  0  0  0  0  0  0  0  0
   22.7199    3.2212   20.7609 H   0  0  0  0  0  0  0  0  0  0  0  0
   21.3610    1.3037   21.0779 H   0  0  0  0  0  0  0  0  0  0  0  0
   22.4934    0.5185   20.0185 H   0  0  0  0  0  0  0  0  0  0  0  0
   19.7238    1.5493   19.4245 H   0  0  0  0  0  0  0  0  0  0  0  0
   20.6498    0.4049   18.4596 H   0  0  0  0  0  0  0  0  0  0  0  0
   21.7553    4.3469   18.6470 H   0  0  0  0  0  0  0  0  0  0  0  0
   17.2876    4.0379   19.8981 H   0  0  0  0  0  0  0  0  0  0  0  0
   18.3875    4.8031   21.1341 H   0  0  0  0  0  0  0  0  0  0  0  0
   17.4894    6.7963   20.7767 H   0  0  0  0  0  0  0  0  0  0  0  0
   16.3290    5.9751   19.5758 H   0  0  0  0  0  0  0  0  0  0  0  0
   18.2825    4.8204   17.3977 H   0  0  0  0  0  0  0  0  0  0  0  0
   20.0730    4.9350   17.4546 H   0  0  0  0  0  0  0  0  0  0  0  0
   19.9041    7.0583   18.6766 H   0  0  0  0  0  0  0  0  0  0  0  0
   19.0316    7.1488   17.1179 H   0  0  0  0  0  0  0  0  0  0  0  0
   18.1961   10.8968   15.9531 H   0  0  0  0  0  0  0  0  0  0  0  0
   18.9606   13.4221   15.8333 H   0  0  0  0  0  0  0  0  0  0  0  0
   18.2164   12.5075   14.4782 H   0  0  0  0  0  0  0  0  0  0  0  0
   18.1770   14.3033   14.4782 H   0  0  0  0  0  0  0  0  0  0  0  0
   14.2001   13.9663   19.1896 H   0  0  0  0  0  0  0  0  0  0  0  0
   13.5470   15.0258   17.8943 H   0  0  0  0  0  0  0  0  0  0  0  0
   13.1686   13.2698   17.8943 H   0  0  0  0  0  0  0  0  0  0  0  0
   14.4384   11.8708   19.1517 H   0  0  0  0  0  0  0  0  0  0  0  0
   14.8149    9.6077   21.4232 H   0  0  0  0  0  0  0  0  0  0  0  0
   13.6370    9.7731   20.0936 H   0  0  0  0  0  0  0  0  0  0  0  0
 21 20  1  0
 20 19  1  0
 19 18  2  0
 19 22  1  0
 18 17  1  0
 23 22  1  0
 23 24  1  0
 22 25  2  0
 17 16  2  0
 17 26  1  0
 16 14  1  0
 11 12  1  0
 11  8  1  0
 12 13  1  0
  4  3  1  0
  4  5  1  0
 25 26  1  0
 26 27  2  0
 14 13  1  0
 14 15  2  0
 13 10  1  0
  3  2  1  0
  5  6  1  0
  5  1  1  0
  8  6  1  0
  8  9  1  0
 27 15  1  0
 27 28  1  0
  6  7  2  0
  1  2  1  0
 10  9  1  0
  1 29  1  0
  1 30  1  0
  2 31  1  0
  2 32  1  0
  3 33  1  0
  3 34  1  0
  5 35  1  0
  9 36  1  0
  9 37  1  0
 10 38  1  0
 10 39  1  0
 11 40  1  0
 11 41  1  0
 12 42  1  0
 12 43  1  0
 18 44  1  0
 21 45  1  0
 21 46  1  0
 21 47  1  0
 24 48  1  0
 24 49  1  0
 24 50  1  0
 25 51  1  0
 28 52  1  0
 28 53  1  0
A    1
CAO
A    2
CAQ
A    3
CAR
A    4
OAA
A    5
CAJ
A    6
CAP
A    7
OAB
A    8
NAE
A    9
CAL
A   10
CAN
A   11
CAK
A   12
CAM
A   13
NAF
A   14
C2
A   15
N3
A   16
N1
A   17
C6
A   18
CAW
A   19
CAY
A   20
OAC
A   21
CBA
A   22
CAZ
A   23
OAD
A   24
CBB
A   25
CAX
A   26
C5
A   27
C4
A   28
NAI
M  END
