4O4G_2RT_A_601
     RDKit          3D

 43 45  0  0  0  0  0  0  0  0999 V2000
  215.6400  -27.5180   33.5430 N   0  0  0  0  0  0  0  0  0  0  0  0
  214.9130  -28.5980   34.1150 C   0  0  0  0  0  0  0  0  0  0  0  0
  214.4970  -29.7850   33.4250 C   0  0  0  0  0  0  0  0  0  0  0  0
  213.7710  -30.8020   34.0780 C   0  0  0  0  0  0  0  0  0  0  0  0
  213.4400  -30.6750   35.4490 C   0  0  0  0  0  0  0  0  0  0  0  0
  212.6840  -31.7220   36.1010 C   0  0  0  0  0  0  0  0  0  0  0  0
  212.0600  -32.5350   36.6360 N   0  0  0  0  0  0  0  0  0  0  0  0
  213.8330  -29.5210   36.1560 C   0  0  0  0  0  0  0  0  0  0  0  0
  214.5530  -28.5060   35.4900 C   0  0  0  0  0  0  0  0  0  0  0  0
  216.1040  -26.0680   35.3950 N   0  0  0  0  0  0  0  0  0  0  0  0
  216.6840  -24.9800   35.9150 C   0  0  0  0  0  0  0  0  0  0  0  0
  217.5490  -24.4700   33.8580 C   0  0  0  0  0  0  0  0  0  0  0  0
  217.4180  -24.1510   35.1600 N   0  0  0  0  0  0  0  0  0  0  0  0
  216.9750  -25.5720   33.2840 N   0  0  0  0  0  0  0  0  0  0  0  0
  216.2440  -26.3750   34.0980 C   0  0  0  0  0  0  0  0  0  0  0  0
  216.5040  -24.7130   37.2680 N   0  0  0  0  0  0  0  0  0  0  0  0
  215.3550  -25.1910   37.9060 C   0  0  0  0  0  0  0  0  0  0  0  0
  214.2370  -24.3070   38.0050 C   0  0  0  0  0  0  0  0  0  0  0  0
  214.2840  -22.8830   37.4570 C   0  0  0  0  0  0  0  0  0  0  0  0
  213.0440  -24.7420   38.6290 C   0  0  0  0  0  0  0  0  0  0  0  0
  212.9430  -26.0490   39.1560 C   0  0  0  0  0  0  0  0  0  0  0  0
  211.6570  -26.4960   39.8240 C   0  0  0  0  0  0  0  0  0  0  0  0
  214.0440  -26.9290   39.0550 C   0  0  0  0  0  0  0  0  0  0  0  0
  215.2540  -26.5190   38.4360 C   0  0  0  0  0  0  0  0  0  0  0  0
  216.3990  -27.5300   38.3680 C   0  0  0  0  0  0  0  0  0  0  0  0
  215.7451  -27.5859   32.5206 H   0  0  0  0  0  0  0  0  0  0  0  0
  214.7505  -29.9045   32.3613 H   0  0  0  0  0  0  0  0  0  0  0  0
  213.4604  -31.6978   33.5202 H   0  0  0  0  0  0  0  0  0  0  0  0
  213.5800  -29.4119   37.2209 H   0  0  0  0  0  0  0  0  0  0  0  0
  214.8475  -27.6092   36.0548 H   0  0  0  0  0  0  0  0  0  0  0  0
  218.1516  -23.8071   33.2196 H   0  0  0  0  0  0  0  0  0  0  0  0
  217.2062  -24.1715   37.7921 H   0  0  0  0  0  0  0  0  0  0  0  0
  214.3076  -22.1689   38.2933 H   0  0  0  0  0  0  0  0  0  0  0  0
  215.1868  -22.7566   36.8414 H   0  0  0  0  0  0  0  0  0  0  0  0
  213.3915  -22.6974   36.8414 H   0  0  0  0  0  0  0  0  0  0  0  0
  212.1872  -24.0563   38.7045 H   0  0  0  0  0  0  0  0  0  0  0  0
  211.7776  -26.4541   40.9166 H   0  0  0  0  0  0  0  0  0  0  0  0
  210.8354  -25.8307   39.5200 H   0  0  0  0  0  0  0  0  0  0  0  0
  211.4252  -27.5274   39.5200 H   0  0  0  0  0  0  0  0  0  0  0  0
  213.9622  -27.9475   39.4623 H   0  0  0  0  0  0  0  0  0  0  0  0
  216.7082  -27.8030   39.3878 H   0  0  0  0  0  0  0  0  0  0  0  0
  216.0618  -28.4304   37.8337 H   0  0  0  0  0  0  0  0  0  0  0  0
  217.2508  -27.0839   37.8337 H   0  0  0  0  0  0  0  0  0  0  0  0
 14 12  2  0
 14 15  1  0
  3  2  2  0
  3  4  1  0
  1 15  1  0
  1  2  1  0
 12 13  1  0
 15 10  2  0
  2  9  1  0
  4  5  2  0
 13 11  2  0
 10 11  1  0
  9  8  2  0
  5  8  1  0
  5  6  1  0
 11 16  1  0
  6  7  3  0
 16 17  1  0
 19 18  1  0
 17 18  2  0
 17 24  1  0
 18 20  1  0
 24 25  1  0
 24 23  2  0
 20 21  2  0
 23 21  1  0
 21 22  1  0
  1 26  1  0
  3 27  1  0
  4 28  1  0
  8 29  1  0
  9 30  1  0
 12 31  1  0
 16 32  1  0
 19 33  1  0
 19 34  1  0
 19 35  1  0
 20 36  1  0
 22 37  1  0
 22 38  1  0
 22 39  1  0
 23 40  1  0
 25 41  1  0
 25 42  1  0
 25 43  1  0
A    1
NAV
A    2
CBD
A    3
CAH
A    4
CAF
A    5
CBA
A    6
CAE
A    7
NAD
A    8
CAG
A    9
CAI
A   10
NAS
A   11
CBF
A   12
CBG
A   13
NAU
A   14
NAT
A   15
CBE
A   16
NAW
A   17
CBH
A   18
CBB
A   19
CAB
A   20
CAJ
A   21
CAZ
A   22
CAA
A   23
CAK
A   24
CBC
A   25
CAC
M  END
