4O6E_2SH_A_401
     RDKit          3D

 56 59  0  0  0  0  0  0  0  0999 V2000
   14.3980   11.4050   12.8610 C   0  0  0  0  0  0  0  0  0  0  0  0
   14.3830   10.0830   12.4440 C   0  0  0  0  0  0  0  0  0  0  0  0
   13.3230    9.2370   12.7760 C   0  0  0  0  0  0  0  0  0  0  0  0
   13.3580    7.7780   12.3740 C   0  0  0  0  0  0  0  0  0  0  0  0
   16.2560    5.7090   15.8260 C   0  0  0  0  0  0  0  0  0  0  0  0
   18.4820    4.9640   15.0140 C   0  0  0  0  0  0  0  0  0  0  0  0
   20.6540    5.4400   13.5220 C   0  0  0  0  0  0  0  0  0  0  0  0
   18.4370    5.8990   13.9950 C   0  0  0  0  0  0  0  0  0  0  0  0
   23.3220    6.8230   11.3060 C   0  0  0  0  0  0  0  0  0  0  0  0
   12.3140    9.7050   13.6110 C   0  0  0  0  0  0  0  0  0  0  0  0
   12.3260   11.0310   14.0390 C   0  0  0  0  0  0  0  0  0  0  0  0
   13.3770   11.8780   13.6830 C   0  0  0  0  0  0  0  0  0  0  0  0
   13.3900    7.5410   10.8630 C   0  0  0  0  0  0  0  0  0  0  0  0
   12.1680    8.0070   10.3020 O   0  0  0  0  0  0  0  0  0  0  0  0
   14.6230    7.2840   12.9230 N   0  0  0  0  0  0  0  0  0  0  0  0
   14.7660    6.6570   14.1130 C   0  0  0  0  0  0  0  0  0  0  0  0
   13.7840    6.3850   14.8090 O   0  0  0  0  0  0  0  0  0  0  0  0
   16.0280    6.3160   14.4940 N   0  0  0  0  0  0  0  0  0  0  0  0
   17.2910    4.5910   15.8510 C   0  0  0  0  0  0  0  0  0  0  0  0
   19.6680    4.2650   15.2390 C   0  0  0  0  0  0  0  0  0  0  0  0
   20.7330    4.5340   14.4960 N   0  0  0  0  0  0  0  0  0  0  0  0
   19.5400    6.1230   13.2780 N   0  0  0  0  0  0  0  0  0  0  0  0
   17.2030    6.7010   13.6610 C   0  0  0  0  0  0  0  0  0  0  0  0
   21.7980    5.6960   12.8020 N   0  0  0  0  0  0  0  0  0  0  0  0
   21.8300    6.5590   11.6180 C   0  0  0  0  0  0  0  0  0  0  0  0
   23.4110    7.6330   10.0050 C   0  0  0  0  0  0  0  0  0  0  0  0
   22.7350    6.8990    8.9720 O   0  0  0  0  0  0  0  0  0  0  0  0
   21.3240    6.6820    9.1490 C   0  0  0  0  0  0  0  0  0  0  0  0
   21.1120    5.8650   10.4370 C   0  0  0  0  0  0  0  0  0  0  0  0
   15.7150   12.4350   12.3690 Cl  0  0  0  0  0  0  0  0  0  0  0  0
   13.3920   13.1650   14.1040 F   0  0  0  0  0  0  0  0  0  0  0  0
   15.2184    9.6948   11.8428 H   0  0  0  0  0  0  0  0  0  0  0  0
   12.4484    7.2799   12.7408 H   0  0  0  0  0  0  0  0  0  0  0  0
   16.5925    6.5019   16.5101 H   0  0  0  0  0  0  0  0  0  0  0  0
   15.3009    5.2530   16.1256 H   0  0  0  0  0  0  0  0  0  0  0  0
   23.8507    5.8661   11.1844 H   0  0  0  0  0  0  0  0  0  0  0  0
   23.7866    7.3826   12.1312 H   0  0  0  0  0  0  0  0  0  0  0  0
   11.5078    9.0295   13.9330 H   0  0  0  0  0  0  0  0  0  0  0  0
   11.5027   11.4125   14.6609 H   0  0  0  0  0  0  0  0  0  0  0  0
   13.5047    6.4661   10.6593 H   0  0  0  0  0  0  0  0  0  0  0  0
   14.2375    8.0818   10.4167 H   0  0  0  0  0  0  0  0  0  0  0  0
   11.5408    8.2462   11.0297 H   0  0  0  0  0  0  0  0  0  0  0  0
   15.4720    7.4255   12.3573 H   0  0  0  0  0  0  0  0  0  0  0  0
   16.8405    3.6705   15.4513 H   0  0  0  0  0  0  0  0  0  0  0  0
   17.6191    4.4303   16.8886 H   0  0  0  0  0  0  0  0  0  0  0  0
   19.7194    3.4977   16.0255 H   0  0  0  0  0  0  0  0  0  0  0  0
   17.4193    7.7666   13.8275 H   0  0  0  0  0  0  0  0  0  0  0  0
   16.9478    6.4990   12.6102 H   0  0  0  0  0  0  0  0  0  0  0  0
   22.6777    5.2584   13.1112 H   0  0  0  0  0  0  0  0  0  0  0  0
   21.3051    7.5102   11.7907 H   0  0  0  0  0  0  0  0  0  0  0  0
   24.4657    7.7790    9.7287 H   0  0  0  0  0  0  0  0  0  0  0  0
   22.9427    8.6193   10.1388 H   0  0  0  0  0  0  0  0  0  0  0  0
   20.8078    7.6496    9.2344 H   0  0  0  0  0  0  0  0  0  0  0  0
   20.9158    6.1363    8.2855 H   0  0  0  0  0  0  0  0  0  0  0  0
   20.0357    5.7957   10.6531 H   0  0  0  0  0  0  0  0  0  0  0  0
   21.5269    4.8554   10.3007 H   0  0  0  0  0  0  0  0  0  0  0  0
 27 28  1  0
 27 26  1  0
 28 29  1  0
 26  9  1  0
 14 13  1  0
 29 25  1  0
 13  4  1  0
  9 25  1  0
 25 24  1  0
 30  1  1  0
  4  3  1  0
  4 15  1  0
  2  3  1  0
  2  1  2  0
  3 10  2  0
 24  7  1  0
  1 12  1  0
 15 16  1  0
 22  7  2  0
 22  8  1  0
  7 21  1  0
 10 11  1  0
 23  8  1  0
 23 18  1  0
 12 11  2  0
 12 31  1  0
  8  6  2  0
 16 18  1  0
 16 17  2  0
 18  5  1  0
 21 20  2  0
  6 20  1  0
  6 19  1  0
  5 19  1  0
  2 32  1  0
  4 33  1  0
  5 34  1  0
  5 35  1  0
  9 36  1  0
  9 37  1  0
 10 38  1  0
 11 39  1  0
 13 40  1  0
 13 41  1  0
 14 42  1  0
 15 43  1  0
 19 44  1  0
 19 45  1  0
 20 46  1  0
 23 47  1  0
 23 48  1  0
 24 49  1  0
 25 50  1  0
 26 51  1  0
 26 52  1  0
 28 53  1  0
 28 54  1  0
 29 55  1  0
 29 56  1  0
A    1
C4
A    2
C5
A    3
C6
A    4
C7
A    5
C15
A    6
C17
A    7
C20
A    8
C22
A    9
C26
A   10
C1
A   11
C2
A   12
C3
A   13
C9
A   14
O10
A   15
N11
A   16
C12
A   17
O13
A   18
N14
A   19
C16
A   20
C18
A   21
N19
A   22
N21
A   23
C23
A   24
N24
A   25
C25
A   26
C27
A   27
O28
A   28
C29
A   29
C30
A   30
CL1
A   31
F32
M  END
