4O72_2R4_A_201
     RDKit          3D

 49 54  0  0  0  0  0  0  0  0999 V2000
  129.2520   -3.9790    0.1040 O   0  0  0  0  0  0  0  0  0  0  0  0
  128.2110   -4.6580   -0.0970 C   0  0  0  0  0  0  0  0  0  0  0  0
  126.9970   -4.4000    0.5890 C   0  0  0  0  0  0  0  0  0  0  0  0
  125.8420   -5.1800    0.3070 C   0  0  0  0  0  0  0  0  0  0  0  0
  124.5800   -4.9400    0.9170 C   0  0  0  0  0  0  0  0  0  0  0  0
  123.4690   -5.7710    0.5790 C   0  0  0  0  0  0  0  0  0  0  0  0
  123.0250   -5.9050   -0.7590 C   0  0  0  0  0  0  0  0  0  0  0  0
  121.9410   -6.7400   -1.1010 C   0  0  0  0  0  0  0  0  0  0  0  0
  121.2700   -7.4700   -0.1120 C   0  0  0  0  0  0  0  0  0  0  0  0
  121.6930   -7.3580    1.2330 C   0  0  0  0  0  0  0  0  0  0  0  0
  122.7790   -6.5120    1.5400 C   0  0  0  0  0  0  0  0  0  0  0  0
  123.0790   -6.5230    3.2730 S   0  0  0  0  0  0  0  0  0  0  0  0
  121.8300   -7.7130    3.5690 C   0  0  0  0  0  0  0  0  0  0  0  0
  121.1750   -8.0270    2.3630 C   0  0  0  0  0  0  0  0  0  0  0  0
  120.1220   -8.9650    2.4030 C   0  0  0  0  0  0  0  0  0  0  0  0
  119.7360   -9.5160    3.6310 C   0  0  0  0  0  0  0  0  0  0  0  0
  120.4120   -9.1920    4.8190 C   0  0  0  0  0  0  0  0  0  0  0  0
  121.4710   -8.2820    4.7990 C   0  0  0  0  0  0  0  0  0  0  0  0
  124.5190   -3.9380    1.8960 C   0  0  0  0  0  0  0  0  0  0  0  0
  125.6400   -3.1350    2.1770 C   0  0  0  0  0  0  0  0  0  0  0  0
  126.8590   -3.3550    1.5280 C   0  0  0  0  0  0  0  0  0  0  0  0
  125.9640   -6.1600   -0.6210 O   0  0  0  0  0  0  0  0  0  0  0  0
  127.0760   -6.3870   -1.3600 C   0  0  0  0  0  0  0  0  0  0  0  0
  126.9270   -7.3310   -2.3330 N   0  0  0  0  0  0  0  0  0  0  0  0
  125.6750   -8.0480   -2.4940 C   0  0  0  0  0  0  0  0  0  0  0  0
  125.1440   -7.8370   -3.9230 C   0  0  0  0  0  0  0  0  0  0  0  0
  126.1770   -8.1740   -4.8590 O   0  0  0  0  0  0  0  0  0  0  0  0
  127.3220   -7.3270   -4.7010 C   0  0  0  0  0  0  0  0  0  0  0  0
  127.9510   -7.5880   -3.3250 C   0  0  0  0  0  0  0  0  0  0  0  0
  128.2350   -5.6300   -1.1010 C   0  0  0  0  0  0  0  0  0  0  0  0
  123.5391   -5.3430   -1.5526 H   0  0  0  0  0  0  0  0  0  0  0  0
  121.6208   -6.8183   -2.1505 H   0  0  0  0  0  0  0  0  0  0  0  0
  120.4249   -8.1221   -0.3778 H   0  0  0  0  0  0  0  0  0  0  0  0
  119.6082   -9.2612    1.4766 H   0  0  0  0  0  0  0  0  0  0  0  0
  118.8878  -10.2155    3.6661 H   0  0  0  0  0  0  0  0  0  0  0  0
  120.1062   -9.6566    5.7680 H   0  0  0  0  0  0  0  0  0  0  0  0
  122.0083   -8.0191    5.7221 H   0  0  0  0  0  0  0  0  0  0  0  0
  123.5831   -3.7776    2.4514 H   0  0  0  0  0  0  0  0  0  0  0  0
  125.5564   -2.3245    2.9160 H   0  0  0  0  0  0  0  0  0  0  0  0
  127.7193   -2.7070    1.7515 H   0  0  0  0  0  0  0  0  0  0  0  0
  124.9393   -7.6687   -1.7696 H   0  0  0  0  0  0  0  0  0  0  0  0
  125.8416   -9.1212   -2.3191 H   0  0  0  0  0  0  0  0  0  0  0  0
  124.8538   -6.7845   -4.0570 H   0  0  0  0  0  0  0  0  0  0  0  0
  124.2659   -8.4777   -4.0917 H   0  0  0  0  0  0  0  0  0  0  0  0
  128.0560   -7.5482   -5.4899 H   0  0  0  0  0  0  0  0  0  0  0  0
  127.0175   -6.2727   -4.7764 H   0  0  0  0  0  0  0  0  0  0  0  0
  128.2889   -8.6326   -3.2566 H   0  0  0  0  0  0  0  0  0  0  0  0
  128.8240   -6.9384   -3.1640 H   0  0  0  0  0  0  0  0  0  0  0  0
  129.1517   -5.8023   -1.6841 H   0  0  0  0  0  0  0  0  0  0  0  0
 27 28  1  0
 27 26  1  0
 28 29  1  0
 26 25  1  0
 29 24  1  0
 25 24  1  0
 24 23  1  0
 23 30  2  0
 23 22  1  0
  8  7  2  0
  8  9  1  0
 30  2  1  0
  7  6  1  0
 22  4  1  0
  9 10  2  0
  2  1  2  0
  2  3  1  0
  4  3  2  0
  4  5  1  0
  6  5  1  0
  6 11  2  0
  3 21  1  0
  5 19  2  0
 10 11  1  0
 10 14  1  0
 21 20  2  0
 11 12  1  0
 19 20  1  0
 14 15  2  0
 14 13  1  0
 15 16  1  0
 12 13  1  0
 13 18  2  0
 16 17  2  0
 18 17  1  0
  7 31  1  0
  8 32  1  0
  9 33  1  0
 15 34  1  0
 16 35  1  0
 17 36  1  0
 18 37  1  0
 19 38  1  0
 20 39  1  0
 21 40  1  0
 25 41  1  0
 25 42  1  0
 26 43  1  0
 26 44  1  0
 28 45  1  0
 28 46  1  0
 29 47  1  0
 29 48  1  0
 30 49  1  0
A    1
O01
A    2
C02
A    3
C03
A    4
C04
A    5
C05
A    6
C06
A    7
C07
A    8
C08
A    9
C09
A   10
C10
A   11
C11
A   12
S12
A   13
C13
A   14
C14
A   15
C15
A   16
C16
A   17
C17
A   18
C18
A   19
C19
A   20
C20
A   21
C21
A   22
O22
A   23
C23
A   24
N24
A   25
C25
A   26
C26
A   27
O27
A   28
C28
A   29
C29
A   30
C30
M  END
