4O77_2RE_A_201
     RDKit          3D

 39 42  0  0  0  0  0  0  0  0999 V2000
   -6.5100  -12.5910  -25.7780 F   0  0  0  0  0  0  0  0  0  0  0  0
   -5.9200  -11.8970  -24.8290 C   0  0  0  0  0  0  0  0  0  0  0  0
   -4.8480  -12.4580  -24.1130 C   0  0  0  0  0  0  0  0  0  0  0  0
   -4.2090  -11.7220  -23.0940 C   0  0  0  0  0  0  0  0  0  0  0  0
   -4.6300  -10.4110  -22.7690 C   0  0  0  0  0  0  0  0  0  0  0  0
   -3.9390   -9.7160  -21.7410 C   0  0  0  0  0  0  0  0  0  0  0  0
   -3.6190   -8.3550  -21.6270 C   0  0  0  0  0  0  0  0  0  0  0  0
   -3.8740   -7.2620  -22.4860 C   0  0  0  0  0  0  0  0  0  0  0  0
   -3.6720   -7.3740  -23.8850 C   0  0  0  0  0  0  0  0  0  0  0  0
   -3.9080   -6.2540  -24.7160 C   0  0  0  0  0  0  0  0  0  0  0  0
   -4.3040   -5.0800  -24.1590 N   0  0  0  0  0  0  0  0  0  0  0  0
   -4.4890   -4.9260  -22.8190 C   0  0  0  0  0  0  0  0  0  0  0  0
   -4.2690   -6.0150  -21.9470 C   0  0  0  0  0  0  0  0  0  0  0  0
   -2.9440   -8.2180  -20.4780 N   0  0  0  0  0  0  0  0  0  0  0  0
   -2.8510   -9.4080  -19.8740 C   0  0  0  0  0  0  0  0  0  0  0  0
   -2.1750   -9.6690  -18.6610 C   0  0  0  0  0  0  0  0  0  0  0  0
   -1.2630   -8.7160  -18.1330 C   0  0  0  0  0  0  0  0  0  0  0  0
   -0.5590   -8.9900  -16.9420 C   0  0  0  0  0  0  0  0  0  0  0  0
   -0.7550  -10.2150  -16.2670 C   0  0  0  0  0  0  0  0  0  0  0  0
   -0.0830  -10.4750  -15.1140 O   0  0  0  0  0  0  0  0  0  0  0  0
   -1.6420  -11.1720  -16.7940 C   0  0  0  0  0  0  0  0  0  0  0  0
   -2.3480  -10.8990  -17.9860 C   0  0  0  0  0  0  0  0  0  0  0  0
   -3.4390  -10.3380  -20.6540 N   0  0  0  0  0  0  0  0  0  0  0  0
   -5.7150   -9.8610  -23.4890 C   0  0  0  0  0  0  0  0  0  0  0  0
   -6.3520  -10.5940  -24.5160 C   0  0  0  0  0  0  0  0  0  0  0  0
   -4.5059  -13.4765  -24.3490 H   0  0  0  0  0  0  0  0  0  0  0  0
   -3.3707  -12.1739  -22.5436 H   0  0  0  0  0  0  0  0  0  0  0  0
   -3.3340   -8.3256  -24.3212 H   0  0  0  0  0  0  0  0  0  0  0  0
   -3.7719   -6.3330  -25.8047 H   0  0  0  0  0  0  0  0  0  0  0  0
   -4.8096   -3.9541  -22.4158 H   0  0  0  0  0  0  0  0  0  0  0  0
   -4.4032   -5.8950  -20.8618 H   0  0  0  0  0  0  0  0  0  0  0  0
   -2.5571   -7.3346  -20.1162 H   0  0  0  0  0  0  0  0  0  0  0  0
   -1.1054   -7.7607  -18.6552 H   0  0  0  0  0  0  0  0  0  0  0  0
    0.1447   -8.2475  -16.5377 H   0  0  0  0  0  0  0  0  0  0  0  0
   -0.5164  -10.3073  -14.2399 H   0  0  0  0  0  0  0  0  0  0  0  0
   -1.7853  -12.1325  -16.2774 H   0  0  0  0  0  0  0  0  0  0  0  0
   -3.0396  -11.6511  -18.3935 H   0  0  0  0  0  0  0  0  0  0  0  0
   -6.0687   -8.8480  -23.2466 H   0  0  0  0  0  0  0  0  0  0  0  0
   -7.1879  -10.1450  -25.0725 H   0  0  0  0  0  0  0  0  0  0  0  0
  1  2  1  0
  2 25  2  0
  2  3  1  0
 10 11  1  0
 10  9  2  0
 25 24  1  0
 11 12  2  0
  3  4  2  0
  9  8  1  0
 24  5  2  0
  4  5  1  0
 12 13  1  0
  5  6  1  0
  8 13  2  0
  8  7  1  0
  6  7  2  0
  6 23  1  0
  7 14  1  0
 23 15  2  0
 14 15  1  0
 15 16  1  0
 16 17  2  0
 16 22  1  0
 17 18  1  0
 22 21  2  0
 18 19  2  0
 21 19  1  0
 19 20  1  0
  3 26  1  0
  4 27  1  0
  9 28  1  0
 10 29  1  0
 12 30  1  0
 13 31  1  0
 14 32  1  0
 17 33  1  0
 18 34  1  0
 20 35  1  0
 21 36  1  0
 22 37  1  0
 24 38  1  0
 25 39  1  0
A    1
F01
A    2
C02
A    3
C03
A    4
C04
A    5
C05
A    6
C06
A    7
C07
A    8
C08
A    9
C09
A   10
C10
A   11
N11
A   12
C12
A   13
C13
A   14
N14
A   15
C15
A   16
C16
A   17
C17
A   18
C18
A   19
C19
A   20
O20
A   21
C21
A   22
C22
A   23
N23
A   24
C24
A   25
C25
M  END
