4O7B_2RJ_A_201
     RDKit          3D

 59 63  0  0  0  0  0  0  0  0999 V2000
  121.7470   -5.5350   -6.6150 C   0  0  0  0  0  0  0  0  0  0  0  0
  121.4760   -6.5460   -5.5640 C   0  0  0  0  0  0  0  0  0  0  0  0
  121.1230   -6.2480   -4.2070 C   0  0  0  0  0  0  0  0  0  0  0  0
  120.9200   -7.3220   -3.3030 C   0  0  0  0  0  0  0  0  0  0  0  0
  121.0350   -8.6670   -3.7250 C   0  0  0  0  0  0  0  0  0  0  0  0
  121.3960   -8.9380   -5.0420 C   0  0  0  0  0  0  0  0  0  0  0  0
  121.5990   -7.8920   -5.9490 C   0  0  0  0  0  0  0  0  0  0  0  0
  120.5190   -7.0970   -2.0150 O   0  0  0  0  0  0  0  0  0  0  0  0
  121.4500   -6.8320   -1.0670 C   0  0  0  0  0  0  0  0  0  0  0  0
  121.0600   -6.8370    0.2230 N   0  0  0  0  0  0  0  0  0  0  0  0
  121.9450   -6.5830    1.2240 C   0  0  0  0  0  0  0  0  0  0  0  0
  123.2850   -6.3500    0.9070 C   0  0  0  0  0  0  0  0  0  0  0  0
  123.6780   -6.3260   -0.4650 C   0  0  0  0  0  0  0  0  0  0  0  0
  122.7310   -6.5930   -1.4040 N   0  0  0  0  0  0  0  0  0  0  0  0
  125.0320   -6.1110   -0.8610 C   0  0  0  0  0  0  0  0  0  0  0  0
  125.9960   -5.2910   -0.2400 C   0  0  0  0  0  0  0  0  0  0  0  0
  127.1650   -5.4020   -0.8980 N   0  0  0  0  0  0  0  0  0  0  0  0
  126.9590   -6.2760   -1.8870 C   0  0  0  0  0  0  0  0  0  0  0  0
  125.6840   -6.7230   -1.8990 N   0  0  0  0  0  0  0  0  0  0  0  0
  125.1790   -7.6910   -2.8600 C   0  0  0  0  0  0  0  0  0  0  0  0
  125.6720   -9.1450   -2.6600 C   0  0  0  0  0  0  0  0  0  0  0  0
  125.1310  -10.0730   -3.7750 C   0  0  0  0  0  0  0  0  0  0  0  0
  125.5210   -9.5820   -5.1130 N   0  0  0  0  0  0  0  0  0  0  0  0
  125.0360   -8.2110   -5.3710 C   0  0  0  0  0  0  0  0  0  0  0  0
  125.5270   -7.2010   -4.2990 C   0  0  0  0  0  0  0  0  0  0  0  0
  125.9180   -4.3680    0.8300 C   0  0  0  0  0  0  0  0  0  0  0  0
  127.0890   -4.0180    1.5310 C   0  0  0  0  0  0  0  0  0  0  0  0
  127.0430   -3.0730    2.5530 C   0  0  0  0  0  0  0  0  0  0  0  0
  125.8360   -2.4340    2.8870 C   0  0  0  0  0  0  0  0  0  0  0  0
  124.6650   -2.7510    2.1900 C   0  0  0  0  0  0  0  0  0  0  0  0
  124.7180   -3.6960    1.1510 C   0  0  0  0  0  0  0  0  0  0  0  0
  125.8130   -1.5540    3.8600 F   0  0  0  0  0  0  0  0  0  0  0  0
  120.9670   -4.8560   -3.7160 C   0  0  0  0  0  0  0  0  0  0  0  0
  122.0042   -4.5753   -6.1430 H   0  0  0  0  0  0  0  0  0  0  0  0
  122.5864   -5.8725   -7.2407 H   0  0  0  0  0  0  0  0  0  0  0  0
  120.8513   -5.4074   -7.2407 H   0  0  0  0  0  0  0  0  0  0  0  0
  120.8414   -9.4895   -3.0207 H   0  0  0  0  0  0  0  0  0  0  0  0
  121.5223   -9.9799   -5.3713 H   0  0  0  0  0  0  0  0  0  0  0  0
  121.8617   -8.1294   -6.9905 H   0  0  0  0  0  0  0  0  0  0  0  0
  121.6092   -6.5613    2.2713 H   0  0  0  0  0  0  0  0  0  0  0  0
  124.0267   -6.1874    1.7029 H   0  0  0  0  0  0  0  0  0  0  0  0
  127.7317   -6.5926   -2.6030 H   0  0  0  0  0  0  0  0  0  0  0  0
  124.0922   -7.7407   -2.6975 H   0  0  0  0  0  0  0  0  0  0  0  0
  125.3213   -9.5127   -1.6844 H   0  0  0  0  0  0  0  0  0  0  0  0
  126.7712   -9.1511   -2.7019 H   0  0  0  0  0  0  0  0  0  0  0  0
  124.0334  -10.1086   -3.7114 H   0  0  0  0  0  0  0  0  0  0  0  0
  125.5597  -11.0760   -3.6328 H   0  0  0  0  0  0  0  0  0  0  0  0
  125.1259  -10.2125   -5.8252 H   0  0  0  0  0  0  0  0  0  0  0  0
  125.4010   -7.8862   -6.3565 H   0  0  0  0  0  0  0  0  0  0  0  0
  123.9367   -8.2308   -5.3364 H   0  0  0  0  0  0  0  0  0  0  0  0
  126.6178   -7.0882   -4.3855 H   0  0  0  0  0  0  0  0  0  0  0  0
  125.0223   -6.2388   -4.4705 H   0  0  0  0  0  0  0  0  0  0  0  0
  128.0455   -4.4941    1.2695 H   0  0  0  0  0  0  0  0  0  0  0  0
  127.9612   -2.8238    3.1050 H   0  0  0  0  0  0  0  0  0  0  0  0
  123.7132   -2.2659    2.4523 H   0  0  0  0  0  0  0  0  0  0  0  0
  123.8064   -3.9167    0.5762 H   0  0  0  0  0  0  0  0  0  0  0  0
  120.9667   -4.8531   -2.6160 H   0  0  0  0  0  0  0  0  0  0  0  0
  121.8019   -4.2416   -4.0841 H   0  0  0  0  0  0  0  0  0  0  0  0
  120.0168   -4.4417   -4.0841 H   0  0  0  0  0  0  0  0  0  0  0  0
  1  2  1  0
  7  2  2  0
  7  6  1  0
  2  3  1  0
 24 23  1  0
 24 25  1  0
 23 22  1  0
  6  5  2  0
 25 20  1  0
  3 33  1  0
  3  4  2  0
 22 21  1  0
  5  4  1  0
  4  8  1  0
 20 21  1  0
 20 19  1  0
  8  9  1  0
 19 18  1  0
 19 15  1  0
 18 17  2  0
 14  9  1  0
 14 13  2  0
  9 10  2  0
 17 16  1  0
 15 13  1  0
 15 16  2  0
 13 12  1  0
 16 26  1  0
 10 11  1  0
 26 31  1  0
 26 27  2  0
 12 11  2  0
 31 30  2  0
 27 28  1  0
 30 29  1  0
 28 29  2  0
 29 32  1  0
  1 34  1  0
  1 35  1  0
  1 36  1  0
  5 37  1  0
  6 38  1  0
  7 39  1  0
 11 40  1  0
 12 41  1  0
 18 42  1  0
 20 43  1  0
 21 44  1  0
 21 45  1  0
 22 46  1  0
 22 47  1  0
 23 48  1  0
 24 49  1  0
 24 50  1  0
 25 51  1  0
 25 52  1  0
 27 53  1  0
 28 54  1  0
 30 55  1  0
 31 56  1  0
 33 57  1  0
 33 58  1  0
 33 59  1  0
A    1
C01
A    2
C02
A    3
C03
A    4
C04
A    5
C05
A    6
C06
A    7
C07
A    8
O08
A    9
C09
A   10
N10
A   11
C11
A   12
C12
A   13
C13
A   14
N14
A   15
C15
A   16
C16
A   17
N17
A   18
C18
A   19
N19
A   20
C20
A   21
C21
A   22
C22
A   23
N23
A   24
C24
A   25
C25
A   26
C26
A   27
C27
A   28
C28
A   29
C29
A   30
C30
A   31
C31
A   32
F32
A   33
C33
M  END
