4O7C_2RK_A_201
     RDKit          3D

 51 55  0  0  0  0  0  0  0  0999 V2000
  114.1370   -8.1560    2.6650 C   0  0  0  0  0  0  0  0  0  0  0  0
  113.0650   -8.4270    3.7530 C   0  0  0  0  0  0  0  0  0  0  0  0
  112.9440   -9.8640    4.0500 N   0  0  0  0  0  0  0  0  0  0  0  0
  114.2100  -10.4520    4.5290 C   0  0  0  0  0  0  0  0  0  0  0  0
  115.3270  -10.2680    3.4730 C   0  0  0  0  0  0  0  0  0  0  0  0
  115.5020   -8.7850    3.0740 C   0  0  0  0  0  0  0  0  0  0  0  0
  116.5530   -8.6520    2.0310 C   0  0  0  0  0  0  0  0  0  0  0  0
  117.7120   -8.0150    2.2020 N   0  0  0  0  0  0  0  0  0  0  0  0
  118.4340   -8.1130    1.0850 C   0  0  0  0  0  0  0  0  0  0  0  0
  119.7070   -7.5400    0.9960 C   0  0  0  0  0  0  0  0  0  0  0  0
  120.7530   -8.1280    0.2200 C   0  0  0  0  0  0  0  0  0  0  0  0
  122.0470   -7.5440    0.1810 C   0  0  0  0  0  0  0  0  0  0  0  0
  122.3120   -6.3630    0.8670 C   0  0  0  0  0  0  0  0  0  0  0  0
  123.4380   -5.6050    0.9430 C   0  0  0  0  0  0  0  0  0  0  0  0
  123.2360   -4.4580    1.8140 C   0  0  0  0  0  0  0  0  0  0  0  0
  121.7700   -4.5610    2.2430 C   0  0  0  0  0  0  0  0  0  0  0  0
  121.3070   -5.7810    1.5930 C   0  0  0  0  0  0  0  0  0  0  0  0
  120.0260   -6.3470    1.7040 C   0  0  0  0  0  0  0  0  0  0  0  0
  124.5690   -5.8190    0.3480 N   0  0  0  0  0  0  0  0  0  0  0  0
  125.4400   -4.9670    0.3320 O   0  0  0  0  0  0  0  0  0  0  0  0
  117.7020   -8.8510    0.1470 C   0  0  0  0  0  0  0  0  0  0  0  0
  117.9640   -9.2170   -1.1860 C   0  0  0  0  0  0  0  0  0  0  0  0
  118.6500   -8.3690   -2.0420 C   0  0  0  0  0  0  0  0  0  0  0  0
  118.8980   -8.7110   -3.3240 C   0  0  0  0  0  0  0  0  0  0  0  0
  118.4580   -9.8950   -3.7930 N   0  0  0  0  0  0  0  0  0  0  0  0
  117.7700  -10.7380   -2.9960 C   0  0  0  0  0  0  0  0  0  0  0  0
  117.5150  -10.4190   -1.7070 C   0  0  0  0  0  0  0  0  0  0  0  0
  116.5490   -9.1680    0.7760 N   0  0  0  0  0  0  0  0  0  0  0  0
  114.2614   -7.0700    2.5422 H   0  0  0  0  0  0  0  0  0  0  0  0
  113.8059   -8.6096    1.7192 H   0  0  0  0  0  0  0  0  0  0  0  0
  113.3482   -7.8951    4.6732 H   0  0  0  0  0  0  0  0  0  0  0  0
  112.0949   -8.0712    3.3757 H   0  0  0  0  0  0  0  0  0  0  0  0
  112.2251   -9.9915    4.7765 H   0  0  0  0  0  0  0  0  0  0  0  0
  114.0623  -11.5258    4.7164 H   0  0  0  0  0  0  0  0  0  0  0  0
  114.5101   -9.9429    5.4568 H   0  0  0  0  0  0  0  0  0  0  0  0
  115.0682  -10.8498    2.5760 H   0  0  0  0  0  0  0  0  0  0  0  0
  116.2731  -10.6176    3.9120 H   0  0  0  0  0  0  0  0  0  0  0  0
  115.8505   -8.2101    3.9447 H   0  0  0  0  0  0  0  0  0  0  0  0
  120.5534   -9.0446   -0.3544 H   0  0  0  0  0  0  0  0  0  0  0  0
  122.8470   -8.0299   -0.3969 H   0  0  0  0  0  0  0  0  0  0  0  0
  123.9021   -4.5104    2.6878 H   0  0  0  0  0  0  0  0  0  0  0  0
  123.4607   -3.5052    1.3124 H   0  0  0  0  0  0  0  0  0  0  0  0
  121.1969   -3.6889    1.8951 H   0  0  0  0  0  0  0  0  0  0  0  0
  121.6453   -4.5853    3.3356 H   0  0  0  0  0  0  0  0  0  0  0  0
  119.2674   -5.8670    2.3397 H   0  0  0  0  0  0  0  0  0  0  0  0
  119.0000   -7.3956   -1.6679 H   0  0  0  0  0  0  0  0  0  0  0  0
  119.4556   -8.0277   -3.9814 H   0  0  0  0  0  0  0  0  0  0  0  0
  118.6490  -10.1590   -4.7701 H   0  0  0  0  0  0  0  0  0  0  0  0
  117.4120  -11.6966   -3.3995 H   0  0  0  0  0  0  0  0  0  0  0  0
  116.9496  -11.1158   -1.0708 H   0  0  0  0  0  0  0  0  0  0  0  0
  115.7820   -9.7188    0.3646 H   0  0  0  0  0  0  0  0  0  0  0  0
 25 24  1  0
 25 26  1  0
 24 23  2  0
 26 27  2  0
 23 22  1  0
 27 22  1  0
 22 21  2  0
 21 28  1  0
 21  9  1  0
 12 11  2  0
 12 13  1  0
 11 10  1  0
 20 19  2  0
 19 14  1  0
 28  7  1  0
 13 14  2  0
 13 17  1  0
 14 15  1  0
 10  9  2  0
 10 18  1  0
  9  8  1  0
 17 18  2  0
 17 16  1  0
 15 16  1  0
  7  8  2  0
  7  6  1  0
  1  6  1  0
  1  2  1  0
  6  5  1  0
  5  4  1  0
  2  3  1  0
  3  4  1  0
  1 29  1  0
  1 30  1  0
  2 31  1  0
  2 32  1  0
  3 33  1  0
  4 34  1  0
  4 35  1  0
  5 36  1  0
  5 37  1  0
  6 38  1  0
 11 39  1  0
 12 40  1  0
 15 41  1  0
 15 42  1  0
 16 43  1  0
 16 44  1  0
 18 45  1  0
 23 46  1  0
 24 47  1  0
 25 48  1  0
 26 49  1  0
 27 50  1  0
 28 51  1  0
A    1
C01
A    2
C02
A    3
N03
A    4
C04
A    5
C05
A    6
C06
A    7
C07
A    8
N08
A    9
C09
A   10
C10
A   11
C11
A   12
C12
A   13
C13
A   14
C14
A   15
C15
A   16
C16
A   17
C17
A   18
C18
A   19
N19
A   20
O20
A   21
C21
A   22
C22
A   23
C23
A   24
C24
A   25
N25
A   26
C26
A   27
C27
A   28
N28
M  END
