4O7F_2RQ_A_201
     RDKit          3D

 57 61  0  0  0  0  0  0  0  0999 V2000
   61.5510   21.0090   24.9450 C   0  0  0  0  0  0  0  0  0  0  0  0
   62.6560   21.5550   24.1880 O   0  0  0  0  0  0  0  0  0  0  0  0
   63.9100   21.1600   24.5530 C   0  0  0  0  0  0  0  0  0  0  0  0
   64.1570   20.1540   25.5140 C   0  0  0  0  0  0  0  0  0  0  0  0
   65.4870   19.8210   25.8520 C   0  0  0  0  0  0  0  0  0  0  0  0
   66.5630   20.5050   25.2530 C   0  0  0  0  0  0  0  0  0  0  0  0
   66.3090   21.4970   24.3020 C   0  0  0  0  0  0  0  0  0  0  0  0
   64.9810   21.8290   23.9470 C   0  0  0  0  0  0  0  0  0  0  0  0
   64.7240   22.8570   23.0650 O   0  0  0  0  0  0  0  0  0  0  0  0
   64.2920   22.5720   21.8080 C   0  0  0  0  0  0  0  0  0  0  0  0
   64.2510   23.6200   20.9320 N   0  0  0  0  0  0  0  0  0  0  0  0
   63.8810   23.4300   19.6580 C   0  0  0  0  0  0  0  0  0  0  0  0
   63.5270   22.1540   19.2280 C   0  0  0  0  0  0  0  0  0  0  0  0
   63.5130   21.0770   20.1560 C   0  0  0  0  0  0  0  0  0  0  0  0
   63.9240   21.3230   21.4310 N   0  0  0  0  0  0  0  0  0  0  0  0
   63.1570   19.7690   19.7310 C   0  0  0  0  0  0  0  0  0  0  0  0
   62.3240   19.4030   18.6410 C   0  0  0  0  0  0  0  0  0  0  0  0
   62.2920   18.0590   18.5810 N   0  0  0  0  0  0  0  0  0  0  0  0
   63.1050   17.5980   19.5190 C   0  0  0  0  0  0  0  0  0  0  0  0
   63.6580   18.6020   20.2350 N   0  0  0  0  0  0  0  0  0  0  0  0
   64.5490   18.3700   21.3710 C   0  0  0  0  0  0  0  0  0  0  0  0
   65.9650   17.8030   21.1010 C   0  0  0  0  0  0  0  0  0  0  0  0
   66.7220   17.4780   22.4100 C   0  0  0  0  0  0  0  0  0  0  0  0
   65.9580   16.5020   23.2130 N   0  0  0  0  0  0  0  0  0  0  0  0
   64.6350   17.0310   23.5910 C   0  0  0  0  0  0  0  0  0  0  0  0
   63.7820   17.4090   22.3440 C   0  0  0  0  0  0  0  0  0  0  0  0
   61.4500   20.1200   17.7770 C   0  0  0  0  0  0  0  0  0  0  0  0
   61.0490   19.6020   16.5240 C   0  0  0  0  0  0  0  0  0  0  0  0
   60.1190   20.3020   15.7400 C   0  0  0  0  0  0  0  0  0  0  0  0
   59.5140   21.4890   16.1870 C   0  0  0  0  0  0  0  0  0  0  0  0
   59.8680   22.0000   17.4530 C   0  0  0  0  0  0  0  0  0  0  0  0
   60.8110   21.3010   18.2300 C   0  0  0  0  0  0  0  0  0  0  0  0
   58.6440   22.1140   15.4170 F   0  0  0  0  0  0  0  0  0  0  0  0
   61.7575   21.1110   26.0206 H   0  0  0  0  0  0  0  0  0  0  0  0
   60.6297   21.5556   24.6950 H   0  0  0  0  0  0  0  0  0  0  0  0
   61.4255   19.9452   24.6950 H   0  0  0  0  0  0  0  0  0  0  0  0
   63.3172   19.6327   25.9966 H   0  0  0  0  0  0  0  0  0  0  0  0
   65.6835   19.0250   26.5853 H   0  0  0  0  0  0  0  0  0  0  0  0
   67.5982   20.2595   25.5325 H   0  0  0  0  0  0  0  0  0  0  0  0
   67.1489   22.0239   23.8257 H   0  0  0  0  0  0  0  0  0  0  0  0
   63.8571   24.2769   18.9564 H   0  0  0  0  0  0  0  0  0  0  0  0
   63.2594   21.9800   18.1753 H   0  0  0  0  0  0  0  0  0  0  0  0
   63.3054   16.5306   19.6937 H   0  0  0  0  0  0  0  0  0  0  0  0
   64.7735   19.3688   21.7736 H   0  0  0  0  0  0  0  0  0  0  0  0
   65.8707   16.8814   20.5079 H   0  0  0  0  0  0  0  0  0  0  0  0
   66.5389   18.5696   20.5597 H   0  0  0  0  0  0  0  0  0  0  0  0
   67.7070   17.0544   22.1644 H   0  0  0  0  0  0  0  0  0  0  0  0
   66.8452   18.4032   22.9922 H   0  0  0  0  0  0  0  0  0  0  0  0
   65.8293   15.6421   22.6609 H   0  0  0  0  0  0  0  0  0  0  0  0
   64.7750   17.9286   24.2113 H   0  0  0  0  0  0  0  0  0  0  0  0
   64.0996   16.2456   24.1445 H   0  0  0  0  0  0  0  0  0  0  0  0
   62.8618   17.9079   22.6822 H   0  0  0  0  0  0  0  0  0  0  0  0
   63.5567   16.4825   21.7955 H   0  0  0  0  0  0  0  0  0  0  0  0
   61.4661   18.6501   16.1636 H   0  0  0  0  0  0  0  0  0  0  0  0
   59.8559   19.9100   14.7465 H   0  0  0  0  0  0  0  0  0  0  0  0
   59.4145   22.9297   17.8272 H   0  0  0  0  0  0  0  0  0  0  0  0
   61.0620   21.6870   19.2290 H   0  0  0  0  0  0  0  0  0  0  0  0
 33 30  1  0
 29 30  1  0
 29 28  2  0
 30 31  2  0
 28 27  1  0
 31 32  1  0
 27 32  2  0
 27 17  1  0
 18 17  1  0
 18 19  2  0
 17 16  2  0
 13 12  1  0
 13 14  2  0
 19 20  1  0
 12 11  2  0
 16 14  1  0
 16 20  1  0
 14 15  1  0
 20 21  1  0
 11 10  1  0
 22 21  1  0
 22 23  1  0
 21 26  1  0
 15 10  2  0
 10  9  1  0
 26 25  1  0
 23 24  1  0
  9  8  1  0
 24 25  1  0
  8  7  1  0
  8  3  2  0
  2  3  1  0
  2  1  1  0
  7  6  2  0
  3  4  1  0
  6  5  1  0
  4  5  2  0
  1 34  1  0
  1 35  1  0
  1 36  1  0
  4 37  1  0
  5 38  1  0
  6 39  1  0
  7 40  1  0
 12 41  1  0
 13 42  1  0
 19 43  1  0
 21 44  1  0
 22 45  1  0
 22 46  1  0
 23 47  1  0
 23 48  1  0
 24 49  1  0
 25 50  1  0
 25 51  1  0
 26 52  1  0
 26 53  1  0
 28 54  1  0
 29 55  1  0
 31 56  1  0
 32 57  1  0
A    1
C01
A    2
O02
A    3
C03
A    4
C04
A    5
C05
A    6
C06
A    7
C07
A    8
C08
A    9
O09
A   10
C10
A   11
N11
A   12
C12
A   13
C13
A   14
C14
A   15
N15
A   16
C16
A   17
C17
A   18
N18
A   19
C19
A   20
N20
A   21
C21
A   22
C22
A   23
C23
A   24
N24
A   25
C25
A   26
C26
A   27
C27
A   28
C28
A   29
C29
A   30
C30
A   31
C31
A   32
C32
A   33
F33
M  END
