1EJI_THF_A_600
     RDKit          3D

 57 59  0  0  0  0  0  0  0  0999 V2000
  107.7370   76.3940   95.6370 N   0  0  0  0  0  0  0  0  0  0  0  0
  108.9460   76.8880   95.3580 C   0  0  0  0  0  0  0  0  0  0  0  0
  109.6680   77.5160   96.4830 N   0  0  0  0  0  0  0  0  0  0  0  0
  109.6130   76.9380   94.3520 N   0  0  0  0  0  0  0  0  0  0  0  0
  109.1120   76.1930   93.2750 C   0  0  0  0  0  0  0  0  0  0  0  0
  109.7140   76.2030   92.0030 O   0  0  0  0  0  0  0  0  0  0  0  0
  107.9420   75.3580   93.4610 C   0  0  0  0  0  0  0  0  0  0  0  0
  106.8780   75.3630   92.5680 N   0  0  0  0  0  0  0  0  0  0  0  0
  105.8460   74.2360   92.6810 C   0  0  0  0  0  0  0  0  0  0  0  0
  105.4000   74.1400   94.1230 C   0  0  0  0  0  0  0  0  0  0  0  0
  106.0200   75.1020   94.8600 N   0  0  0  0  0  0  0  0  0  0  0  0
  107.3950   75.3630   94.8310 C   0  0  0  0  0  0  0  0  0  0  0  0
  106.3600   72.9010   92.1000 C   0  0  0  0  0  0  0  0  0  0  0  0
  107.5250   72.4530   92.8820 N   0  0  0  0  0  0  0  0  0  0  0  0
  110.7010   69.7150   91.8790 C   0  0  0  0  0  0  0  0  0  0  0  0
  110.5780   70.3630   93.1570 C   0  0  0  0  0  0  0  0  0  0  0  0
  109.5510   71.2830   93.4710 C   0  0  0  0  0  0  0  0  0  0  0  0
  108.5930   71.5520   92.4640 C   0  0  0  0  0  0  0  0  0  0  0  0
  108.6630   70.9440   91.1630 C   0  0  0  0  0  0  0  0  0  0  0  0
  109.7210   70.0170   90.8590 C   0  0  0  0  0  0  0  0  0  0  0  0
  111.8360   68.7780   91.7230 C   0  0  0  0  0  0  0  0  0  0  0  0
  112.8090   68.8950   92.4800 O   0  0  0  0  0  0  0  0  0  0  0  0
  111.8800   67.7900   90.7690 N   0  0  0  0  0  0  0  0  0  0  0  0
  111.3630   66.4050   90.9750 C   0  0  0  0  0  0  0  0  0  0  0  0
  111.8690   65.5770   89.8690 C   0  0  0  0  0  0  0  0  0  0  0  0
  110.9740   65.6920   88.6260 C   0  0  0  0  0  0  0  0  0  0  0  0
  111.5000   65.0790   87.2790 C   0  0  0  0  0  0  0  0  0  0  0  0
  112.7370   64.9100   87.1360 O   0  0  0  0  0  0  0  0  0  0  0  0
  110.6940   64.7690   86.3620 O   0  0  0  0  0  0  0  0  0  0  0  0
  111.6410   65.6780   92.3740 C   0  0  0  0  0  0  0  0  0  0  0  0
  110.6750   65.1800   93.0060 O   0  0  0  0  0  0  0  0  0  0  0  0
  112.8000   65.5990   92.8300 O   0  0  0  0  0  0  0  0  0  0  0  0
  106.6830   76.3660   91.4640 C   0  0  0  0  0  0  0  0  0  0  0  0
  107.3430   76.1140   90.1960 O   0  0  0  0  0  0  0  0  0  0  0  0
  107.1304   76.7588   96.3853 H   0  0  0  0  0  0  0  0  0  0  0  0
  109.4071   77.2891   97.4532 H   0  0  0  0  0  0  0  0  0  0  0  0
  110.4324   78.1809   96.2973 H   0  0  0  0  0  0  0  0  0  0  0  0
  104.9692   74.4734   92.0607 H   0  0  0  0  0  0  0  0  0  0  0  0
  104.6832   73.4043   94.5166 H   0  0  0  0  0  0  0  0  0  0  0  0
  105.5644   72.1435   92.1572 H   0  0  0  0  0  0  0  0  0  0  0  0
  106.6508   73.0415   91.0485 H   0  0  0  0  0  0  0  0  0  0  0  0
  107.5939   72.8211   93.8415 H   0  0  0  0  0  0  0  0  0  0  0  0
  111.3230   70.1304   93.9321 H   0  0  0  0  0  0  0  0  0  0  0  0
  109.4987   71.7692   94.4563 H   0  0  0  0  0  0  0  0  0  0  0  0
  107.9084   71.1872   90.4005 H   0  0  0  0  0  0  0  0  0  0  0  0
  109.7834   69.5458   89.8670 H   0  0  0  0  0  0  0  0  0  0  0  0
  112.2956   68.0194   89.8549 H   0  0  0  0  0  0  0  0  0  0  0  0
  110.2690   66.5177   90.9951 H   0  0  0  0  0  0  0  0  0  0  0  0
  112.8853   65.9087   89.6099 H   0  0  0  0  0  0  0  0  0  0  0  0
  111.8720   64.5270   90.1967 H   0  0  0  0  0  0  0  0  0  0  0  0
  110.0215   65.1948   88.8617 H   0  0  0  0  0  0  0  0  0  0  0  0
  110.9131   66.7728   88.4305 H   0  0  0  0  0  0  0  0  0  0  0  0
  109.7947   64.4231   86.5894 H   0  0  0  0  0  0  0  0  0  0  0  0
  112.9472   65.5890   93.8090 H   0  0  0  0  0  0  0  0  0  0  0  0
  105.6030   76.4288   91.2649 H   0  0  0  0  0  0  0  0  0  0  0  0
  107.1506   77.2874   91.8412 H   0  0  0  0  0  0  0  0  0  0  0  0
  108.2548   75.7659   90.3620 H   0  0  0  0  0  0  0  0  0  0  0  0
  1  2  1  0
  1 12  1  0
  2  3  1  0
  2  4  2  0
  4  5  1  0
  5  6  2  0
  5  7  1  0
  7  8  1  0
  7 12  2  0
  8  9  1  0
  8 33  1  0
  9 10  1  0
  9 13  1  0
 10 11  2  0
 11 12  1  0
 13 14  1  0
 14 18  1  0
 15 16  2  0
 15 20  1  0
 15 21  1  0
 16 17  1  0
 17 18  2  0
 18 19  1  0
 19 20  2  0
 21 22  2  0
 21 23  1  0
 23 24  1  0
 24 25  1  0
 24 30  1  0
 25 26  1  0
 26 27  1  0
 27 28  2  0
 27 29  1  0
 30 31  2  0
 30 32  1  0
 33 34  1  0
  1 35  1  0
  3 36  1  0
  3 37  1  0
  9 38  1  0
 10 39  1  0
 13 40  1  0
 13 41  1  0
 14 42  1  0
 16 43  1  0
 17 44  1  0
 19 45  1  0
 20 46  1  0
 23 47  1  0
 24 48  1  0
 25 49  1  0
 25 50  1  0
 26 51  1  0
 26 52  1  0
 29 53  1  0
 32 54  1  0
 33 55  1  0
 33 56  1  0
 34 57  1  0
A    1
N1
A    2
C2
A    3
NA2
A    4
N3
A    5
C4
A    6
O4
A    7
C4A
A    8
N5
A    9
C6
A   10
C7
A   11
N8
A   12
C8A
A   13
C9
A   14
N10
A   15
C11
A   16
C12
A   17
C13
A   18
C14
A   19
C15
A   20
C16
A   21
C
A   22
O
A   23
N
A   24
CA
A   25
CB
A   26
CG
A   27
CD
A   28
OE1
A   29
OE2
A   30
CT
A   31
O1
A   32
O2
A   33
CP1
A   34
O3
M  END
