4O8Z_BBI_A_402
     RDKit          3D

 60 62  0  0  0  0  0  0  0  0999 V2000
   34.9350  -43.8440   -6.5070 C   0  0  0  0  0  0  0  0  0  0  0  0
   33.9690  -43.5010   -5.3530 C   0  0  0  0  0  0  0  0  0  0  0  0
   32.4910  -43.7450   -5.7630 C   0  0  0  0  0  0  0  0  0  0  0  0
   31.5250  -42.9410   -4.8520 C   0  0  0  0  0  0  0  0  0  0  0  0
   30.0380  -43.4300   -4.8940 C   0  0  0  0  0  0  0  0  0  0  0  0
   29.3380  -43.6110   -6.0470 O   0  0  0  0  0  0  0  0  0  0  0  0
   28.0690  -44.0380   -5.6740 C   0  0  0  0  0  0  0  0  0  0  0  0
   27.0100  -44.3580   -6.4040 C   0  0  0  0  0  0  0  0  0  0  0  0
   25.8220  -44.7510   -5.8100 C   0  0  0  0  0  0  0  0  0  0  0  0
   25.7460  -44.8220   -4.4340 C   0  0  0  0  0  0  0  0  0  0  0  0
   26.8830  -44.4850   -3.7140 C   0  0  0  0  0  0  0  0  0  0  0  0
   28.0140  -44.0990   -4.3380 C   0  0  0  0  0  0  0  0  0  0  0  0
   29.2130  -43.7270   -3.8610 C   0  0  0  0  0  0  0  0  0  0  0  0
   29.4230  -43.7000   -2.5340 C   0  0  0  0  0  0  0  0  0  0  0  0
   28.6580  -43.0590   -1.8160 O   0  0  0  0  0  0  0  0  0  0  0  0
   30.1740  -44.7410   -2.0080 C   0  0  0  0  0  0  0  0  0  0  0  0
   31.0660  -45.4240   -2.8070 C   0  0  0  0  0  0  0  0  0  0  0  0
   31.7890  -46.4850   -2.3290 C   0  0  0  0  0  0  0  0  0  0  0  0
   33.1020  -47.3900   -3.6200 I   0  0  0  0  0  0  0  0  0  0  0  0
   29.9870  -45.1630   -0.6970 C   0  0  0  0  0  0  0  0  0  0  0  0
   30.7190  -46.2430   -0.2110 C   0  0  0  0  0  0  0  0  0  0  0  0
   30.4830  -46.8880    1.7140 I   0  0  0  0  0  0  0  0  0  0  0  0
   31.6130  -46.9020   -1.0310 C   0  0  0  0  0  0  0  0  0  0  0  0
   32.3560  -47.9650   -0.5790 O   0  0  0  0  0  0  0  0  0  0  0  0
   31.9150  -48.6770    0.5710 C   0  0  0  0  0  0  0  0  0  0  0  0
   33.1800  -48.8350    1.3910 C   0  0  0  0  0  0  0  0  0  0  0  0
   33.3030  -50.2690    1.7470 N   0  0  0  0  0  0  0  0  0  0  0  0
   32.4950  -50.6920    2.8940 C   0  0  0  0  0  0  0  0  0  0  0  0
   33.3050  -50.4130    4.1640 C   0  0  0  0  0  0  0  0  0  0  0  0
   34.7130  -50.6120    1.9140 C   0  0  0  0  0  0  0  0  0  0  0  0
   35.1450  -50.0740    3.2800 C   0  0  0  0  0  0  0  0  0  0  0  0
   35.8951  -44.1849   -6.0924 H   0  0  0  0  0  0  0  0  0  0  0  0
   34.4986  -44.6421   -7.1255 H   0  0  0  0  0  0  0  0  0  0  0  0
   35.0997  -42.9494   -7.1255 H   0  0  0  0  0  0  0  0  0  0  0  0
   34.2090  -44.1327   -4.4850 H   0  0  0  0  0  0  0  0  0  0  0  0
   34.0891  -42.4362   -5.1045 H   0  0  0  0  0  0  0  0  0  0  0  0
   32.3495  -43.4281   -6.8068 H   0  0  0  0  0  0  0  0  0  0  0  0
   32.2677  -44.8166   -5.6539 H   0  0  0  0  0  0  0  0  0  0  0  0
   31.8840  -43.0204   -3.8153 H   0  0  0  0  0  0  0  0  0  0  0  0
   31.5261  -41.9075   -5.2286 H   0  0  0  0  0  0  0  0  0  0  0  0
   27.0757  -44.3106   -7.5010 H   0  0  0  0  0  0  0  0  0  0  0  0
   24.9483  -45.0038   -6.4287 H   0  0  0  0  0  0  0  0  0  0  0  0
   24.8203  -45.1335   -3.9279 H   0  0  0  0  0  0  0  0  0  0  0  0
   26.8613  -44.5336   -2.6153 H   0  0  0  0  0  0  0  0  0  0  0  0
   31.2003  -45.1098   -3.8526 H   0  0  0  0  0  0  0  0  0  0  0  0
   29.2650  -44.6468   -0.0473 H   0  0  0  0  0  0  0  0  0  0  0  0
   31.1568  -48.1024    1.1233 H   0  0  0  0  0  0  0  0  0  0  0  0
   31.4388  -49.6377    0.3256 H   0  0  0  0  0  0  0  0  0  0  0  0
   34.0525  -48.5182    0.8007 H   0  0  0  0  0  0  0  0  0  0  0  0
   33.1351  -48.2129    2.2971 H   0  0  0  0  0  0  0  0  0  0  0  0
   31.5532  -50.1242    2.9183 H   0  0  0  0  0  0  0  0  0  0  0  0
   32.2522  -51.7623    2.8198 H   0  0  0  0  0  0  0  0  0  0  0  0
   32.6860  -50.6262    5.0479 H   0  0  0  0  0  0  0  0  0  0  0  0
   34.1978  -51.0554    4.1780 H   0  0  0  0  0  0  0  0  0  0  0  0
   33.6128  -49.3570    4.1780 H   0  0  0  0  0  0  0  0  0  0  0  0
   34.8430  -51.7038    1.8796 H   0  0  0  0  0  0  0  0  0  0  0  0
   35.3217  -50.1743    1.1091 H   0  0  0  0  0  0  0  0  0  0  0  0
   34.6689  -50.6669    4.0749 H   0  0  0  0  0  0  0  0  0  0  0  0
   36.2386  -50.1465    3.3735 H   0  0  0  0  0  0  0  0  0  0  0  0
   34.8380  -49.0219    3.3735 H   0  0  0  0  0  0  0  0  0  0  0  0
  8  9  1  0
  8  7  2  0
  6  7  1  0
  6  5  1  0
  9 10  2  0
  1  2  1  0
  7 12  1  0
  3  2  1  0
  3  4  1  0
  5  4  1  0
  5 13  2  0
 10 11  1  0
 12 13  1  0
 12 11  2  0
 13 14  1  0
 19 18  1  0
 17 18  2  0
 17 16  1  0
 14 16  1  0
 14 15  2  0
 18 23  1  0
 16 20  2  0
 23 24  1  0
 23 21  2  0
 20 21  1  0
 24 25  1  0
 21 22  1  0
 25 26  1  0
 26 27  1  0
 27 30  1  0
 27 28  1  0
 30 31  1  0
 28 29  1  0
  1 32  1  0
  1 33  1  0
  1 34  1  0
  2 35  1  0
  2 36  1  0
  3 37  1  0
  3 38  1  0
  4 39  1  0
  4 40  1  0
  8 41  1  0
  9 42  1  0
 10 43  1  0
 11 44  1  0
 17 45  1  0
 20 46  1  0
 25 47  1  0
 25 48  1  0
 26 49  1  0
 26 50  1  0
 28 51  1  0
 28 52  1  0
 29 53  1  0
 29 54  1  0
 29 55  1  0
 30 56  1  0
 30 57  1  0
 31 58  1  0
 31 59  1  0
 31 60  1  0
A    1
CAA
A    2
CAB
A    3
CAC
A    4
CAD
A    5
CAE
A    6
OAF
A    7
CAG
A    8
CAH
A    9
CAI
A   10
CAJ
A   11
CAK
A   12
CAL
A   13
CAM
A   14
CAN
A   15
OAO
A   16
CAP
A   17
CBE
A   18
CBC
A   19
IBD
A   20
CAQ
A   21
CAR
A   22
IAS
A   23
CAT
A   24
OAU
A   25
CAV
A   26
CAW
A   27
NAX
A   28
CBA
A   29
CBB
A   30
CAY
A   31
CAZ
M  END
