4OA7_2XS_A_1402
     RDKit          3D

 50 55  0  0  0  0  0  0  0  0999 V2000
   45.2850   84.2890   -1.3110 C   0  0  0  0  0  0  0  0  0  0  0  0
   45.4500   84.6860   -2.6280 N   0  0  0  0  0  0  0  0  0  0  0  0
   44.8480   85.7870   -3.0420 C   0  0  0  0  0  0  0  0  0  0  0  0
   44.0240   86.6010   -2.2030 C   0  0  0  0  0  0  0  0  0  0  0  0
   43.8470   86.2210   -0.8960 C   0  0  0  0  0  0  0  0  0  0  0  0
   44.4780   85.0370   -0.4050 C   0  0  0  0  0  0  0  0  0  0  0  0
   44.3180   84.6130    0.9400 C   0  0  0  0  0  0  0  0  0  0  0  0
   44.9390   83.4670    1.3710 C   0  0  0  0  0  0  0  0  0  0  0  0
   45.7420   82.7030    0.5020 C   0  0  0  0  0  0  0  0  0  0  0  0
   45.9390   83.0820   -0.8260 C   0  0  0  0  0  0  0  0  0  0  0  0
   46.7000   82.3560   -1.7500 N   0  0  0  0  0  0  0  0  0  0  0  0
   47.2480   81.0870   -1.6210 C   0  0  0  0  0  0  0  0  0  0  0  0
   47.1500   80.3830   -0.5960 O   0  0  0  0  0  0  0  0  0  0  0  0
   47.9750   80.5910   -2.8250 C   0  0  0  0  0  0  0  0  0  0  0  0
   47.6200   79.3220   -3.2920 C   0  0  0  0  0  0  0  0  0  0  0  0
   48.2330   78.7790   -4.4110 C   0  0  0  0  0  0  0  0  0  0  0  0
   48.9520   81.3290   -3.4950 C   0  0  0  0  0  0  0  0  0  0  0  0
   49.5760   80.7990   -4.6150 C   0  0  0  0  0  0  0  0  0  0  0  0
   49.2250   79.5160   -5.0930 C   0  0  0  0  0  0  0  0  0  0  0  0
   49.8550   78.9680   -6.2280 N   0  0  0  0  0  0  0  0  0  0  0  0
   51.0120   78.1480   -6.1810 C   0  0  0  0  0  0  0  0  0  0  0  0
   51.5880   77.8350   -5.1390 O   0  0  0  0  0  0  0  0  0  0  0  0
   51.4110   77.7400   -7.6000 C   0  0  0  0  0  0  0  0  0  0  0  0
   52.7390   78.3760   -8.0850 C   0  0  0  0  0  0  0  0  0  0  0  0
   52.2760   79.8380   -8.3890 C   0  0  0  0  0  0  0  0  0  0  0  0
   52.9130   77.8590   -9.5120 C   0  0  0  0  0  0  0  0  0  0  0  0
   52.0140   78.5010  -10.2980 C   0  0  0  0  0  0  0  0  0  0  0  0
   51.1690   79.3950   -9.3960 C   0  0  0  0  0  0  0  0  0  0  0  0
   50.3450   78.4160   -8.5200 C   0  0  0  0  0  0  0  0  0  0  0  0
   49.4190   79.1520   -7.5630 C   0  0  0  0  0  0  0  0  0  0  0  0
   48.4410   79.8170   -7.8890 O   0  0  0  0  0  0  0  0  0  0  0  0
   44.9882   86.0942   -4.0889 H   0  0  0  0  0  0  0  0  0  0  0  0
   43.5438   87.5095   -2.5956 H   0  0  0  0  0  0  0  0  0  0  0  0
   43.2195   86.8279   -0.2268 H   0  0  0  0  0  0  0  0  0  0  0  0
   43.6990   85.2002    1.6342 H   0  0  0  0  0  0  0  0  0  0  0  0
   44.8072   83.1398    2.4129 H   0  0  0  0  0  0  0  0  0  0  0  0
   46.2238   81.7885    0.8783 H   0  0  0  0  0  0  0  0  0  0  0  0
   46.8776   82.8278   -2.6482 H   0  0  0  0  0  0  0  0  0  0  0  0
   46.8444   78.7469   -2.7650 H   0  0  0  0  0  0  0  0  0  0  0  0
   47.9473   77.7778   -4.7658 H   0  0  0  0  0  0  0  0  0  0  0  0
   49.2273   82.3312   -3.1349 H   0  0  0  0  0  0  0  0  0  0  0  0
   50.3502   81.3820   -5.1353 H   0  0  0  0  0  0  0  0  0  0  0  0
   51.4967   76.6436   -7.6256 H   0  0  0  0  0  0  0  0  0  0  0  0
   53.5957   78.2222   -7.4124 H   0  0  0  0  0  0  0  0  0  0  0  0
   53.0614   80.4535   -8.8520 H   0  0  0  0  0  0  0  0  0  0  0  0
   51.9841   80.4779   -7.5432 H   0  0  0  0  0  0  0  0  0  0  0  0
   53.6383   77.1010   -9.8428 H   0  0  0  0  0  0  0  0  0  0  0  0
   51.9124   78.3962  -11.3883 H   0  0  0  0  0  0  0  0  0  0  0  0
   50.5673   80.1625   -9.9048 H   0  0  0  0  0  0  0  0  0  0  0  0
   49.7515   77.7470   -9.1604 H   0  0  0  0  0  0  0  0  0  0  0  0
 27 26  2  0
 27 28  1  0
 26 24  1  0
 28 29  1  0
 28 25  1  0
 29 23  1  0
 29 30  1  0
 25 24  1  0
 24 23  1  0
 31 30  2  0
 23 21  1  0
 30 20  1  0
 20 21  1  0
 20 19  1  0
 21 22  2  0
 19 18  2  0
 19 16  1  0
 18 17  1  0
 16 15  2  0
 17 14  2  0
 15 14  1  0
  3  2  2  0
  3  4  1  0
 14 12  1  0
  2  1  1  0
  4  5  2  0
 11 12  1  0
 11 10  1  0
 12 13  2  0
  1 10  2  0
  1  6  1  0
  5  6  1  0
 10  9  1  0
  6  7  2  0
  9  8  2  0
  7  8  1  0
  3 32  1  0
  4 33  1  0
  5 34  1  0
  7 35  1  0
  8 36  1  0
  9 37  1  0
 11 38  1  0
 15 39  1  0
 16 40  1  0
 17 41  1  0
 18 42  1  0
 23 43  1  0
 24 44  1  0
 25 45  1  0
 25 46  1  0
 26 47  1  0
 27 48  1  0
 28 49  1  0
 29 50  1  0
A    1
CAF
A    2
NAG
A    3
CAH
A    4
CAI
A    5
CAJ
A    6
CAA
A    7
CAB
A    8
CAC
A    9
CAD
A   10
CAE
A   11
NAK
A   12
CAL
A   13
OAM
A   14
CAN
A   15
CAS
A   16
CAO
A   17
CAR
A   18
CAQ
A   19
CAP
A   20
NAT
A   21
CAW
A   22
OBE
A   23
CAV
A   24
CBB
A   25
CBC
A   26
CBA
A   27
CAZ
A   28
CAY
A   29
CAU
A   30
CAX
A   31
OBD
M  END
