4OAR_2S0_A_1001
     RDKit          3D

 72 76  0  0  0  0  0  0  0  0999 V2000
   14.6120   26.4420   16.7630 C   0  0  0  0  0  0  0  0  0  0  0  0
   14.8220   27.8180   17.3480 C   0  0  0  0  0  0  0  0  0  0  0  0
   14.4440   29.0670   16.4020 C   0  0  0  0  0  0  0  0  0  0  0  0
   14.0010   28.8070   15.1200 C   0  0  0  0  0  0  0  0  0  0  0  0
   13.9050   27.5120   14.5770 C   0  0  0  0  0  0  0  0  0  0  0  0
   13.3950   27.4430   13.1360 C   0  0  0  0  0  0  0  0  0  0  0  0
   14.0670   26.3360   12.3250 C   0  0  0  0  0  0  0  0  0  0  0  0
   14.2300   25.0090   13.0450 C   0  0  0  0  0  0  0  0  0  0  0  0
   14.5270   25.0450   14.5900 C   0  0  0  0  0  0  0  0  0  0  0  0
   14.3520   26.3230   15.3000 C   0  0  0  0  0  0  0  0  0  0  0  0
   14.9820   23.7010   15.3110 C   0  0  0  0  0  0  0  0  0  0  0  0
   15.4270   22.6520   14.4330 C   0  0  0  0  0  0  0  0  0  0  0  0
   14.8640   22.4760   13.0030 C   0  0  0  0  0  0  0  0  0  0  0  0
   14.8580   23.8010   12.3010 C   0  0  0  0  0  0  0  0  0  0  0  0
   14.6400   23.4920   10.8220 C   0  0  0  0  0  0  0  0  0  0  0  0
   15.2600   22.0880   10.6720 C   0  0  0  0  0  0  0  0  0  0  0  0
   15.7360   21.6480   12.0840 C   0  0  0  0  0  0  0  0  0  0  0  0
   13.4770   21.8280   13.1250 C   0  0  0  0  0  0  0  0  0  0  0  0
   15.9430   20.1230   12.2820 C   0  0  0  0  0  0  0  0  0  0  0  0
   16.6920   19.5260   13.4650 C   0  0  0  0  0  0  0  0  0  0  0  0
   14.5150   30.2490   16.8900 O   0  0  0  0  0  0  0  0  0  0  0  0
   15.5180   19.3120   11.4970 O   0  0  0  0  0  0  0  0  0  0  0  0
   13.7480   23.0950   16.1330 C   0  0  0  0  0  0  0  0  0  0  0  0
   12.4780   23.6530   16.0270 C   0  0  0  0  0  0  0  0  0  0  0  0
   11.3910   23.0800   16.6730 C   0  0  0  0  0  0  0  0  0  0  0  0
   11.5660   21.9330   17.4410 C   0  0  0  0  0  0  0  0  0  0  0  0
   12.8230   21.3600   17.5560 C   0  0  0  0  0  0  0  0  0  0  0  0
   13.9060   21.9430   16.9030 C   0  0  0  0  0  0  0  0  0  0  0  0
   10.4950   21.3880   18.1140 N   0  0  0  0  0  0  0  0  0  0  0  0
    9.2100   21.8130   17.9310 C   0  0  0  0  0  0  0  0  0  0  0  0
   10.6430   20.3850   19.0220 C   0  0  0  0  0  0  0  0  0  0  0  0
   19.8150   22.0430   11.6140 C   0  0  0  0  0  0  0  0  0  0  0  0
   18.4430   21.4060   11.5110 C   0  0  0  0  0  0  0  0  0  0  0  0
   18.3270   20.3970   10.7910 O   0  0  0  0  0  0  0  0  0  0  0  0
   17.2550   21.9660   12.1740 O   0  0  0  0  0  0  0  0  0  0  0  0
   13.7514   25.9960   17.2830 H   0  0  0  0  0  0  0  0  0  0  0  0
   15.5792   25.9381   16.9064 H   0  0  0  0  0  0  0  0  0  0  0  0
   15.8856   27.9096   17.6133 H   0  0  0  0  0  0  0  0  0  0  0  0
   14.1311   27.8799   18.2018 H   0  0  0  0  0  0  0  0  0  0  0  0
   13.7071   29.6586   14.4888 H   0  0  0  0  0  0  0  0  0  0  0  0
   13.5929   28.4078   12.6461 H   0  0  0  0  0  0  0  0  0  0  0  0
   12.3186   27.2197   13.1749 H   0  0  0  0  0  0  0  0  0  0  0  0
   15.0671   26.6887   12.0327 H   0  0  0  0  0  0  0  0  0  0  0  0
   13.4014   26.1384   11.4718 H   0  0  0  0  0  0  0  0  0  0  0  0
   13.1628   24.7496   12.9834 H   0  0  0  0  0  0  0  0  0  0  0  0
   15.8341   24.0012   15.9386 H   0  0  0  0  0  0  0  0  0  0  0  0
   15.2276   21.7068   14.9592 H   0  0  0  0  0  0  0  0  0  0  0  0
   16.4672   22.9487   14.2330 H   0  0  0  0  0  0  0  0  0  0  0  0
   15.8149   24.3422   12.3382 H   0  0  0  0  0  0  0  0  0  0  0  0
   15.1570   24.2238   10.1838 H   0  0  0  0  0  0  0  0  0  0  0  0
   13.5836   23.5365   10.5186 H   0  0  0  0  0  0  0  0  0  0  0  0
   14.5081   21.3819   10.2899 H   0  0  0  0  0  0  0  0  0  0  0  0
   16.1000   22.1038    9.9620 H   0  0  0  0  0  0  0  0  0  0  0  0
   13.2205   21.7082   14.1879 H   0  0  0  0  0  0  0  0  0  0  0  0
   12.7284   22.4696   12.6372 H   0  0  0  0  0  0  0  0  0  0  0  0
   13.4887   20.8421   12.6372 H   0  0  0  0  0  0  0  0  0  0  0  0
   16.2421   19.8846   14.4026 H   0  0  0  0  0  0  0  0  0  0  0  0
   16.6278   18.4287   13.4237 H   0  0  0  0  0  0  0  0  0  0  0  0
   17.7474   19.8333   13.4237 H   0  0  0  0  0  0  0  0  0  0  0  0
   12.3331   24.5608   15.4229 H   0  0  0  0  0  0  0  0  0  0  0  0
   10.3927   23.5321   16.5779 H   0  0  0  0  0  0  0  0  0  0  0  0
   12.9640   20.4509   18.1590 H   0  0  0  0  0  0  0  0  0  0  0  0
   14.9028   21.4873   16.9961 H   0  0  0  0  0  0  0  0  0  0  0  0
    8.7331   21.9707   18.9096 H   0  0  0  0  0  0  0  0  0  0  0  0
    9.2130   22.7580   17.3680 H   0  0  0  0  0  0  0  0  0  0  0  0
    8.6490   21.0526   17.3680 H   0  0  0  0  0  0  0  0  0  0  0  0
   10.5819   20.7993   20.0392 H   0  0  0  0  0  0  0  0  0  0  0  0
    9.8448   19.6414   18.8803 H   0  0  0  0  0  0  0  0  0  0  0  0
   11.6219   19.9037   18.8803 H   0  0  0  0  0  0  0  0  0  0  0  0
   20.0829   22.1674   12.6736 H   0  0  0  0  0  0  0  0  0  0  0  0
   20.5570   21.3973   11.1216 H   0  0  0  0  0  0  0  0  0  0  0  0
   19.8005   23.0265   11.1216 H   0  0  0  0  0  0  0  0  0  0  0  0
 16 15  1  0
 16 17  1  0
 34 33  2  0
 15 14  1  0
 22 19  2  0
 33 32  1  0
 33 35  1  0
 17 35  1  0
 17 19  1  0
 17 13  1  0
 19 20  1  0
 14 13  1  0
 14  8  1  0
  7  8  1  0
  7  6  1  0
 13 18  1  0
 13 12  1  0
  8  9  1  0
  6  5  1  0
 12 11  1  0
  5  4  2  0
  5 10  1  0
  9 10  2  0
  9 11  1  0
  4  3  1  0
 10  1  1  0
 11 23  1  0
 24 23  2  0
 24 25  1  0
 23 28  1  0
  3 21  2  0
  3  2  1  0
 25 26  2  0
  1  2  1  0
 28 27  2  0
 26 27  1  0
 26 29  1  0
 30 29  1  0
 29 31  1  0
  1 36  1  0
  1 37  1  0
  2 38  1  0
  2 39  1  0
  4 40  1  0
  6 41  1  0
  6 42  1  0
  7 43  1  0
  7 44  1  0
  8 45  1  0
 11 46  1  0
 12 47  1  0
 12 48  1  0
 14 49  1  0
 15 50  1  0
 15 51  1  0
 16 52  1  0
 16 53  1  0
 18 54  1  0
 18 55  1  0
 18 56  1  0
 20 57  1  0
 20 58  1  0
 20 59  1  0
 24 60  1  0
 25 61  1  0
 27 62  1  0
 28 63  1  0
 30 64  1  0
 30 65  1  0
 30 66  1  0
 31 67  1  0
 31 68  1  0
 31 69  1  0
 32 70  1  0
 32 71  1  0
 32 72  1  0
A    1
C1
A    2
C2
A    3
C3
A    4
C4
A    5
C5
A    6
C6
A    7
C7
A    8
C8
A    9
C9
A   10
C10
A   11
C11
A   12
C12
A   13
C13
A   14
C14
A   15
C15
A   16
C16
A   17
C17
A   18
C18
A   19
C20
A   20
C21
A   21
O3
A   22
O20
A   23
C32
A   24
C33
A   25
C34
A   26
C35
A   27
C36
A   28
C37
A   29
N38
A   30
C39
A   31
C40
A   32
C31
A   33
C30
A   34
O30
A   35
O17
M  END
