4OBP_2QU_A_403
     RDKit          3D

 26 28  0  0  0  0  0  0  0  0999 V2000
  -15.9410   -4.2320   27.9200 C   0  0  0  0  0  0  0  0  0  0  0  0
  -16.7460   -5.2760   27.5700 C   0  0  0  0  0  0  0  0  0  0  0  0
  -16.8590   -6.3700   28.4280 C   0  0  0  0  0  0  0  0  0  0  0  0
  -16.1680   -6.4390   29.5620 N   0  0  0  0  0  0  0  0  0  0  0  0
  -15.3300   -5.4320   29.9410 C   0  0  0  0  0  0  0  0  0  0  0  0
  -15.2110   -4.2770   29.1230 C   0  0  0  0  0  0  0  0  0  0  0  0
  -14.3930   -3.2220   29.4390 N   0  0  0  0  0  0  0  0  0  0  0  0
  -13.7020   -3.3550   30.5560 C   0  0  0  0  0  0  0  0  0  0  0  0
  -13.6860   -4.3880   31.4050 N   0  0  0  0  0  0  0  0  0  0  0  0
  -14.4950   -5.4810   31.1120 C   0  0  0  0  0  0  0  0  0  0  0  0
  -14.4270   -6.6100   31.8520 N   0  0  0  0  0  0  0  0  0  0  0  0
  -17.8260   -7.4670   28.1750 C   0  0  0  0  0  0  0  0  0  0  0  0
  -18.3510   -7.6860   26.9020 C   0  0  0  0  0  0  0  0  0  0  0  0
  -19.3230   -8.6480   26.7260 C   0  0  0  0  0  0  0  0  0  0  0  0
  -19.7860   -9.4360   27.7070 N   0  0  0  0  0  0  0  0  0  0  0  0
  -19.2310   -9.2440   28.9410 C   0  0  0  0  0  0  0  0  0  0  0  0
  -18.2730   -8.2680   29.2290 C   0  0  0  0  0  0  0  0  0  0  0  0
  -19.5860  -10.1400   29.8880 F   0  0  0  0  0  0  0  0  0  0  0  0
  -15.8621   -3.3542   27.2618 H   0  0  0  0  0  0  0  0  0  0  0  0
  -17.3007   -5.2554   26.6203 H   0  0  0  0  0  0  0  0  0  0  0  0
  -13.0556   -2.5060   30.8229 H   0  0  0  0  0  0  0  0  0  0  0  0
  -14.4305   -6.5527   32.8804 H   0  0  0  0  0  0  0  0  0  0  0  0
  -14.3717   -7.5277   31.3875 H   0  0  0  0  0  0  0  0  0  0  0  0
  -17.9928   -7.0963   26.0453 H   0  0  0  0  0  0  0  0  0  0  0  0
  -19.7447   -8.7770   25.7183 H   0  0  0  0  0  0  0  0  0  0  0  0
  -17.8846   -8.1351   30.2495 H   0  0  0  0  0  0  0  0  0  0  0  0
 14 13  2  0
 14 15  1  0
 13 12  1  0
  2  1  2  0
  2  3  1  0
 15 16  2  0
  1  6  1  0
 12  3  1  0
 12 17  2  0
  3  4  2  0
 16 17  1  0
 16 18  1  0
  6  7  2  0
  6  5  1  0
  7  8  1  0
  4  5  1  0
  5 10  2  0
  8  9  2  0
 10  9  1  0
 10 11  1  0
  1 19  1  0
  2 20  1  0
  8 21  1  0
 11 22  1  0
 11 23  1  0
 13 24  1  0
 14 25  1  0
 17 26  1  0
A    1
C1
A    2
C2
A    3
C3
A    4
N4
A    5
C5
A    6
C6
A    7
N7
A    8
C8
A    9
N9
A   10
C10
A   11
N11
A   12
C12
A   13
C13
A   14
C14
A   15
N15
A   16
C16
A   17
C17
A   18
F18
M  END
