4OC3_2QP_A_820
     RDKit          3D

 56 57  0  0  0  0  0  0  0  0999 V2000
   23.5420   48.4170   46.9890 C   0  0  0  0  0  0  0  0  0  0  0  0
   23.6350   48.6930   48.4010 C   0  0  0  0  0  0  0  0  0  0  0  0
   23.4960   49.9610   49.0240 C   0  0  0  0  0  0  0  0  0  0  0  0
   23.6330   50.3120   51.2530 I   0  0  0  0  0  0  0  0  0  0  0  0
   23.2600   50.9540   48.0470 C   0  0  0  0  0  0  0  0  0  0  0  0
   23.1480   50.7100   46.6430 C   0  0  0  0  0  0  0  0  0  0  0  0
   23.3180   49.4300   46.0500 C   0  0  0  0  0  0  0  0  0  0  0  0
   23.0690   49.3140   44.4840 C   0  0  0  0  0  0  0  0  0  0  0  0
   22.2040   50.0610   44.0340 O   0  0  0  0  0  0  0  0  0  0  0  0
   23.3180   48.3290   43.6230 N   0  0  0  0  0  0  0  0  0  0  0  0
   24.1610   47.1780   43.5600 C   0  0  0  0  0  0  0  0  0  0  0  0
   23.3880   46.1990   42.6170 C   0  0  0  0  0  0  0  0  0  0  0  0
   22.4410   45.3200   43.4960 C   0  0  0  0  0  0  0  0  0  0  0  0
   20.9780   45.8210   43.3730 C   0  0  0  0  0  0  0  0  0  0  0  0
   19.9930   45.0680   44.2890 C   0  0  0  0  0  0  0  0  0  0  0  0
   20.1320   45.6530   45.7000 C   0  0  0  0  0  0  0  0  0  0  0  0
   20.7440   44.9330   46.5430 O   0  0  0  0  0  0  0  0  0  0  0  0
   19.5890   46.7800   45.9150 O   0  0  0  0  0  0  0  0  0  0  0  0
   18.6620   45.4640   43.7910 N   0  0  0  0  0  0  0  0  0  0  0  0
   17.9510   44.7800   42.9120 C   0  0  0  0  0  0  0  0  0  0  0  0
   18.3610   43.7350   42.4370 O   0  0  0  0  0  0  0  0  0  0  0  0
   16.7260   45.1980   42.5800 N   0  0  0  0  0  0  0  0  0  0  0  0
   16.0350   44.5370   41.4640 C   0  0  0  0  0  0  0  0  0  0  0  0
   16.9810   44.6730   40.1930 C   0  0  0  0  0  0  0  0  0  0  0  0
   16.7710   43.8720   39.2410 O   0  0  0  0  0  0  0  0  0  0  0  0
   17.9360   45.5130   40.2140 O   0  0  0  0  0  0  0  0  0  0  0  0
   14.6310   45.0830   41.1990 C   0  0  0  0  0  0  0  0  0  0  0  0
   14.5230   46.5450   40.7410 C   0  0  0  0  0  0  0  0  0  0  0  0
   13.4670   47.3200   40.7650 C   0  0  0  0  0  0  0  0  0  0  0  0
   13.7530   48.5240   40.2640 C   0  0  0  0  0  0  0  0  0  0  0  0
   15.0000   48.5480   39.8370 C   0  0  0  0  0  0  0  0  0  0  0  0
   15.5370   47.2750   40.1480 O   0  0  0  0  0  0  0  0  0  0  0  0
   23.6503   47.3796   46.6396 H   0  0  0  0  0  0  0  0  0  0  0  0
   23.8334   47.8358   49.0612 H   0  0  0  0  0  0  0  0  0  0  0  0
   23.1545   51.9929   48.3928 H   0  0  0  0  0  0  0  0  0  0  0  0
   22.9173   51.5607   45.9849 H   0  0  0  0  0  0  0  0  0  0  0  0
   22.7473   48.4229   42.7707 H   0  0  0  0  0  0  0  0  0  0  0  0
   24.2954   46.7359   44.5582 H   0  0  0  0  0  0  0  0  0  0  0  0
   25.1718   47.4112   43.1939 H   0  0  0  0  0  0  0  0  0  0  0  0
   24.1022   45.5561   42.0816 H   0  0  0  0  0  0  0  0  0  0  0  0
   22.8028   46.7660   41.8781 H   0  0  0  0  0  0  0  0  0  0  0  0
   22.4969   44.2750   43.1572 H   0  0  0  0  0  0  0  0  0  0  0  0
   22.7578   45.3915   44.5470 H   0  0  0  0  0  0  0  0  0  0  0  0
   20.9520   46.8887   43.6362 H   0  0  0  0  0  0  0  0  0  0  0  0
   20.6593   45.6401   42.3358 H   0  0  0  0  0  0  0  0  0  0  0  0
   20.1579   43.9805   44.3003 H   0  0  0  0  0  0  0  0  0  0  0  0
   20.6136   45.0864   47.5123 H   0  0  0  0  0  0  0  0  0  0  0  0
   18.2571   46.3382   44.1554 H   0  0  0  0  0  0  0  0  0  0  0  0
   16.2754   45.9675   43.0955 H   0  0  0  0  0  0  0  0  0  0  0  0
   15.8608   43.4806   41.7163 H   0  0  0  0  0  0  0  0  0  0  0  0
   18.2970   45.8305   41.0794 H   0  0  0  0  0  0  0  0  0  0  0  0
   14.0559   44.9847   42.1315 H   0  0  0  0  0  0  0  0  0  0  0  0
   14.2509   44.4913   40.3531 H   0  0  0  0  0  0  0  0  0  0  0  0
   12.4797   47.0198   41.1459 H   0  0  0  0  0  0  0  0  0  0  0  0
   13.0521   49.3704   40.2148 H   0  0  0  0  0  0  0  0  0  0  0  0
   15.5164   49.3836   39.3418 H   0  0  0  0  0  0  0  0  0  0  0  0
 25 24  2  0
 31 32  1  0
 31 30  2  0
 32 28  1  0
 24 26  1  0
 24 23  1  0
 30 29  1  0
 28 29  2  0
 28 27  1  0
 27 23  1  0
 23 22  1  0
 21 20  2  0
 22 20  1  0
 12 13  1  0
 12 11  1  0
 20 19  1  0
 14 13  1  0
 14 15  1  0
 11 10  1  0
 10  8  1  0
 19 15  1  0
  9  8  2  0
 15 16  1  0
  8  7  1  0
 16 18  2  0
 16 17  1  0
  7  6  1  0
  7  1  2  0
  6  5  2  0
  1  2  1  0
  5  3  1  0
  2  3  2  0
  3  4  1  0
  1 33  1  0
  2 34  1  0
  5 35  1  0
  6 36  1  0
 10 37  1  0
 11 38  1  0
 11 39  1  0
 12 40  1  0
 12 41  1  0
 13 42  1  0
 13 43  1  0
 14 44  1  0
 14 45  1  0
 15 46  1  0
 17 47  1  0
 19 48  1  0
 22 49  1  0
 23 50  1  0
 26 51  1  0
 27 52  1  0
 27 53  1  0
 29 54  1  0
 30 55  1  0
 31 56  1  0
A    1
CAM
A    2
CAK
A    3
CBB
A    4
IAG
A    5
CAL
A    6
CAN
A    7
CBC
A    8
CBA
A    9
OAD
A   10
NAT
A   11
CAQ
A   12
CAO
A   13
CAP
A   14
CB
A   15
CA
A   16
C
A   17
OXT
A   18
O
A   19
N
A   20
CAZ
A   21
OAC
A   22
NAV
A   23
CBF
A   24
CAY
A   25
OAF
A   26
OAB
A   27
CAS
A   28
CBD
A   29
CAJ
A   30
CAH
A   31
CAI
A   32
OAW
M  END
