4OC5_2QM_A_818
     RDKit          3D

 57 58  0  0  0  0  0  0  0  0999 V2000
   14.0150   45.6150   41.2390 C   0  0  0  0  0  0  0  0  0  0  0  0
   13.0400   46.5170   40.8730 C   0  0  0  0  0  0  0  0  0  0  0  0
   13.3560   47.6370   40.1110 C   0  0  0  0  0  0  0  0  0  0  0  0
   12.3540   48.4870   39.7560 O   0  0  0  0  0  0  0  0  0  0  0  0
   14.6650   47.9080   39.7220 C   0  0  0  0  0  0  0  0  0  0  0  0
   15.6550   46.9870   40.1180 C   0  0  0  0  0  0  0  0  0  0  0  0
   15.3370   45.8690   40.8920 C   0  0  0  0  0  0  0  0  0  0  0  0
   16.3430   44.8250   41.3170 C   0  0  0  0  0  0  0  0  0  0  0  0
   17.4220   44.7020   40.2090 C   0  0  0  0  0  0  0  0  0  0  0  0
   17.2160   43.8620   39.2700 O   0  0  0  0  0  0  0  0  0  0  0  0
   18.4030   45.5000   40.2550 O   0  0  0  0  0  0  0  0  0  0  0  0
   17.0100   45.2940   42.5440 N   0  0  0  0  0  0  0  0  0  0  0  0
   18.1560   44.7510   42.9320 C   0  0  0  0  0  0  0  0  0  0  0  0
   18.5050   43.6610   42.4730 O   0  0  0  0  0  0  0  0  0  0  0  0
   18.7950   45.3650   43.9310 N   0  0  0  0  0  0  0  0  0  0  0  0
   19.9990   44.8260   44.5770 C   0  0  0  0  0  0  0  0  0  0  0  0
   20.1930   45.5610   45.9140 C   0  0  0  0  0  0  0  0  0  0  0  0
   19.6720   46.7260   46.0660 O   0  0  0  0  0  0  0  0  0  0  0  0
   20.8280   44.8840   46.7460 O   0  0  0  0  0  0  0  0  0  0  0  0
   21.2700   45.0020   43.7080 C   0  0  0  0  0  0  0  0  0  0  0  0
   21.6260   46.4260   43.4490 C   0  0  0  0  0  0  0  0  0  0  0  0
   22.9620   46.5000   42.6470 C   0  0  0  0  0  0  0  0  0  0  0  0
   23.5210   47.9020   42.7750 C   0  0  0  0  0  0  0  0  0  0  0  0
   23.7290   48.2110   44.1940 N   0  0  0  0  0  0  0  0  0  0  0  0
   23.2770   49.3360   44.7580 C   0  0  0  0  0  0  0  0  0  0  0  0
   22.6010   50.1410   44.1100 O   0  0  0  0  0  0  0  0  0  0  0  0
   23.4470   49.5480   46.3030 C   0  0  0  0  0  0  0  0  0  0  0  0
   23.5580   50.8310   46.8600 C   0  0  0  0  0  0  0  0  0  0  0  0
   23.6780   51.0340   48.2650 C   0  0  0  0  0  0  0  0  0  0  0  0
   23.6310   50.0060   49.2250 C   0  0  0  0  0  0  0  0  0  0  0  0
   23.7680   50.3270   51.3800 I   0  0  0  0  0  0  0  0  0  0  0  0
   23.4730   48.7260   48.6380 C   0  0  0  0  0  0  0  0  0  0  0  0
   23.3910   48.5030   47.2290 C   0  0  0  0  0  0  0  0  0  0  0  0
   13.7508   44.7056   41.7986 H   0  0  0  0  0  0  0  0  0  0  0  0
   11.9992   46.3495   41.1871 H   0  0  0  0  0  0  0  0  0  0  0  0
   11.8191   48.9408   40.4546 H   0  0  0  0  0  0  0  0  0  0  0  0
   14.9153   48.8017   39.1315 H   0  0  0  0  0  0  0  0  0  0  0  0
   16.6985   47.1518   39.8116 H   0  0  0  0  0  0  0  0  0  0  0  0
   15.8426   43.8601   41.4857 H   0  0  0  0  0  0  0  0  0  0  0  0
   18.7626   45.7925   41.1298 H   0  0  0  0  0  0  0  0  0  0  0  0
   16.5843   46.0471   43.1031 H   0  0  0  0  0  0  0  0  0  0  0  0
   18.4235   46.2651   44.2666 H   0  0  0  0  0  0  0  0  0  0  0  0
   19.8563   43.7454   44.7250 H   0  0  0  0  0  0  0  0  0  0  0  0
   20.6887   45.0325   47.7148 H   0  0  0  0  0  0  0  0  0  0  0  0
   21.1014   44.5048   42.7414 H   0  0  0  0  0  0  0  0  0  0  0  0
   22.1064   44.5582   44.2679 H   0  0  0  0  0  0  0  0  0  0  0  0
   21.7459   46.9524   44.4074 H   0  0  0  0  0  0  0  0  0  0  0  0
   20.8244   46.8997   42.8633 H   0  0  0  0  0  0  0  0  0  0  0  0
   22.7724   46.2712   41.5879 H   0  0  0  0  0  0  0  0  0  0  0  0
   23.6816   45.7691   43.0443 H   0  0  0  0  0  0  0  0  0  0  0  0
   24.4801   47.9659   42.2402 H   0  0  0  0  0  0  0  0  0  0  0  0
   22.8134   48.6230   42.3398 H   0  0  0  0  0  0  0  0  0  0  0  0
   24.2427   47.5357   44.7780 H   0  0  0  0  0  0  0  0  0  0  0  0
   23.5522   51.7054   46.1926 H   0  0  0  0  0  0  0  0  0  0  0  0
   23.8169   52.0645   48.6239 H   0  0  0  0  0  0  0  0  0  0  0  0
   23.4098   47.8539   49.3054 H   0  0  0  0  0  0  0  0  0  0  0  0
   23.2799   47.4726   46.8603 H   0  0  0  0  0  0  0  0  0  0  0  0
 10  9  2  0
  5  3  2  0
  5  6  1  0
  4  3  1  0
  3  2  1  0
  6  7  2  0
  9 11  1  0
  9  8  1  0
  2  1  2  0
  7  1  1  0
  7  8  1  0
  8 12  1  0
 14 13  2  0
 12 13  1  0
 22 23  1  0
 22 21  1  0
 23 24  1  0
 13 15  1  0
 21 20  1  0
 20 16  1  0
 15 16  1  0
 26 25  2  0
 24 25  1  0
 16 17  1  0
 25 27  1  0
 17 18  2  0
 17 19  1  0
 27 28  2  0
 27 33  1  0
 28 29  1  0
 33 32  2  0
 29 30  2  0
 32 30  1  0
 30 31  1  0
  1 34  1  0
  2 35  1  0
  4 36  1  0
  5 37  1  0
  6 38  1  0
  8 39  1  0
 11 40  1  0
 12 41  1  0
 15 42  1  0
 16 43  1  0
 19 44  1  0
 20 45  1  0
 20 46  1  0
 21 47  1  0
 21 48  1  0
 22 49  1  0
 22 50  1  0
 23 51  1  0
 23 52  1  0
 24 53  1  0
 28 54  1  0
 29 55  1  0
 32 56  1  0
 33 57  1  0
A    1
CAO
A    2
CAI
A    3
CBB
A    4
OAG
A    5
CAJ
A    6
CAP
A    7
CBE
A    8
CBG
A    9
CAY
A   10
OAF
A   11
OAB
A   12
NAW
A   13
CAZ
A   14
OAC
A   15
N
A   16
CA
A   17
C
A   18
OXT
A   19
O
A   20
CB
A   21
CAR
A   22
CAQ
A   23
CAS
A   24
NAU
A   25
CBA
A   26
OAD
A   27
CBD
A   28
CAM
A   29
CAK
A   30
CBC
A   31
IAH
A   32
CAL
A   33
CAN
M  END
