4OCC_2TZ_A_201
     RDKit          3D

 67 69  0  0  0  0  0  0  0  0999 V2000
  -15.8840    2.9300  -15.8020 C   0  0  0  0  0  0  0  0  0  0  0  0
  -16.7940    3.9780  -15.5720 C   0  0  0  0  0  0  0  0  0  0  0  0
  -16.4680    5.3530  -14.5920 Cl  0  0  0  0  0  0  0  0  0  0  0  0
  -18.0460    3.9840  -16.1630 C   0  0  0  0  0  0  0  0  0  0  0  0
  -18.4030    2.9190  -17.0100 C   0  0  0  0  0  0  0  0  0  0  0  0
  -17.5030    1.8550  -17.2680 C   0  0  0  0  0  0  0  0  0  0  0  0
  -16.2270    1.8550  -16.6620 C   0  0  0  0  0  0  0  0  0  0  0  0
  -15.2070    0.7630  -16.9530 C   0  0  0  0  0  0  0  0  0  0  0  0
  -15.7060   -0.5590  -16.8230 O   0  0  0  0  0  0  0  0  0  0  0  0
  -14.7370   -1.6070  -16.8840 C   0  0  0  0  0  0  0  0  0  0  0  0
  -14.0990   -1.9370  -15.5440 C   0  0  0  0  0  0  0  0  0  0  0  0
  -15.0610   -2.5410  -14.4970 C   0  0  0  0  0  0  0  0  0  0  0  0
  -15.3120   -1.6580  -13.5120 O   0  0  0  0  0  0  0  0  0  0  0  0
  -15.5240   -3.6430  -14.5460 O   0  0  0  0  0  0  0  0  0  0  0  0
  -13.6390   -1.4090  -17.9360 C   0  0  0  0  0  0  0  0  0  0  0  0
  -12.8750   -2.3440  -18.1600 O   0  0  0  0  0  0  0  0  0  0  0  0
  -13.5560   -0.2090  -18.5850 N   0  0  0  0  0  0  0  0  0  0  0  0
  -12.6630   -0.0900  -19.7410 C   0  0  0  0  0  0  0  0  0  0  0  0
  -13.0570   -1.0100  -20.8850 C   0  0  0  0  0  0  0  0  0  0  0  0
  -14.3620    0.9850  -18.2220 C   0  0  0  0  0  0  0  0  0  0  0  0
  -13.6740    2.3370  -18.2760 C   0  0  0  0  0  0  0  0  0  0  0  0
  -12.5800    2.6600  -17.4350 C   0  0  0  0  0  0  0  0  0  0  0  0
  -11.9520    3.9210  -17.5060 C   0  0  0  0  0  0  0  0  0  0  0  0
  -12.4190    4.8670  -18.4300 C   0  0  0  0  0  0  0  0  0  0  0  0
  -11.6020    6.3530  -18.5680 Cl  0  0  0  0  0  0  0  0  0  0  0  0
  -13.5110    4.5710  -19.2680 C   0  0  0  0  0  0  0  0  0  0  0  0
  -14.1350    3.3150  -19.1930 C   0  0  0  0  0  0  0  0  0  0  0  0
  -14.7390   -0.7230  -21.3740 S   0  0  0  0  0  0  0  0  0  0  0  0
  -14.9540    0.6880  -21.5360 O   0  0  0  0  0  0  0  0  0  0  0  0
  -15.5820   -1.4940  -20.4970 O   0  0  0  0  0  0  0  0  0  0  0  0
  -14.8170   -1.4420  -23.0150 C   0  0  0  0  0  0  0  0  0  0  0  0
  -11.1600   -0.1760  -19.3780 C   0  0  0  0  0  0  0  0  0  0  0  0
  -10.2450    0.5150  -20.3310 C   0  0  0  0  0  0  0  0  0  0  0  0
  -16.3040   -1.4290  -23.3820 C   0  0  0  0  0  0  0  0  0  0  0  0
  -14.3080   -2.9010  -23.0060 C   0  0  0  0  0  0  0  0  0  0  0  0
  -14.0400   -0.4970  -23.9460 C   0  0  0  0  0  0  0  0  0  0  0  0
  -14.8995    2.9442  -15.3115 H   0  0  0  0  0  0  0  0  0  0  0  0
  -18.7499    4.8078  -15.9734 H   0  0  0  0  0  0  0  0  0  0  0  0
  -19.3975    2.9120  -17.4800 H   0  0  0  0  0  0  0  0  0  0  0  0
  -17.7968    1.0329  -17.9372 H   0  0  0  0  0  0  0  0  0  0  0  0
  -14.4861    0.8700  -16.1290 H   0  0  0  0  0  0  0  0  0  0  0  0
  -15.3459   -2.4665  -17.2009 H   0  0  0  0  0  0  0  0  0  0  0  0
  -13.2883   -2.6594  -15.7201 H   0  0  0  0  0  0  0  0  0  0  0  0
  -13.7479   -0.9821  -15.1259 H   0  0  0  0  0  0  0  0  0  0  0  0
  -15.2328   -1.9367  -12.5653 H   0  0  0  0  0  0  0  0  0  0  0  0
  -12.8039    0.9349  -20.1147 H   0  0  0  0  0  0  0  0  0  0  0  0
  -12.9492   -2.0555  -20.5605 H   0  0  0  0  0  0  0  0  0  0  0  0
  -12.4005   -0.8059  -21.7437 H   0  0  0  0  0  0  0  0  0  0  0  0
  -15.0585    1.0740  -19.0687 H   0  0  0  0  0  0  0  0  0  0  0  0
  -12.2141    1.9141  -16.7141 H   0  0  0  0  0  0  0  0  0  0  0  0
  -11.1061    4.1595  -16.8445 H   0  0  0  0  0  0  0  0  0  0  0  0
  -13.8757    5.3241  -19.9820 H   0  0  0  0  0  0  0  0  0  0  0  0
  -14.9874    3.0885  -19.8504 H   0  0  0  0  0  0  0  0  0  0  0  0
  -10.8772   -1.2384  -19.3418 H   0  0  0  0  0  0  0  0  0  0  0  0
  -11.0454    0.3375  -18.4120 H   0  0  0  0  0  0  0  0  0  0  0  0
   -9.4910    1.0844  -19.7678 H   0  0  0  0  0  0  0  0  0  0  0  0
   -9.7432   -0.2315  -20.9642 H   0  0  0  0  0  0  0  0  0  0  0  0
  -10.8257    1.2019  -20.9642 H   0  0  0  0  0  0  0  0  0  0  0  0
  -16.9085   -1.4237  -22.4630 H   0  0  0  0  0  0  0  0  0  0  0  0
  -16.5279   -0.5289  -23.9733 H   0  0  0  0  0  0  0  0  0  0  0  0
  -16.5436   -2.3251  -23.9733 H   0  0  0  0  0  0  0  0  0  0  0  0
  -14.1892   -3.2415  -21.9668 H   0  0  0  0  0  0  0  0  0  0  0  0
  -15.0342   -3.5459  -23.5224 H   0  0  0  0  0  0  0  0  0  0  0  0
  -13.3382   -2.9542  -23.5224 H   0  0  0  0  0  0  0  0  0  0  0  0
  -13.4558    0.2135  -23.3427 H   0  0  0  0  0  0  0  0  0  0  0  0
  -13.3604   -1.0846  -24.5807 H   0  0  0  0  0  0  0  0  0  0  0  0
  -14.7479    0.0562  -24.5807 H   0  0  0  0  0  0  0  0  0  0  0  0
 36 31  1  0
 34 31  1  0
 31 35  1  0
 31 28  1  0
 29 28  2  0
 28 19  1  0
 28 30  2  0
 19 18  1  0
 33 32  1  0
 18 32  1  0
 18 17  1  0
 26 27  2  0
 26 24  1  0
 27 21  1  0
 17 20  1  0
 17 15  1  0
 25 24  1  0
 24 23  2  0
 21 20  1  0
 21 22  2  0
 20  8  1  0
 16 15  2  0
 15 10  1  0
 23 22  1  0
  6  5  2  0
  6  7  1  0
  5  4  1  0
  8  9  1  0
  8  7  1  0
 10  9  1  0
 10 11  1  0
  7  1  2  0
  4  2  2  0
  1  2  1  0
  2  3  1  0
 11 12  1  0
 14 12  2  0
 12 13  1  0
  1 37  1  0
  4 38  1  0
  5 39  1  0
  6 40  1  0
  8 41  1  0
 10 42  1  0
 11 43  1  0
 11 44  1  0
 13 45  1  0
 18 46  1  0
 19 47  1  0
 19 48  1  0
 20 49  1  0
 22 50  1  0
 23 51  1  0
 26 52  1  0
 27 53  1  0
 32 54  1  0
 32 55  1  0
 33 56  1  0
 33 57  1  0
 33 58  1  0
 34 59  1  0
 34 60  1  0
 34 61  1  0
 35 62  1  0
 35 63  1  0
 35 64  1  0
 36 65  1  0
 36 66  1  0
 36 67  1  0
A    1
C17
A    2
C16
A    3
CL2
A    4
C15
A    5
C14
A    6
C13
A    7
C6
A    8
C19
A    9
O6
A   10
C4
A   11
C21
A   12
C23
A   13
O3
A   14
O2
A   15
C5
A   16
O1
A   17
N1
A   18
C18
A   19
C20
A   20
C26
A   21
C7
A   22
C8
A   23
C9
A   24
C10
A   25
CL1
A   26
C11
A   27
C12
A   28
S1
A   29
O4
A   30
O5
A   31
C3
A   32
C1
A   33
C2
A   34
C22
A   35
C24
A   36
C25
M  END
