4OCZ_2RU_A_603
     RDKit          3D

 47 48  0  0  0  0  0  0  0  0999 V2000
   21.3830    7.7920   12.8470 F   0  0  0  0  0  0  0  0  0  0  0  0
   20.3700    8.2540   12.1480 C   0  0  0  0  0  0  0  0  0  0  0  0
   20.7830    9.0010   11.1340 F   0  0  0  0  0  0  0  0  0  0  0  0
   19.7350    7.1590   11.8050 F   0  0  0  0  0  0  0  0  0  0  0  0
   19.4150    9.0690   12.9500 C   0  0  0  0  0  0  0  0  0  0  0  0
   19.3990   10.4640   12.9370 C   0  0  0  0  0  0  0  0  0  0  0  0
   18.4640   11.1490   13.7210 C   0  0  0  0  0  0  0  0  0  0  0  0
   18.5100    8.3690   13.7240 C   0  0  0  0  0  0  0  0  0  0  0  0
   17.5990    9.0580   14.5090 C   0  0  0  0  0  0  0  0  0  0  0  0
   17.5430   10.4520   14.5300 C   0  0  0  0  0  0  0  0  0  0  0  0
   16.6870   11.1260   15.3740 N   0  0  0  0  0  0  0  0  0  0  0  0
   16.0720   10.6390   16.4850 C   0  0  0  0  0  0  0  0  0  0  0  0
   16.2220    9.4900   16.8640 O   0  0  0  0  0  0  0  0  0  0  0  0
   15.3330   11.5180   17.2030 N   0  0  0  0  0  0  0  0  0  0  0  0
   14.7880   11.3370   18.5620 C   0  0  0  0  0  0  0  0  0  0  0  0
   13.6360   10.3440   18.7370 C   0  0  0  0  0  0  0  0  0  0  0  0
   12.9990   10.3350   20.1450 C   0  0  0  0  0  0  0  0  0  0  0  0
   12.5870   11.7030   20.5360 N   0  0  0  0  0  0  0  0  0  0  0  0
   13.6760   12.6930   20.4220 C   0  0  0  0  0  0  0  0  0  0  0  0
   14.2800   12.7080   19.0170 C   0  0  0  0  0  0  0  0  0  0  0  0
   11.3870   12.0870   21.0410 C   0  0  0  0  0  0  0  0  0  0  0  0
   11.2140   13.2060   21.5580 O   0  0  0  0  0  0  0  0  0  0  0  0
   10.2240   11.1270   21.0190 C   0  0  0  0  0  0  0  0  0  0  0  0
    9.7330   10.9710   19.6030 C   0  0  0  0  0  0  0  0  0  0  0  0
    9.0720   11.6340   21.8800 C   0  0  0  0  0  0  0  0  0  0  0  0
   20.1156   11.0209   12.3155 H   0  0  0  0  0  0  0  0  0  0  0  0
   18.4472   12.2488   13.7060 H   0  0  0  0  0  0  0  0  0  0  0  0
   18.5124    7.2690   13.7173 H   0  0  0  0  0  0  0  0  0  0  0  0
   16.8976    8.4875   15.1356 H   0  0  0  0  0  0  0  0  0  0  0  0
   16.4910   12.1089   15.1367 H   0  0  0  0  0  0  0  0  0  0  0  0
   15.1274   12.4183   16.7468 H   0  0  0  0  0  0  0  0  0  0  0  0
   15.6135   10.9104   19.1506 H   0  0  0  0  0  0  0  0  0  0  0  0
   12.8521   10.5968   18.0079 H   0  0  0  0  0  0  0  0  0  0  0  0
   14.0635    9.3422   18.5832 H   0  0  0  0  0  0  0  0  0  0  0  0
   12.1162    9.6788   20.1389 H   0  0  0  0  0  0  0  0  0  0  0  0
   13.7404    9.9659   20.8689 H   0  0  0  0  0  0  0  0  0  0  0  0
   14.4644   12.4412   21.1466 H   0  0  0  0  0  0  0  0  0  0  0  0
   13.2573   13.6894   20.6266 H   0  0  0  0  0  0  0  0  0  0  0  0
   15.1235   13.4139   19.0070 H   0  0  0  0  0  0  0  0  0  0  0  0
   13.4815   13.0069   18.3220 H   0  0  0  0  0  0  0  0  0  0  0  0
   10.5695   10.1630   21.4206 H   0  0  0  0  0  0  0  0  0  0  0  0
    8.6847   10.6379   19.6130 H   0  0  0  0  0  0  0  0  0  0  0  0
    9.8060   11.9366   19.0811 H   0  0  0  0  0  0  0  0  0  0  0  0
   10.3499   10.2246   19.0811 H   0  0  0  0  0  0  0  0  0  0  0  0
    9.3310   11.5200   22.9430 H   0  0  0  0  0  0  0  0  0  0  0  0
    8.8888   12.6959   21.6590 H   0  0  0  0  0  0  0  0  0  0  0  0
    8.1652   11.0518   21.6590 H   0  0  0  0  0  0  0  0  0  0  0  0
  3  2  1  0
  4  2  1  0
  2  1  1  0
  2  5  1  0
  6  5  2  0
  6  7  1  0
  5  8  1  0
  7 10  2  0
  8  9  2  0
  9 10  1  0
 10 11  1  0
 11 12  1  0
 12 13  2  0
 12 14  1  0
 14 15  1  0
 15 16  1  0
 15 20  1  0
 16 17  1  0
 20 19  1  0
 24 23  1  0
 17 18  1  0
 19 18  1  0
 18 21  1  0
 23 21  1  0
 23 25  1  0
 21 22  2  0
  6 26  1  0
  7 27  1  0
  8 28  1  0
  9 29  1  0
 11 30  1  0
 14 31  1  0
 15 32  1  0
 16 33  1  0
 16 34  1  0
 17 35  1  0
 17 36  1  0
 19 37  1  0
 19 38  1  0
 20 39  1  0
 20 40  1  0
 23 41  1  0
 24 42  1  0
 24 43  1  0
 24 44  1  0
 25 45  1  0
 25 46  1  0
 25 47  1  0
A    1
F23
A    2
C20
A    3
F21
A    4
F22
A    5
C19
A    6
C18
A    7
C17
A    8
C24
A    9
C25
A   10
C1
A   11
N2
A   12
C3
A   13
O16
A   14
N4
A   15
C5
A   16
C15
A   17
C14
A   18
N8
A   19
C7
A   20
C6
A   21
C9
A   22
O13
A   23
C10
A   24
C12
A   25
C11
M  END
