4OD9_2RZ_A_103
     RDKit          3D

 73 75  0  0  0  0  0  0  0  0999 V2000
   -9.4870   11.8840  -38.2550 C   0  0  0  0  0  0  0  0  0  0  0  0
   -8.9030   12.9180  -38.9920 C   0  0  0  0  0  0  0  0  0  0  0  0
   -8.0060   13.8010  -38.3880 C   0  0  0  0  0  0  0  0  0  0  0  0
   -5.3180   14.2750  -36.7360 C   0  0  0  0  0  0  0  0  0  0  0  0
   -4.8180   12.9450  -36.1860 C   0  0  0  0  0  0  0  0  0  0  0  0
   -8.3100   12.6160  -36.2890 C   0  0  0  0  0  0  0  0  0  0  0  0
   -3.6920   10.7370  -36.6550 C   0  0  0  0  0  0  0  0  0  0  0  0
   -4.6360    9.8460  -35.8930 C   0  0  0  0  0  0  0  0  0  0  0  0
   -4.1650    9.1450  -34.7810 C   0  0  0  0  0  0  0  0  0  0  0  0
   -5.0190    8.2860  -34.0630 C   0  0  0  0  0  0  0  0  0  0  0  0
    0.5060   16.8510  -31.4510 C   0  0  0  0  0  0  0  0  0  0  0  0
    1.5370   16.6820  -32.3870 C   0  0  0  0  0  0  0  0  0  0  0  0
    0.1090   17.5840  -34.1100 C   0  0  0  0  0  0  0  0  0  0  0  0
    2.4140   16.8950  -34.5650 O   0  0  0  0  0  0  0  0  0  0  0  0
    3.0800   15.8400  -30.6900 C   0  0  0  0  0  0  0  0  0  0  0  0
   -2.2740   18.2220  -33.6320 C   0  0  0  0  0  0  0  0  0  0  0  0
   -2.9920   17.1160  -34.3670 C   0  0  0  0  0  0  0  0  0  0  0  0
   -6.8200    8.8870  -35.5640 C   0  0  0  0  0  0  0  0  0  0  0  0
   -6.3630    8.1690  -34.4480 C   0  0  0  0  0  0  0  0  0  0  0  0
   -7.7440   13.6640  -37.0260 C   0  0  0  0  0  0  0  0  0  0  0  0
   -9.1940   11.7300  -36.9040 C   0  0  0  0  0  0  0  0  0  0  0  0
   -6.7780   14.5910  -36.3300 C   0  0  0  0  0  0  0  0  0  0  0  0
   -4.4930   15.2380  -36.0170 N   0  0  0  0  0  0  0  0  0  0  0  0
   -4.8150   12.7710  -34.9710 O   0  0  0  0  0  0  0  0  0  0  0  0
   -4.2940   12.0340  -37.0460 N   0  0  0  0  0  0  0  0  0  0  0  0
   -5.9500    9.6820  -36.3130 C   0  0  0  0  0  0  0  0  0  0  0  0
   -4.2500   16.5480  -36.3980 C   0  0  0  0  0  0  0  0  0  0  0  0
   -4.6140   17.0140  -37.5580 N   0  0  0  0  0  0  0  0  0  0  0  0
   -3.5500   17.3960  -35.5630 N   0  0  0  0  0  0  0  0  0  0  0  0
    1.3450   17.0560  -33.7190 C   0  0  0  0  0  0  0  0  0  0  0  0
   -0.9240   17.7060  -33.1890 C   0  0  0  0  0  0  0  0  0  0  0  0
   -0.7300   17.3500  -31.8510 C   0  0  0  0  0  0  0  0  0  0  0  0
    2.7880   16.2340  -32.0480 O   0  0  0  0  0  0  0  0  0  0  0  0
    2.3560   17.1290  -35.9750 C   0  0  0  0  0  0  0  0  0  0  0  0
   -3.0530   16.0150  -33.8770 O   0  0  0  0  0  0  0  0  0  0  0  0
   -7.1940    7.3360  -33.7360 O   0  0  0  0  0  0  0  0  0  0  0  0
   -4.5910    7.5970  -32.9640 O   0  0  0  0  0  0  0  0  0  0  0  0
   -3.1930    7.3090  -32.7850 C   0  0  0  0  0  0  0  0  0  0  0  0
   -8.5690    7.1720  -34.1300 C   0  0  0  0  0  0  0  0  0  0  0  0
  -10.1826   11.1877  -38.7463 H   0  0  0  0  0  0  0  0  0  0  0  0
   -9.1522   13.0371  -40.0568 H   0  0  0  0  0  0  0  0  0  0  0  0
   -7.5151   14.5903  -38.9762 H   0  0  0  0  0  0  0  0  0  0  0  0
   -5.2697   14.2830  -37.8349 H   0  0  0  0  0  0  0  0  0  0  0  0
   -8.0573   12.4919  -35.2256 H   0  0  0  0  0  0  0  0  0  0  0  0
   -3.3752   10.2104  -37.5673 H   0  0  0  0  0  0  0  0  0  0  0  0
   -2.8456   10.9593  -35.9885 H   0  0  0  0  0  0  0  0  0  0  0  0
   -3.1187    9.2648  -34.4634 H   0  0  0  0  0  0  0  0  0  0  0  0
    0.6752   16.5880  -30.3964 H   0  0  0  0  0  0  0  0  0  0  0  0
   -0.0451   17.9038  -35.1512 H   0  0  0  0  0  0  0  0  0  0  0  0
    2.5734   16.5236  -29.9929 H   0  0  0  0  0  0  0  0  0  0  0  0
    2.7230   14.8133  -30.5213 H   0  0  0  0  0  0  0  0  0  0  0  0
    4.1661   15.8829  -30.5213 H   0  0  0  0  0  0  0  0  0  0  0  0
   -2.1401   19.0855  -34.3001 H   0  0  0  0  0  0  0  0  0  0  0  0
   -2.8624   18.5373  -32.7577 H   0  0  0  0  0  0  0  0  0  0  0  0
   -7.8794    8.8225  -35.8530 H   0  0  0  0  0  0  0  0  0  0  0  0
   -9.6557   10.9162  -36.3256 H   0  0  0  0  0  0  0  0  0  0  0  0
   -7.0121   15.6293  -36.6076 H   0  0  0  0  0  0  0  0  0  0  0  0
   -6.8783   14.4513  -35.2435 H   0  0  0  0  0  0  0  0  0  0  0  0
   -4.0497   14.9149  -35.1452 H   0  0  0  0  0  0  0  0  0  0  0  0
   -4.3166   12.2624  -38.0501 H   0  0  0  0  0  0  0  0  0  0  0  0
   -6.3031   10.1756  -37.2304 H   0  0  0  0  0  0  0  0  0  0  0  0
   -4.4153   17.9941  -37.8047 H   0  0  0  0  0  0  0  0  0  0  0  0
   -3.4399   18.3647  -35.8951 H   0  0  0  0  0  0  0  0  0  0  0  0
   -1.5459   17.4632  -31.1220 H   0  0  0  0  0  0  0  0  0  0  0  0
    2.0952   18.1812  -36.1616 H   0  0  0  0  0  0  0  0  0  0  0  0
    3.3359   16.9089  -36.4238 H   0  0  0  0  0  0  0  0  0  0  0  0
    1.5923   16.4768  -36.4238 H   0  0  0  0  0  0  0  0  0  0  0  0
   -2.9631    7.2616  -31.7103 H   0  0  0  0  0  0  0  0  0  0  0  0
   -2.9547    6.3429  -33.2539 H   0  0  0  0  0  0  0  0  0  0  0  0
   -2.5922    8.1022  -33.2539 H   0  0  0  0  0  0  0  0  0  0  0  0
   -9.2010    7.0966  -33.2328 H   0  0  0  0  0  0  0  0  0  0  0  0
   -8.8846    8.0389  -34.7291 H   0  0  0  0  0  0  0  0  0  0  0  0
   -8.6719    6.2552  -34.7291 H   0  0  0  0  0  0  0  0  0  0  0  0
  2  3  1  0
  2  1  2  0
  3 20  2  0
  1 21  1  0
 28 27  2  3
 25  7  1  0
 25  5  1  0
 20 22  1  0
 20  6  1  0
 21  6  2  0
  4 22  1  0
  4  5  1  0
  4 23  1  0
  7  8  1  0
 27 23  1  0
 27 29  1  0
 26  8  1  0
 26 18  2  0
  5 24  2  0
 34 14  1  0
  8  9  2  0
 18 19  1  0
 29 17  1  0
  9 10  1  0
 14 30  1  0
 19 10  2  0
 19 36  1  0
 17 35  2  0
 17 16  1  0
 39 36  1  0
 13 30  2  0
 13 31  1  0
 10 37  1  0
 30 12  1  0
 16 31  1  0
 31 32  2  0
 37 38  1  0
 12 33  1  0
 12 11  2  0
 33 15  1  0
 32 11  1  0
  1 40  1  0
  2 41  1  0
  3 42  1  0
  4 43  1  0
  6 44  1  0
  7 45  1  0
  7 46  1  0
  9 47  1  0
 11 48  1  0
 13 49  1  0
 15 50  1  0
 15 51  1  0
 15 52  1  0
 16 53  1  0
 16 54  1  0
 18 55  1  0
 21 56  1  0
 22 57  1  0
 22 58  1  0
 23 59  1  0
 25 60  1  0
 26 61  1  0
 28 62  1  0
 29 63  1  0
 32 64  1  0
 34 65  1  0
 34 66  1  0
 34 67  1  0
 38 68  1  0
 38 69  1  0
 38 70  1  0
 39 71  1  0
 39 72  1  0
 39 73  1  0
A    1
C1
A    2
C2
A    3
C3
A    4
C7
A    5
C9
A    6
C12
A    7
C13
A    8
C14
A    9
C15
A   10
C16
A   11
C21
A   12
C22
A   13
C24
A   14
O28
A   15
C30
A   16
C31
A   17
C32
A   18
C34
A   19
C35
A   20
C4
A   21
C5
A   22
C6
A   23
N8
A   24
O10
A   25
N11
A   26
C17
A   27
C18
A   28
N19
A   29
N20
A   30
C23
A   31
C25
A   32
C26
A   33
O27
A   34
C29
A   35
O33
A   36
O36
A   37
O37
A   38
C38
A   39
C39
M  END
