4ODE_2U0_A_201
     RDKit          3D

 82 86  0  0  0  0  0  0  0  0999 V2000
   12.6700  -23.6660   -2.2260 C   0  0  0  0  0  0  0  0  0  0  0  0
   13.7000  -23.0470   -1.5140 C   0  0  0  0  0  0  0  0  0  0  0  0
   15.3070  -23.0110   -2.1750 Cl  0  0  0  0  0  0  0  0  0  0  0  0
   13.4520  -22.4620   -0.2740 C   0  0  0  0  0  0  0  0  0  0  0  0
   12.1670  -22.4930    0.2620 C   0  0  0  0  0  0  0  0  0  0  0  0
   11.1390  -23.1080   -0.4580 C   0  0  0  0  0  0  0  0  0  0  0  0
   11.3780  -23.6970   -1.7000 C   0  0  0  0  0  0  0  0  0  0  0  0
   10.2210  -24.3640   -2.4660 C   0  0  0  0  0  0  0  0  0  0  0  0
    9.3550  -25.2310   -1.5640 C   0  0  0  0  0  0  0  0  0  0  0  0
    9.3240  -23.1960   -2.9420 C   0  0  0  0  0  0  0  0  0  0  0  0
   10.1540  -22.3440   -3.9280 C   0  0  0  0  0  0  0  0  0  0  0  0
   10.6940  -22.9230   -5.0670 C   0  0  0  0  0  0  0  0  0  0  0  0
   11.4440  -22.1620   -5.9550 C   0  0  0  0  0  0  0  0  0  0  0  0
   11.9480  -22.7490   -7.0580 F   0  0  0  0  0  0  0  0  0  0  0  0
   11.6750  -20.8150   -5.6990 C   0  0  0  0  0  0  0  0  0  0  0  0
   12.6270  -19.8500   -6.7810 Cl  0  0  0  0  0  0  0  0  0  0  0  0
   11.1430  -20.2320   -4.5550 C   0  0  0  0  0  0  0  0  0  0  0  0
   10.3890  -20.9990   -3.6720 C   0  0  0  0  0  0  0  0  0  0  0  0
    8.0810  -23.6450   -3.6100 N   0  0  0  0  0  0  0  0  0  0  0  0
    7.2160  -22.6660   -4.3250 C   0  0  0  0  0  0  0  0  0  0  0  0
    6.7940  -22.9900   -5.7630 C   0  0  0  0  0  0  0  0  0  0  0  0
    6.9860  -21.8450   -6.7490 C   0  0  0  0  0  0  0  0  0  0  0  0
    7.8850  -23.0870   -6.8240 C   0  0  0  0  0  0  0  0  0  0  0  0
    5.9490  -22.3860   -3.4970 C   0  0  0  0  0  0  0  0  0  0  0  0
    6.2100  -21.7290   -1.8190 S   0  0  0  0  0  0  0  0  0  0  0  0
    6.9690  -22.7130   -0.9690 O   0  0  0  0  0  0  0  0  0  0  0  0
    6.9630  -20.4370   -1.8680 O   0  0  0  0  0  0  0  0  0  0  0  0
    4.5740  -21.4650   -1.0420 C   0  0  0  0  0  0  0  0  0  0  0  0
    3.8410  -22.8060   -1.0010 C   0  0  0  0  0  0  0  0  0  0  0  0
    4.7760  -20.9200    0.3670 C   0  0  0  0  0  0  0  0  0  0  0  0
    3.7800  -20.4630   -1.8700 C   0  0  0  0  0  0  0  0  0  0  0  0
    7.5890  -24.9420   -3.3550 C   0  0  0  0  0  0  0  0  0  0  0  0
    6.5050  -25.3090   -3.8060 O   0  0  0  0  0  0  0  0  0  0  0  0
    8.2780  -25.9200   -2.4170 C   0  0  0  0  0  0  0  0  0  0  0  0
    7.1990  -26.4700   -1.4840 C   0  0  0  0  0  0  0  0  0  0  0  0
    8.7890  -27.0150   -3.3620 C   0  0  0  0  0  0  0  0  0  0  0  0
    9.2960  -28.2400   -2.5880 C   0  0  0  0  0  0  0  0  0  0  0  0
    8.2890  -29.6030   -2.3930 S   0  0  0  0  0  0  0  0  0  0  0  0
   10.4530  -28.5060   -1.9680 N   0  0  0  0  0  0  0  0  0  0  0  0
   10.4900  -29.7330   -1.3830 C   0  0  0  0  0  0  0  0  0  0  0  0
    9.3750  -30.4730   -1.5200 C   0  0  0  0  0  0  0  0  0  0  0  0
    9.0370  -31.8740   -1.0230 C   0  0  0  0  0  0  0  0  0  0  0  0
   10.3060  -32.5010   -0.4750 C   0  0  0  0  0  0  0  0  0  0  0  0
   10.8770  -33.3370   -1.2100 O   0  0  0  0  0  0  0  0  0  0  0  0
   10.6830  -32.1170    0.6560 O   0  0  0  0  0  0  0  0  0  0  0  0
   12.8775  -24.1293   -3.2019 H   0  0  0  0  0  0  0  0  0  0  0  0
   14.2691  -21.9769    0.2802 H   0  0  0  0  0  0  0  0  0  0  0  0
   11.9631  -22.0379    1.2425 H   0  0  0  0  0  0  0  0  0  0  0  0
   10.1227  -23.1280   -0.0377 H   0  0  0  0  0  0  0  0  0  0  0  0
   10.6280  -24.9973   -3.2681 H   0  0  0  0  0  0  0  0  0  0  0  0
    9.9797  -25.9920   -1.0734 H   0  0  0  0  0  0  0  0  0  0  0  0
    8.8770  -24.6062   -0.7951 H   0  0  0  0  0  0  0  0  0  0  0  0
    9.0100  -22.6228   -2.0572 H   0  0  0  0  0  0  0  0  0  0  0  0
   10.5273  -23.9915   -5.2684 H   0  0  0  0  0  0  0  0  0  0  0  0
   11.3177  -19.1659   -4.3479 H   0  0  0  0  0  0  0  0  0  0  0  0
    9.9756  -20.5364   -2.7637 H   0  0  0  0  0  0  0  0  0  0  0  0
    7.8751  -21.7913   -4.4271 H   0  0  0  0  0  0  0  0  0  0  0  0
    5.9696  -23.6540   -5.4638 H   0  0  0  0  0  0  0  0  0  0  0  0
    7.4000  -20.8857   -6.4049 H   0  0  0  0  0  0  0  0  0  0  0  0
    6.3364  -21.3098   -7.4572 H   0  0  0  0  0  0  0  0  0  0  0  0
    7.7790  -23.7940   -7.6600 H   0  0  0  0  0  0  0  0  0  0  0  0
    8.9703  -23.2656   -6.8121 H   0  0  0  0  0  0  0  0  0  0  0  0
    5.3408  -21.6563   -4.0516 H   0  0  0  0  0  0  0  0  0  0  0  0
    5.4682  -23.3654   -3.3568 H   0  0  0  0  0  0  0  0  0  0  0  0
    3.6785  -23.1032    0.0456 H   0  0  0  0  0  0  0  0  0  0  0  0
    2.8704  -22.7090   -1.5095 H   0  0  0  0  0  0  0  0  0  0  0  0
    4.4466  -23.5706   -1.5095 H   0  0  0  0  0  0  0  0  0  0  0  0
    4.4914  -21.6879    1.1014 H   0  0  0  0  0  0  0  0  0  0  0  0
    5.8334  -20.6515    0.5082 H   0  0  0  0  0  0  0  0  0  0  0  0
    4.1490  -20.0273    0.5082 H   0  0  0  0  0  0  0  0  0  0  0  0
    3.2387  -19.7799   -1.1988 H   0  0  0  0  0  0  0  0  0  0  0  0
    4.4679  -19.8849   -2.5046 H   0  0  0  0  0  0  0  0  0  0  0  0
    3.0600  -21.0005   -2.5046 H   0  0  0  0  0  0  0  0  0  0  0  0
    7.5041  -26.3145   -0.4387 H   0  0  0  0  0  0  0  0  0  0  0  0
    6.2504  -25.9454   -1.6710 H   0  0  0  0  0  0  0  0  0  0  0  0
    7.0661  -27.5458   -1.6710 H   0  0  0  0  0  0  0  0  0  0  0  0
    9.6134  -26.6085   -3.9662 H   0  0  0  0  0  0  0  0  0  0  0  0
    7.9529  -27.3346   -4.0013 H   0  0  0  0  0  0  0  0  0  0  0  0
   11.3720  -30.0959   -0.8349 H   0  0  0  0  0  0  0  0  0  0  0  0
    8.2780  -31.8146   -0.2291 H   0  0  0  0  0  0  0  0  0  0  0  0
    8.6368  -32.4834   -1.8467 H   0  0  0  0  0  0  0  0  0  0  0  0
   10.2896  -32.5177    1.4713 H   0  0  0  0  0  0  0  0  0  0  0  0
 14 13  1  0
 23 22  1  0
 23 21  1  0
 16 15  1  0
 22 21  1  0
 13 15  1  0
 13 12  2  0
 21 20  1  0
 15 17  2  0
 12 11  1  0
 17 18  1  0
 20 19  1  0
 20 24  1  0
 11 18  2  0
 11 10  1  0
 33 32  2  0
 19 32  1  0
 19 10  1  0
 24 25  1  0
 36 37  1  0
 36 34  1  0
 32 34  1  0
 10  8  1  0
 37 38  1  0
 37 39  2  0
  8  7  1  0
  8  9  1  0
 34  9  1  0
 34 35  1  0
 38 41  1  0
  1  7  2  0
  1  2  1  0
  3  2  1  0
 39 40  1  0
 31 28  1  0
 27 25  2  0
 25 28  1  0
 25 26  2  0
  7  6  1  0
 41 40  2  0
 41 42  1  0
  2  4  2  0
 44 43  2  0
 28 29  1  0
 28 30  1  0
 42 43  1  0
 43 45  1  0
  6  5  2  0
  4  5  1  0
  1 46  1  0
  4 47  1  0
  5 48  1  0
  6 49  1  0
  8 50  1  0
  9 51  1  0
  9 52  1  0
 10 53  1  0
 12 54  1  0
 17 55  1  0
 18 56  1  0
 20 57  1  0
 21 58  1  0
 22 59  1  0
 22 60  1  0
 23 61  1  0
 23 62  1  0
 24 63  1  0
 24 64  1  0
 29 65  1  0
 29 66  1  0
 29 67  1  0
 30 68  1  0
 30 69  1  0
 30 70  1  0
 31 71  1  0
 31 72  1  0
 31 73  1  0
 35 74  1  0
 35 75  1  0
 35 76  1  0
 36 77  1  0
 36 78  1  0
 40 79  1  0
 42 80  1  0
 42 81  1  0
 45 82  1  0
A    1
C10
A    2
C9
A    3
CL1
A    4
C8
A    5
C7
A    6
C6
A    7
C4
A    8
C3
A    9
C5
A   10
C2
A   11
C1
A   12
C25
A   13
C24
A   14
F1
A   15
C23
A   16
CL2
A   17
C22
A   18
C21
A   19
N1
A   20
C11
A   21
C12
A   22
C27
A   23
C28
A   24
C13
A   25
S1
A   26
O2
A   27
O3
A   28
C14
A   29
C16
A   30
C29
A   31
C15
A   32
C17
A   33
O1
A   34
C18
A   35
C26
A   36
C19
A   37
C20
A   38
S2
A   39
N2
A   40
C30
A   41
C31
A   42
C32
A   43
C33
A   44
O5
A   45
O4
M  END
