4ODF_2U1_A_201
     RDKit          3D

 80 84  0  0  0  0  0  0  0  0999 V2000
   11.8820  -22.8840   -2.4840 C   0  0  0  0  0  0  0  0  0  0  0  0
   12.8710  -22.1990   -1.7960 C   0  0  0  0  0  0  0  0  0  0  0  0
   14.4960  -22.2540   -2.3770 Cl  0  0  0  0  0  0  0  0  0  0  0  0
   12.5610  -21.4830   -0.6470 C   0  0  0  0  0  0  0  0  0  0  0  0
   11.2490  -21.4460   -0.1910 C   0  0  0  0  0  0  0  0  0  0  0  0
   10.2580  -22.1310   -0.8860 C   0  0  0  0  0  0  0  0  0  0  0  0
   10.5740  -22.8450   -2.0340 C   0  0  0  0  0  0  0  0  0  0  0  0
    9.4830  -23.5880   -2.7800 C   0  0  0  0  0  0  0  0  0  0  0  0
    8.7140  -24.2390   -1.8520 O   0  0  0  0  0  0  0  0  0  0  0  0
    7.7640  -25.0920   -2.4530 C   0  0  0  0  0  0  0  0  0  0  0  0
    6.8470  -25.4510   -1.2810 C   0  0  0  0  0  0  0  0  0  0  0  0
    7.6600  -26.0360   -0.1260 C   0  0  0  0  0  0  0  0  0  0  0  0
    8.0840  -25.1600    0.8690 C   0  0  0  0  0  0  0  0  0  0  0  0
    8.8300  -25.6370    1.9310 C   0  0  0  0  0  0  0  0  0  0  0  0
    9.1190  -26.9900    1.9610 C   0  0  0  0  0  0  0  0  0  0  0  0
    9.9390  -27.5490    3.1110 C   0  0  0  0  0  0  0  0  0  0  0  0
   10.1980  -28.7700    3.0920 O   0  0  0  0  0  0  0  0  0  0  0  0
   10.3250  -26.7490    3.9890 O   0  0  0  0  0  0  0  0  0  0  0  0
    8.6710  -27.8230    0.9430 C   0  0  0  0  0  0  0  0  0  0  0  0
    7.9630  -27.3410   -0.0650 N   0  0  0  0  0  0  0  0  0  0  0  0
    8.4090  -26.3050   -3.1270 C   0  0  0  0  0  0  0  0  0  0  0  0
    6.8960  -24.2950   -3.4240 C   0  0  0  0  0  0  0  0  0  0  0  0
    5.8360  -24.7990   -3.7990 O   0  0  0  0  0  0  0  0  0  0  0  0
    7.3060  -23.0010   -3.8240 N   0  0  0  0  0  0  0  0  0  0  0  0
    6.4330  -22.1390   -4.6480 C   0  0  0  0  0  0  0  0  0  0  0  0
    6.0110  -22.7140   -6.0040 C   0  0  0  0  0  0  0  0  0  0  0  0
    6.2550  -21.7710   -7.1770 C   0  0  0  0  0  0  0  0  0  0  0  0
    7.1290  -23.0150   -6.9910 C   0  0  0  0  0  0  0  0  0  0  0  0
    5.1880  -21.8040   -3.8250 C   0  0  0  0  0  0  0  0  0  0  0  0
    5.4260  -20.8770   -2.2690 S   0  0  0  0  0  0  0  0  0  0  0  0
    5.8060  -19.4560   -2.5810 O   0  0  0  0  0  0  0  0  0  0  0  0
    6.4730  -21.4940   -1.3940 O   0  0  0  0  0  0  0  0  0  0  0  0
    3.8160  -20.9530   -1.4140 C   0  0  0  0  0  0  0  0  0  0  0  0
    3.8950  -20.1560   -0.1190 C   0  0  0  0  0  0  0  0  0  0  0  0
    3.5130  -22.4260   -1.1310 C   0  0  0  0  0  0  0  0  0  0  0  0
    2.7500  -20.3740   -2.3360 C   0  0  0  0  0  0  0  0  0  0  0  0
    8.5710  -22.4700   -3.2770 C   0  0  0  0  0  0  0  0  0  0  0  0
    9.3710  -21.5940   -4.2350 C   0  0  0  0  0  0  0  0  0  0  0  0
    9.9650  -22.2000   -5.3340 C   0  0  0  0  0  0  0  0  0  0  0  0
   10.7170  -21.4570   -6.2280 C   0  0  0  0  0  0  0  0  0  0  0  0
   10.8890  -20.1020   -6.0000 C   0  0  0  0  0  0  0  0  0  0  0  0
   11.8400  -19.1840   -7.1110 Cl  0  0  0  0  0  0  0  0  0  0  0  0
   10.3100  -19.4920   -4.8900 C   0  0  0  0  0  0  0  0  0  0  0  0
    9.5530  -20.2410   -3.9970 C   0  0  0  0  0  0  0  0  0  0  0  0
   12.1366  -23.4582   -3.3870 H   0  0  0  0  0  0  0  0  0  0  0  0
   13.3510  -20.9474   -0.1002 H   0  0  0  0  0  0  0  0  0  0  0  0
   10.9952  -20.8774    0.7158 H   0  0  0  0  0  0  0  0  0  0  0  0
    9.2194  -22.1070   -0.5246 H   0  0  0  0  0  0  0  0  0  0  0  0
    9.8826  -24.2675   -3.5472 H   0  0  0  0  0  0  0  0  0  0  0  0
    6.3283  -24.5444   -0.9361 H   0  0  0  0  0  0  0  0  0  0  0  0
    6.1158  -26.2008   -1.6175 H   0  0  0  0  0  0  0  0  0  0  0  0
    7.8266  -24.0921    0.8107 H   0  0  0  0  0  0  0  0  0  0  0  0
    9.1822  -24.9631    2.7259 H   0  0  0  0  0  0  0  0  0  0  0  0
   10.2161  -26.9748    4.9467 H   0  0  0  0  0  0  0  0  0  0  0  0
    8.9081  -28.8966    0.9758 H   0  0  0  0  0  0  0  0  0  0  0  0
    8.7780  -26.9990   -2.3574 H   0  0  0  0  0  0  0  0  0  0  0  0
    7.6633  -26.8157   -3.7540 H   0  0  0  0  0  0  0  0  0  0  0  0
    9.2493  -25.9723   -3.7540 H   0  0  0  0  0  0  0  0  0  0  0  0
    7.0315  -21.2514   -4.9007 H   0  0  0  0  0  0  0  0  0  0  0  0
    5.1598  -23.2929   -5.6163 H   0  0  0  0  0  0  0  0  0  0  0  0
    6.6765  -20.7703   -7.0008 H   0  0  0  0  0  0  0  0  0  0  0  0
    5.6385  -21.3664   -7.9932 H   0  0  0  0  0  0  0  0  0  0  0  0
    7.0357  -23.8620   -7.6866 H   0  0  0  0  0  0  0  0  0  0  0  0
    8.2100  -23.2016   -6.9093 H   0  0  0  0  0  0  0  0  0  0  0  0
    4.5215  -21.2071   -4.4649 H   0  0  0  0  0  0  0  0  0  0  0  0
    4.7906  -22.7802   -3.5102 H   0  0  0  0  0  0  0  0  0  0  0  0
    3.8270  -20.8418    0.7383 H   0  0  0  0  0  0  0  0  0  0  0  0
    4.8513  -19.6138   -0.0799 H   0  0  0  0  0  0  0  0  0  0  0  0
    3.0638  -19.4366   -0.0799 H   0  0  0  0  0  0  0  0  0  0  0  0
    3.4790  -22.5911   -0.0440 H   0  0  0  0  0  0  0  0  0  0  0  0
    2.5413  -22.6919   -1.5728 H   0  0  0  0  0  0  0  0  0  0  0  0
    4.3008  -23.0538   -1.5728 H   0  0  0  0  0  0  0  0  0  0  0  0
    1.9420  -19.9351   -1.7322 H   0  0  0  0  0  0  0  0  0  0  0  0
    3.1979  -19.5952   -2.9707 H   0  0  0  0  0  0  0  0  0  0  0  0
    2.3405  -21.1737   -2.9707 H   0  0  0  0  0  0  0  0  0  0  0  0
    8.2424  -21.8299   -2.4450 H   0  0  0  0  0  0  0  0  0  0  0  0
    9.8369  -23.2805   -5.4959 H   0  0  0  0  0  0  0  0  0  0  0  0
   11.1717  -21.9365   -7.1074 H   0  0  0  0  0  0  0  0  0  0  0  0
   10.4522  -18.4146   -4.7196 H   0  0  0  0  0  0  0  0  0  0  0  0
    9.1039  -19.7658   -3.1124 H   0  0  0  0  0  0  0  0  0  0  0  0
 27 28  1  0
 27 26  1  0
 42 41  1  0
 28 26  1  0
 40 41  1  0
 40 39  2  0
 26 25  1  0
 41 43  2  0
 39 38  1  0
 43 44  1  0
 25 29  1  0
 25 24  1  0
 38 44  2  0
 38 37  1  0
 29 30  1  0
 24 22  1  0
 24 37  1  0
 23 22  2  0
 22 10  1  0
 37  8  1  0
 21 10  1  0
  8  7  1  0
  8  9  1  0
 31 30  2  0
  1  7  2  0
  1  2  1  0
 10  9  1  0
 10 11  1  0
  3  2  1  0
 36 33  1  0
 30 33  1  0
 30 32  2  0
  7  6  1  0
  2  4  2  0
 33 35  1  0
 33 34  1  0
 11 12  1  0
  6  5  2  0
  4  5  1  0
 12 20  1  0
 12 13  2  0
 20 19  2  0
 13 14  1  0
 19 15  1  0
 14 15  2  0
 15 16  1  0
 17 16  2  0
 16 18  1  0
  1 45  1  0
  4 46  1  0
  5 47  1  0
  6 48  1  0
  8 49  1  0
 11 50  1  0
 11 51  1  0
 13 52  1  0
 14 53  1  0
 18 54  1  0
 19 55  1  0
 21 56  1  0
 21 57  1  0
 21 58  1  0
 25 59  1  0
 26 60  1  0
 27 61  1  0
 27 62  1  0
 28 63  1  0
 28 64  1  0
 29 65  1  0
 29 66  1  0
 34 67  1  0
 34 68  1  0
 34 69  1  0
 35 70  1  0
 35 71  1  0
 35 72  1  0
 36 73  1  0
 36 74  1  0
 36 75  1  0
 37 76  1  0
 39 77  1  0
 40 78  1  0
 43 79  1  0
 44 80  1  0
A    1
C11
A    2
C10
A    3
CL1
A    4
C9
A    5
C8
A    6
C7
A    7
C6
A    8
C2
A    9
O1
A   10
C3
A   11
C22
A   12
C24
A   13
C25
A   14
C26
A   15
C27
A   16
C29
A   17
O4
A   18
O3
A   19
C28
A   20
N2
A   21
C23
A   22
C4
A   23
O2
A   24
N1
A   25
C17
A   26
C18
A   27
C20
A   28
C21
A   29
C19
A   30
S1
A   31
O5
A   32
O6
A   33
C30
A   34
C32
A   35
C33
A   36
C31
A   37
C1
A   38
C5
A   39
C12
A   40
C13
A   41
C14
A   42
CL2
A   43
C15
A   44
C16
M  END
