1D6U_PEA_A_2003
     RDKit          3D

 21 21  0  0  0  0  0  0  0  0999 V2000
   60.8290   94.7130   28.2150 C   0  0  0  0  0  0  0  0  0  0  0  0
   61.3400   95.9700   27.8870 C   0  0  0  0  0  0  0  0  0  0  0  0
   60.4680   97.0700   27.6620 C   0  0  0  0  0  0  0  0  0  0  0  0
   59.0610   96.9290   27.7660 C   0  0  0  0  0  0  0  0  0  0  0  0
   58.5400   95.6790   28.0960 C   0  0  0  0  0  0  0  0  0  0  0  0
   59.4180   94.5640   28.3250 C   0  0  0  0  0  0  0  0  0  0  0  0
   61.7420   93.4810   28.3540 C   0  0  0  0  0  0  0  0  0  0  0  0
   61.5470   92.8710   29.7460 C   0  0  0  0  0  0  0  0  0  0  0  0
   62.4480   93.5000   30.7080 N   0  0  0  0  0  0  0  0  0  0  0  0
   62.4276   96.1107   27.8018 H   0  0  0  0  0  0  0  0  0  0  0  0
   60.8935   98.0505   27.4019 H   0  0  0  0  0  0  0  0  0  0  0  0
   58.3954   97.7870   27.5902 H   0  0  0  0  0  0  0  0  0  0  0  0
   57.4515   95.5450   28.1816 H   0  0  0  0  0  0  0  0  0  0  0  0
   58.9941   93.5838   28.5884 H   0  0  0  0  0  0  0  0  0  0  0  0
   61.4795   92.7387   27.5858 H   0  0  0  0  0  0  0  0  0  0  0  0
   62.7925   93.7798   28.2227 H   0  0  0  0  0  0  0  0  0  0  0  0
   60.5068   93.0273   30.0678 H   0  0  0  0  0  0  0  0  0  0  0  0
   61.7703   91.7949   29.6986 H   0  0  0  0  0  0  0  0  0  0  0  0
   62.1353   93.2817   31.6648 H   0  0  0  0  0  0  0  0  0  0  0  0
   63.4035   93.1414   30.5688 H   0  0  0  0  0  0  0  0  0  0  0  0
   62.4407   94.5205   30.5688 H   0  0  0  0  0  0  0  0  0  0  0  0
  1  2  2  0
  1  6  1  0
  1  7  1  0
  2  3  1  0
  3  4  2  0
  4  5  1  0
  5  6  2  0
  7  8  1  0
  8  9  1  0
  2 10  1  0
  3 11  1  0
  4 12  1  0
  5 13  1  0
  6 14  1  0
  7 15  1  0
  7 16  1  0
  8 17  1  0
  8 18  1  0
  9 19  1  0
  9 20  1  0
  9 21  1  0
M  CHG  1   9   1
A    1
C1'
A    2
C6'
A    3
C5'
A    4
C4'
A    5
C3'
A    6
C2'
A    7
C2
A    8
C1
A    9
N
M  END
