4OG3_2S6_A_602
     RDKit          3D

 65 68  0  0  0  0  0  0  0  0999 V2000
  -10.7090   19.2530  -13.3780 C   0  0  0  0  0  0  0  0  0  0  0  0
  -10.1450   20.4160  -13.8740 C   0  0  0  0  0  0  0  0  0  0  0  0
   -8.7740   20.5460  -13.9560 C   0  0  0  0  0  0  0  0  0  0  0  0
   -8.2000   21.7370  -14.4730 C   0  0  0  0  0  0  0  0  0  0  0  0
   -7.7710   22.7050  -14.9050 N   0  0  0  0  0  0  0  0  0  0  0  0
   -7.9820   19.4870  -13.5260 C   0  0  0  0  0  0  0  0  0  0  0  0
   -8.5360   18.2940  -13.0460 C   0  0  0  0  0  0  0  0  0  0  0  0
   -9.9140   18.1720  -12.9880 C   0  0  0  0  0  0  0  0  0  0  0  0
  -10.5430   17.0400  -12.5460 O   0  0  0  0  0  0  0  0  0  0  0  0
   -9.7970   15.8740  -12.1640 C   0  0  0  0  0  0  0  0  0  0  0  0
  -10.7450   15.0020  -11.2900 C   0  0  0  0  0  0  0  0  0  0  0  0
  -11.6080   14.2870  -12.2920 C   0  0  0  0  0  0  0  0  0  0  0  0
  -12.7540   13.5400  -11.6530 N   0  0  0  0  0  0  0  0  0  0  0  0
  -13.4540   12.7050  -12.6230 C   0  0  0  0  0  0  0  0  0  0  0  0
  -14.6310   11.9580  -12.0290 C   0  0  0  0  0  0  0  0  0  0  0  0
  -12.1400   12.4960  -10.7160 C   0  0  0  0  0  0  0  0  0  0  0  0
  -13.2290   11.7220   -9.8950 C   0  0  0  0  0  0  0  0  0  0  0  0
  -14.1190   10.9850  -10.9790 C   0  0  0  0  0  0  0  0  0  0  0  0
  -15.2420   10.0570  -10.4050 C   0  0  0  0  0  0  0  0  0  0  0  0
  -14.6060    9.0850   -9.3780 C   0  0  0  0  0  0  0  0  0  0  0  0
  -13.5070    8.1070   -9.8940 C   0  0  0  0  0  0  0  0  0  0  0  0
  -13.2870    7.2890   -8.5970 C   0  0  0  0  0  0  0  0  0  0  0  0
  -14.6980    7.2320   -7.8840 C   0  0  0  0  0  0  0  0  0  0  0  0
  -15.6390    8.0850   -8.6670 C   0  0  0  0  0  0  0  0  0  0  0  0
  -16.1590   10.8960   -9.7320 O   0  0  0  0  0  0  0  0  0  0  0  0
  -15.9230    9.3060  -11.4220 C   0  0  0  0  0  0  0  0  0  0  0  0
  -17.3090    9.1660  -11.4000 C   0  0  0  0  0  0  0  0  0  0  0  0
  -17.9810    8.4190  -12.3700 C   0  0  0  0  0  0  0  0  0  0  0  0
  -17.2430    7.8440  -13.4170 C   0  0  0  0  0  0  0  0  0  0  0  0
  -15.8770    7.9640  -13.4680 C   0  0  0  0  0  0  0  0  0  0  0  0
  -15.2380    8.7220  -12.5040 C   0  0  0  0  0  0  0  0  0  0  0  0
  -11.8029   19.1785  -13.2893 H   0  0  0  0  0  0  0  0  0  0  0  0
  -10.7935   21.2408  -14.2045 H   0  0  0  0  0  0  0  0  0  0  0  0
   -6.8875   19.5896  -13.5641 H   0  0  0  0  0  0  0  0  0  0  0  0
   -7.8873   17.4675  -12.7204 H   0  0  0  0  0  0  0  0  0  0  0  0
   -9.4843   15.3145  -13.0580 H   0  0  0  0  0  0  0  0  0  0  0  0
   -8.8891   16.1502  -11.6078 H   0  0  0  0  0  0  0  0  0  0  0  0
  -11.3558   15.6325  -10.6271 H   0  0  0  0  0  0  0  0  0  0  0  0
  -10.1979   14.3104  -10.6324 H   0  0  0  0  0  0  0  0  0  0  0  0
  -10.9840   13.5679  -12.8430 H   0  0  0  0  0  0  0  0  0  0  0  0
  -12.0405   15.0481  -12.9581 H   0  0  0  0  0  0  0  0  0  0  0  0
  -12.7431   11.9706  -13.0295 H   0  0  0  0  0  0  0  0  0  0  0  0
  -13.8503   13.3722  -13.4026 H   0  0  0  0  0  0  0  0  0  0  0  0
  -15.3245   12.6731  -11.5625 H   0  0  0  0  0  0  0  0  0  0  0  0
  -15.1600   11.4070  -12.8206 H   0  0  0  0  0  0  0  0  0  0  0  0
  -11.5693   11.7728  -11.3171 H   0  0  0  0  0  0  0  0  0  0  0  0
  -11.4912   13.0240  -10.0017 H   0  0  0  0  0  0  0  0  0  0  0  0
  -13.8392   12.4229   -9.3065 H   0  0  0  0  0  0  0  0  0  0  0  0
  -12.7810   11.0154   -9.1809 H   0  0  0  0  0  0  0  0  0  0  0  0
  -13.4393   10.2773  -11.4762 H   0  0  0  0  0  0  0  0  0  0  0  0
  -14.1801    9.8457   -8.7073 H   0  0  0  0  0  0  0  0  0  0  0  0
  -13.8684    7.4793  -10.7218 H   0  0  0  0  0  0  0  0  0  0  0  0
  -12.6079    8.5824  -10.3132 H   0  0  0  0  0  0  0  0  0  0  0  0
  -12.9375    6.2742   -8.8379 H   0  0  0  0  0  0  0  0  0  0  0  0
  -12.5236    7.7479   -7.9515 H   0  0  0  0  0  0  0  0  0  0  0  0
  -14.6136    7.6141   -6.8560 H   0  0  0  0  0  0  0  0  0  0  0  0
  -15.0647    6.1959   -7.8396 H   0  0  0  0  0  0  0  0  0  0  0  0
  -16.3397    8.6235   -8.0119 H   0  0  0  0  0  0  0  0  0  0  0  0
  -16.2909    7.5317   -9.3590 H   0  0  0  0  0  0  0  0  0  0  0  0
  -16.0452   10.7919   -8.7541 H   0  0  0  0  0  0  0  0  0  0  0  0
  -17.8865    9.6544  -10.6013 H   0  0  0  0  0  0  0  0  0  0  0  0
  -19.0712    8.2833  -12.3146 H   0  0  0  0  0  0  0  0  0  0  0  0
  -17.7679    7.2889  -14.2084 H   0  0  0  0  0  0  0  0  0  0  0  0
  -15.3006    7.4661  -14.2616 H   0  0  0  0  0  0  0  0  0  0  0  0
  -14.1517    8.8745  -12.5860 H   0  0  0  0  0  0  0  0  0  0  0  0
  5  4  3  0
  4  3  1  0
  3  2  1  0
  3  6  2  0
  2  1  2  0
  6  7  1  0
 30 29  2  0
 30 31  1  0
 29 28  1  0
  1  8  1  0
  7  8  2  0
  8  9  1  0
 14 15  1  0
 14 13  1  0
  9 10  1  0
 31 26  2  0
 28 27  2  0
 12 13  1  0
 12 11  1  0
 10 11  1  0
 15 18  1  0
 13 16  1  0
 26 27  1  0
 26 19  1  0
 18 19  1  0
 18 17  1  0
 16 17  1  0
 19 25  1  0
 19 20  1  0
 21 20  1  0
 21 22  1  0
 20 24  1  0
 24 23  1  0
 22 23  1  0
  1 32  1  0
  2 33  1  0
  6 34  1  0
  7 35  1  0
 10 36  1  0
 10 37  1  0
 11 38  1  0
 11 39  1  0
 12 40  1  0
 12 41  1  0
 14 42  1  0
 14 43  1  0
 15 44  1  0
 15 45  1  0
 16 46  1  0
 16 47  1  0
 17 48  1  0
 17 49  1  0
 18 50  1  0
 20 51  1  0
 21 52  1  0
 21 53  1  0
 22 54  1  0
 22 55  1  0
 23 56  1  0
 23 57  1  0
 24 58  1  0
 24 59  1  0
 25 60  1  0
 27 61  1  0
 28 62  1  0
 29 63  1  0
 30 64  1  0
 31 65  1  0
A    1
CAK
A    2
CAI
A    3
CAY
A    4
CAC
A    5
NAA
A    6
CAJ
A    7
CAL
A    8
CAZ
A    9
OAX
A   10
CAP
A   11
CAO
A   12
CAU
A   13
NBD
A   14
CAW
A   15
CAT
A   16
CAV
A   17
CAS
A   18
CBC
A   19
CBE
A   20
CBB
A   21
CAQ
A   22
CAM
A   23
CAN
A   24
CAR
A   25
OAB
A   26
CBA
A   27
CAG
A   28
CAE
A   29
CAD
A   30
CAF
A   31
CAH
M  END
