4OG5_2S7_A_601
     RDKit          3D

 64 67  0  0  0  0  0  0  0  0999 V2000
   -8.4660   17.9330  -13.0370 C   0  0  0  0  0  0  0  0  0  0  0  0
   -7.9190   19.1380  -13.5100 C   0  0  0  0  0  0  0  0  0  0  0  0
   -8.7140   20.2070  -13.8530 C   0  0  0  0  0  0  0  0  0  0  0  0
   -8.1560   21.4560  -14.4110 C   0  0  0  0  0  0  0  0  0  0  0  0
   -7.7710   22.3920  -14.8260 N   0  0  0  0  0  0  0  0  0  0  0  0
  -10.0720   20.1630  -13.6780 C   0  0  0  0  0  0  0  0  0  0  0  0
  -10.6410   18.9770  -13.1990 C   0  0  0  0  0  0  0  0  0  0  0  0
   -9.8180   17.8820  -12.8700 C   0  0  0  0  0  0  0  0  0  0  0  0
  -10.4270   16.7360  -12.4060 O   0  0  0  0  0  0  0  0  0  0  0  0
   -9.5650   15.6350  -12.1140 C   0  0  0  0  0  0  0  0  0  0  0  0
  -10.4950   14.6220  -11.4020 C   0  0  0  0  0  0  0  0  0  0  0  0
  -11.3820   13.9910  -12.4460 C   0  0  0  0  0  0  0  0  0  0  0  0
  -12.3810   13.0740  -11.7640 N   0  0  0  0  0  0  0  0  0  0  0  0
  -11.8090   11.7990  -11.1930 C   0  0  0  0  0  0  0  0  0  0  0  0
  -12.8260   11.0710  -10.3430 C   0  0  0  0  0  0  0  0  0  0  0  0
  -13.3770   12.6810  -12.7450 C   0  0  0  0  0  0  0  0  0  0  0  0
  -14.4750   11.7260  -12.1680 C   0  0  0  0  0  0  0  0  0  0  0  0
  -13.8860   10.5390  -11.3710 C   0  0  0  0  0  0  0  0  0  0  0  0
  -15.0320    9.6900  -10.6990 C   0  0  0  0  0  0  0  0  0  0  0  0
  -16.0900    9.2170  -11.7570 C   0  0  0  0  0  0  0  0  0  0  0  0
  -15.6170    8.3450  -12.9160 C   0  0  0  0  0  0  0  0  0  0  0  0
  -16.8900    7.9840  -13.5880 C   0  0  0  0  0  0  0  0  0  0  0  0
  -17.8730    7.7460  -12.4010 C   0  0  0  0  0  0  0  0  0  0  0  0
  -17.2140    8.3040  -11.1840 C   0  0  0  0  0  0  0  0  0  0  0  0
  -15.7240   10.5380   -9.7920 O   0  0  0  0  0  0  0  0  0  0  0  0
  -14.4760    8.5680   -9.9530 C   0  0  0  0  0  0  0  0  0  0  0  0
  -13.4700    7.8680  -10.5270 N   0  0  0  0  0  0  0  0  0  0  0  0
  -12.9320    6.7620   -9.8850 C   0  0  0  0  0  0  0  0  0  0  0  0
  -13.3670    6.3940   -8.6250 C   0  0  0  0  0  0  0  0  0  0  0  0
  -14.4010    7.1100   -8.0150 C   0  0  0  0  0  0  0  0  0  0  0  0
  -14.9280    8.2240   -8.6750 C   0  0  0  0  0  0  0  0  0  0  0  0
   -7.8286   17.0655  -12.8105 H   0  0  0  0  0  0  0  0  0  0  0  0
   -6.8272   19.2287  -13.6085 H   0  0  0  0  0  0  0  0  0  0  0  0
  -10.6991   21.0370  -13.9079 H   0  0  0  0  0  0  0  0  0  0  0  0
  -11.7318   18.9000  -13.0794 H   0  0  0  0  0  0  0  0  0  0  0  0
   -9.1504   15.2052  -13.0378 H   0  0  0  0  0  0  0  0  0  0  0  0
   -8.6978   15.9224  -11.5013 H   0  0  0  0  0  0  0  0  0  0  0  0
  -11.1109   15.1425  -10.6538 H   0  0  0  0  0  0  0  0  0  0  0  0
   -9.9002   13.8517  -10.8894 H   0  0  0  0  0  0  0  0  0  0  0  0
  -10.7672   13.4083  -13.1477 H   0  0  0  0  0  0  0  0  0  0  0  0
  -11.9186   14.7763  -12.9987 H   0  0  0  0  0  0  0  0  0  0  0  0
  -11.4990   11.1437  -12.0203 H   0  0  0  0  0  0  0  0  0  0  0  0
  -10.9491   12.0588  -10.5581 H   0  0  0  0  0  0  0  0  0  0  0  0
  -13.2936   11.7577   -9.6221 H   0  0  0  0  0  0  0  0  0  0  0  0
  -12.3744   10.2619   -9.7503 H   0  0  0  0  0  0  0  0  0  0  0  0
  -12.8671   12.1662  -13.5726 H   0  0  0  0  0  0  0  0  0  0  0  0
  -13.8859   13.5982  -13.0764 H   0  0  0  0  0  0  0  0  0  0  0  0
  -15.1286   12.3065  -11.5003 H   0  0  0  0  0  0  0  0  0  0  0  0
  -15.0278   11.3068  -13.0217 H   0  0  0  0  0  0  0  0  0  0  0  0
  -13.3638    9.8530  -12.0542 H   0  0  0  0  0  0  0  0  0  0  0  0
  -16.3975   10.2200  -12.0878 H   0  0  0  0  0  0  0  0  0  0  0  0
  -15.0924    7.4496  -12.5513 H   0  0  0  0  0  0  0  0  0  0  0  0
  -14.8992    8.8496  -13.5794 H   0  0  0  0  0  0  0  0  0  0  0  0
  -17.2415    8.8042  -14.2313 H   0  0  0  0  0  0  0  0  0  0  0  0
  -16.7936    7.1084  -14.2468 H   0  0  0  0  0  0  0  0  0  0  0  0
  -18.8258    8.2630  -12.5876 H   0  0  0  0  0  0  0  0  0  0  0  0
  -18.0940    6.6756  -12.2772 H   0  0  0  0  0  0  0  0  0  0  0  0
  -17.9274    8.8893  -10.5854 H   0  0  0  0  0  0  0  0  0  0  0  0
  -16.8273    7.5227  -10.5131 H   0  0  0  0  0  0  0  0  0  0  0  0
  -15.5081   10.2734   -8.8628 H   0  0  0  0  0  0  0  0  0  0  0  0
  -12.1501    6.1708  -10.3842 H   0  0  0  0  0  0  0  0  0  0  0  0
  -12.9021    5.5429   -8.1058 H   0  0  0  0  0  0  0  0  0  0  0  0
  -14.7927    6.8027   -7.0341 H   0  0  0  0  0  0  0  0  0  0  0  0
  -15.7025    8.8334   -8.1864 H   0  0  0  0  0  0  0  0  0  0  0  0
  5  4  3  0
  4  3  1  0
  3  6  2  0
  3  2  1  0
  6  7  1  0
 22 21  1  0
 22 23  1  0
  2  1  2  0
  7  8  2  0
  1  8  1  0
 21 20  1  0
  8  9  1  0
 16 17  1  0
 16 13  1  0
 12 13  1  0
 12 11  1  0
  9 10  1  0
 23 24  1  0
 17 18  1  0
 10 11  1  0
 13 14  1  0
 20 24  1  0
 20 19  1  0
 18 19  1  0
 18 15  1  0
 14 15  1  0
 19 26  1  0
 19 25  1  0
 27 26  2  0
 27 28  1  0
 26 31  1  0
 28 29  2  0
 31 30  2  0
 29 30  1  0
  1 32  1  0
  2 33  1  0
  6 34  1  0
  7 35  1  0
 10 36  1  0
 10 37  1  0
 11 38  1  0
 11 39  1  0
 12 40  1  0
 12 41  1  0
 14 42  1  0
 14 43  1  0
 15 44  1  0
 15 45  1  0
 16 46  1  0
 16 47  1  0
 17 48  1  0
 17 49  1  0
 18 50  1  0
 20 51  1  0
 21 52  1  0
 21 53  1  0
 22 54  1  0
 22 55  1  0
 23 56  1  0
 23 57  1  0
 24 58  1  0
 24 59  1  0
 25 60  1  0
 28 61  1  0
 29 62  1  0
 30 63  1  0
 31 64  1  0
A    1
CAJ
A    2
CAH
A    3
CAY
A    4
CAC
A    5
NAA
A    6
CAI
A    7
CAK
A    8
CAZ
A    9
OAX
A   10
CAO
A   11
CAN
A   12
CAT
A   13
NBD
A   14
CAV
A   15
CAS
A   16
CAU
A   17
CAR
A   18
CBC
A   19
CBE
A   20
CBB
A   21
CAP
A   22
CAL
A   23
CAM
A   24
CAQ
A   25
OAB
A   26
CBA
A   27
NAW
A   28
CAF
A   29
CAD
A   30
CAE
A   31
CAG
M  END
