4OG6_2S9_A_602
     RDKit          3D

 65 68  0  0  0  0  0  0  0  0999 V2000
  -17.1830    8.9290  -11.2810 C   0  0  0  0  0  0  0  0  0  0  0  0
  -17.8400    8.1740  -12.2630 C   0  0  0  0  0  0  0  0  0  0  0  0
  -19.2020    7.9050  -12.2150 F   0  0  0  0  0  0  0  0  0  0  0  0
  -17.1360    7.6610  -13.3370 C   0  0  0  0  0  0  0  0  0  0  0  0
  -15.7800    7.9020  -13.4280 C   0  0  0  0  0  0  0  0  0  0  0  0
  -15.1160    8.6550  -12.4510 C   0  0  0  0  0  0  0  0  0  0  0  0
  -15.8070    9.1820  -11.3590 C   0  0  0  0  0  0  0  0  0  0  0  0
  -15.1520    9.9490  -10.3550 C   0  0  0  0  0  0  0  0  0  0  0  0
  -14.4510    9.0200   -9.2960 C   0  0  0  0  0  0  0  0  0  0  0  0
  -13.4000    7.9810   -9.7610 C   0  0  0  0  0  0  0  0  0  0  0  0
  -13.2310    6.9850   -8.5620 C   0  0  0  0  0  0  0  0  0  0  0  0
  -14.4930    7.1380   -7.7650 C   0  0  0  0  0  0  0  0  0  0  0  0
  -15.4150    8.0860   -8.5660 C   0  0  0  0  0  0  0  0  0  0  0  0
  -16.1300   10.7430   -9.6850 O   0  0  0  0  0  0  0  0  0  0  0  0
  -14.0800   10.9160  -10.9530 C   0  0  0  0  0  0  0  0  0  0  0  0
  -14.7170   12.0530  -11.7510 C   0  0  0  0  0  0  0  0  0  0  0  0
  -13.6260   12.9070  -12.4170 C   0  0  0  0  0  0  0  0  0  0  0  0
  -13.1600   11.5650   -9.9180 C   0  0  0  0  0  0  0  0  0  0  0  0
  -12.1010   12.4340  -10.6240 C   0  0  0  0  0  0  0  0  0  0  0  0
  -12.6880   13.5110  -11.4490 N   0  0  0  0  0  0  0  0  0  0  0  0
  -11.6230   14.2160  -12.1900 C   0  0  0  0  0  0  0  0  0  0  0  0
  -10.5330   14.7730  -11.2620 C   0  0  0  0  0  0  0  0  0  0  0  0
   -9.6950   15.8330  -11.9980 C   0  0  0  0  0  0  0  0  0  0  0  0
  -10.5610   16.8770  -12.4530 O   0  0  0  0  0  0  0  0  0  0  0  0
   -9.9400   17.9950  -12.9140 C   0  0  0  0  0  0  0  0  0  0  0  0
  -10.7230   19.0780  -13.2950 C   0  0  0  0  0  0  0  0  0  0  0  0
  -10.1300   20.2390  -13.7720 C   0  0  0  0  0  0  0  0  0  0  0  0
   -8.7480   20.3190  -13.8710 C   0  0  0  0  0  0  0  0  0  0  0  0
   -8.1490   21.5230  -14.3650 C   0  0  0  0  0  0  0  0  0  0  0  0
   -7.6840   22.4880  -14.7610 N   0  0  0  0  0  0  0  0  0  0  0  0
   -7.9600   19.2360  -13.4910 C   0  0  0  0  0  0  0  0  0  0  0  0
   -8.5550   18.0710  -13.0120 C   0  0  0  0  0  0  0  0  0  0  0  0
  -17.7584    9.3301  -10.4337 H   0  0  0  0  0  0  0  0  0  0  0  0
  -17.6498    7.0688  -14.1085 H   0  0  0  0  0  0  0  0  0  0  0  0
  -15.2130    7.4973  -14.2793 H   0  0  0  0  0  0  0  0  0  0  0  0
  -14.0347    8.8334  -12.5459 H   0  0  0  0  0  0  0  0  0  0  0  0
  -13.9848    9.8299   -8.7158 H   0  0  0  0  0  0  0  0  0  0  0  0
  -13.7563    7.4484  -10.6551 H   0  0  0  0  0  0  0  0  0  0  0  0
  -12.4466    8.4594  -10.0297 H   0  0  0  0  0  0  0  0  0  0  0  0
  -13.1241    5.9526   -8.9264 H   0  0  0  0  0  0  0  0  0  0  0  0
  -12.3315    7.1976   -7.9655 H   0  0  0  0  0  0  0  0  0  0  0  0
  -14.2682    7.5718   -6.7794 H   0  0  0  0  0  0  0  0  0  0  0  0
  -14.9762    6.1637   -7.6001 H   0  0  0  0  0  0  0  0  0  0  0  0
  -16.0717    8.6539   -7.8906 H   0  0  0  0  0  0  0  0  0  0  0  0
  -16.0790    7.5440   -9.2554 H   0  0  0  0  0  0  0  0  0  0  0  0
  -16.0159   10.6504   -8.7060 H   0  0  0  0  0  0  0  0  0  0  0  0
  -13.4791   10.2572  -11.5971 H   0  0  0  0  0  0  0  0  0  0  0  0
  -15.3106   12.6847  -11.0738 H   0  0  0  0  0  0  0  0  0  0  0  0
  -15.3659   11.6265  -12.5301 H   0  0  0  0  0  0  0  0  0  0  0  0
  -13.0541   12.2682  -13.1061 H   0  0  0  0  0  0  0  0  0  0  0  0
  -14.1310   13.7318  -12.9411 H   0  0  0  0  0  0  0  0  0  0  0  0
  -13.7581   12.1958   -9.2439 H   0  0  0  0  0  0  0  0  0  0  0  0
  -12.6537   10.7771   -9.3410 H   0  0  0  0  0  0  0  0  0  0  0  0
  -11.4943   11.7866  -11.2742 H   0  0  0  0  0  0  0  0  0  0  0  0
  -11.4969   12.9146   -9.8403 H   0  0  0  0  0  0  0  0  0  0  0  0
  -11.1592   13.5121  -12.8967 H   0  0  0  0  0  0  0  0  0  0  0  0
  -12.0851   15.0666  -12.7124 H   0  0  0  0  0  0  0  0  0  0  0  0
  -11.0060   15.2318  -10.3813 H   0  0  0  0  0  0  0  0  0  0  0  0
   -9.8739   13.9495  -10.9499 H   0  0  0  0  0  0  0  0  0  0  0  0
   -9.1898   15.3712  -12.8591 H   0  0  0  0  0  0  0  0  0  0  0  0
   -8.9384   16.2482  -11.3160 H   0  0  0  0  0  0  0  0  0  0  0  0
  -11.8185   19.0150  -13.2182 H   0  0  0  0  0  0  0  0  0  0  0  0
  -10.7543   21.0939  -14.0709 H   0  0  0  0  0  0  0  0  0  0  0  0
   -6.8647   19.3004  -13.5692 H   0  0  0  0  0  0  0  0  0  0  0  0
   -7.9321   17.2152  -12.7127 H   0  0  0  0  0  0  0  0  0  0  0  0
 30 29  3  0
 29 28  1  0
 28 27  1  0
 28 31  2  0
 27 26  2  0
 31 32  1  0
  5  4  2  0
  5  6  1  0
  4  2  1  0
 26 25  1  0
 32 25  2  0
 25 24  1  0
 24 23  1  0
  6  7  2  0
 17 16  1  0
 17 20  1  0
  2  3  1  0
  2  1  2  0
 21 20  1  0
 21 22  1  0
 23 22  1  0
 16 15  1  0
 20 19  1  0
  7  1  1  0
  7  8  1  0
 15  8  1  0
 15 18  1  0
 19 18  1  0
  8 14  1  0
  8  9  1  0
 10  9  1  0
 10 11  1  0
  9 13  1  0
 13 12  1  0
 11 12  1  0
  1 33  1  0
  4 34  1  0
  5 35  1  0
  6 36  1  0
  9 37  1  0
 10 38  1  0
 10 39  1  0
 11 40  1  0
 11 41  1  0
 12 42  1  0
 12 43  1  0
 13 44  1  0
 13 45  1  0
 14 46  1  0
 15 47  1  0
 16 48  1  0
 16 49  1  0
 17 50  1  0
 17 51  1  0
 18 52  1  0
 18 53  1  0
 19 54  1  0
 19 55  1  0
 21 56  1  0
 21 57  1  0
 22 58  1  0
 22 59  1  0
 23 60  1  0
 23 61  1  0
 26 62  1  0
 27 63  1  0
 31 64  1  0
 32 65  1  0
A    1
CAL
A    2
CAY
A    3
FAC
A    4
CAF
A    5
CAE
A    6
CAI
A    7
CBB
A    8
CBF
A    9
CBC
A   10
CAQ
A   11
CAM
A   12
CAN
A   13
CAR
A   14
OAB
A   15
CBD
A   16
CAT
A   17
CAW
A   18
CAS
A   19
CAV
A   20
NBE
A   21
CAU
A   22
CAO
A   23
CAP
A   24
OAX
A   25
CBA
A   26
CAJ
A   27
CAG
A   28
CAZ
A   29
CAD
A   30
NAA
A   31
CAH
A   32
CAK
M  END
