4OGB_2SR_A_501
     RDKit          3D

 54 57  0  0  0  0  0  0  0  0999 V2000
  -19.3270    4.6640   28.1860 C   0  0  0  0  0  0  0  0  0  0  0  0
  -20.6480    4.3420   28.7830 C   0  0  0  0  0  0  0  0  0  0  0  0
  -21.6410    3.9710   27.7520 C   0  0  0  0  0  0  0  0  0  0  0  0
  -21.1330    2.8910   26.8010 C   0  0  0  0  0  0  0  0  0  0  0  0
  -19.7980    3.1780   26.2410 O   0  0  0  0  0  0  0  0  0  0  0  0
  -18.8160    3.5550   27.2780 C   0  0  0  0  0  0  0  0  0  0  0  0
  -21.1310    5.6260   29.5340 C   0  0  0  0  0  0  0  0  0  0  0  0
  -22.5210    6.2020   31.6030 C   0  0  0  0  0  0  0  0  0  0  0  0
  -23.1420    7.2850   30.8620 C   0  0  0  0  0  0  0  0  0  0  0  0
  -22.9950    7.3570   29.5190 C   0  0  0  0  0  0  0  0  0  0  0  0
  -22.1730    6.3130   28.7370 O   0  0  0  0  0  0  0  0  0  0  0  0
  -21.5360    5.3530   30.9510 C   0  0  0  0  0  0  0  0  0  0  0  0
  -22.8870    5.9640   32.9350 O   0  0  0  0  0  0  0  0  0  0  0  0
  -23.9560    8.3090   31.5800 C   0  0  0  0  0  0  0  0  0  0  0  0
  -24.5690    9.3590   30.8540 C   0  0  0  0  0  0  0  0  0  0  0  0
  -24.4080    9.4360   29.4400 C   0  0  0  0  0  0  0  0  0  0  0  0
  -23.6460    8.4720   28.7550 C   0  0  0  0  0  0  0  0  0  0  0  0
  -25.4200   10.4380   31.5540 C   0  0  0  0  0  0  0  0  0  0  0  0
  -23.5100    8.6170   27.2230 C   0  0  0  0  0  0  0  0  0  0  0  0
  -22.2540    8.5290   26.5930 C   0  0  0  0  0  0  0  0  0  0  0  0
  -22.1600    8.6790   25.2200 C   0  0  0  0  0  0  0  0  0  0  0  0
  -23.3080    8.9300   24.4640 C   0  0  0  0  0  0  0  0  0  0  0  0
  -24.5440    9.0270   25.0890 C   0  0  0  0  0  0  0  0  0  0  0  0
  -24.6390    8.8760   26.4660 C   0  0  0  0  0  0  0  0  0  0  0  0
  -20.8940    8.5770   24.5970 O   0  0  0  0  0  0  0  0  0  0  0  0
  -23.2410    9.0880   23.0810 O   0  0  0  0  0  0  0  0  0  0  0  0
  -20.0490    7.5880   25.1380 C   0  0  0  0  0  0  0  0  0  0  0  0
  -24.0410   10.1570   22.5720 C   0  0  0  0  0  0  0  0  0  0  0  0
  -18.6008    4.8192   28.9975 H   0  0  0  0  0  0  0  0  0  0  0  0
  -19.4469    5.5703   27.5743 H   0  0  0  0  0  0  0  0  0  0  0  0
  -20.5487    3.4810   29.4603 H   0  0  0  0  0  0  0  0  0  0  0  0
  -21.8893    4.8675   27.1649 H   0  0  0  0  0  0  0  0  0  0  0  0
  -22.5217    3.5660   28.2719 H   0  0  0  0  0  0  0  0  0  0  0  0
  -21.8463    2.7966   25.9690 H   0  0  0  0  0  0  0  0  0  0  0  0
  -21.0457    1.9624   27.3842 H   0  0  0  0  0  0  0  0  0  0  0  0
  -18.5937    2.6700   27.8923 H   0  0  0  0  0  0  0  0  0  0  0  0
  -17.9160    3.9281   26.7674 H   0  0  0  0  0  0  0  0  0  0  0  0
  -20.2797    6.3163   29.6274 H   0  0  0  0  0  0  0  0  0  0  0  0
  -21.0882    4.5103   31.4982 H   0  0  0  0  0  0  0  0  0  0  0  0
  -22.3332    6.3241   33.6724 H   0  0  0  0  0  0  0  0  0  0  0  0
  -24.0797    8.2483   32.6713 H   0  0  0  0  0  0  0  0  0  0  0  0
  -24.8830   10.2551   28.8802 H   0  0  0  0  0  0  0  0  0  0  0  0
  -25.3308   10.3249   32.6445 H   0  0  0  0  0  0  0  0  0  0  0  0
  -25.0629   11.4355   31.2584 H   0  0  0  0  0  0  0  0  0  0  0  0
  -26.4733   10.3231   31.2584 H   0  0  0  0  0  0  0  0  0  0  0  0
  -21.3495    8.3415   27.1903 H   0  0  0  0  0  0  0  0  0  0  0  0
  -25.4477    9.2234   24.4934 H   0  0  0  0  0  0  0  0  0  0  0  0
  -25.6187    8.9629   26.9586 H   0  0  0  0  0  0  0  0  0  0  0  0
  -20.0878    7.6334   26.2364 H   0  0  0  0  0  0  0  0  0  0  0  0
  -20.3826    6.5958   24.8000 H   0  0  0  0  0  0  0  0  0  0  0  0
  -19.0169    7.7626   24.8000 H   0  0  0  0  0  0  0  0  0  0  0  0
  -24.4676   10.7271   23.4105 H   0  0  0  0  0  0  0  0  0  0  0  0
  -23.4165   10.8216   21.9569 H   0  0  0  0  0  0  0  0  0  0  0  0
  -24.8547    9.7453   21.9569 H   0  0  0  0  0  0  0  0  0  0  0  0
 28 26  1  0
 26 22  1  0
 22 23  2  0
 22 21  1  0
 25 27  1  0
 25 21  1  0
 23 24  1  0
 21 20  2  0
  5  4  1  0
  5  6  1  0
 24 19  2  0
 20 19  1  0
  4  3  1  0
 19 17  1  0
  6  1  1  0
  3  2  1  0
  1  2  1  0
 11 10  1  0
 11  7  1  0
 17 16  1  0
 17 10  2  0
  2  7  1  0
 16 15  2  0
 10  9  1  0
  7 12  1  0
 15 18  1  0
 15 14  1  0
  9 14  2  0
  9  8  1  0
 12  8  2  0
  8 13  1  0
  1 29  1  0
  1 30  1  0
  2 31  1  0
  3 32  1  0
  3 33  1  0
  4 34  1  0
  4 35  1  0
  6 36  1  0
  6 37  1  0
  7 38  1  0
 12 39  1  0
 13 40  1  0
 14 41  1  0
 16 42  1  0
 18 43  1  0
 18 44  1  0
 18 45  1  0
 20 46  1  0
 23 47  1  0
 24 48  1  0
 27 49  1  0
 27 50  1  0
 27 51  1  0
 28 52  1  0
 28 53  1  0
 28 54  1  0
A    1
C01
A    2
C02
A    3
C03
A    4
C04
A    5
O05
A    6
C06
A    7
C07
A    8
C08
A    9
C09
A   10
C10
A   11
O11
A   12
C12
A   13
O13
A   14
C14
A   15
C15
A   16
C16
A   17
C17
A   18
C18
A   19
C19
A   20
C20
A   21
C21
A   22
C22
A   23
C23
A   24
C24
A   25
O25
A   26
O26
A   27
C27
A   28
C28
M  END
