2AX6_HFT_A_1
     RDKit          3D

 31 31  0  0  0  0  0  0  0  0999 V2000
   23.7050    2.4100    4.2940 F   0  0  0  0  0  0  0  0  0  0  0  0
   23.8630    3.7240    4.4200 C   0  0  0  0  0  0  0  0  0  0  0  0
   23.4930    4.0350    5.6590 F   0  0  0  0  0  0  0  0  0  0  0  0
   23.0170    4.2710    3.5520 F   0  0  0  0  0  0  0  0  0  0  0  0
   25.3210    4.1520    4.1660 C   0  0  0  0  0  0  0  0  0  0  0  0
   26.3200    3.1750    4.1560 C   0  0  0  0  0  0  0  0  0  0  0  0
   25.6930    5.4710    3.8920 C   0  0  0  0  0  0  0  0  0  0  0  0
   24.8750    6.5160    4.0200 N   0  0  0  0  0  0  0  0  0  0  0  0
   25.3250    7.8050    3.6280 O   0  0  0  0  0  0  0  0  0  0  0  0
   23.5390    6.4050    4.4870 O   0  0  0  0  0  0  0  0  0  0  0  0
   27.0210    5.7700    3.5990 C   0  0  0  0  0  0  0  0  0  0  0  0
   27.9990    4.7820    3.5890 C   0  0  0  0  0  0  0  0  0  0  0  0
   27.6520    3.4670    3.8750 C   0  0  0  0  0  0  0  0  0  0  0  0
   28.6290    2.5590    3.8920 N   0  0  0  0  0  0  0  0  0  0  0  0
   28.5070    1.2640    4.1760 C   0  0  0  0  0  0  0  0  0  0  0  0
   27.4530    0.7050    4.4780 O   0  0  0  0  0  0  0  0  0  0  0  0
   29.8200    0.4790    4.1130 C   0  0  0  0  0  0  0  0  0  0  0  0
   30.1840    0.0020    5.5200 C   0  0  0  0  0  0  0  0  0  0  0  0
   29.6390   -0.7210    3.1810 C   0  0  0  0  0  0  0  0  0  0  0  0
   30.8470    1.3380    3.6120 O   0  0  0  0  0  0  0  0  0  0  0  0
   26.0431    2.1340    4.3790 H   0  0  0  0  0  0  0  0  0  0  0  0
   27.3019    6.8088    3.3709 H   0  0  0  0  0  0  0  0  0  0  0  0
   29.0426    5.0399    3.3558 H   0  0  0  0  0  0  0  0  0  0  0  0
   29.5753    2.8943    3.6617 H   0  0  0  0  0  0  0  0  0  0  0  0
   29.6925    0.6460    6.2641 H   0  0  0  0  0  0  0  0  0  0  0  0
   29.8466   -1.0364    5.6539 H   0  0  0  0  0  0  0  0  0  0  0  0
   31.2746    0.0533    5.6539 H   0  0  0  0  0  0  0  0  0  0  0  0
   29.5014   -1.6332    3.7802 H   0  0  0  0  0  0  0  0  0  0  0  0
   28.7546   -0.5623    2.5464 H   0  0  0  0  0  0  0  0  0  0  0  0
   30.5308   -0.8302    2.5464 H   0  0  0  0  0  0  0  0  0  0  0  0
   31.3350    1.7462    4.3705 H   0  0  0  0  0  0  0  0  0  0  0  0
  1  2  1  0
  2  3  1  0
  2  4  1  0
  2  5  1  0
  5  6  2  0
  5  7  1  0
  6 13  1  0
  7  8  1  0
  7 11  2  0
  8  9  1  0
  8 10  2  0
 11 12  1  0
 12 13  2  0
 13 14  1  0
 14 15  1  0
 15 16  2  0
 15 17  1  0
 17 18  1  0
 17 19  1  0
 17 20  1  0
  6 21  1  0
 11 22  1  0
 12 23  1  0
 14 24  1  0
 18 25  1  0
 18 26  1  0
 18 27  1  0
 19 28  1  0
 19 29  1  0
 19 30  1  0
 20 31  1  0
M  CHG  2   8   1   9  -1
A    1
F1
A    2
C7
A    3
F2
A    4
F3
A    5
C3
A    6
C2
A    7
C4
A    8
N1
A    9
O2
A   10
O1
A   11
C5
A   12
C6
A   13
C1
A   14
N9
A   15
C10
A   16
O10
A   17
C11
A   18
C12
A   19
C13
A   20
O11
M  END
