4OHO_2TG_A_701
     RDKit          3D

 52 54  0  0  0  0  0  0  0  0999 V2000
   44.6010  -20.8990  -15.5290 C   0  0  0  0  0  0  0  0  0  0  0  0
   45.2760  -19.7130  -15.7530 C   0  0  0  0  0  0  0  0  0  0  0  0
   45.0620  -18.6700  -14.8840 C   0  0  0  0  0  0  0  0  0  0  0  0
   45.7030  -17.5230  -15.0590 N   0  0  0  0  0  0  0  0  0  0  0  0
   44.2250  -18.8150  -13.8280 N   0  0  0  0  0  0  0  0  0  0  0  0
   43.5680  -19.9270  -13.5860 C   0  0  0  0  0  0  0  0  0  0  0  0
   43.7330  -20.9970  -14.4420 C   0  0  0  0  0  0  0  0  0  0  0  0
   42.8310  -22.4490  -14.1510 S   0  0  0  0  0  0  0  0  0  0  0  0
   42.4910  -22.5300  -12.7160 O   0  0  0  0  0  0  0  0  0  0  0  0
   43.6780  -23.5980  -14.5690 O   0  0  0  0  0  0  0  0  0  0  0  0
   41.4470  -22.3850  -14.9290 N   0  0  0  0  0  0  0  0  0  0  0  0
   40.8640  -21.0630  -14.7090 C   0  0  0  0  0  0  0  0  0  0  0  0
   39.4890  -20.9720  -15.4040 C   0  0  0  0  0  0  0  0  0  0  0  0
   38.5500  -21.8820  -14.6810 C   0  0  0  0  0  0  0  0  0  0  0  0
   37.7580  -22.6840  -14.2190 C   0  0  0  0  0  0  0  0  0  0  0  0
   36.9090  -23.7100  -13.6130 C   0  0  0  0  0  0  0  0  0  0  0  0
   41.7080  -22.6040  -16.3310 C   0  0  0  0  0  0  0  0  0  0  0  0
   40.3800  -22.6630  -17.0680 C   0  0  0  0  0  0  0  0  0  0  0  0
   39.5450  -21.4960  -16.7650 N   0  0  0  0  0  0  0  0  0  0  0  0
   38.5700  -21.1010  -17.6490 C   0  0  0  0  0  0  0  0  0  0  0  0
   38.5490  -21.5070  -18.9720 C   0  0  0  0  0  0  0  0  0  0  0  0
   37.5490  -21.0810  -19.8370 C   0  0  0  0  0  0  0  0  0  0  0  0
   37.5400  -20.3150  -17.1900 C   0  0  0  0  0  0  0  0  0  0  0  0
   36.5350  -19.9060  -18.0540 C   0  0  0  0  0  0  0  0  0  0  0  0
   36.5310  -20.2740  -19.3690 C   0  0  0  0  0  0  0  0  0  0  0  0
   35.2470  -19.7270  -20.3750 S   0  0  0  0  0  0  0  0  0  0  0  0
   35.2100  -20.6820  -21.9290 C   0  0  0  0  0  0  0  0  0  0  0  0
   34.0030  -20.7000  -22.6340 F   0  0  0  0  0  0  0  0  0  0  0  0
   35.5250  -21.9830  -21.7170 F   0  0  0  0  0  0  0  0  0  0  0  0
   36.2150  -20.0000  -22.5170 F   0  0  0  0  0  0  0  0  0  0  0  0
   33.9700  -20.0350  -19.6770 O   0  0  0  0  0  0  0  0  0  0  0  0
   35.2930  -18.1450  -20.6580 N   0  0  0  0  0  0  0  0  0  0  0  0
   44.7474  -21.7568  -16.2018 H   0  0  0  0  0  0  0  0  0  0  0  0
   45.9654  -19.6073  -16.6036 H   0  0  0  0  0  0  0  0  0  0  0  0
   46.0095  -16.9746  -14.2428 H   0  0  0  0  0  0  0  0  0  0  0  0
   45.8946  -17.1802  -16.0112 H   0  0  0  0  0  0  0  0  0  0  0  0
   42.8984  -20.0037  -12.7166 H   0  0  0  0  0  0  0  0  0  0  0  0
   40.7385  -20.8950  -13.6292 H   0  0  0  0  0  0  0  0  0  0  0  0
   41.5332  -20.2979  -15.1295 H   0  0  0  0  0  0  0  0  0  0  0  0
   39.1798  -19.9164  -15.4057 H   0  0  0  0  0  0  0  0  0  0  0  0
   36.9701  -23.6362  -12.5172 H   0  0  0  0  0  0  0  0  0  0  0  0
   35.8674  -23.5600  -13.9331 H   0  0  0  0  0  0  0  0  0  0  0  0
   37.2513  -24.7052  -13.9331 H   0  0  0  0  0  0  0  0  0  0  0  0
   42.3159  -21.7778  -16.7283 H   0  0  0  0  0  0  0  0  0  0  0  0
   42.2562  -23.5477  -16.4683 H   0  0  0  0  0  0  0  0  0  0  0  0
   40.5730  -22.6931  -18.1505 H   0  0  0  0  0  0  0  0  0  0  0  0
   39.8434  -23.5657  -16.7407 H   0  0  0  0  0  0  0  0  0  0  0  0
   39.3370  -22.1780  -19.3446 H   0  0  0  0  0  0  0  0  0  0  0  0
   37.5681  -21.3862  -20.8936 H   0  0  0  0  0  0  0  0  0  0  0  0
   37.5127  -20.0093  -16.1337 H   0  0  0  0  0  0  0  0  0  0  0  0
   35.7227  -19.2707  -17.6712 H   0  0  0  0  0  0  0  0  0  0  0  0
   34.5723  -17.7064  -21.2489 H   0  0  0  0  0  0  0  0  0  0  0  0
  1  2  2  0
  1  7  1  0
  2  3  1  0
  3  4  1  0
  3  5  2  0
  5  6  1  0
  6  7  2  0
  7  8  1  0
  8  9  2  0
  8 10  2  0
  8 11  1  0
 11 12  1  0
 11 17  1  0
 12 13  1  0
 13 14  1  0
 13 19  1  0
 14 15  3  0
 15 16  1  0
 17 18  1  0
 18 19  1  0
 19 20  1  0
 20 21  2  0
 20 23  1  0
 21 22  1  0
 22 25  2  0
 23 24  2  0
 24 25  1  0
 25 26  1  0
 26 27  1  0
 26 31  2  0
 26 32  2  3
 27 28  1  0
 27 29  1  0
 27 30  1  0
  1 33  1  0
  2 34  1  0
  4 35  1  0
  4 36  1  0
  6 37  1  0
 12 38  1  0
 12 39  1  0
 13 40  1  0
 16 41  1  0
 16 42  1  0
 16 43  1  0
 17 44  1  0
 17 45  1  0
 18 46  1  0
 18 47  1  0
 21 48  1  0
 22 49  1  0
 23 50  1  0
 24 51  1  0
 32 52  1  0
A    1
C19
A    2
C18
A    3
C17
A    4
N4
A    5
N3
A    6
C16
A    7
C15
A    8
S2
A    9
O2
A   10
O3
A   11
N2
A   12
C3
A   13
C2
A   14
C5
A   15
C6
A   16
C7
A   17
C4
A   18
C1
A   19
N1
A   20
C8
A   21
C13
A   22
C12
A   23
C9
A   24
C10
A   25
C11
A   26
S1
A   27
C14
A   28
F2
A   29
F3
A   30
F1
A   31
O1
A   32
N5
M  END
