4OHU_2TK_A_301
     RDKit          3D

 42 43  0  0  0  0  0  0  0  0999 V2000
    4.7620   19.3850   46.2790 C   0  0  0  0  0  0  0  0  0  0  0  0
    5.4270   20.5790   46.5730 C   0  0  0  0  0  0  0  0  0  0  0  0
    6.4220   20.5990   47.5580 C   0  0  0  0  0  0  0  0  0  0  0  0
    6.7380   19.4300   48.2550 C   0  0  0  0  0  0  0  0  0  0  0  0
    6.0770   18.2240   47.9740 C   0  0  0  0  0  0  0  0  0  0  0  0
    5.0950   18.2200   46.9800 C   0  0  0  0  0  0  0  0  0  0  0  0
    4.3090   16.9370   46.7330 C   0  0  0  0  0  0  0  0  0  0  0  0
    4.5790   16.1300   45.4780 C   0  0  0  0  0  0  0  0  0  0  0  0
    6.0020   16.0050   44.9710 C   0  0  0  0  0  0  0  0  0  0  0  0
    6.3220   14.7050   44.2380 C   0  0  0  0  0  0  0  0  0  0  0  0
    6.8760   14.8250   42.8280 C   0  0  0  0  0  0  0  0  0  0  0  0
    5.8870   14.5850   41.6890 C   0  0  0  0  0  0  0  0  0  0  0  0
    7.7330   19.5020   49.2140 O   0  0  0  0  0  0  0  0  0  0  0  0
    7.0610   21.8120   47.8670 O   0  0  0  0  0  0  0  0  0  0  0  0
    8.3280   21.9450   47.2730 C   0  0  0  0  0  0  0  0  0  0  0  0
    9.0820   23.0790   47.5540 C   0  0  0  0  0  0  0  0  0  0  0  0
   10.3490   23.2810   47.0130 C   0  0  0  0  0  0  0  0  0  0  0  0
   10.8700   22.3160   46.1460 C   0  0  0  0  0  0  0  0  0  0  0  0
   10.1220   21.1750   45.8420 C   0  0  0  0  0  0  0  0  0  0  0  0
    8.8570   20.9880   46.4130 C   0  0  0  0  0  0  0  0  0  0  0  0
    8.3250   24.3820   48.7350 Br  0  0  0  0  0  0  0  0  0  0  0  0
    3.9830   19.3611   45.5027 H   0  0  0  0  0  0  0  0  0  0  0  0
    5.1691   21.5011   46.0315 H   0  0  0  0  0  0  0  0  0  0  0  0
    6.3261   17.3040   48.5232 H   0  0  0  0  0  0  0  0  0  0  0  0
    3.2441   17.2119   46.7146 H   0  0  0  0  0  0  0  0  0  0  0  0
    4.6359   16.2714   47.5455 H   0  0  0  0  0  0  0  0  0  0  0  0
    3.9887   16.5860   44.6695 H   0  0  0  0  0  0  0  0  0  0  0  0
    4.3125   15.1022   45.7655 H   0  0  0  0  0  0  0  0  0  0  0  0
    6.6785   16.0834   45.8348 H   0  0  0  0  0  0  0  0  0  0  0  0
    6.1336   16.8102   44.2332 H   0  0  0  0  0  0  0  0  0  0  0  0
    5.3926   14.1194   44.1804 H   0  0  0  0  0  0  0  0  0  0  0  0
    7.1289   14.2392   44.8227 H   0  0  0  0  0  0  0  0  0  0  0  0
    7.6903   14.0927   42.7245 H   0  0  0  0  0  0  0  0  0  0  0  0
    7.1920   15.8736   42.7256 H   0  0  0  0  0  0  0  0  0  0  0  0
    4.8980   14.3450   42.1066 H   0  0  0  0  0  0  0  0  0  0  0  0
    5.8136   15.4914   41.0701 H   0  0  0  0  0  0  0  0  0  0  0  0
    6.2372   13.7458   41.0701 H   0  0  0  0  0  0  0  0  0  0  0  0
    7.4963   19.4849   50.1751 H   0  0  0  0  0  0  0  0  0  0  0  0
   10.9285   24.1820   47.2628 H   0  0  0  0  0  0  0  0  0  0  0  0
   11.8675   22.4545   45.7035 H   0  0  0  0  0  0  0  0  0  0  0  0
   10.5285   20.4212   45.1517 H   0  0  0  0  0  0  0  0  0  0  0  0
    8.2795   20.0811   46.1806 H   0  0  0  0  0  0  0  0  0  0  0  0
 12 11  1  0
 11 10  1  0
 10  9  1  0
  9  8  1  0
  8  7  1  0
 19 18  2  0
 19 20  1  0
 18 17  1  0
  1  2  2  0
  1  6  1  0
 20 15  2  0
  2  3  1  0
  7  6  1  0
  6  5  2  0
 17 16  2  0
 15 16  1  0
 15 14  1  0
 16 21  1  0
  3 14  1  0
  3  4  2  0
  5  4  1  0
  4 13  1  0
  1 22  1  0
  2 23  1  0
  5 24  1  0
  7 25  1  0
  7 26  1  0
  8 27  1  0
  8 28  1  0
  9 29  1  0
  9 30  1  0
 10 31  1  0
 10 32  1  0
 11 33  1  0
 11 34  1  0
 12 35  1  0
 12 36  1  0
 12 37  1  0
 13 38  1  0
 17 39  1  0
 18 40  1  0
 19 41  1  0
 20 42  1  0
A    1
C01
A    2
C02
A    3
C03
A    4
C04
A    5
C05
A    6
C06
A    7
C07
A    8
C08
A    9
C09
A   10
C10
A   11
C11
A   12
C12
A   13
O13
A   14
O14
A   15
C15
A   16
C16
A   17
C17
A   18
C18
A   19
C19
A   20
C20
A   21
BR1
M  END
