4OIR_RFV_C_1201
     RDKit          3D

 99102  0  0  0  0  0  0  0  0999 V2000
   11.6260  -12.0850   75.3660 C   0  0  0  0  0  0  0  0  0  0  0  0
   10.9890  -10.9970   75.9990 C   0  0  0  0  0  0  0  0  0  0  0  0
   10.6550   -9.8450   75.2840 C   0  0  0  0  0  0  0  0  0  0  0  0
   10.9620   -9.7560   73.9010 C   0  0  0  0  0  0  0  0  0  0  0  0
   11.9760  -10.8150   71.8290 C   0  0  0  0  0  0  0  0  0  0  0  0
   12.5760  -11.8910   71.1810 C   0  0  0  0  0  0  0  0  0  0  0  0
   12.9140  -13.0800   71.9320 C   0  0  0  0  0  0  0  0  0  0  0  0
   12.6050  -13.1420   73.2890 C   0  0  0  0  0  0  0  0  0  0  0  0
   11.9430  -12.0130   73.9550 C   0  0  0  0  0  0  0  0  0  0  0  0
   11.6160  -10.8830   73.2390 C   0  0  0  0  0  0  0  0  0  0  0  0
   11.6550   -9.8530   70.7670 C   0  0  0  0  0  0  0  0  0  0  0  0
   12.2840  -10.1980   69.5680 C   0  0  0  0  0  0  0  0  0  0  0  0
   11.2840  -10.2980   68.4820 C   0  0  0  0  0  0  0  0  0  0  0  0
   13.5940  -14.2280   71.2310 C   0  0  0  0  0  0  0  0  0  0  0  0
   11.5720  -11.4820   78.4680 C   0  0  0  0  0  0  0  0  0  0  0  0
   11.1170  -11.4700   79.9300 C   0  0  0  0  0  0  0  0  0  0  0  0
   12.2380  -11.5210   80.9830 C   0  0  0  0  0  0  0  0  0  0  0  0
   13.5270  -10.7190   80.7620 C   0  0  0  0  0  0  0  0  0  0  0  0
   13.4930   -9.3210   80.7900 C   0  0  0  0  0  0  0  0  0  0  0  0
   14.7740   -8.5060   80.6540 C   0  0  0  0  0  0  0  0  0  0  0  0
   15.4680   -8.7540   79.2920 C   0  0  0  0  0  0  0  0  0  0  0  0
   16.4700   -7.6480   78.8560 C   0  0  0  0  0  0  0  0  0  0  0  0
   16.9610   -7.8150   77.3880 C   0  0  0  0  0  0  0  0  0  0  0  0
   15.8660   -7.9530   76.2960 C   0  0  0  0  0  0  0  0  0  0  0  0
   16.3720   -8.0300   74.8300 C   0  0  0  0  0  0  0  0  0  0  0  0
   15.2630   -8.3270   73.7890 C   0  0  0  0  0  0  0  0  0  0  0  0
   15.7050   -8.3920   72.3220 C   0  0  0  0  0  0  0  0  0  0  0  0
   14.5050   -8.4110   71.3440 C   0  0  0  0  0  0  0  0  0  0  0  0
   14.4910   -9.1490   70.1420 C   0  0  0  0  0  0  0  0  0  0  0  0
   10.1520  -12.5880   80.2290 C   0  0  0  0  0  0  0  0  0  0  0  0
   14.3930   -7.0730   80.9070 C   0  0  0  0  0  0  0  0  0  0  0  0
   17.6550   -7.5720   79.8040 C   0  0  0  0  0  0  0  0  0  0  0  0
   14.9520   -6.7690   76.3540 C   0  0  0  0  0  0  0  0  0  0  0  0
   14.6540   -9.6540   74.1120 C   0  0  0  0  0  0  0  0  0  0  0  0
   18.4020   -6.8790   74.3430 C   0  0  0  0  0  0  0  0  0  0  0  0
   19.1430   -5.5800   74.4370 C   0  0  0  0  0  0  0  0  0  0  0  0
   17.8710   -9.3080   71.8140 C   0  0  0  0  0  0  0  0  0  0  0  0
   10.6390  -11.0300   77.4290 N   0  0  0  0  0  0  0  0  0  0  0  0
   11.9550  -13.2230   76.0750 O   0  0  0  0  0  0  0  0  0  0  0  0
   12.9230  -14.2640   74.0130 O   0  0  0  0  0  0  0  0  0  0  0  0
   12.7710  -11.5810   69.8220 O   0  0  0  0  0  0  0  0  0  0  0  0
   11.1850   -8.5640   71.0330 O   0  0  0  0  0  0  0  0  0  0  0  0
   13.3090   -9.2620   69.3350 O   0  0  0  0  0  0  0  0  0  0  0  0
   16.5290   -9.4850   72.1450 O   0  0  0  0  0  0  0  0  0  0  0  0
   17.0390   -6.8790   74.5130 O   0  0  0  0  0  0  0  0  0  0  0  0
   19.0250   -7.9180   74.4850 O   0  0  0  0  0  0  0  0  0  0  0  0
   17.8420   -8.8660   77.3130 O   0  0  0  0  0  0  0  0  0  0  0  0
   16.0990   -9.9850   79.3070 O   0  0  0  0  0  0  0  0  0  0  0  0
   12.6920  -11.8650   78.1680 O   0  0  0  0  0  0  0  0  0  0  0  0
   10.6250   -8.6090   73.2130 O   0  0  0  0  0  0  0  0  0  0  0  0
   10.1545   -9.0074   75.7919 H   0  0  0  0  0  0  0  0  0  0  0  0
   10.5719   -9.9191   70.5865 H   0  0  0  0  0  0  0  0  0  0  0  0
   10.2788  -10.3985   68.9173 H   0  0  0  0  0  0  0  0  0  0  0  0
   11.3255   -9.3912   67.8607 H   0  0  0  0  0  0  0  0  0  0  0  0
   11.5043  -11.1786   67.8607 H   0  0  0  0  0  0  0  0  0  0  0  0
   14.0052  -14.9223   71.9786 H   0  0  0  0  0  0  0  0  0  0  0  0
   12.8638  -14.7575   70.6014 H   0  0  0  0  0  0  0  0  0  0  0  0
   14.4093  -13.8420   70.6014 H   0  0  0  0  0  0  0  0  0  0  0  0
   12.1155  -12.1302   81.8907 H   0  0  0  0  0  0  0  0  0  0  0  0
   14.4772  -11.2430   80.5817 H   0  0  0  0  0  0  0  0  0  0  0  0
   12.5301   -8.8033   80.9116 H   0  0  0  0  0  0  0  0  0  0  0  0
   15.5352   -8.8101   81.3876 H   0  0  0  0  0  0  0  0  0  0  0  0
   14.6646   -8.7314   78.5410 H   0  0  0  0  0  0  0  0  0  0  0  0
   15.9140   -6.7000   78.9035 H   0  0  0  0  0  0  0  0  0  0  0  0
   17.4473   -6.8572   77.1508 H   0  0  0  0  0  0  0  0  0  0  0  0
   15.3803   -8.9120   76.5293 H   0  0  0  0  0  0  0  0  0  0  0  0
   17.0540   -8.8916   74.7800 H   0  0  0  0  0  0  0  0  0  0  0  0
   14.5734   -7.4737   73.8687 H   0  0  0  0  0  0  0  0  0  0  0  0
   16.2659   -7.4758   72.0855 H   0  0  0  0  0  0  0  0  0  0  0  0
   13.6154   -7.8170   71.6003 H   0  0  0  0  0  0  0  0  0  0  0  0
   15.4122   -9.6524   69.8135 H   0  0  0  0  0  0  0  0  0  0  0  0
   10.0516  -12.7043   81.3182 H   0  0  0  0  0  0  0  0  0  0  0  0
    9.1700  -12.3511   79.7935 H   0  0  0  0  0  0  0  0  0  0  0  0
   10.5298  -13.5248   79.7935 H   0  0  0  0  0  0  0  0  0  0  0  0
   14.3449   -6.8923   81.9910 H   0  0  0  0  0  0  0  0  0  0  0  0
   15.1457   -6.4086   80.4575 H   0  0  0  0  0  0  0  0  0  0  0  0
   13.4097   -6.8702   80.4575 H   0  0  0  0  0  0  0  0  0  0  0  0
   17.2952   -7.5951   80.8432 H   0  0  0  0  0  0  0  0  0  0  0  0
   18.3213   -8.4293   79.6275 H   0  0  0  0  0  0  0  0  0  0  0  0
   18.2063   -6.6366   79.6275 H   0  0  0  0  0  0  0  0  0  0  0  0
   14.7527   -6.5108   77.4045 H   0  0  0  0  0  0  0  0  0  0  0  0
   15.4268   -5.9142   75.8501 H   0  0  0  0  0  0  0  0  0  0  0  0
   14.0049   -7.0119   75.8501 H   0  0  0  0  0  0  0  0  0  0  0  0
   14.5981   -9.7758   75.2038 H   0  0  0  0  0  0  0  0  0  0  0  0
   13.6417   -9.7066   73.6849 H   0  0  0  0  0  0  0  0  0  0  0  0
   15.2742  -10.4558   73.6849 H   0  0  0  0  0  0  0  0  0  0  0  0
   19.2921   -5.3187   75.4951 H   0  0  0  0  0  0  0  0  0  0  0  0
   20.1206   -5.6789   73.9425 H   0  0  0  0  0  0  0  0  0  0  0  0
   18.5603   -4.7889   73.9425 H   0  0  0  0  0  0  0  0  0  0  0  0
   18.4683   -9.2292   72.7343 H   0  0  0  0  0  0  0  0  0  0  0  0
   18.2194  -10.1680   71.2232 H   0  0  0  0  0  0  0  0  0  0  0  0
   17.9846   -8.3871   71.2232 H   0  0  0  0  0  0  0  0  0  0  0  0
    9.6979  -10.7223   77.7126 H   0  0  0  0  0  0  0  0  0  0  0  0
   11.9507  -13.2080   77.0649 H   0  0  0  0  0  0  0  0  0  0  0  0
   12.9144  -14.2335   75.0025 H   0  0  0  0  0  0  0  0  0  0  0  0
   11.1349   -8.4265   72.0121 H   0  0  0  0  0  0  0  0  0  0  0  0
   18.0864   -9.1576   78.2270 H   0  0  0  0  0  0  0  0  0  0  0  0
   16.2449  -10.2696   80.2439 H   0  0  0  0  0  0  0  0  0  0  0  0
   10.3835   -7.7871   73.7092 H   0  0  0  0  0  0  0  0  0  0  0  0
 13 12  1  0
 43 12  1  0
 43 29  1  0
 12 41  1  0
 12 11  1  0
 41  6  1  0
 29 28  2  0
 11 42  1  0
 11  5  1  0
  6  5  2  0
  6  7  1  0
 14  7  1  0
 28 27  1  0
 37 44  1  0
  5 10  1  0
  7  8  2  0
 44 27  1  0
 27 26  1  0
 50  4  1  0
 10  4  2  0
 10  9  1  0
  8  9  1  0
  8 40  1  0
 26 34  1  0
 26 25  1  0
  4  3  1  0
  9  1  2  0
 35 36  1  0
 35 46  2  0
 35 45  1  0
 45 25  1  0
 25 24  1  0
  3  2  2  0
  1  2  1  0
  1 39  1  0
  2 38  1  0
 24 33  1  0
 24 23  1  0
 47 23  1  0
 23 22  1  0
 38 15  1  0
 49 15  2  0
 15 16  1  0
 22 21  1  0
 22 32  1  0
 21 48  1  0
 21 20  1  0
 16 30  1  0
 16 17  2  0
 20 19  1  0
 20 31  1  0
 18 19  2  0
 18 17  1  0
  3 51  1  0
 11 52  1  0
 13 53  1  0
 13 54  1  0
 13 55  1  0
 14 56  1  0
 14 57  1  0
 14 58  1  0
 17 59  1  0
 18 60  1  0
 19 61  1  0
 20 62  1  0
 21 63  1  0
 22 64  1  0
 23 65  1  0
 24 66  1  0
 25 67  1  0
 26 68  1  0
 27 69  1  0
 28 70  1  0
 29 71  1  0
 30 72  1  0
 30 73  1  0
 30 74  1  0
 31 75  1  0
 31 76  1  0
 31 77  1  0
 32 78  1  0
 32 79  1  0
 32 80  1  0
 33 81  1  0
 33 82  1  0
 33 83  1  0
 34 84  1  0
 34 85  1  0
 34 86  1  0
 36 87  1  0
 36 88  1  0
 36 89  1  0
 37 90  1  0
 37 91  1  0
 37 92  1  0
 38 93  1  0
 39 94  1  0
 40 95  1  0
 42 96  1  0
 47 97  1  0
 48 98  1  0
 50 99  1  0
A    1
C1
A    2
C2
A    3
C3
A    4
C4
A    5
C5
A    6
C6
A    7
C7
A    8
C8
A    9
C9
A   10
C10
A   11
C11
A   12
C12
A   13
C13
A   14
C14
A   15
C15
A   16
C16
A   17
C17
A   18
C18
A   19
C19
A   20
C20
A   21
C21
A   22
C22
A   23
C23
A   24
C24
A   25
C25
A   26
C26
A   27
C27
A   28
C28
A   29
C29
A   30
C30
A   31
C31
A   32
C32
A   33
C33
A   34
C34
A   35
C35
A   36
C36
A   37
C37
A   38
N1
A   39
O1
A   40
O2
A   41
O3
A   42
O4
A   43
O5
A   44
O6
A   45
O7
A   46
O8
A   47
O9
A   48
O10
A   49
O11
A   50
O12
M  END
