4OJR_2SQ_A_301
     RDKit          3D

 61 64  0  0  0  0  0  0  0  0999 V2000
  -44.3650  -15.5030   12.8130 C   0  0  0  0  0  0  0  0  0  0  0  0
  -43.5520  -15.1080   14.0530 C   0  0  0  0  0  0  0  0  0  0  0  0
  -42.0740  -14.8510   13.9620 C   0  0  0  0  0  0  0  0  0  0  0  0
  -41.4330  -15.0140   12.6110 C   0  0  0  0  0  0  0  0  0  0  0  0
  -39.9210  -14.9480   12.7330 C   0  0  0  0  0  0  0  0  0  0  0  0
  -39.5340  -13.8900   13.7330 C   0  0  0  0  0  0  0  0  0  0  0  0
  -40.0380  -14.2480   15.0370 O   0  0  0  0  0  0  0  0  0  0  0  0
  -41.3770  -14.5100   15.0410 C   0  0  0  0  0  0  0  0  0  0  0  0
  -41.9950  -14.3730   16.2810 C   0  0  0  0  0  0  0  0  0  0  0  0
  -41.3240  -14.0020   17.4410 F   0  0  0  0  0  0  0  0  0  0  0  0
  -43.4340  -14.5760   16.5950 C   0  0  0  0  0  0  0  0  0  0  0  0
  -44.2690  -14.9660   15.4000 C   0  0  0  0  0  0  0  0  0  0  0  0
  -45.7340  -15.1820   15.6200 C   0  0  0  0  0  0  0  0  0  0  0  0
  -46.6180  -14.1790   15.5100 C   0  0  0  0  0  0  0  0  0  0  0  0
  -46.1400  -12.7780   15.1350 C   0  0  0  0  0  0  0  0  0  0  0  0
  -46.6380  -11.7950   16.0530 O   0  0  0  0  0  0  0  0  0  0  0  0
  -45.9900  -11.4760   17.3250 C   0  0  0  0  0  0  0  0  0  0  0  0
  -44.4980  -11.2530   17.1950 C   0  0  0  0  0  0  0  0  0  0  0  0
  -46.2920  -12.6090   18.2780 C   0  0  0  0  0  0  0  0  0  0  0  0
  -46.6740  -10.2030   17.7690 C   0  0  0  0  0  0  0  0  0  0  0  0
  -46.5810  -12.3870   13.7370 C   0  0  0  0  0  0  0  0  0  0  0  0
  -46.7850  -13.3550   12.8840 O   0  0  0  0  0  0  0  0  0  0  0  0
  -46.7340  -11.1940   13.4570 O   0  0  0  0  0  0  0  0  0  0  0  0
  -48.0120  -14.4120   15.7420 N   0  0  0  0  0  0  0  0  0  0  0  0
  -48.9960  -13.3290   15.6160 C   0  0  0  0  0  0  0  0  0  0  0  0
  -48.5010  -15.6750   16.0860 C   0  0  0  0  0  0  0  0  0  0  0  0
  -49.6930  -15.8400   16.2640 O   0  0  0  0  0  0  0  0  0  0  0  0
  -47.5130  -16.7700   16.2040 C   0  0  0  0  0  0  0  0  0  0  0  0
  -47.9400  -18.0530   16.5430 C   0  0  0  0  0  0  0  0  0  0  0  0
  -47.0250  -19.0860   16.6610 C   0  0  0  0  0  0  0  0  0  0  0  0
  -45.6850  -18.8600   16.4380 C   0  0  0  0  0  0  0  0  0  0  0  0
  -45.2400  -17.5940   16.0980 C   0  0  0  0  0  0  0  0  0  0  0  0
  -46.1470  -16.5350   15.9840 C   0  0  0  0  0  0  0  0  0  0  0  0
  -45.3131  -15.9636   13.1276 H   0  0  0  0  0  0  0  0  0  0  0  0
  -44.5749  -14.6064   12.2112 H   0  0  0  0  0  0  0  0  0  0  0  0
  -43.7899  -16.2221   12.2112 H   0  0  0  0  0  0  0  0  0  0  0  0
  -41.7788  -14.2089   11.9459 H   0  0  0  0  0  0  0  0  0  0  0  0
  -41.7159  -15.9930   12.1968 H   0  0  0  0  0  0  0  0  0  0  0  0
  -39.5390  -15.9237   13.0678 H   0  0  0  0  0  0  0  0  0  0  0  0
  -39.4888  -14.6963   11.7533 H   0  0  0  0  0  0  0  0  0  0  0  0
  -38.4378  -13.8087   13.7740 H   0  0  0  0  0  0  0  0  0  0  0  0
  -39.9640  -12.9246   13.4279 H   0  0  0  0  0  0  0  0  0  0  0  0
  -43.8515  -14.4532   17.6053 H   0  0  0  0  0  0  0  0  0  0  0  0
  -45.0412  -12.8076   15.1764 H   0  0  0  0  0  0  0  0  0  0  0  0
  -44.0486  -11.1858   18.1968 H   0  0  0  0  0  0  0  0  0  0  0  0
  -44.0480  -12.0939   16.6469 H   0  0  0  0  0  0  0  0  0  0  0  0
  -44.3135  -10.3173   16.6469 H   0  0  0  0  0  0  0  0  0  0  0  0
  -46.1968  -12.2519   19.3141 H   0  0  0  0  0  0  0  0  0  0  0  0
  -47.3174  -12.9686   18.1069 H   0  0  0  0  0  0  0  0  0  0  0  0
  -45.5817  -13.4313   18.1069 H   0  0  0  0  0  0  0  0  0  0  0  0
  -46.6957  -10.1626   18.8680 H   0  0  0  0  0  0  0  0  0  0  0  0
  -46.1208   -9.3350   17.3810 H   0  0  0  0  0  0  0  0  0  0  0  0
  -47.7031  -10.1852   17.3810 H   0  0  0  0  0  0  0  0  0  0  0  0
  -46.8201  -10.5230   14.1798 H   0  0  0  0  0  0  0  0  0  0  0  0
  -49.3015  -12.9928   16.6178 H   0  0  0  0  0  0  0  0  0  0  0  0
  -48.5470  -12.4876   15.0679 H   0  0  0  0  0  0  0  0  0  0  0  0
  -49.8765  -13.6955   15.0679 H   0  0  0  0  0  0  0  0  0  0  0  0
  -49.0088  -18.2459   16.7176 H   0  0  0  0  0  0  0  0  0  0  0  0
  -47.3710  -20.0937   16.9347 H   0  0  0  0  0  0  0  0  0  0  0  0
  -44.9663  -19.6876   16.5303 H   0  0  0  0  0  0  0  0  0  0  0  0
  -44.1691  -17.4200   15.9168 H   0  0  0  0  0  0  0  0  0  0  0  0
  4  5  1  0
  4  3  1  0
  5  6  1  0
  1  2  1  0
 22 21  2  0
 23 21  1  0
  6  7  1  0
 21 15  1  0
  3  2  2  0
  3  8  1  0
  2 12  1  0
  7  8  1  0
  8  9  2  0
 15 14  1  0
 15 16  1  0
 12 13  1  0
 12 11  2  0
 14 13  2  0
 14 24  1  0
 25 24  1  0
 13 33  1  0
 24 26  1  0
 33 32  2  0
 33 28  1  0
 16 17  1  0
 26 28  1  0
 26 27  2  0
 32 31  1  0
 28 29  2  0
  9 11  1  0
  9 10  1  0
 31 30  2  0
 29 30  1  0
 18 17  1  0
 17 20  1  0
 17 19  1  0
  1 34  1  0
  1 35  1  0
  1 36  1  0
  4 37  1  0
  4 38  1  0
  5 39  1  0
  5 40  1  0
  6 41  1  0
  6 42  1  0
 11 43  1  0
 15 44  1  0
 18 45  1  0
 18 46  1  0
 18 47  1  0
 19 48  1  0
 19 49  1  0
 19 50  1  0
 20 51  1  0
 20 52  1  0
 20 53  1  0
 23 54  1  0
 25 55  1  0
 25 56  1  0
 25 57  1  0
 29 58  1  0
 30 59  1  0
 31 60  1  0
 32 61  1  0
A    1
C01
A    2
C05
A    3
C06
A    4
C07
A    5
C10
A    6
C13
A    7
O16
A    8
C17
A    9
C18
A   10
F19
A   11
C20
A   12
C22
A   13
C23
A   14
C24
A   15
C25
A   16
O27
A   17
C28
A   18
C29
A   19
C33
A   20
C37
A   21
C41
A   22
O42
A   23
O44
A   24
N45
A   25
C46
A   26
C50
A   27
O51
A   28
C52
A   29
C53
A   30
C55
A   31
C57
A   32
C59
A   33
C61
M  END
