4OK3_2SY_A_701
     RDKit          3D

 35 37  0  0  0  0  0  0  0  0999 V2000
  -21.6260  -28.6710   27.9160 Cl  0  0  0  0  0  0  0  0  0  0  0  0
  -20.2660  -29.7910   28.0040 C   0  0  0  0  0  0  0  0  0  0  0  0
  -20.1830  -30.7040   29.0490 C   0  0  0  0  0  0  0  0  0  0  0  0
  -19.2630  -29.7750   27.0380 C   0  0  0  0  0  0  0  0  0  0  0  0
  -18.2040  -30.6600   27.1160 C   0  0  0  0  0  0  0  0  0  0  0  0
  -18.1220  -31.5630   28.1630 C   0  0  0  0  0  0  0  0  0  0  0  0
  -19.1170  -31.5820   29.1350 C   0  0  0  0  0  0  0  0  0  0  0  0
  -19.0540  -32.5920   30.2540 C   0  0  0  0  0  0  0  0  0  0  0  0
  -18.9160  -32.1020   31.6380 N   0  0  0  0  0  0  0  0  0  0  0  0
  -18.0450  -31.1510   32.1240 C   0  0  0  0  0  0  0  0  0  0  0  0
  -18.2110  -31.0340   33.4570 C   0  0  0  0  0  0  0  0  0  0  0  0
  -17.5120  -30.0900   34.3950 C   0  0  0  0  0  0  0  0  0  0  0  0
  -16.7390  -30.8340   35.4540 C   0  0  0  0  0  0  0  0  0  0  0  0
  -15.9700  -31.7110   35.1210 O   0  0  0  0  0  0  0  0  0  0  0  0
  -16.8900  -30.5110   36.7580 O   0  0  0  0  0  0  0  0  0  0  0  0
  -19.2380  -32.0010   33.8550 C   0  0  0  0  0  0  0  0  0  0  0  0
  -19.6340  -32.6510   32.6810 C   0  0  0  0  0  0  0  0  0  0  0  0
  -19.8250  -32.3460   35.0770 C   0  0  0  0  0  0  0  0  0  0  0  0
  -20.7780  -33.3200   35.1190 C   0  0  0  0  0  0  0  0  0  0  0  0
  -21.1800  -33.9720   33.9530 C   0  0  0  0  0  0  0  0  0  0  0  0
  -20.6080  -33.6370   32.7430 C   0  0  0  0  0  0  0  0  0  0  0  0
  -20.9723  -30.7287   29.8148 H   0  0  0  0  0  0  0  0  0  0  0  0
  -19.3137  -29.0543   26.2085 H   0  0  0  0  0  0  0  0  0  0  0  0
  -17.4222  -30.6470   26.3423 H   0  0  0  0  0  0  0  0  0  0  0  0
  -17.2745  -32.2615   28.2256 H   0  0  0  0  0  0  0  0  0  0  0  0
  -19.9804  -33.1835   30.2099 H   0  0  0  0  0  0  0  0  0  0  0  0
  -18.1190  -33.1409   30.0685 H   0  0  0  0  0  0  0  0  0  0  0  0
  -17.3271  -30.5774   31.5194 H   0  0  0  0  0  0  0  0  0  0  0  0
  -16.8157  -29.4635   33.8182 H   0  0  0  0  0  0  0  0  0  0  0  0
  -18.2735  -29.4725   34.8938 H   0  0  0  0  0  0  0  0  0  0  0  0
  -16.5951  -31.1419   37.4616 H   0  0  0  0  0  0  0  0  0  0  0  0
  -19.5187  -31.8332   36.0007 H   0  0  0  0  0  0  0  0  0  0  0  0
  -21.2343  -33.5944   36.0815 H   0  0  0  0  0  0  0  0  0  0  0  0
  -21.9531  -34.7532   33.9984 H   0  0  0  0  0  0  0  0  0  0  0  0
  -20.9251  -34.1532   31.8248 H   0  0  0  0  0  0  0  0  0  0  0  0
  4  5  1  0
  4  2  2  0
  5  6  2  0
  1  2  1  0
  2  3  1  0
  6  7  1  0
  3  7  2  0
  7  8  1  0
  8  9  1  0
  9 10  1  0
  9 17  1  0
 10 11  2  0
 17 21  2  0
 17 16  1  0
 21 20  1  0
 11 16  1  0
 11 12  1  0
 16 18  2  0
 20 19  2  0
 12 13  1  0
 18 19  1  0
 14 13  2  0
 13 15  1  0
  3 22  1  0
  4 23  1  0
  5 24  1  0
  6 25  1  0
  8 26  1  0
  8 27  1  0
 10 28  1  0
 12 29  1  0
 12 30  1  0
 15 31  1  0
 18 32  1  0
 19 33  1  0
 20 34  1  0
 21 35  1  0
A    1
CL2
A    2
C16
A    3
C13
A    4
C20
A    5
C17
A    6
C14
A    7
C10
A    8
C6
A    9
N2
A   10
C5
A   11
C7
A   12
C11
A   13
C15
A   14
O19
A   15
O18
A   16
C3
A   17
C1
A   18
C8
A   19
C12
A   20
C9
A   21
C4
M  END
