4OK6_2T7_A_1003
     RDKit          3D

 41 43  0  0  0  0  0  0  0  0999 V2000
  -19.6760  -29.7790   26.4920 O   0  0  0  0  0  0  0  0  0  0  0  0
  -18.6300  -29.8240   27.1210 N   0  0  0  0  0  0  0  0  0  0  0  0
  -17.8400  -28.8790   27.0610 O   0  0  0  0  0  0  0  0  0  0  0  0
  -18.3370  -31.0240   27.9540 C   0  0  0  0  0  0  0  0  0  0  0  0
  -17.1650  -31.7470   27.7850 C   0  0  0  0  0  0  0  0  0  0  0  0
  -16.8980  -32.8570   28.5750 C   0  0  0  0  0  0  0  0  0  0  0  0
  -17.8240  -33.2260   29.5440 C   0  0  0  0  0  0  0  0  0  0  0  0
  -17.6010  -34.2990   30.3500 O   0  0  0  0  0  0  0  0  0  0  0  0
  -16.2320  -34.6410   30.5700 C   0  0  0  0  0  0  0  0  0  0  0  0
  -19.2480  -31.3990   28.9280 C   0  0  0  0  0  0  0  0  0  0  0  0
  -18.9860  -32.4960   29.7180 C   0  0  0  0  0  0  0  0  0  0  0  0
  -19.9560  -32.9460   30.7730 C   0  0  0  0  0  0  0  0  0  0  0  0
  -19.5060  -32.5230   32.1000 N   0  0  0  0  0  0  0  0  0  0  0  0
  -19.9320  -33.1150   33.2570 C   0  0  0  0  0  0  0  0  0  0  0  0
  -20.7820  -34.1790   33.5180 C   0  0  0  0  0  0  0  0  0  0  0  0
  -21.0110  -34.5630   34.8220 C   0  0  0  0  0  0  0  0  0  0  0  0
  -19.3090  -32.4410   34.3230 C   0  0  0  0  0  0  0  0  0  0  0  0
  -19.5500  -32.8450   35.6360 C   0  0  0  0  0  0  0  0  0  0  0  0
  -20.3890  -33.8970   35.8710 C   0  0  0  0  0  0  0  0  0  0  0  0
  -18.4800  -31.3950   33.7210 C   0  0  0  0  0  0  0  0  0  0  0  0
  -18.6470  -31.4870   32.3870 C   0  0  0  0  0  0  0  0  0  0  0  0
  -17.6360  -30.4040   34.4810 C   0  0  0  0  0  0  0  0  0  0  0  0
  -16.8320  -31.1060   35.5480 C   0  0  0  0  0  0  0  0  0  0  0  0
  -16.8630  -30.6270   36.8000 O   0  0  0  0  0  0  0  0  0  0  0  0
  -16.1850  -32.1010   35.2710 O   0  0  0  0  0  0  0  0  0  0  0  0
  -16.4402  -31.4377   27.0175 H   0  0  0  0  0  0  0  0  0  0  0  0
  -15.9714  -33.4335   28.4368 H   0  0  0  0  0  0  0  0  0  0  0  0
  -16.0355  -34.6901   31.6512 H   0  0  0  0  0  0  0  0  0  0  0  0
  -16.0207  -35.6195   30.1141 H   0  0  0  0  0  0  0  0  0  0  0  0
  -15.5853  -33.8768   30.1141 H   0  0  0  0  0  0  0  0  0  0  0  0
  -20.1750  -30.8239   29.0694 H   0  0  0  0  0  0  0  0  0  0  0  0
  -20.9429  -32.5054   30.5684 H   0  0  0  0  0  0  0  0  0  0  0  0
  -20.0182  -34.0441   30.7527 H   0  0  0  0  0  0  0  0  0  0  0  0
  -21.2705  -34.7133   32.6898 H   0  0  0  0  0  0  0  0  0  0  0  0
  -21.6904  -35.4019   35.0334 H   0  0  0  0  0  0  0  0  0  0  0  0
  -19.0687  -32.3211   36.4749 H   0  0  0  0  0  0  0  0  0  0  0  0
  -20.5749  -34.2216   36.9054 H   0  0  0  0  0  0  0  0  0  0  0  0
  -18.1697  -30.8339   31.6416 H   0  0  0  0  0  0  0  0  0  0  0  0
  -16.9506  -29.9012   33.7829 H   0  0  0  0  0  0  0  0  0  0  0  0
  -18.2966  -29.6662   34.9598 H   0  0  0  0  0  0  0  0  0  0  0  0
  -16.8227  -31.2490   37.5691 H   0  0  0  0  0  0  0  0  0  0  0  0
  1  2  2  0
  3  2  1  0
  2  4  1  0
  5  4  2  0
  5  6  1  0
  4 10  1  0
  6  7  2  0
 10 11  2  0
  7 11  1  0
  7  8  1  0
 11 12  1  0
  8  9  1  0
 12 13  1  0
 13 21  1  0
 13 14  1  0
 21 20  2  0
 14 15  2  0
 14 17  1  0
 15 16  1  0
 20 17  1  0
 20 22  1  0
 17 18  2  0
 22 23  1  0
 16 19  2  0
 25 23  2  0
 23 24  1  0
 18 19  1  0
  5 26  1  0
  6 27  1  0
  9 28  1  0
  9 29  1  0
  9 30  1  0
 10 31  1  0
 12 32  1  0
 12 33  1  0
 15 34  1  0
 16 35  1  0
 18 36  1  0
 19 37  1  0
 21 38  1  0
 22 39  1  0
 22 40  1  0
 24 41  1  0
M  CHG  2   2   1   3  -1
A    1
O25
A    2
N23
A    3
O24
A    4
C20
A    5
C21
A    6
C18
A    7
C16
A    8
O19
A    9
C22
A   10
C17
A   11
C15
A   12
C3
A   13
N2
A   14
C10
A   15
C5
A   16
C4
A   17
C9
A   18
C6
A   19
C1
A   20
C8
A   21
C7
A   22
C11
A   23
C12
A   24
O13
A   25
O14
M  END
