4OKG_2SZ_A_302
     RDKit          3D

 70 75  0  0  0  0  0  0  0  0999 V2000
   -5.1200    6.5220   30.9160 C   0  0  0  0  0  0  0  0  0  0  0  0
   -4.8000    7.8910   30.4870 N   0  0  0  0  0  0  0  0  0  0  0  0
   -4.7070    8.0160   29.0160 C   0  0  0  0  0  0  0  0  0  0  0  0
   -4.4910    9.4990   28.6570 C   0  0  0  0  0  0  0  0  0  0  0  0
   -3.3150   10.0450   29.3740 N   0  0  0  0  0  0  0  0  0  0  0  0
   -3.4230    9.8980   30.8470 C   0  0  0  0  0  0  0  0  0  0  0  0
   -3.6130    8.4130   31.2090 C   0  0  0  0  0  0  0  0  0  0  0  0
   -3.0170   11.4410   29.0010 C   0  0  0  0  0  0  0  0  0  0  0  0
   -1.9760   11.5180   27.8990 C   0  0  0  0  0  0  0  0  0  0  0  0
   -2.2950   11.1710   26.5820 C   0  0  0  0  0  0  0  0  0  0  0  0
   -1.3230   11.3220   25.5830 C   0  0  0  0  0  0  0  0  0  0  0  0
   -0.0570   11.8020   25.9250 C   0  0  0  0  0  0  0  0  0  0  0  0
    0.1870   12.1300   27.2670 C   0  0  0  0  0  0  0  0  0  0  0  0
   -0.7650   11.9700   28.1870 N   0  0  0  0  0  0  0  0  0  0  0  0
    0.9820   11.8940   24.9500 C   0  0  0  0  0  0  0  0  0  0  0  0
    1.8310   11.9700   24.1400 C   0  0  0  0  0  0  0  0  0  0  0  0
    2.8510   12.0590   23.1390 C   0  0  0  0  0  0  0  0  0  0  0  0
    4.1860   12.3100   23.5280 C   0  0  0  0  0  0  0  0  0  0  0  0
    5.1820   12.3950   22.5690 C   0  0  0  0  0  0  0  0  0  0  0  0
    4.8920   12.1190   21.2140 C   0  0  0  0  0  0  0  0  0  0  0  0
    3.5660   11.7980   20.8410 C   0  0  0  0  0  0  0  0  0  0  0  0
    2.5500   11.7600   21.7880 C   0  0  0  0  0  0  0  0  0  0  0  0
    5.9670   12.2090   20.1790 C   0  0  0  0  0  0  0  0  0  0  0  0
    5.7270   13.0360   19.0740 C   0  0  0  0  0  0  0  0  0  0  0  0
    6.7060   13.2020   18.0720 C   0  0  0  0  0  0  0  0  0  0  0  0
    7.8810   12.4430   18.1550 C   0  0  0  0  0  0  0  0  0  0  0  0
    8.1120   11.6930   19.2260 N   0  0  0  0  0  0  0  0  0  0  0  0
    7.2100   11.5080   20.2080 C   0  0  0  0  0  0  0  0  0  0  0  0
    7.5100   10.5200   21.1680 N   0  0  0  0  0  0  0  0  0  0  0  0
    6.7070    9.4660   21.4560 C   0  0  0  0  0  0  0  0  0  0  0  0
    7.2570    8.6820   22.3380 N   0  0  0  0  0  0  0  0  0  0  0  0
    8.4990    9.1540   22.6360 C   0  0  0  0  0  0  0  0  0  0  0  0
    8.6810   10.3390   21.8870 C   0  0  0  0  0  0  0  0  0  0  0  0
    9.8820   11.0420   21.9750 C   0  0  0  0  0  0  0  0  0  0  0  0
   10.8850   10.6020   22.8280 C   0  0  0  0  0  0  0  0  0  0  0  0
   10.7000    9.4440   23.5830 C   0  0  0  0  0  0  0  0  0  0  0  0
    9.5240    8.7130   23.4860 C   0  0  0  0  0  0  0  0  0  0  0  0
    6.3480   13.9050   16.8220 C   0  0  0  0  0  0  0  0  0  0  0  0
    5.2230   13.7190   16.3650 O   0  0  0  0  0  0  0  0  0  0  0  0
    7.2170   14.5950   16.0600 N   0  0  0  0  0  0  0  0  0  0  0  0
    6.7110   15.0860   14.8240 O   0  0  0  0  0  0  0  0  0  0  0  0
   -5.1309    6.4752   32.0150 H   0  0  0  0  0  0  0  0  0  0  0  0
   -6.1088    6.2376   30.5270 H   0  0  0  0  0  0  0  0  0  0  0  0
   -4.3597    5.8287   30.5270 H   0  0  0  0  0  0  0  0  0  0  0  0
   -5.6383    7.6556   28.5546 H   0  0  0  0  0  0  0  0  0  0  0  0
   -3.8656    7.4142   28.6419 H   0  0  0  0  0  0  0  0  0  0  0  0
   -4.3264    9.5879   27.5730 H   0  0  0  0  0  0  0  0  0  0  0  0
   -5.3833   10.0689   28.9553 H   0  0  0  0  0  0  0  0  0  0  0  0
   -2.5043   10.2749   31.3202 H   0  0  0  0  0  0  0  0  0  0  0  0
   -4.2879   10.4740   31.2077 H   0  0  0  0  0  0  0  0  0  0  0  0
   -3.7673    8.3140   32.2936 H   0  0  0  0  0  0  0  0  0  0  0  0
   -2.7190    7.8412   30.9195 H   0  0  0  0  0  0  0  0  0  0  0  0
   -2.6390   11.9735   29.8862 H   0  0  0  0  0  0  0  0  0  0  0  0
   -3.9441   11.9019   28.6295 H   0  0  0  0  0  0  0  0  0  0  0  0
   -3.2946   10.7850   26.3336 H   0  0  0  0  0  0  0  0  0  0  0  0
   -1.5555   11.0647   24.5391 H   0  0  0  0  0  0  0  0  0  0  0  0
    1.1713   12.5222   27.5627 H   0  0  0  0  0  0  0  0  0  0  0  0
    4.4343   12.4379   24.5920 H   0  0  0  0  0  0  0  0  0  0  0  0
    6.2031   12.6786   22.8637 H   0  0  0  0  0  0  0  0  0  0  0  0
    3.3363   11.5757   19.7885 H   0  0  0  0  0  0  0  0  0  0  0  0
    1.5230   11.5005   21.4915 H   0  0  0  0  0  0  0  0  0  0  0  0
    4.7647   13.5616   18.9867 H   0  0  0  0  0  0  0  0  0  0  0  0
    8.6117   12.4685   17.3332 H   0  0  0  0  0  0  0  0  0  0  0  0
    5.7191    9.2955   21.0032 H   0  0  0  0  0  0  0  0  0  0  0  0
   10.0349   11.9464   21.3678 H   0  0  0  0  0  0  0  0  0  0  0  0
   11.8256   11.1666   22.9084 H   0  0  0  0  0  0  0  0  0  0  0  0
   11.4955    9.1060   24.2634 H   0  0  0  0  0  0  0  0  0  0  0  0
    9.3964    7.7917   24.0733 H   0  0  0  0  0  0  0  0  0  0  0  0
    8.1906   14.7579   16.3542 H   0  0  0  0  0  0  0  0  0  0  0  0
    6.0118   15.7645   14.9998 H   0  0  0  0  0  0  0  0  0  0  0  0
 41 40  1  0
 40 38  1  0
 39 38  2  0
 38 25  1  0
 25 26  1  0
 25 24  2  0
 26 27  2  0
 24 23  1  0
 27 28  1  0
 23 28  2  0
 23 20  1  0
 28 29  1  0
 21 20  2  0
 21 22  1  0
 29 30  1  0
 29 33  1  0
 20 19  1  0
 30 31  2  0
 22 17  2  0
 33 34  2  0
 33 32  1  0
 34 35  1  0
 31 32  1  0
 19 18  2  0
 32 37  2  0
 35 36  2  0
 17 18  1  0
 17 16  1  0
 37 36  1  0
 16 15  3  0
 15 12  1  0
 11 12  1  0
 11 10  2  0
 12 13  2  0
 10  9  1  0
 13 14  1  0
  9 14  2  0
  9  8  1  0
  4  3  1  0
  4  5  1  0
  8  5  1  0
  3  2  1  0
  5  6  1  0
  2  1  1  0
  2  7  1  0
  6  7  1  0
  1 42  1  0
  1 43  1  0
  1 44  1  0
  3 45  1  0
  3 46  1  0
  4 47  1  0
  4 48  1  0
  6 49  1  0
  6 50  1  0
  7 51  1  0
  7 52  1  0
  8 53  1  0
  8 54  1  0
 10 55  1  0
 11 56  1  0
 13 57  1  0
 18 58  1  0
 19 59  1  0
 21 60  1  0
 22 61  1  0
 24 62  1  0
 26 63  1  0
 30 64  1  0
 34 65  1  0
 35 66  1  0
 36 67  1  0
 37 68  1  0
 40 69  1  0
 41 70  1  0
A    1
C1
A    2
N2
A    3
C3
A    4
C4
A    5
N5
A    6
C6
A    7
C7
A    8
C8
A    9
C9
A   10
C10
A   11
C11
A   12
C12
A   13
C13
A   14
N14
A   15
C15
A   16
C16
A   17
C17
A   18
C18
A   19
C19
A   20
C20
A   21
C21
A   22
C22
A   23
C23
A   24
C24
A   25
C25
A   26
C26
A   27
N27
A   28
C28
A   29
N29
A   30
C30
A   31
N31
A   32
C32
A   33
C33
A   34
C34
A   35
C35
A   36
C36
A   37
C37
A   38
C38
A   39
O39
A   40
N40
A   41
O41
M  END
