1KNY_KAN_A_558
     RDKit          3D

 69 71  0  0  0  0  0  0  0  0999 V2000
   33.0470   49.5190   31.7420 C   0  0  0  0  0  0  0  0  0  0  0  0
   34.2440   49.7000   30.8420 C   0  0  0  0  0  0  0  0  0  0  0  0
   35.0520   48.4270   30.7920 C   0  0  0  0  0  0  0  0  0  0  0  0
   35.4950   48.0300   32.1910 C   0  0  0  0  0  0  0  0  0  0  0  0
   34.3720   48.1210   33.2300 C   0  0  0  0  0  0  0  0  0  0  0  0
   35.0190   48.2950   34.5840 C   0  0  0  0  0  0  0  0  0  0  0  0
   28.0860   49.1550   30.9790 C   0  0  0  0  0  0  0  0  0  0  0  0
   28.7360   47.8010   31.2490 C   0  0  0  0  0  0  0  0  0  0  0  0
   30.0460   48.0080   31.9520 C   0  0  0  0  0  0  0  0  0  0  0  0
   30.9300   48.5770   30.8530 C   0  0  0  0  0  0  0  0  0  0  0  0
   30.4540   49.9840   30.4620 C   0  0  0  0  0  0  0  0  0  0  0  0
   28.9840   49.9480   30.0270 C   0  0  0  0  0  0  0  0  0  0  0  0
   27.6580   45.6970   31.2200 C   0  0  0  0  0  0  0  0  0  0  0  0
   26.2360   45.2230   31.4990 C   0  0  0  0  0  0  0  0  0  0  0  0
   26.0790   44.9800   32.9940 C   0  0  0  0  0  0  0  0  0  0  0  0
   27.1210   43.9780   33.4830 C   0  0  0  0  0  0  0  0  0  0  0  0
   28.4910   44.5100   33.0670 C   0  0  0  0  0  0  0  0  0  0  0  0
   29.6270   43.6320   33.4910 C   0  0  0  0  0  0  0  0  0  0  0  0
   36.5080   48.3810   34.4940 N   0  0  0  0  0  0  0  0  0  0  0  0
   31.2950   50.4950   29.3810 N   0  0  0  0  0  0  0  0  0  0  0  0
   26.7240   49.0260   30.4360 N   0  0  0  0  0  0  0  0  0  0  0  0
   24.7050   44.4920   33.3020 N   0  0  0  0  0  0  0  0  0  0  0  0
   33.5100   49.2730   33.0660 O   0  0  0  0  0  0  0  0  0  0  0  0
   33.8140   50.1090   29.5650 O   0  0  0  0  0  0  0  0  0  0  0  0
   36.1940   48.6160   29.9690 O   0  0  0  0  0  0  0  0  0  0  0  0
   36.0670   46.7300   32.2180 O   0  0  0  0  0  0  0  0  0  0  0  0
   32.3130   48.4260   31.2320 O   0  0  0  0  0  0  0  0  0  0  0  0
   30.5270   46.7530   32.4200 O   0  0  0  0  0  0  0  0  0  0  0  0
   27.8690   46.8880   31.9390 O   0  0  0  0  0  0  0  0  0  0  0  0
   28.5290   44.6810   31.6300 O   0  0  0  0  0  0  0  0  0  0  0  0
   25.2980   46.1910   31.0540 O   0  0  0  0  0  0  0  0  0  0  0  0
   27.0220   43.8870   34.9000 O   0  0  0  0  0  0  0  0  0  0  0  0
   30.8460   44.3130   33.2000 O   0  0  0  0  0  0  0  0  0  0  0  0
   32.4021   50.4096   31.7722 H   0  0  0  0  0  0  0  0  0  0  0  0
   34.9013   50.4858   31.2427 H   0  0  0  0  0  0  0  0  0  0  0  0
   34.4253   47.6258   30.3734 H   0  0  0  0  0  0  0  0  0  0  0  0
   36.2643   48.7661   32.4675 H   0  0  0  0  0  0  0  0  0  0  0  0
   33.7664   47.2097   33.1175 H   0  0  0  0  0  0  0  0  0  0  0  0
   34.6383   49.2199   35.0418 H   0  0  0  0  0  0  0  0  0  0  0  0
   34.7690   47.4133   35.1923 H   0  0  0  0  0  0  0  0  0  0  0  0
   27.9834   49.6908   31.9342 H   0  0  0  0  0  0  0  0  0  0  0  0
   28.9326   47.3137   30.2826 H   0  0  0  0  0  0  0  0  0  0  0  0
   29.9985   48.6667   32.8317 H   0  0  0  0  0  0  0  0  0  0  0  0
   30.8425   48.0141   29.9120 H   0  0  0  0  0  0  0  0  0  0  0  0
   30.5371   50.6519   31.3321 H   0  0  0  0  0  0  0  0  0  0  0  0
   28.9270   49.4875   29.0297 H   0  0  0  0  0  0  0  0  0  0  0  0
   28.6203   50.9861   30.0280 H   0  0  0  0  0  0  0  0  0  0  0  0
   27.8314   45.9027   30.1534 H   0  0  0  0  0  0  0  0  0  0  0  0
   26.0464   44.2867   30.9537 H   0  0  0  0  0  0  0  0  0  0  0  0
   26.2364   45.9333   33.5197 H   0  0  0  0  0  0  0  0  0  0  0  0
   26.9671   42.9767   33.0544 H   0  0  0  0  0  0  0  0  0  0  0  0
   28.6229   45.4728   33.5823 H   0  0  0  0  0  0  0  0  0  0  0  0
   29.5605   43.4315   34.5705 H   0  0  0  0  0  0  0  0  0  0  0  0
   29.5886   42.6730   32.9535 H   0  0  0  0  0  0  0  0  0  0  0  0
   36.9085   48.4041   35.4427 H   0  0  0  0  0  0  0  0  0  0  0  0
   36.8694   47.5595   33.9887 H   0  0  0  0  0  0  0  0  0  0  0  0
   32.1062   50.9879   29.7808 H   0  0  0  0  0  0  0  0  0  0  0  0
   31.6224   49.7099   28.8003 H   0  0  0  0  0  0  0  0  0  0  0  0
   26.0497   48.9621   31.2119 H   0  0  0  0  0  0  0  0  0  0  0  0
   26.5053   49.8500   29.8580 H   0  0  0  0  0  0  0  0  0  0  0  0
   24.5776   44.4467   34.3231 H   0  0  0  0  0  0  0  0  0  0  0  0
   24.0124   45.1385   32.8979 H   0  0  0  0  0  0  0  0  0  0  0  0
   33.0999   50.7882   29.6591 H   0  0  0  0  0  0  0  0  0  0  0  0
   36.9929   48.7482   30.5385 H   0  0  0  0  0  0  0  0  0  0  0  0
   36.1927   46.4442   33.1575 H   0  0  0  0  0  0  0  0  0  0  0  0
   30.5287   46.7486   33.4100 H   0  0  0  0  0  0  0  0  0  0  0  0
   24.8763   46.6262   31.8369 H   0  0  0  0  0  0  0  0  0  0  0  0
   27.6832   44.4947   35.3167 H   0  0  0  0  0  0  0  0  0  0  0  0
   31.2943   44.5634   34.0464 H   0  0  0  0  0  0  0  0  0  0  0  0
  1  2  1  0
  1 23  1  0
  1 27  1  0
  2  3  1  0
  2 24  1  0
  3  4  1  0
  3 25  1  0
  4  5  1  0
  4 26  1  0
  5  6  1  0
  5 23  1  0
  6 19  1  0
  7  8  1  0
  7 12  1  0
  7 21  1  0
  8  9  1  0
  8 29  1  0
  9 10  1  0
  9 28  1  0
 10 11  1  0
 10 27  1  0
 11 12  1  0
 11 20  1  0
 13 14  1  0
 13 29  1  0
 13 30  1  0
 14 15  1  0
 14 31  1  0
 15 16  1  0
 15 22  1  0
 16 17  1  0
 16 32  1  0
 17 18  1  0
 17 30  1  0
 18 33  1  0
  1 34  1  0
  2 35  1  0
  3 36  1  0
  4 37  1  0
  5 38  1  0
  6 39  1  0
  6 40  1  0
  7 41  1  0
  8 42  1  0
  9 43  1  0
 10 44  1  0
 11 45  1  0
 12 46  1  0
 12 47  1  0
 13 48  1  0
 14 49  1  0
 15 50  1  0
 16 51  1  0
 17 52  1  0
 18 53  1  0
 18 54  1  0
 19 55  1  0
 19 56  1  0
 20 57  1  0
 20 58  1  0
 21 59  1  0
 21 60  1  0
 22 61  1  0
 22 62  1  0
 24 63  1  0
 25 64  1  0
 26 65  1  0
 28 66  1  0
 31 67  1  0
 32 68  1  0
 33 69  1  0
A    1
C1
A    2
C2
A    3
C3
A    4
C4
A    5
C5
A    6
C6
A    7
C7
A    8
C8
A    9
C9
A   10
C10
A   11
C11
A   12
C12
A   13
C13
A   14
C14
A   15
C15
A   16
C16
A   17
C17
A   18
C18
A   19
N1
A   20
N2
A   21
N3
A   22
N4
A   23
O5
A   24
O6
A   25
O7
A   26
O8
A   27
O9
A   28
O10
A   29
O11
A   30
O12
A   31
O13
A   32
O14
A   33
O15
M  END
