4OMJ_2TX_A_310
     RDKit          3D

 81 81  0  0  0  0  0  0  0  0999 V2000
   84.6210    1.6060    7.0600 C   0  0  0  0  0  0  0  0  0  0  0  0
   86.0360    1.0960    7.3460 C   0  0  0  0  0  0  0  0  0  0  0  0
   86.8640    0.8360    6.1050 C   0  0  0  0  0  0  0  0  0  0  0  0
   86.1370    0.2500    8.5240 O   0  0  0  0  0  0  0  0  0  0  0  0
   86.8290    1.5580    8.5010 C   0  0  0  0  0  0  0  0  0  0  0  0
   88.3380    1.4940    8.2410 C   0  0  0  0  0  0  0  0  0  0  0  0
   89.0230    2.3660    9.2580 C   0  0  0  0  0  0  0  0  0  0  0  0
   90.5330    2.1650    9.4100 C   0  0  0  0  0  0  0  0  0  0  0  0
   91.1500    0.7920    9.6540 C   0  0  0  0  0  0  0  0  0  0  0  0
   91.4160    3.3900    9.5060 C   0  0  0  0  0  0  0  0  0  0  0  0
   92.8800    3.0970    9.7770 C   0  0  0  0  0  0  0  0  0  0  0  0
   93.4830    4.3570   10.3730 C   0  0  0  0  0  0  0  0  0  0  0  0
   93.6510    5.3660    9.2660 C   0  0  0  0  0  0  0  0  0  0  0  0
   94.5770    5.0710    8.1010 C   0  0  0  0  0  0  0  0  0  0  0  0
   92.9190    6.6680    9.3270 C   0  0  0  0  0  0  0  0  0  0  0  0
   93.1360    7.6040    8.1390 C   0  0  0  0  0  0  0  0  0  0  0  0
   91.7600    8.1720    7.9060 C   0  0  0  0  0  0  0  0  0  0  0  0
   91.6660    9.0880    6.6890 C   0  0  0  0  0  0  0  0  0  0  0  0
   91.2850   10.5090    7.0530 C   0  0  0  0  0  0  0  0  0  0  0  0
   91.0220   10.9060    8.5080 C   0  0  0  0  0  0  0  0  0  0  0  0
   91.0240   11.5140    5.9660 C   0  0  0  0  0  0  0  0  0  0  0  0
   89.5110   11.7490    5.9870 C   0  0  0  0  0  0  0  0  0  0  0  0
   89.0010   12.1160    4.6080 C   0  0  0  0  0  0  0  0  0  0  0  0
   87.9190   13.1850    4.5220 C   0  0  0  0  0  0  0  0  0  0  0  0
   87.3380   13.8380    5.7670 C   0  0  0  0  0  0  0  0  0  0  0  0
   87.3270   13.5310    3.1630 C   0  0  0  0  0  0  0  0  0  0  0  0
   86.2080   12.5050    2.9130 C   0  0  0  0  0  0  0  0  0  0  0  0
   84.9940   12.8540    3.7800 C   0  0  0  0  0  0  0  0  0  0  0  0
   84.3230   11.7030    4.5310 C   0  0  0  0  0  0  0  0  0  0  0  0
   84.8670   10.2750    4.4360 C   0  0  0  0  0  0  0  0  0  0  0  0
   83.1040   11.9890    5.4060 C   0  0  0  0  0  0  0  0  0  0  0  0
   84.0999    1.7938    8.0103 H   0  0  0  0  0  0  0  0  0  0  0  0
   84.6778    2.5402    6.4821 H   0  0  0  0  0  0  0  0  0  0  0  0
   84.0687    0.8504    6.4821 H   0  0  0  0  0  0  0  0  0  0  0  0
   87.8753    0.5184    6.3989 H   0  0  0  0  0  0  0  0  0  0  0  0
   86.3900    0.0435    5.5073 H   0  0  0  0  0  0  0  0  0  0  0  0
   86.9281    1.7572    5.5073 H   0  0  0  0  0  0  0  0  0  0  0  0
   86.8435    2.4352    9.1646 H   0  0  0  0  0  0  0  0  0  0  0  0
   88.5579    1.8598    7.2272 H   0  0  0  0  0  0  0  0  0  0  0  0
   88.6961    0.4572    8.3237 H   0  0  0  0  0  0  0  0  0  0  0  0
   88.5580    2.1710   10.2356 H   0  0  0  0  0  0  0  0  0  0  0  0
   88.8973    3.3970    8.8957 H   0  0  0  0  0  0  0  0  0  0  0  0
   91.2303    0.6132   10.7364 H   0  0  0  0  0  0  0  0  0  0  0  0
   90.5131    0.0180    9.2008 H   0  0  0  0  0  0  0  0  0  0  0  0
   92.1516    0.7543    9.2008 H   0  0  0  0  0  0  0  0  0  0  0  0
   91.0273    4.4123    9.3886 H   0  0  0  0  0  0  0  0  0  0  0  0
   93.3936    2.8398    8.8389 H   0  0  0  0  0  0  0  0  0  0  0  0
   92.9887    2.2464   10.4659 H   0  0  0  0  0  0  0  0  0  0  0  0
   94.4618    4.1267   10.8190 H   0  0  0  0  0  0  0  0  0  0  0  0
   92.8256    4.7591   11.1579 H   0  0  0  0  0  0  0  0  0  0  0  0
   95.5596    4.7580    8.4838 H   0  0  0  0  0  0  0  0  0  0  0  0
   94.1488    4.2648    7.4873 H   0  0  0  0  0  0  0  0  0  0  0  0
   94.6940    5.9763    7.4873 H   0  0  0  0  0  0  0  0  0  0  0  0
   92.2669    6.9347   10.1718 H   0  0  0  0  0  0  0  0  0  0  0  0
   93.8558    8.3981    8.3865 H   0  0  0  0  0  0  0  0  0  0  0  0
   93.5534    7.0977    7.2562 H   0  0  0  0  0  0  0  0  0  0  0  0
   91.0596    7.3356    7.7647 H   0  0  0  0  0  0  0  0  0  0  0  0
   91.5148    8.7848    8.7860 H   0  0  0  0  0  0  0  0  0  0  0  0
   91.8545    8.7529    5.6584 H   0  0  0  0  0  0  0  0  0  0  0  0
   91.5034   10.1794    9.1791 H   0  0  0  0  0  0  0  0  0  0  0  0
   91.4356   11.9080    8.6952 H   0  0  0  0  0  0  0  0  0  0  0  0
   89.9381   10.9159    8.6952 H   0  0  0  0  0  0  0  0  0  0  0  0
   91.5623   12.4512    6.1706 H   0  0  0  0  0  0  0  0  0  0  0  0
   91.3696   11.1558    4.9850 H   0  0  0  0  0  0  0  0  0  0  0  0
   89.0086   10.8303    6.3240 H   0  0  0  0  0  0  0  0  0  0  0  0
   89.2942   12.5800    6.6743 H   0  0  0  0  0  0  0  0  0  0  0  0
   89.3967   11.6295    3.7043 H   0  0  0  0  0  0  0  0  0  0  0  0
   87.7622   13.3613    6.6630 H   0  0  0  0  0  0  0  0  0  0  0  0
   87.5868   14.9095    5.7691 H   0  0  0  0  0  0  0  0  0  0  0  0
   86.2448   13.7155    5.7691 H   0  0  0  0  0  0  0  0  0  0  0  0
   86.9147   14.5508    3.1743 H   0  0  0  0  0  0  0  0  0  0  0  0
   88.0896   13.4958    2.3710 H   0  0  0  0  0  0  0  0  0  0  0  0
   85.9197   12.5278    1.8517 H   0  0  0  0  0  0  0  0  0  0  0  0
   86.5678   11.4985    3.1730 H   0  0  0  0  0  0  0  0  0  0  0  0
   84.6217   13.8861    3.8588 H   0  0  0  0  0  0  0  0  0  0  0  0
   85.0202    9.8729    5.4483 H   0  0  0  0  0  0  0  0  0  0  0  0
   84.1465    9.6433    3.8957 H   0  0  0  0  0  0  0  0  0  0  0  0
   85.8251   10.2828    3.8957 H   0  0  0  0  0  0  0  0  0  0  0  0
   83.3898   11.9220    6.4661 H   0  0  0  0  0  0  0  0  0  0  0  0
   82.7274   12.9999    5.1910 H   0  0  0  0  0  0  0  0  0  0  0  0
   82.3171   11.2511    5.1910 H   0  0  0  0  0  0  0  0  0  0  0  0
 14 13  1  0
 12 13  1  0
 12 11  1  0
 13 15  2  0
 11 10  1  0
 15 16  1  0
 16 17  1  0
 17 18  1  0
 10  8  2  0
  9  8  1  0
 18 19  2  0
 20 19  1  0
  8  7  1  0
 19 21  1  0
 21 22  1  0
  7  6  1  0
  6  5  1  0
 22 23  1  0
 23 24  2  0
  5  4  1  0
  5  2  1  0
 24 25  1  0
 24 26  1  0
  4  2  1  0
  3  2  1  0
  2  1  1  0
 26 27  1  0
 27 28  1  0
 28 29  2  0
 29 30  1  0
 29 31  1  0
  1 32  1  0
  1 33  1  0
  1 34  1  0
  3 35  1  0
  3 36  1  0
  3 37  1  0
  5 38  1  0
  6 39  1  0
  6 40  1  0
  7 41  1  0
  7 42  1  0
  9 43  1  0
  9 44  1  0
  9 45  1  0
 10 46  1  0
 11 47  1  0
 11 48  1  0
 12 49  1  0
 12 50  1  0
 14 51  1  0
 14 52  1  0
 14 53  1  0
 15 54  1  0
 16 55  1  0
 16 56  1  0
 17 57  1  0
 17 58  1  0
 18 59  1  0
 20 60  1  0
 20 61  1  0
 20 62  1  0
 21 63  1  0
 21 64  1  0
 22 65  1  0
 22 66  1  0
 23 67  1  0
 25 68  1  0
 25 69  1  0
 25 70  1  0
 26 71  1  0
 26 72  1  0
 27 73  1  0
 27 74  1  0
 28 75  1  0
 30 76  1  0
 30 77  1  0
 30 78  1  0
 31 79  1  0
 31 80  1  0
 31 81  1  0
A    1
CBA
A    2
CAY
A    3
CBB
A    4
OAZ
A    5
CAX
A    6
CAW
A    7
CAV
A    8
CAT
A    9
CAU
A   10
CAS
A   11
CAR
A   12
CAQ
A   13
CAO
A   14
CAP
A   15
CAN
A   16
CAM
A   17
CAL
A   18
CAK
A   19
CAJ
A   20
CBC
A   21
CAI
A   22
CAH
A   23
CAG
A   24
CAF
A   25
CBD
A   26
CAE
A   27
CAD
A   28
CAC
A   29
CAB
A   30
CBE
A   31
CAA
M  END
