3WQJ_SQL_A_308
     RDKit          3D

 80 79  0  0  0  0  0  0  0  0999 V2000
   -0.9820   35.4630   41.9100 C   0  0  0  0  0  0  0  0  0  0  0  0
    0.2920   36.0260   41.2980 C   0  0  0  0  0  0  0  0  0  0  0  0
    0.9390   36.9900   42.2790 C   0  0  0  0  0  0  0  0  0  0  0  0
    0.0300   36.7000   39.9540 C   0  0  0  0  0  0  0  0  0  0  0  0
   -0.1200   35.6950   38.8150 C   0  0  0  0  0  0  0  0  0  0  0  0
    0.7010   36.1010   37.5910 C   0  0  0  0  0  0  0  0  0  0  0  0
   -0.1610   36.2300   36.3270 C   0  0  0  0  0  0  0  0  0  0  0  0
   -0.8250   37.5810   36.2520 C   0  0  0  0  0  0  0  0  0  0  0  0
    0.7240   35.9810   35.0950 C   0  0  0  0  0  0  0  0  0  0  0  0
   -0.0930   35.8850   33.8050 C   0  0  0  0  0  0  0  0  0  0  0  0
    0.5980   36.5930   32.6390 C   0  0  0  0  0  0  0  0  0  0  0  0
   -0.0140   36.2320   31.2860 C   0  0  0  0  0  0  0  0  0  0  0  0
   -1.3420   36.9480   31.0680 C   0  0  0  0  0  0  0  0  0  0  0  0
    0.9650   36.5610   30.1610 C   0  0  0  0  0  0  0  0  0  0  0  0
    0.2020   36.8610   28.8900 C   0  0  0  0  0  0  0  0  0  0  0  0
    0.3690   36.1040   27.8060 C   0  0  0  0  0  0  0  0  0  0  0  0
   -0.3830   36.4060   26.5830 C   0  0  0  0  0  0  0  0  0  0  0  0
    0.0370   35.9840   25.3950 C   0  0  0  0  0  0  0  0  0  0  0  0
    1.3150   35.1670   25.3470 C   0  0  0  0  0  0  0  0  0  0  0  0
   -0.6920   36.2490   24.1020 C   0  0  0  0  0  0  0  0  0  0  0  0
    0.2880   36.6160   22.9870 C   0  0  0  0  0  0  0  0  0  0  0  0
    0.1650   35.6740   21.7910 C   0  0  0  0  0  0  0  0  0  0  0  0
    0.8440   36.2460   20.5480 C   0  0  0  0  0  0  0  0  0  0  0  0
    0.1720   35.6880   19.2930 C   0  0  0  0  0  0  0  0  0  0  0  0
    0.4710   36.5220   18.0480 C   0  0  0  0  0  0  0  0  0  0  0  0
   -0.3570   36.0620   16.8480 C   0  0  0  0  0  0  0  0  0  0  0  0
    0.4050   36.2110   15.5330 C   0  0  0  0  0  0  0  0  0  0  0  0
    0.3410   34.9300   14.7110 C   0  0  0  0  0  0  0  0  0  0  0  0
   -0.1160   37.3930   14.7240 C   0  0  0  0  0  0  0  0  0  0  0  0
    2.3390   35.9440   20.5540 C   0  0  0  0  0  0  0  0  0  0  0  0
   -0.9075   35.4959   43.0070 H   0  0  0  0  0  0  0  0  0  0  0  0
   -1.8429   36.0645   41.5828 H   0  0  0  0  0  0  0  0  0  0  0  0
   -1.1168   34.4215   41.5828 H   0  0  0  0  0  0  0  0  0  0  0  0
    0.7221   36.6668   43.3078 H   0  0  0  0  0  0  0  0  0  0  0  0
    2.0273   36.9999   42.1196 H   0  0  0  0  0  0  0  0  0  0  0  0
    0.5358   38.0010   42.1196 H   0  0  0  0  0  0  0  0  0  0  0  0
   -0.0427   37.7895   39.8209 H   0  0  0  0  0  0  0  0  0  0  0  0
    0.2218   34.7088   39.1624 H   0  0  0  0  0  0  0  0  0  0  0  0
   -1.1799   35.6642   38.5222 H   0  0  0  0  0  0  0  0  0  0  0  0
    1.1805   37.0703   37.7925 H   0  0  0  0  0  0  0  0  0  0  0  0
    1.4471   35.3132   37.4102 H   0  0  0  0  0  0  0  0  0  0  0  0
   -1.0093   37.9560   37.2696 H   0  0  0  0  0  0  0  0  0  0  0  0
   -0.1691   38.2827   35.7159 H   0  0  0  0  0  0  0  0  0  0  0  0
   -1.7812   37.4903   35.7159 H   0  0  0  0  0  0  0  0  0  0  0  0
    1.8189   35.8831   35.1362 H   0  0  0  0  0  0  0  0  0  0  0  0
   -0.2278   34.8241   33.5474 H   0  0  0  0  0  0  0  0  0  0  0  0
   -1.0616   36.3772   33.9772 H   0  0  0  0  0  0  0  0  0  0  0  0
    0.5119   37.6797   32.7859 H   0  0  0  0  0  0  0  0  0  0  0  0
    1.6485   36.2671   32.6269 H   0  0  0  0  0  0  0  0  0  0  0  0
   -1.7920   37.1906   32.0420 H   0  0  0  0  0  0  0  0  0  0  0  0
   -1.1699   37.8756   30.5023 H   0  0  0  0  0  0  0  0  0  0  0  0
   -2.0224   36.2945   30.5023 H   0  0  0  0  0  0  0  0  0  0  0  0
    2.0604   36.5773   30.2602 H   0  0  0  0  0  0  0  0  0  0  0  0
   -0.8669   36.8140   29.1456 H   0  0  0  0  0  0  0  0  0  0  0  0
    0.6126   37.8328   28.5786 H   0  0  0  0  0  0  0  0  0  0  0  0
    1.4362   36.1537   27.5441 H   0  0  0  0  0  0  0  0  0  0  0  0
   -0.0280   35.1256   28.1145 H   0  0  0  0  0  0  0  0  0  0  0  0
   -1.3112   36.9923   26.6507 H   0  0  0  0  0  0  0  0  0  0  0  0
    1.6514   34.9519   26.3720 H   0  0  0  0  0  0  0  0  0  0  0  0
    1.1262   34.2217   24.8171 H   0  0  0  0  0  0  0  0  0  0  0  0
    2.0937   35.7352   24.8171 H   0  0  0  0  0  0  0  0  0  0  0  0
   -1.2473   35.3454   23.8102 H   0  0  0  0  0  0  0  0  0  0  0  0
   -1.3819   37.0921   24.2545 H   0  0  0  0  0  0  0  0  0  0  0  0
    0.0798   37.6435   22.6539 H   0  0  0  0  0  0  0  0  0  0  0  0
    1.3090   36.5293   23.3869 H   0  0  0  0  0  0  0  0  0  0  0  0
   -0.3497   34.7023   21.8211 H   0  0  0  0  0  0  0  0  0  0  0  0
    0.5335   34.6627   19.1257 H   0  0  0  0  0  0  0  0  0  0  0  0
   -0.9153   35.7121   19.4578 H   0  0  0  0  0  0  0  0  0  0  0  0
    0.2369   37.5757   18.2599 H   0  0  0  0  0  0  0  0  0  0  0  0
    1.5351   36.3974   17.7988 H   0  0  0  0  0  0  0  0  0  0  0  0
   -1.3819   35.6696   16.9230 H   0  0  0  0  0  0  0  0  0  0  0  0
    0.2977   34.0628   15.3863 H   0  0  0  0  0  0  0  0  0  0  0  0
   -0.5575   34.9459   14.0766 H   0  0  0  0  0  0  0  0  0  0  0  0
    1.2366   34.8563   14.0766 H   0  0  0  0  0  0  0  0  0  0  0  0
   -0.4634   38.1811   15.4083 H   0  0  0  0  0  0  0  0  0  0  0  0
    0.6915   37.7878   14.0899 H   0  0  0  0  0  0  0  0  0  0  0  0
   -0.9522   37.0632   14.0899 H   0  0  0  0  0  0  0  0  0  0  0  0
    2.6944   35.8722   21.5925 H   0  0  0  0  0  0  0  0  0  0  0  0
    2.5226   34.9906   20.0369 H   0  0  0  0  0  0  0  0  0  0  0  0
    2.8782   36.7514   20.0369 H   0  0  0  0  0  0  0  0  0  0  0  0
  3  2  1  0
  1  2  1  0
  2  4  2  0
  4  5  1  0
  5  6  1  0
  6  7  1  0
  8  7  1  0
  7  9  2  0
  9 10  1  0
 10 11  1  0
 11 12  1  0
 13 12  1  0
 12 14  2  0
 14 15  1  0
 15 16  1  0
 16 17  1  0
 17 18  2  0
 18 19  1  0
 18 20  1  0
 20 21  1  0
 21 22  1  0
 22 23  2  0
 23 30  1  0
 23 24  1  0
 24 25  1  0
 25 26  1  0
 26 27  2  0
 27 29  1  0
 27 28  1  0
  1 31  1  0
  1 32  1  0
  1 33  1  0
  3 34  1  0
  3 35  1  0
  3 36  1  0
  4 37  1  0
  5 38  1  0
  5 39  1  0
  6 40  1  0
  6 41  1  0
  8 42  1  0
  8 43  1  0
  8 44  1  0
  9 45  1  0
 10 46  1  0
 10 47  1  0
 11 48  1  0
 11 49  1  0
 13 50  1  0
 13 51  1  0
 13 52  1  0
 14 53  1  0
 15 54  1  0
 15 55  1  0
 16 56  1  0
 16 57  1  0
 17 58  1  0
 19 59  1  0
 19 60  1  0
 19 61  1  0
 20 62  1  0
 20 63  1  0
 21 64  1  0
 21 65  1  0
 22 66  1  0
 24 67  1  0
 24 68  1  0
 25 69  1  0
 25 70  1  0
 26 71  1  0
 28 72  1  0
 28 73  1  0
 28 74  1  0
 29 75  1  0
 29 76  1  0
 29 77  1  0
 30 78  1  0
 30 79  1  0
 30 80  1  0
A    1
C1
A    2
C2
A    3
C3
A    4
C4
A    5
C5
A    6
C6
A    7
C7
A    8
C8
A    9
C9
A   10
C10
A   11
C11
A   12
C12
A   13
C13
A   14
C14
A   15
C15
A   16
C16
A   17
C17
A   18
C18
A   19
C19
A   20
C20
A   21
C21
A   22
C22
A   23
C23
A   24
C24
A   25
C25
A   26
C26
A   27
C27
A   28
C28
A   29
C29
A   30
C30
M  END
