4OP2_2UX_A_701
     RDKit          3D

 46 48  0  0  0  0  0  0  0  0999 V2000
  -44.4820  -20.6830   15.7820 C   0  0  0  0  0  0  0  0  0  0  0  0
  -45.2190  -19.5610   15.9580 C   0  0  0  0  0  0  0  0  0  0  0  0
  -44.9680  -18.4820   15.1110 C   0  0  0  0  0  0  0  0  0  0  0  0
  -45.7150  -17.4150   15.2580 N   0  0  0  0  0  0  0  0  0  0  0  0
  -44.0320  -18.5600   14.1350 N   0  0  0  0  0  0  0  0  0  0  0  0
  -43.3140  -19.6570   13.9690 C   0  0  0  0  0  0  0  0  0  0  0  0
  -43.5400  -20.7480   14.7650 C   0  0  0  0  0  0  0  0  0  0  0  0
  -42.5630  -22.1800   14.6780 S   0  0  0  0  0  0  0  0  0  0  0  0
  -43.3870  -23.3290   15.1580 O   0  0  0  0  0  0  0  0  0  0  0  0
  -42.0090  -22.2940   13.3620 O   0  0  0  0  0  0  0  0  0  0  0  0
  -41.3300  -21.8880   15.7760 C   0  0  0  0  0  0  0  0  0  0  0  0
  -40.4380  -20.8520   15.5020 C   0  0  0  0  0  0  0  0  0  0  0  0
  -39.4050  -20.5630   16.3890 C   0  0  0  0  0  0  0  0  0  0  0  0
  -41.1860  -22.6390   16.9240 C   0  0  0  0  0  0  0  0  0  0  0  0
  -40.1660  -22.3180   17.8200 C   0  0  0  0  0  0  0  0  0  0  0  0
  -39.2540  -21.2820   17.5630 C   0  0  0  0  0  0  0  0  0  0  0  0
  -38.1950  -20.9810   18.4690 C   0  0  0  0  0  0  0  0  0  0  0  0
  -37.1820  -20.0910   18.1340 C   0  0  0  0  0  0  0  0  0  0  0  0
  -36.1210  -19.8180   19.0100 C   0  0  0  0  0  0  0  0  0  0  0  0
  -38.1460  -21.5400   19.7580 C   0  0  0  0  0  0  0  0  0  0  0  0
  -37.1130  -21.2380   20.6550 C   0  0  0  0  0  0  0  0  0  0  0  0
  -36.0880  -20.3800   20.2800 C   0  0  0  0  0  0  0  0  0  0  0  0
  -34.9480  -20.0300   21.2370 C   0  0  0  0  0  0  0  0  0  0  0  0
  -34.3110  -21.2170   21.9250 C   0  0  0  0  0  0  0  0  0  0  0  0
  -35.1640  -21.7730   22.7530 F   0  0  0  0  0  0  0  0  0  0  0  0
  -33.8980  -22.0930   21.0090 F   0  0  0  0  0  0  0  0  0  0  0  0
  -33.2700  -20.7420   22.6010 F   0  0  0  0  0  0  0  0  0  0  0  0
  -35.4610  -19.0300   22.2980 C   0  0  0  0  0  0  0  0  0  0  0  0
  -33.8490  -19.5710   20.4950 O   0  0  0  0  0  0  0  0  0  0  0  0
  -44.6304  -21.5462   16.4475 H   0  0  0  0  0  0  0  0  0  0  0  0
  -45.9888  -19.5026   16.7416 H   0  0  0  0  0  0  0  0  0  0  0  0
  -45.9511  -17.0777   16.2021 H   0  0  0  0  0  0  0  0  0  0  0  0
  -46.0659  -16.9138   14.4294 H   0  0  0  0  0  0  0  0  0  0  0  0
  -42.5358  -19.6936   13.1924 H   0  0  0  0  0  0  0  0  0  0  0  0
  -40.5511  -20.2608   14.5813 H   0  0  0  0  0  0  0  0  0  0  0  0
  -38.6991  -19.7527   16.1544 H   0  0  0  0  0  0  0  0  0  0  0  0
  -41.8657  -23.4790   17.1301 H   0  0  0  0  0  0  0  0  0  0  0  0
  -40.0738  -22.8924   18.7536 H   0  0  0  0  0  0  0  0  0  0  0  0
  -37.2128  -19.5874   17.1565 H   0  0  0  0  0  0  0  0  0  0  0  0
  -35.3068  -19.1521   18.6880 H   0  0  0  0  0  0  0  0  0  0  0  0
  -38.9405  -22.2335   20.0709 H   0  0  0  0  0  0  0  0  0  0  0  0
  -37.1141  -21.6828   21.6611 H   0  0  0  0  0  0  0  0  0  0  0  0
  -35.2577  -19.4262   23.3038 H   0  0  0  0  0  0  0  0  0  0  0  0
  -34.9461  -18.0661   22.1726 H   0  0  0  0  0  0  0  0  0  0  0  0
  -36.5443  -18.8860   22.1726 H   0  0  0  0  0  0  0  0  0  0  0  0
  -33.1351  -19.2728   21.1127 H   0  0  0  0  0  0  0  0  0  0  0  0
 10  8  2  0
  6  5  2  0
  6  7  1  0
  5  3  1  0
  8  7  1  0
  8  9  2  0
  8 11  1  0
  7  1  2  0
  3  4  1  0
  3  2  2  0
 12 11  2  0
 12 13  1  0
 11 14  1  0
  1  2  1  0
 13 16  2  0
 14 15  2  0
 16 15  1  0
 16 17  1  0
 18 17  2  0
 18 19  1  0
 17 20  1  0
 19 22  2  0
 20 21  2  0
 22 21  1  0
 22 23  1  0
 29 23  1  0
 26 24  1  0
 23 24  1  0
 23 28  1  0
 24 27  1  0
 24 25  1  0
  1 30  1  0
  2 31  1  0
  4 32  1  0
  4 33  1  0
  6 34  1  0
 12 35  1  0
 13 36  1  0
 14 37  1  0
 15 38  1  0
 18 39  1  0
 19 40  1  0
 20 41  1  0
 21 42  1  0
 28 43  1  0
 28 44  1  0
 28 45  1  0
 29 46  1  0
A    1
C19
A    2
C18
A    3
C17
A    4
N2
A    5
N1
A    6
C16
A    7
C15
A    8
S1
A    9
O2
A   10
O3
A   11
C5
A   12
C6
A   13
C1
A   14
C4
A   15
C3
A   16
C2
A   17
C7
A   18
C12
A   19
C11
A   20
C8
A   21
C9
A   22
C10
A   23
C13
A   24
C20
A   25
F2
A   26
F3
A   27
F1
A   28
C14
A   29
O1
M  END
