4OP3_2UY_A_701
     RDKit          3D

 56 59  0  0  0  0  0  0  0  0999 V2000
   37.1600  -18.3760  -14.2690 C   0  0  0  0  0  0  0  0  0  0  0  0
   37.1530  -17.5320  -13.1530 C   0  0  0  0  0  0  0  0  0  0  0  0
   38.3110  -17.4060  -12.3690 C   0  0  0  0  0  0  0  0  0  0  0  0
   39.4650  -18.1130  -12.6980 C   0  0  0  0  0  0  0  0  0  0  0  0
   39.4880  -18.9480  -13.8130 C   0  0  0  0  0  0  0  0  0  0  0  0
   38.3240  -19.0980  -14.6060 C   0  0  0  0  0  0  0  0  0  0  0  0
   38.2620  -19.8770  -15.7080 N   0  0  0  0  0  0  0  0  0  0  0  0
   39.2110  -20.7310  -16.1330 C   0  0  0  0  0  0  0  0  0  0  0  0
   40.2370  -21.0140  -15.3380 N   0  0  0  0  0  0  0  0  0  0  0  0
   41.1930  -21.8850  -15.6820 C   0  0  0  0  0  0  0  0  0  0  0  0
   42.5180  -22.1780  -14.5970 S   0  0  0  0  0  0  0  0  0  0  0  0
   42.0720  -22.3140  -13.1440 O   0  0  0  0  0  0  0  0  0  0  0  0
   43.2720  -23.3680  -15.1350 O   0  0  0  0  0  0  0  0  0  0  0  0
   43.5080  -20.7700  -14.7560 C   0  0  0  0  0  0  0  0  0  0  0  0
   44.4510  -20.7190  -15.7850 C   0  0  0  0  0  0  0  0  0  0  0  0
   45.2570  -19.5880  -15.9230 C   0  0  0  0  0  0  0  0  0  0  0  0
   45.0790  -18.5390  -15.0230 C   0  0  0  0  0  0  0  0  0  0  0  0
   45.8330  -17.4590  -15.1300 N   0  0  0  0  0  0  0  0  0  0  0  0
   44.1430  -18.6270  -14.0300 N   0  0  0  0  0  0  0  0  0  0  0  0
   43.3500  -19.6960  -13.8790 C   0  0  0  0  0  0  0  0  0  0  0  0
   41.1890  -22.5210  -16.9110 C   0  0  0  0  0  0  0  0  0  0  0  0
   40.1360  -22.2490  -17.7650 C   0  0  0  0  0  0  0  0  0  0  0  0
   39.1310  -21.3500  -17.3890 C   0  0  0  0  0  0  0  0  0  0  0  0
   38.0800  -21.0710  -18.3040 C   0  0  0  0  0  0  0  0  0  0  0  0
   38.1310  -21.5400  -19.6420 C   0  0  0  0  0  0  0  0  0  0  0  0
   37.0940  -21.2270  -20.5210 C   0  0  0  0  0  0  0  0  0  0  0  0
   37.0260  -20.2950  -17.9230 N   0  0  0  0  0  0  0  0  0  0  0  0
   36.0250  -19.9880  -18.7340 C   0  0  0  0  0  0  0  0  0  0  0  0
   36.0210  -20.4480  -20.0550 C   0  0  0  0  0  0  0  0  0  0  0  0
   34.8310  -20.0770  -20.9580 C   0  0  0  0  0  0  0  0  0  0  0  0
   34.4080  -21.3140  -21.7720 C   0  0  0  0  0  0  0  0  0  0  0  0
   33.8370  -22.1680  -20.9190 F   0  0  0  0  0  0  0  0  0  0  0  0
   35.4820  -21.9090  -22.2830 F   0  0  0  0  0  0  0  0  0  0  0  0
   33.5450  -20.9610  -22.7640 F   0  0  0  0  0  0  0  0  0  0  0  0
   35.2170  -18.9030  -21.8600 C   0  0  0  0  0  0  0  0  0  0  0  0
   33.7200  -19.7270  -20.1110 O   0  0  0  0  0  0  0  0  0  0  0  0
   36.2547  -18.4768  -14.8857 H   0  0  0  0  0  0  0  0  0  0  0  0
   36.2445  -16.9698  -12.8911 H   0  0  0  0  0  0  0  0  0  0  0  0
   38.3068  -16.7450  -11.4898 H   0  0  0  0  0  0  0  0  0  0  0  0
   40.3646  -18.0114  -12.0731 H   0  0  0  0  0  0  0  0  0  0  0  0
   40.4083  -19.4897  -14.0770 H   0  0  0  0  0  0  0  0  0  0  0  0
   37.4063  -19.8109  -16.2774 H   0  0  0  0  0  0  0  0  0  0  0  0
   44.5576  -21.5638  -16.4814 H   0  0  0  0  0  0  0  0  0  0  0  0
   46.0122  -19.5263  -16.7204 H   0  0  0  0  0  0  0  0  0  0  0  0
   46.1682  -16.9789  -14.2826 H   0  0  0  0  0  0  0  0  0  0  0  0
   46.0855  -17.0973  -16.0608 H   0  0  0  0  0  0  0  0  0  0  0  0
   42.5920  -19.7266  -13.0824 H   0  0  0  0  0  0  0  0  0  0  0  0
   41.9922  -23.2159  -17.1974 H   0  0  0  0  0  0  0  0  0  0  0  0
   40.0877  -22.7426  -18.7469 H   0  0  0  0  0  0  0  0  0  0  0  0
   38.9826  -22.1464  -19.9840 H   0  0  0  0  0  0  0  0  0  0  0  0
   37.1157  -21.5839  -21.5613 H   0  0  0  0  0  0  0  0  0  0  0  0
   35.1932  -19.3686  -18.3672 H   0  0  0  0  0  0  0  0  0  0  0  0
   35.5005  -18.0408  -21.2385 H   0  0  0  0  0  0  0  0  0  0  0  0
   36.0672  -19.1926  -22.4950 H   0  0  0  0  0  0  0  0  0  0  0  0
   34.3608  -18.6315  -22.4950 H   0  0  0  0  0  0  0  0  0  0  0  0
   33.9890  -19.8117  -19.1620 H   0  0  0  0  0  0  0  0  0  0  0  0
 34 31  1  0
 33 31  1  0
 35 30  1  0
 31 30  1  0
 31 32  1  0
 30 36  1  0
 30 29  1  0
 26 29  1  0
 26 25  2  0
 29 28  2  0
 25 24  1  0
 28 27  1  0
 24 27  2  0
 24 23  1  0
 22 23  2  0
 22 21  1  0
 23  8  1  0
 21 10  2  0
  8  7  1  0
  8  9  2  0
 16 15  2  0
 16 17  1  0
 15 14  1  0
  7  6  1  0
 10  9  1  0
 10 11  1  0
 13 11  2  0
 18 17  1  0
 17 19  2  0
 14 11  1  0
 14 20  2  0
  6  1  2  0
  6  5  1  0
 11 12  2  0
  1  2  1  0
 19 20  1  0
  5  4  2  0
  2  3  2  0
  4  3  1  0
  1 37  1  0
  2 38  1  0
  3 39  1  0
  4 40  1  0
  5 41  1  0
  7 42  1  0
 15 43  1  0
 16 44  1  0
 18 45  1  0
 18 46  1  0
 20 47  1  0
 21 48  1  0
 22 49  1  0
 25 50  1  0
 26 51  1  0
 28 52  1  0
 35 53  1  0
 35 54  1  0
 35 55  1  0
 36 56  1  0
A    1
C18
A    2
C19
A    3
C20
A    4
C21
A    5
C22
A    6
C17
A    7
N3
A    8
C6
A    9
N2
A   10
C10
A   11
S1
A   12
O2
A   13
O3
A   14
C12
A   15
C16
A   16
C15
A   17
C14
A   18
N5
A   19
N4
A   20
C13
A   21
C9
A   22
C8
A   23
C7
A   24
C4
A   25
C3
A   26
C2
A   27
N1
A   28
C5
A   29
C1
A   30
C11
A   31
C24
A   32
F2
A   33
F3
A   34
F1
A   35
C23
A   36
O1
M  END
