4OQ3_2V8_A_201
     RDKit          3D

 48 51  0  0  0  0  0  0  0  0999 V2000
   12.6180  -17.2620   11.2960 Cl  0  0  0  0  0  0  0  0  0  0  0  0
   10.8720  -17.0360   11.3440 C   0  0  0  0  0  0  0  0  0  0  0  0
   10.1730  -16.5090   10.2480 C   0  0  0  0  0  0  0  0  0  0  0  0
    8.7650  -16.3390   10.2770 C   0  0  0  0  0  0  0  0  0  0  0  0
    8.0560  -16.7330   11.4270 C   0  0  0  0  0  0  0  0  0  0  0  0
    8.7610  -17.2580   12.5250 C   0  0  0  0  0  0  0  0  0  0  0  0
   10.1550  -17.4110   12.4790 C   0  0  0  0  0  0  0  0  0  0  0  0
    6.5460  -16.5980   11.5570 C   0  0  0  0  0  0  0  0  0  0  0  0
    8.2210  -15.8220    9.1410 N   0  0  0  0  0  0  0  0  0  0  0  0
    8.2530  -14.5830    8.7400 C   0  0  0  0  0  0  0  0  0  0  0  0
    7.6940  -14.4810    7.6310 N   0  0  0  0  0  0  0  0  0  0  0  0
    7.2450  -15.7650    7.1950 C   0  0  0  0  0  0  0  0  0  0  0  0
    7.6590  -16.5470    8.2020 C   0  0  0  0  0  0  0  0  0  0  0  0
    7.4210  -18.0310    8.3300 C   0  0  0  0  0  0  0  0  0  0  0  0
    8.4560  -18.9420    8.5090 C   0  0  0  0  0  0  0  0  0  0  0  0
    8.1350  -20.2910    8.6660 C   0  0  0  0  0  0  0  0  0  0  0  0
    6.8080  -20.7450    8.6710 C   0  0  0  0  0  0  0  0  0  0  0  0
    5.7720  -19.8210    8.5020 C   0  0  0  0  0  0  0  0  0  0  0  0
    6.0890  -18.4700    8.3510 C   0  0  0  0  0  0  0  0  0  0  0  0
    9.4400  -21.4100    8.8610 Cl  0  0  0  0  0  0  0  0  0  0  0  0
    6.5790  -16.0550    5.9300 C   0  0  0  0  0  0  0  0  0  0  0  0
    6.3300  -17.2010    5.6320 O   0  0  0  0  0  0  0  0  0  0  0  0
    6.3030  -15.0790    5.0920 O   0  0  0  0  0  0  0  0  0  0  0  0
    8.7770  -13.3610    9.4560 C   0  0  0  0  0  0  0  0  0  0  0  0
    9.6590  -12.4710    8.8350 C   0  0  0  0  0  0  0  0  0  0  0  0
   10.1200  -11.3340    9.5100 C   0  0  0  0  0  0  0  0  0  0  0  0
    9.6780  -11.0700   10.8070 C   0  0  0  0  0  0  0  0  0  0  0  0
    8.7780  -11.9390   11.4310 C   0  0  0  0  0  0  0  0  0  0  0  0
    8.3270  -13.0760   10.7550 C   0  0  0  0  0  0  0  0  0  0  0  0
   11.1080  -10.3920    8.8280 C   0  0  0  0  0  0  0  0  0  0  0  0
   10.7300  -16.2206    9.3444 H   0  0  0  0  0  0  0  0  0  0  0  0
    8.2123  -17.5525   13.4317 H   0  0  0  0  0  0  0  0  0  0  0  0
   10.6865  -17.8304   13.3459 H   0  0  0  0  0  0  0  0  0  0  0  0
    6.2704  -16.5734   12.6216 H   0  0  0  0  0  0  0  0  0  0  0  0
    6.2180  -15.6669   11.0717 H   0  0  0  0  0  0  0  0  0  0  0  0
    6.0580  -17.4561   11.0717 H   0  0  0  0  0  0  0  0  0  0  0  0
    9.5036  -18.6071    8.5265 H   0  0  0  0  0  0  0  0  0  0  0  0
    6.5851  -21.8137    8.8061 H   0  0  0  0  0  0  0  0  0  0  0  0
    4.7236  -20.1536    8.4883 H   0  0  0  0  0  0  0  0  0  0  0  0
    5.2776  -17.7346    8.2463 H   0  0  0  0  0  0  0  0  0  0  0  0
    6.1833  -17.8762    6.3410 H   0  0  0  0  0  0  0  0  0  0  0  0
    9.9941  -12.6661    7.8056 H   0  0  0  0  0  0  0  0  0  0  0  0
   10.0381  -10.1771   11.3390 H   0  0  0  0  0  0  0  0  0  0  0  0
    8.4257  -11.7283   12.4515 H   0  0  0  0  0  0  0  0  0  0  0  0
    7.6128  -13.7539   11.2452 H   0  0  0  0  0  0  0  0  0  0  0  0
   11.6809   -9.8458    9.5919 H   0  0  0  0  0  0  0  0  0  0  0  0
   11.7974  -10.9756    8.2003 H   0  0  0  0  0  0  0  0  0  0  0  0
   10.5579   -9.6755    8.2003 H   0  0  0  0  0  0  0  0  0  0  0  0
 23 21  2  0
 22 21  1  0
 21 12  1  0
 12 11  1  0
 12 13  2  0
 11 10  2  0
 13 14  1  0
 13  9  1  0
 14 19  1  0
 14 15  2  0
 19 18  2  0
 18 17  1  0
 15 16  1  0
 16 17  2  0
 16 20  1  0
 10  9  1  0
 10 24  1  0
 30 26  1  0
 25 24  2  0
 25 26  1  0
  9  4  1  0
 24 29  1  0
 26 27  2  0
  3  4  1  0
  3  2  2  0
  4  5  2  0
 29 28  2  0
 27 28  1  0
  1  2  1  0
  2  7  1  0
  5  8  1  0
  5  6  1  0
  7  6  2  0
  3 31  1  0
  6 32  1  0
  7 33  1  0
  8 34  1  0
  8 35  1  0
  8 36  1  0
 15 37  1  0
 17 38  1  0
 18 39  1  0
 19 40  1  0
 22 41  1  0
 25 42  1  0
 27 43  1  0
 28 44  1  0
 29 45  1  0
 30 46  1  0
 30 47  1  0
 30 48  1  0
A    1
CL1
A    2
C2
A    3
C3
A    4
C5
A    5
C6
A    6
C7
A    7
C9
A    8
C11
A    9
N15
A   10
C16
A   11
N17
A   12
C18
A   13
C19
A   14
C20
A   15
C21
A   16
C23
A   17
C24
A   18
C26
A   19
C28
A   20
CL2
A   21
C31
A   22
O32
A   23
O33
A   24
C35
A   25
C36
A   26
C38
A   27
C39
A   28
C41
A   29
C43
A   30
C45
M  END
