4OQ5_2UU_A_401
     RDKit          3D

 60 64  0  0  0  0  0  0  0  0999 V2000
    7.4520    9.6770    9.7520 C   0  0  0  0  0  0  0  0  0  0  0  0
   11.4780    6.0150   10.2410 C   0  0  0  0  0  0  0  0  0  0  0  0
   12.4780    6.9480   10.3110 C   0  0  0  0  0  0  0  0  0  0  0  0
    6.9610    9.0530    8.6250 C   0  0  0  0  0  0  0  0  0  0  0  0
    7.8890    8.9380   10.8300 C   0  0  0  0  0  0  0  0  0  0  0  0
   11.6710    4.8560    9.5250 C   0  0  0  0  0  0  0  0  0  0  0  0
   13.6520    6.7160    9.6500 C   0  0  0  0  0  0  0  0  0  0  0  0
   11.7410    1.5730    9.0990 C   0  0  0  0  0  0  0  0  0  0  0  0
   14.2120    3.2610    7.4530 C   0  0  0  0  0  0  0  0  0  0  0  0
   10.7860    0.5910    8.9630 C   0  0  0  0  0  0  0  0  0  0  0  0
   15.2060    4.1990    7.5050 C   0  0  0  0  0  0  0  0  0  0  0  0
    6.8980    7.6760    8.5660 C   0  0  0  0  0  0  0  0  0  0  0  0
    7.8430    7.5660   10.7660 C   0  0  0  0  0  0  0  0  0  0  0  0
    8.8520    5.3340    7.7900 C   0  0  0  0  0  0  0  0  0  0  0  0
    7.0620    3.7780    8.1870 C   0  0  0  0  0  0  0  0  0  0  0  0
    9.2330    4.6190    6.6760 C   0  0  0  0  0  0  0  0  0  0  0  0
    7.4400    3.0630    7.0750 C   0  0  0  0  0  0  0  0  0  0  0  0
   11.4460    2.1920    6.8300 C   0  0  0  0  0  0  0  0  0  0  0  0
   12.8590    4.6070    8.8630 C   0  0  0  0  0  0  0  0  0  0  0  0
   13.8610    5.5570    8.9260 C   0  0  0  0  0  0  0  0  0  0  0  0
   12.0670    2.3880    8.0370 C   0  0  0  0  0  0  0  0  0  0  0  0
   13.0450    3.4420    8.1390 C   0  0  0  0  0  0  0  0  0  0  0  0
   10.1380    0.4200    7.7600 C   0  0  0  0  0  0  0  0  0  0  0  0
   15.0500    5.3470    8.2550 C   0  0  0  0  0  0  0  0  0  0  0  0
   10.4890    1.2210    6.6980 C   0  0  0  0  0  0  0  0  0  0  0  0
    7.3510    6.9400    9.6410 C   0  0  0  0  0  0  0  0  0  0  0  0
    7.7670    4.9050    8.5360 C   0  0  0  0  0  0  0  0  0  0  0  0
    8.5200    3.4920    6.3410 C   0  0  0  0  0  0  0  0  0  0  0  0
    9.0750   -0.5910    7.5910 C   0  0  0  0  0  0  0  0  0  0  0  0
   16.1770    6.3370    8.2840 C   0  0  0  0  0  0  0  0  0  0  0  0
    9.8260    1.1420    5.4470 N   0  0  0  0  0  0  0  0  0  0  0  0
    8.1740   -0.4950    6.7660 O   0  0  0  0  0  0  0  0  0  0  0  0
    9.9810    3.3100    4.1870 O   0  0  0  0  0  0  0  0  0  0  0  0
    7.7720    2.0460    4.3210 O   0  0  0  0  0  0  0  0  0  0  0  0
    9.2620   -1.6150    8.4590 O   0  0  0  0  0  0  0  0  0  0  0  0
    7.3180    5.5590    9.6640 O   0  0  0  0  0  0  0  0  0  0  0  0
    8.9910    2.5490    4.9240 S   0  0  0  0  0  0  0  0  0  0  0  0
    7.4954   10.7754    9.7912 H   0  0  0  0  0  0  0  0  0  0  0  0
   10.5223    6.1918   10.7562 H   0  0  0  0  0  0  0  0  0  0  0  0
   12.3385    7.8719   10.8914 H   0  0  0  0  0  0  0  0  0  0  0  0
    6.6184    9.6547    7.7703 H   0  0  0  0  0  0  0  0  0  0  0  0
    8.2702    9.4405   11.7312 H   0  0  0  0  0  0  0  0  0  0  0  0
   10.8626    4.1114    9.4783 H   0  0  0  0  0  0  0  0  0  0  0  0
   14.4508    7.4709    9.6954 H   0  0  0  0  0  0  0  0  0  0  0  0
   12.2490    1.7084   10.0652 H   0  0  0  0  0  0  0  0  0  0  0  0
   14.3541    2.3507    6.8520 H   0  0  0  0  0  0  0  0  0  0  0  0
   10.5401   -0.0580    9.8164 H   0  0  0  0  0  0  0  0  0  0  0  0
   16.1382    4.0370    6.9440 H   0  0  0  0  0  0  0  0  0  0  0  0
    6.4928    7.1730    7.6756 H   0  0  0  0  0  0  0  0  0  0  0  0
    8.2001    6.9654   11.6156 H   0  0  0  0  0  0  0  0  0  0  0  0
    9.4049    6.2382    8.0846 H   0  0  0  0  0  0  0  0  0  0  0  0
    6.2033    3.4510    8.7917 H   0  0  0  0  0  0  0  0  0  0  0  0
   10.0899    4.9429    6.0670 H   0  0  0  0  0  0  0  0  0  0  0  0
    6.8860    2.1606    6.7771 H   0  0  0  0  0  0  0  0  0  0  0  0
   11.7171    2.8162    5.9658 H   0  0  0  0  0  0  0  0  0  0  0  0
   16.4374    6.5657    9.3280 H   0  0  0  0  0  0  0  0  0  0  0  0
   17.0527    5.9108    7.7726 H   0  0  0  0  0  0  0  0  0  0  0  0
   15.8672    7.2603    7.7726 H   0  0  0  0  0  0  0  0  0  0  0  0
    9.8442    0.2826    4.8795 H   0  0  0  0  0  0  0  0  0  0  0  0
    9.2317   -1.4488    9.4345 H   0  0  0  0  0  0  0  0  0  0  0  0
 35 29  1  0
 29 32  2  0
 29 23  1  0
 10 23  1  0
 10  8  2  0
 23 25  2  0
  8 21  1  0
 25 31  1  0
 25 18  1  0
 21 18  2  0
 21 22  1  0
 31 37  1  0
 22  9  1  0
 22 19  2  0
  9 11  2  0
 17 15  2  0
 17 28  1  0
 15 27  1  0
  6 19  1  0
  6  2  2  0
 34 37  2  0
 19 20  1  0
 37 28  1  0
 37 33  2  0
 28 16  2  0
 11 24  1  0
 27 36  1  0
 27 14  2  0
 36 26  1  0
  2  3  1  0
 20 24  2  0
 20  7  1  0
 16 14  1  0
 24 30  1  0
 13 26  2  0
 13  5  1  0
  3  7  2  0
 26 12  1  0
  5  1  2  0
 12  4  2  0
  1  4  1  0
  1 38  1  0
  2 39  1  0
  3 40  1  0
  4 41  1  0
  5 42  1  0
  6 43  1  0
  7 44  1  0
  8 45  1  0
  9 46  1  0
 10 47  1  0
 11 48  1  0
 12 49  1  0
 13 50  1  0
 14 51  1  0
 15 52  1  0
 16 53  1  0
 17 54  1  0
 18 55  1  0
 30 56  1  0
 30 57  1  0
 30 58  1  0
 31 59  1  0
 35 60  1  0
A    1
C1
A    2
C2
A    3
C3
A    4
C4
A    5
C5
A    6
C6
A    7
C7
A    8
C8
A    9
C9
A   10
C10
A   11
C11
A   12
C12
A   13
C13
A   14
C14
A   15
C15
A   16
C16
A   17
C17
A   18
C18
A   19
C19
A   20
C20
A   21
C21
A   22
C22
A   23
C23
A   24
C24
A   25
C25
A   26
C26
A   27
C27
A   28
C28
A   29
C29
A   30
C30
A   31
N31
A   32
O32
A   33
O33
A   34
O34
A   35
O35
A   36
O36
A   37
S37
M  END
