4OQ6_2UV_A_401
     RDKit          3D

 35 36  0  0  0  0  0  0  0  0999 V2000
   14.3780    9.4410   10.2100 C   0  0  0  0  0  0  0  0  0  0  0  0
   12.9100   11.0950   10.9600 C   0  0  0  0  0  0  0  0  0  0  0  0
   11.9800    7.8870    9.2710 C   0  0  0  0  0  0  0  0  0  0  0  0
   15.4270   10.1540   10.7470 C   0  0  0  0  0  0  0  0  0  0  0  0
   13.9520   11.8350   11.4860 C   0  0  0  0  0  0  0  0  0  0  0  0
   10.8690    7.2610    8.7350 C   0  0  0  0  0  0  0  0  0  0  0  0
   10.7790    9.9000    9.4880 C   0  0  0  0  0  0  0  0  0  0  0  0
   13.0870    9.8980   10.2880 C   0  0  0  0  0  0  0  0  0  0  0  0
   11.9620    9.2130    9.6690 C   0  0  0  0  0  0  0  0  0  0  0  0
    9.6600    9.3100    8.9290 C   0  0  0  0  0  0  0  0  0  0  0  0
   15.2480   11.3710   11.3620 C   0  0  0  0  0  0  0  0  0  0  0  0
    9.6990    7.9710    8.5880 C   0  0  0  0  0  0  0  0  0  0  0  0
    8.4180   10.0920    8.7830 C   0  0  0  0  0  0  0  0  0  0  0  0
   18.0980   13.8840   11.4220 C   0  0  0  0  0  0  0  0  0  0  0  0
   16.4060   12.1330   11.9410 C   0  0  0  0  0  0  0  0  0  0  0  0
   17.0140   12.9890   10.8550 C   0  0  0  0  0  0  0  0  0  0  0  0
    8.4300   11.2970    9.1250 O   0  0  0  0  0  0  0  0  0  0  0  0
    8.5900    7.3720    8.0130 O   0  0  0  0  0  0  0  0  0  0  0  0
    7.4370    9.4900    8.2820 O   0  0  0  0  0  0  0  0  0  0  0  0
   14.5800    8.4837    9.7073 H   0  0  0  0  0  0  0  0  0  0  0  0
   11.8859   11.4775   11.0818 H   0  0  0  0  0  0  0  0  0  0  0  0
   12.9103    7.3112    9.3850 H   0  0  0  0  0  0  0  0  0  0  0  0
   16.4423    9.7358   10.6817 H   0  0  0  0  0  0  0  0  0  0  0  0
   13.7513   12.7867   11.9998 H   0  0  0  0  0  0  0  0  0  0  0  0
   10.9201    6.2056    8.4291 H   0  0  0  0  0  0  0  0  0  0  0  0
   10.7241   10.9536    9.7992 H   0  0  0  0  0  0  0  0  0  0  0  0
   18.0611   13.8535   12.5210 H   0  0  0  0  0  0  0  0  0  0  0  0
   19.0816   13.5314   11.0783 H   0  0  0  0  0  0  0  0  0  0  0  0
   17.9380   14.9166   11.0783 H   0  0  0  0  0  0  0  0  0  0  0  0
   17.1595   11.4280   12.3221 H   0  0  0  0  0  0  0  0  0  0  0  0
   16.0598   12.7685   12.7694 H   0  0  0  0  0  0  0  0  0  0  0  0
   16.2283   13.6139   10.4055 H   0  0  0  0  0  0  0  0  0  0  0  0
   17.4603   12.3313   10.0946 H   0  0  0  0  0  0  0  0  0  0  0  0
    8.4324   11.5391   10.0849 H   0  0  0  0  0  0  0  0  0  0  0  0
    7.8807    6.9889    8.5876 H   0  0  0  0  0  0  0  0  0  0  0  0
 18 12  1  0
 19 13  2  0
 12  6  1  0
 12 10  2  0
  6  3  2  0
 13 10  1  0
 13 17  1  0
 10  7  1  0
  3  9  1  0
  7  9  2  0
  9  8  1  0
  1  8  2  0
  1  4  1  0
  8  2  1  0
  4 11  2  0
 16 14  1  0
 16 15  1  0
  2  5  2  0
 11  5  1  0
 11 15  1  0
  1 20  1  0
  2 21  1  0
  3 22  1  0
  4 23  1  0
  5 24  1  0
  6 25  1  0
  7 26  1  0
 14 27  1  0
 14 28  1  0
 14 29  1  0
 15 30  1  0
 15 31  1  0
 16 32  1  0
 16 33  1  0
 17 34  1  0
 18 35  1  0
A    1
C1
A    2
C2
A    3
C3
A    4
C4
A    5
C5
A    6
C6
A    7
C7
A    8
C8
A    9
C9
A   10
C10
A   11
C11
A   12
C12
A   13
C13
A   14
C14
A   15
C15
A   16
C16
A   17
O17
A   18
O18
A   19
O19
M  END
