4OQN_EDU_A_404
     RDKit          3D

 30 31  0  0  0  0  0  0  0  0999 V2000
   50.1480   23.4370   53.2160 O   0  0  0  0  0  0  0  0  0  0  0  0
   50.6380   24.7400   52.9450 C   0  0  0  0  0  0  0  0  0  0  0  0
   50.1560   25.7400   53.9990 C   0  0  0  0  0  0  0  0  0  0  0  0
   48.8270   26.1540   53.6230 O   0  0  0  0  0  0  0  0  0  0  0  0
   50.0490   25.1820   55.4230 C   0  0  0  0  0  0  0  0  0  0  0  0
   50.3120   26.2470   56.3200 O   0  0  0  0  0  0  0  0  0  0  0  0
   48.5910   24.7770   55.5620 C   0  0  0  0  0  0  0  0  0  0  0  0
   47.8970   25.8050   54.6760 C   0  0  0  0  0  0  0  0  0  0  0  0
   46.6330   25.4310   54.0320 N   0  0  0  0  0  0  0  0  0  0  0  0
   45.5260   26.1420   54.4480 C   0  0  0  0  0  0  0  0  0  0  0  0
   45.5560   26.9910   55.3410 O   0  0  0  0  0  0  0  0  0  0  0  0
   44.3560   25.8150   53.8120 N   0  0  0  0  0  0  0  0  0  0  0  0
   44.1840   24.8880   52.8080 C   0  0  0  0  0  0  0  0  0  0  0  0
   43.0890   24.6650   52.2860 O   0  0  0  0  0  0  0  0  0  0  0  0
   45.4060   24.1690   52.4000 C   0  0  0  0  0  0  0  0  0  0  0  0
   46.5490   24.4840   53.0300 C   0  0  0  0  0  0  0  0  0  0  0  0
   45.3360   23.1880   51.3620 C   0  0  0  0  0  0  0  0  0  0  0  0
   45.2680   22.3620   50.4850 C   0  0  0  0  0  0  0  0  0  0  0  0
   50.0968   23.3008   54.1952 H   0  0  0  0  0  0  0  0  0  0  0  0
   51.7378   24.7179   52.9470 H   0  0  0  0  0  0  0  0  0  0  0  0
   50.2596   25.0583   51.9624 H   0  0  0  0  0  0  0  0  0  0  0  0
   50.9036   26.5466   54.0217 H   0  0  0  0  0  0  0  0  0  0  0  0
   50.7394   24.3495   55.6234 H   0  0  0  0  0  0  0  0  0  0  0  0
   50.2316   25.9214   57.2515 H   0  0  0  0  0  0  0  0  0  0  0  0
   48.2517   24.8533   56.6056 H   0  0  0  0  0  0  0  0  0  0  0  0
   48.3889   23.7339   55.2771 H   0  0  0  0  0  0  0  0  0  0  0  0
   47.6188   26.6158   55.3653 H   0  0  0  0  0  0  0  0  0  0  0  0
   43.5118   26.3187   54.1193 H   0  0  0  0  0  0  0  0  0  0  0  0
   47.4687   23.9593   52.7319 H   0  0  0  0  0  0  0  0  0  0  0  0
   45.2060   21.6090   49.6855 H   0  0  0  0  0  0  0  0  0  0  0  0
 18 17  3  0
 17 15  1  0
 14 13  2  0
 15 13  1  0
 15 16  2  0
 13 12  1  0
  2  1  1  0
  2  3  1  0
 16  9  1  0
  4  3  1  0
  4  8  1  0
 12 10  1  0
  3  5  1  0
  9 10  1  0
  9  8  1  0
 10 11  2  0
  8  7  1  0
  5  7  1  0
  5  6  1  0
  1 19  1  0
  2 20  1  0
  2 21  1  0
  3 22  1  0
  5 23  1  0
  6 24  1  0
  7 25  1  0
  7 26  1  0
  8 27  1  0
 12 28  1  0
 16 29  1  0
 18 30  1  0
A    1
O01
A    2
C03
A    3
C06
A    4
O08
A    5
C09
A    6
O10
A    7
C13
A    8
C16
A    9
N18
A   10
C19
A   11
O20
A   12
N21
A   13
C23
A   14
O24
A   15
C25
A   16
C26
A   17
C28
A   18
C29
M  END
