4OQX_EDV_A_404
     RDKit          3D

 33 34  0  0  0  0  0  0  0  0999 V2000
   51.2150   23.2520   53.4900 O   0  0  0  0  0  0  0  0  0  0  0  0
   50.2330   24.0860   52.8750 C   0  0  0  0  0  0  0  0  0  0  0  0
   50.1720   25.4890   53.5250 C   0  0  0  0  0  0  0  0  0  0  0  0
   48.8820   25.9390   53.0860 O   0  0  0  0  0  0  0  0  0  0  0  0
   50.1180   25.6170   55.1130 C   0  0  0  0  0  0  0  0  0  0  0  0
   50.4200   26.9590   55.4800 O   0  0  0  0  0  0  0  0  0  0  0  0
   48.6600   25.3690   55.4950 C   0  0  0  0  0  0  0  0  0  0  0  0
   48.3950   23.8840   55.5980 C   0  0  0  0  0  0  0  0  0  0  0  0
   47.9920   26.0800   54.2650 C   0  0  0  0  0  0  0  0  0  0  0  0
   46.6020   25.6740   53.8250 N   0  0  0  0  0  0  0  0  0  0  0  0
   45.5120   26.3520   54.2570 C   0  0  0  0  0  0  0  0  0  0  0  0
   45.6220   27.2860   55.0490 O   0  0  0  0  0  0  0  0  0  0  0  0
   44.2210   25.9980   53.8130 N   0  0  0  0  0  0  0  0  0  0  0  0
   44.0430   24.9410   52.9000 C   0  0  0  0  0  0  0  0  0  0  0  0
   42.9180   24.6160   52.5040 O   0  0  0  0  0  0  0  0  0  0  0  0
   45.1550   24.2590   52.4520 C   0  0  0  0  0  0  0  0  0  0  0  0
   46.4330   24.6140   52.8930 C   0  0  0  0  0  0  0  0  0  0  0  0
   44.9270   23.2190   51.5550 C   0  0  0  0  0  0  0  0  0  0  0  0
   44.7250   22.3930   50.8390 C   0  0  0  0  0  0  0  0  0  0  0  0
   51.1355   23.3195   54.4745 H   0  0  0  0  0  0  0  0  0  0  0  0
   50.4808   24.1992   51.8093 H   0  0  0  0  0  0  0  0  0  0  0  0
   49.2512   23.6080   53.0076 H   0  0  0  0  0  0  0  0  0  0  0  0
   51.0948   26.0186   53.2459 H   0  0  0  0  0  0  0  0  0  0  0  0
   50.8206   24.9229   55.5973 H   0  0  0  0  0  0  0  0  0  0  0  0
   50.4372   27.0353   56.4669 H   0  0  0  0  0  0  0  0  0  0  0  0
   48.3036   25.7387   56.4678 H   0  0  0  0  0  0  0  0  0  0  0  0
   48.3431   23.5934   56.6577 H   0  0  0  0  0  0  0  0  0  0  0  0
   47.4404   23.6469   55.1056 H   0  0  0  0  0  0  0  0  0  0  0  0
   49.2087   23.3313   55.1056 H   0  0  0  0  0  0  0  0  0  0  0  0
   47.8580   27.1040   54.6436 H   0  0  0  0  0  0  0  0  0  0  0  0
   43.4016   26.5170   54.1595 H   0  0  0  0  0  0  0  0  0  0  0  0
   47.3123   24.0705   52.5170 H   0  0  0  0  0  0  0  0  0  0  0  0
   44.5251   21.5756   50.1305 H   0  0  0  0  0  0  0  0  0  0  0  0
 19 18  3  0
 18 16  1  0
 16 17  2  0
 16 14  1  0
 15 14  2  0
  2  1  1  0
  2  3  1  0
 17 10  1  0
 14 13  1  0
  4  3  1  0
  4  9  1  0
  3  5  1  0
 13 11  1  0
 10 11  1  0
 10  9  1  0
 11 12  2  0
  9  7  1  0
  5  6  1  0
  5  7  1  0
  7  8  1  0
  1 20  1  0
  2 21  1  0
  2 22  1  0
  3 23  1  0
  5 24  1  0
  6 25  1  0
  7 26  1  0
  8 27  1  0
  8 28  1  0
  8 29  1  0
  9 30  1  0
 13 31  1  0
 17 32  1  0
 19 33  1  0
A    1
O01
A    2
C03
A    3
C06
A    4
O08
A    5
C09
A    6
O11
A    7
C13
A    8
C15
A    9
C16
A   10
N18
A   11
C19
A   12
O20
A   13
N21
A   14
C23
A   15
O24
A   16
C25
A   17
C26
A   18
C28
A   19
C29
M  END
