4OR2_FM9_A_1901
     RDKit          3D

 44 46  0  0  0  0  0  0  0  0999 V2000
   26.1380  -20.2320   30.0490 C   0  0  0  0  0  0  0  0  0  0  0  0
   25.1900  -20.1250   29.1200 N   0  0  0  0  0  0  0  0  0  0  0  0
   25.5240  -23.5970   34.9370 S   0  0  0  0  0  0  0  0  0  0  0  0
   21.0450  -23.2680   34.3570 O   0  0  0  0  0  0  0  0  0  0  0  0
   17.6620  -25.8190   39.0090 F   0  0  0  0  0  0  0  0  0  0  0  0
   20.5050  -24.5210   36.2890 C   0  0  0  0  0  0  0  0  0  0  0  0
   20.6610  -24.2200   37.6140 C   0  0  0  0  0  0  0  0  0  0  0  0
   19.6600  -24.6680   38.6000 C   0  0  0  0  0  0  0  0  0  0  0  0
   18.5670  -25.3810   38.1520 C   0  0  0  0  0  0  0  0  0  0  0  0
   18.3860  -25.6820   36.7200 C   0  0  0  0  0  0  0  0  0  0  0  0
   19.3030  -25.2880   35.8180 C   0  0  0  0  0  0  0  0  0  0  0  0
   22.9240  -19.7560   27.2640 C   0  0  0  0  0  0  0  0  0  0  0  0
   21.5070  -19.3690   26.9980 C   0  0  0  0  0  0  0  0  0  0  0  0
   23.5460  -20.2880   26.0200 C   0  0  0  0  0  0  0  0  0  0  0  0
   24.8800  -21.8340   31.3550 C   0  0  0  0  0  0  0  0  0  0  0  0
   26.0090  -21.0400   31.1700 N   0  0  0  0  0  0  0  0  0  0  0  0
   23.8190  -21.7460   30.4480 C   0  0  0  0  0  0  0  0  0  0  0  0
   23.6100  -23.1070   33.2320 N   0  0  0  0  0  0  0  0  0  0  0  0
   24.0070  -20.8550   29.2940 C   0  0  0  0  0  0  0  0  0  0  0  0
   22.9000  -24.2590   35.3490 N   0  0  0  0  0  0  0  0  0  0  0  0
   22.9530  -20.7800   28.3010 N   0  0  0  0  0  0  0  0  0  0  0  0
   24.7900  -22.6280   32.6420 C   0  0  0  0  0  0  0  0  0  0  0  0
   25.9290  -22.7840   33.4490 C   0  0  0  0  0  0  0  0  0  0  0  0
   23.8660  -23.6830   34.4320 C   0  0  0  0  0  0  0  0  0  0  0  0
   21.4760  -23.9660   35.2500 C   0  0  0  0  0  0  0  0  0  0  0  0
   23.3880  -25.0340   36.4100 C   0  0  0  0  0  0  0  0  0  0  0  0
   27.0652  -19.6539   29.9222 H   0  0  0  0  0  0  0  0  0  0  0  0
   21.5361  -23.6418   37.9454 H   0  0  0  0  0  0  0  0  0  0  0  0
   19.7820  -24.4388   39.6689 H   0  0  0  0  0  0  0  0  0  0  0  0
   17.4942  -26.2330   36.3866 H   0  0  0  0  0  0  0  0  0  0  0  0
   19.1742  -25.5241   34.7514 H   0  0  0  0  0  0  0  0  0  0  0  0
   23.4885  -18.8727   27.5974 H   0  0  0  0  0  0  0  0  0  0  0  0
   20.9807  -19.2253   27.9532 H   0  0  0  0  0  0  0  0  0  0  0  0
   21.4847  -18.4319   26.4224 H   0  0  0  0  0  0  0  0  0  0  0  0
   21.0115  -20.1647   26.4224 H   0  0  0  0  0  0  0  0  0  0  0  0
   24.3576  -20.9821   26.2837 H   0  0  0  0  0  0  0  0  0  0  0  0
   22.7862  -20.8200   25.4287 H   0  0  0  0  0  0  0  0  0  0  0  0
   23.9537  -19.4549   25.4287 H   0  0  0  0  0  0  0  0  0  0  0  0
   22.8891  -22.3158   30.5912 H   0  0  0  0  0  0  0  0  0  0  0  0
   22.1955  -21.4773   28.3295 H   0  0  0  0  0  0  0  0  0  0  0  0
   26.9384  -22.4402   33.1790 H   0  0  0  0  0  0  0  0  0  0  0  0
   23.0973  -24.5724   37.3652 H   0  0  0  0  0  0  0  0  0  0  0  0
   22.9648  -26.0475   36.3487 H   0  0  0  0  0  0  0  0  0  0  0  0
   24.4848  -25.0903   36.3487 H   0  0  0  0  0  0  0  0  0  0  0  0
 14 12  1  0
 13 12  1  0
 12 21  1  0
 21 19  1  0
  2 19  1  0
  2  1  2  0
 19 17  2  0
  1 16  1  0
 17 15  1  0
 16 15  2  0
 15 22  1  0
 22 18  1  0
 22 23  2  0
 18 24  2  0
 23  3  1  0
  4 25  2  0
 24  3  1  0
 24 20  1  0
 25 20  1  0
 25  6  1  0
 20 26  1  0
 11  6  1  0
 11 10  2  0
  6  7  2  0
 10  9  1  0
  7  8  1  0
  9  8  2  0
  9  5  1  0
  1 27  1  0
  7 28  1  0
  8 29  1  0
 10 30  1  0
 11 31  1  0
 12 32  1  0
 13 33  1  0
 13 34  1  0
 13 35  1  0
 14 36  1  0
 14 37  1  0
 14 38  1  0
 17 39  1  0
 21 40  1  0
 23 41  1  0
 26 42  1  0
 26 43  1  0
 26 44  1  0
A    1
C1
A    2
N1
A    3
S1
A    4
O1
A    5
F1
A    6
C10
A    7
C11
A    8
C12
A    9
C13
A   10
C14
A   11
C15
A   12
C16
A   13
C17
A   14
C18
A   15
C2
A   16
N2
A   17
C3
A   18
N3
A   19
C4
A   20
N4
A   21
N5
A   22
C5
A   23
C6
A   24
C7
A   25
C8
A   26
C9
M  END
