4KBN_25U_A_201
     RDKit          3D

 43 45  0  0  0  0  0  0  0  0999 V2000
   14.5440    4.2570   17.9330 C   0  0  0  0  0  0  0  0  0  0  0  0
   15.5440    4.3670   19.0660 C   0  0  0  0  0  0  0  0  0  0  0  0
   16.8740    4.0350   18.8290 C   0  0  0  0  0  0  0  0  0  0  0  0
   17.4440    3.6980   17.5860 N   0  0  0  0  0  0  0  0  0  0  0  0
   18.8260    3.3920   17.5540 C   0  0  0  0  0  0  0  0  0  0  0  0
   19.4190    3.0640   16.4070 N   0  0  0  0  0  0  0  0  0  0  0  0
   19.5680    3.4260   18.6720 N   0  0  0  0  0  0  0  0  0  0  0  0
   19.0190    3.7610   19.8500 C   0  0  0  0  0  0  0  0  0  0  0  0
   19.7190    3.8090   20.9820 N   0  0  0  0  0  0  0  0  0  0  0  0
   17.6770    4.0890   19.9430 C   0  0  0  0  0  0  0  0  0  0  0  0
   17.0720    4.4330   21.1660 C   0  0  0  0  0  0  0  0  0  0  0  0
   16.5560    4.7320   22.1850 C   0  0  0  0  0  0  0  0  0  0  0  0
   15.9240    5.0860   23.4990 C   0  0  0  0  0  0  0  0  0  0  0  0
   15.5570    3.8530   24.0040 C   0  0  0  0  0  0  0  0  0  0  0  0
   14.2520    3.4120   23.8640 C   0  0  0  0  0  0  0  0  0  0  0  0
   16.4960    3.0510   24.6390 C   0  0  0  0  0  0  0  0  0  0  0  0
   16.1270    1.7990   25.1140 C   0  0  0  0  0  0  0  0  0  0  0  0
   14.8250    1.3470   24.9440 C   0  0  0  0  0  0  0  0  0  0  0  0
   13.9120    2.1240   24.2410 C   0  0  0  0  0  0  0  0  0  0  0  0
   12.5970    1.7130   24.1610 C   0  0  0  0  0  0  0  0  0  0  0  0
   11.6250    2.6790   23.9450 C   0  0  0  0  0  0  0  0  0  0  0  0
   10.2850    2.3050   23.8580 N   0  0  0  0  0  0  0  0  0  0  0  0
    9.9280    0.9600   23.9930 C   0  0  0  0  0  0  0  0  0  0  0  0
   10.9130   -0.0070   24.2180 N   0  0  0  0  0  0  0  0  0  0  0  0
   12.2550    0.3740   24.3040 C   0  0  0  0  0  0  0  0  0  0  0  0
   13.5312    4.1456   18.3474 H   0  0  0  0  0  0  0  0  0  0  0  0
   14.5892    5.1655   17.3145 H   0  0  0  0  0  0  0  0  0  0  0  0
   14.7856    3.3800   17.3145 H   0  0  0  0  0  0  0  0  0  0  0  0
   15.5292    5.4124   19.4080 H   0  0  0  0  0  0  0  0  0  0  0  0
   15.2082    3.6076   19.7875 H   0  0  0  0  0  0  0  0  0  0  0  0
   20.3203    2.5655   16.4173 H   0  0  0  0  0  0  0  0  0  0  0  0
   18.9762    3.3089   15.5099 H   0  0  0  0  0  0  0  0  0  0  0  0
   19.2333    3.7757   21.8897 H   0  0  0  0  0  0  0  0  0  0  0  0
   20.7461    3.8794   20.9498 H   0  0  0  0  0  0  0  0  0  0  0  0
   16.6438    5.5877   24.1625 H   0  0  0  0  0  0  0  0  0  0  0  0
   15.0807    5.7857   23.4023 H   0  0  0  0  0  0  0  0  0  0  0  0
   13.4852    4.0852   23.4531 H   0  0  0  0  0  0  0  0  0  0  0  0
   17.5293    3.4062   24.7655 H   0  0  0  0  0  0  0  0  0  0  0  0
   16.8666    1.1651   25.6251 H   0  0  0  0  0  0  0  0  0  0  0  0
   14.5175    0.3780   25.3640 H   0  0  0  0  0  0  0  0  0  0  0  0
   11.9107    3.7363   23.8428 H   0  0  0  0  0  0  0  0  0  0  0  0
    8.8715    0.6621   23.9222 H   0  0  0  0  0  0  0  0  0  0  0  0
   13.0348   -0.3808   24.4836 H   0  0  0  0  0  0  0  0  0  0  0  0
  6  5  1  0
  5  4  1  0
  5  7  2  0
  4  3  2  0
  1  2  1  0
  7  8  1  0
  3  2  1  0
  3 10  1  0
  8 10  2  0
  8  9  1  0
 10 11  1  0
 11 12  3  0
 12 13  1  0
 13 14  1  0
 22 21  2  0
 22 23  1  0
 15 14  2  0
 15 19  1  0
 21 20  1  0
 23 24  2  0
 14 16  1  0
 20 19  1  0
 20 25  2  0
 24 25  1  0
 19 18  2  0
 16 17  2  0
 18 17  1  0
  1 26  1  0
  1 27  1  0
  1 28  1  0
  2 29  1  0
  2 30  1  0
  6 31  1  0
  6 32  1  0
  9 33  1  0
  9 34  1  0
 13 35  1  0
 13 36  1  0
 15 37  1  0
 16 38  1  0
 17 39  1  0
 18 40  1  0
 21 41  1  0
 23 42  1  0
 25 43  1  0
A    1
CAA
A    2
CAO
A    3
C4
A    4
N3
A    5
C2
A    6
NAD
A    7
N1
A    8
C6
A    9
NAE
A   10
C5
A   11
CAF
A   12
CAG
A   13
CBB
A   14
CAY
A   15
CAN
A   16
CAM
A   17
CAV
A   18
CAL
A   19
CAX
A   20
CAW
A   21
CAJ
A   22
NAO
A   23
CAI
A   24
NAP
A   25
CAK
M  END
