4OQV_2V6_A_503
     RDKit          3D

 34 36  0  0  0  0  0  0  0  0999 V2000
    6.5690  -32.0640   -0.4230 F   0  0  0  0  0  0  0  0  0  0  0  0
    6.7930  -33.0200   -1.3030 C   0  0  0  0  0  0  0  0  0  0  0  0
    5.8070  -33.9430   -1.5450 C   0  0  0  0  0  0  0  0  0  0  0  0
    7.9890  -32.9280   -2.0890 C   0  0  0  0  0  0  0  0  0  0  0  0
    9.0600  -31.9230   -1.7720 C   0  0  0  0  0  0  0  0  0  0  0  0
   10.2460  -32.4890   -1.6610 F   0  0  0  0  0  0  0  0  0  0  0  0
    9.1870  -31.1620   -2.8330 F   0  0  0  0  0  0  0  0  0  0  0  0
    8.7620  -31.2750   -0.6860 F   0  0  0  0  0  0  0  0  0  0  0  0
    8.1980  -33.9560   -2.9850 C   0  0  0  0  0  0  0  0  0  0  0  0
    9.3300  -34.0650   -3.7650 F   0  0  0  0  0  0  0  0  0  0  0  0
    7.2680  -34.9490   -3.2410 C   0  0  0  0  0  0  0  0  0  0  0  0
    6.0800  -34.9370   -2.4670 C   0  0  0  0  0  0  0  0  0  0  0  0
    5.1920  -35.9730   -2.5500 N   0  0  0  0  0  0  0  0  0  0  0  0
    4.6900  -36.5210   -3.6850 C   0  0  0  0  0  0  0  0  0  0  0  0
    4.7980  -35.7530   -5.0060 C   0  0  0  0  0  0  0  0  0  0  0  0
    4.1490  -36.2950   -6.0820 C   0  0  0  0  0  0  0  0  0  0  0  0
    4.3300  -35.6460   -7.4570 C   0  0  0  0  0  0  0  0  0  0  0  0
    3.8470  -37.5090   -3.7110 N   0  0  0  0  0  0  0  0  0  0  0  0
    3.1730  -37.8890   -4.8710 C   0  0  0  0  0  0  0  0  0  0  0  0
    3.3400  -37.3840   -6.0510 N   0  0  0  0  0  0  0  0  0  0  0  0
    3.4470  -38.2360   -2.6200 N   0  0  0  0  0  0  0  0  0  0  0  0
    2.6540  -39.1320   -3.2140 C   0  0  0  0  0  0  0  0  0  0  0  0
    2.3710  -38.9220   -4.5060 N   0  0  0  0  0  0  0  0  0  0  0  0
    1.9530  -40.1450   -2.3190 C   0  0  0  0  0  0  0  0  0  0  0  0
    0.6760  -40.1560   -2.6420 F   0  0  0  0  0  0  0  0  0  0  0  0
    2.0990  -39.8440   -1.0320 F   0  0  0  0  0  0  0  0  0  0  0  0
    2.4080  -41.3410   -2.5650 F   0  0  0  0  0  0  0  0  0  0  0  0
    4.8381  -33.8943   -1.0264 H   0  0  0  0  0  0  0  0  0  0  0  0
    7.4431  -35.7142   -4.0115 H   0  0  0  0  0  0  0  0  0  0  0  0
    4.8711  -36.3792   -1.6595 H   0  0  0  0  0  0  0  0  0  0  0  0
    5.3673  -34.8151   -5.0855 H   0  0  0  0  0  0  0  0  0  0  0  0
    4.6235  -34.5935   -7.3299 H   0  0  0  0  0  0  0  0  0  0  0  0
    5.1134  -36.1804   -8.0144 H   0  0  0  0  0  0  0  0  0  0  0  0
    3.3831  -35.6978   -8.0144 H   0  0  0  0  0  0  0  0  0  0  0  0
 17 16  1  0
 16 20  2  0
 16 15  1  0
 20 19  1  0
 15 14  2  0
 19 23  2  0
 19 18  1  0
 23 22  1  0
 10  9  1  0
 18 14  1  0
 18 21  1  0
 14 13  1  0
 11  9  2  0
 11 12  1  0
 22 21  2  0
 22 24  1  0
  9  4  1  0
  7  5  1  0
 25 24  1  0
 27 24  1  0
 13 12  1  0
 12  3  2  0
 24 26  1  0
  4  5  1  0
  4  2  2  0
  5  6  1  0
  5  8  1  0
  3  2  1  0
  2  1  1  0
  3 28  1  0
 11 29  1  0
 13 30  1  0
 15 31  1  0
 17 32  1  0
 17 33  1  0
 17 34  1  0
A    1
F8
A    2
C5
A    3
C6
A    4
C4
A    5
C7
A    6
F3
A    7
F2
A    8
F1
A    9
C3
A   10
F7
A   11
C2
A   12
C1
A   13
N1
A   14
C8
A   15
C9
A   16
C10
A   17
C13
A   18
N2
A   19
C11
A   20
N3
A   21
N5
A   22
C12
A   23
N4
A   24
C14
A   25
F6
A   26
F4
A   27
F5
M  END
