1XWV_PE3_A_1001
     RDKit          3D

101100  0  0  0  0  0  0  0  0999 V2000
   -4.6340   -5.5910   16.9560 O   0  0  0  0  0  0  0  0  0  0  0  0
   -3.5860   -4.9960   17.7260 C   0  0  0  0  0  0  0  0  0  0  0  0
   -2.2330   -5.5290   17.2520 C   0  0  0  0  0  0  0  0  0  0  0  0
   -1.1630   -4.8880   17.9650 O   0  0  0  0  0  0  0  0  0  0  0  0
   -0.3760   -4.1080   17.0520 C   0  0  0  0  0  0  0  0  0  0  0  0
   -0.7730   -2.6400   17.0860 C   0  0  0  0  0  0  0  0  0  0  0  0
   -0.1320   -1.9750   15.9870 O   0  0  0  0  0  0  0  0  0  0  0  0
    0.6020   -0.8170   16.4140 C   0  0  0  0  0  0  0  0  0  0  0  0
    1.2670   -0.2230   15.1820 C   0  0  0  0  0  0  0  0  0  0  0  0
    2.0990    0.9060   15.4940 O   0  0  0  0  0  0  0  0  0  0  0  0
    1.4790    2.1320   15.0760 C   0  0  0  0  0  0  0  0  0  0  0  0
    2.4950    3.0310   14.3880 C   0  0  0  0  0  0  0  0  0  0  0  0
    2.5260    2.8200   12.9680 O   0  0  0  0  0  0  0  0  0  0  0  0
    1.6250    3.7410   12.3330 C   0  0  0  0  0  0  0  0  0  0  0  0
    1.5570    3.4630   10.8400 C   0  0  0  0  0  0  0  0  0  0  0  0
    0.6530    4.3730   10.1980 O   0  0  0  0  0  0  0  0  0  0  0  0
    0.2480    3.8080    8.9430 C   0  0  0  0  0  0  0  0  0  0  0  0
   -0.6670    4.7720    8.2070 C   0  0  0  0  0  0  0  0  0  0  0  0
   -1.2320    4.1170    7.0630 O   0  0  0  0  0  0  0  0  0  0  0  0
   -0.3620    4.2160    5.9280 C   0  0  0  0  0  0  0  0  0  0  0  0
   -1.1860    4.7620    4.7740 C   0  0  0  0  0  0  0  0  0  0  0  0
   -0.2920    4.7140    3.6590 O   0  0  0  0  0  0  0  0  0  0  0  0
   -0.8010    5.2720    2.4430 C   0  0  0  0  0  0  0  0  0  0  0  0
    0.5280    5.7190    1.8480 C   0  0  0  0  0  0  0  0  0  0  0  0
    0.6080    5.5510    0.4360 O   0  0  0  0  0  0  0  0  0  0  0  0
    0.9550    6.8130   -0.1610 C   0  0  0  0  0  0  0  0  0  0  0  0
    2.3470    7.3320    0.1590 C   0  0  0  0  0  0  0  0  0  0  0  0
    2.4370    7.9160    1.4660 O   0  0  0  0  0  0  0  0  0  0  0  0
    3.3830    7.1790    2.2570 C   0  0  0  0  0  0  0  0  0  0  0  0
    4.1090    8.0420    3.2780 C   0  0  0  0  0  0  0  0  0  0  0  0
    3.2510    8.4840    4.3400 O   0  0  0  0  0  0  0  0  0  0  0  0
    4.0840    8.6950    5.4890 C   0  0  0  0  0  0  0  0  0  0  0  0
    3.3230    8.4920    6.7900 C   0  0  0  0  0  0  0  0  0  0  0  0
    4.3040    8.4320    7.8360 O   0  0  0  0  0  0  0  0  0  0  0  0
    3.7120    8.3050    9.1370 C   0  0  0  0  0  0  0  0  0  0  0  0
    3.7020    9.6670    9.8150 C   0  0  0  0  0  0  0  0  0  0  0  0
    3.3770    9.5240   11.2060 O   0  0  0  0  0  0  0  0  0  0  0  0
    2.9440   10.7750   11.7660 C   0  0  0  0  0  0  0  0  0  0  0  0
    4.0520   11.8100   11.8630 C   0  0  0  0  0  0  0  0  0  0  0  0
    5.1100   11.3450   12.7200 O   0  0  0  0  0  0  0  0  0  0  0  0
    6.2710   10.9780   11.9600 C   0  0  0  0  0  0  0  0  0  0  0  0
    7.1820   12.1860   11.7450 C   0  0  0  0  0  0  0  0  0  0  0  0
    6.4580   13.2600   11.1160 O   0  0  0  0  0  0  0  0  0  0  0  0
   -5.3129   -5.9764   17.5649 H   0  0  0  0  0  0  0  0  0  0  0  0
   -3.6137   -3.9037   17.5991 H   0  0  0  0  0  0  0  0  0  0  0  0
   -3.7255   -5.2477   18.7877 H   0  0  0  0  0  0  0  0  0  0  0  0
   -2.1884   -6.6135   17.4302 H   0  0  0  0  0  0  0  0  0  0  0  0
   -2.1229   -5.3168   16.1783 H   0  0  0  0  0  0  0  0  0  0  0  0
    0.6850   -4.1977   17.3281 H   0  0  0  0  0  0  0  0  0  0  0  0
   -0.5499   -4.4887   16.0347 H   0  0  0  0  0  0  0  0  0  0  0  0
   -1.8650   -2.5475   16.9911 H   0  0  0  0  0  0  0  0  0  0  0  0
   -0.4624   -2.1850   18.0381 H   0  0  0  0  0  0  0  0  0  0  0  0
   -0.0822   -0.0823   16.8635 H   0  0  0  0  0  0  0  0  0  0  0  0
    1.3540   -1.0894   17.1692 H   0  0  0  0  0  0  0  0  0  0  0  0
    1.8876   -0.9979   14.7084 H   0  0  0  0  0  0  0  0  0  0  0  0
    0.4702    0.1260   14.5087 H   0  0  0  0  0  0  0  0  0  0  0  0
    0.6624    1.9048   14.3749 H   0  0  0  0  0  0  0  0  0  0  0  0
    1.0831    2.6520   15.9608 H   0  0  0  0  0  0  0  0  0  0  0  0
    2.2315    4.0806   14.5853 H   0  0  0  0  0  0  0  0  0  0  0  0
    3.4900    2.7882   14.7892 H   0  0  0  0  0  0  0  0  0  0  0  0
    0.6218    3.6277   12.7699 H   0  0  0  0  0  0  0  0  0  0  0  0
    1.9895    4.7667   12.4911 H   0  0  0  0  0  0  0  0  0  0  0  0
    2.5599    3.5818   10.4040 H   0  0  0  0  0  0  0  0  0  0  0  0
    1.1948    2.4357   10.6865 H   0  0  0  0  0  0  0  0  0  0  0  0
    1.1388    3.6110    8.3284 H   0  0  0  0  0  0  0  0  0  0  0  0
   -0.2937    2.8689    9.1292 H   0  0  0  0  0  0  0  0  0  0  0  0
   -1.4747    5.0965    8.8796 H   0  0  0  0  0  0  0  0  0  0  0  0
   -0.0883    5.6480    7.8789 H   0  0  0  0  0  0  0  0  0  0  0  0
    0.4718    4.8979    6.1511 H   0  0  0  0  0  0  0  0  0  0  0  0
    0.0606    3.2327    5.6740 H   0  0  0  0  0  0  0  0  0  0  0  0
   -2.0707    4.1338    4.5934 H   0  0  0  0  0  0  0  0  0  0  0  0
   -1.5677    5.7753    4.9679 H   0  0  0  0  0  0  0  0  0  0  0  0
   -1.3064    4.5207    1.8184 H   0  0  0  0  0  0  0  0  0  0  0  0
   -1.5696    6.0513    2.5520 H   0  0  0  0  0  0  0  0  0  0  0  0
    0.6714    6.7847    2.0797 H   0  0  0  0  0  0  0  0  0  0  0  0
    1.3090    5.0844    2.2922 H   0  0  0  0  0  0  0  0  0  0  0  0
    0.8778    6.7031   -1.2528 H   0  0  0  0  0  0  0  0  0  0  0  0
    0.2556    7.5483    0.2635 H   0  0  0  0  0  0  0  0  0  0  0  0
    3.0567    6.4937    0.0993 H   0  0  0  0  0  0  0  0  0  0  0  0
    2.5823    8.1196   -0.5719 H   0  0  0  0  0  0  0  0  0  0  0  0
    2.8461    6.3814    2.7915 H   0  0  0  0  0  0  0  0  0  0  0  0
    4.1416    6.7764    1.5697 H   0  0  0  0  0  0  0  0  0  0  0  0
    4.9327    7.4561    3.7119 H   0  0  0  0  0  0  0  0  0  0  0  0
    4.4776    8.9366    2.7547 H   0  0  0  0  0  0  0  0  0  0  0  0
    4.9234    7.9850    5.4542 H   0  0  0  0  0  0  0  0  0  0  0  0
    4.4410    9.7351    5.4632 H   0  0  0  0  0  0  0  0  0  0  0  0
    2.6357    9.3333    6.9625 H   0  0  0  0  0  0  0  0  0  0  0  0
    2.7220    7.5712    6.7576 H   0  0  0  0  0  0  0  0  0  0  0  0
    2.6807    7.9354    9.0378 H   0  0  0  0  0  0  0  0  0  0  0  0
    4.2950    7.5946    9.7415 H   0  0  0  0  0  0  0  0  0  0  0  0
    4.6960   10.1282    9.7193 H   0  0  0  0  0  0  0  0  0  0  0  0
    2.9457   10.3035    9.3325 H   0  0  0  0  0  0  0  0  0  0  0  0
    2.1421   11.1815   11.1322 H   0  0  0  0  0  0  0  0  0  0  0  0
    2.6014   10.5700   12.7910 H   0  0  0  0  0  0  0  0  0  0  0  0
    4.4581   11.9992   10.8584 H   0  0  0  0  0  0  0  0  0  0  0  0
    3.6349   12.7353   12.2870 H   0  0  0  0  0  0  0  0  0  0  0  0
    6.8265   10.1993   12.5032 H   0  0  0  0  0  0  0  0  0  0  0  0
    5.9461   10.6019   10.9787 H   0  0  0  0  0  0  0  0  0  0  0  0
    7.5642   12.5285   12.7180 H   0  0  0  0  0  0  0  0  0  0  0  0
    8.0162   11.8899   11.0920 H   0  0  0  0  0  0  0  0  0  0  0  0
    6.0642   13.8442   11.8115 H   0  0  0  0  0  0  0  0  0  0  0  0
  1  2  1  0
  2  3  1  0
  3  4  1  0
  4  5  1  0
  5  6  1  0
  6  7  1  0
  7  8  1  0
  8  9  1  0
  9 10  1  0
 10 11  1  0
 11 12  1  0
 12 13  1  0
 13 14  1  0
 14 15  1  0
 15 16  1  0
 16 17  1  0
 17 18  1  0
 18 19  1  0
 19 20  1  0
 20 21  1  0
 21 22  1  0
 22 23  1  0
 23 24  1  0
 24 25  1  0
 25 26  1  0
 26 27  1  0
 27 28  1  0
 28 29  1  0
 29 30  1  0
 30 31  1  0
 31 32  1  0
 32 33  1  0
 33 34  1  0
 34 35  1  0
 35 36  1  0
 36 37  1  0
 37 38  1  0
 38 39  1  0
 39 40  1  0
 40 41  1  0
 41 42  1  0
 42 43  1  0
  1 44  1  0
  2 45  1  0
  2 46  1  0
  3 47  1  0
  3 48  1  0
  5 49  1  0
  5 50  1  0
  6 51  1  0
  6 52  1  0
  8 53  1  0
  8 54  1  0
  9 55  1  0
  9 56  1  0
 11 57  1  0
 11 58  1  0
 12 59  1  0
 12 60  1  0
 14 61  1  0
 14 62  1  0
 15 63  1  0
 15 64  1  0
 17 65  1  0
 17 66  1  0
 18 67  1  0
 18 68  1  0
 20 69  1  0
 20 70  1  0
 21 71  1  0
 21 72  1  0
 23 73  1  0
 23 74  1  0
 24 75  1  0
 24 76  1  0
 26 77  1  0
 26 78  1  0
 27 79  1  0
 27 80  1  0
 29 81  1  0
 29 82  1  0
 30 83  1  0
 30 84  1  0
 32 85  1  0
 32 86  1  0
 33 87  1  0
 33 88  1  0
 35 89  1  0
 35 90  1  0
 36 91  1  0
 36 92  1  0
 38 93  1  0
 38 94  1  0
 39 95  1  0
 39 96  1  0
 41 97  1  0
 41 98  1  0
 42 99  1  0
 42100  1  0
 43101  1  0
A    1
O43
A    2
C42
A    3
C41
A    4
O40
A    5
C39
A    6
C38
A    7
O37
A    8
C36
A    9
C35
A   10
O34
A   11
C33
A   12
C32
A   13
O31
A   14
C30
A   15
C29
A   16
O28
A   17
C27
A   18
C26
A   19
O25
A   20
C24
A   21
C23
A   22
O22
A   23
C21
A   24
C20
A   25
O19
A   26
C18
A   27
C17
A   28
O16
A   29
C15
A   30
C14
A   31
O13
A   32
C12
A   33
C11
A   34
O10
A   35
C9
A   36
C8
A   37
O7
A   38
C6
A   39
C5
A   40
O4
A   41
C3
A   42
C2
A   43
O1
M  END
