2VDB_NPS_A_1591
     RDKit          3D

 31 32  0  0  0  0  0  0  0  0999 V2000
   15.2910   -5.2140   27.9360 C   0  0  0  0  0  0  0  0  0  0  0  0
   16.0220   -6.3350   27.7880 O   0  0  0  0  0  0  0  0  0  0  0  0
   15.5610   -4.0570   27.2550 C   0  0  0  0  0  0  0  0  0  0  0  0
   10.8420   -0.9840   29.7830 C   0  0  0  0  0  0  0  0  0  0  0  0
   14.7710   -2.9430   27.4470 C   0  0  0  0  0  0  0  0  0  0  0  0
   13.7020   -2.9750   28.3200 C   0  0  0  0  0  0  0  0  0  0  0  0
   13.4420   -4.2240   29.0230 C   0  0  0  0  0  0  0  0  0  0  0  0
   14.2460   -5.2920   28.8090 C   0  0  0  0  0  0  0  0  0  0  0  0
   12.8630   -1.9050   28.5630 C   0  0  0  0  0  0  0  0  0  0  0  0
   11.8230   -2.0480   29.4710 C   0  0  0  0  0  0  0  0  0  0  0  0
   10.2450   -0.4410   28.5070 C   0  0  0  0  0  0  0  0  0  0  0  0
   12.4110   -4.3300   29.8980 C   0  0  0  0  0  0  0  0  0  0  0  0
   11.6110   -3.2440   30.1000 C   0  0  0  0  0  0  0  0  0  0  0  0
   17.0470   -6.3920   26.8530 C   0  0  0  0  0  0  0  0  0  0  0  0
   11.5310    1.2210   30.1270 O   0  0  0  0  0  0  0  0  0  0  0  0
   11.1800    0.0260   31.8540 O   0  0  0  0  0  0  0  0  0  0  0  0
   11.2250    0.1560   30.6460 C   0  0  0  0  0  0  0  0  0  0  0  0
   16.4082   -4.0162   26.5546 H   0  0  0  0  0  0  0  0  0  0  0  0
   10.1348   -1.5368   30.4188 H   0  0  0  0  0  0  0  0  0  0  0  0
   14.9956   -2.0170   26.8974 H   0  0  0  0  0  0  0  0  0  0  0  0
   14.0543   -6.2332   29.3452 H   0  0  0  0  0  0  0  0  0  0  0  0
   13.0176   -0.9487   28.0419 H   0  0  0  0  0  0  0  0  0  0  0  0
    9.4516    0.2806   28.7515 H   0  0  0  0  0  0  0  0  0  0  0  0
   11.0285    0.0604   27.9199 H   0  0  0  0  0  0  0  0  0  0  0  0
    9.8199   -1.2684   27.9199 H   0  0  0  0  0  0  0  0  0  0  0  0
   12.2240   -5.2724   30.4336 H   0  0  0  0  0  0  0  0  0  0  0  0
   10.7631   -3.3333   30.7951 H   0  0  0  0  0  0  0  0  0  0  0  0
   18.0149   -6.4458   27.3728 H   0  0  0  0  0  0  0  0  0  0  0  0
   16.9192   -7.2844   26.2227 H   0  0  0  0  0  0  0  0  0  0  0  0
   17.0189   -5.4909   26.2227 H   0  0  0  0  0  0  0  0  0  0  0  0
   11.7552    2.0014   30.6935 H   0  0  0  0  0  0  0  0  0  0  0  0
 15 17  1  0
 17 16  2  0
 17  4  1  0
  4 11  1  0
  4 10  1  0
 10  9  2  0
 10 13  1  0
  9  6  1  0
  6  5  2  0
  6  7  1  0
  5  3  1  0
  3  1  2  0
 13 12  2  0
 12  7  1  0
  7  8  2  0
  8  1  1  0
  1  2  1  0
  2 14  1  0
  3 18  1  0
  4 19  1  0
  5 20  1  0
  8 21  1  0
  9 22  1  0
 11 23  1  0
 11 24  1  0
 11 25  1  0
 12 26  1  0
 13 27  1  0
 14 28  1  0
 14 29  1  0
 14 30  1  0
 15 31  1  0
A    1
C1
A    2
O2
A    3
C2
A    4
C14
A    5
C3
A    6
C4
A    7
C5
A    8
C6
A    9
C7
A   10
C8
A   11
C10
A   12
C13
A   13
C11
A   14
C12
A   15
O
A   16
OXT
A   17
C15
M  END
