4OT5_481_A_701
     RDKit          3D

 81 86  0  0  0  0  0  0  0  0999 V2000
   25.9210    6.9220    7.7090 O   0  0  0  0  0  0  0  0  0  0  0  0
   26.2250    8.0990    7.4350 C   0  0  0  0  0  0  0  0  0  0  0  0
   26.0440    9.1690    8.4770 C   0  0  0  0  0  0  0  0  0  0  0  0
   25.8250   10.5170    8.0820 C   0  0  0  0  0  0  0  0  0  0  0  0
   25.6180   11.5430    9.0430 C   0  0  0  0  0  0  0  0  0  0  0  0
   25.5840   11.2120   10.4150 C   0  0  0  0  0  0  0  0  0  0  0  0
   25.4230   12.2640   11.4840 C   0  0  0  0  0  0  0  0  0  0  0  0
   25.0770   11.6900   12.8450 C   0  0  0  0  0  0  0  0  0  0  0  0
   24.3780   13.3020   11.0770 C   0  0  0  0  0  0  0  0  0  0  0  0
   26.7600   13.0290   11.6390 C   0  0  0  0  0  0  0  0  0  0  0  0
   25.8050    9.8680   10.7860 C   0  0  0  0  0  0  0  0  0  0  0  0
   25.9900    8.8730    9.8050 C   0  0  0  0  0  0  0  0  0  0  0  0
   26.6520    8.4870    6.2180 N   0  0  0  0  0  0  0  0  0  0  0  0
   26.7490    7.6300    5.1330 C   0  0  0  0  0  0  0  0  0  0  0  0
   25.5340    7.1880    4.5600 C   0  0  0  0  0  0  0  0  0  0  0  0
   27.9890    7.2610    4.5970 C   0  0  0  0  0  0  0  0  0  0  0  0
   27.9760    6.4350    3.4480 C   0  0  0  0  0  0  0  0  0  0  0  0
   26.7890    5.9820    2.8630 C   0  0  0  0  0  0  0  0  0  0  0  0
   25.5730    6.3840    3.4060 C   0  0  0  0  0  0  0  0  0  0  0  0
   24.3340    5.9480    2.7600 C   0  0  0  0  0  0  0  0  0  0  0  0
   24.3410    5.7960    1.3650 N   0  0  0  0  0  0  0  0  0  0  0  0
   23.1620    5.8170    3.4640 C   0  0  0  0  0  0  0  0  0  0  0  0
   21.9840    5.4440    2.8060 N   0  0  0  0  0  0  0  0  0  0  0  0
   22.0170    5.2570    1.4420 C   0  0  0  0  0  0  0  0  0  0  0  0
   20.7580    4.8990    1.0470 N   0  0  0  0  0  0  0  0  0  0  0  0
   19.9500    4.8680    2.1680 C   0  0  0  0  0  0  0  0  0  0  0  0
   20.7070    5.2320    3.2610 C   0  0  0  0  0  0  0  0  0  0  0  0
   23.2030    5.4280    0.7430 C   0  0  0  0  0  0  0  0  0  0  0  0
   23.1550    5.2390   -0.6310 N   0  0  0  0  0  0  0  0  0  0  0  0
   24.1560    5.3000   -1.5650 C   0  0  0  0  0  0  0  0  0  0  0  0
   25.4510    5.7120   -1.2890 C   0  0  0  0  0  0  0  0  0  0  0  0
   26.4080    5.7850   -2.3270 C   0  0  0  0  0  0  0  0  0  0  0  0
   26.0420    5.4210   -3.6630 C   0  0  0  0  0  0  0  0  0  0  0  0
   24.7060    5.0120   -3.9220 C   0  0  0  0  0  0  0  0  0  0  0  0
   23.7750    4.9370   -2.8730 C   0  0  0  0  0  0  0  0  0  0  0  0
   27.0290    5.5210   -4.7990 C   0  0  0  0  0  0  0  0  0  0  0  0
   28.0300    4.8850   -4.6770 O   0  0  0  0  0  0  0  0  0  0  0  0
   26.8120    6.2190   -5.9200 N   0  0  0  0  0  0  0  0  0  0  0  0
   25.6430    7.1060   -6.0810 C   0  0  0  0  0  0  0  0  0  0  0  0
   25.1770    7.3320   -7.5000 C   0  0  0  0  0  0  0  0  0  0  0  0
   26.2930    7.3640   -8.4750 N   0  0  0  0  0  0  0  0  0  0  0  0
   26.9650    8.6840   -8.7540 C   0  0  0  0  0  0  0  0  0  0  0  0
   27.2590    6.2600   -8.3310 C   0  0  0  0  0  0  0  0  0  0  0  0
   27.8840    6.2300   -6.9570 C   0  0  0  0  0  0  0  0  0  0  0  0
   25.8156   10.7707    7.0117 H   0  0  0  0  0  0  0  0  0  0  0  0
   25.4854   12.5863    8.7207 H   0  0  0  0  0  0  0  0  0  0  0  0
   25.4737   12.3481   13.6321 H   0  0  0  0  0  0  0  0  0  0  0  0
   23.9840   11.6165   12.9449 H   0  0  0  0  0  0  0  0  0  0  0  0
   25.5224   10.6892   12.9449 H   0  0  0  0  0  0  0  0  0  0  0  0
   23.9313   13.7457   11.9790 H   0  0  0  0  0  0  0  0  0  0  0  0
   24.8582   14.0910   10.4795 H   0  0  0  0  0  0  0  0  0  0  0  0
   23.5923   12.8165   10.4795 H   0  0  0  0  0  0  0  0  0  0  0  0
   26.9865   13.1586   12.7076 H   0  0  0  0  0  0  0  0  0  0  0  0
   27.5678   12.4564   11.1598 H   0  0  0  0  0  0  0  0  0  0  0  0
   26.6757   14.0155   11.1598 H   0  0  0  0  0  0  0  0  0  0  0  0
   25.8331    9.5946   11.8511 H   0  0  0  0  0  0  0  0  0  0  0  0
   26.0940    7.8248   10.1220 H   0  0  0  0  0  0  0  0  0  0  0  0
   26.9207    9.4726    6.0867 H   0  0  0  0  0  0  0  0  0  0  0  0
   24.5708    7.4692    5.0107 H   0  0  0  0  0  0  0  0  0  0  0  0
   28.9329    7.5988    5.0498 H   0  0  0  0  0  0  0  0  0  0  0  0
   28.9350    6.1382    2.9983 H   0  0  0  0  0  0  0  0  0  0  0  0
   26.8166    5.3178    1.9866 H   0  0  0  0  0  0  0  0  0  0  0  0
   23.1489    6.0056    4.5476 H   0  0  0  0  0  0  0  0  0  0  0  0
   18.8837    4.5985    2.1850 H   0  0  0  0  0  0  0  0  0  0  0  0
   20.3551    5.3331    4.2983 H   0  0  0  0  0  0  0  0  0  0  0  0
   22.2219    5.0186   -1.0073 H   0  0  0  0  0  0  0  0  0  0  0  0
   25.7340    5.9824   -0.2610 H   0  0  0  0  0  0  0  0  0  0  0  0
   27.4325    6.1209   -2.1088 H   0  0  0  0  0  0  0  0  0  0  0  0
   24.4002    4.7535   -4.9465 H   0  0  0  0  0  0  0  0  0  0  0  0
   22.7486    4.5950   -3.0720 H   0  0  0  0  0  0  0  0  0  0  0  0
   25.9010    8.0850   -5.6510 H   0  0  0  0  0  0  0  0  0  0  0  0
   24.8110    6.5975   -5.5718 H   0  0  0  0  0  0  0  0  0  0  0  0
   24.6435    8.2929   -7.5455 H   0  0  0  0  0  0  0  0  0  0  0  0
   24.5251    6.4887   -7.7718 H   0  0  0  0  0  0  0  0  0  0  0  0
   27.2156    9.1762   -7.8027 H   0  0  0  0  0  0  0  0  0  0  0  0
   27.8853    8.5121   -9.3315 H   0  0  0  0  0  0  0  0  0  0  0  0
   26.2845    9.3270   -9.3315 H   0  0  0  0  0  0  0  0  0  0  0  0
   26.7376    5.3071   -8.5047 H   0  0  0  0  0  0  0  0  0  0  0  0
   28.0626    6.4140   -9.0662 H   0  0  0  0  0  0  0  0  0  0  0  0
   28.5012    5.3251   -6.8552 H   0  0  0  0  0  0  0  0  0  0  0  0
   28.5134    7.1220   -6.8224 H   0  0  0  0  0  0  0  0  0  0  0  0
 42 41  1  0
 41 43  1  0
 41 40  1  0
 43 44  1  0
 40 39  1  0
 44 38  1  0
 39 38  1  0
 38 36  1  0
 36 37  2  0
 36 33  1  0
 34 33  2  0
 34 35  1  0
 33 32  1  0
 35 30  2  0
 32 31  2  0
 30 31  1  0
 30 29  1  0
 29 28  1  0
 28 21  2  0
 28 24  1  0
 25 24  2  0
 25 26  1  0
 21 20  1  0
 24 23  1  0
 26 27  2  0
 20 19  1  0
 20 22  2  0
 23 27  1  0
 23 22  1  0
 18 19  1  0
 18 17  2  0
 19 15  2  0
 17 16  1  0
 15 14  1  0
 16 14  2  0
 14 13  1  0
 13  2  1  0
  2  1  2  0
  2  3  1  0
  4  3  2  0
  4  5  1  0
  3 12  1  0
  5  6  2  0
 12 11  2  0
  6 11  1  0
  6  7  1  0
  9  7  1  0
  7 10  1  0
  7  8  1  0
  4 45  1  0
  5 46  1  0
  8 47  1  0
  8 48  1  0
  8 49  1  0
  9 50  1  0
  9 51  1  0
  9 52  1  0
 10 53  1  0
 10 54  1  0
 10 55  1  0
 11 56  1  0
 12 57  1  0
 13 58  1  0
 15 59  1  0
 16 60  1  0
 17 61  1  0
 18 62  1  0
 22 63  1  0
 26 64  1  0
 27 65  1  0
 29 66  1  0
 31 67  1  0
 32 68  1  0
 34 69  1  0
 35 70  1  0
 39 71  1  0
 39 72  1  0
 40 73  1  0
 40 74  1  0
 42 75  1  0
 42 76  1  0
 42 77  1  0
 43 78  1  0
 43 79  1  0
 44 80  1  0
 44 81  1  0
A    1
O34
A    2
C32
A    3
C33
A    4
C39
A    5
C38
A    6
C37
A    7
C40
A    8
C43
A    9
C42
A   10
C41
A   11
C36
A   12
C35
A   13
N31
A   14
C13
A   15
C12
A   16
C14
A   17
C15
A   18
C16
A   19
C11
A   20
C3
A   21
N2
A   22
C4
A   23
N6
A   24
C5
A   25
N9
A   26
C8
A   27
C7
A   28
C1
A   29
N10
A   30
C17
A   31
C20
A   32
C21
A   33
C22
A   34
C19
A   35
C18
A   36
C23
A   37
O24
A   38
N25
A   39
C30
A   40
C29
A   41
N28
A   42
C44
A   43
C27
A   44
C26
M  END
