4OTR_2V3_A_701
     RDKit          3D

 83 89  0  0  0  0  0  0  0  0999 V2000
   22.6330    5.8100    0.5650 C   0  0  0  0  0  0  0  0  0  0  0  0
   23.7470    6.1860    1.3060 C   0  0  0  0  0  0  0  0  0  0  0  0
   23.6160    6.3290    2.7390 C   0  0  0  0  0  0  0  0  0  0  0  0
   22.3700    6.0720    3.3510 C   0  0  0  0  0  0  0  0  0  0  0  0
   21.3900    5.5830    1.2400 C   0  0  0  0  0  0  0  0  0  0  0  0
   21.2720    5.7070    2.5980 N   0  0  0  0  0  0  0  0  0  0  0  0
   22.6070    5.6370   -0.8550 N   0  0  0  0  0  0  0  0  0  0  0  0
   24.7920    6.7020    3.6030 C   0  0  0  0  0  0  0  0  0  0  0  0
   25.9790    6.0100    3.3850 C   0  0  0  0  0  0  0  0  0  0  0  0
   27.1200    6.2360    4.1440 C   0  0  0  0  0  0  0  0  0  0  0  0
   27.0990    7.1680    5.1740 C   0  0  0  0  0  0  0  0  0  0  0  0
   25.9220    7.8990    5.3670 C   0  0  0  0  0  0  0  0  0  0  0  0
   24.7610    7.6860    4.6260 C   0  0  0  0  0  0  0  0  0  0  0  0
   25.8520    8.8680    6.3790 N   0  0  0  0  0  0  0  0  0  0  0  0
   26.1990   10.1830    6.0790 C   0  0  0  0  0  0  0  0  0  0  0  0
   26.2050   11.1860    6.9810 C   0  0  0  0  0  0  0  0  0  0  0  0
   25.4630    8.4750    7.6460 C   0  0  0  0  0  0  0  0  0  0  0  0
   25.3400    9.5630    8.6920 C   0  0  0  0  0  0  0  0  0  0  0  0
   25.7040   10.9130    8.3440 C   0  0  0  0  0  0  0  0  0  0  0  0
   25.5450   11.9630    9.2910 C   0  0  0  0  0  0  0  0  0  0  0  0
   25.0450   11.7010   10.5640 C   0  0  0  0  0  0  0  0  0  0  0  0
   24.6820   10.3790   10.9040 C   0  0  0  0  0  0  0  0  0  0  0  0
   24.8350    9.3380    9.9780 C   0  0  0  0  0  0  0  0  0  0  0  0
   25.1970    7.2850    7.8960 O   0  0  0  0  0  0  0  0  0  0  0  0
   23.5260    8.5370    4.8940 C   0  0  0  0  0  0  0  0  0  0  0  0
   22.6680    7.9510    5.9370 O   0  0  0  0  0  0  0  0  0  0  0  0
   19.9280    5.4720    3.1400 C   0  0  0  0  0  0  0  0  0  0  0  0
   20.3990    5.2590    0.6050 O   0  0  0  0  0  0  0  0  0  0  0  0
   23.6700    5.6790   -1.7510 C   0  0  0  0  0  0  0  0  0  0  0  0
   24.9440   12.8690   11.5500 C   0  0  0  0  0  0  0  0  0  0  0  0
   24.4710    8.0970   10.2880 F   0  0  0  0  0  0  0  0  0  0  0  0
   23.6400   13.1060   12.3410 C   0  0  0  0  0  0  0  0  0  0  0  0
   24.8900   12.5390   13.0550 C   0  0  0  0  0  0  0  0  0  0  0  0
   23.3970    5.3390   -3.1000 C   0  0  0  0  0  0  0  0  0  0  0  0
   24.4430    5.4220   -4.0040 C   0  0  0  0  0  0  0  0  0  0  0  0
   25.7400    5.7760   -3.5650 C   0  0  0  0  0  0  0  0  0  0  0  0
   25.9240    6.0780   -2.1960 C   0  0  0  0  0  0  0  0  0  0  0  0
   24.9070    6.0120   -1.3500 N   0  0  0  0  0  0  0  0  0  0  0  0
   26.8510    5.8570   -4.4750 N   0  0  0  0  0  0  0  0  0  0  0  0
   26.9450    4.8750   -5.5750 C   0  0  0  0  0  0  0  0  0  0  0  0
   27.6100    3.5520   -5.1210 C   0  0  0  0  0  0  0  0  0  0  0  0
   28.9840    3.8450   -4.6260 N   0  0  0  0  0  0  0  0  0  0  0  0
   28.9970    4.8650   -3.5340 C   0  0  0  0  0  0  0  0  0  0  0  0
   28.1750    6.1450   -3.8510 C   0  0  0  0  0  0  0  0  0  0  0  0
   29.9840    4.1540   -5.6790 C   0  0  0  0  0  0  0  0  0  0  0  0
   31.0160    3.0160   -5.7440 C   0  0  0  0  0  0  0  0  0  0  0  0
   24.7116    6.3716    0.8110 H   0  0  0  0  0  0  0  0  0  0  0  0
   22.2727    6.1638    4.4428 H   0  0  0  0  0  0  0  0  0  0  0  0
   21.6803    5.4580   -1.2675 H   0  0  0  0  0  0  0  0  0  0  0  0
   26.0152    5.2575    2.5835 H   0  0  0  0  0  0  0  0  0  0  0  0
   28.0421    5.6760    3.9292 H   0  0  0  0  0  0  0  0  0  0  0  0
   27.9781    7.3258    5.8161 H   0  0  0  0  0  0  0  0  0  0  0  0
   26.4857   10.4181    5.0433 H   0  0  0  0  0  0  0  0  0  0  0  0
   26.5748   12.1853    6.7078 H   0  0  0  0  0  0  0  0  0  0  0  0
   25.8197   12.9917    9.0148 H   0  0  0  0  0  0  0  0  0  0  0  0
   24.2759   10.1647   11.9036 H   0  0  0  0  0  0  0  0  0  0  0  0
   23.8478    9.5373    5.2195 H   0  0  0  0  0  0  0  0  0  0  0  0
   22.9416    8.5901    3.9636 H   0  0  0  0  0  0  0  0  0  0  0  0
   23.0217    8.1926    6.8295 H   0  0  0  0  0  0  0  0  0  0  0  0
   19.9695    5.4793    4.2392 H   0  0  0  0  0  0  0  0  0  0  0  0
   19.2491    6.2651    2.7935 H   0  0  0  0  0  0  0  0  0  0  0  0
   19.5584    4.4956    2.7935 H   0  0  0  0  0  0  0  0  0  0  0  0
   25.5687   13.5007   10.9014 H   0  0  0  0  0  0  0  0  0  0  0  0
   23.3031   14.1316   12.5524 H   0  0  0  0  0  0  0  0  0  0  0  0
   22.5935   12.7855   12.2313 H   0  0  0  0  0  0  0  0  0  0  0  0
   24.9046   11.4911   13.3893 H   0  0  0  0  0  0  0  0  0  0  0  0
   25.4807   12.8284   13.9367 H   0  0  0  0  0  0  0  0  0  0  0  0
   22.3926    5.0213   -3.4167 H   0  0  0  0  0  0  0  0  0  0  0  0
   24.2641    5.2115   -5.0688 H   0  0  0  0  0  0  0  0  0  0  0  0
   26.9196    6.3701   -1.8307 H   0  0  0  0  0  0  0  0  0  0  0  0
   27.5425    5.3109   -6.3893 H   0  0  0  0  0  0  0  0  0  0  0  0
   25.9231    4.6427   -5.9093 H   0  0  0  0  0  0  0  0  0  0  0  0
   27.0160    3.0987   -4.3137 H   0  0  0  0  0  0  0  0  0  0  0  0
   27.6614    2.8521   -5.9680 H   0  0  0  0  0  0  0  0  0  0  0  0
   28.5816    4.4039   -2.6258 H   0  0  0  0  0  0  0  0  0  0  0  0
   30.0427    5.1826   -3.4093 H   0  0  0  0  0  0  0  0  0  0  0  0
   28.7577    6.7718   -4.5421 H   0  0  0  0  0  0  0  0  0  0  0  0
   27.9807    6.6524   -2.8946 H   0  0  0  0  0  0  0  0  0  0  0  0
   30.4927    5.0990   -5.4376 H   0  0  0  0  0  0  0  0  0  0  0  0
   29.4792    4.2518   -6.6514 H   0  0  0  0  0  0  0  0  0  0  0  0
   31.2915    2.7122   -4.7233 H   0  0  0  0  0  0  0  0  0  0  0  0
   30.5821    2.1575   -6.2776 H   0  0  0  0  0  0  0  0  0  0  0  0
   31.9127    3.3642   -6.2776 H   0  0  0  0  0  0  0  0  0  0  0  0
 46 45  1  0
 45 42  1  0
 40 41  1  0
 40 39  1  0
 41 42  1  0
 42 43  1  0
 39 44  1  0
 39 36  1  0
 35 36  1  0
 35 34  2  0
 44 43  1  0
 36 37  2  0
 34 29  1  0
 37 38  1  0
 29 38  2  0
 29  7  1  0
  7  1  1  0
  1  5  1  0
  1  2  2  0
 28  5  2  0
  5  6  1  0
  2  3  1  0
  6 27  1  0
  6  4  1  0
  3  4  2  0
  3  8  1  0
  9  8  2  0
  9 10  1  0
  8 13  1  0
 10 11  2  0
 13 25  1  0
 13 12  2  0
 25 26  1  0
 11 12  1  0
 12 14  1  0
 15 14  1  0
 15 16  2  0
 14 17  1  0
 16 19  1  0
 17 24  2  0
 17 18  1  0
 19 18  2  0
 19 20  1  0
 18 23  1  0
 20 21  2  0
 23 31  1  0
 23 22  2  0
 21 22  1  0
 21 30  1  0
 30 32  1  0
 30 33  1  0
 32 33  1  0
  2 47  1  0
  4 48  1  0
  7 49  1  0
  9 50  1  0
 10 51  1  0
 11 52  1  0
 15 53  1  0
 16 54  1  0
 20 55  1  0
 22 56  1  0
 25 57  1  0
 25 58  1  0
 26 59  1  0
 27 60  1  0
 27 61  1  0
 27 62  1  0
 30 63  1  0
 32 64  1  0
 32 65  1  0
 33 66  1  0
 33 67  1  0
 34 68  1  0
 35 69  1  0
 37 70  1  0
 40 71  1  0
 40 72  1  0
 41 73  1  0
 41 74  1  0
 43 75  1  0
 43 76  1  0
 44 77  1  0
 44 78  1  0
 45 79  1  0
 45 80  1  0
 46 81  1  0
 46 82  1  0
 46 83  1  0
A    1
C1
A    2
C2
A    3
C3
A    4
C4
A    5
C5
A    6
N6
A    7
N7
A    8
C8
A    9
C9
A   10
C10
A   11
C11
A   12
C12
A   13
C13
A   14
N14
A   15
C15
A   16
C16
A   17
C17
A   18
C18
A   19
C19
A   20
C20
A   21
C21
A   22
C22
A   23
C23
A   24
O24
A   25
C25
A   26
O26
A   27
C27
A   28
O28
A   29
C29
A   30
C30
A   31
F31
A   32
C32
A   33
C33
A   34
C34
A   35
C35
A   36
C36
A   37
C37
A   38
N38
A   39
N39
A   40
C40
A   41
C41
A   42
N42
A   43
C43
A   44
C44
A   45
C45
A   46
C46
M  END
