3SOA_DB8_A_445
     RDKit          3D

 65 68  0  0  0  0  0  0  0  0999 V2000
  -46.2890  -11.8980   31.9630 C   0  0  0  0  0  0  0  0  0  0  0  0
  -40.7340   -3.3480   34.4650 O   0  0  0  0  0  0  0  0  0  0  0  0
  -45.9370  -16.7140   33.9290 C   0  0  0  0  0  0  0  0  0  0  0  0
  -42.0470   -5.6070   36.9580 N   0  0  0  0  0  0  0  0  0  0  0  0
  -41.6410   -2.5430   31.7040 Cl  0  0  0  0  0  0  0  0  0  0  0  0
  -43.8530   -7.4090   31.5070 Cl  0  0  0  0  0  0  0  0  0  0  0  0
  -42.6040   -6.4970   36.8710 C   0  0  0  0  0  0  0  0  0  0  0  0
  -44.1270   -8.3740   37.7730 C   0  0  0  0  0  0  0  0  0  0  0  0
  -42.6710   -5.0430   31.8540 C   0  0  0  0  0  0  0  0  0  0  0  0
  -41.7470   -5.6360   34.3880 C   0  0  0  0  0  0  0  0  0  0  0  0
  -45.8070  -11.4630   36.5110 C   0  0  0  0  0  0  0  0  0  0  0  0
  -44.4960  -10.5590   34.1910 C   0  0  0  0  0  0  0  0  0  0  0  0
  -46.3970  -15.2540   33.9000 C   0  0  0  0  0  0  0  0  0  0  0  0
  -46.3040  -14.6450   35.2980 C   0  0  0  0  0  0  0  0  0  0  0  0
  -49.7410  -20.4620   32.0550 C   0  0  0  0  0  0  0  0  0  0  0  0
  -46.9010  -18.9560   34.0040 C   0  0  0  0  0  0  0  0  0  0  0  0
  -47.5400  -17.3980   32.3130 C   0  0  0  0  0  0  0  0  0  0  0  0
  -48.0990  -19.8290   33.6830 C   0  0  0  0  0  0  0  0  0  0  0  0
  -48.7550  -18.2620   32.0640 C   0  0  0  0  0  0  0  0  0  0  0  0
  -44.8800   -9.5430   37.6960 N   0  0  0  0  0  0  0  0  0  0  0  0
  -42.7700   -7.9670   34.2760 N   0  0  0  0  0  0  0  0  0  0  0  0
  -45.3390  -12.3390   32.8620 O   0  0  0  0  0  0  0  0  0  0  0  0
  -46.8510  -13.3800   35.2230 O   0  0  0  0  0  0  0  0  0  0  0  0
  -41.4640   -4.3120   33.7870 C   0  0  0  0  0  0  0  0  0  0  0  0
  -41.9390   -4.0440   32.5110 C   0  0  0  0  0  0  0  0  0  0  0  0
  -42.9410   -6.2980   32.4360 C   0  0  0  0  0  0  0  0  0  0  0  0
  -43.4290   -7.8160   36.7070 C   0  0  0  0  0  0  0  0  0  0  0  0
  -42.4850   -6.6150   33.7650 C   0  0  0  0  0  0  0  0  0  0  0  0
  -45.2610  -11.7280   34.1420 C   0  0  0  0  0  0  0  0  0  0  0  0
  -45.9310  -12.2080   35.3090 C   0  0  0  0  0  0  0  0  0  0  0  0
  -43.5260   -8.4920   35.4760 C   0  0  0  0  0  0  0  0  0  0  0  0
  -44.9960  -10.2460   36.5210 C   0  0  0  0  0  0  0  0  0  0  0  0
  -44.3210   -9.7500   35.3900 C   0  0  0  0  0  0  0  0  0  0  0  0
  -47.1180  -17.5460   33.6690 N   0  0  0  0  0  0  0  0  0  0  0  0
  -48.5470  -19.6570   32.3240 N   0  0  0  0  0  0  0  0  0  0  0  0
  -39.4020   -2.8960   34.0930 C   0  0  0  0  0  0  0  0  0  0  0  0
  -47.1540  -11.4964   32.5111 H   0  0  0  0  0  0  0  0  0  0  0  0
  -45.8569  -11.1084   31.3307 H   0  0  0  0  0  0  0  0  0  0  0  0
  -46.6132  -12.7377   31.3307 H   0  0  0  0  0  0  0  0  0  0  0  0
  -45.5147  -16.9566   34.9153 H   0  0  0  0  0  0  0  0  0  0  0  0
  -45.1586  -16.8934   33.1728 H   0  0  0  0  0  0  0  0  0  0  0  0
  -44.0811   -7.8568   38.7427 H   0  0  0  0  0  0  0  0  0  0  0  0
  -43.0505   -4.8389   30.8419 H   0  0  0  0  0  0  0  0  0  0  0  0
  -41.3440   -5.8481   35.3893 H   0  0  0  0  0  0  0  0  0  0  0  0
  -46.3163  -11.7980   37.4266 H   0  0  0  0  0  0  0  0  0  0  0  0
  -43.9958  -10.2299   33.2682 H   0  0  0  0  0  0  0  0  0  0  0  0
  -45.7553  -14.6842   33.2118 H   0  0  0  0  0  0  0  0  0  0  0  0
  -47.4420  -15.2131   33.5589 H   0  0  0  0  0  0  0  0  0  0  0  0
  -46.8679  -15.2587   36.0159 H   0  0  0  0  0  0  0  0  0  0  0  0
  -45.2592  -14.6019   35.6393 H   0  0  0  0  0  0  0  0  0  0  0  0
  -50.1978  -20.7699   33.0071 H   0  0  0  0  0  0  0  0  0  0  0  0
  -50.4630  -19.8656   31.4779 H   0  0  0  0  0  0  0  0  0  0  0  0
  -49.4588  -21.3550   31.4779 H   0  0  0  0  0  0  0  0  0  0  0  0
  -46.0356  -19.3235   33.4330 H   0  0  0  0  0  0  0  0  0  0  0  0
  -46.7300  -19.0154   35.0890 H   0  0  0  0  0  0  0  0  0  0  0  0
  -46.7265  -17.7074   31.6404 H   0  0  0  0  0  0  0  0  0  0  0  0
  -47.7946  -16.3451   32.1220 H   0  0  0  0  0  0  0  0  0  0  0  0
  -47.8208  -20.8825   33.8340 H   0  0  0  0  0  0  0  0  0  0  0  0
  -48.9218  -19.5336   34.3507 H   0  0  0  0  0  0  0  0  0  0  0  0
  -49.5693  -17.9077   32.7131 H   0  0  0  0  0  0  0  0  0  0  0  0
  -48.9934  -18.1718   30.9939 H   0  0  0  0  0  0  0  0  0  0  0  0
  -42.3688   -8.7140   33.6913 H   0  0  0  0  0  0  0  0  0  0  0  0
  -38.8152   -2.6969   35.0019 H   0  0  0  0  0  0  0  0  0  0  0  0
  -38.9033   -3.6752   33.4979 H   0  0  0  0  0  0  0  0  0  0  0  0
  -39.4805   -1.9742   33.4979 H   0  0  0  0  0  0  0  0  0  0  0  0
  1 22  1  0
 24  2  1  0
 36  2  1  0
 34  3  1  0
 13  3  1  0
  7  4  3  0
  5 25  1  0
  6 26  1  0
 27  7  1  0
 27  8  2  0
 20  8  1  0
  9 26  2  0
  9 25  1  0
 28 10  2  0
 24 10  1  0
 30 11  2  0
 11 32  1  0
 29 12  2  0
 12 33  1  0
 13 14  1  0
 23 14  1  0
 15 35  1  0
 34 16  1  0
 18 16  1  0
 19 17  1  0
 17 34  1  0
 35 18  1  0
 19 35  1  0
 32 20  2  0
 28 21  1  0
 21 31  1  0
 22 29  1  0
 23 30  1  0
 25 24  2  0
 26 28  1  0
 31 27  1  0
 29 30  1  0
 33 31  2  0
 33 32  1  0
  1 37  1  0
  1 38  1  0
  1 39  1  0
  3 40  1  0
  3 41  1  0
  8 42  1  0
  9 43  1  0
 10 44  1  0
 11 45  1  0
 12 46  1  0
 13 47  1  0
 13 48  1  0
 14 49  1  0
 14 50  1  0
 15 51  1  0
 15 52  1  0
 15 53  1  0
 16 54  1  0
 16 55  1  0
 17 56  1  0
 17 57  1  0
 18 58  1  0
 18 59  1  0
 19 60  1  0
 19 61  1  0
 21 62  1  0
 36 63  1  0
 36 64  1  0
 36 65  1  0
A    1
CAA
A    2
O02
A    3
CAC
A    4
NAD
A    5
CL1
A    6
CL2
A    7
CAG
A    8
CAH
A    9
CAI
A   10
CAJ
A   11
CAK
A   12
CAL
A   13
CAM
A   14
CAN
A   15
CAO
A   16
CAP
A   17
CAQ
A   18
CAR
A   19
CAS
A   20
NAT
A   21
NAU
A   22
OAV
A   23
OAW
A   24
CAX
A   25
CAY
A   26
CAZ
A   27
CBA
A   28
CBB
A   29
CBC
A   30
CBD
A   31
CBE
A   32
CBF
A   33
CBG
A   34
NBH
A   35
NBI
A   36
C01
M  END
