4IIZ_LUR_A_201
     RDKit          3D

 33 34  0  0  0  0  0  0  0  0999 V2000
   21.4920    2.0240  -31.7160 O   0  0  0  0  0  0  0  0  0  0  0  0
   21.7470    1.2760  -30.7580 C   0  0  0  0  0  0  0  0  0  0  0  0
   22.7700    1.3720  -30.0400 O   0  0  0  0  0  0  0  0  0  0  0  0
   20.7640    0.0780  -30.4900 C   0  0  0  0  0  0  0  0  0  0  0  0
   19.5660    0.4120  -29.5200 C   0  0  0  0  0  0  0  0  0  0  0  0
   18.4080    0.9860  -30.0800 C   0  0  0  0  0  0  0  0  0  0  0  0
   17.3050    1.3050  -29.2750 C   0  0  0  0  0  0  0  0  0  0  0  0
   16.0440    1.9510  -29.8280 C   0  0  0  0  0  0  0  0  0  0  0  0
   17.3220    1.0620  -27.9150 C   0  0  0  0  0  0  0  0  0  0  0  0
   18.4440    0.4980  -27.3360 C   0  0  0  0  0  0  0  0  0  0  0  0
   19.5390    0.1760  -28.1200 C   0  0  0  0  0  0  0  0  0  0  0  0
   20.5600   -0.3860  -27.4990 N   0  0  0  0  0  0  0  0  0  0  0  0
   21.0420   -0.0720  -26.2980 C   0  0  0  0  0  0  0  0  0  0  0  0
   22.3160    0.4780  -26.3020 C   0  0  0  0  0  0  0  0  0  0  0  0
   23.1430    0.7740  -27.8100 Cl  0  0  0  0  0  0  0  0  0  0  0  0
   22.9150    0.7970  -25.0860 C   0  0  0  0  0  0  0  0  0  0  0  0
   22.2460    0.5520  -23.8980 C   0  0  0  0  0  0  0  0  0  0  0  0
   20.9830   -0.0010  -23.8910 C   0  0  0  0  0  0  0  0  0  0  0  0
   20.3810   -0.3290  -25.0830 C   0  0  0  0  0  0  0  0  0  0  0  0
   19.1550   -0.8700  -25.0120 F   0  0  0  0  0  0  0  0  0  0  0  0
   22.6850    1.3640  -29.0537 H   0  0  0  0  0  0  0  0  0  0  0  0
   20.3443   -0.2431  -31.4548 H   0  0  0  0  0  0  0  0  0  0  0  0
   21.3565   -0.7046  -29.9935 H   0  0  0  0  0  0  0  0  0  0  0  0
   18.3685    1.1863  -31.1609 H   0  0  0  0  0  0  0  0  0  0  0  0
   15.4044    2.2787  -28.9952 H   0  0  0  0  0  0  0  0  0  0  0  0
   16.3173    2.8201  -30.4444 H   0  0  0  0  0  0  0  0  0  0  0  0
   15.4983    1.2214  -30.4444 H   0  0  0  0  0  0  0  0  0  0  0  0
   16.4484    1.3156  -27.2966 H   0  0  0  0  0  0  0  0  0  0  0  0
   18.4666    0.3053  -26.2533 H   0  0  0  0  0  0  0  0  0  0  0  0
   21.0357   -1.1511  -27.9983 H   0  0  0  0  0  0  0  0  0  0  0  0
   23.9200    1.2438  -25.0688 H   0  0  0  0  0  0  0  0  0  0  0  0
   22.7310    0.8031  -22.9432 H   0  0  0  0  0  0  0  0  0  0  0  0
   20.4609   -0.1784  -22.9392 H   0  0  0  0  0  0  0  0  0  0  0  0
  1  2  2  0
  2  4  1  0
  2  3  1  0
  4  5  1  0
  6  5  2  0
  6  7  1  0
  8  7  1  0
  5 11  1  0
  7  9  2  0
 11 12  1  0
 11 10  2  0
  9 10  1  0
 15 14  1  0
 12 13  1  0
 14 13  2  0
 14 16  1  0
 13 19  1  0
 16 17  2  0
 19 20  1  0
 19 18  2  0
 17 18  1  0
  3 21  1  0
  4 22  1  0
  4 23  1  0
  6 24  1  0
  8 25  1  0
  8 26  1  0
  8 27  1  0
  9 28  1  0
 10 29  1  0
 12 30  1  0
 16 31  1  0
 17 32  1  0
 18 33  1  0
A    1
OAB
A    2
CAN
A    3
OAC
A    4
CAL
A    5
CAR
A    6
CAK
A    7
CAO
A    8
CAA
A    9
CAI
A   10
CAJ
A   11
CAS
A   12
NAM
A   13
CAT
A   14
CAQ
A   15
CLE
A   16
CAH
A   17
CAF
A   18
CAG
A   19
CAP
A   20
FAD
M  END
