4OVF_2VG_A_407
     RDKit          3D

 29 31  0  0  0  0  0  0  0  0999 V2000
    6.9900   -1.6820   -9.6800 Cl  0  0  0  0  0  0  0  0  0  0  0  0
    7.6370   -3.2200  -10.3320 C   0  0  0  0  0  0  0  0  0  0  0  0
    8.7190   -3.8770   -9.7410 C   0  0  0  0  0  0  0  0  0  0  0  0
    9.1560   -5.0740  -10.3180 C   0  0  0  0  0  0  0  0  0  0  0  0
    7.0230   -3.7550  -11.4630 C   0  0  0  0  0  0  0  0  0  0  0  0
    7.4670   -4.9490  -12.0250 C   0  0  0  0  0  0  0  0  0  0  0  0
    8.5410   -5.6140  -11.4460 C   0  0  0  0  0  0  0  0  0  0  0  0
    9.1670   -6.7570  -11.7660 N   0  0  0  0  0  0  0  0  0  0  0  0
   10.1600   -6.9750  -10.8880 C   0  0  0  0  0  0  0  0  0  0  0  0
   10.1810   -5.9360   -9.9660 C   0  0  0  0  0  0  0  0  0  0  0  0
   11.1640   -5.8380   -8.8260 C   0  0  0  0  0  0  0  0  0  0  0  0
   11.6860   -7.2490   -8.5550 C   0  0  0  0  0  0  0  0  0  0  0  0
   11.1120   -8.1480  -10.8830 C   0  0  0  0  0  0  0  0  0  0  0  0
   12.2000   -7.9640   -9.8110 C   0  0  0  0  0  0  0  0  0  0  0  0
   12.7580   -9.3010   -9.4020 C   0  0  0  0  0  0  0  0  0  0  0  0
   12.0270  -10.4070   -9.4890 O   0  0  0  0  0  0  0  0  0  0  0  0
   13.8940   -9.3880   -8.9750 O   0  0  0  0  0  0  0  0  0  0  0  0
    9.2127   -3.4652   -8.8484 H   0  0  0  0  0  0  0  0  0  0  0  0
    6.1737   -3.2253  -11.9191 H   0  0  0  0  0  0  0  0  0  0  0  0
    6.9732   -5.3612  -12.9173 H   0  0  0  0  0  0  0  0  0  0  0  0
    8.9248   -7.3692  -12.5581 H   0  0  0  0  0  0  0  0  0  0  0  0
   10.6632   -5.4431   -7.9298 H   0  0  0  0  0  0  0  0  0  0  0  0
   11.9907   -5.1587   -9.0812 H   0  0  0  0  0  0  0  0  0  0  0  0
   10.8683   -7.8459   -8.1248 H   0  0  0  0  0  0  0  0  0  0  0  0
   12.5387   -7.1515   -7.8669 H   0  0  0  0  0  0  0  0  0  0  0  0
   11.5891   -8.2295  -11.8708 H   0  0  0  0  0  0  0  0  0  0  0  0
   10.5440   -9.0621  -10.6556 H   0  0  0  0  0  0  0  0  0  0  0  0
   12.9790   -7.3358  -10.2676 H   0  0  0  0  0  0  0  0  0  0  0  0
   14.0562   -9.4004   -7.9984 H   0  0  0  0  0  0  0  0  0  0  0  0
 16 15  2  0
 17 15  1  0
 15 14  1  0
 12 14  1  0
 12 11  1  0
 14 13  1  0
 11 10  1  0
 13  9  1  0
 10  9  2  0
 10  4  1  0
  9  8  1  0
  4  3  1  0
  4  7  2  0
  3  2  2  0
  8  7  1  0
  7  6  1  0
  2  1  1  0
  2  5  1  0
  6  5  2  0
  3 18  1  0
  5 19  1  0
  6 20  1  0
  8 21  1  0
 11 22  1  0
 11 23  1  0
 12 24  1  0
 12 25  1  0
 13 26  1  0
 13 27  1  0
 14 28  1  0
 17 29  1  0
A    1
CL
A    2
C4
A    3
C3
A    4
C2
A    5
C5
A    6
C6
A    7
C1
A    8
N
A    9
C7
A   10
C8
A   11
C12
A   12
C11
A   13
C9
A   14
C10
A   15
C13
A   16
O1
A   17
O2
M  END
