4OW0_S88_A_902
     RDKit          3D

 56 59  0  0  0  0  0  0  0  0999 V2000
   -8.7950   45.8410  -42.7920 F   0  0  0  0  0  0  0  0  0  0  0  0
   -8.4950   46.9800  -42.2180 C   0  0  0  0  0  0  0  0  0  0  0  0
   -7.3700   47.6520  -42.6080 C   0  0  0  0  0  0  0  0  0  0  0  0
   -7.0440   48.8740  -41.9890 C   0  0  0  0  0  0  0  0  0  0  0  0
   -7.8890   49.4130  -40.9790 C   0  0  0  0  0  0  0  0  0  0  0  0
   -9.3400   47.4950  -41.2090 C   0  0  0  0  0  0  0  0  0  0  0  0
   -9.0210   48.7200  -40.5890 C   0  0  0  0  0  0  0  0  0  0  0  0
   -9.9770   49.2790  -39.4950 C   0  0  0  0  0  0  0  0  0  0  0  0
  -11.3530   48.9550  -39.8030 N   0  0  0  0  0  0  0  0  0  0  0  0
  -12.2010   48.4090  -38.8130 C   0  0  0  0  0  0  0  0  0  0  0  0
  -11.8240   48.2390  -37.6700 O   0  0  0  0  0  0  0  0  0  0  0  0
  -13.6730   48.0270  -39.1780 C   0  0  0  0  0  0  0  0  0  0  0  0
  -14.5370   48.3430  -38.0530 C   0  0  0  0  0  0  0  0  0  0  0  0
  -15.9700   47.9290  -38.4060 C   0  0  0  0  0  0  0  0  0  0  0  0
  -16.2170   46.6060  -39.0460 N   0  0  0  0  0  0  0  0  0  0  0  0
  -15.1130   46.1590  -39.9340 C   0  0  0  0  0  0  0  0  0  0  0  0
  -13.7140   46.5690  -39.5140 C   0  0  0  0  0  0  0  0  0  0  0  0
  -17.6320   46.4130  -39.6150 C   0  0  0  0  0  0  0  0  0  0  0  0
  -18.7090   46.5420  -38.5580 C   0  0  0  0  0  0  0  0  0  0  0  0
  -17.7520   45.0150  -40.2820 C   0  0  0  0  0  0  0  0  0  0  0  0
  -17.8000   44.8180  -41.7770 C   0  0  0  0  0  0  0  0  0  0  0  0
  -17.7370   45.9260  -42.6800 C   0  0  0  0  0  0  0  0  0  0  0  0
  -17.7640   45.7240  -44.0760 C   0  0  0  0  0  0  0  0  0  0  0  0
  -17.8340   44.4130  -44.5740 C   0  0  0  0  0  0  0  0  0  0  0  0
  -17.9230   43.3300  -43.7070 C   0  0  0  0  0  0  0  0  0  0  0  0
  -17.8810   43.5350  -42.2840 C   0  0  0  0  0  0  0  0  0  0  0  0
  -17.9540   42.3830  -41.3810 C   0  0  0  0  0  0  0  0  0  0  0  0
  -17.9600   42.5790  -39.9570 C   0  0  0  0  0  0  0  0  0  0  0  0
  -17.8460   43.9090  -39.4130 C   0  0  0  0  0  0  0  0  0  0  0  0
   -6.7249   47.2414  -43.3988 H   0  0  0  0  0  0  0  0  0  0  0  0
   -6.1331   49.4137  -42.2872 H   0  0  0  0  0  0  0  0  0  0  0  0
   -7.6430   50.3772  -40.5100 H   0  0  0  0  0  0  0  0  0  0  0  0
  -10.2425   46.9424  -40.9089 H   0  0  0  0  0  0  0  0  0  0  0  0
   -9.8665   50.3722  -39.4434 H   0  0  0  0  0  0  0  0  0  0  0  0
   -9.7142   48.8224  -38.5294 H   0  0  0  0  0  0  0  0  0  0  0  0
  -11.7175   49.1236  -40.7515 H   0  0  0  0  0  0  0  0  0  0  0  0
  -14.0282   48.5971  -40.0491 H   0  0  0  0  0  0  0  0  0  0  0  0
  -14.5025   49.4238  -37.8513 H   0  0  0  0  0  0  0  0  0  0  0  0
  -14.1996   47.8024  -37.1564 H   0  0  0  0  0  0  0  0  0  0  0  0
  -16.3640   48.6940  -39.0912 H   0  0  0  0  0  0  0  0  0  0  0  0
  -16.4601   47.8362  -37.4256 H   0  0  0  0  0  0  0  0  0  0  0  0
  -15.1421   45.0604  -39.9802 H   0  0  0  0  0  0  0  0  0  0  0  0
  -15.2900   46.6550  -40.8997 H   0  0  0  0  0  0  0  0  0  0  0  0
  -13.4158   45.9855  -38.6305 H   0  0  0  0  0  0  0  0  0  0  0  0
  -13.0220   46.3766  -40.3471 H   0  0  0  0  0  0  0  0  0  0  0  0
  -17.7852   47.2119  -40.3555 H   0  0  0  0  0  0  0  0  0  0  0  0
  -18.2511   46.4872  -37.5593 H   0  0  0  0  0  0  0  0  0  0  0  0
  -19.2223   47.5080  -38.6735 H   0  0  0  0  0  0  0  0  0  0  0  0
  -19.4359   45.7245  -38.6735 H   0  0  0  0  0  0  0  0  0  0  0  0
  -17.6666   46.9485  -42.2806 H   0  0  0  0  0  0  0  0  0  0  0  0
  -17.7307   46.5813  -44.7645 H   0  0  0  0  0  0  0  0  0  0  0  0
  -17.8183   44.2413  -45.6604 H   0  0  0  0  0  0  0  0  0  0  0  0
  -18.0260   42.3120  -44.1109 H   0  0  0  0  0  0  0  0  0  0  0  0
  -18.0044   41.3649  -41.7944 H   0  0  0  0  0  0  0  0  0  0  0  0
  -18.0515   41.7146  -39.2829 H   0  0  0  0  0  0  0  0  0  0  0  0
  -17.8324   44.0604  -38.3236 H   0  0  0  0  0  0  0  0  0  0  0  0
 24 23  1  0
 24 25  2  0
 23 22  2  0
 25 26  1  0
 22 21  1  0
 26 21  2  0
 26 27  1  0
 21 20  1  0
 27 28  2  0
 20 18  1  0
 20 29  2  0
 18 19  1  0
 18 15  1  0
 28 29  1  0
 15 14  1  0
 15 16  1  0
 14 13  1  0
 16 17  1  0
 12 17  1  0
 12 13  1  0
 12 10  1  0
  9 10  1  0
  9  8  1  0
 10 11  2  0
  1  2  1  0
  2  6  2  0
  2  3  1  0
  6  7  1  0
  3  4  2  0
  7  8  1  0
  7  5  2  0
  4  5  1  0
  3 30  1  0
  4 31  1  0
  5 32  1  0
  6 33  1  0
  8 34  1  0
  8 35  1  0
  9 36  1  0
 12 37  1  0
 13 38  1  0
 13 39  1  0
 14 40  1  0
 14 41  1  0
 16 42  1  0
 16 43  1  0
 17 44  1  0
 17 45  1  0
 18 46  1  0
 19 47  1  0
 19 48  1  0
 19 49  1  0
 22 50  1  0
 23 51  1  0
 24 52  1  0
 25 53  1  0
 27 54  1  0
 28 55  1  0
 29 56  1  0
A    1
F29
A    2
C27
A    3
C26
A    4
C25
A    5
C24
A    6
C28
A    7
C23
A    8
C22
A    9
N21
A   10
C19
A   11
O20
A   12
C16
A   13
C15
A   14
C14
A   15
N13
A   16
C18
A   17
C17
A   18
C11
A   19
C12
A   20
C10
A   21
C2
A   22
C1
A   23
C6
A   24
C5
A   25
C4
A   26
C3
A   27
C7
A   28
C8
A   29
C9
M  END
