4OWS_4M0_A_402
     RDKit          3D

 20 20  0  0  0  0  0  0  0  0999 V2000
  -18.2210  -36.7170   17.8400 O   0  0  0  0  0  0  0  0  0  0  0  0
  -18.7190  -35.5470   17.9000 C   0  0  0  0  0  0  0  0  0  0  0  0
  -19.5080  -35.2810   18.8330 O   0  0  0  0  0  0  0  0  0  0  0  0
  -18.4230  -34.5280   16.9810 C   0  0  0  0  0  0  0  0  0  0  0  0
  -19.0070  -33.2730   17.1990 C   0  0  0  0  0  0  0  0  0  0  0  0
  -18.7690  -32.1900   16.3360 C   0  0  0  0  0  0  0  0  0  0  0  0
  -17.9280  -32.3420   15.2320 C   0  0  0  0  0  0  0  0  0  0  0  0
  -17.6780  -31.2560   14.3870 C   0  0  0  0  0  0  0  0  0  0  0  0
  -17.3330  -33.5850   14.9900 C   0  0  0  0  0  0  0  0  0  0  0  0
  -17.5650  -34.6610   15.8570 C   0  0  0  0  0  0  0  0  0  0  0  0
  -16.9630  -35.8360   15.6150 N   0  0  0  0  0  0  0  0  0  0  0  0
  -19.2142  -35.3801   19.7732 H   0  0  0  0  0  0  0  0  0  0  0  0
  -19.6679  -33.1322   18.0670 H   0  0  0  0  0  0  0  0  0  0  0  0
  -19.2471  -31.2187   16.5310 H   0  0  0  0  0  0  0  0  0  0  0  0
  -17.4719  -30.3606   14.9919 H   0  0  0  0  0  0  0  0  0  0  0  0
  -16.8075  -31.4781   13.7523 H   0  0  0  0  0  0  0  0  0  0  0  0
  -18.5580  -31.0751   13.7523 H   0  0  0  0  0  0  0  0  0  0  0  0
  -16.6800  -33.7182   14.1149 H   0  0  0  0  0  0  0  0  0  0  0  0
  -16.6587  -36.4300   16.3995 H   0  0  0  0  0  0  0  0  0  0  0  0
  -16.8054  -36.1437   14.6448 H   0  0  0  0  0  0  0  0  0  0  0  0
  8  7  1  0
  9  7  2  0
  9 10  1  0
  7  6  1  0
 11 10  1  0
 10  4  2  0
  6  5  2  0
  4  5  1  0
  4  2  1  0
  1  2  2  0
  2  3  1  0
  3 12  1  0
  5 13  1  0
  6 14  1  0
  8 15  1  0
  8 16  1  0
  8 17  1  0
  9 18  1  0
 11 19  1  0
 11 20  1  0
A    1
OAC
A    2
CAH
A    3
OAD
A    4
CAK
A    5
CAF
A    6
CAE
A    7
CAI
A    8
CAA
A    9
CAG
A   10
CAJ
A   11
NAB
M  END
