4OWU_5M0_A_404
     RDKit          3D

 20 20  0  0  0  0  0  0  0  0999 V2000
  -17.9050  -36.3420   17.8530 O   0  0  0  0  0  0  0  0  0  0  0  0
  -18.5120  -35.2780   18.1140 C   0  0  0  0  0  0  0  0  0  0  0  0
  -19.2200  -35.2160   19.1600 O   0  0  0  0  0  0  0  0  0  0  0  0
  -18.4160  -34.1520   17.2850 C   0  0  0  0  0  0  0  0  0  0  0  0
  -19.1540  -33.0690   17.7240 C   0  0  0  0  0  0  0  0  0  0  0  0
  -19.1730  -31.8820   17.0420 C   0  0  0  0  0  0  0  0  0  0  0  0
  -19.9730  -30.9040   17.6410 C   0  0  0  0  0  0  0  0  0  0  0  0
  -18.4450  -31.7260   15.8560 C   0  0  0  0  0  0  0  0  0  0  0  0
  -17.6910  -32.8080   15.3750 C   0  0  0  0  0  0  0  0  0  0  0  0
  -17.6720  -34.0120   16.0990 C   0  0  0  0  0  0  0  0  0  0  0  0
  -16.9600  -35.0560   15.6850 N   0  0  0  0  0  0  0  0  0  0  0  0
  -18.7907  -35.2536   20.0513 H   0  0  0  0  0  0  0  0  0  0  0  0
  -19.7432  -33.1635   18.6481 H   0  0  0  0  0  0  0  0  0  0  0  0
  -19.9015  -30.9914   18.7352 H   0  0  0  0  0  0  0  0  0  0  0  0
  -19.6282  -29.9069   17.3295 H   0  0  0  0  0  0  0  0  0  0  0  0
  -21.0186  -31.0443   17.3295 H   0  0  0  0  0  0  0  0  0  0  0  0
  -18.4637  -30.7712   15.3102 H   0  0  0  0  0  0  0  0  0  0  0  0
  -17.1201  -32.7141   14.4395 H   0  0  0  0  0  0  0  0  0  0  0  0
  -16.5278  -35.6898   16.3723 H   0  0  0  0  0  0  0  0  0  0  0  0
  -16.8407  -35.2309   14.6770 H   0  0  0  0  0  0  0  0  0  0  0  0
  9  8  2  0
  9 10  1  0
 11 10  1  0
  8  6  1  0
 10  4  2  0
  6  7  1  0
  6  5  2  0
  4  5  1  0
  4  2  1  0
  1  2  2  0
  2  3  1  0
  3 12  1  0
  5 13  1  0
  7 14  1  0
  7 15  1  0
  7 16  1  0
  8 17  1  0
  9 18  1  0
 11 19  1  0
 11 20  1  0
A    1
OAC
A    2
CAH
A    3
OAD
A    4
CAK
A    5
CAG
A    6
CAI
A    7
CAA
A    8
CAE
A    9
CAF
A   10
CAJ
A   11
NAB
M  END
