4OXK_2NV_B_303
     RDKit          3D

 15 14  0  0  0  0  0  0  0  0999 V2000
  -46.8120   24.8110   -1.1470 C   0  0  0  0  0  0  0  0  0  0  0  0
  -47.6050   24.8070   -2.4510 C   0  0  0  0  0  0  0  0  0  0  0  0
  -47.2460   25.9430   -3.2390 O   0  0  0  0  0  0  0  0  0  0  0  0
  -47.5210   25.7520   -4.6280 C   0  0  0  0  0  0  0  0  0  0  0  0
  -46.8870   26.8820   -5.4330 C   0  0  0  0  0  0  0  0  0  0  0  0
  -47.5076   24.8075   -0.2948 H   0  0  0  0  0  0  0  0  0  0  0  0
  -46.1739   23.9161   -1.1031 H   0  0  0  0  0  0  0  0  0  0  0  0
  -46.1830   25.7123   -1.1031 H   0  0  0  0  0  0  0  0  0  0  0  0
  -48.6807   24.8450   -2.2244 H   0  0  0  0  0  0  0  0  0  0  0  0
  -47.3767   23.8889   -3.0122 H   0  0  0  0  0  0  0  0  0  0  0  0
  -48.6091   25.7526   -4.7896 H   0  0  0  0  0  0  0  0  0  0  0  0
  -47.1017   24.7892   -4.9553 H   0  0  0  0  0  0  0  0  0  0  0  0
  -46.4668   27.6309   -4.7456 H   0  0  0  0  0  0  0  0  0  0  0  0
  -46.0852   26.4755   -6.0670 H   0  0  0  0  0  0  0  0  0  0  0  0
  -47.6518   27.3544   -6.0670 H   0  0  0  0  0  0  0  0  0  0  0  0
  5  4  1  0
  4  3  1  0
  3  2  1  0
  2  1  1  0
  1  6  1  0
  1  7  1  0
  1  8  1  0
  2  9  1  0
  2 10  1  0
  4 11  1  0
  4 12  1  0
  5 13  1  0
  5 14  1  0
  5 15  1  0
A    1
C18
A    2
C17
A    3
O16
A    4
C15
A    5
C14
M  END
