4OYS_1TT_A_905
     RDKit          3D

 53 56  0  0  0  0  0  0  0  0999 V2000
   17.3650  -17.5320  -23.2920 C   0  0  0  0  0  0  0  0  0  0  0  0
   16.7830  -16.2380  -22.9490 C   0  0  0  0  0  0  0  0  0  0  0  0
   17.5870  -15.0730  -22.8260 C   0  0  0  0  0  0  0  0  0  0  0  0
   21.5200  -17.4830  -24.3330 C   0  0  0  0  0  0  0  0  0  0  0  0
   20.9610  -18.7490  -23.6650 C   0  0  0  0  0  0  0  0  0  0  0  0
   19.4430  -18.8370  -23.8370 C   0  0  0  0  0  0  0  0  0  0  0  0
   21.3230  -17.4360  -25.8360 C   0  0  0  0  0  0  0  0  0  0  0  0
   15.2910  -12.3470  -21.8090 C   0  0  0  0  0  0  0  0  0  0  0  0
   15.6640  -13.4390  -22.7910 C   0  0  0  0  0  0  0  0  0  0  0  0
   21.6370  -14.9430  -23.7030 C   0  0  0  0  0  0  0  0  0  0  0  0
   21.6420  -13.0550  -22.0020 C   0  0  0  0  0  0  0  0  0  0  0  0
   15.3240  -13.0900  -24.2310 C   0  0  0  0  0  0  0  0  0  0  0  0
   18.9570  -15.1450  -23.1160 N   0  0  0  0  0  0  0  0  0  0  0  0
   18.8070  -17.5460  -23.5150 N   0  0  0  0  0  0  0  0  0  0  0  0
   19.5360  -16.3280  -23.3940 C   0  0  0  0  0  0  0  0  0  0  0  0
   20.9550  -16.2980  -23.6610 N   0  0  0  0  0  0  0  0  0  0  0  0
   17.1270  -13.8510  -22.6430 N   0  0  0  0  0  0  0  0  0  0  0  0
   16.7960  -18.6250  -23.4080 O   0  0  0  0  0  0  0  0  0  0  0  0
   20.1030  -17.0200  -26.1800 F   0  0  0  0  0  0  0  0  0  0  0  0
   22.1860  -16.5980  -26.4010 F   0  0  0  0  0  0  0  0  0  0  0  0
   21.5000  -18.6220  -26.4200 F   0  0  0  0  0  0  0  0  0  0  0  0
   18.0850  -12.7510  -22.4520 C   0  0  0  0  0  0  0  0  0  0  0  0
   17.5500  -11.7500  -21.4530 C   0  0  0  0  0  0  0  0  0  0  0  0
   16.2530  -11.2730  -21.8170 O   0  0  0  0  0  0  0  0  0  0  0  0
   21.8820  -14.4030  -22.3250 C   0  0  0  0  0  0  0  0  0  0  0  0
   21.8790  -12.6220  -20.6680 C   0  0  0  0  0  0  0  0  0  0  0  0
   22.3430  -13.5430  -19.6860 C   0  0  0  0  0  0  0  0  0  0  0  0
   22.5680  -14.8560  -19.9930 N   0  0  0  0  0  0  0  0  0  0  0  0
   22.3340  -15.2630  -21.2780 C   0  0  0  0  0  0  0  0  0  0  0  0
   21.5670  -10.9860  -20.2180 Cl  0  0  0  0  0  0  0  0  0  0  0  0
   16.0347  -16.0185  -23.7248 H   0  0  0  0  0  0  0  0  0  0  0  0
   16.4392  -16.3989  -21.9166 H   0  0  0  0  0  0  0  0  0  0  0  0
   22.6127  -17.4963  -24.2075 H   0  0  0  0  0  0  0  0  0  0  0  0
   21.4267  -19.6333  -24.1245 H   0  0  0  0  0  0  0  0  0  0  0  0
   21.1894  -18.7071  -22.5898 H   0  0  0  0  0  0  0  0  0  0  0  0
   19.2124  -19.1034  -24.8790 H   0  0  0  0  0  0  0  0  0  0  0  0
   19.0530  -19.6043  -23.1521 H   0  0  0  0  0  0  0  0  0  0  0  0
   14.3043  -11.9442  -22.0813 H   0  0  0  0  0  0  0  0  0  0  0  0
   15.2727  -12.7842  -20.7998 H   0  0  0  0  0  0  0  0  0  0  0  0
   15.0407  -14.3078  -22.5328 H   0  0  0  0  0  0  0  0  0  0  0  0
   22.6011  -15.0450  -24.2227 H   0  0  0  0  0  0  0  0  0  0  0  0
   20.9757  -14.2422  -24.2337 H   0  0  0  0  0  0  0  0  0  0  0  0
   21.2787  -12.3507  -22.7649 H   0  0  0  0  0  0  0  0  0  0  0  0
   14.5565  -12.3022  -24.2459 H   0  0  0  0  0  0  0  0  0  0  0  0
   16.2281  -12.7309  -24.7445 H   0  0  0  0  0  0  0  0  0  0  0  0
   14.9414  -13.9844  -24.7445 H   0  0  0  0  0  0  0  0  0  0  0  0
   19.3323  -16.1011  -24.4509 H   0  0  0  0  0  0  0  0  0  0  0  0
   19.0363  -13.1599  -22.0807 H   0  0  0  0  0  0  0  0  0  0  0  0
   18.2406  -12.2435  -23.4155 H   0  0  0  0  0  0  0  0  0  0  0  0
   17.4874  -12.2317  -20.4660 H   0  0  0  0  0  0  0  0  0  0  0  0
   18.2355  -10.8900  -21.4326 H   0  0  0  0  0  0  0  0  0  0  0  0
   22.5240  -13.1908  -18.6597 H   0  0  0  0  0  0  0  0  0  0  0  0
   22.5052  -16.3221  -21.5208 H   0  0  0  0  0  0  0  0  0  0  0  0
 21  7  1  0
 20  7  1  0
 19  7  1  0
  7  4  1  0
  4  5  1  0
  4 16  1  0
 12  9  1  0
  6  5  1  0
  6 14  1  0
 10 16  1  0
 10 25  1  0
 16 15  1  0
 14 15  1  0
 14  1  1  0
 18  1  2  0
 15 13  1  0
  1  2  1  0
 13  3  2  0
  2  3  1  0
  3 17  1  0
  9 17  1  0
  9  8  1  0
 17 22  1  0
 22 23  1  0
 25 11  2  0
 25 29  1  0
 11 26  1  0
 24  8  1  0
 24 23  1  0
 29 28  2  0
 26 30  1  0
 26 27  2  0
 28 27  1  0
  2 31  1  0
  2 32  1  0
  4 33  1  0
  5 34  1  0
  5 35  1  0
  6 36  1  0
  6 37  1  0
  8 38  1  0
  8 39  1  0
  9 40  1  0
 10 41  1  0
 10 42  1  0
 11 43  1  0
 12 44  1  0
 12 45  1  0
 12 46  1  0
 15 47  1  0
 22 48  1  0
 22 49  1  0
 23 50  1  0
 23 51  1  0
 27 52  1  0
 29 53  1  0
A    1
C1
A    2
C2
A    3
C3
A    4
C8
A    5
C9
A    6
C10
A    7
C13
A    8
C20
A    9
C21
A   10
C22
A   11
C24
A   12
C30
A   13
N4
A   14
N5
A   15
C6
A   16
N7
A   17
N11
A   18
O12
A   19
F14
A   20
F15
A   21
F16
A   22
C17
A   23
C18
A   24
O19
A   25
C23
A   26
C25
A   27
C26
A   28
N27
A   29
C28
A   30
CL1
M  END
