4MDT_24G_A_402
     RDKit          3D

103105  0  0  0  0  0  0  0  0999 V2000
   29.0680  -38.8820  -14.0840 C   0  0  0  0  0  0  0  0  0  0  0  0
   30.2910  -38.3450  -14.1230 C   0  0  0  0  0  0  0  0  0  0  0  0
   28.5440  -39.4010  -15.3660 C   0  0  0  0  0  0  0  0  0  0  0  0
   30.6290  -38.7260  -16.4840 C   0  0  0  0  0  0  0  0  0  0  0  0
   37.0830  -43.7490   -8.4160 C   0  0  0  0  0  0  0  0  0  0  0  0
   33.8870  -42.7610   -8.1100 C   0  0  0  0  0  0  0  0  0  0  0  0
   34.9680  -43.0120   -9.1480 C   0  0  0  0  0  0  0  0  0  0  0  0
   34.4520  -43.2170  -10.5830 C   0  0  0  0  0  0  0  0  0  0  0  0
   33.6760  -36.0110  -13.8570 C   0  0  0  0  0  0  0  0  0  0  0  0
   32.4060  -36.1700  -14.6640 C   0  0  0  0  0  0  0  0  0  0  0  0
   34.1070  -37.4230  -13.5190 C   0  0  0  0  0  0  0  0  0  0  0  0
   33.3060  -42.2480  -10.8950 C   0  0  0  0  0  0  0  0  0  0  0  0
   32.4050  -37.6220  -15.1240 C   0  0  0  0  0  0  0  0  0  0  0  0
   32.7220  -41.9110   -8.6240 C   0  0  0  0  0  0  0  0  0  0  0  0
   46.7650  -55.1670   -9.8290 C   0  0  0  0  0  0  0  0  0  0  0  0
   37.8970  -44.8310   -7.7560 C   0  0  0  0  0  0  0  0  0  0  0  0
   34.0700  -37.6520  -12.0110 C   0  0  0  0  0  0  0  0  0  0  0  0
   32.7030  -42.4300  -12.2690 C   0  0  0  0  0  0  0  0  0  0  0  0
   45.6520  -54.5250   -9.0290 C   0  0  0  0  0  0  0  0  0  0  0  0
   45.1110  -53.2920   -9.7300 C   0  0  0  0  0  0  0  0  0  0  0  0
   43.5980  -53.3110   -9.8380 C   0  0  0  0  0  0  0  0  0  0  0  0
   43.0090  -52.5180   -8.6950 C   0  0  0  0  0  0  0  0  0  0  0  0
   41.8580  -51.6650   -9.1580 C   0  0  0  0  0  0  0  0  0  0  0  0
   41.2460  -50.9420   -7.9750 C   0  0  0  0  0  0  0  0  0  0  0  0
   39.7930  -50.5490   -8.1650 C   0  0  0  0  0  0  0  0  0  0  0  0
   39.4750  -49.3200   -7.3370 C   0  0  0  0  0  0  0  0  0  0  0  0
   38.4910  -48.3880   -8.0210 C   0  0  0  0  0  0  0  0  0  0  0  0
   38.2210  -47.1880   -7.1400 C   0  0  0  0  0  0  0  0  0  0  0  0
   37.2690  -46.2090   -7.7870 C   0  0  0  0  0  0  0  0  0  0  0  0
   29.3600  -39.2740  -16.4680 N   0  0  0  0  0  0  0  0  0  0  0  0
   31.0800  -38.2410  -15.2490 N   0  0  0  0  0  0  0  0  0  0  0  0
   34.5190  -42.1520   -6.9520 N   0  0  0  0  0  0  0  0  0  0  0  0
   27.4350  -39.9050  -15.3980 O   0  0  0  0  0  0  0  0  0  0  0  0
   31.2670  -38.6920  -17.5330 O   0  0  0  0  0  0  0  0  0  0  0  0
   37.5870  -42.6650   -8.6850 O   0  0  0  0  0  0  0  0  0  0  0  0
   31.9720  -38.3380   -7.2440 O   0  0  0  0  0  0  0  0  0  0  0  0
   32.4760  -36.6150   -9.5080 O   0  0  0  0  0  0  0  0  0  0  0  0
   33.2630  -38.3480  -14.2240 O   0  0  0  0  0  0  0  0  0  0  0  0
   32.2670  -42.3550   -9.9170 O   0  0  0  0  0  0  0  0  0  0  0  0
   35.5170  -42.9140  -11.4830 O   0  0  0  0  0  0  0  0  0  0  0  0
   34.7150  -35.3640  -14.5830 O   0  0  0  0  0  0  0  0  0  0  0  0
   32.3040  -35.2380  -15.7390 O   0  0  0  0  0  0  0  0  0  0  0  0
   31.6840  -41.4590  -12.4350 O   0  0  0  0  0  0  0  0  0  0  0  0
   36.0950  -46.1680   -6.9840 O   0  0  0  0  0  0  0  0  0  0  0  0
   30.3770  -40.3390   -7.8780 O   0  0  0  0  0  0  0  0  0  0  0  0
   30.5100  -37.1890  -11.2170 O   0  0  0  0  0  0  0  0  0  0  0  0
   35.7710  -44.1030   -8.6670 O   0  0  0  0  0  0  0  0  0  0  0  0
   32.9640  -40.5000   -8.4860 O   0  0  0  0  0  0  0  0  0  0  0  0
   32.8610  -38.2890  -11.6220 O   0  0  0  0  0  0  0  0  0  0  0  0
   31.3750  -38.9590   -9.7030 O   0  0  0  0  0  0  0  0  0  0  0  0
   31.7170  -39.4680   -8.2110 P   0  0  0  0  0  0  0  0  0  0  0  0
   31.8940  -37.6310  -10.4670 P   0  0  0  0  0  0  0  0  0  0  0  0
   28.4850  -38.9350  -13.1527 H   0  0  0  0  0  0  0  0  0  0  0  0
   30.7016  -37.9542  -13.1803 H   0  0  0  0  0  0  0  0  0  0  0  0
   33.4278  -43.7250   -7.8457 H   0  0  0  0  0  0  0  0  0  0  0  0
   35.5783  -42.1031   -9.2544 H   0  0  0  0  0  0  0  0  0  0  0  0
   34.0979  -44.2532  -10.6872 H   0  0  0  0  0  0  0  0  0  0  0  0
   33.4872  -35.3834  -12.9736 H   0  0  0  0  0  0  0  0  0  0  0  0
   31.5161  -35.9440  -14.0582 H   0  0  0  0  0  0  0  0  0  0  0  0
   35.1474  -37.5838  -13.8378 H   0  0  0  0  0  0  0  0  0  0  0  0
   33.7624  -41.2475  -10.8684 H   0  0  0  0  0  0  0  0  0  0  0  0
   32.7808  -37.6556  -16.1573 H   0  0  0  0  0  0  0  0  0  0  0  0
   31.8559  -42.0772   -7.9665 H   0  0  0  0  0  0  0  0  0  0  0  0
   47.5094  -55.5964   -9.1424 H   0  0  0  0  0  0  0  0  0  0  0  0
   46.3485  -55.9636  -10.4630 H   0  0  0  0  0  0  0  0  0  0  0  0
   47.2460  -54.4076  -10.4630 H   0  0  0  0  0  0  0  0  0  0  0  0
   38.8695  -44.8869   -8.2669 H   0  0  0  0  0  0  0  0  0  0  0  0
   37.9785  -44.5525   -6.6950 H   0  0  0  0  0  0  0  0  0  0  0  0
   34.9203  -38.2875  -11.7227 H   0  0  0  0  0  0  0  0  0  0  0  0
   34.1298  -36.6761  -11.5069 H   0  0  0  0  0  0  0  0  0  0  0  0
   32.2743  -43.4392  -12.3573 H   0  0  0  0  0  0  0  0  0  0  0  0
   33.4750  -42.3083  -13.0431 H   0  0  0  0  0  0  0  0  0  0  0  0
   44.8364  -55.2520   -8.9019 H   0  0  0  0  0  0  0  0  0  0  0  0
   46.0567  -54.2204   -8.0525 H   0  0  0  0  0  0  0  0  0  0  0  0
   45.5377  -53.2445  -10.7427 H   0  0  0  0  0  0  0  0  0  0  0  0
   45.3957  -52.4126   -9.1336 H   0  0  0  0  0  0  0  0  0  0  0  0
   43.2916  -52.8616  -10.7941 H   0  0  0  0  0  0  0  0  0  0  0  0
   43.2370  -54.3491   -9.7926 H   0  0  0  0  0  0  0  0  0  0  0  0
   42.6510  -53.2145   -7.9225 H   0  0  0  0  0  0  0  0  0  0  0  0
   43.7905  -51.8577   -8.2911 H   0  0  0  0  0  0  0  0  0  0  0  0
   42.2211  -50.9273   -9.8888 H   0  0  0  0  0  0  0  0  0  0  0  0
   41.0961  -52.3060   -9.6255 H   0  0  0  0  0  0  0  0  0  0  0  0
   41.3123  -51.6012   -7.0969 H   0  0  0  0  0  0  0  0  0  0  0  0
   41.8111  -50.0063   -7.8519 H   0  0  0  0  0  0  0  0  0  0  0  0
   39.6111  -50.3293   -9.2274 H   0  0  0  0  0  0  0  0  0  0  0  0
   39.1492  -51.3795   -7.8398 H   0  0  0  0  0  0  0  0  0  0  0  0
   39.0438  -49.6441   -6.3783 H   0  0  0  0  0  0  0  0  0  0  0  0
   40.4137  -48.7643   -7.1953 H   0  0  0  0  0  0  0  0  0  0  0  0
   38.9141  -48.0498   -8.9784 H   0  0  0  0  0  0  0  0  0  0  0  0
   37.5480  -48.9252   -8.2003 H   0  0  0  0  0  0  0  0  0  0  0  0
   37.7828  -47.5352   -6.1927 H   0  0  0  0  0  0  0  0  0  0  0  0
   39.1767  -46.6698   -6.9722 H   0  0  0  0  0  0  0  0  0  0  0  0
   37.0446  -46.5061   -8.8221 H   0  0  0  0  0  0  0  0  0  0  0  0
   28.9899  -39.6199  -17.3648 H   0  0  0  0  0  0  0  0  0  0  0  0
   34.1110  -42.5451   -6.0918 H   0  0  0  0  0  0  0  0  0  0  0  0
   35.5305  -42.3452   -6.9717 H   0  0  0  0  0  0  0  0  0  0  0  0
   31.8961  -38.6744   -6.3160 H   0  0  0  0  0  0  0  0  0  0  0  0
   32.3089  -36.9067   -8.5768 H   0  0  0  0  0  0  0  0  0  0  0  0
   36.3296  -42.6828  -10.9668 H   0  0  0  0  0  0  0  0  0  0  0  0
   35.3601  -34.9623  -13.9486 H   0  0  0  0  0  0  0  0  0  0  0  0
   32.2039  -34.3231  -15.3742 H   0  0  0  0  0  0  0  0  0  0  0  0
   31.3676  -41.1575  -11.5467 H   0  0  0  0  0  0  0  0  0  0  0  0
   36.3491  -46.1769   -6.0272 H   0  0  0  0  0  0  0  0  0  0  0  0
 34  4  2  0
  4 30  1  0
  4 31  1  0
 30  3  1  0
 42 10  1  0
 33  3  2  0
  3  1  1  0
 31 13  1  0
 31  2  1  0
 13 10  1  0
 13 38  1  0
 10  9  1  0
 41  9  1  0
 38 11  1  0
  2  1  2  0
  9 11  1  0
 11 17  1  0
 43 18  1  0
 18 12  1  0
 17 49  1  0
 49 52  1  0
 40  8  1  0
 46 52  2  0
 12  8  1  0
 12 39  1  0
  8  7  1  0
 52 50  1  0
 52 37  1  0
 39 14  1  0
 21 20  1  0
 21 22  1  0
 15 19  1  0
 20 19  1  0
 50 51  1  0
 23 22  1  0
 23 24  1  0
  7 47  1  0
  7  6  1  0
 35  5  2  0
 47  5  1  0
 14 48  1  0
 14  6  1  0
 48 51  1  0
  5 16  1  0
 51 45  2  0
 51 36  1  0
 25 24  1  0
 25 26  1  0
  6 32  1  0
 27 26  1  0
 27 28  1  0
 29 16  1  0
 29 28  1  0
 29 44  1  0
  1 53  1  0
  2 54  1  0
  6 55  1  0
  7 56  1  0
  8 57  1  0
  9 58  1  0
 10 59  1  0
 11 60  1  0
 12 61  1  0
 13 62  1  0
 14 63  1  0
 15 64  1  0
 15 65  1  0
 15 66  1  0
 16 67  1  0
 16 68  1  0
 17 69  1  0
 17 70  1  0
 18 71  1  0
 18 72  1  0
 19 73  1  0
 19 74  1  0
 20 75  1  0
 20 76  1  0
 21 77  1  0
 21 78  1  0
 22 79  1  0
 22 80  1  0
 23 81  1  0
 23 82  1  0
 24 83  1  0
 24 84  1  0
 25 85  1  0
 25 86  1  0
 26 87  1  0
 26 88  1  0
 27 89  1  0
 27 90  1  0
 28 91  1  0
 28 92  1  0
 29 93  1  0
 30 94  1  0
 32 95  1  0
 32 96  1  0
 36 97  1  0
 37 98  1  0
 40 99  1  0
 41100  1  0
 42101  1  0
 43102  1  0
 44103  1  0
A    1
C36
A    2
C37
A    3
C35
A    4
C33
A    5
C13
A    6
C3
A    7
C2
A    8
C1
A    9
C26
A   10
C27
A   11
C25
A   12
C6
A   13
C28
A   14
C4
A   15
C52
A   16
C14
A   17
C24
A   18
C7
A   19
C51
A   20
C50
A   21
C49
A   22
C48
A   23
C47
A   24
C46
A   25
C45
A   26
C44
A   27
C43
A   28
C42
A   29
C40
A   30
N34
A   31
N32
A   32
N11
A   33
O39
A   34
O38
A   35
O15
A   36
O18
A   37
O21
A   38
O29
A   39
O5
A   40
O9
A   41
O30
A   42
O31
A   43
O8
A   44
O41
A   45
O17
A   46
O22
A   47
O10
A   48
O12
A   49
O23
A   50
O19
A   51
P16
A   52
P20
M  END
