4P2T_24Q_A_201
     RDKit          3D

 67 70  0  0  0  0  0  0  0  0999 V2000
  -29.5080  -14.8020  -42.2630 C   0  0  0  0  0  0  0  0  0  0  0  0
  -29.2600  -20.9860  -42.7220 C   0  0  0  0  0  0  0  0  0  0  0  0
  -30.6110  -22.9090  -42.2250 C   0  0  0  0  0  0  0  0  0  0  0  0
  -29.7130  -23.7150  -42.9050 C   0  0  0  0  0  0  0  0  0  0  0  0
  -28.5900  -23.1600  -43.4940 C   0  0  0  0  0  0  0  0  0  0  0  0
  -25.9960  -20.8970  -43.0660 C   0  0  0  0  0  0  0  0  0  0  0  0
  -26.2190  -20.7590  -41.7020 C   0  0  0  0  0  0  0  0  0  0  0  0
  -23.6540  -20.4630  -42.7050 C   0  0  0  0  0  0  0  0  0  0  0  0
  -25.5170  -16.7800  -46.1810 C   0  0  0  0  0  0  0  0  0  0  0  0
  -26.2180  -16.3910  -44.8890 C   0  0  0  0  0  0  0  0  0  0  0  0
  -25.2130  -16.0570  -43.8010 C   0  0  0  0  0  0  0  0  0  0  0  0
  -24.2970  -17.2440  -43.6080 C   0  0  0  0  0  0  0  0  0  0  0  0
  -23.5550  -17.5750  -44.8870 C   0  0  0  0  0  0  0  0  0  0  0  0
  -24.0100  -16.7290  -46.0540 C   0  0  0  0  0  0  0  0  0  0  0  0
  -25.8470  -15.7140  -42.4590 C   0  0  0  0  0  0  0  0  0  0  0  0
  -27.3580  -15.8260  -42.4120 C   0  0  0  0  0  0  0  0  0  0  0  0
  -28.1460  -14.6890  -42.3160 C   0  0  0  0  0  0  0  0  0  0  0  0
  -30.0970  -16.0340  -42.2980 C   0  0  0  0  0  0  0  0  0  0  0  0
  -29.3030  -17.1650  -42.3910 C   0  0  0  0  0  0  0  0  0  0  0  0
  -27.9480  -17.0480  -42.4400 N   0  0  0  0  0  0  0  0  0  0  0  0
  -29.8910  -18.5550  -42.4290 C   0  0  0  0  0  0  0  0  0  0  0  0
  -31.0810  -18.7340  -42.2620 O   0  0  0  0  0  0  0  0  0  0  0  0
  -28.9560  -19.6010  -42.6490 N   0  0  0  0  0  0  0  0  0  0  0  0
  -28.3550  -21.7990  -43.3920 C   0  0  0  0  0  0  0  0  0  0  0  0
  -30.3820  -21.5440  -42.1260 C   0  0  0  0  0  0  0  0  0  0  0  0
  -27.1190  -21.2040  -44.0450 C   0  0  0  0  0  0  0  0  0  0  0  0
  -25.1660  -20.4750  -40.8450 C   0  0  0  0  0  0  0  0  0  0  0  0
  -24.7080  -20.7470  -43.5600 C   0  0  0  0  0  0  0  0  0  0  0  0
  -23.8830  -20.3270  -41.3450 C   0  0  0  0  0  0  0  0  0  0  0  0
  -29.9650  -25.2010  -43.0230 C   0  0  0  0  0  0  0  0  0  0  0  0
  -30.8680  -25.7160  -42.3930 O   0  0  0  0  0  0  0  0  0  0  0  0
  -29.1540  -25.9830  -43.8880 N   0  0  0  0  0  0  0  0  0  0  0  0
  -29.4220  -27.5950  -44.0480 S   0  0  0  0  0  0  0  0  0  0  0  0
  -30.7110  -27.8250  -44.6430 O   0  0  0  0  0  0  0  0  0  0  0  0
  -29.5800  -28.2580  -42.7820 O   0  0  0  0  0  0  0  0  0  0  0  0
  -28.1570  -28.3480  -45.0300 C   0  0  0  0  0  0  0  0  0  0  0  0
  -30.1309  -13.8982  -42.1920 H   0  0  0  0  0  0  0  0  0  0  0  0
  -31.5061  -23.3512  -41.7632 H   0  0  0  0  0  0  0  0  0  0  0  0
  -27.8840  -23.8002  -44.0433 H   0  0  0  0  0  0  0  0  0  0  0  0
  -27.2360  -20.8755  -41.2993 H   0  0  0  0  0  0  0  0  0  0  0  0
  -22.6365  -20.3457  -43.1061 H   0  0  0  0  0  0  0  0  0  0  0  0
  -25.8149  -17.8040  -46.4507 H   0  0  0  0  0  0  0  0  0  0  0  0
  -25.8142  -16.0581  -46.9559 H   0  0  0  0  0  0  0  0  0  0  0  0
  -26.8518  -15.5114  -45.0749 H   0  0  0  0  0  0  0  0  0  0  0  0
  -26.8275  -17.2425  -44.5522 H   0  0  0  0  0  0  0  0  0  0  0  0
  -24.6705  -15.1608  -44.1365 H   0  0  0  0  0  0  0  0  0  0  0  0
  -23.5667  -17.0096  -42.8195 H   0  0  0  0  0  0  0  0  0  0  0  0
  -24.9077  -18.1136  -43.3237 H   0  0  0  0  0  0  0  0  0  0  0  0
  -22.4802  -17.4051  -44.7257 H   0  0  0  0  0  0  0  0  0  0  0  0
  -23.7651  -18.6262  -45.1335 H   0  0  0  0  0  0  0  0  0  0  0  0
  -23.5543  -17.1113  -46.9793 H   0  0  0  0  0  0  0  0  0  0  0  0
  -23.6994  -15.6875  -45.8846 H   0  0  0  0  0  0  0  0  0  0  0  0
  -25.4315  -16.3955  -41.7021 H   0  0  0  0  0  0  0  0  0  0  0  0
  -25.6133  -14.6554  -42.2724 H   0  0  0  0  0  0  0  0  0  0  0  0
  -27.6753  -13.6954  -42.2824 H   0  0  0  0  0  0  0  0  0  0  0  0
  -31.1921  -16.1270  -42.2527 H   0  0  0  0  0  0  0  0  0  0  0  0
  -27.9690  -19.3308  -42.7661 H   0  0  0  0  0  0  0  0  0  0  0  0
  -31.0888  -20.9053  -41.5759 H   0  0  0  0  0  0  0  0  0  0  0  0
  -27.4077  -20.2684  -44.5463 H   0  0  0  0  0  0  0  0  0  0  0  0
  -26.7342  -21.9568  -44.7487 H   0  0  0  0  0  0  0  0  0  0  0  0
  -25.3504  -20.3671  -39.7659 H   0  0  0  0  0  0  0  0  0  0  0  0
  -24.5216  -20.8543  -44.6388 H   0  0  0  0  0  0  0  0  0  0  0  0
  -23.0483  -20.1022  -40.6647 H   0  0  0  0  0  0  0  0  0  0  0  0
  -28.3927  -25.5359  -44.4184 H   0  0  0  0  0  0  0  0  0  0  0  0
  -27.4004  -28.7984  -44.3707 H   0  0  0  0  0  0  0  0  0  0  0  0
  -28.6015  -29.1286  -45.6649 H   0  0  0  0  0  0  0  0  0  0  0  0
  -27.6828  -27.5851  -45.6649 H   0  0  0  0  0  0  0  0  0  0  0  0
  1 17  2  0
  1 18  1  0
  2 23  1  0
  2 24  1  0
  2 25  2  0
  3  4  2  0
  3 25  1  0
  4  5  1  0
  4 30  1  0
  5 24  2  0
  6  7  2  0
  6 26  1  0
  6 28  1  0
  7 27  1  0
  8 28  2  0
  8 29  1  0
  9 10  1  0
  9 14  1  0
 10 11  1  0
 11 12  1  0
 11 15  1  0
 12 13  1  0
 13 14  1  0
 15 16  1  0
 16 17  1  0
 16 20  2  0
 18 19  2  0
 19 20  1  0
 19 21  1  0
 21 22  2  0
 21 23  1  0
 24 26  1  0
 27 29  2  0
 30 31  2  0
 30 32  1  0
 32 33  1  0
 33 34  2  0
 33 35  2  0
 33 36  1  0
  1 37  1  0
  3 38  1  0
  5 39  1  0
  7 40  1  0
  8 41  1  0
  9 42  1  0
  9 43  1  0
 10 44  1  0
 10 45  1  0
 11 46  1  0
 12 47  1  0
 12 48  1  0
 13 49  1  0
 13 50  1  0
 14 51  1  0
 14 52  1  0
 15 53  1  0
 15 54  1  0
 17 55  1  0
 18 56  1  0
 23 57  1  0
 25 58  1  0
 26 59  1  0
 26 60  1  0
 27 61  1  0
 28 62  1  0
 29 63  1  0
 32 64  1  0
 36 65  1  0
 36 66  1  0
 36 67  1  0
A    1
C10
A    2
C17
A    3
C20
A    4
C21
A    5
C22
A    6
C24
A    7
C26
A    8
C28
A    9
C01
A   10
C02
A   11
C03
A   12
C04
A   13
C05
A   14
C06
A   15
C07
A   16
C08
A   17
C09
A   18
C11
A   19
C12
A   20
N13
A   21
C14
A   22
O15
A   23
N16
A   24
C18
A   25
C19
A   26
C23
A   27
C25
A   28
C27
A   29
C29
A   30
C30
A   31
O31
A   32
N32
A   33
S33
A   34
O34
A   35
O35
A   36
C36
M  END
