4P38_21T_A_302
     RDKit          3D

 62 66  0  0  0  0  0  0  0  0999 V2000
   -6.1980   55.8660   17.7810 C   0  0  0  0  0  0  0  0  0  0  0  0
   -6.9740   55.1770   18.8760 C   0  0  0  0  0  0  0  0  0  0  0  0
   -7.2510   53.7500   18.4640 C   0  0  0  0  0  0  0  0  0  0  0  0
   -9.9360   57.2590   19.8650 C   0  0  0  0  0  0  0  0  0  0  0  0
   -9.8820   54.8510   17.3950 C   0  0  0  0  0  0  0  0  0  0  0  0
   -9.3300   55.0780   16.1490 C   0  0  0  0  0  0  0  0  0  0  0  0
   -9.6870   54.3050   15.0780 C   0  0  0  0  0  0  0  0  0  0  0  0
  -10.6200   53.3080   15.2280 C   0  0  0  0  0  0  0  0  0  0  0  0
  -11.2050   53.0860   16.4690 C   0  0  0  0  0  0  0  0  0  0  0  0
  -10.8420   53.8710   17.5560 C   0  0  0  0  0  0  0  0  0  0  0  0
  -10.9980   52.4970   14.0540 C   0  0  0  0  0  0  0  0  0  0  0  0
   -7.6840   57.5540   21.0000 C   0  0  0  0  0  0  0  0  0  0  0  0
   -5.5800   58.7690   21.1590 C   0  0  0  0  0  0  0  0  0  0  0  0
   -3.6760   59.8820   19.2410 C   0  0  0  0  0  0  0  0  0  0  0  0
   -2.7320   60.5920   20.1900 C   0  0  0  0  0  0  0  0  0  0  0  0
   -3.2000   60.3920   21.6150 C   0  0  0  0  0  0  0  0  0  0  0  0
   -3.2150   58.9090   21.9380 C   0  0  0  0  0  0  0  0  0  0  0  0
   -5.5430   60.2690   20.8240 C   0  0  0  0  0  0  0  0  0  0  0  0
   -6.1310   55.1360   20.1280 C   0  0  0  0  0  0  0  0  0  0  0  0
   -8.2910   55.9320   19.1380 C   0  0  0  0  0  0  0  0  0  0  0  0
   -8.5910   56.9510   20.0640 C   0  0  0  0  0  0  0  0  0  0  0  0
  -10.5130   56.5480   18.9210 N   0  0  0  0  0  0  0  0  0  0  0  0
   -9.5090   55.7140   18.4740 N   0  0  0  0  0  0  0  0  0  0  0  0
  -10.7280   53.0050   12.9290 O   0  0  0  0  0  0  0  0  0  0  0  0
  -11.5590   51.3890   14.2770 O   0  0  0  0  0  0  0  0  0  0  0  0
   -7.9070   57.5930   22.1940 O   0  0  0  0  0  0  0  0  0  0  0  0
   -6.5920   58.1040   20.3770 N   0  0  0  0  0  0  0  0  0  0  0  0
   -4.1680   58.1810   20.9780 C   0  0  0  0  0  0  0  0  0  0  0  0
   -3.6920   58.3990   19.5520 C   0  0  0  0  0  0  0  0  0  0  0  0
   -4.5900   60.9700   21.7720 C   0  0  0  0  0  0  0  0  0  0  0  0
   -5.0700   60.4560   19.3970 C   0  0  0  0  0  0  0  0  0  0  0  0
   -5.4465   56.5332   18.2283 H   0  0  0  0  0  0  0  0  0  0  0  0
   -5.6945   55.1120   17.1582 H   0  0  0  0  0  0  0  0  0  0  0  0
   -6.8872   56.4552   17.1582 H   0  0  0  0  0  0  0  0  0  0  0  0
   -7.3721   53.1261   19.3618 H   0  0  0  0  0  0  0  0  0  0  0  0
   -8.1730   53.7136   17.8651 H   0  0  0  0  0  0  0  0  0  0  0  0
   -6.4096   53.3714   17.8651 H   0  0  0  0  0  0  0  0  0  0  0  0
  -10.4670   58.0278   20.4455 H   0  0  0  0  0  0  0  0  0  0  0  0
   -8.5969   55.8874   16.0168 H   0  0  0  0  0  0  0  0  0  0  0  0
   -9.2261   54.4822   14.0951 H   0  0  0  0  0  0  0  0  0  0  0  0
  -11.9543   52.2899   16.5902 H   0  0  0  0  0  0  0  0  0  0  0  0
  -11.3150   53.7135   18.5366 H   0  0  0  0  0  0  0  0  0  0  0  0
   -5.8657   58.6104   22.2093 H   0  0  0  0  0  0  0  0  0  0  0  0
   -3.3354   60.0276   18.2052 H   0  0  0  0  0  0  0  0  0  0  0  0
   -1.7189   60.1789   20.0759 H   0  0  0  0  0  0  0  0  0  0  0  0
   -2.7195   61.6669   19.9569 H   0  0  0  0  0  0  0  0  0  0  0  0
   -2.5151   60.9043   22.3068 H   0  0  0  0  0  0  0  0  0  0  0  0
   -3.5570   58.7635   22.9733 H   0  0  0  0  0  0  0  0  0  0  0  0
   -2.2000   58.5005   21.8240 H   0  0  0  0  0  0  0  0  0  0  0  0
   -6.5503   60.6974   20.9325 H   0  0  0  0  0  0  0  0  0  0  0  0
   -6.7852   55.1678   21.0117 H   0  0  0  0  0  0  0  0  0  0  0  0
   -5.5405   54.2081   20.1422 H   0  0  0  0  0  0  0  0  0  0  0  0
   -5.4532   56.0022   20.1422 H   0  0  0  0  0  0  0  0  0  0  0  0
  -11.7106   51.0895   15.2084 H   0  0  0  0  0  0  0  0  0  0  0  0
   -6.4957   58.0418   19.3534 H   0  0  0  0  0  0  0  0  0  0  0  0
   -4.1863   57.1018   21.1900 H   0  0  0  0  0  0  0  0  0  0  0  0
   -4.3732   57.8867   18.8566 H   0  0  0  0  0  0  0  0  0  0  0  0
   -2.6762   57.9920   19.4404 H   0  0  0  0  0  0  0  0  0  0  0  0
   -4.5677   62.0450   21.5399 H   0  0  0  0  0  0  0  0  0  0  0  0
   -4.9315   60.8235   22.8073 H   0  0  0  0  0  0  0  0  0  0  0  0
   -5.0527   61.5290   19.1553 H   0  0  0  0  0  0  0  0  0  0  0  0
   -5.7570   59.9344   18.7144 H   0  0  0  0  0  0  0  0  0  0  0  0
 24 11  2  0
 11 25  1  0
 11  8  1  0
  7  8  1  0
  7  6  2  0
  8  9  2  0
  6  5  1  0
  9 10  1  0
  5 10  2  0
  5 23  1  0
  1  2  1  0
  3  2  1  0
 23 22  1  0
 23 20  1  0
  2 20  1  0
  2 19  1  0
 22  4  2  0
 20 21  2  0
 14 31  1  0
 14 29  1  0
 14 15  1  0
 31 18  1  0
 29 28  1  0
  4 21  1  0
 21 12  1  0
 15 16  1  0
 27 12  1  0
 27 13  1  0
 18 13  1  0
 18 30  1  0
 28 13  1  0
 28 17  1  0
 12 26  2  0
 16 30  1  0
 16 17  1  0
  1 32  1  0
  1 33  1  0
  1 34  1  0
  3 35  1  0
  3 36  1  0
  3 37  1  0
  4 38  1  0
  6 39  1  0
  7 40  1  0
  9 41  1  0
 10 42  1  0
 13 43  1  0
 14 44  1  0
 15 45  1  0
 15 46  1  0
 16 47  1  0
 17 48  1  0
 17 49  1  0
 18 50  1  0
 19 51  1  0
 19 52  1  0
 19 53  1  0
 25 54  1  0
 27 55  1  0
 28 56  1  0
 29 57  1  0
 29 58  1  0
 30 59  1  0
 30 60  1  0
 31 61  1  0
 31 62  1  0
A    1
C1
A    2
C2
A    3
C3
A    4
C7
A    5
C8
A    6
C9
A    7
C10
A    8
C11
A    9
C12
A   10
C13
A   11
C14
A   12
C15
A   13
C16
A   14
C19
A   15
C20
A   16
C21
A   17
C22
A   18
C24
A   19
C4
A   20
C5
A   21
C6
A   22
N1
A   23
N2
A   24
O1
A   25
O2
A   26
O3
A   27
N3
A   28
C17
A   29
C18
A   30
C23
A   31
C25
M  END
