4P3N_2CR_A_800
     RDKit          3D

 78 79  0  0  0  0  0  0  0  0999 V2000
   14.1390   -7.2400  -12.2790 C   0  0  0  0  0  0  0  0  0  0  0  0
   14.2990   -5.7920  -12.5490 C   0  0  0  0  0  0  0  0  0  0  0  0
   12.9290   -5.2740  -12.8390 C   0  0  0  0  0  0  0  0  0  0  0  0
   12.0420   -6.4410  -13.1660 C   0  0  0  0  0  0  0  0  0  0  0  0
   12.8100   -7.6770  -12.8250 C   0  0  0  0  0  0  0  0  0  0  0  0
   15.1590   -8.1150  -12.9190 C   0  0  0  0  0  0  0  0  0  0  0  0
   14.4540   -9.4040  -12.5760 C   0  0  0  0  0  0  0  0  0  0  0  0
   15.3210  -10.4950  -12.0660 C   0  0  0  0  0  0  0  0  0  0  0  0
   15.2430  -11.0410  -10.8720 C   0  0  0  0  0  0  0  0  0  0  0  0
   16.2390  -12.0730  -10.7840 C   0  0  0  0  0  0  0  0  0  0  0  0
   16.6590  -12.9290   -9.8610 C   0  0  0  0  0  0  0  0  0  0  0  0
   16.2680  -13.0520   -8.6850 C   0  0  0  0  0  0  0  0  0  0  0  0
   17.7480  -13.8160  -10.3530 C   0  0  0  0  0  0  0  0  0  0  0  0
   18.9620  -13.5240   -9.5200 C   0  0  0  0  0  0  0  0  0  0  0  0
   20.1420  -14.3220   -9.9910 C   0  0  0  0  0  0  0  0  0  0  0  0
   19.2820  -12.0430   -9.5230 C   0  0  0  0  0  0  0  0  0  0  0  0
   20.6750  -11.8400   -8.9940 C   0  0  0  0  0  0  0  0  0  0  0  0
   20.6870  -12.0690   -7.5140 C   0  0  0  0  0  0  0  0  0  0  0  0
   21.1680  -10.4440   -9.2610 C   0  0  0  0  0  0  0  0  0  0  0  0
   21.2240  -10.1240  -10.7300 C   0  0  0  0  0  0  0  0  0  0  0  0
   22.5530  -10.5230  -11.2970 C   0  0  0  0  0  0  0  0  0  0  0  0
   21.0050   -8.6400  -10.8530 C   0  0  0  0  0  0  0  0  0  0  0  0
   21.2080   -8.1040  -12.2370 C   0  0  0  0  0  0  0  0  0  0  0  0
   21.9110   -6.7910  -12.0620 C   0  0  0  0  0  0  0  0  0  0  0  0
   19.9330   -7.8380  -12.9850 C   0  0  0  0  0  0  0  0  0  0  0  0
   18.7630   -7.7550  -12.0690 C   0  0  0  0  0  0  0  0  0  0  0  0
   17.5320   -7.8990  -12.8730 C   0  0  0  0  0  0  0  0  0  0  0  0
   17.5530   -7.9760  -14.0460 O   0  0  0  0  0  0  0  0  0  0  0  0
   16.3110   -7.9530  -12.1690 O   0  0  0  0  0  0  0  0  0  0  0  0
   14.7940   -5.1250  -11.3390 C   0  0  0  0  0  0  0  0  0  0  0  0
   14.2310   -5.3140  -10.2650 O   0  0  0  0  0  0  0  0  0  0  0  0
   15.7640   -4.3860  -11.4880 O   0  0  0  0  0  0  0  0  0  0  0  0
   17.3780  -15.1740  -10.2310 O   0  0  0  0  0  0  0  0  0  0  0  0
   19.6510   -8.8990  -13.8500 O   0  0  0  0  0  0  0  0  0  0  0  0
   15.9890  -13.2290   -7.5900 N   0  0  0  0  0  0  0  0  0  0  0  0
   14.2414   -7.3500  -11.1893 H   0  0  0  0  0  0  0  0  0  0  0  0
   15.0005   -5.6127  -13.3771 H   0  0  0  0  0  0  0  0  0  0  0  0
   12.9659   -4.5838  -13.6947 H   0  0  0  0  0  0  0  0  0  0  0  0
   12.5361   -4.7329  -11.9656 H   0  0  0  0  0  0  0  0  0  0  0  0
   11.1183   -6.3929  -12.5706 H   0  0  0  0  0  0  0  0  0  0  0  0
   11.7571   -6.4343  -14.2284 H   0  0  0  0  0  0  0  0  0  0  0  0
   12.2660   -8.2616  -12.0685 H   0  0  0  0  0  0  0  0  0  0  0  0
   12.9434   -8.3106  -13.7142 H   0  0  0  0  0  0  0  0  0  0  0  0
   15.4408   -7.9835  -13.9741 H   0  0  0  0  0  0  0  0  0  0  0  0
   13.7007   -9.1827  -11.8056 H   0  0  0  0  0  0  0  0  0  0  0  0
   14.0298   -9.7746  -13.5208 H   0  0  0  0  0  0  0  0  0  0  0  0
   16.0958  -10.8803  -12.7452 H   0  0  0  0  0  0  0  0  0  0  0  0
   14.5371  -10.7567  -10.0778 H   0  0  0  0  0  0  0  0  0  0  0  0
   16.7979  -12.1816  -11.7252 H   0  0  0  0  0  0  0  0  0  0  0  0
   17.9505  -13.6290  -11.4179 H   0  0  0  0  0  0  0  0  0  0  0  0
   18.7376  -13.8223   -8.4853 H   0  0  0  0  0  0  0  0  0  0  0  0
   20.7001  -14.6994   -9.1214 H   0  0  0  0  0  0  0  0  0  0  0  0
   19.7924  -15.1698  -10.5984 H   0  0  0  0  0  0  0  0  0  0  0  0
   20.7987  -13.6818  -10.5984 H   0  0  0  0  0  0  0  0  0  0  0  0
   19.2176  -11.6542  -10.5500 H   0  0  0  0  0  0  0  0  0  0  0  0
   18.5621  -11.5068   -8.8872 H   0  0  0  0  0  0  0  0  0  0  0  0
   21.3349  -12.5552   -9.5068 H   0  0  0  0  0  0  0  0  0  0  0  0
   20.6363  -11.1016   -6.9929 H   0  0  0  0  0  0  0  0  0  0  0  0
   19.8198  -12.6838   -7.2311 H   0  0  0  0  0  0  0  0  0  0  0  0
   21.6137  -12.5898   -7.2311 H   0  0  0  0  0  0  0  0  0  0  0  0
   22.1783  -10.3398   -8.8385 H   0  0  0  0  0  0  0  0  0  0  0  0
   20.4599   -9.7442   -8.7932 H   0  0  0  0  0  0  0  0  0  0  0  0
   20.4571  -10.6765  -11.2927 H   0  0  0  0  0  0  0  0  0  0  0  0
   23.2538  -10.7334  -10.4757 H   0  0  0  0  0  0  0  0  0  0  0  0
   22.4320  -11.4244  -11.9157 H   0  0  0  0  0  0  0  0  0  0  0  0
   22.9485   -9.7040  -11.9157 H   0  0  0  0  0  0  0  0  0  0  0  0
   21.7085   -8.1300  -10.1785 H   0  0  0  0  0  0  0  0  0  0  0  0
   19.9532   -8.4520  -10.5914 H   0  0  0  0  0  0  0  0  0  0  0  0
   21.7633   -8.8524  -12.8214 H   0  0  0  0  0  0  0  0  0  0  0  0
   22.0258   -6.5767  -10.9892 H   0  0  0  0  0  0  0  0  0  0  0  0
   22.9032   -6.8405  -12.5342 H   0  0  0  0  0  0  0  0  0  0  0  0
   21.3197   -5.9927  -12.5342 H   0  0  0  0  0  0  0  0  0  0  0  0
   20.0830   -6.8879  -13.5187 H   0  0  0  0  0  0  0  0  0  0  0  0
   18.8166   -8.5620  -11.3234 H   0  0  0  0  0  0  0  0  0  0  0  0
   18.7612   -6.7885  -11.5438 H   0  0  0  0  0  0  0  0  0  0  0  0
   14.7152   -5.1515   -9.4169 H   0  0  0  0  0  0  0  0  0  0  0  0
   17.3128  -15.4134   -9.2726 H   0  0  0  0  0  0  0  0  0  0  0  0
   19.4360   -9.7078  -13.3211 H   0  0  0  0  0  0  0  0  0  0  0  0
 28 27  2  0
 34 25  1  0
  4  3  1  0
  4  5  1  0
 25 23  1  0
 25 26  1  0
  6  7  1  0
  6  1  1  0
  6 29  1  0
 27 29  1  0
 27 26  1  0
  3  2  1  0
  5  1  1  0
  7  8  1  0
  2  1  1  0
  2 30  1  0
 23 24  1  0
 23 22  1  0
  8  9  2  0
 32 30  2  0
 30 31  1  0
 21 20  1  0
  9 10  1  0
 22 20  1  0
 10 11  2  0
 20 19  1  0
 13 33  1  0
 13 11  1  0
 13 14  1  0
 15 14  1  0
 11 12  1  0
 16 14  1  0
 16 17  1  0
 19 17  1  0
 17 18  1  0
 12 35  3  0
  1 36  1  0
  2 37  1  0
  3 38  1  0
  3 39  1  0
  4 40  1  0
  4 41  1  0
  5 42  1  0
  5 43  1  0
  6 44  1  0
  7 45  1  0
  7 46  1  0
  8 47  1  0
  9 48  1  0
 10 49  1  0
 13 50  1  0
 14 51  1  0
 15 52  1  0
 15 53  1  0
 15 54  1  0
 16 55  1  0
 16 56  1  0
 17 57  1  0
 18 58  1  0
 18 59  1  0
 18 60  1  0
 19 61  1  0
 19 62  1  0
 20 63  1  0
 21 64  1  0
 21 65  1  0
 21 66  1  0
 22 67  1  0
 22 68  1  0
 23 69  1  0
 24 70  1  0
 24 71  1  0
 24 72  1  0
 25 73  1  0
 26 74  1  0
 26 75  1  0
 31 76  1  0
 33 77  1  0
 34 78  1  0
A    1
C1
A    2
C2
A    3
C3
A    4
C4
A    5
C5
A    6
C6
A    7
C7
A    8
C8
A    9
C9
A   10
C10
A   11
C11
A   12
C12
A   13
C13
A   14
C14
A   15
C15
A   16
C16
A   17
C17
A   18
C18
A   19
C19
A   20
C20
A   21
C21
A   22
C22
A   23
C23
A   24
C24
A   25
C25
A   26
C26
A   27
C27
A   28
O28
A   29
O29
A   30
C30
A   31
O31
A   32
O32
A   33
O33
A   34
O34
A   35
N35
M  END
