4P45_2F9_A_822
     RDKit          3D

 63 63  0  0  0  0  0  0  0  0999 V2000
   13.7540   48.7200   40.4140 O   0  0  0  0  0  0  0  0  0  0  0  0
   13.8190   47.4990   40.2340 C   0  0  0  0  0  0  0  0  0  0  0  0
   12.9850   46.9070   39.4930 O   0  0  0  0  0  0  0  0  0  0  0  0
   14.9700   46.7530   40.9200 C   0  0  0  0  0  0  0  0  0  0  0  0
   14.7130   45.2130   41.0650 C   0  0  0  0  0  0  0  0  0  0  0  0
   16.0040   44.4630   41.5410 C   0  0  0  0  0  0  0  0  0  0  0  0
   17.0630   44.6020   40.4290 C   0  0  0  0  0  0  0  0  0  0  0  0
   17.9760   45.4790   40.4690 O   0  0  0  0  0  0  0  0  0  0  0  0
   16.8730   43.8030   39.4370 O   0  0  0  0  0  0  0  0  0  0  0  0
   16.4880   44.9000   42.8990 N   0  0  0  0  0  0  0  0  0  0  0  0
   17.5640   44.0130   43.6520 P   0  0  0  0  0  0  0  0  0  0  0  0
   18.1920   42.9230   42.6830 O   0  0  0  0  0  0  0  0  0  0  0  0
   16.9420   43.4190   44.8690 O   0  0  0  0  0  0  0  0  0  0  0  0
   18.6520   44.9500   44.2250 O   0  0  0  0  0  0  0  0  0  0  0  0
   19.4130   45.7410   43.2970 C   0  0  0  0  0  0  0  0  0  0  0  0
   20.2100   46.8240   43.9660 C   0  0  0  0  0  0  0  0  0  0  0  0
   20.4750   46.5290   45.3930 C   0  0  0  0  0  0  0  0  0  0  0  0
   21.4280   45.7670   45.6650 O   0  0  0  0  0  0  0  0  0  0  0  0
   19.9090   47.2770   46.1410 O   0  0  0  0  0  0  0  0  0  0  0  0
   21.5330   46.9720   43.3100 N   0  0  0  0  0  0  0  0  0  0  0  0
   22.1570   48.2000   43.2110 C   0  0  0  0  0  0  0  0  0  0  0  0
   21.7740   49.2370   43.7840 O   0  0  0  0  0  0  0  0  0  0  0  0
   23.4960   48.2220   42.4510 C   0  0  0  0  0  0  0  0  0  0  0  0
   24.4520   47.2800   43.2100 C   0  0  0  0  0  0  0  0  0  0  0  0
   24.9620   47.9870   44.5130 C   0  0  0  0  0  0  0  0  0  0  0  0
   25.6260   46.8990   42.2600 C   0  0  0  0  0  0  0  0  0  0  0  0
   23.9870   49.6540   42.3700 N   0  0  0  0  0  0  0  0  0  0  0  0
   24.5780   50.2220   41.2660 C   0  0  0  0  0  0  0  0  0  0  0  0
   24.8960   49.5560   40.2660 O   0  0  0  0  0  0  0  0  0  0  0  0
   24.9430   51.6020   41.3700 C   0  0  0  0  0  0  0  0  0  0  0  0
   24.6530   52.3570   42.5250 C   0  0  0  0  0  0  0  0  0  0  0  0
   25.0440   53.7010   42.6540 C   0  0  0  0  0  0  0  0  0  0  0  0
   25.7360   54.3070   41.6030 C   0  0  0  0  0  0  0  0  0  0  0  0
   26.1930   55.7790   41.7500 F   0  0  0  0  0  0  0  0  0  0  0  0
   26.0470   53.5720   40.4570 C   0  0  0  0  0  0  0  0  0  0  0  0
   25.6150   52.2320   40.3280 C   0  0  0  0  0  0  0  0  0  0  0  0
   13.7346   49.0843   41.3343 H   0  0  0  0  0  0  0  0  0  0  0  0
   15.8842   46.8998   40.3261 H   0  0  0  0  0  0  0  0  0  0  0  0
   15.0647   47.1642   41.9359 H   0  0  0  0  0  0  0  0  0  0  0  0
   13.9123   45.0511   41.8017 H   0  0  0  0  0  0  0  0  0  0  0  0
   14.4229   44.8151   40.0814 H   0  0  0  0  0  0  0  0  0  0  0  0
   15.7755   43.3980   41.6941 H   0  0  0  0  0  0  0  0  0  0  0  0
   18.3133   45.8030   41.3416 H   0  0  0  0  0  0  0  0  0  0  0  0
   16.8960   45.8390   42.7865 H   0  0  0  0  0  0  0  0  0  0  0  0
   17.3555   43.8139   45.6772 H   0  0  0  0  0  0  0  0  0  0  0  0
   18.7190   46.2071   42.5820 H   0  0  0  0  0  0  0  0  0  0  0  0
   20.1257   45.0681   42.7977 H   0  0  0  0  0  0  0  0  0  0  0  0
   19.6073   47.7403   43.8811 H   0  0  0  0  0  0  0  0  0  0  0  0
   19.9980   47.1594   47.1199 H   0  0  0  0  0  0  0  0  0  0  0  0
   21.9967   46.1393   42.9194 H   0  0  0  0  0  0  0  0  0  0  0  0
   23.4133   47.8666   41.4133 H   0  0  0  0  0  0  0  0  0  0  0  0
   23.9345   46.3587   43.5156 H   0  0  0  0  0  0  0  0  0  0  0  0
   24.5770   47.4533   45.3944 H   0  0  0  0  0  0  0  0  0  0  0  0
   26.0618   47.9764   44.5294 H   0  0  0  0  0  0  0  0  0  0  0  0
   24.6050   49.0273   44.5294 H   0  0  0  0  0  0  0  0  0  0  0  0
   26.5040   46.6140   42.8582 H   0  0  0  0  0  0  0  0  0  0  0  0
   25.3243   46.0527   41.6254 H   0  0  0  0  0  0  0  0  0  0  0  0
   25.8788   47.7612   41.6254 H   0  0  0  0  0  0  0  0  0  0  0  0
   23.8690   50.2459   43.2046 H   0  0  0  0  0  0  0  0  0  0  0  0
   24.1041   51.8797   43.3502 H   0  0  0  0  0  0  0  0  0  0  0  0
   24.8088   54.2663   43.5679 H   0  0  0  0  0  0  0  0  0  0  0  0
   26.6314   54.0383   39.6501 H   0  0  0  0  0  0  0  0  0  0  0  0
   25.8121   51.6830   39.3954 H   0  0  0  0  0  0  0  0  0  0  0  0
  9  7  2  0
  3  2  2  0
  2  1  1  0
  2  4  1  0
 29 28  2  0
 36 35  1  0
 36 30  2  0
  7  8  1  0
  7  6  1  0
 35 33  2  0
  4  5  1  0
  5  6  1  0
 28 30  1  0
 28 27  1  0
 30 31  1  0
  6 10  1  0
 33 34  1  0
 33 32  1  0
 26 24  1  0
 27 23  1  0
 23 24  1  0
 23 21  1  0
 31 32  2  0
 12 11  2  0
 10 11  1  0
 24 25  1  0
 21 20  1  0
 21 22  2  0
 15 16  1  0
 15 14  1  0
 20 16  1  0
 11 14  1  0
 11 13  1  0
 16 17  1  0
 17 18  2  0
 17 19  1  0
  1 37  1  0
  4 38  1  0
  4 39  1  0
  5 40  1  0
  5 41  1  0
  6 42  1  0
  8 43  1  0
 10 44  1  0
 13 45  1  0
 15 46  1  0
 15 47  1  0
 16 48  1  0
 19 49  1  0
 20 50  1  0
 23 51  1  0
 24 52  1  0
 25 53  1  0
 25 54  1  0
 25 55  1  0
 26 56  1  0
 26 57  1  0
 26 58  1  0
 27 59  1  0
 31 60  1  0
 32 61  1  0
 35 62  1  0
 36 63  1  0
A    1
OE1
A    2
CD
A    3
OE2
A    4
CG
A    5
CB
A    6
CA
A    7
C
A    8
OXT
A    9
O
A   10
N
A   11
PBJ
A   12
OAL
A   13
OAH
A   14
OAX
A   15
CAT
A   16
CBH
A   17
CBA
A   18
OAK
A   19
OAE
A   20
NAV
A   21
CBC
A   22
OAG
A   23
CBI
A   24
CBF
A   25
CAB
A   26
CAA
A   27
NAU
A   28
CBB
A   29
OAF
A   30
CBE
A   31
CAP
A   32
CAN
A   33
CBD
A   34
FAM
A   35
CAO
A   36
CAQ
M  END
