4P4C_25Q_A_1001
     RDKit          3D

 40 43  0  0  0  0  0  0  0  0999 V2000
    1.3710  -15.1110  -18.3730 C   0  0  0  0  0  0  0  0  0  0  0  0
    1.7510  -13.9440  -19.0370 C   0  0  0  0  0  0  0  0  0  0  0  0
    1.8940  -12.7370  -18.3560 C   0  0  0  0  0  0  0  0  0  0  0  0
    1.6560  -12.6820  -16.9870 C   0  0  0  0  0  0  0  0  0  0  0  0
    1.2450  -13.9340  -16.2760 C   0  0  0  0  0  0  0  0  0  0  0  0
    1.1170  -15.1130  -17.0030 C   0  0  0  0  0  0  0  0  0  0  0  0
    0.6050  -12.8970  -10.6740 O   0  0  0  0  0  0  0  0  0  0  0  0
    0.5730  -13.3240  -11.8180 C   0  0  0  0  0  0  0  0  0  0  0  0
    0.2230  -14.5680  -12.1340 N   0  0  0  0  0  0  0  0  0  0  0  0
    0.9680  -12.3910  -12.8900 C   0  0  0  0  0  0  0  0  0  0  0  0
    1.2820  -10.9680  -12.8060 C   0  0  0  0  0  0  0  0  0  0  0  0
    1.2210  -10.2330  -11.6670 N   0  0  0  0  0  0  0  0  0  0  0  0
    1.5560  -10.5220  -14.0410 N   0  0  0  0  0  0  0  0  0  0  0  0
    1.5550  -11.4800  -14.9960 C   0  0  0  0  0  0  0  0  0  0  0  0
    1.7950  -11.5030  -16.3270 N   0  0  0  0  0  0  0  0  0  0  0  0
    1.1500  -12.7450  -14.3170 C   0  0  0  0  0  0  0  0  0  0  0  0
    1.0010  -13.9290  -14.9450 N   0  0  0  0  0  0  0  0  0  0  0  0
    1.9430   -9.2700  -14.2750 C   0  0  0  0  0  0  0  0  0  0  0  0
    1.2430   -8.3120  -15.0040 C   0  0  0  0  0  0  0  0  0  0  0  0
    1.7440   -7.0250  -15.1970 C   0  0  0  0  0  0  0  0  0  0  0  0
    2.9790   -6.6560  -14.6870 C   0  0  0  0  0  0  0  0  0  0  0  0
    3.7040   -7.5910  -13.9690 C   0  0  0  0  0  0  0  0  0  0  0  0
    3.1850   -8.8680  -13.7880 C   0  0  0  0  0  0  0  0  0  0  0  0
    4.9370   -7.2860  -13.4450 O   0  0  0  0  0  0  0  0  0  0  0  0
    5.5370   -8.1680  -12.5040 C   0  0  0  0  0  0  0  0  0  0  0  0
    1.2701  -16.0470  -18.9419 H   0  0  0  0  0  0  0  0  0  0  0  0
    1.9415  -13.9777  -20.1199 H   0  0  0  0  0  0  0  0  0  0  0  0
    2.1945  -11.8294  -18.9001 H   0  0  0  0  0  0  0  0  0  0  0  0
    0.8165  -16.0431  -16.4984 H   0  0  0  0  0  0  0  0  0  0  0  0
    0.0301  -15.2535  -11.3898 H   0  0  0  0  0  0  0  0  0  0  0  0
    0.1449  -14.8456  -13.1228 H   0  0  0  0  0  0  0  0  0  0  0  0
    1.2598  -10.7002  -10.7499 H   0  0  0  0  0  0  0  0  0  0  0  0
    1.1359   -9.2079  -11.7195 H   0  0  0  0  0  0  0  0  0  0  0  0
    0.2684   -8.5777  -15.4394 H   0  0  0  0  0  0  0  0  0  0  0  0
    1.1503   -6.2916  -15.7624 H   0  0  0  0  0  0  0  0  0  0  0  0
    3.3741   -5.6423  -14.8494 H   0  0  0  0  0  0  0  0  0  0  0  0
    3.7872   -9.6003  -13.2304 H   0  0  0  0  0  0  0  0  0  0  0  0
    5.3058   -7.8281  -11.4837 H   0  0  0  0  0  0  0  0  0  0  0  0
    5.1420   -9.1842  -12.6503 H   0  0  0  0  0  0  0  0  0  0  0  0
    6.6272   -8.1738  -12.6503 H   0  0  0  0  0  0  0  0  0  0  0  0
  2  1  2  0
  2  3  1  0
  1  6  1  0
  3  4  2  0
  6  5  2  0
  4 15  1  0
  4  5  1  0
 15 14  2  0
  5 17  1  0
 20 19  2  0
 20 21  1  0
 19 18  1  0
 14 16  1  0
 14 13  1  0
 17 16  2  0
 21 22  2  0
 16 10  1  0
 18 13  1  0
 18 23  2  0
 13 11  1  0
 22 23  1  0
 22 24  1  0
 24 25  1  0
 10 11  2  0
 10  8  1  0
 11 12  1  0
  9  8  1  0
  8  7  2  0
  1 26  1  0
  2 27  1  0
  3 28  1  0
  6 29  1  0
  9 30  1  0
  9 31  1  0
 12 32  1  0
 12 33  1  0
 19 34  1  0
 20 35  1  0
 21 36  1  0
 23 37  1  0
 25 38  1  0
 25 39  1  0
 25 40  1  0
A    1
C1
A    2
C2
A    3
C3
A    4
C4
A    5
C5
A    6
C6
A    7
O23
A    8
C22
A    9
N24
A   10
C9
A   11
C10
A   12
N21
A   13
N11
A   14
C12
A   15
N13
A   16
C8
A   17
N7
A   18
C14
A   19
C19
A   20
C18
A   21
C17
A   22
C16
A   23
C15
A   24
O30
A   25
C35
M  END
