4P5Q_Q0B_A_1001
     RDKit          3D

 52 55  0  0  0  0  0  0  0  0999 V2000
    4.5370   -9.1090  -13.1170 Cl  0  0  0  0  0  0  0  0  0  0  0  0
    3.1350   -8.2000  -13.7660 C   0  0  0  0  0  0  0  0  0  0  0  0
    3.2440   -6.8310  -13.9690 C   0  0  0  0  0  0  0  0  0  0  0  0
    2.1760   -6.1130  -14.4720 C   0  0  0  0  0  0  0  0  0  0  0  0
    0.9970   -6.7650  -14.7830 C   0  0  0  0  0  0  0  0  0  0  0  0
    0.8590   -8.1320  -14.6020 C   0  0  0  0  0  0  0  0  0  0  0  0
    1.8810   -8.9300  -14.0990 C   0  0  0  0  0  0  0  0  0  0  0  0
    1.7550  -10.2460  -13.9230 N   0  0  0  0  0  0  0  0  0  0  0  0
    1.4510  -10.8200  -12.7510 C   0  0  0  0  0  0  0  0  0  0  0  0
    1.2520  -10.1630  -11.5760 N   0  0  0  0  0  0  0  0  0  0  0  0
    1.9000  -11.1020  -14.9540 C   0  0  0  0  0  0  0  0  0  0  0  0
    1.6860  -12.4680  -14.3940 C   0  0  0  0  0  0  0  0  0  0  0  0
    1.7650  -13.5930  -15.1400 N   0  0  0  0  0  0  0  0  0  0  0  0
    2.0550  -13.4390  -16.4540 C   0  0  0  0  0  0  0  0  0  0  0  0
    2.1500  -14.5490  -17.2850 C   0  0  0  0  0  0  0  0  0  0  0  0
    2.4490  -14.3820  -18.6350 C   0  0  0  0  0  0  0  0  0  0  0  0
    2.6530  -13.1160  -19.1780 C   0  0  0  0  0  0  0  0  0  0  0  0
    2.5690  -11.9710  -18.3900 C   0  0  0  0  0  0  0  0  0  0  0  0
    2.2750  -12.0810  -17.0360 C   0  0  0  0  0  0  0  0  0  0  0  0
    2.1930  -10.9680  -16.2700 N   0  0  0  0  0  0  0  0  0  0  0  0
    1.3920  -12.2850  -12.9460 C   0  0  0  0  0  0  0  0  0  0  0  0
    1.1150  -13.4150  -12.0080 C   0  0  0  0  0  0  0  0  0  0  0  0
    0.9150  -13.1990  -10.8210 O   0  0  0  0  0  0  0  0  0  0  0  0
    1.1050  -14.6520  -12.4850 N   0  0  0  0  0  0  0  0  0  0  0  0
    1.4590  -15.7860  -11.6540 C   0  0  0  0  0  0  0  0  0  0  0  0
    1.3190  -17.1120  -12.4000 C   0  0  0  0  0  0  0  0  0  0  0  0
   -0.0700  -17.7170  -12.2280 C   0  0  0  0  0  0  0  0  0  0  0  0
   -0.2860  -18.7230  -13.2190 O   0  0  0  0  0  0  0  0  0  0  0  0
   -1.4430  -19.5100  -12.9380 C   0  0  0  0  0  0  0  0  0  0  0  0
   -1.7770  -20.3940  -14.1200 C   0  0  0  0  0  0  0  0  0  0  0  0
    4.1853   -6.3153  -13.7282 H   0  0  0  0  0  0  0  0  0  0  0  0
    2.2633   -5.0271  -14.6244 H   0  0  0  0  0  0  0  0  0  0  0  0
    0.1509   -6.1865  -15.1824 H   0  0  0  0  0  0  0  0  0  0  0  0
   -0.0980   -8.6053  -14.8670 H   0  0  0  0  0  0  0  0  0  0  0  0
    1.4000  -10.6515  -10.6814 H   0  0  0  0  0  0  0  0  0  0  0  0
    0.9534   -9.1772  -11.5813 H   0  0  0  0  0  0  0  0  0  0  0  0
    1.9893  -15.5579  -16.8771 H   0  0  0  0  0  0  0  0  0  0  0  0
    2.5254  -15.2666  -19.2844 H   0  0  0  0  0  0  0  0  0  0  0  0
    2.8847  -13.0187  -20.2489 H   0  0  0  0  0  0  0  0  0  0  0  0
    2.7351  -10.9805  -18.8386 H   0  0  0  0  0  0  0  0  0  0  0  0
    0.8399  -14.8108  -13.4675 H   0  0  0  0  0  0  0  0  0  0  0  0
    2.5026  -15.6726  -11.3252 H   0  0  0  0  0  0  0  0  0  0  0  0
    0.7700  -15.8056  -10.7967 H   0  0  0  0  0  0  0  0  0  0  0  0
    2.0658  -17.8196  -12.0108 H   0  0  0  0  0  0  0  0  0  0  0  0
    1.4765  -16.9188  -13.4714 H   0  0  0  0  0  0  0  0  0  0  0  0
   -0.8282  -16.9277  -12.3377 H   0  0  0  0  0  0  0  0  0  0  0  0
   -0.1477  -18.1694  -11.2284 H   0  0  0  0  0  0  0  0  0  0  0  0
   -2.2936  -18.8438  -12.7314 H   0  0  0  0  0  0  0  0  0  0  0  0
   -1.2400  -20.1446  -12.0628 H   0  0  0  0  0  0  0  0  0  0  0  0
   -2.1442  -21.3659  -13.7588 H   0  0  0  0  0  0  0  0  0  0  0  0
   -2.5550  -19.9119  -14.7302 H   0  0  0  0  0  0  0  0  0  0  0  0
   -0.8746  -20.5468  -14.7302 H   0  0  0  0  0  0  0  0  0  0  0  0
 17 16  2  0
 17 18  1  0
 16 15  1  0
 18 19  2  0
 15 14  2  0
 19 14  1  0
 19 20  1  0
 14 13  1  0
 20 11  2  0
 13 12  2  0
 11 12  1  0
 11  8  1  0
  5  6  2  0
  5  4  1  0
  6  7  1  0
  4  3  2  0
 12 21  1  0
 30 29  1  0
  7  8  1  0
  7  2  2  0
  3  2  1  0
  8  9  1  0
  2  1  1  0
 28 29  1  0
 28 27  1  0
 21  9  2  0
 21 22  1  0
  9 10  1  0
 24 22  1  0
 24 25  1  0
 26 27  1  0
 26 25  1  0
 22 23  2  0
  3 31  1  0
  4 32  1  0
  5 33  1  0
  6 34  1  0
 10 35  1  0
 10 36  1  0
 15 37  1  0
 16 38  1  0
 17 39  1  0
 18 40  1  0
 24 41  1  0
 25 42  1  0
 25 43  1  0
 26 44  1  0
 26 45  1  0
 27 46  1  0
 27 47  1  0
 29 48  1  0
 29 49  1  0
 30 50  1  0
 30 51  1  0
 30 52  1  0
A    1
CL
A    2
C15
A    3
C16
A    4
C17
A    5
C18
A    6
C19
A    7
C14
A    8
N11
A    9
C10
A   10
N21
A   11
C12
A   12
C8
A   13
N7
A   14
C5
A   15
C6
A   16
C1
A   17
C2
A   18
C3
A   19
C4
A   20
N13
A   21
C9
A   22
C22
A   23
O23
A   24
N24
A   25
C35
A   26
C36
A   27
C37
A   28
O38
A   29
C39
A   30
C40
M  END
