4P5Z_Q7M_A_1001
     RDKit          3D

 55 59  0  0  0  0  0  0  0  0999 V2000
   -4.7520    0.0410  -15.4620 F   0  0  0  0  0  0  0  0  0  0  0  0
   -3.7870   -0.5410  -14.8830 C   0  0  0  0  0  0  0  0  0  0  0  0
   -3.5300    0.2640  -13.9820 F   0  0  0  0  0  0  0  0  0  0  0  0
   -4.1260   -1.5210  -14.1640 F   0  0  0  0  0  0  0  0  0  0  0  0
   -2.5870   -0.7300  -15.7290 C   0  0  0  0  0  0  0  0  0  0  0  0
   -1.6610   -1.7390  -15.5800 C   0  0  0  0  0  0  0  0  0  0  0  0
   -2.3870    0.2130  -16.6780 C   0  0  0  0  0  0  0  0  0  0  0  0
   -1.3100    0.1530  -17.5140 C   0  0  0  0  0  0  0  0  0  0  0  0
   -0.3960   -0.8330  -17.3960 C   0  0  0  0  0  0  0  0  0  0  0  0
   -0.5340   -1.8130  -16.4450 C   0  0  0  0  0  0  0  0  0  0  0  0
    0.4190   -2.7980  -16.5040 N   0  0  0  0  0  0  0  0  0  0  0  0
    0.2900   -4.0070  -15.9690 C   0  0  0  0  0  0  0  0  0  0  0  0
   -0.7330   -4.3550  -15.4800 O   0  0  0  0  0  0  0  0  0  0  0  0
    1.3600   -4.7930  -16.0040 N   0  0  0  0  0  0  0  0  0  0  0  0
    1.4430   -6.0970  -15.6120 C   0  0  0  0  0  0  0  0  0  0  0  0
    0.3830   -6.9220  -15.3930 C   0  0  0  0  0  0  0  0  0  0  0  0
    0.5450   -8.1980  -14.9490 C   0  0  0  0  0  0  0  0  0  0  0  0
    2.6840   -6.6550  -15.3610 C   0  0  0  0  0  0  0  0  0  0  0  0
    2.8260   -7.9640  -14.8960 C   0  0  0  0  0  0  0  0  0  0  0  0
    1.7440   -8.7960  -14.6740 C   0  0  0  0  0  0  0  0  0  0  0  0
    1.6550  -10.0410  -14.2440 N   0  0  0  0  0  0  0  0  0  0  0  0
    1.2850  -10.4460  -13.0210 C   0  0  0  0  0  0  0  0  0  0  0  0
    1.1400   -9.6430  -11.9630 N   0  0  0  0  0  0  0  0  0  0  0  0
    1.6810  -11.0000  -15.1390 C   0  0  0  0  0  0  0  0  0  0  0  0
    1.4230  -12.2610  -14.4130 C   0  0  0  0  0  0  0  0  0  0  0  0
    1.1620  -11.9220  -12.9960 C   0  0  0  0  0  0  0  0  0  0  0  0
    0.8170  -12.9360  -11.9390 C   0  0  0  0  0  0  0  0  0  0  0  0
    0.5580  -14.1840  -12.2410 N   0  0  0  0  0  0  0  0  0  0  0  0
    0.7230  -12.6540  -10.7710 O   0  0  0  0  0  0  0  0  0  0  0  0
    1.9630  -11.0420  -16.4400 N   0  0  0  0  0  0  0  0  0  0  0  0
    1.9910  -12.2380  -17.0560 C   0  0  0  0  0  0  0  0  0  0  0  0
    1.7000  -13.4870  -16.3140 C   0  0  0  0  0  0  0  0  0  0  0  0
    1.4410  -13.4460  -15.0170 N   0  0  0  0  0  0  0  0  0  0  0  0
    2.2610  -12.3290  -18.4000 C   0  0  0  0  0  0  0  0  0  0  0  0
    2.2800  -13.5600  -19.0200 C   0  0  0  0  0  0  0  0  0  0  0  0
    2.0280  -14.7210  -18.3210 C   0  0  0  0  0  0  0  0  0  0  0  0
    1.7320  -14.6950  -16.9730 C   0  0  0  0  0  0  0  0  0  0  0  0
   -1.7937   -2.4911  -14.7883 H   0  0  0  0  0  0  0  0  0  0  0  0
   -3.1039    1.0414  -16.7774 H   0  0  0  0  0  0  0  0  0  0  0  0
   -1.1852    0.9183  -18.2942 H   0  0  0  0  0  0  0  0  0  0  0  0
    0.4719   -0.8515  -18.0716 H   0  0  0  0  0  0  0  0  0  0  0  0
    1.2971   -2.5849  -16.9984 H   0  0  0  0  0  0  0  0  0  0  0  0
    2.2255   -4.3699  -16.3685 H   0  0  0  0  0  0  0  0  0  0  0  0
   -0.6338   -6.5465  -15.5803 H   0  0  0  0  0  0  0  0  0  0  0  0
   -0.3642   -8.7987  -14.7987 H   0  0  0  0  0  0  0  0  0  0  0  0
    3.5859   -6.0492  -15.5329 H   0  0  0  0  0  0  0  0  0  0  0  0
    3.8377   -8.3482  -14.6987 H   0  0  0  0  0  0  0  0  0  0  0  0
    1.2096  -10.0286  -11.0104 H   0  0  0  0  0  0  0  0  0  0  0  0
    0.9586   -8.6384  -12.1000 H   0  0  0  0  0  0  0  0  0  0  0  0
    0.4144  -14.8760  -11.4918 H   0  0  0  0  0  0  0  0  0  0  0  0
    0.4980  -14.4733  -13.2277 H   0  0  0  0  0  0  0  0  0  0  0  0
    2.4624  -11.4178  -18.9824 H   0  0  0  0  0  0  0  0  0  0  0  0
    2.5011  -13.6171  -20.0960 H   0  0  0  0  0  0  0  0  0  0  0  0
    2.0634  -15.6863  -18.8473 H   0  0  0  0  0  0  0  0  0  0  0  0
    1.5240  -15.6295  -16.4313 H   0  0  0  0  0  0  0  0  0  0  0  0
 35 34  1  0
 35 36  2  0
 34 31  2  0
 36 37  1  0
  8  9  2  0
  8  7  1  0
  9 10  1  0
 31 30  1  0
 31 32  1  0
 37 32  2  0
  7  5  2  0
 11 10  1  0
 11 12  1  0
 10  6  2  0
 30 24  2  0
 32 33  1  0
 14 12  1  0
 14 15  1  0
 12 13  2  0
  5  6  1  0
  5  2  1  0
 15 16  2  0
 15 18  1  0
  1  2  1  0
 16 17  1  0
 18 19  2  0
 24 25  1  0
 24 21  1  0
 33 25  2  0
 17 20  2  0
 19 20  1  0
  2  4  1  0
  2  3  1  0
 20 21  1  0
 25 26  1  0
 21 22  1  0
 22 26  2  0
 22 23  1  0
 26 27  1  0
 28 27  1  0
 27 29  2  0
  6 38  1  0
  7 39  1  0
  8 40  1  0
  9 41  1  0
 11 42  1  0
 14 43  1  0
 16 44  1  0
 17 45  1  0
 18 46  1  0
 19 47  1  0
 23 48  1  0
 23 49  1  0
 28 50  1  0
 28 51  1  0
 34 52  1  0
 35 53  1  0
 36 54  1  0
 37 55  1  0
A    1
F36
A    2
C33
A    3
F37
A    4
F35
A    5
C29
A    6
C28
A    7
C30
A    8
C31
A    9
C32
A   10
C27
A   11
N26
A   12
C25
A   13
O34
A   14
N24
A   15
C17
A   16
C16
A   17
C15
A   18
C18
A   19
C19
A   20
C14
A   21
N11
A   22
C10
A   23
N21
A   24
C12
A   25
C8
A   26
C9
A   27
C22
A   28
N4
A   29
O23
A   30
N13
A   31
C4
A   32
C5
A   33
N7
A   34
C3
A   35
C2
A   36
C1
A   37
C6
M  END
