4P6G_2FZ_A_301
     RDKit          3D

 64 68  0  0  0  0  0  0  0  0999 V2000
   30.1910  -21.1030   16.7500 C   0  0  0  0  0  0  0  0  0  0  0  0
   27.7010  -15.9610   19.6570 C   0  0  0  0  0  0  0  0  0  0  0  0
   26.5050  -16.1290   17.1230 C   0  0  0  0  0  0  0  0  0  0  0  0
   26.3400  -14.9740   17.9230 C   0  0  0  0  0  0  0  0  0  0  0  0
   30.0150  -23.7790   17.5740 C   0  0  0  0  0  0  0  0  0  0  0  0
   31.2650  -23.2180   17.3410 C   0  0  0  0  0  0  0  0  0  0  0  0
   27.8780  -17.0950   18.8660 C   0  0  0  0  0  0  0  0  0  0  0  0
   27.3000  -17.1700   17.5900 C   0  0  0  0  0  0  0  0  0  0  0  0
   28.9150  -21.6610   16.9940 C   0  0  0  0  0  0  0  0  0  0  0  0
   31.3480  -21.8750   16.9530 C   0  0  0  0  0  0  0  0  0  0  0  0
   28.8430  -23.0150   17.3720 C   0  0  0  0  0  0  0  0  0  0  0  0
   26.9510  -14.9000   19.1750 C   0  0  0  0  0  0  0  0  0  0  0  0
   27.4410  -18.4130   16.7530 C   0  0  0  0  0  0  0  0  0  0  0  0
   24.4970  -20.1800   16.9690 C   0  0  0  0  0  0  0  0  0  0  0  0
   32.7550  -20.1040   15.9580 C   0  0  0  0  0  0  0  0  0  0  0  0
   33.6130  -21.5290   17.7850 C   0  0  0  0  0  0  0  0  0  0  0  0
   34.1970  -19.9170   15.4970 C   0  0  0  0  0  0  0  0  0  0  0  0
   35.0370  -21.3640   17.2350 C   0  0  0  0  0  0  0  0  0  0  0  0
   37.5800  -19.7320   17.1060 C   0  0  0  0  0  0  0  0  0  0  0  0
   36.8520  -18.4590   15.6210 C   0  0  0  0  0  0  0  0  0  0  0  0
   26.5350  -23.0690   16.8910 C   0  0  0  0  0  0  0  0  0  0  0  0
   27.6560  -20.8490   16.7880 C   0  0  0  0  0  0  0  0  0  0  0  0
   36.5290  -19.9090   15.9990 C   0  0  0  0  0  0  0  0  0  0  0  0
   26.3720  -21.6030   17.2150 C   0  0  0  0  0  0  0  0  0  0  0  0
   22.5490  -18.7980   16.4450 C   0  0  0  0  0  0  0  0  0  0  0  0
   32.6300  -21.3460   16.7050 N   0  0  0  0  0  0  0  0  0  0  0  0
   35.1780  -20.0420   16.5910 N   0  0  0  0  0  0  0  0  0  0  0  0
   27.6300  -19.5640   17.4680 N   0  0  0  0  0  0  0  0  0  0  0  0
   23.5890  -19.7180   16.0510 N   0  0  0  0  0  0  0  0  0  0  0  0
   27.3780  -18.3900   15.5280 O   0  0  0  0  0  0  0  0  0  0  0  0
   24.5260  -19.8690   18.1570 O   0  0  0  0  0  0  0  0  0  0  0  0
   27.6470  -23.6430   17.6270 O   0  0  0  0  0  0  0  0  0  0  0  0
   37.8830  -18.3850   16.6570 O   0  0  0  0  0  0  0  0  0  0  0  0
   25.3340  -21.0920   16.3690 O   0  0  0  0  0  0  0  0  0  0  0  0
   26.7780  -13.8130   19.9480 F   0  0  0  0  0  0  0  0  0  0  0  0
   30.2784  -20.0635   16.4009 H   0  0  0  0  0  0  0  0  0  0  0  0
   28.1540  -15.9086   20.6580 H   0  0  0  0  0  0  0  0  0  0  0  0
   26.0104  -16.2028   16.1433 H   0  0  0  0  0  0  0  0  0  0  0  0
   25.7301  -14.1345   17.5580 H   0  0  0  0  0  0  0  0  0  0  0  0
   29.9374  -24.8213   17.9168 H   0  0  0  0  0  0  0  0  0  0  0  0
   32.1773  -23.8210   17.4598 H   0  0  0  0  0  0  0  0  0  0  0  0
   28.4753  -17.9373   19.2451 H   0  0  0  0  0  0  0  0  0  0  0  0
   32.4659  -19.2605   16.6022 H   0  0  0  0  0  0  0  0  0  0  0  0
   32.0962  -20.1433   15.0780 H   0  0  0  0  0  0  0  0  0  0  0  0
   33.4364  -20.7779   18.5690 H   0  0  0  0  0  0  0  0  0  0  0  0
   33.5036  -22.5401   18.2043 H   0  0  0  0  0  0  0  0  0  0  0  0
   34.4225  -20.6792   14.7366 H   0  0  0  0  0  0  0  0  0  0  0  0
   34.2822  -18.8959   15.0969 H   0  0  0  0  0  0  0  0  0  0  0  0
   35.2357  -22.1531   16.4949 H   0  0  0  0  0  0  0  0  0  0  0  0
   35.7562  -21.4413   18.0637 H   0  0  0  0  0  0  0  0  0  0  0  0
   37.1638  -19.7768   18.1232 H   0  0  0  0  0  0  0  0  0  0  0  0
   38.3925  -20.4668   17.2058 H   0  0  0  0  0  0  0  0  0  0  0  0
   37.2406  -18.3425   14.5985 H   0  0  0  0  0  0  0  0  0  0  0  0
   36.0475  -17.7092   15.5973 H   0  0  0  0  0  0  0  0  0  0  0  0
   25.6114  -23.6021   17.1608 H   0  0  0  0  0  0  0  0  0  0  0  0
   26.7372  -23.1701   15.8145 H   0  0  0  0  0  0  0  0  0  0  0  0
   27.6736  -20.6761   15.7018 H   0  0  0  0  0  0  0  0  0  0  0  0
   36.5438  -20.7268   15.2635 H   0  0  0  0  0  0  0  0  0  0  0  0
   26.1610  -21.4765   18.2871 H   0  0  0  0  0  0  0  0  0  0  0  0
   22.4968  -18.7519   17.5428 H   0  0  0  0  0  0  0  0  0  0  0  0
   22.7739  -17.7978   16.0462 H   0  0  0  0  0  0  0  0  0  0  0  0
   21.5837  -19.1432   16.0462 H   0  0  0  0  0  0  0  0  0  0  0  0
   27.7541  -19.5202   18.4896 H   0  0  0  0  0  0  0  0  0  0  0  0
   23.6497  -20.0304   15.0714 H   0  0  0  0  0  0  0  0  0  0  0  0
 17 15  1  0
 17 27  1  0
 30 13  2  0
 20 23  1  0
 20 33  1  0
 15 26  1  0
 23 27  1  0
 23 19  1  0
 29 25  1  0
 29 14  1  0
 34 14  1  0
 34 24  1  0
 27 18  1  0
 33 19  1  0
 26 10  1  0
 26 16  1  0
  1 10  2  0
  1  9  1  0
 13 28  1  0
 13  8  1  0
 22  9  1  0
 22 24  1  0
 22 28  1  0
 21 24  1  0
 21 32  1  0
 10  6  1  0
 14 31  2  0
  9 11  2  0
  3  8  2  0
  3  4  1  0
 18 16  1  0
  6  5  2  0
 11  5  1  0
 11 32  1  0
  8  7  1  0
  4 12  2  0
  7  2  2  0
 12  2  1  0
 12 35  1  0
  1 36  1  0
  2 37  1  0
  3 38  1  0
  4 39  1  0
  5 40  1  0
  6 41  1  0
  7 42  1  0
 15 43  1  0
 15 44  1  0
 16 45  1  0
 16 46  1  0
 17 47  1  0
 17 48  1  0
 18 49  1  0
 18 50  1  0
 19 51  1  0
 19 52  1  0
 20 53  1  0
 20 54  1  0
 21 55  1  0
 21 56  1  0
 22 57  1  0
 23 58  1  0
 24 59  1  0
 25 60  1  0
 25 61  1  0
 25 62  1  0
 28 63  1  0
 29 64  1  0
A    1
C7
A    2
C6
A    3
C1
A    4
C5
A    5
C4
A    6
C3
A    7
C2
A    8
C8
A    9
C9
A   10
C10
A   11
C11
A   12
C12
A   13
C13
A   14
C14
A   15
C15
A   16
C16
A   17
C17
A   18
C18
A   19
C19
A   20
C20
A   21
C21
A   22
C22
A   23
C23
A   24
C24
A   25
C25
A   26
N26
A   27
N27
A   28
N28
A   29
N29
A   30
O30
A   31
O31
A   32
O32
A   33
O33
A   34
O34
A   35
F35
M  END
