1SR7_MOF_A_301
     RDKit          3D

 65 69  0  0  0  0  0  0  0  0999 V2000
   -5.1290  -11.2270   30.4090 O   0  0  0  0  0  0  0  0  0  0  0  0
   -4.6810  -10.3470   29.7000 C   0  0  0  0  0  0  0  0  0  0  0  0
   -5.6140   -9.3250   29.1610 C   0  0  0  0  0  0  0  0  0  0  0  0
   -3.2830  -10.3920   29.2260 C   0  0  0  0  0  0  0  0  0  0  0  0
   -2.7470   -9.5110   28.2950 C   0  0  0  0  0  0  0  0  0  0  0  0
   -1.2690   -9.6320   27.8690 C   0  0  0  0  0  0  0  0  0  0  0  0
   -3.5700   -8.3370   27.7820 C   0  0  0  0  0  0  0  0  0  0  0  0
   -5.0320   -8.3430   28.2080 C   0  0  0  0  0  0  0  0  0  0  0  0
   -2.9750   -7.0520   28.3980 C   0  0  0  0  0  0  0  0  0  0  0  0
   -3.4520   -8.4040   26.2290 C   0  0  0  0  0  0  0  0  0  0  0  0
   -4.1590  -10.0120   25.6640 Cl  0  0  0  0  0  0  0  0  0  0  0  0
   -4.3330   -7.3810   25.4680 C   0  0  0  0  0  0  0  0  0  0  0  0
   -4.3130   -6.0400   25.8700 O   0  0  0  0  0  0  0  0  0  0  0  0
   -1.9720   -8.3700   25.7530 C   0  0  0  0  0  0  0  0  0  0  0  0
   -1.2470   -9.5830   26.3190 C   0  0  0  0  0  0  0  0  0  0  0  0
   -1.9260   -8.3100   24.2330 C   0  0  0  0  0  0  0  0  0  0  0  0
   -0.6100   -8.4170   23.4000 C   0  0  0  0  0  0  0  0  0  0  0  0
   -1.0360   -8.0810   22.0220 C   0  0  0  0  0  0  0  0  0  0  0  0
   -0.3630   -9.0410   21.0370 C   0  0  0  0  0  0  0  0  0  0  0  0
   -2.8540   -7.3330   23.4930 C   0  0  0  0  0  0  0  0  0  0  0  0
   -4.3280   -7.4860   23.9950 C   0  0  0  0  0  0  0  0  0  0  0  0
   -2.3760   -5.8920   23.8480 C   0  0  0  0  0  0  0  0  0  0  0  0
   -2.5090   -7.6580   22.0240 C   0  0  0  0  0  0  0  0  0  0  0  0
   -2.9930   -6.6500   21.1020 C   0  0  0  0  0  0  0  0  0  0  0  0
   -2.1380   -6.0030   20.4660 O   0  0  0  0  0  0  0  0  0  0  0  0
   -4.4140   -6.3560   21.0480 C   0  0  0  0  0  0  0  0  0  0  0  0
   -4.7630   -5.4580   19.6100 Cl  0  0  0  0  0  0  0  0  0  0  0  0
   -3.2470   -8.9290   21.8580 O   0  0  0  0  0  0  0  0  0  0  0  0
   -3.4640   -9.3390   20.5610 C   0  0  0  0  0  0  0  0  0  0  0  0
   -3.2350   -8.6950   19.5440 O   0  0  0  0  0  0  0  0  0  0  0  0
   -3.8600  -10.7480   20.6120 C   0  0  0  0  0  0  0  0  0  0  0  0
   -3.9550  -11.4150   21.7380 C   0  0  0  0  0  0  0  0  0  0  0  0
   -4.3420  -12.7320   21.4170 C   0  0  0  0  0  0  0  0  0  0  0  0
   -4.4070  -12.7950   20.0210 C   0  0  0  0  0  0  0  0  0  0  0  0
   -4.1130  -11.5510   19.4790 O   0  0  0  0  0  0  0  0  0  0  0  0
   -6.6749   -9.2961   29.4502 H   0  0  0  0  0  0  0  0  0  0  0  0
   -2.6247  -11.1721   29.6359 H   0  0  0  0  0  0  0  0  0  0  0  0
   -0.6854   -8.7966   28.2831 H   0  0  0  0  0  0  0  0  0  0  0  0
   -0.8248  -10.5667   28.2419 H   0  0  0  0  0  0  0  0  0  0  0  0
   -5.6971   -7.5753   27.7857 H   0  0  0  0  0  0  0  0  0  0  0  0
   -3.0076   -7.1223   29.4953 H   0  0  0  0  0  0  0  0  0  0  0  0
   -1.9318   -6.9366   28.0688 H   0  0  0  0  0  0  0  0  0  0  0  0
   -3.5618   -6.1818   28.0688 H   0  0  0  0  0  0  0  0  0  0  0  0
   -5.3017   -7.7555   25.8304 H   0  0  0  0  0  0  0  0  0  0  0  0
   -4.3123   -5.9919   26.8588 H   0  0  0  0  0  0  0  0  0  0  0  0
   -1.4581   -7.4707   26.1233 H   0  0  0  0  0  0  0  0  0  0  0  0
   -0.1997   -9.5536   25.9838 H   0  0  0  0  0  0  0  0  0  0  0  0
   -1.7695  -10.4794   25.9535 H   0  0  0  0  0  0  0  0  0  0  0  0
   -2.3311   -9.3322   24.2643 H   0  0  0  0  0  0  0  0  0  0  0  0
    0.1428   -7.7017   23.7629 H   0  0  0  0  0  0  0  0  0  0  0  0
   -0.1415   -9.4098   23.4703 H   0  0  0  0  0  0  0  0  0  0  0  0
   -0.6613   -7.1557   21.5600 H   0  0  0  0  0  0  0  0  0  0  0  0
    0.1811   -9.8171   21.5952 H   0  0  0  0  0  0  0  0  0  0  0  0
   -1.1288   -9.5133   20.4041 H   0  0  0  0  0  0  0  0  0  0  0  0
    0.3421   -8.4822   20.4041 H   0  0  0  0  0  0  0  0  0  0  0  0
   -4.7239   -8.4663   23.6913 H   0  0  0  0  0  0  0  0  0  0  0  0
   -4.9593   -6.6982   23.5582 H   0  0  0  0  0  0  0  0  0  0  0  0
   -2.3379   -5.7772   24.9413 H   0  0  0  0  0  0  0  0  0  0  0  0
   -1.3739   -5.7238   23.4266 H   0  0  0  0  0  0  0  0  0  0  0  0
   -3.0789   -5.1583   23.4266 H   0  0  0  0  0  0  0  0  0  0  0  0
   -4.9831   -7.2973   21.0397 H   0  0  0  0  0  0  0  0  0  0  0  0
   -4.6995   -5.7627   21.9292 H   0  0  0  0  0  0  0  0  0  0  0  0
   -3.7672  -11.0192   22.7470 H   0  0  0  0  0  0  0  0  0  0  0  0
   -4.5514  -13.5483   22.1240 H   0  0  0  0  0  0  0  0  0  0  0  0
   -4.6541  -13.6955   19.4396 H   0  0  0  0  0  0  0  0  0  0  0  0
  1  2  2  0
  2  3  1  0
  2  4  1  0
  3  8  2  0
  4  5  2  0
  5  6  1  0
  5  7  1  0
  6 15  1  0
  7  8  1  0
  7  9  1  0
  7 10  1  0
 10 11  1  0
 10 12  1  0
 10 14  1  0
 12 13  1  0
 12 21  1  0
 14 15  1  0
 14 16  1  0
 16 17  1  0
 16 20  1  0
 17 18  1  0
 18 19  1  0
 18 23  1  0
 20 21  1  0
 20 22  1  0
 20 23  1  0
 23 24  1  0
 23 28  1  0
 24 25  2  0
 24 26  1  0
 26 27  1  0
 28 29  1  0
 29 30  2  0
 29 31  1  0
 31 32  2  0
 31 35  1  0
 32 33  1  0
 33 34  2  0
 34 35  1  0
  3 36  1  0
  4 37  1  0
  6 38  1  0
  6 39  1  0
  8 40  1  0
  9 41  1  0
  9 42  1  0
  9 43  1  0
 12 44  1  0
 13 45  1  0
 14 46  1  0
 15 47  1  0
 15 48  1  0
 16 49  1  0
 17 50  1  0
 17 51  1  0
 18 52  1  0
 19 53  1  0
 19 54  1  0
 19 55  1  0
 21 56  1  0
 21 57  1  0
 22 58  1  0
 22 59  1  0
 22 60  1  0
 26 61  1  0
 26 62  1  0
 32 63  1  0
 33 64  1  0
 34 65  1  0
A    1
O35
A    2
C34
A    3
C33
A    4
C32
A    5
C29
A    6
C26
A    7
C24
A    8
C30
A    9
C31
A   10
C19
A   11
CL25
A   12
C15
A   13
O21
A   14
C14
A   15
C20
A   16
C6
A   17
C9
A   18
C3
A   19
C10
A   20
C2
A   21
C7
A   22
C8
A   23
C1
A   24
C5
A   25
O13
A   26
C12
A   27
CL18
A   28
O4
A   29
C11
A   30
O17
A   31
C16
A   32
C22
A   33
C27
A   34
C28
A   35
O23
M  END
