2RHQ_GAX_A_352
     RDKit          3D

 50 53  0  0  0  0  0  0  0  0999 V2000
   92.3610   -9.9800   15.8350 N   0  0  0  0  0  0  0  0  0  0  0  0
  100.4610  -11.1280   18.2180 N   0  0  0  0  0  0  0  0  0  0  0  0
   99.3420  -11.2410   18.9730 C   0  0  0  0  0  0  0  0  0  0  0  0
  101.9050  -11.5200   16.4960 N   0  0  0  0  0  0  0  0  0  0  0  0
  103.7300  -11.7910   15.0110 N   0  0  0  0  0  0  0  0  0  0  0  0
   97.5160  -10.0170   20.0730 C   0  0  0  0  0  0  0  0  0  0  0  0
   95.6460   -8.5170   19.1170 N   0  0  0  0  0  0  0  0  0  0  0  0
   97.0990  -11.2790   20.5500 C   0  0  0  0  0  0  0  0  0  0  0  0
   97.7580  -12.4590   20.2450 C   0  0  0  0  0  0  0  0  0  0  0  0
   95.9300   -8.7130   21.6170 O   0  0  0  0  0  0  0  0  0  0  0  0
   97.4090   -7.3620   20.4430 O   0  0  0  0  0  0  0  0  0  0  0  0
  100.6120  -13.1600   17.3180 O   0  0  0  0  0  0  0  0  0  0  0  0
  100.9560  -11.9990   17.3300 C   0  0  0  0  0  0  0  0  0  0  0  0
  102.7370  -12.3140   15.7630 C   0  0  0  0  0  0  0  0  0  0  0  0
  104.3940  -12.7580   14.3010 C   0  0  0  0  0  0  0  0  0  0  0  0
  103.8710  -14.0250   14.5040 C   0  0  0  0  0  0  0  0  0  0  0  0
  102.5150  -14.0220   15.6020 S   0  0  0  0  0  0  0  0  0  0  0  0
   98.6480  -10.0530   19.2620 C   0  0  0  0  0  0  0  0  0  0  0  0
   98.9080  -12.4560   19.4690 C   0  0  0  0  0  0  0  0  0  0  0  0
   96.6790   -8.6040   20.3990 S   0  0  0  0  0  0  0  0  0  0  0  0
   95.9230   -7.5420   18.0390 C   0  0  0  0  0  0  0  0  0  0  0  0
   95.2230   -7.9500   16.7360 C   0  0  0  0  0  0  0  0  0  0  0  0
   93.8100   -8.3770   16.8950 N   0  0  0  0  0  0  0  0  0  0  0  0
   93.5830   -9.2290   18.0830 C   0  0  0  0  0  0  0  0  0  0  0  0
   94.2030   -8.6230   19.3470 C   0  0  0  0  0  0  0  0  0  0  0  0
   93.3040   -9.0150   15.7230 C   0  0  0  0  0  0  0  0  0  0  0  0
   93.7480   -8.6560   14.4440 C   0  0  0  0  0  0  0  0  0  0  0  0
   93.2310   -9.2790   13.3060 C   0  0  0  0  0  0  0  0  0  0  0  0
   92.2730  -10.2640   13.4670 C   0  0  0  0  0  0  0  0  0  0  0  0
   91.8560  -10.5910   14.7530 C   0  0  0  0  0  0  0  0  0  0  0  0
  101.0008  -10.2598   18.3433 H   0  0  0  0  0  0  0  0  0  0  0  0
  102.0056  -10.4986   16.4090 H   0  0  0  0  0  0  0  0  0  0  0  0
   96.2087  -11.3275   21.1943 H   0  0  0  0  0  0  0  0  0  0  0  0
   97.3632  -13.4132   20.6241 H   0  0  0  0  0  0  0  0  0  0  0  0
  105.2495  -12.5504   13.6415 H   0  0  0  0  0  0  0  0  0  0  0  0
  104.2671  -14.9328   14.0256 H   0  0  0  0  0  0  0  0  0  0  0  0
   99.0149   -9.1108   18.8288 H   0  0  0  0  0  0  0  0  0  0  0  0
   99.4545  -13.3866   19.2562 H   0  0  0  0  0  0  0  0  0  0  0  0
   97.0082   -7.4963   17.8654 H   0  0  0  0  0  0  0  0  0  0  0  0
   95.5408   -6.5583   18.3492 H   0  0  0  0  0  0  0  0  0  0  0  0
   95.7850   -8.7853   16.2928 H   0  0  0  0  0  0  0  0  0  0  0  0
   95.2053   -7.0526   16.1001 H   0  0  0  0  0  0  0  0  0  0  0  0
   92.4999   -9.3428   18.2375 H   0  0  0  0  0  0  0  0  0  0  0  0
   94.0617  -10.2025   17.9012 H   0  0  0  0  0  0  0  0  0  0  0  0
   93.7775   -7.6261   19.5342 H   0  0  0  0  0  0  0  0  0  0  0  0
   93.9938   -9.2533   20.2239 H   0  0  0  0  0  0  0  0  0  0  0  0
   94.5134   -7.8736   14.3345 H   0  0  0  0  0  0  0  0  0  0  0  0
   93.5783   -8.9924   12.3024 H   0  0  0  0  0  0  0  0  0  0  0  0
   91.8484  -10.7797   12.5931 H   0  0  0  0  0  0  0  0  0  0  0  0
   91.0920  -11.3711   14.8862 H   0  0  0  0  0  0  0  0  0  0  0  0
 28 29  2  0
 28 27  1  0
 29 30  1  0
 15 16  2  0
 15  5  1  0
 27 26  2  0
 16 17  1  0
 30  1  2  0
  5 14  2  0
 17 14  1  0
 26  1  1  0
 26 23  1  0
 14  4  1  0
  4 13  1  0
 22 23  1  0
 22 21  1  0
 23 24  1  0
 12 13  2  0
 13  2  1  0
 21  7  1  0
 24 25  1  0
  2  3  1  0
  3 18  2  0
  3 19  1  0
  7 25  1  0
  7 20  1  0
 18  6  1  0
 19  9  2  0
  6 20  1  0
  6  8  2  0
  9  8  1  0
 20 11  2  0
 20 10  2  0
  2 31  1  0
  4 32  1  0
  8 33  1  0
  9 34  1  0
 15 35  1  0
 16 36  1  0
 18 37  1  0
 19 38  1  0
 21 39  1  0
 21 40  1  0
 22 41  1  0
 22 42  1  0
 24 43  1  0
 24 44  1  0
 25 45  1  0
 25 46  1  0
 27 47  1  0
 28 48  1  0
 29 49  1  0
 30 50  1  0
A    1
N6
A    2
N1
A    3
C2
A    4
N2
A    5
N3
A    6
C4
A    7
N4
A    8
C5
A    9
C6
A   10
O1
A   11
O2
A   12
O3
A   13
C7
A   14
C8
A   15
C10
A   16
C9
A   17
S2
A   18
C3
A   19
C1
A   20
S1
A   21
C14
A   22
C13
A   23
N5
A   24
C12
A   25
C11
A   26
C15
A   27
C19
A   28
C18
A   29
C17
A   30
C16
M  END
