4P74_2U9_C_301
     RDKit          3D

 42 44  0  0  0  0  0  0  0  0999 V2000
   44.2050   21.6310   15.9050 C   0  0  0  0  0  0  0  0  0  0  0  0
   42.9650   21.9480   16.4550 C   0  0  0  0  0  0  0  0  0  0  0  0
   42.8250   22.2690   17.7950 C   0  0  0  0  0  0  0  0  0  0  0  0
   44.8920   22.5050   20.8780 C   0  0  0  0  0  0  0  0  0  0  0  0
   44.4380   23.0120   22.2170 C   0  0  0  0  0  0  0  0  0  0  0  0
   44.4840   23.9180   24.2220 C   0  0  0  0  0  0  0  0  0  0  0  0
   43.1580   23.6300   24.1700 C   0  0  0  0  0  0  0  0  0  0  0  0
   45.1390   24.5670   25.3890 C   0  0  0  0  0  0  0  0  0  0  0  0
   47.1660   25.3270   26.1880 C   0  0  0  0  0  0  0  0  0  0  0  0
   47.0070   24.6640   27.5890 C   0  0  0  0  0  0  0  0  0  0  0  0
   48.1830   24.9190   28.5190 C   0  0  0  0  0  0  0  0  0  0  0  0
   48.6530   25.1250   25.9080 C   0  0  0  0  0  0  0  0  0  0  0  0
   50.6670   24.7330   27.5980 O   0  0  0  0  0  0  0  0  0  0  0  0
   49.4690   25.5160   27.4490 S   0  0  0  0  0  0  0  0  0  0  0  0
   49.5770   26.9430   27.5880 O   0  0  0  0  0  0  0  0  0  0  0  0
   46.4620   24.7810   25.2780 N   0  0  0  0  0  0  0  0  0  0  0  0
   44.4840   24.8820   26.3840 O   0  0  0  0  0  0  0  0  0  0  0  0
   45.2150   23.5620   23.1030 N   0  0  0  0  0  0  0  0  0  0  0  0
   42.7740   22.8840   22.6690 S   0  0  0  0  0  0  0  0  0  0  0  0
   43.7710   22.5940   19.9560 O   0  0  0  0  0  0  0  0  0  0  0  0
   43.9400   22.2710   18.6180 C   0  0  0  0  0  0  0  0  0  0  0  0
   45.1900   21.9540   18.0840 C   0  0  0  0  0  0  0  0  0  0  0  0
   45.3070   21.6410   16.7420 C   0  0  0  0  0  0  0  0  0  0  0  0
   44.3450   21.2860   14.4430 C   0  0  0  0  0  0  0  0  0  0  0  0
   42.0748   21.9433   15.8089 H   0  0  0  0  0  0  0  0  0  0  0  0
   41.8351   22.5207   18.2034 H   0  0  0  0  0  0  0  0  0  0  0  0
   45.2190   21.4585   20.9671 H   0  0  0  0  0  0  0  0  0  0  0  0
   45.7363   23.1063   20.5097 H   0  0  0  0  0  0  0  0  0  0  0  0
   42.4350   23.8429   24.9712 H   0  0  0  0  0  0  0  0  0  0  0  0
   46.8273   26.3736   26.1867 H   0  0  0  0  0  0  0  0  0  0  0  0
   46.0970   25.0626   28.0613 H   0  0  0  0  0  0  0  0  0  0  0  0
   46.9523   23.5772   27.4278 H   0  0  0  0  0  0  0  0  0  0  0  0
   48.4927   23.9895   29.0192 H   0  0  0  0  0  0  0  0  0  0  0  0
   47.9381   25.6325   29.3196 H   0  0  0  0  0  0  0  0  0  0  0  0
   48.8539   24.0833   25.6172 H   0  0  0  0  0  0  0  0  0  0  0  0
   49.0077   25.7564   25.0800 H   0  0  0  0  0  0  0  0  0  0  0  0
   46.9316   24.4873   24.4096 H   0  0  0  0  0  0  0  0  0  0  0  0
   46.0807   21.9531   18.7295 H   0  0  0  0  0  0  0  0  0  0  0  0
   46.2972   21.3947   16.3311 H   0  0  0  0  0  0  0  0  0  0  0  0
   44.7569   20.2709   14.3436 H   0  0  0  0  0  0  0  0  0  0  0  0
   43.3578   21.3301   13.9597 H   0  0  0  0  0  0  0  0  0  0  0  0
   45.0223   22.0055   13.9597 H   0  0  0  0  0  0  0  0  0  0  0  0
 24  1  1  0
  1  2  2  0
  1 23  1  0
  2  3  1  0
 23 22  2  0
  3 21  2  0
 22 21  1  0
 21 20  1  0
 20  4  1  0
  4  5  1  0
  5 19  1  0
  5 18  2  0
 19  7  1  0
 18  6  1  0
  7  6  2  0
  6  8  1  0
 16  8  1  0
 16  9  1  0
  8 17  2  0
 12  9  1  0
 12 14  1  0
  9 10  1  0
 14 15  2  0
 14 13  2  0
 14 11  1  0
 10 11  1  0
  2 25  1  0
  3 26  1  0
  4 27  1  0
  4 28  1  0
  7 29  1  0
  9 30  1  0
 10 31  1  0
 10 32  1  0
 11 33  1  0
 11 34  1  0
 12 35  1  0
 12 36  1  0
 16 37  1  0
 22 38  1  0
 23 39  1  0
 24 40  1  0
 24 41  1  0
 24 42  1  0
A    1
C1
A    2
C2
A    3
C3
A    4
C7
A    5
C8
A    6
C9
A    7
C10
A    8
C11
A    9
C12
A   10
C13
A   11
C14
A   12
C15
A   13
O3
A   14
S1
A   15
O2
A   16
N1
A   17
O1
A   18
N
A   19
S
A   20
O
A   21
C4
A   22
C5
A   23
C6
A   24
C
M  END
