4P9Y_2KO_A_301
     RDKit          3D

123128  0  0  0  0  0  0  0  0999 V2000
   18.4690   30.7410   42.9590 C   0  0  0  0  0  0  0  0  0  0  0  0
   20.4170   31.0080   41.6280 C   0  0  0  0  0  0  0  0  0  0  0  0
   21.9090   31.3670   41.5080 C   0  0  0  0  0  0  0  0  0  0  0  0
   22.9480   26.6710   41.5130 C   0  0  0  0  0  0  0  0  0  0  0  0
   18.1840   29.4130   43.7190 C   0  0  0  0  0  0  0  0  0  0  0  0
   18.2710   28.4870   45.9770 C   0  0  0  0  0  0  0  0  0  0  0  0
   19.4590   27.5790   45.6110 C   0  0  0  0  0  0  0  0  0  0  0  0
   28.7490   27.8940   37.7260 C   0  0  0  0  0  0  0  0  0  0  0  0
   30.1560   27.3840   38.0390 C   0  0  0  0  0  0  0  0  0  0  0  0
   25.0360   24.0160   47.2880 C   0  0  0  0  0  0  0  0  0  0  0  0
   26.1350   24.0160   48.3210 C   0  0  0  0  0  0  0  0  0  0  0  0
   22.6030   31.6600   42.7160 O   0  0  0  0  0  0  0  0  0  0  0  0
   23.7660   29.6760   42.6370 O   0  0  0  0  0  0  0  0  0  0  0  0
   23.7220   30.7720   43.1240 C   0  0  0  0  0  0  0  0  0  0  0  0
   24.7610   31.1710   44.1020 C   0  0  0  0  0  0  0  0  0  0  0  0
   25.9320   30.4290   44.3250 C   0  0  0  0  0  0  0  0  0  0  0  0
   26.2660   29.1650   43.5770 C   0  0  0  0  0  0  0  0  0  0  0  0
   26.0910   27.9100   44.1700 C   0  0  0  0  0  0  0  0  0  0  0  0
   25.5680   27.8230   45.4820 C   0  0  0  0  0  0  0  0  0  0  0  0
   25.3890   26.5670   46.0730 C   0  0  0  0  0  0  0  0  0  0  0  0
   25.7350   25.3840   45.3570 C   0  0  0  0  0  0  0  0  0  0  0  0
   25.5770   24.1290   45.9180 N   0  0  0  0  0  0  0  0  0  0  0  0
   25.9760   22.9000   45.1710 C   0  0  0  0  0  0  0  0  0  0  0  0
   24.8590   21.9890   44.6710 C   0  0  0  0  0  0  0  0  0  0  0  0
   26.2490   25.4890   44.0500 C   0  0  0  0  0  0  0  0  0  0  0  0
   26.4520   26.7560   43.4430 C   0  0  0  0  0  0  0  0  0  0  0  0
   26.9170   26.8280   42.2400 O   0  0  0  0  0  0  0  0  0  0  0  0
   27.1400   27.9840   41.6460 C   0  0  0  0  0  0  0  0  0  0  0  0
   27.6550   28.0220   40.3330 C   0  0  0  0  0  0  0  0  0  0  0  0
   27.8830   29.2340   39.6480 C   0  0  0  0  0  0  0  0  0  0  0  0
   28.4160   29.1990   38.3770 N   0  0  0  0  0  0  0  0  0  0  0  0
   28.7150   30.4790   37.6750 C   0  0  0  0  0  0  0  0  0  0  0  0
   27.4790   31.1150   37.0510 C   0  0  0  0  0  0  0  0  0  0  0  0
   27.6070   30.4940   40.3080 C   0  0  0  0  0  0  0  0  0  0  0  0
   27.0690   30.4750   41.6100 C   0  0  0  0  0  0  0  0  0  0  0  0
   26.7830   29.2150   42.2640 C   0  0  0  0  0  0  0  0  0  0  0  0
   26.8510   30.8870   45.2820 C   0  0  0  0  0  0  0  0  0  0  0  0
   26.6650   32.0780   45.9760 C   0  0  0  0  0  0  0  0  0  0  0  0
   25.4940   32.8130   45.7310 C   0  0  0  0  0  0  0  0  0  0  0  0
   24.5580   32.3650   44.8260 C   0  0  0  0  0  0  0  0  0  0  0  0
   19.8880   31.0400   42.9500 O   0  0  0  0  0  0  0  0  0  0  0  0
   18.2840   29.6420   45.1240 O   0  0  0  0  0  0  0  0  0  0  0  0
   20.0920   27.0200   46.7460 O   0  0  0  0  0  0  0  0  0  0  0  0
   21.5000   27.2110   46.7490 C   0  0  0  0  0  0  0  0  0  0  0  0
   22.1160   25.9010   46.3740 C   0  0  0  0  0  0  0  0  0  0  0  0
   22.3540   25.8820   44.9540 N   0  0  0  0  0  0  0  0  0  0  0  0
   22.5220   26.7620   44.0020 C   0  0  0  0  0  0  0  0  0  0  0  0
   22.7310   26.0790   42.8520 C   0  0  0  0  0  0  0  0  0  0  0  0
   22.6110   24.7440   43.1160 N   0  0  0  0  0  0  0  0  0  0  0  0
   22.4020   24.5990   44.4810 N   0  0  0  0  0  0  0  0  0  0  0  0
   21.7080   26.9480   40.8920 O   0  0  0  0  0  0  0  0  0  0  0  0
   21.6920   27.4780   39.5600 C   0  0  0  0  0  0  0  0  0  0  0  0
   22.2140   26.4810   38.6960 O   0  0  0  0  0  0  0  0  0  0  0  0
   21.4050   25.2850   38.6790 C   0  0  0  0  0  0  0  0  0  0  0  0
   22.1310   24.3230   37.7540 C   0  0  0  0  0  0  0  0  0  0  0  0
   21.9560   24.7100   36.3870 O   0  0  0  0  0  0  0  0  0  0  0  0
   19.9000   25.5270   38.3020 C   0  0  0  0  0  0  0  0  0  0  0  0
   19.2710   24.2400   38.5920 O   0  0  0  0  0  0  0  0  0  0  0  0
   19.3050   26.6380   39.1160 C   0  0  0  0  0  0  0  0  0  0  0  0
   17.9570   27.0750   38.7750 O   0  0  0  0  0  0  0  0  0  0  0  0
   20.2490   27.8910   39.1040 C   0  0  0  0  0  0  0  0  0  0  0  0
   20.2960   28.3730   37.7590 O   0  0  0  0  0  0  0  0  0  0  0  0
   18.1149   30.6452   41.9220 H   0  0  0  0  0  0  0  0  0  0  0  0
   17.9416   31.5587   43.4721 H   0  0  0  0  0  0  0  0  0  0  0  0
   20.2790   29.9914   41.2312 H   0  0  0  0  0  0  0  0  0  0  0  0
   19.8721   31.7790   41.0635 H   0  0  0  0  0  0  0  0  0  0  0  0
   22.4176   30.5161   41.0312 H   0  0  0  0  0  0  0  0  0  0  0  0
   21.9317   32.3035   40.9315 H   0  0  0  0  0  0  0  0  0  0  0  0
   23.5183   27.6058   41.6176 H   0  0  0  0  0  0  0  0  0  0  0  0
   23.5073   25.9558   40.8920 H   0  0  0  0  0  0  0  0  0  0  0  0
   18.9191   28.6523   43.4176 H   0  0  0  0  0  0  0  0  0  0  0  0
   17.1715   29.0591   43.4748 H   0  0  0  0  0  0  0  0  0  0  0  0
   17.3292   27.9361   45.8372 H   0  0  0  0  0  0  0  0  0  0  0  0
   18.3536   28.8008   47.0280 H   0  0  0  0  0  0  0  0  0  0  0  0
   19.0925   26.7604   44.9742 H   0  0  0  0  0  0  0  0  0  0  0  0
   20.2022   28.2002   45.0897 H   0  0  0  0  0  0  0  0  0  0  0  0
   28.6606   28.0184   36.6366 H   0  0  0  0  0  0  0  0  0  0  0  0
   28.0445   27.1499   38.1260 H   0  0  0  0  0  0  0  0  0  0  0  0
   30.2938   27.3340   39.1292 H   0  0  0  0  0  0  0  0  0  0  0  0
   30.2872   26.3811   37.6065 H   0  0  0  0  0  0  0  0  0  0  0  0
   30.8993   28.0699   37.6065 H   0  0  0  0  0  0  0  0  0  0  0  0
   24.3668   24.8679   47.4789 H   0  0  0  0  0  0  0  0  0  0  0  0
   24.4914   23.0634   47.3652 H   0  0  0  0  0  0  0  0  0  0  0  0
   26.4022   22.9789   48.5721 H   0  0  0  0  0  0  0  0  0  0  0  0
   27.0173   24.5345   47.9177 H   0  0  0  0  0  0  0  0  0  0  0  0
   25.7870   24.5345   49.2266 H   0  0  0  0  0  0  0  0  0  0  0  0
   27.2879   29.2135   43.9812 H   0  0  0  0  0  0  0  0  0  0  0  0
   25.3037   28.7370   46.0341 H   0  0  0  0  0  0  0  0  0  0  0  0
   24.9806   26.4926   47.0917 H   0  0  0  0  0  0  0  0  0  0  0  0
   26.6161   22.3024   45.8367 H   0  0  0  0  0  0  0  0  0  0  0  0
   26.4656   23.2716   44.2588 H   0  0  0  0  0  0  0  0  0  0  0  0
   24.3272   21.5552   45.5306 H   0  0  0  0  0  0  0  0  0  0  0  0
   24.1546   22.5735   44.0609 H   0  0  0  0  0  0  0  0  0  0  0  0
   25.2899   21.1814   44.0609 H   0  0  0  0  0  0  0  0  0  0  0  0
   26.4970   24.5748   43.4908 H   0  0  0  0  0  0  0  0  0  0  0  0
   27.8868   27.0738   39.8259 H   0  0  0  0  0  0  0  0  0  0  0  0
   29.1449   31.1852   38.4005 H   0  0  0  0  0  0  0  0  0  0  0  0
   29.4174   30.2522   36.8594 H   0  0  0  0  0  0  0  0  0  0  0  0
   26.8039   31.4624   37.8470 H   0  0  0  0  0  0  0  0  0  0  0  0
   27.7813   31.9695   36.4278 H   0  0  0  0  0  0  0  0  0  0  0  0
   26.9594   30.3723   36.4278 H   0  0  0  0  0  0  0  0  0  0  0  0
   27.8138   31.4483   39.8016 H   0  0  0  0  0  0  0  0  0  0  0  0
   26.8653   31.4215   42.1321 H   0  0  0  0  0  0  0  0  0  0  0  0
   27.7475   30.2844   45.4899 H   0  0  0  0  0  0  0  0  0  0  0  0
   27.4151   32.4345   46.6973 H   0  0  0  0  0  0  0  0  0  0  0  0
   25.3224   33.7575   46.2682 H   0  0  0  0  0  0  0  0  0  0  0  0
   23.6383   32.9466   44.6650 H   0  0  0  0  0  0  0  0  0  0  0  0
   21.7787   27.9835   46.0172 H   0  0  0  0  0  0  0  0  0  0  0  0
   21.8506   27.5428   47.7374 H   0  0  0  0  0  0  0  0  0  0  0  0
   23.0689   25.7754   46.9090 H   0  0  0  0  0  0  0  0  0  0  0  0
   21.4366   25.0801   46.6471 H   0  0  0  0  0  0  0  0  0  0  0  0
   22.4980   27.8560   44.1146 H   0  0  0  0  0  0  0  0  0  0  0  0
   22.3030   28.3921   39.5267 H   0  0  0  0  0  0  0  0  0  0  0  0
   21.3088   24.8632   39.6903 H   0  0  0  0  0  0  0  0  0  0  0  0
   23.2039   24.3283   37.9967 H   0  0  0  0  0  0  0  0  0  0  0  0
   21.7144   23.3145   37.8933 H   0  0  0  0  0  0  0  0  0  0  0  0
   21.5484   25.6114   36.3488 H   0  0  0  0  0  0  0  0  0  0  0  0
   19.7599   25.8404   37.2569 H   0  0  0  0  0  0  0  0  0  0  0  0
   19.2103   24.1158   39.5723 H   0  0  0  0  0  0  0  0  0  0  0  0
   19.2116   26.1828   40.1130 H   0  0  0  0  0  0  0  0  0  0  0  0
   17.4441   27.2413   39.6053 H   0  0  0  0  0  0  0  0  0  0  0  0
   19.8742   28.6649   39.7900 H   0  0  0  0  0  0  0  0  0  0  0  0
   20.3921   29.3583   37.7647 H   0  0  0  0  0  0  0  0  0  0  0  0
 24 23  1  0
 23 22  1  0
  9  8  1  0
 44 43  1  0
 44 45  1  0
  8 31  1  0
  6  7  1  0
  6 42  1  0
 22 10  1  0
 22 21  1  0
 43  7  1  0
 45 46  1  0
 11 10  1  0
 25 21  2  0
 25 26  1  0
 42  5  1  0
  5  1  1  0
 21 20  1  0
 27 26  1  0
 27 28  1  0
 29 28  2  0
 29 30  1  0
 31 30  1  0
 31 32  1  0
 26 18  2  0
 46 50  1  0
 46 47  1  0
 28 36  1  0
 30 34  2  0
  1 41  1  0
 50 49  2  0
 32 33  1  0
 20 19  2  0
 47 48  2  0
 41  2  1  0
 18 19  1  0
 18 17  1  0
 36 17  1  0
 36 35  2  0
 34 35  1  0
 49 48  1  0
 17 16  1  0
  2  3  1  0
 48  4  1  0
  3 12  1  0
 12 14  1  0
 16 37  2  0
 16 15  1  0
  4 51  1  0
 37 38  1  0
 51 52  1  0
 14 15  1  0
 14 13  2  0
 15 40  2  0
 38 39  2  0
 59 61  1  0
 59 60  1  0
 59 57  1  0
 52 61  1  0
 52 53  1  0
 58 57  1  0
 61 62  1  0
 54 57  1  0
 54 53  1  0
 54 55  1  0
 40 39  1  0
 55 56  1  0
  1 63  1  0
  1 64  1  0
  2 65  1  0
  2 66  1  0
  3 67  1  0
  3 68  1  0
  4 69  1  0
  4 70  1  0
  5 71  1  0
  5 72  1  0
  6 73  1  0
  6 74  1  0
  7 75  1  0
  7 76  1  0
  8 77  1  0
  8 78  1  0
  9 79  1  0
  9 80  1  0
  9 81  1  0
 10 82  1  0
 10 83  1  0
 11 84  1  0
 11 85  1  0
 11 86  1  0
 17 87  1  0
 19 88  1  0
 20 89  1  0
 23 90  1  0
 23 91  1  0
 24 92  1  0
 24 93  1  0
 24 94  1  0
 25 95  1  0
 29 96  1  0
 32 97  1  0
 32 98  1  0
 33 99  1  0
 33100  1  0
 33101  1  0
 34102  1  0
 35103  1  0
 37104  1  0
 38105  1  0
 39106  1  0
 40107  1  0
 44108  1  0
 44109  1  0
 45110  1  0
 45111  1  0
 47112  1  0
 52113  1  0
 54114  1  0
 55115  1  0
 55116  1  0
 56117  1  0
 57118  1  0
 58119  1  0
 59120  1  0
 60121  1  0
 61122  1  0
 62123  1  0
A    1
C5
A    2
C3
A    3
C2
A    4
C1
A    5
C6
A    6
C8
A    7
C9
A    8
C11
A    9
C12
A   10
C13
A   11
C14
A   12
O1
A   13
O7P
A   14
C7P
A   15
C1P
A   16
C2P
A   17
C2C
A   18
C1C
A   19
C6C
A   20
C5C
A   21
C4C
A   22
N1C
A   23
C23
A   24
C24
A   25
C3C
A   26
C4B
A   27
O1B
A   28
C1A
A   29
C6A
A   30
C5A
A   31
N1A
A   32
C21
A   33
C22
A   34
C4A
A   35
C3A
A   36
C2A
A   37
C3P
A   38
C4P
A   39
C5P
A   40
C6P
A   41
O4
A   42
O7
A   43
O0A
A   44
C0B
A   45
C0C
A   46
N3T
A   47
C4T
A   48
C5T
A   49
N1T
A   50
N2T
A   51
O1M
A   52
C1M
A   53
O5M
A   54
C5M
A   55
C6M
A   56
O6M
A   57
C4M
A   58
O4M
A   59
C3M
A   60
O3M
A   61
C2M
A   62
O2M
M  END
