4PAX_NU1_A_1
     RDKit          3D

 21 22  0  0  0  0  0  0  0  0999 V2000
   39.8440   22.5140   21.9820 C   0  0  0  0  0  0  0  0  0  0  0  0
   38.4950   22.3890   21.5850 O   0  0  0  0  0  0  0  0  0  0  0  0
   40.8640   23.0640   21.1180 C   0  0  0  0  0  0  0  0  0  0  0  0
   40.5810   23.5140   19.8540 N   0  0  0  0  0  0  0  0  0  0  0  0
   41.4750   24.0120   19.0810 C   0  0  0  0  0  0  0  0  0  0  0  0
   41.0660   24.4710   17.7210 C   0  0  0  0  0  0  0  0  0  0  0  0
   42.7650   24.1310   19.4150 N   0  0  0  0  0  0  0  0  0  0  0  0
   43.2080   23.7340   20.6200 C   0  0  0  0  0  0  0  0  0  0  0  0
   44.3880   23.8360   20.9660 O   0  0  0  0  0  0  0  0  0  0  0  0
   42.2000   23.1530   21.5860 C   0  0  0  0  0  0  0  0  0  0  0  0
   42.5440   22.7080   22.8850 C   0  0  0  0  0  0  0  0  0  0  0  0
   41.5410   22.1690   23.7240 C   0  0  0  0  0  0  0  0  0  0  0  0
   40.2080   22.0680   23.2730 C   0  0  0  0  0  0  0  0  0  0  0  0
   37.7819   22.3229   22.2686 H   0  0  0  0  0  0  0  0  0  0  0  0
   40.3368   25.2893   17.8141 H   0  0  0  0  0  0  0  0  0  0  0  0
   41.9504   24.8285   17.1733 H   0  0  0  0  0  0  0  0  0  0  0  0
   40.6093   23.6335   17.1733 H   0  0  0  0  0  0  0  0  0  0  0  0
   43.4290   24.5332   18.7380 H   0  0  0  0  0  0  0  0  0  0  0  0
   43.5829   22.7808   23.2390 H   0  0  0  0  0  0  0  0  0  0  0  0
   41.8023   21.8259   24.7359 H   0  0  0  0  0  0  0  0  0  0  0  0
   39.4422   21.6367   23.9344 H   0  0  0  0  0  0  0  0  0  0  0  0
  1  2  1  0
  1  3  2  0
  1 13  1  0
  3  4  1  0
  3 10  1  0
  4  5  2  0
  5  6  1  0
  5  7  1  0
  7  8  1  0
  8  9  2  0
  8 10  1  0
 10 11  2  0
 11 12  1  0
 12 13  2  0
  2 14  1  0
  6 15  1  0
  6 16  1  0
  6 17  1  0
  7 18  1  0
 11 19  1  0
 12 20  1  0
 13 21  1  0
A    1
C5
A    2
O5
A    3
C4A
A    4
N4
A    5
C3
A    6
C9
A    7
N2
A    8
C1
A    9
O1
A   10
C8A
A   11
C8
A   12
C7
A   13
C6
M  END
