4PBR_2L7_A_401
     RDKit          3D

 36 36  0  0  0  0  0  0  0  0999 V2000
   75.3200   37.2300   -4.3590 N   0  0  0  0  0  0  0  0  0  0  0  0
   74.8640   37.6940   -3.1210 C   0  0  0  0  0  0  0  0  0  0  0  0
   73.5650   38.3100   -3.2320 C   0  0  0  0  0  0  0  0  0  0  0  0
   73.3920   39.6380   -3.8660 C   0  0  0  0  0  0  0  0  0  0  0  0
   72.1620   39.9010   -4.6480 C   0  0  0  0  0  0  0  0  0  0  0  0
   71.9450   41.2160   -5.2800 C   0  0  0  0  0  0  0  0  0  0  0  0
   73.0060   42.2480   -5.1670 C   0  0  0  0  0  0  0  0  0  0  0  0
   72.7820   43.5660   -5.6340 N   0  0  0  0  0  0  0  0  0  0  0  0
   73.7160   44.6460   -5.6460 C   0  0  0  0  0  0  0  0  0  0  0  0
   73.1450   45.9810   -5.9610 C   0  0  0  0  0  0  0  0  0  0  0  0
   74.1990   46.9240   -6.4330 C   0  0  0  0  0  0  0  0  0  0  0  0
   72.5410   46.6150   -4.2120 Br  0  0  0  0  0  0  0  0  0  0  0  0
   71.9460   45.9150   -6.8510 C   0  0  0  0  0  0  0  0  0  0  0  0
   74.9140   44.5220   -5.4040 O   0  0  0  0  0  0  0  0  0  0  0  0
   74.2170   42.0000   -4.3410 C   0  0  0  0  0  0  0  0  0  0  0  0
   74.4340   40.6820   -3.6980 C   0  0  0  0  0  0  0  0  0  0  0  0
   74.9540   36.7190   -2.0380 C   0  0  0  0  0  0  0  0  0  0  0  0
   74.3620   36.9040   -0.9440 O   0  0  0  0  0  0  0  0  0  0  0  0
   75.6220   35.6770   -2.2070 O   0  0  0  0  0  0  0  0  0  0  0  0
   76.0345   36.5030   -4.2112 H   0  0  0  0  0  0  0  0  0  0  0  0
   74.5309   36.8332   -4.8888 H   0  0  0  0  0  0  0  0  0  0  0  0
   75.5699   38.4813   -2.8178 H   0  0  0  0  0  0  0  0  0  0  0  0
   73.1760   38.4018   -2.2072 H   0  0  0  0  0  0  0  0  0  0  0  0
   73.0446   37.6420   -3.9341 H   0  0  0  0  0  0  0  0  0  0  0  0
   71.4052   39.1104   -4.7582 H   0  0  0  0  0  0  0  0  0  0  0  0
   71.0135   41.4281   -5.8253 H   0  0  0  0  0  0  0  0  0  0  0  0
   71.8428   43.7676   -6.0056 H   0  0  0  0  0  0  0  0  0  0  0  0
   74.7029   47.3748   -5.5653 H   0  0  0  0  0  0  0  0  0  0  0  0
   74.9347   46.3771   -7.0410 H   0  0  0  0  0  0  0  0  0  0  0  0
   73.7370   47.7158   -7.0410 H   0  0  0  0  0  0  0  0  0  0  0  0
   71.0353   45.8649   -6.2361 H   0  0  0  0  0  0  0  0  0  0  0  0
   71.9108   46.8126   -7.4859 H   0  0  0  0  0  0  0  0  0  0  0  0
   72.0095   45.0190   -7.4859 H   0  0  0  0  0  0  0  0  0  0  0  0
   74.9583   42.8013   -4.2058 H   0  0  0  0  0  0  0  0  0  0  0  0
   75.3432   40.4828   -3.1118 H   0  0  0  0  0  0  0  0  0  0  0  0
   74.8409   36.7544   -0.0905 H   0  0  0  0  0  0  0  0  0  0  0  0
 13 10  1  0
 11 10  1  0
 10  9  1  0
 10 12  1  0
  9  8  1  0
  9 14  2  0
  8  7  1  0
  6  7  2  0
  6  5  1  0
  7 15  1  0
  5  4  2  0
  1  2  1  0
 15 16  2  0
  4 16  1  0
  4  3  1  0
  3  2  1  0
  2 17  1  0
 19 17  2  0
 17 18  1  0
  1 20  1  0
  1 21  1  0
  2 22  1  0
  3 23  1  0
  3 24  1  0
  5 25  1  0
  6 26  1  0
  8 27  1  0
 11 28  1  0
 11 29  1  0
 11 30  1  0
 13 31  1  0
 13 32  1  0
 13 33  1  0
 15 34  1  0
 16 35  1  0
 18 36  1  0
A    1
N01
A    2
C02
A    3
C03
A    4
C04
A    5
C05
A    6
C06
A    7
C07
A    8
N08
A    9
C09
A   10
C10
A   11
C11
A   12
BR1
A   13
C13
A   14
O14
A   15
C15
A   16
C16
A   17
C17
A   18
O18
A   19
O19
M  END
