4PH4_2UG_B_902
     RDKit          3D

 41 44  0  0  0  0  0  0  0  0999 V2000
    2.2840    6.5480  -13.6430 C   0  0  0  0  0  0  0  0  0  0  0  0
    1.2660    5.6310  -13.3650 C   0  0  0  0  0  0  0  0  0  0  0  0
    0.8130    4.7170  -14.4500 C   0  0  0  0  0  0  0  0  0  0  0  0
   -1.1500   -0.5540  -13.5680 C   0  0  0  0  0  0  0  0  0  0  0  0
    0.6990    5.7340  -12.0710 C   0  0  0  0  0  0  0  0  0  0  0  0
   -0.2390    4.7190  -11.4580 C   0  0  0  0  0  0  0  0  0  0  0  0
   -1.6710    5.1860  -11.1720 C   0  0  0  0  0  0  0  0  0  0  0  0
   -2.1770    4.9440   -9.7920 C   0  0  0  0  0  0  0  0  0  0  0  0
   -1.9040    6.3390  -10.2440 C   0  0  0  0  0  0  0  0  0  0  0  0
    2.3340    8.5840  -10.8150 N   0  0  0  0  0  0  0  0  0  0  0  0
    2.0370    7.5710  -11.6340 C   0  0  0  0  0  0  0  0  0  0  0  0
    1.0760    6.7120  -11.2270 N   0  0  0  0  0  0  0  0  0  0  0  0
    2.6850    7.5190  -12.8180 N   0  0  0  0  0  0  0  0  0  0  0  0
    0.3640    3.5030  -14.0780 N   0  0  0  0  0  0  0  0  0  0  0  0
    0.0640    2.6450  -15.0710 C   0  0  0  0  0  0  0  0  0  0  0  0
    0.1580    2.8890  -16.3880 N   0  0  0  0  0  0  0  0  0  0  0  0
    0.5970    4.1110  -16.7150 C   0  0  0  0  0  0  0  0  0  0  0  0
    0.9350    5.0680  -15.7880 C   0  0  0  0  0  0  0  0  0  0  0  0
   -0.3610    1.3920  -14.7520 N   0  0  0  0  0  0  0  0  0  0  0  0
   -0.5820    0.7160  -13.5360 C   0  0  0  0  0  0  0  0  0  0  0  0
   -1.3680   -1.2040  -12.3630 C   0  0  0  0  0  0  0  0  0  0  0  0
   -1.0530   -0.6880  -11.1710 N   0  0  0  0  0  0  0  0  0  0  0  0
   -0.4950    0.5280  -11.1620 C   0  0  0  0  0  0  0  0  0  0  0  0
   -0.2480    1.2720  -12.3040 C   0  0  0  0  0  0  0  0  0  0  0  0
    2.7932    6.4635  -14.6144 H   0  0  0  0  0  0  0  0  0  0  0  0
   -1.4186   -1.0291  -14.5231 H   0  0  0  0  0  0  0  0  0  0  0  0
   -0.2992    3.8631  -12.1464 H   0  0  0  0  0  0  0  0  0  0  0  0
    0.1909    4.4881  -10.4722 H   0  0  0  0  0  0  0  0  0  0  0  0
   -2.0016    4.9581  -12.1961 H   0  0  0  0  0  0  0  0  0  0  0  0
   -3.2136    4.6097   -9.6380 H   0  0  0  0  0  0  0  0  0  0  0  0
   -1.8500    4.3255   -8.9431 H   0  0  0  0  0  0  0  0  0  0  0  0
   -1.0493    6.8945   -9.8305 H   0  0  0  0  0  0  0  0  0  0  0  0
   -2.4863    7.2711  -10.2903 H   0  0  0  0  0  0  0  0  0  0  0  0
    2.2946    8.4498   -9.7945 H   0  0  0  0  0  0  0  0  0  0  0  0
    2.6023    9.4992  -11.2041 H   0  0  0  0  0  0  0  0  0  0  0  0
    0.6922    4.3623  -17.7817 H   0  0  0  0  0  0  0  0  0  0  0  0
    1.2857    6.0653  -16.0919 H   0  0  0  0  0  0  0  0  0  0  0  0
   -0.5653    0.8126  -15.5787 H   0  0  0  0  0  0  0  0  0  0  0  0
   -1.8272   -2.2032  -12.3895 H   0  0  0  0  0  0  0  0  0  0  0  0
   -0.2160    0.9624  -10.1907 H   0  0  0  0  0  0  0  0  0  0  0  0
    0.1998    2.2747  -12.2393 H   0  0  0  0  0  0  0  0  0  0  0  0
 17 16  2  0
 17 18  1  0
 16 15  1  0
 18  3  2  0
 15 19  1  0
 15 14  2  0
 19 20  1  0
  3 14  1  0
  3  2  1  0
  1  2  2  0
  1 13  1  0
  4 20  2  0
  4 21  1  0
 20 24  1  0
  2  5  1  0
 13 11  2  0
 21 22  2  0
 24 23  2  0
  5  6  1  0
  5 12  2  0
 11 12  1  0
 11 10  1  0
  6  7  1  0
  7  9  1  0
  7  8  1  0
 22 23  1  0
  9  8  1  0
  1 25  1  0
  4 26  1  0
  6 27  1  0
  6 28  1  0
  7 29  1  0
  8 30  1  0
  8 31  1  0
  9 32  1  0
  9 33  1  0
 10 34  1  0
 10 35  1  0
 17 36  1  0
 18 37  1  0
 19 38  1  0
 21 39  1  0
 23 40  1  0
 24 41  1  0
A    1
C1
A    2
C2
A    3
C3
A    4
C11
A    5
C12
A    6
C13
A    7
C14
A    8
C15
A    9
C16
A   10
N
A   11
C
A   12
N6
A   13
N1
A   14
N5
A   15
C6
A   16
N2
A   17
C5
A   18
C4
A   19
N3
A   20
C7
A   21
C10
A   22
N4
A   23
C9
A   24
C8
M  END
