4PHU_2YB_A_2401
     RDKit          3D

 69 72  0  0  0  0  0  0  0  0999 V2000
  -54.9970   -0.8710   59.6860 C   0  0  0  0  0  0  0  0  0  0  0  0
  -56.3440    0.8570   60.7020 C   0  0  0  0  0  0  0  0  0  0  0  0
  -57.7790    1.0020   61.2050 C   0  0  0  0  0  0  0  0  0  0  0  0
  -57.7360    1.0580   62.7320 C   0  0  0  0  0  0  0  0  0  0  0  0
  -60.5810    1.2750   62.7050 C   0  0  0  0  0  0  0  0  0  0  0  0
  -54.6330   -2.2070   59.5990 C   0  0  0  0  0  0  0  0  0  0  0  0
  -53.1780   -4.0550   58.8160 C   0  0  0  0  0  0  0  0  0  0  0  0
  -51.5760   -2.0010   57.3990 C   0  0  0  0  0  0  0  0  0  0  0  0
  -49.2720   -2.7140   56.0140 C   0  0  0  0  0  0  0  0  0  0  0  0
  -49.1550   -2.0820   57.2450 C   0  0  0  0  0  0  0  0  0  0  0  0
  -47.7840   -1.7910   57.8180 C   0  0  0  0  0  0  0  0  0  0  0  0
  -46.1080   -2.9890   59.1470 C   0  0  0  0  0  0  0  0  0  0  0  0
  -44.0330   -1.9850   59.8090 C   0  0  0  0  0  0  0  0  0  0  0  0
  -42.2460   -3.6120   60.8170 C   0  0  0  0  0  0  0  0  0  0  0  0
  -52.3910    0.8440   57.5560 C   0  0  0  0  0  0  0  0  0  0  0  0
  -53.1530   -0.2560   58.2620 C   0  0  0  0  0  0  0  0  0  0  0  0
  -54.2530    0.0970   59.0140 C   0  0  0  0  0  0  0  0  0  0  0  0
  -56.0900   -0.5310   60.4250 O   0  0  0  0  0  0  0  0  0  0  0  0
  -59.2290    0.3370   63.4850 S   0  0  0  0  0  0  0  0  0  0  0  0
  -59.3430   -1.0340   63.1080 O   0  0  0  0  0  0  0  0  0  0  0  0
  -59.1770    0.6650   64.8730 O   0  0  0  0  0  0  0  0  0  0  0  0
  -53.5300   -2.5820   58.8620 C   0  0  0  0  0  0  0  0  0  0  0  0
  -52.7790   -1.6080   58.1840 C   0  0  0  0  0  0  0  0  0  0  0  0
  -51.6860   -2.6290   56.1520 C   0  0  0  0  0  0  0  0  0  0  0  0
  -50.5300   -2.9790   55.4760 C   0  0  0  0  0  0  0  0  0  0  0  0
  -47.3600   -2.9080   58.6180 O   0  0  0  0  0  0  0  0  0  0  0  0
  -45.3080   -1.8550   59.2730 C   0  0  0  0  0  0  0  0  0  0  0  0
  -43.5690   -3.2140   60.2190 C   0  0  0  0  0  0  0  0  0  0  0  0
  -41.2210   -3.3910   59.7090 C   0  0  0  0  0  0  0  0  0  0  0  0
  -39.8020   -3.3040   60.1950 C   0  0  0  0  0  0  0  0  0  0  0  0
  -39.4350   -3.0020   61.4670 O   0  0  0  0  0  0  0  0  0  0  0  0
  -38.9740   -3.5320   59.3430 O   0  0  0  0  0  0  0  0  0  0  0  0
  -42.4310   -5.1170   61.1530 C   0  0  0  0  0  0  0  0  0  0  0  0
  -43.6980   -5.4660   60.5480 O   0  0  0  0  0  0  0  0  0  0  0  0
  -44.3480   -4.3550   60.0980 C   0  0  0  0  0  0  0  0  0  0  0  0
  -45.6330   -4.2310   59.5640 C   0  0  0  0  0  0  0  0  0  0  0  0
  -50.3040   -1.7330   57.9500 C   0  0  0  0  0  0  0  0  0  0  0  0
  -55.6442    1.2149   61.4716 H   0  0  0  0  0  0  0  0  0  0  0  0
  -56.2056    1.4528   59.7878 H   0  0  0  0  0  0  0  0  0  0  0  0
  -58.2225    1.9275   60.8090 H   0  0  0  0  0  0  0  0  0  0  0  0
  -58.3914    0.1523   60.8690 H   0  0  0  0  0  0  0  0  0  0  0  0
  -56.8561    0.4989   63.0830 H   0  0  0  0  0  0  0  0  0  0  0  0
  -57.6819    2.1151   63.0312 H   0  0  0  0  0  0  0  0  0  0  0  0
  -61.2182    1.7171   63.4851 H   0  0  0  0  0  0  0  0  0  0  0  0
  -60.1588    2.0752   62.0794 H   0  0  0  0  0  0  0  0  0  0  0  0
  -61.1827    0.5993   62.0794 H   0  0  0  0  0  0  0  0  0  0  0  0
  -55.2277   -2.9711   60.1209 H   0  0  0  0  0  0  0  0  0  0  0  0
  -53.0855   -4.4421   59.8415 H   0  0  0  0  0  0  0  0  0  0  0  0
  -53.9700   -4.6049   58.2866 H   0  0  0  0  0  0  0  0  0  0  0  0
  -52.2229   -4.1874   58.2866 H   0  0  0  0  0  0  0  0  0  0  0  0
  -48.3674   -3.0069   55.4609 H   0  0  0  0  0  0  0  0  0  0  0  0
  -47.0683   -1.6330   56.9978 H   0  0  0  0  0  0  0  0  0  0  0  0
  -47.8280   -0.8854   58.4409 H   0  0  0  0  0  0  0  0  0  0  0  0
  -43.3891   -1.0985   59.9065 H   0  0  0  0  0  0  0  0  0  0  0  0
  -41.9243   -3.0596   61.7122 H   0  0  0  0  0  0  0  0  0  0  0  0
  -51.9308    1.5084   58.3022 H   0  0  0  0  0  0  0  0  0  0  0  0
  -51.6058    0.4002   56.9263 H   0  0  0  0  0  0  0  0  0  0  0  0
  -53.0824    1.4231   56.9263 H   0  0  0  0  0  0  0  0  0  0  0  0
  -54.5469    1.1547   59.0845 H   0  0  0  0  0  0  0  0  0  0  0  0
  -52.6741   -2.8404   55.7173 H   0  0  0  0  0  0  0  0  0  0  0  0
  -50.6056   -3.4750   54.4971 H   0  0  0  0  0  0  0  0  0  0  0  0
  -45.6808   -0.8709   58.9526 H   0  0  0  0  0  0  0  0  0  0  0  0
  -41.4676   -2.4516   59.1926 H   0  0  0  0  0  0  0  0  0  0  0  0
  -41.2763   -4.2671   59.0462 H   0  0  0  0  0  0  0  0  0  0  0  0
  -39.9214   -3.4022   62.2308 H   0  0  0  0  0  0  0  0  0  0  0  0
  -42.4633   -5.2720   62.2415 H   0  0  0  0  0  0  0  0  0  0  0  0
  -41.6022   -5.7358   60.7786 H   0  0  0  0  0  0  0  0  0  0  0  0
  -46.2743   -5.1199   59.4720 H   0  0  0  0  0  0  0  0  0  0  0  0
  -50.2208   -1.2494   58.9345 H   0  0  0  0  0  0  0  0  0  0  0  0
 25  9  2  0
 25 24  1  0
  9 10  1  0
 24  8  2  0
 10 11  1  0
 10 37  2  0
  8 37  1  0
  8 23  1  0
 15 16  1  0
 11 26  1  0
 23 16  2  0
 23 22  1  0
 16 17  1  0
 26 12  1  0
  7 22  1  0
 22  6  2  0
 17  1  2  0
 12 27  1  0
 12 36  2  0
 27 13  2  0
 32 30  2  0
 36 35  1  0
  6  1  1  0
  1 18  1  0
 29 30  1  0
 29 14  1  0
 13 28  1  0
 35 28  2  0
 35 34  1  0
 30 31  1  0
 28 14  1  0
 18  2  1  0
 34 33  1  0
  2  3  1  0
 14 33  1  0
  3  4  1  0
  5 19  1  0
  4 19  1  0
 20 19  2  0
 19 21  2  0
  2 38  1  0
  2 39  1  0
  3 40  1  0
  3 41  1  0
  4 42  1  0
  4 43  1  0
  5 44  1  0
  5 45  1  0
  5 46  1  0
  6 47  1  0
  7 48  1  0
  7 49  1  0
  7 50  1  0
  9 51  1  0
 11 52  1  0
 11 53  1  0
 13 54  1  0
 14 55  1  0
 15 56  1  0
 15 57  1  0
 15 58  1  0
 17 59  1  0
 24 60  1  0
 25 61  1  0
 27 62  1  0
 29 63  1  0
 29 64  1  0
 31 65  1  0
 33 66  1  0
 33 67  1  0
 36 68  1  0
 37 69  1  0
A    1
C4
A    2
C6
A    3
C7
A    4
C8
A    5
C10
A    6
C13
A    7
C15
A    8
C17
A    9
C20
A   10
C21
A   11
C22
A   12
C24
A   13
C26
A   14
C28
A   15
C1
A   16
C2
A   17
C3
A   18
O5
A   19
S9
A   20
O11
A   21
O12
A   22
C14
A   23
C16
A   24
C18
A   25
C19
A   26
O23
A   27
C25
A   28
C27
A   29
C30
A   30
C31
A   31
O32
A   32
O33
A   33
C34
A   34
O35
A   35
C36
A   36
C37
A   37
C38
M  END
