4PK5_PKJ_A_502
     RDKit          3D

 45 49  0  0  0  0  0  0  0  0999 V2000
   -9.6290   17.9610   30.2300 C   0  0  0  0  0  0  0  0  0  0  0  0
   -7.9770   16.4370   31.0470 C   0  0  0  0  0  0  0  0  0  0  0  0
   -8.6700   18.9430   30.0810 C   0  0  0  0  0  0  0  0  0  0  0  0
   -7.0130   17.4130   30.8960 C   0  0  0  0  0  0  0  0  0  0  0  0
  -12.7350   19.4320   38.8180 C   0  0  0  0  0  0  0  0  0  0  0  0
  -12.5100   19.1900   40.1620 C   0  0  0  0  0  0  0  0  0  0  0  0
  -11.3690   17.5230   38.1430 C   0  0  0  0  0  0  0  0  0  0  0  0
   -9.2900   16.7060   30.7220 C   0  0  0  0  0  0  0  0  0  0  0  0
   -7.3650   18.6570   30.4230 C   0  0  0  0  0  0  0  0  0  0  0  0
  -12.1700   18.6060   37.8530 C   0  0  0  0  0  0  0  0  0  0  0  0
  -11.7060   18.1040   40.4390 C   0  0  0  0  0  0  0  0  0  0  0  0
  -11.1540   17.3000   39.4740 C   0  0  0  0  0  0  0  0  0  0  0  0
  -12.3650   14.7500   31.4910 C   0  0  0  0  0  0  0  0  0  0  0  0
  -12.0710   16.5970   32.4800 C   0  0  0  0  0  0  0  0  0  0  0  0
  -10.3250   14.5550   30.1250 C   0  0  0  0  0  0  0  0  0  0  0  0
  -10.3480   15.6810   30.8430 C   0  0  0  0  0  0  0  0  0  0  0  0
  -11.8080   18.0950   35.5590 C   0  0  0  0  0  0  0  0  0  0  0  0
  -10.6230   16.4820   41.3620 C   0  0  0  0  0  0  0  0  0  0  0  0
   -6.3180   19.6740   30.2920 C   0  0  0  0  0  0  0  0  0  0  0  0
  -12.2580   18.6050   34.2300 C   0  0  0  0  0  0  0  0  0  0  0  0
  -13.4200   14.9140   32.2530 N   0  0  0  0  0  0  0  0  0  0  0  0
  -13.2320   16.1150   32.8980 N   0  0  0  0  0  0  0  0  0  0  0  0
  -11.5000   15.7560   31.5870 N   0  0  0  0  0  0  0  0  0  0  0  0
  -12.4080   18.8650   36.5180 N   0  0  0  0  0  0  0  0  0  0  0  0
  -11.0580   17.1480   35.7590 O   0  0  0  0  0  0  0  0  0  0  0  0
  -11.3570   17.6840   41.6920 O   0  0  0  0  0  0  0  0  0  0  0  0
  -10.3890   16.2740   39.9610 O   0  0  0  0  0  0  0  0  0  0  0  0
  -11.7280   13.5810   30.3900 S   0  0  0  0  0  0  0  0  0  0  0  0
  -11.1980   18.0410   32.8950 S   0  0  0  0  0  0  0  0  0  0  0  0
  -10.6729   18.1742   29.9563 H   0  0  0  0  0  0  0  0  0  0  0  0
   -7.6977   15.4432   31.4271 H   0  0  0  0  0  0  0  0  0  0  0  0
   -8.9423   19.9368   29.6960 H   0  0  0  0  0  0  0  0  0  0  0  0
   -5.9654   17.1973   31.1531 H   0  0  0  0  0  0  0  0  0  0  0  0
  -13.3635   20.2814   38.5121 H   0  0  0  0  0  0  0  0  0  0  0  0
  -12.9421   19.8196   40.9538 H   0  0  0  0  0  0  0  0  0  0  0  0
  -10.9342   16.8843   37.3600 H   0  0  0  0  0  0  0  0  0  0  0  0
   -9.5070   14.2792   29.4432 H   0  0  0  0  0  0  0  0  0  0  0  0
   -9.6468   16.5301   41.8666 H   0  0  0  0  0  0  0  0  0  0  0  0
  -11.2489   15.6410   41.6951 H   0  0  0  0  0  0  0  0  0  0  0  0
   -5.9895   19.9930   31.2922 H   0  0  0  0  0  0  0  0  0  0  0  0
   -5.4635   19.2519   29.7428 H   0  0  0  0  0  0  0  0  0  0  0  0
   -6.7151   20.5404   29.7428 H   0  0  0  0  0  0  0  0  0  0  0  0
  -12.2479   19.7048   34.2503 H   0  0  0  0  0  0  0  0  0  0  0  0
  -13.2709   18.2182   34.0444 H   0  0  0  0  0  0  0  0  0  0  0  0
  -13.0350   19.6351   36.2448 H   0  0  0  0  0  0  0  0  0  0  0  0
 28 15  1  0
 28 13  1  0
 15 16  2  0
 16  8  1  0
 16 23  1  0
 13 23  1  0
 13 21  2  0
  1  8  2  0
  1  3  1  0
  8  2  1  0
  3  9  2  0
 23 14  1  0
  2  4  2  0
 21 22  1  0
  9  4  1  0
  9 19  1  0
 14 22  2  0
 14 29  1  0
 29 20  1  0
 25 17  2  0
 20 17  1  0
 17 24  1  0
 24 10  1  0
  5 10  2  0
  5  6  1  0
 10  7  1  0
  6 11  2  0
  7 12  2  0
 11 12  1  0
 11 26  1  0
 12 27  1  0
 26 18  1  0
 27 18  1  0
  1 30  1  0
  2 31  1  0
  3 32  1  0
  4 33  1  0
  5 34  1  0
  6 35  1  0
  7 36  1  0
 15 37  1  0
 18 38  1  0
 18 39  1  0
 19 40  1  0
 19 41  1  0
 19 42  1  0
 20 43  1  0
 20 44  1  0
 24 45  1  0
A    1
C24
A    2
C28
A    3
C25
A    4
C27
A    5
C5
A    6
C6
A    7
C12
A    8
C23
A    9
C26
A   10
C4
A   11
C7
A   12
C11
A   13
C18
A   14
C15
A   15
C20
A   16
C21
A   17
C2
A   18
C9
A   19
C29
A   20
C13
A   21
N17
A   22
N16
A   23
N22
A   24
N3
A   25
O1
A   26
O8
A   27
O10
A   28
S19
A   29
S14
M  END
