4PKR_2ZL_A_801
     RDKit          3D

 44 45  0  0  0  0  0  0  0  0999 V2000
   11.5500   20.0220   27.9210 C   0  0  0  0  0  0  0  0  0  0  0  0
   11.2180   18.4570   26.0420 C   0  0  0  0  0  0  0  0  0  0  0  0
    6.5780   17.5400   26.7030 C   0  0  0  0  0  0  0  0  0  0  0  0
    5.6930   16.9170   25.8330 C   0  0  0  0  0  0  0  0  0  0  0  0
   10.8330   19.8190   26.6130 C   0  0  0  0  0  0  0  0  0  0  0  0
   12.2870   21.1230   28.0480 N   0  0  0  0  0  0  0  0  0  0  0  0
   11.4430   19.2020   28.8180 O   0  0  0  0  0  0  0  0  0  0  0  0
   13.3980   21.1210   28.8890 O   0  0  0  0  0  0  0  0  0  0  0  0
    9.3860   19.9670   26.7760 N   0  0  0  0  0  0  0  0  0  0  0  0
    8.6910   21.3130   26.5930 S   0  0  0  0  0  0  0  0  0  0  0  0
    9.5300   22.1910   25.8230 O   0  0  0  0  0  0  0  0  0  0  0  0
    7.4300   21.1430   25.9280 O   0  0  0  0  0  0  0  0  0  0  0  0
    8.6790   18.7700   27.2240 C   0  0  0  0  0  0  0  0  0  0  0  0
    7.7570   18.1050   26.2250 C   0  0  0  0  0  0  0  0  0  0  0  0
    5.9900   16.8620   24.4760 C   0  0  0  0  0  0  0  0  0  0  0  0
    7.1670   17.4280   23.9950 C   0  0  0  0  0  0  0  0  0  0  0  0
    8.0510   18.0530   24.8670 C   0  0  0  0  0  0  0  0  0  0  0  0
    8.4660   21.9510   28.0430 C   0  0  0  0  0  0  0  0  0  0  0  0
    7.4010   21.5370   28.8360 C   0  0  0  0  0  0  0  0  0  0  0  0
    7.2050   22.0940   30.0950 C   0  0  0  0  0  0  0  0  0  0  0  0
    8.0700   23.0650   30.5660 C   0  0  0  0  0  0  0  0  0  0  0  0
    9.1330   23.4850   29.7770 C   0  0  0  0  0  0  0  0  0  0  0  0
    9.3280   22.9320   28.5170 C   0  0  0  0  0  0  0  0  0  0  0  0
    7.8810   23.6010   31.7850 F   0  0  0  0  0  0  0  0  0  0  0  0
    6.0530   21.6380   30.9510 C   0  0  0  0  0  0  0  0  0  0  0  0
   11.4160   17.7564   26.8666 H   0  0  0  0  0  0  0  0  0  0  0  0
   10.3934   18.0722   25.4239 H   0  0  0  0  0  0  0  0  0  0  0  0
   12.1220   18.5608   25.4239 H   0  0  0  0  0  0  0  0  0  0  0  0
    6.3458   17.5874   27.7772 H   0  0  0  0  0  0  0  0  0  0  0  0
    4.7633   16.4701   26.2149 H   0  0  0  0  0  0  0  0  0  0  0  0
   11.1404   20.5950   25.8965 H   0  0  0  0  0  0  0  0  0  0  0  0
   12.0366   21.9747   27.5257 H   0  0  0  0  0  0  0  0  0  0  0  0
   13.0978   21.1215   29.8324 H   0  0  0  0  0  0  0  0  0  0  0  0
    8.0744   19.0493   28.0994 H   0  0  0  0  0  0  0  0  0  0  0  0
    9.4674   18.0293   27.4237 H   0  0  0  0  0  0  0  0  0  0  0  0
    5.2934   16.3702   23.7811 H   0  0  0  0  0  0  0  0  0  0  0  0
    7.3986   17.3806   22.9207 H   0  0  0  0  0  0  0  0  0  0  0  0
    8.9785   18.5042   24.4846 H   0  0  0  0  0  0  0  0  0  0  0  0
    6.7104   20.7652   28.4654 H   0  0  0  0  0  0  0  0  0  0  0  0
    9.8220   24.2570   30.1502 H   0  0  0  0  0  0  0  0  0  0  0  0
   10.1676   23.2721   27.8930 H   0  0  0  0  0  0  0  0  0  0  0  0
    6.3206   21.7439   32.0127 H   0  0  0  0  0  0  0  0  0  0  0  0
    5.1679   22.2536   30.7328 H   0  0  0  0  0  0  0  0  0  0  0  0
    5.8290   20.5834   30.7328 H   0  0  0  0  0  0  0  0  0  0  0  0
 16 15  2  0
 16 17  1  0
 15  4  1  0
 17 14  2  0
 11 10  2  0
  4  3  2  0
 12 10  2  0
  2  5  1  0
 14  3  1  0
 14 13  1  0
 10  9  1  0
 10 18  1  0
  5  9  1  0
  5  1  1  0
  9 13  1  0
  1  6  1  0
  1  7  2  0
 18 23  1  0
 18 19  2  0
  6  8  1  0
 23 22  2  0
 19 20  1  0
 22 21  1  0
 20 21  2  0
 20 25  1  0
 21 24  1  0
  2 26  1  0
  2 27  1  0
  2 28  1  0
  3 29  1  0
  4 30  1  0
  5 31  1  0
  6 32  1  0
  8 33  1  0
 13 34  1  0
 13 35  1  0
 15 36  1  0
 16 37  1  0
 17 38  1  0
 19 39  1  0
 22 40  1  0
 23 41  1  0
 25 42  1  0
 25 43  1  0
 25 44  1  0
A    1
C1
A    2
C6
A    3
C13
A    4
C14
A    5
C2
A    6
N3
A    7
O4
A    8
O5
A    9
N7
A   10
S8
A   11
O9
A   12
O10
A   13
C11
A   14
C12
A   15
C15
A   16
C16
A   17
C17
A   18
C18
A   19
C19
A   20
C20
A   21
C21
A   22
C22
A   23
C23
A   24
F24
A   25
C25
M  END
