4PKV_30R_A_801
     RDKit          3D

 49 50  0  0  0  0  0  0  0  0999 V2000
   11.5840   19.1180   26.6790 C   0  0  0  0  0  0  0  0  0  0  0  0
   12.3510   19.2000   28.0010 C   0  0  0  0  0  0  0  0  0  0  0  0
    4.5450   15.4200   25.5120 C   0  0  0  0  0  0  0  0  0  0  0  0
   12.3190   18.2100   29.0790 O   0  0  0  0  0  0  0  0  0  0  0  0
   13.1660   20.2450   28.2310 N   0  0  0  0  0  0  0  0  0  0  0  0
    3.8120   15.0860   26.7680 N   0  0  0  0  0  0  0  0  0  0  0  0
    8.6140   20.8100   27.9240 C   0  0  0  0  0  0  0  0  0  0  0  0
    7.5180   20.1310   28.4660 C   0  0  0  0  0  0  0  0  0  0  0  0
    7.0620   20.4400   29.7390 C   0  0  0  0  0  0  0  0  0  0  0  0
    7.7070   21.4230   30.4730 C   0  0  0  0  0  0  0  0  0  0  0  0
    8.8090   22.1040   29.9480 C   0  0  0  0  0  0  0  0  0  0  0  0
    9.2670   21.7980   28.6680 C   0  0  0  0  0  0  0  0  0  0  0  0
    5.8790   19.7090   30.3290 C   0  0  0  0  0  0  0  0  0  0  0  0
    9.6310   17.7960   27.0810 C   0  0  0  0  0  0  0  0  0  0  0  0
    8.3170   17.2060   26.5920 C   0  0  0  0  0  0  0  0  0  0  0  0
    8.0480   16.9450   25.2450 C   0  0  0  0  0  0  0  0  0  0  0  0
    6.8200   16.3700   24.8880 C   0  0  0  0  0  0  0  0  0  0  0  0
    5.8750   16.0450   25.8730 C   0  0  0  0  0  0  0  0  0  0  0  0
    6.1550   16.2950   27.2150 C   0  0  0  0  0  0  0  0  0  0  0  0
    7.3730   16.8650   27.5690 C   0  0  0  0  0  0  0  0  0  0  0  0
   12.1040   17.8550   25.9790 C   0  0  0  0  0  0  0  0  0  0  0  0
   10.0830   19.1440   26.7000 N   0  0  0  0  0  0  0  0  0  0  0  0
   13.9370   20.2750   29.3380 O   0  0  0  0  0  0  0  0  0  0  0  0
    9.1360   20.4000   26.4570 S   0  0  0  0  0  0  0  0  0  0  0  0
    7.9670   20.1980   25.6030 O   0  0  0  0  0  0  0  0  0  0  0  0
    9.8680   21.4950   25.8600 O   0  0  0  0  0  0  0  0  0  0  0  0
    7.2520   21.7210   31.7050 F   0  0  0  0  0  0  0  0  0  0  0  0
   11.7845   20.0614   26.1501 H   0  0  0  0  0  0  0  0  0  0  0  0
    3.9527   16.1302   24.9163 H   0  0  0  0  0  0  0  0  0  0  0  0
    4.7101   14.5063   24.9222 H   0  0  0  0  0  0  0  0  0  0  0  0
   13.2017   21.0253   27.5596 H   0  0  0  0  0  0  0  0  0  0  0  0
    4.3872   15.3481   27.5812 H   0  0  0  0  0  0  0  0  0  0  0  0
    2.9227   15.6050   26.7949 H   0  0  0  0  0  0  0  0  0  0  0  0
    7.0150   19.3479   27.8797 H   0  0  0  0  0  0  0  0  0  0  0  0
    9.3133   22.8793   30.5436 H   0  0  0  0  0  0  0  0  0  0  0  0
   10.1338   22.3284   28.2468 H   0  0  0  0  0  0  0  0  0  0  0  0
    5.9364   19.7445   31.4269 H   0  0  0  0  0  0  0  0  0  0  0  0
    4.9474   20.1892   29.9949 H   0  0  0  0  0  0  0  0  0  0  0  0
    5.8917   18.6611   29.9949 H   0  0  0  0  0  0  0  0  0  0  0  0
    9.5781   17.7907   28.1797 H   0  0  0  0  0  0  0  0  0  0  0  0
   10.3681   17.1584   26.5709 H   0  0  0  0  0  0  0  0  0  0  0  0
    8.7926   17.1884   24.4728 H   0  0  0  0  0  0  0  0  0  0  0  0
    6.5961   16.1725   23.8293 H   0  0  0  0  0  0  0  0  0  0  0  0
    5.4165   16.0428   27.9902 H   0  0  0  0  0  0  0  0  0  0  0  0
    7.5980   17.0504   28.6297 H   0  0  0  0  0  0  0  0  0  0  0  0
   12.4083   17.1159   26.7347 H   0  0  0  0  0  0  0  0  0  0  0  0
   11.3077   17.4300   25.3503 H   0  0  0  0  0  0  0  0  0  0  0  0
   12.9687   18.1139   25.3503 H   0  0  0  0  0  0  0  0  0  0  0  0
   13.3604   20.2526   30.1424 H   0  0  0  0  0  0  0  0  0  0  0  0
 17 16  2  0
 17 18  1  0
 16 15  1  0
  3 18  1  0
  3  6  1  0
 25 24  2  0
 26 24  2  0
 18 19  2  0
 21  1  1  0
 24 22  1  0
 24  7  1  0
 15 14  1  0
 15 20  2  0
  1 22  1  0
  1  2  1  0
 22 14  1  0
 19 20  1  0
  7  8  2  0
  7 12  1  0
  2  5  1  0
  2  4  2  0
  5 23  1  0
  8  9  1  0
 12 11  2  0
  9 13  1  0
  9 10  2  0
 11 10  1  0
 10 27  1  0
  1 28  1  0
  3 29  1  0
  3 30  1  0
  5 31  1  0
  6 32  1  0
  6 33  1  0
  8 34  1  0
 11 35  1  0
 12 36  1  0
 13 37  1  0
 13 38  1  0
 13 39  1  0
 14 40  1  0
 14 41  1  0
 16 42  1  0
 17 43  1  0
 19 44  1  0
 20 45  1  0
 21 46  1  0
 21 47  1  0
 21 48  1  0
 23 49  1  0
A    1
C1
A    2
C2
A    3
C3
A    4
O3
A    5
N4
A    6
N5
A    7
C10
A    8
C11
A    9
C12
A   10
C13
A   11
C14
A   12
C15
A   13
C17
A   14
C18
A   15
C19
A   16
C20
A   17
C21
A   18
C22
A   19
C23
A   20
C24
A   21
C28
A   22
N6
A   23
O5
A   24
S7
A   25
O8
A   26
O9
A   27
F16
M  END
