1G2N_EPH_A_4000
     RDKit          3D

117116  0  0  0  0  0  0  0  0999 V2000
   23.8410   12.8900   85.1820 C   0  0  0  0  0  0  0  0  0  0  0  0
   23.0730   13.7790   86.0510 C   0  0  0  0  0  0  0  0  0  0  0  0
   24.8860   13.0830   83.1320 C   0  0  0  0  0  0  0  0  0  0  0  0
   24.2170   13.6930   84.0850 O   0  0  0  0  0  0  0  0  0  0  0  0
   25.1610   11.9290   83.1640 O   0  0  0  0  0  0  0  0  0  0  0  0
   25.2520   14.0410   81.9680 C   0  0  0  0  0  0  0  0  0  0  0  0
   24.6990   13.5590   80.6200 C   0  0  0  0  0  0  0  0  0  0  0  0
   23.1820   13.5600   80.5590 C   0  0  0  0  0  0  0  0  0  0  0  0
   22.6400   12.7430   79.4010 C   0  0  0  0  0  0  0  0  0  0  0  0
   21.1190   12.8830   79.2930 C   0  0  0  0  0  0  0  0  0  0  0  0
   20.5460   13.0600   77.8750 C   0  0  0  0  0  0  0  0  0  0  0  0
   21.0520   14.3030   77.1280 C   0  0  0  0  0  0  0  0  0  0  0  0
   20.0470   15.4500   77.0060 C   0  0  0  0  0  0  0  0  0  0  0  0
   20.6720   16.7730   77.4580 C   0  0  0  0  0  0  0  0  0  0  0  0
   19.8210   18.0410   77.2860 C   0  0  0  0  0  0  0  0  0  0  0  0
   19.0150   18.1720   75.9820 C   0  0  0  0  0  0  0  0  0  0  0  0
   19.8510   18.2990   74.7210 C   0  0  0  0  0  0  0  0  0  0  0  0
   19.8190   17.0240   73.8780 C   0  0  0  0  0  0  0  0  0  0  0  0
   19.4350   17.2610   72.4160 C   0  0  0  0  0  0  0  0  0  0  0  0
   17.9310   17.4610   72.2130 C   0  0  0  0  0  0  0  0  0  0  0  0
   17.0820   16.2030   72.3630 C   0  0  0  0  0  0  0  0  0  0  0  0
   15.5980   16.5130   72.5320 C   0  0  0  0  0  0  0  0  0  0  0  0
   22.8430   13.1340   87.3730 C   0  0  0  0  0  0  0  0  0  0  0  0
   22.3140   14.1310   88.2250 O   0  0  0  0  0  0  0  0  0  0  0  0
   21.5120   15.3110   85.2490 C   0  0  0  0  0  0  0  0  0  0  0  0
   21.8340   14.0430   85.4210 O   0  0  0  0  0  0  0  0  0  0  0  0
   22.2320   16.2240   85.5400 O   0  0  0  0  0  0  0  0  0  0  0  0
   20.1450   15.5160   84.6210 C   0  0  0  0  0  0  0  0  0  0  0  0
   20.3810   15.7470   83.1310 C   0  0  0  0  0  0  0  0  0  0  0  0
   19.0500   15.9540   82.4310 C   0  0  0  0  0  0  0  0  0  0  0  0
   19.0430   15.7290   80.9340 C   0  0  0  0  0  0  0  0  0  0  0  0
   17.6350   16.0460   80.4090 C   0  0  0  0  0  0  0  0  0  0  0  0
   17.0660   15.1860   79.2820 C   0  0  0  0  0  0  0  0  0  0  0  0
   16.4520   16.0900   78.2190 C   0  0  0  0  0  0  0  0  0  0  0  0
   15.1490   15.6340   77.5180 C   0  0  0  0  0  0  0  0  0  0  0  0
   15.2020   14.2860   76.8570 C   0  0  0  0  0  0  0  0  0  0  0  0
   14.8600   14.4260   75.3880 C   0  0  0  0  0  0  0  0  0  0  0  0
   14.9790   13.0850   74.6710 C   0  0  0  0  0  0  0  0  0  0  0  0
   16.4330   12.7210   74.3480 C   0  0  0  0  0  0  0  0  0  0  0  0
   16.7660   11.3380   74.8800 C   0  0  0  0  0  0  0  0  0  0  0  0
   18.0190   11.3730   75.7190 C   0  0  0  0  0  0  0  0  0  0  0  0
   18.2650   10.0130   76.3250 C   0  0  0  0  0  0  0  0  0  0  0  0
   21.8190   13.7180   89.6560 P   0  0  0  0  0  0  0  0  0  0  0  0
   21.5440   14.9200   90.5650 O   0  0  0  0  0  0  0  0  0  0  0  0
   20.5140   12.9240   89.2730 O   0  0  0  0  0  0  0  0  0  0  0  0
   22.8420   12.7260   90.2060 O   0  0  0  0  0  0  0  0  0  0  0  0
   22.7540   11.3630   89.7770 C   0  0  0  0  0  0  0  0  0  0  0  0
   24.1070   10.7060   89.5900 C   0  0  0  0  0  0  0  0  0  0  0  0
   23.7530    9.2960   89.7330 N   0  0  0  0  0  0  0  0  0  0  0  0
   24.7301   12.5093   85.7060 H   0  0  0  0  0  0  0  0  0  0  0  0
   23.2594   12.0095   84.8714 H   0  0  0  0  0  0  0  0  0  0  0  0
   23.6257   14.7154   86.2175 H   0  0  0  0  0  0  0  0  0  0  0  0
   24.8366   15.0361   82.1851 H   0  0  0  0  0  0  0  0  0  0  0  0
   26.3488   14.0714   81.8899 H   0  0  0  0  0  0  0  0  0  0  0  0
   25.0808   14.2212   79.8290 H   0  0  0  0  0  0  0  0  0  0  0  0
   25.0301   12.5187   80.4849 H   0  0  0  0  0  0  0  0  0  0  0  0
   22.7921   13.1404   81.4981 H   0  0  0  0  0  0  0  0  0  0  0  0
   22.8570   14.6004   80.4112 H   0  0  0  0  0  0  0  0  0  0  0  0
   23.1006   13.0950   78.4661 H   0  0  0  0  0  0  0  0  0  0  0  0
   22.8822   11.6844   79.5762 H   0  0  0  0  0  0  0  0  0  0  0  0
   20.6682   11.9775   79.7253 H   0  0  0  0  0  0  0  0  0  0  0  0
   20.8731   13.8136   79.8254 H   0  0  0  0  0  0  0  0  0  0  0  0
   20.8146   12.1721   77.2838 H   0  0  0  0  0  0  0  0  0  0  0  0
   19.4601   13.1895   77.9930 H   0  0  0  0  0  0  0  0  0  0  0  0
   22.0674   14.3643   76.7094 H   0  0  0  0  0  0  0  0  0  0  0  0
   19.0147   15.3393   76.6426 H   0  0  0  0  0  0  0  0  0  0  0  0
   20.9136   16.6779   78.5269 H   0  0  0  0  0  0  0  0  0  0  0  0
   21.5397   16.9194   76.7979 H   0  0  0  0  0  0  0  0  0  0  0  0
   19.1070   18.0769   78.1220 H   0  0  0  0  0  0  0  0  0  0  0  0
   20.5453   18.8684   77.2575 H   0  0  0  0  0  0  0  0  0  0  0  0
   17.9151   18.1735   75.9646 H   0  0  0  0  0  0  0  0  0  0  0  0
   20.4141   19.2030   74.4460 H   0  0  0  0  0  0  0  0  0  0  0  0
   20.8185   16.5655   73.9043 H   0  0  0  0  0  0  0  0  0  0  0  0
   19.0459   16.3723   74.3112 H   0  0  0  0  0  0  0  0  0  0  0  0
   19.9588   18.1597   72.0581 H   0  0  0  0  0  0  0  0  0  0  0  0
   19.7246   16.3622   71.8519 H   0  0  0  0  0  0  0  0  0  0  0  0
   17.4938   18.4421   71.9758 H   0  0  0  0  0  0  0  0  0  0  0  0
   17.4947   15.1834   72.3507 H   0  0  0  0  0  0  0  0  0  0  0  0
   15.3538   16.5640   73.6033 H   0  0  0  0  0  0  0  0  0  0  0  0
   15.3687   17.4784   72.0573 H   0  0  0  0  0  0  0  0  0  0  0  0
   15.0014   15.7201   72.0573 H   0  0  0  0  0  0  0  0  0  0  0  0
   22.1280   12.3043   87.2708 H   0  0  0  0  0  0  0  0  0  0  0  0
   23.7779   12.7212   87.7798 H   0  0  0  0  0  0  0  0  0  0  0  0
   19.5198   14.6237   84.7726 H   0  0  0  0  0  0  0  0  0  0  0  0
   19.6223   16.3696   85.0773 H   0  0  0  0  0  0  0  0  0  0  0  0
   21.0095   16.6393   82.9939 H   0  0  0  0  0  0  0  0  0  0  0  0
   20.8876   14.8704   82.7010 H   0  0  0  0  0  0  0  0  0  0  0  0
   18.3233   15.2600   82.8786 H   0  0  0  0  0  0  0  0  0  0  0  0
   18.8045   17.0170   82.5713 H   0  0  0  0  0  0  0  0  0  0  0  0
   19.7777   16.3923   80.4541 H   0  0  0  0  0  0  0  0  0  0  0  0
   19.3088   14.6865   80.7047 H   0  0  0  0  0  0  0  0  0  0  0  0
   16.9444   15.9627   81.2612 H   0  0  0  0  0  0  0  0  0  0  0  0
   17.7337   17.0457   79.9609 H   0  0  0  0  0  0  0  0  0  0  0  0
   17.8725   14.5871   78.8338 H   0  0  0  0  0  0  0  0  0  0  0  0
   16.2938   14.5142   79.6851 H   0  0  0  0  0  0  0  0  0  0  0  0
   16.2402   17.0568   78.6991 H   0  0  0  0  0  0  0  0  0  0  0  0
   17.1999   16.1002   77.4124 H   0  0  0  0  0  0  0  0  0  0  0  0
   14.2426   16.2571   77.5048 H   0  0  0  0  0  0  0  0  0  0  0  0
   15.4512   13.3414   77.3626 H   0  0  0  0  0  0  0  0  0  0  0  0
   13.8283   14.7953   75.2921 H   0  0  0  0  0  0  0  0  0  0  0  0
   15.5658   15.1338   74.9288 H   0  0  0  0  0  0  0  0  0  0  0  0
   14.1181   12.4502   74.4144 H   0  0  0  0  0  0  0  0  0  0  0  0
   17.1365   13.3707   73.8067 H   0  0  0  0  0  0  0  0  0  0  0  0
   15.9293   10.9779   75.4966 H   0  0  0  0  0  0  0  0  0  0  0  0
   16.9320   10.6633   74.0272 H   0  0  0  0  0  0  0  0  0  0  0  0
   18.8747   11.6514   75.0864 H   0  0  0  0  0  0  0  0  0  0  0  0
   17.8975   12.1132   76.5236 H   0  0  0  0  0  0  0  0  0  0  0  0
   18.2506   10.0924   77.4220 H   0  0  0  0  0  0  0  0  0  0  0  0
   17.4780    9.3178   75.9973 H   0  0  0  0  0  0  0  0  0  0  0  0
   19.2456    9.6375   75.9973 H   0  0  0  0  0  0  0  0  0  0  0  0
   21.6083   14.6390   91.5121 H   0  0  0  0  0  0  0  0  0  0  0  0
   22.1911   10.7947   90.5321 H   0  0  0  0  0  0  0  0  0  0  0  0
   22.2521   11.3607   88.7982 H   0  0  0  0  0  0  0  0  0  0  0  0
   24.5256   10.9187   88.5952 H   0  0  0  0  0  0  0  0  0  0  0  0
   24.8808   11.0530   90.2905 H   0  0  0  0  0  0  0  0  0  0  0  0
   23.6929    9.0568   90.7330 H   0  0  0  0  0  0  0  0  0  0  0  0
   22.8425    9.1233   89.2834 H   0  0  0  0  0  0  0  0  0  0  0  0
  1  2  1  0
  1  4  1  0
  2 23  1  0
  2 26  1  0
  3  4  1  0
  3  5  2  0
  3  6  1  0
  6  7  1  0
  7  8  1  0
  8  9  1  0
  9 10  1  0
 10 11  1  0
 11 12  1  0
 12 13  2  0
 13 14  1  0
 14 15  1  0
 15 16  1  0
 16 17  2  0
 17 18  1  0
 18 19  1  0
 19 20  1  0
 20 21  2  0
 21 22  1  0
 23 24  1  0
 24 43  1  0
 25 26  1  0
 25 27  2  0
 25 28  1  0
 28 29  1  0
 29 30  1  0
 30 31  1  0
 31 32  1  0
 32 33  1  0
 33 34  1  0
 34 35  1  0
 35 36  2  0
 36 37  1  0
 37 38  1  0
 38 39  2  0
 39 40  1  0
 40 41  1  0
 41 42  1  0
 43 44  1  0
 43 45  2  0
 43 46  1  0
 46 47  1  0
 47 48  1  0
 48 49  1  0
  1 50  1  0
  1 51  1  0
  2 52  1  0
  6 53  1  0
  6 54  1  0
  7 55  1  0
  7 56  1  0
  8 57  1  0
  8 58  1  0
  9 59  1  0
  9 60  1  0
 10 61  1  0
 10 62  1  0
 11 63  1  0
 11 64  1  0
 12 65  1  0
 13 66  1  0
 14 67  1  0
 14 68  1  0
 15 69  1  0
 15 70  1  0
 16 71  1  0
 17 72  1  0
 18 73  1  0
 18 74  1  0
 19 75  1  0
 19 76  1  0
 20 77  1  0
 21 78  1  0
 22 79  1  0
 22 80  1  0
 22 81  1  0
 23 82  1  0
 23 83  1  0
 28 84  1  0
 28 85  1  0
 29 86  1  0
 29 87  1  0
 30 88  1  0
 30 89  1  0
 31 90  1  0
 31 91  1  0
 32 92  1  0
 32 93  1  0
 33 94  1  0
 33 95  1  0
 34 96  1  0
 34 97  1  0
 35 98  1  0
 36 99  1  0
 37100  1  0
 37101  1  0
 38102  1  0
 39103  1  0
 40104  1  0
 40105  1  0
 41106  1  0
 41107  1  0
 42108  1  0
 42109  1  0
 42110  1  0
 44111  1  0
 47112  1  0
 47113  1  0
 48114  1  0
 48115  1  0
 49116  1  0
 49117  1  0
A    1
C1
A    2
C2
A    3
C4
A    4
O2
A    5
O4
A    6
C18
A    7
C19
A    8
C20
A    9
C21
A   10
C22
A   11
C23
A   12
C24
A   13
C25
A   14
C26
A   15
C27
A   16
C28
A   17
C29
A   18
C30
A   19
C31
A   20
C32
A   21
C33
A   22
C34
A   23
C37
A   24
O5
A   25
C3
A   26
O1
A   27
O3
A   28
C5
A   29
C6
A   30
C7
A   31
C8
A   32
C9
A   33
C10
A   34
C11
A   35
C12
A   36
C13
A   37
C14
A   38
C15
A   39
C16
A   40
C17
A   41
C35
A   42
C36
A   43
P1
A   44
O6
A   45
O7
A   46
O8
A   47
C38
A   48
C39
A   49
N1
M  END
