4PM1_ESZ_A_201
     RDKit          3D

 44 47  0  0  0  0  0  0  0  0999 V2000
   21.2420   40.1150   41.5640 Br  0  0  0  0  0  0  0  0  0  0  0  0
   20.7040   41.8360   40.6580 C   0  0  0  0  0  0  0  0  0  0  0  0
   21.8060   42.8980   40.7140 C   0  0  0  0  0  0  0  0  0  0  0  0
   21.5250   43.8630   41.7300 O   0  0  0  0  0  0  0  0  0  0  0  0
   21.7950   43.5420   39.3330 C   0  0  0  0  0  0  0  0  0  0  0  0
   20.6670   44.5700   39.2840 C   0  0  0  0  0  0  0  0  0  0  0  0
   23.0950   44.1770   38.8510 C   0  0  0  0  0  0  0  0  0  0  0  0
   22.9850   44.4940   37.3530 C   0  0  0  0  0  0  0  0  0  0  0  0
   22.5810   43.2790   36.5180 C   0  0  0  0  0  0  0  0  0  0  0  0
   21.2500   42.7470   37.0120 C   0  0  0  0  0  0  0  0  0  0  0  0
   21.5010   42.3430   38.4530 C   0  0  0  0  0  0  0  0  0  0  0  0
   20.3980   41.5940   39.1790 C   0  0  0  0  0  0  0  0  0  0  0  0
   22.5560   43.5730   35.0630 C   0  0  0  0  0  0  0  0  0  0  0  0
   23.5620   44.3720   34.5290 C   0  0  0  0  0  0  0  0  0  0  0  0
   23.5890   44.6620   33.1690 C   0  0  0  0  0  0  0  0  0  0  0  0
   22.6130   44.1330   32.3360 C   0  0  0  0  0  0  0  0  0  0  0  0
   22.6300   44.4080   31.0020 O   0  0  0  0  0  0  0  0  0  0  0  0
   21.6210   43.3160   32.8650 C   0  0  0  0  0  0  0  0  0  0  0  0
   21.5860   43.0320   34.2260 C   0  0  0  0  0  0  0  0  0  0  0  0
   20.4770   42.1410   34.7490 C   0  0  0  0  0  0  0  0  0  0  0  0
   20.8240   41.5920   36.1250 C   0  0  0  0  0  0  0  0  0  0  0  0
   19.8171   42.1943   41.2011 H   0  0  0  0  0  0  0  0  0  0  0  0
   22.7880   42.4680   40.9606 H   0  0  0  0  0  0  0  0  0  0  0  0
   21.6456   43.4487   42.6210 H   0  0  0  0  0  0  0  0  0  0  0  0
   20.3715   44.8393   40.3088 H   0  0  0  0  0  0  0  0  0  0  0  0
   21.0134   45.4695   38.7540 H   0  0  0  0  0  0  0  0  0  0  0  0
   19.8035   44.1418   38.7540 H   0  0  0  0  0  0  0  0  0  0  0  0
   23.9282   43.4784   39.0177 H   0  0  0  0  0  0  0  0  0  0  0  0
   23.2784   45.1065   39.4100 H   0  0  0  0  0  0  0  0  0  0  0  0
   23.9613   44.8556   36.9978 H   0  0  0  0  0  0  0  0  0  0  0  0
   22.1994   45.2545   37.2324 H   0  0  0  0  0  0  0  0  0  0  0  0
   23.3463   42.4998   36.6491 H   0  0  0  0  0  0  0  0  0  0  0  0
   20.4278   43.4765   36.9697 H   0  0  0  0  0  0  0  0  0  0  0  0
   22.3505   41.6569   38.3203 H   0  0  0  0  0  0  0  0  0  0  0  0
   19.4098   41.9969   38.9124 H   0  0  0  0  0  0  0  0  0  0  0  0
   20.3684   40.5253   38.9203 H   0  0  0  0  0  0  0  0  0  0  0  0
   24.3432   44.7781   35.1884 H   0  0  0  0  0  0  0  0  0  0  0  0
   24.3790   45.3066   32.7562 H   0  0  0  0  0  0  0  0  0  0  0  0
   22.6880   45.3460   30.6907 H   0  0  0  0  0  0  0  0  0  0  0  0
   20.8554   42.8895   32.2002 H   0  0  0  0  0  0  0  0  0  0  0  0
   19.5479   42.7258   34.8185 H   0  0  0  0  0  0  0  0  0  0  0  0
   20.3488   41.2964   34.0560 H   0  0  0  0  0  0  0  0  0  0  0  0
   19.9434   41.0961   36.5593 H   0  0  0  0  0  0  0  0  0  0  0  0
   21.6404   40.8593   36.0431 H   0  0  0  0  0  0  0  0  0  0  0  0
 17 16  1  0
 16 18  2  0
 16 15  1  0
 18 19  1  0
 15 14  2  0
 19 20  1  0
 19 13  2  0
 14 13  1  0
 20 21  1  0
 13  9  1  0
 21 10  1  0
  9 10  1  0
  9  8  1  0
 10 11  1  0
  8  7  1  0
 11 12  1  0
 11  5  1  0
  7  5  1  0
 12  2  1  0
  6  5  1  0
  5  3  1  0
  2  3  1  0
  2  1  1  0
  3  4  1  0
  2 22  1  0
  3 23  1  0
  4 24  1  0
  6 25  1  0
  6 26  1  0
  6 27  1  0
  7 28  1  0
  7 29  1  0
  8 30  1  0
  8 31  1  0
  9 32  1  0
 10 33  1  0
 11 34  1  0
 12 35  1  0
 12 36  1  0
 14 37  1  0
 15 38  1  0
 17 39  1  0
 18 40  1  0
 20 41  1  0
 20 42  1  0
 21 43  1  0
 21 44  1  0
A    1
BR2
A    2
C8
A    3
C7
A    4
O1
A    5
C5
A    6
C6
A    7
C4
A    8
C3
A    9
C2
A   10
C12
A   11
C10
A   12
C9
A   13
C21
A   14
C20
A   15
C19
A   16
C18
A   17
O3
A   18
C17
A   19
C16
A   20
C15
A   21
C14
M  END
