1GKL_FER_A_3086
     RDKit          3D

 24 24  0  0  0  0  0  0  0  0999 V2000
   11.9650  113.4570   16.4030 C   0  0  0  0  0  0  0  0  0  0  0  0
   11.5670  114.7000   15.9410 C   0  0  0  0  0  0  0  0  0  0  0  0
   10.7060  114.7930   14.8500 C   0  0  0  0  0  0  0  0  0  0  0  0
   11.5170  112.3180   15.7710 C   0  0  0  0  0  0  0  0  0  0  0  0
   10.6570  112.4040   14.6750 C   0  0  0  0  0  0  0  0  0  0  0  0
   10.2390  113.6370   14.2150 C   0  0  0  0  0  0  0  0  0  0  0  0
   11.6000  109.9370   15.6340 C   0  0  0  0  0  0  0  0  0  0  0  0
    9.3120  113.6590   13.0660 C   0  0  0  0  0  0  0  0  0  0  0  0
    8.8160  114.7840   12.5120 C   0  0  0  0  0  0  0  0  0  0  0  0
    7.8730  114.7460   11.3550 C   0  0  0  0  0  0  0  0  0  0  0  0
    7.4960  113.6740   10.8480 O   0  0  0  0  0  0  0  0  0  0  0  0
    7.4860  115.8570   10.9440 O   0  0  0  0  0  0  0  0  0  0  0  0
   12.8190  113.3250   17.4850 O   0  0  0  0  0  0  0  0  0  0  0  0
   11.9590  111.1360   16.3130 O   0  0  0  0  0  0  0  0  0  0  0  0
   11.9304  115.6132   16.4350 H   0  0  0  0  0  0  0  0  0  0  0  0
   10.3911  115.7818   14.4852 H   0  0  0  0  0  0  0  0  0  0  0  0
   10.3112  111.4866   14.1761 H   0  0  0  0  0  0  0  0  0  0  0  0
   11.3657  109.1545   16.3707 H   0  0  0  0  0  0  0  0  0  0  0  0
   10.7181  110.1227   15.0034 H   0  0  0  0  0  0  0  0  0  0  0  0
   12.4389  109.6075   15.0034 H   0  0  0  0  0  0  0  0  0  0  0  0
    9.0060  112.6949   12.6337 H   0  0  0  0  0  0  0  0  0  0  0  0
    9.1151  115.7588   12.9248 H   0  0  0  0  0  0  0  0  0  0  0  0
    7.2393  116.5653   11.5901 H   0  0  0  0  0  0  0  0  0  0  0  0
   12.4622  113.3801   18.4068 H   0  0  0  0  0  0  0  0  0  0  0  0
  1  2  2  0
  1  4  1  0
  1 13  1  0
  2  3  1  0
  3  6  2  0
  4  5  2  0
  4 14  1  0
  5  6  1  0
  6  8  1  0
  7 14  1  0
  8  9  2  0
  9 10  1  0
 10 11  2  0
 10 12  1  0
  2 15  1  0
  3 16  1  0
  5 17  1  0
  7 18  1  0
  7 19  1  0
  7 20  1  0
  8 21  1  0
  9 22  1  0
 12 23  1  0
 13 24  1  0
A    1
C4
A    2
C5
A    3
C6
A    4
C3
A    5
C2
A    6
C1
A    7
C10
A    8
C7
A    9
C8
A   10
C9
A   11
O1
A   12
O2
A   13
O4
A   14
O3
M  END
