4PMP_31W_A_801
     RDKit          3D

 48 51  0  0  0  0  0  0  0  0999 V2000
   31.4220  -34.6560   -9.8740 C   0  0  0  0  0  0  0  0  0  0  0  0
   31.8120  -35.6160   -8.7920 C   0  0  0  0  0  0  0  0  0  0  0  0
   31.5450  -33.6880   -5.9170 C   0  0  0  0  0  0  0  0  0  0  0  0
   30.3420  -34.2180   -3.8780 C   0  0  0  0  0  0  0  0  0  0  0  0
   27.6920  -34.4090   -1.4210 C   0  0  0  0  0  0  0  0  0  0  0  0
   26.8320  -33.8820   -2.3030 C   0  0  0  0  0  0  0  0  0  0  0  0
   31.5030  -34.7790   -3.3450 C   0  0  0  0  0  0  0  0  0  0  0  0
   32.6630  -34.8230   -4.1010 C   0  0  0  0  0  0  0  0  0  0  0  0
   32.6810  -34.2840   -5.3790 C   0  0  0  0  0  0  0  0  0  0  0  0
   36.9150  -32.1350   -7.7330 C   0  0  0  0  0  0  0  0  0  0  0  0
   39.8260  -28.9360   -8.8450 C   0  0  0  0  0  0  0  0  0  0  0  0
   36.7290  -31.8530  -10.1100 C   0  0  0  0  0  0  0  0  0  0  0  0
   33.9240  -31.5130   -7.3880 O   0  0  0  0  0  0  0  0  0  0  0  0
   33.8690  -32.5170   -8.0850 C   0  0  0  0  0  0  0  0  0  0  0  0
   34.9160  -32.9310   -8.8540 N   0  0  0  0  0  0  0  0  0  0  0  0
   36.1970  -32.3180   -8.9110 C   0  0  0  0  0  0  0  0  0  0  0  0
   37.9430  -31.1840  -10.1260 C   0  0  0  0  0  0  0  0  0  0  0  0
   38.6390  -30.9830   -8.9380 C   0  0  0  0  0  0  0  0  0  0  0  0
   39.8630  -30.2800   -8.8800 O   0  0  0  0  0  0  0  0  0  0  0  0
   39.3550  -28.4120   -9.9590 F   0  0  0  0  0  0  0  0  0  0  0  0
   39.0920  -28.4780   -7.8450 F   0  0  0  0  0  0  0  0  0  0  0  0
   41.0260  -28.4220   -8.6860 F   0  0  0  0  0  0  0  0  0  0  0  0
   38.1300  -31.4700   -7.7440 C   0  0  0  0  0  0  0  0  0  0  0  0
   32.7100  -33.3020   -8.1190 N   0  0  0  0  0  0  0  0  0  0  0  0
   32.6660  -34.4290   -9.0830 C   0  0  0  0  0  0  0  0  0  0  0  0
   31.5850  -32.9560   -7.2410 C   0  0  0  0  0  0  0  0  0  0  0  0
   30.3710  -33.6840   -5.1650 C   0  0  0  0  0  0  0  0  0  0  0  0
   29.0900  -34.1850   -3.0980 C   0  0  0  0  0  0  0  0  0  0  0  0
   27.6200  -33.5720   -3.7790 S   0  0  0  0  0  0  0  0  0  0  0  0
   28.9840  -34.5880   -1.8630 N   0  0  0  0  0  0  0  0  0  0  0  0
   30.5539  -33.9946   -9.7365 H   0  0  0  0  0  0  0  0  0  0  0  0
   31.1849  -34.7435  -10.9446 H   0  0  0  0  0  0  0  0  0  0  0  0
   31.2303  -35.6602   -7.8595 H   0  0  0  0  0  0  0  0  0  0  0  0
   31.9802  -36.7017   -8.7379 H   0  0  0  0  0  0  0  0  0  0  0  0
   27.3835  -34.6832   -0.4014 H   0  0  0  0  0  0  0  0  0  0  0  0
   25.7697  -33.6790   -2.1020 H   0  0  0  0  0  0  0  0  0  0  0  0
   31.4972  -35.1868   -2.3234 H   0  0  0  0  0  0  0  0  0  0  0  0
   33.5710  -35.2860   -3.6873 H   0  0  0  0  0  0  0  0  0  0  0  0
   33.6049  -34.3284   -5.9743 H   0  0  0  0  0  0  0  0  0  0  0  0
   36.5140  -32.5220   -6.7846 H   0  0  0  0  0  0  0  0  0  0  0  0
   36.1829  -32.0173  -11.0506 H   0  0  0  0  0  0  0  0  0  0  0  0
   34.7654  -33.7607   -9.4455 H   0  0  0  0  0  0  0  0  0  0  0  0
   38.3553  -30.8128  -11.0759 H   0  0  0  0  0  0  0  0  0  0  0  0
   38.6897  -31.3287   -6.8076 H   0  0  0  0  0  0  0  0  0  0  0  0
   33.7289  -34.2833   -9.3258 H   0  0  0  0  0  0  0  0  0  0  0  0
   31.6379  -31.8775   -7.0309 H   0  0  0  0  0  0  0  0  0  0  0  0
   30.6755  -33.2575   -7.7812 H   0  0  0  0  0  0  0  0  0  0  0  0
   29.4542  -33.2531   -5.5937 H   0  0  0  0  0  0  0  0  0  0  0  0
 17 12  2  0
 17 18  1  0
 12 16  1  0
 20 11  1  0
  1 25  1  0
  1  2  1  0
 25  2  1  0
 25 24  1  0
 18 19  1  0
 18 23  2  0
 16 15  1  0
 16 10  2  0
 19 11  1  0
 15 14  1  0
 11 22  1  0
 11 21  1  0
 24 14  1  0
 24 26  1  0
 14 13  2  0
 23 10  1  0
 26  3  1  0
  3  9  2  0
  3 27  1  0
  9  8  1  0
 27  4  2  0
  8  7  2  0
  4  7  1  0
  4 28  1  0
 29 28  1  0
 29  6  1  0
 28 30  2  0
  6  5  2  0
 30  5  1  0
  1 31  1  0
  1 32  1  0
  2 33  1  0
  2 34  1  0
  5 35  1  0
  6 36  1  0
  7 37  1  0
  8 38  1  0
  9 39  1  0
 10 40  1  0
 12 41  1  0
 15 42  1  0
 17 43  1  0
 23 44  1  0
 25 45  1  0
 26 46  1  0
 26 47  1  0
 27 48  1  0
A    1
C2
A    2
C3
A    3
C5
A    4
C7
A    5
C9
A    6
C10
A    7
C11
A    8
C12
A    9
C13
A   10
C15
A   11
C18
A   12
C20
A   13
O1
A   14
C
A   15
N2
A   16
C14
A   17
C19
A   18
C17
A   19
O
A   20
F2
A   21
F1
A   22
F
A   23
C16
A   24
N
A   25
C1
A   26
C4
A   27
C6
A   28
C8
A   29
S
A   30
N1
M  END
