4PMT_31Y_A_801
     RDKit          3D

 54 58  0  0  0  0  0  0  0  0999 V2000
   30.0910  -34.9750   -2.6050 C   0  0  0  0  0  0  0  0  0  0  0  0
   28.4050  -34.9330   -1.0690 C   0  0  0  0  0  0  0  0  0  0  0  0
   31.0240  -29.7350   -6.4340 N   0  0  0  0  0  0  0  0  0  0  0  0
   31.8220  -35.0360   -4.2750 C   0  0  0  0  0  0  0  0  0  0  0  0
   21.9240  -31.2300   -3.7960 N   0  0  0  0  0  0  0  0  0  0  0  0
   30.4100  -33.3610   -7.3410 C   0  0  0  0  0  0  0  0  0  0  0  0
   31.1880  -31.0180   -6.8010 C   0  0  0  0  0  0  0  0  0  0  0  0
   29.7710  -29.3110   -6.2160 C   0  0  0  0  0  0  0  0  0  0  0  0
   28.6650  -30.1280   -6.3530 C   0  0  0  0  0  0  0  0  0  0  0  0
   28.8630  -31.4470   -6.7320 C   0  0  0  0  0  0  0  0  0  0  0  0
   25.8270  -32.7640   -3.8390 C   0  0  0  0  0  0  0  0  0  0  0  0
   23.5860  -32.7920   -2.9590 C   0  0  0  0  0  0  0  0  0  0  0  0
   25.4930  -31.6670   -4.6240 C   0  0  0  0  0  0  0  0  0  0  0  0
   20.2840  -29.8460   -2.6630 C   0  0  0  0  0  0  0  0  0  0  0  0
   20.4130  -29.7730   -5.0150 C   0  0  0  0  0  0  0  0  0  0  0  0
   21.2040  -31.0580   -5.0620 C   0  0  0  0  0  0  0  0  0  0  0  0
   19.5420  -29.7370   -3.8820 O   0  0  0  0  0  0  0  0  0  0  0  0
   21.0790  -31.1290   -2.6030 C   0  0  0  0  0  0  0  0  0  0  0  0
   23.2380  -31.7010   -3.7590 C   0  0  0  0  0  0  0  0  0  0  0  0
   24.8660  -33.3150   -2.9980 C   0  0  0  0  0  0  0  0  0  0  0  0
   24.2180  -31.1330   -4.5770 C   0  0  0  0  0  0  0  0  0  0  0  0
   27.1700  -33.1700   -3.8780 N   0  0  0  0  0  0  0  0  0  0  0  0
   27.9400  -33.9630   -3.0860 C   0  0  0  0  0  0  0  0  0  0  0  0
   27.5290  -34.2870   -1.8500 N   0  0  0  0  0  0  0  0  0  0  0  0
   29.6600  -35.2920   -1.3440 N   0  0  0  0  0  0  0  0  0  0  0  0
   29.2600  -34.3230   -3.5330 C   0  0  0  0  0  0  0  0  0  0  0  0
   29.6900  -34.0400   -4.7940 N   0  0  0  0  0  0  0  0  0  0  0  0
   30.9180  -34.3810   -5.1430 C   0  0  0  0  0  0  0  0  0  0  0  0
   31.4030  -35.3190   -3.0090 C   0  0  0  0  0  0  0  0  0  0  0  0
   31.2910  -34.0580   -6.4140 N   0  0  0  0  0  0  0  0  0  0  0  0
   30.1490  -31.9190   -6.9630 C   0  0  0  0  0  0  0  0  0  0  0  0
   28.0407  -35.2036   -0.0670 H   0  0  0  0  0  0  0  0  0  0  0  0
   32.8331  -35.3090   -4.6113 H   0  0  0  0  0  0  0  0  0  0  0  0
   29.4471  -33.8920   -7.3711 H   0  0  0  0  0  0  0  0  0  0  0  0
   30.9141  -33.3513   -8.3186 H   0  0  0  0  0  0  0  0  0  0  0  0
   32.2124  -31.3745   -6.9842 H   0  0  0  0  0  0  0  0  0  0  0  0
   29.6162  -28.2646   -5.9142 H   0  0  0  0  0  0  0  0  0  0  0  0
   27.6523  -29.7414   -6.1660 H   0  0  0  0  0  0  0  0  0  0  0  0
   28.0011  -32.1202   -6.8499 H   0  0  0  0  0  0  0  0  0  0  0  0
   22.8349  -33.2396   -2.2915 H   0  0  0  0  0  0  0  0  0  0  0  0
   26.2480  -31.2202   -5.2875 H   0  0  0  0  0  0  0  0  0  0  0  0
   20.9764  -28.9944   -2.5903 H   0  0  0  0  0  0  0  0  0  0  0  0
   19.5694  -29.8471   -1.8267 H   0  0  0  0  0  0  0  0  0  0  0  0
   21.1112  -28.9250   -4.9566 H   0  0  0  0  0  0  0  0  0  0  0  0
   19.7988  -29.7114   -5.9255 H   0  0  0  0  0  0  0  0  0  0  0  0
   20.5195  -31.9056   -5.2136 H   0  0  0  0  0  0  0  0  0  0  0  0
   21.9237  -31.0177   -5.8929 H   0  0  0  0  0  0  0  0  0  0  0  0
   20.3910  -31.9865   -2.5661 H   0  0  0  0  0  0  0  0  0  0  0  0
   21.7105  -31.1300   -1.7023 H   0  0  0  0  0  0  0  0  0  0  0  0
   25.1256  -34.1724   -2.3596 H   0  0  0  0  0  0  0  0  0  0  0  0
   23.9732  -30.2527   -5.1895 H   0  0  0  0  0  0  0  0  0  0  0  0
   27.6845  -32.7828   -4.6819 H   0  0  0  0  0  0  0  0  0  0  0  0
   32.0844  -35.8145   -2.3018 H   0  0  0  0  0  0  0  0  0  0  0  0
   32.2356  -34.3178   -6.7320 H   0  0  0  0  0  0  0  0  0  0  0  0
  6 31  1  0
  6 30  1  0
 31  7  1  0
 31 10  2  0
  7  3  2  0
 10  9  1  0
  3  8  1  0
 30 28  1  0
  9  8  2  0
 28 27  2  0
 28  4  1  0
 16 15  1  0
 16  5  1  0
 15 17  1  0
 27 26  1  0
 13 21  2  0
 13 11  1  0
 21 19  1  0
  4 29  2  0
 17 14  1  0
 22 11  1  0
 22 23  1  0
 11 20  2  0
  5 19  1  0
  5 18  1  0
 19 12  2  0
 26 23  2  0
 26  1  1  0
 23 24  1  0
 29  1  1  0
 20 12  1  0
 14 18  1  0
  1 25  2  0
 24  2  2  0
 25  2  1  0
  2 32  1  0
  4 33  1  0
  6 34  1  0
  6 35  1  0
  7 36  1  0
  8 37  1  0
  9 38  1  0
 10 39  1  0
 12 40  1  0
 13 41  1  0
 14 42  1  0
 14 43  1  0
 15 44  1  0
 15 45  1  0
 16 46  1  0
 16 47  1  0
 18 48  1  0
 18 49  1  0
 20 50  1  0
 21 51  1  0
 22 52  1  0
 29 53  1  0
 30 54  1  0
A    1
C2
A    2
C3
A    3
N4
A    4
C5
A    5
N6
A    6
C7
A    7
C9
A    8
C10
A    9
C11
A   10
C12
A   11
C13
A   12
C15
A   13
C18
A   14
C20
A   15
C21
A   16
C22
A   17
O
A   18
C19
A   19
C16
A   20
C14
A   21
C17
A   22
N5
A   23
C
A   24
N1
A   25
N
A   26
C1
A   27
N2
A   28
C6
A   29
C4
A   30
N3
A   31
C8
M  END
