4PNK_KZQ_A_701
     RDKit          3D

 43 46  0  0  0  0  0  0  0  0999 V2000
  -25.0300   26.5130   16.3530 C   0  0  0  0  0  0  0  0  0  0  0  0
  -25.6020   25.3850   16.8590 N   0  0  0  0  0  0  0  0  0  0  0  0
  -24.8080   24.8380   17.7320 N   0  0  0  0  0  0  0  0  0  0  0  0
  -23.6920   25.5540   17.8560 C   0  0  0  0  0  0  0  0  0  0  0  0
  -23.7710   26.6390   17.0150 C   0  0  0  0  0  0  0  0  0  0  0  0
  -22.6120   25.3810   18.6370 C   0  0  0  0  0  0  0  0  0  0  0  0
  -21.6170   26.3200   18.5510 C   0  0  0  0  0  0  0  0  0  0  0  0
  -21.6460   27.4240   17.7110 C   0  0  0  0  0  0  0  0  0  0  0  0
  -22.7740   27.6100   16.9220 C   0  0  0  0  0  0  0  0  0  0  0  0
  -20.5930   28.3050   17.7380 N   0  0  0  0  0  0  0  0  0  0  0  0
  -19.4660   28.2410   18.5380 C   0  0  0  0  0  0  0  0  0  0  0  0
  -19.1350   27.4000   19.3810 O   0  0  0  0  0  0  0  0  0  0  0  0
  -18.5080   29.3770   18.4150 C   0  0  0  0  0  0  0  0  0  0  0  0
  -18.1860   30.1070   19.5490 C   0  0  0  0  0  0  0  0  0  0  0  0
  -17.3420   31.1490   19.4730 N   0  0  0  0  0  0  0  0  0  0  0  0
  -16.7820   31.4940   18.3060 C   0  0  0  0  0  0  0  0  0  0  0  0
  -17.0240   30.8330   17.1650 N   0  0  0  0  0  0  0  0  0  0  0  0
  -17.8990   29.6760   17.1070 C   0  0  0  0  0  0  0  0  0  0  0  0
  -18.7900   29.7420   20.8840 C   0  0  0  0  0  0  0  0  0  0  0  0
  -15.9940   32.4680   18.2660 O   0  0  0  0  0  0  0  0  0  0  0  0
  -17.1360   28.4250   16.8590 C   0  0  0  0  0  0  0  0  0  0  0  0
  -17.2500   27.7960   15.6150 C   0  0  0  0  0  0  0  0  0  0  0  0
  -16.5820   26.6050   15.3720 C   0  0  0  0  0  0  0  0  0  0  0  0
  -15.8240   26.0400   16.3770 C   0  0  0  0  0  0  0  0  0  0  0  0
  -15.7040   26.6320   17.6250 C   0  0  0  0  0  0  0  0  0  0  0  0
  -16.3540   27.8350   17.8720 C   0  0  0  0  0  0  0  0  0  0  0  0
  -15.1790   24.9160   16.1110 F   0  0  0  0  0  0  0  0  0  0  0  0
  -25.4507   27.1870   15.5922 H   0  0  0  0  0  0  0  0  0  0  0  0
  -26.5266   25.0193   16.5900 H   0  0  0  0  0  0  0  0  0  0  0  0
  -22.5298   24.5208   19.3176 H   0  0  0  0  0  0  0  0  0  0  0  0
  -20.7335   26.1891   19.1931 H   0  0  0  0  0  0  0  0  0  0  0  0
  -22.8760   28.4801   16.2567 H   0  0  0  0  0  0  0  0  0  0  0  0
  -20.6484   29.1034   17.0896 H   0  0  0  0  0  0  0  0  0  0  0  0
  -17.1227   31.6892   20.3221 H   0  0  0  0  0  0  0  0  0  0  0  0
  -16.5727   31.1579   16.2980 H   0  0  0  0  0  0  0  0  0  0  0  0
  -18.6250   29.9319   16.3212 H   0  0  0  0  0  0  0  0  0  0  0  0
  -18.1519   30.1276   21.6928 H   0  0  0  0  0  0  0  0  0  0  0  0
  -19.7935   30.1850   20.9658 H   0  0  0  0  0  0  0  0  0  0  0  0
  -18.8645   28.6476   20.9658 H   0  0  0  0  0  0  0  0  0  0  0  0
  -17.8711   28.2471   14.8272 H   0  0  0  0  0  0  0  0  0  0  0  0
  -16.6557   26.1164   14.3892 H   0  0  0  0  0  0  0  0  0  0  0  0
  -15.1007   26.1545   18.4111 H   0  0  0  0  0  0  0  0  0  0  0  0
  -16.2587   28.3240   18.8527 H   0  0  0  0  0  0  0  0  0  0  0  0
  1  2  1  0
  1  5  2  0
  2  3  1  0
  3  4  2  0
  5  4  1  0
  4  6  1  0
  9  5  1  0
  7  6  2  0
  8  7  1  0
  9  8  2  0
  8 10  1  0
 10 11  1  0
 13 11  1  0
 11 12  2  0
 18 13  1  0
 13 14  2  0
 15 14  1  0
 14 19  1  0
 16 15  1  0
 17 16  1  0
 20 16  2  0
 18 17  1  0
 21 18  1  0
 22 21  2  0
 21 26  1  0
 23 22  1  0
 23 24  2  0
 27 24  1  0
 24 25  1  0
 25 26  2  0
  1 28  1  0
  2 29  1  0
  6 30  1  0
  7 31  1  0
  9 32  1  0
 10 33  1  0
 15 34  1  0
 17 35  1  0
 18 36  1  0
 19 37  1  0
 19 38  1  0
 19 39  1  0
 22 40  1  0
 23 41  1  0
 25 42  1  0
 26 43  1  0
A    1
CAA
A    2
NAB
A    3
NAC
A    4
CAD
A    5
CAE
A    6
CAF
A    7
CAG
A    8
CAH
A    9
CAI
A   10
NAJ
A   11
CAK
A   12
OAL
A   13
CAM
A   14
CAN
A   15
NAO
A   16
CAP
A   17
NAQ
A   18
CAR
A   19
CAS
A   20
OAT
A   21
CAU
A   22
CAV
A   23
CAW
A   24
CAX
A   25
CAY
A   26
CAZ
A   27
FBA
M  END
