4PNU_2VD_A_405
     RDKit          3D

 55 58  0  0  0  0  0  0  0  0999 V2000
   10.9330   -5.1970   -8.9980 C   0  0  0  0  0  0  0  0  0  0  0  0
   11.4650   -6.5630   -8.6380 C   0  0  0  0  0  0  0  0  0  0  0  0
   11.9830   -7.2640   -9.8680 C   0  0  0  0  0  0  0  0  0  0  0  0
   12.7330   -8.5780   -9.4650 C   0  0  0  0  0  0  0  0  0  0  0  0
   13.9170   -8.4360   -9.0840 O   0  0  0  0  0  0  0  0  0  0  0  0
   12.1510   -9.6930   -9.5570 O   0  0  0  0  0  0  0  0  0  0  0  0
   10.8420   -7.5340  -10.8040 C   0  0  0  0  0  0  0  0  0  0  0  0
    9.9290   -6.4350  -10.8300 C   0  0  0  0  0  0  0  0  0  0  0  0
    9.9610   -5.3550  -10.0130 C   0  0  0  0  0  0  0  0  0  0  0  0
    8.9400   -4.5340  -10.3610 C   0  0  0  0  0  0  0  0  0  0  0  0
    8.5110   -3.3480   -9.8650 C   0  0  0  0  0  0  0  0  0  0  0  0
    7.4050   -2.6940  -10.4210 C   0  0  0  0  0  0  0  0  0  0  0  0
    6.7200   -1.0590   -9.7910 Br  0  0  0  0  0  0  0  0  0  0  0  0
    6.7500   -3.2930  -11.4890 C   0  0  0  0  0  0  0  0  0  0  0  0
    7.2150   -4.5120  -11.9630 C   0  0  0  0  0  0  0  0  0  0  0  0
    8.2900   -5.1010  -11.3980 C   0  0  0  0  0  0  0  0  0  0  0  0
    8.8980   -6.2540  -11.6690 N   0  0  0  0  0  0  0  0  0  0  0  0
    8.5020   -7.2000  -12.7510 C   0  0  0  0  0  0  0  0  0  0  0  0
    7.4970   -8.2870  -12.2930 C   0  0  0  0  0  0  0  0  0  0  0  0
    7.2780   -9.2400  -13.0310 O   0  0  0  0  0  0  0  0  0  0  0  0
    6.8650   -8.1570  -11.1090 N   0  0  0  0  0  0  0  0  0  0  0  0
    5.8950   -9.1850  -10.6640 C   0  0  0  0  0  0  0  0  0  0  0  0
    6.2760   -9.7770   -9.2940 C   0  0  0  0  0  0  0  0  0  0  0  0
    7.2400   -9.2760   -8.6760 O   0  0  0  0  0  0  0  0  0  0  0  0
    5.5710  -10.7230   -8.8870 O   0  0  0  0  0  0  0  0  0  0  0  0
    4.4930   -8.5660  -10.5780 C   0  0  0  0  0  0  0  0  0  0  0  0
    4.1850   -8.2070  -11.9050 C   0  0  0  0  0  0  0  0  0  0  0  0
    3.6900   -9.1780  -12.7810 C   0  0  0  0  0  0  0  0  0  0  0  0
    3.3920   -8.8510  -14.1030 C   0  0  0  0  0  0  0  0  0  0  0  0
    3.5820   -7.5480  -14.5600 C   0  0  0  0  0  0  0  0  0  0  0  0
    4.0780   -6.5780  -13.6950 C   0  0  0  0  0  0  0  0  0  0  0  0
    4.3780   -6.9000  -12.3640 C   0  0  0  0  0  0  0  0  0  0  0  0
   11.7536   -4.5623   -9.3637 H   0  0  0  0  0  0  0  0  0  0  0  0
   10.4855   -4.7184   -8.1144 H   0  0  0  0  0  0  0  0  0  0  0  0
   10.6565   -7.1614   -8.1928 H   0  0  0  0  0  0  0  0  0  0  0  0
   12.2889   -6.4477   -7.9184 H   0  0  0  0  0  0  0  0  0  0  0  0
   12.7079   -6.6214  -10.3891 H   0  0  0  0  0  0  0  0  0  0  0  0
   14.1261   -8.4109   -8.1167 H   0  0  0  0  0  0  0  0  0  0  0  0
   10.3090   -8.4365  -10.4703 H   0  0  0  0  0  0  0  0  0  0  0  0
   11.2464   -7.6773  -11.8169 H   0  0  0  0  0  0  0  0  0  0  0  0
    9.0390   -2.8930   -9.0140 H   0  0  0  0  0  0  0  0  0  0  0  0
    5.8770   -2.8094  -11.9517 H   0  0  0  0  0  0  0  0  0  0  0  0
    6.7038   -5.0014  -12.8051 H   0  0  0  0  0  0  0  0  0  0  0  0
    9.4082   -7.7001  -13.1236 H   0  0  0  0  0  0  0  0  0  0  0  0
    7.9998   -6.6059  -13.5287 H   0  0  0  0  0  0  0  0  0  0  0  0
    7.0572   -7.3402  -10.5117 H   0  0  0  0  0  0  0  0  0  0  0  0
    5.9080  -10.0004  -11.4022 H   0  0  0  0  0  0  0  0  0  0  0  0
    7.2456   -9.2731   -7.6860 H   0  0  0  0  0  0  0  0  0  0  0  0
    4.4984   -7.6797   -9.9265 H   0  0  0  0  0  0  0  0  0  0  0  0
    3.7545   -9.2598  -10.1498 H   0  0  0  0  0  0  0  0  0  0  0  0
    3.5347  -10.2070  -12.4245 H   0  0  0  0  0  0  0  0  0  0  0  0
    3.0065   -9.6221  -14.7862 H   0  0  0  0  0  0  0  0  0  0  0  0
    3.3406   -7.2876  -15.6011 H   0  0  0  0  0  0  0  0  0  0  0  0
    4.2358   -5.5516  -14.0578 H   0  0  0  0  0  0  0  0  0  0  0  0
    4.7639   -6.1273  -11.6828 H   0  0  0  0  0  0  0  0  0  0  0  0
 30 29  1  0
 30 31  2  0
 29 28  2  0
 31 32  1  0
 20 19  2  0
 28 27  1  0
 18 19  1  0
 18 17  1  0
 32 27  2  0
 19 21  1  0
 15 14  1  0
 15 16  2  0
 27 26  1  0
 17 16  1  0
 17  8  1  0
 14 12  2  0
 16 10  1  0
 21 22  1  0
  8  7  1  0
  8  9  2  0
  7  3  1  0
 22 26  1  0
 22 23  1  0
 12 11  1  0
 12 13  1  0
 10  9  1  0
 10 11  2  0
  9  1  1  0
  3  4  1  0
  3  2  1  0
  6  4  2  0
  4  5  1  0
 23 25  2  0
 23 24  1  0
  1  2  1  0
  1 33  1  0
  1 34  1  0
  2 35  1  0
  2 36  1  0
  3 37  1  0
  5 38  1  0
  7 39  1  0
  7 40  1  0
 11 41  1  0
 14 42  1  0
 15 43  1  0
 18 44  1  0
 18 45  1  0
 21 46  1  0
 22 47  1  0
 24 48  1  0
 26 49  1  0
 26 50  1  0
 28 51  1  0
 29 52  1  0
 30 53  1  0
 31 54  1  0
 32 55  1  0
A    1
CAM
A    2
CAL
A    3
CAK
A    4
CBD
A    5
OBF
A    6
OBE
A    7
CAJ
A    8
CAH
A    9
CAI
A   10
CAE
A   11
CAF
A   12
CAA
A   13
BR
A   14
CAB
A   15
CAC
A   16
CAD
A   17
NAG
A   18
CAO
A   19
CAP
A   20
OAQ
A   21
N
A   22
CA
A   23
C
A   24
OXT
A   25
O
A   26
CB
A   27
CG
A   28
CD1
A   29
CE1
A   30
CZ
A   31
CE2
A   32
CD2
M  END
