4PNW_2VM_A_401
     RDKit          3D

 36 38  0  0  0  0  0  0  0  0999 V2000
   11.4080   10.1140   -9.2870 C   0  0  0  0  0  0  0  0  0  0  0  0
   11.1580   11.3800   -8.5470 C   0  0  0  0  0  0  0  0  0  0  0  0
   10.6540   12.3780   -9.5540 C   0  0  0  0  0  0  0  0  0  0  0  0
   10.0900   13.6250   -8.8660 C   0  0  0  0  0  0  0  0  0  0  0  0
    8.8830   13.6010   -8.5460 O   0  0  0  0  0  0  0  0  0  0  0  0
   10.8750   14.5870   -8.7000 O   0  0  0  0  0  0  0  0  0  0  0  0
   11.7820   12.7920  -10.3650 C   0  0  0  0  0  0  0  0  0  0  0  0
   12.6630   11.7110  -10.5280 C   0  0  0  0  0  0  0  0  0  0  0  0
   12.5090   10.4570  -10.0570 C   0  0  0  0  0  0  0  0  0  0  0  0
   13.5650    9.7270  -10.4510 C   0  0  0  0  0  0  0  0  0  0  0  0
   13.9120    8.4440  -10.2540 C   0  0  0  0  0  0  0  0  0  0  0  0
   15.1030    7.9550  -10.7960 C   0  0  0  0  0  0  0  0  0  0  0  0
   15.7270    6.2030  -10.6160 Br  0  0  0  0  0  0  0  0  0  0  0  0
   15.8910    8.8150  -11.5340 C   0  0  0  0  0  0  0  0  0  0  0  0
   15.4920   10.1230  -11.7080 C   0  0  0  0  0  0  0  0  0  0  0  0
   14.3520   10.5340  -11.1680 C   0  0  0  0  0  0  0  0  0  0  0  0
   13.7990   11.7280  -11.2070 N   0  0  0  0  0  0  0  0  0  0  0  0
   14.3500   12.9090  -11.8800 C   0  0  0  0  0  0  0  0  0  0  0  0
   13.8890   12.9590  -13.3170 C   0  0  0  0  0  0  0  0  0  0  0  0
   14.4520   13.7030  -14.1090 O   0  0  0  0  0  0  0  0  0  0  0  0
   12.8620   12.1550  -13.6200 N   0  0  0  0  0  0  0  0  0  0  0  0
   11.6398    9.2863   -8.6005 H   0  0  0  0  0  0  0  0  0  0  0  0
   10.5461    9.7576   -9.8702 H   0  0  0  0  0  0  0  0  0  0  0  0
   10.4032   11.2182   -7.7633 H   0  0  0  0  0  0  0  0  0  0  0  0
   12.0754   11.7402   -8.0585 H   0  0  0  0  0  0  0  0  0  0  0  0
    9.8573   11.9112  -10.1518 H   0  0  0  0  0  0  0  0  0  0  0  0
   11.1134   14.8791   -7.7846 H   0  0  0  0  0  0  0  0  0  0  0  0
   11.4229   13.1242  -11.3503 H   0  0  0  0  0  0  0  0  0  0  0  0
   12.3068   13.6209   -9.8674 H   0  0  0  0  0  0  0  0  0  0  0  0
   13.2598    7.7803   -9.6673 H   0  0  0  0  0  0  0  0  0  0  0  0
   16.8312    8.4590  -11.9804 H   0  0  0  0  0  0  0  0  0  0  0  0
   16.1134   10.8199  -12.2895 H   0  0  0  0  0  0  0  0  0  0  0  0
   14.0092   13.8154  -11.3583 H   0  0  0  0  0  0  0  0  0  0  0  0
   15.4483   12.8514  -11.8594 H   0  0  0  0  0  0  0  0  0  0  0  0
   12.3081   11.7213  -12.8677 H   0  0  0  0  0  0  0  0  0  0  0  0
   12.6259   11.9702  -14.6054 H   0  0  0  0  0  0  0  0  0  0  0  0
  5  4  2  0
  2  1  1  0
  2  3  1  0
  1  9  1  0
  4  6  1  0
  4  3  1  0
  3  7  1  0
  9 10  1  0
  9  8  2  0
 11 10  2  0
 11 12  1  0
  7  8  1  0
 10 16  1  0
 13 12  1  0
  8 17  1  0
 12 14  2  0
 21 19  1  0
 16 17  1  0
 16 15  2  0
 17 18  1  0
 14 15  1  0
 19 20  2  0
 19 18  1  0
  1 22  1  0
  1 23  1  0
  2 24  1  0
  2 25  1  0
  3 26  1  0
  6 27  1  0
  7 28  1  0
  7 29  1  0
 11 30  1  0
 14 31  1  0
 15 32  1  0
 18 33  1  0
 18 34  1  0
 21 35  1  0
 21 36  1  0
A    1
CAM
A    2
CAL
A    3
CAK
A    4
CBD
A    5
OBF
A    6
OBE
A    7
CAJ
A    8
CAH
A    9
CAI
A   10
CAE
A   11
CAF
A   12
CAA
A   13
BR
A   14
CAB
A   15
CAC
A   16
CAD
A   17
NAG
A   18
CAO
A   19
CAP
A   20
OAQ
A   21
N
M  END
