4POP_2VY_A_201
     RDKit          3D

 30 31  0  0  0  0  0  0  0  0999 V2000
   14.6840   11.6360   41.8380 C   0  0  0  0  0  0  0  0  0  0  0  0
   15.0970    7.6280   44.4680 N   0  0  0  0  0  0  0  0  0  0  0  0
   18.3120    7.1970   48.3860 C   0  0  0  0  0  0  0  0  0  0  0  0
   20.8260    5.5380   48.2410 O   0  0  0  0  0  0  0  0  0  0  0  0
   20.5750    5.3110   46.8890 C   0  0  0  0  0  0  0  0  0  0  0  0
   18.4150    7.8930   44.6170 C   0  0  0  0  0  0  0  0  0  0  0  0
   19.6380    6.6950   44.6760 S   0  0  0  0  0  0  0  0  0  0  0  0
   19.6530    6.3540   46.3040 C   0  0  0  0  0  0  0  0  0  0  0  0
   18.6680    7.1890   46.8880 C   0  0  0  0  0  0  0  0  0  0  0  0
   17.9880    8.0530   45.9660 C   0  0  0  0  0  0  0  0  0  0  0  0
   16.8940    9.0080   46.4360 C   0  0  0  0  0  0  0  0  0  0  0  0
   15.4560    8.9840   44.3000 C   0  0  0  0  0  0  0  0  0  0  0  0
   14.9670    9.6500   43.2520 N   0  0  0  0  0  0  0  0  0  0  0  0
   15.2560   10.9350   43.0530 C   0  0  0  0  0  0  0  0  0  0  0  0
   16.0320   11.6140   43.8740 N   0  0  0  0  0  0  0  0  0  0  0  0
   16.5560   11.0550   44.9720 C   0  0  0  0  0  0  0  0  0  0  0  0
   16.2900    9.6820   45.2100 C   0  0  0  0  0  0  0  0  0  0  0  0
   14.0197   12.4501   42.1633 H   0  0  0  0  0  0  0  0  0  0  0  0
   15.5044   12.0513   41.2342 H   0  0  0  0  0  0  0  0  0  0  0  0
   14.1126   10.9156   41.2342 H   0  0  0  0  0  0  0  0  0  0  0  0
   14.9933    7.2362   45.4149 H   0  0  0  0  0  0  0  0  0  0  0  0
   14.9390    7.0311   43.6436 H   0  0  0  0  0  0  0  0  0  0  0  0
   19.2359    7.1762   48.9826 H   0  0  0  0  0  0  0  0  0  0  0  0
   17.7430    8.1082   48.6228 H   0  0  0  0  0  0  0  0  0  0  0  0
   17.7027    6.3123   48.6228 H   0  0  0  0  0  0  0  0  0  0  0  0
   20.9980    4.4723   46.3165 H   0  0  0  0  0  0  0  0  0  0  0  0
   18.0406    8.4238   43.7293 H   0  0  0  0  0  0  0  0  0  0  0  0
   17.3252    9.7681   47.1040 H   0  0  0  0  0  0  0  0  0  0  0  0
   16.1182    8.4552   46.9861 H   0  0  0  0  0  0  0  0  0  0  0  0
   17.1735   11.6420   45.6678 H   0  0  0  0  0  0  0  0  0  0  0  0
  1 14  1  0
 14 13  1  0
 14 15  2  0
 13 12  2  0
 15 16  1  0
 12  2  1  0
 12 17  1  0
  6  7  1  0
  6 10  2  0
  7  8  1  0
 16 17  2  0
 17 11  1  0
 10 11  1  0
 10  9  1  0
  8  9  2  0
  8  5  1  0
  9  3  1  0
  5  4  2  0
  1 18  1  0
  1 19  1  0
  1 20  1  0
  2 21  1  0
  2 22  1  0
  3 23  1  0
  3 24  1  0
  3 25  1  0
  5 26  1  0
  6 27  1  0
 11 28  1  0
 11 29  1  0
 16 30  1  0
A    1
CM2
A    2
N4A
A    3
CM4
A    4
O1
A    5
C6
A    6
C2
A    7
S1
A    8
C5
A    9
C4
A   10
C3
A   11
C7A
A   12
C4A
A   13
N3A
A   14
C2A
A   15
N1A
A   16
C6A
A   17
C5A
M  END
