4POX_2W2_A_301
     RDKit          3D

 41 40  0  0  0  0  0  0  0  0999 V2000
   16.4780   -8.0390   -1.8300 O   0  0  0  0  0  0  0  0  0  0  0  0
   18.8520   -8.1920    2.1600 C   0  0  0  0  0  0  0  0  0  0  0  0
   20.2230   -7.7250    1.7570 C   0  0  0  0  0  0  0  0  0  0  0  0
   20.6970   -7.8500    0.3400 C   0  0  0  0  0  0  0  0  0  0  0  0
   20.2080   -6.8420   -0.6800 C   0  0  0  0  0  0  0  0  0  0  0  0
   17.8570   -8.1020    1.3890 O   0  0  0  0  0  0  0  0  0  0  0  0
   18.6870   -8.6660    3.3170 O   0  0  0  0  0  0  0  0  0  0  0  0
   20.4380   -5.4360   -0.2290 C   0  0  0  0  0  0  0  0  0  0  0  0
   19.4970   -4.7840    0.2990 O   0  0  0  0  0  0  0  0  0  0  0  0
   21.5780   -4.8930   -0.3750 O   0  0  0  0  0  0  0  0  0  0  0  0
   18.8220   -7.1390   -1.0510 N   0  0  0  0  0  0  0  0  0  0  0  0
   18.0560   -6.2410   -1.9570 C   0  0  0  0  0  0  0  0  0  0  0  0
   16.6860   -6.8650   -2.2220 C   0  0  0  0  0  0  0  0  0  0  0  0
   15.7980   -6.2110   -2.8260 O   0  0  0  0  0  0  0  0  0  0  0  0
   18.7280   -5.8470   -3.2660 C   0  0  0  0  0  0  0  0  0  0  0  0
   19.4300   -6.9430   -4.0080 C   0  0  0  0  0  0  0  0  0  0  0  0
   19.3870   -6.9730   -5.4960 C   0  0  0  0  0  0  0  0  0  0  0  0
   20.1390   -8.0860   -6.0430 N   0  0  0  0  0  0  0  0  0  0  0  0
   20.9480   -7.9680   -7.2400 C   0  0  0  0  0  0  0  0  0  0  0  0
   21.6010   -9.0230   -7.6460 N   0  0  0  0  0  0  0  0  0  0  0  0
   21.0330   -6.8670   -7.9160 N   0  0  0  0  0  0  0  0  0  0  0  0
   16.4427   -8.2383   -0.8609 H   0  0  0  0  0  0  0  0  0  0  0  0
   20.9387   -8.2854    2.3765 H   0  0  0  0  0  0  0  0  0  0  0  0
   20.1569   -6.6356    1.8942 H   0  0  0  0  0  0  0  0  0  0  0  0
   20.3938   -8.8454   -0.0167 H   0  0  0  0  0  0  0  0  0  0  0  0
   21.7796   -7.6650    0.4021 H   0  0  0  0  0  0  0  0  0  0  0  0
   20.8054   -6.9348   -1.5989 H   0  0  0  0  0  0  0  0  0  0  0  0
   18.8808   -8.1092    4.1123 H   0  0  0  0  0  0  0  0  0  0  0  0
   19.4227   -4.7325    1.2849 H   0  0  0  0  0  0  0  0  0  0  0  0
   18.2889   -7.1893   -0.1711 H   0  0  0  0  0  0  0  0  0  0  0  0
   17.9802   -5.2847   -1.4188 H   0  0  0  0  0  0  0  0  0  0  0  0
   19.4697   -5.0666   -3.0403 H   0  0  0  0  0  0  0  0  0  0  0  0
   17.9122   -5.5206   -3.9278 H   0  0  0  0  0  0  0  0  0  0  0  0
   18.9988   -7.8923   -3.6574 H   0  0  0  0  0  0  0  0  0  0  0  0
   20.4922   -6.7620   -3.7866 H   0  0  0  0  0  0  0  0  0  0  0  0
   19.8119   -6.0346   -5.8818 H   0  0  0  0  0  0  0  0  0  0  0  0
   18.3370   -7.0920   -5.8014 H   0  0  0  0  0  0  0  0  0  0  0  0
   20.0965   -8.9959   -5.5621 H   0  0  0  0  0  0  0  0  0  0  0  0
   22.0046   -9.6751   -6.9584 H   0  0  0  0  0  0  0  0  0  0  0  0
   21.7126   -9.2033   -8.6539 H   0  0  0  0  0  0  0  0  0  0  0  0
   20.5212   -6.0297   -7.6031 H   0  0  0  0  0  0  0  0  0  0  0  0
 21 19  2  3
 20 19  1  0
 19 18  1  0
 18 17  1  0
 17 16  1  0
 16 15  1  0
 15 12  1  0
 14 13  2  0
 13 12  1  0
 13  1  1  0
 12 11  1  0
 11  5  1  0
  5  8  1  0
  5  4  1  0
 10  8  2  0
  8  9  1  0
  4  3  1  0
  6  2  2  0
  3  2  1  0
  2  7  1  0
  1 22  1  0
  3 23  1  0
  3 24  1  0
  4 25  1  0
  4 26  1  0
  5 27  1  0
  7 28  1  0
  9 29  1  0
 11 30  1  0
 12 31  1  0
 15 32  1  0
 15 33  1  0
 16 34  1  0
 16 35  1  0
 17 36  1  0
 17 37  1  0
 18 38  1  0
 20 39  1  0
 20 40  1  0
 21 41  1  0
A    1
OXT
A    2
CAQ
A    3
CAK
A    4
CAM
A    5
CAU
A    6
OAC
A    7
OAF
A    8
CAS
A    9
OAH
A   10
OAE
A   11
N
A   12
CA
A   13
C
A   14
O
A   15
CB
A   16
CG
A   17
CD
A   18
NE
A   19
CZ
A   20
NH2
A   21
NH1
M  END
