4PP7_2VX_A_801
     RDKit          3D

 49 51  0  0  0  0  0  0  0  0999 V2000
   13.5180  -26.0540   -2.4870 N   0  0  0  0  0  0  0  0  0  0  0  0
   13.0190  -27.3170   -2.6230 C   0  0  0  0  0  0  0  0  0  0  0  0
   12.6660  -27.7970   -3.9040 C   0  0  0  0  0  0  0  0  0  0  0  0
   12.1410  -29.0970   -4.0660 C   0  0  0  0  0  0  0  0  0  0  0  0
   11.9580  -29.9470   -2.9550 C   0  0  0  0  0  0  0  0  0  0  0  0
   12.3080  -29.4790   -1.6700 C   0  0  0  0  0  0  0  0  0  0  0  0
   12.8290  -28.1720   -1.5080 C   0  0  0  0  0  0  0  0  0  0  0  0
   13.1550  -27.7420   -0.2680 F   0  0  0  0  0  0  0  0  0  0  0  0
   12.8320  -27.0080   -4.9920 F   0  0  0  0  0  0  0  0  0  0  0  0
   11.8330  -29.4860   -5.3060 N   0  0  0  0  0  0  0  0  0  0  0  0
   11.1200  -30.9330   -5.9050 S   0  0  0  0  0  0  0  0  0  0  0  0
   12.4670  -31.6730   -6.9260 C   0  0  0  0  0  0  0  0  0  0  0  0
   14.6470  -32.5910   -5.9730 C   0  0  0  0  0  0  0  0  0  0  0  0
   13.1660  -32.8580   -6.2460 C   0  0  0  0  0  0  0  0  0  0  0  0
   14.7310  -25.7250   -1.9560 C   0  0  0  0  0  0  0  0  0  0  0  0
   15.7380  -26.7110   -1.8070 C   0  0  0  0  0  0  0  0  0  0  0  0
   16.9980  -26.3820   -1.2550 C   0  0  0  0  0  0  0  0  0  0  0  0
   17.2670  -25.0560   -0.8440 C   0  0  0  0  0  0  0  0  0  0  0  0
   16.2700  -24.0620   -0.9890 C   0  0  0  0  0  0  0  0  0  0  0  0
   15.0110  -24.3980   -1.5420 C   0  0  0  0  0  0  0  0  0  0  0  0
   18.5220  -24.7250   -0.2930 N   0  0  0  0  0  0  0  0  0  0  0  0
   18.7600  -23.4990    0.0810 C   0  0  0  0  0  0  0  0  0  0  0  0
   17.8510  -22.4570   -0.0180 N   0  0  0  0  0  0  0  0  0  0  0  0
   16.5790  -22.6520   -0.5450 C   0  0  0  0  0  0  0  0  0  0  0  0
   18.2590  -21.1240    0.4460 C   0  0  0  0  0  0  0  0  0  0  0  0
   15.7390  -21.7590   -0.6570 O   0  0  0  0  0  0  0  0  0  0  0  0
   10.7910  -31.7940   -4.7600 O   0  0  0  0  0  0  0  0  0  0  0  0
   10.0630  -30.4540   -6.8010 O   0  0  0  0  0  0  0  0  0  0  0  0
   12.5430  -24.9720   -2.6660 C   0  0  0  0  0  0  0  0  0  0  0  0
   11.5487  -30.9593   -3.0881 H   0  0  0  0  0  0  0  0  0  0  0  0
   12.1759  -30.1302   -0.7934 H   0  0  0  0  0  0  0  0  0  0  0  0
   12.0638  -28.7957   -6.0348 H   0  0  0  0  0  0  0  0  0  0  0  0
   13.2178  -30.8952   -7.1294 H   0  0  0  0  0  0  0  0  0  0  0  0
   12.0036  -32.0546   -7.8478 H   0  0  0  0  0  0  0  0  0  0  0  0
   14.8199  -32.5598   -4.8871 H   0  0  0  0  0  0  0  0  0  0  0  0
   15.2525  -33.3945   -6.4178 H   0  0  0  0  0  0  0  0  0  0  0  0
   14.9338  -31.6267   -6.4178 H   0  0  0  0  0  0  0  0  0  0  0  0
   12.6628  -33.0618   -5.2893 H   0  0  0  0  0  0  0  0  0  0  0  0
   13.1034  -33.7178   -6.9293 H   0  0  0  0  0  0  0  0  0  0  0  0
   15.5372  -27.7449   -2.1245 H   0  0  0  0  0  0  0  0  0  0  0  0
   17.7694  -27.1584   -1.1453 H   0  0  0  0  0  0  0  0  0  0  0  0
   14.2407  -23.6205   -1.6519 H   0  0  0  0  0  0  0  0  0  0  0  0
   19.7505  -23.2759    0.5043 H   0  0  0  0  0  0  0  0  0  0  0  0
   18.2650  -21.1045    1.5458 H   0  0  0  0  0  0  0  0  0  0  0  0
   19.2676  -20.8976    0.0698 H   0  0  0  0  0  0  0  0  0  0  0  0
   17.5499  -20.3719    0.0698 H   0  0  0  0  0  0  0  0  0  0  0  0
   12.2147  -24.6077   -1.6814 H   0  0  0  0  0  0  0  0  0  0  0  0
   13.0089  -24.1474   -3.2254 H   0  0  0  0  0  0  0  0  0  0  0  0
   11.6745  -25.3499   -3.2254 H   0  0  0  0  0  0  0  0  0  0  0  0
 12 14  1  0
 12 11  1  0
 28 11  2  0
 14 13  1  0
 11 10  1  0
 11 27  2  0
 10  4  1  0
  9  3  1  0
  4  3  2  0
  4  5  1  0
  3  2  1  0
  5  6  2  0
 29  1  1  0
  2  1  1  0
  2  7  2  0
  1 15  1  0
 15 16  2  0
 15 20  1  0
 16 17  1  0
  6  7  1  0
 20 19  2  0
  7  8  1  0
 17 18  2  0
 19 18  1  0
 19 24  1  0
 18 21  1  0
 26 24  2  0
 24 23  1  0
 21 22  2  0
 23 22  1  0
 23 25  1  0
  5 30  1  0
  6 31  1  0
 10 32  1  0
 12 33  1  0
 12 34  1  0
 13 35  1  0
 13 36  1  0
 13 37  1  0
 14 38  1  0
 14 39  1  0
 16 40  1  0
 17 41  1  0
 20 42  1  0
 22 43  1  0
 25 44  1  0
 25 45  1  0
 25 46  1  0
 29 47  1  0
 29 48  1  0
 29 49  1  0
A    1
N1
A    2
C2
A    3
C3
A    4
C4
A    5
C5
A    6
C6
A    7
C7
A    8
F8
A    9
F9
A   10
N10
A   11
S11
A   12
C12
A   13
C13
A   14
C14
A   15
C15
A   16
C16
A   17
C17
A   18
C18
A   19
C19
A   20
C20
A   21
N21
A   22
C22
A   23
N23
A   24
C24
A   25
C25
A   26
O26
A   27
O27
A   28
O28
A   29
C29
M  END
