4PPB_2VV_A_701
     RDKit          3D

 60 64  0  0  0  0  0  0  0  0999 V2000
   -7.8430  -24.0640   59.9670 C   0  0  0  0  0  0  0  0  0  0  0  0
   -8.3840  -23.5740   58.6880 N   0  0  0  0  0  0  0  0  0  0  0  0
   -7.6970  -22.3510   58.2450 C   0  0  0  0  0  0  0  0  0  0  0  0
   -8.3610  -24.5910   57.6270 C   0  0  0  0  0  0  0  0  0  0  0  0
   -9.7440  -25.2390   57.5290 C   0  0  0  0  0  0  0  0  0  0  0  0
  -10.3320  -25.2240   56.1060 C   0  0  0  0  0  0  0  0  0  0  0  0
  -10.2860  -26.6040   55.4650 C   0  0  0  0  0  0  0  0  0  0  0  0
   -9.8300  -26.7310   54.1540 C   0  0  0  0  0  0  0  0  0  0  0  0
   -9.8340  -27.9770   53.5220 C   0  0  0  0  0  0  0  0  0  0  0  0
  -10.3020  -29.1030   54.1930 C   0  0  0  0  0  0  0  0  0  0  0  0
  -10.7790  -28.9840   55.4970 C   0  0  0  0  0  0  0  0  0  0  0  0
  -10.7860  -27.7400   56.1200 C   0  0  0  0  0  0  0  0  0  0  0  0
  -11.7580  -24.8920   56.2200 N   0  0  0  0  0  0  0  0  0  0  0  0
  -12.5870  -24.4800   55.2280 C   0  0  0  0  0  0  0  0  0  0  0  0
  -13.8280  -24.3470   55.7660 C   0  0  0  0  0  0  0  0  0  0  0  0
  -13.7570  -24.7680   57.1010 C   0  0  0  0  0  0  0  0  0  0  0  0
  -12.5340  -25.0990   57.3680 N   0  0  0  0  0  0  0  0  0  0  0  0
  -14.9970  -23.9050   55.0960 N   0  0  0  0  0  0  0  0  0  0  0  0
  -16.2050  -23.7990   55.7110 C   0  0  0  0  0  0  0  0  0  0  0  0
  -16.3440  -24.1070   56.8910 O   0  0  0  0  0  0  0  0  0  0  0  0
  -17.3960  -23.3820   54.9440 C   0  0  0  0  0  0  0  0  0  0  0  0
  -18.7460  -23.1740   55.4950 C   0  0  0  0  0  0  0  0  0  0  0  0
  -19.3090  -23.2160   56.7760 C   0  0  0  0  0  0  0  0  0  0  0  0
  -20.6390  -22.9680   56.9500 C   0  0  0  0  0  0  0  0  0  0  0  0
  -21.4550  -22.6660   55.8440 C   0  0  0  0  0  0  0  0  0  0  0  0
  -20.8980  -22.5710   54.5570 C   0  0  0  0  0  0  0  0  0  0  0  0
  -19.5370  -22.8420   54.3700 C   0  0  0  0  0  0  0  0  0  0  0  0
  -18.6860  -22.8700   53.2900 N   0  0  0  0  0  0  0  0  0  0  0  0
  -17.4860  -23.1840   53.6430 N   0  0  0  0  0  0  0  0  0  0  0  0
  -22.8870  -22.3210   56.0770 C   0  0  0  0  0  0  0  0  0  0  0  0
  -23.6650  -22.7180   57.1240 C   0  0  0  0  0  0  0  0  0  0  0  0
  -24.8700  -22.1360   56.9790 N   0  0  0  0  0  0  0  0  0  0  0  0
  -24.8580  -21.3570   55.8220 N   0  0  0  0  0  0  0  0  0  0  0  0
  -23.6740  -21.4570   55.2830 C   0  0  0  0  0  0  0  0  0  0  0  0
   -8.3759  -23.5813   60.7995 H   0  0  0  0  0  0  0  0  0  0  0  0
   -7.9774  -25.1540   60.0284 H   0  0  0  0  0  0  0  0  0  0  0  0
   -6.7716  -23.8227   60.0284 H   0  0  0  0  0  0  0  0  0  0  0  0
   -7.3728  -21.7739   59.1235 H   0  0  0  0  0  0  0  0  0  0  0  0
   -6.8192  -22.6222   57.6401 H   0  0  0  0  0  0  0  0  0  0  0  0
   -8.3853  -21.7424   57.6401 H   0  0  0  0  0  0  0  0  0  0  0  0
   -7.6103  -25.3582   57.8675 H   0  0  0  0  0  0  0  0  0  0  0  0
   -8.1015  -24.1211   56.6669 H   0  0  0  0  0  0  0  0  0  0  0  0
  -10.4306  -24.6957   58.1948 H   0  0  0  0  0  0  0  0  0  0  0  0
   -9.6275  -26.2937   57.8189 H   0  0  0  0  0  0  0  0  0  0  0  0
   -9.7526  -24.5085   55.5040 H   0  0  0  0  0  0  0  0  0  0  0  0
   -9.4649  -25.8451   53.6138 H   0  0  0  0  0  0  0  0  0  0  0  0
   -9.4657  -28.0685   52.4896 H   0  0  0  0  0  0  0  0  0  0  0  0
  -10.2954  -30.0840   53.6955 H   0  0  0  0  0  0  0  0  0  0  0  0
  -11.1489  -29.8710   56.0322 H   0  0  0  0  0  0  0  0  0  0  0  0
  -11.1887  -27.6456   57.1393 H   0  0  0  0  0  0  0  0  0  0  0  0
  -12.3065  -24.2889   54.1817 H   0  0  0  0  0  0  0  0  0  0  0  0
  -14.6008  -24.8102   57.8055 H   0  0  0  0  0  0  0  0  0  0  0  0
  -14.9280  -23.6532   54.0996 H   0  0  0  0  0  0  0  0  0  0  0  0
  -18.6767  -23.4498   57.6452 H   0  0  0  0  0  0  0  0  0  0  0  0
  -21.0755  -23.0042   57.9590 H   0  0  0  0  0  0  0  0  0  0  0  0
  -21.5277  -22.2854   53.7015 H   0  0  0  0  0  0  0  0  0  0  0  0
  -18.9711  -22.6660   52.3215 H   0  0  0  0  0  0  0  0  0  0  0  0
  -23.3627  -23.3917   57.9393 H   0  0  0  0  0  0  0  0  0  0  0  0
  -25.6701  -22.2476   57.6179 H   0  0  0  0  0  0  0  0  0  0  0  0
  -23.3434  -20.9524   54.3632 H   0  0  0  0  0  0  0  0  0  0  0  0
 28 29  1  0
 28 27  1  0
  9  8  2  0
  9 10  1  0
 29 21  2  0
  8  7  1  0
 10 11  2  0
 27 26  2  0
 27 22  1  0
 26 25  1  0
 21 22  1  0
 21 19  1  0
 18 19  1  0
 18 15  1  0
 14 15  2  0
 14 13  1  0
 34 33  2  0
 34 30  1  0
  7  6  1  0
  7 12  2  0
 22 23  2  0
 11 12  1  0
 19 20  2  0
 15 16  1  0
 33 32  1  0
 25 30  1  0
 25 24  2  0
 30 31  2  0
  6 13  1  0
  6  5  1  0
 13 17  1  0
 23 24  1  0
 32 31  1  0
 16 17  2  0
  5  4  1  0
  4  2  1  0
  3  2  1  0
  2  1  1  0
  1 35  1  0
  1 36  1  0
  1 37  1  0
  3 38  1  0
  3 39  1  0
  3 40  1  0
  4 41  1  0
  4 42  1  0
  5 43  1  0
  5 44  1  0
  6 45  1  0
  8 46  1  0
  9 47  1  0
 10 48  1  0
 11 49  1  0
 12 50  1  0
 14 51  1  0
 16 52  1  0
 18 53  1  0
 23 54  1  0
 24 55  1  0
 26 56  1  0
 28 57  1  0
 31 58  1  0
 32 59  1  0
 34 60  1  0
A    1
C1
A    2
N2
A    3
C3
A    4
C4
A    5
C5
A    6
C6
A    7
C8
A    8
C9
A    9
C10
A   10
C11
A   11
C12
A   12
C13
A   13
N14
A   14
C15
A   15
C16
A   16
C17
A   17
N18
A   18
N19
A   19
C20
A   20
O21
A   21
C22
A   22
C23
A   23
C24
A   24
C25
A   25
C26
A   26
C27
A   27
C28
A   28
N29
A   29
N31
A   30
C32
A   31
C33
A   32
N34
A   33
N36
A   34
C37
M  END
