4PR4_2W8_A_402
     RDKit          3D

 33 34  0  0  0  0  0  0  0  0999 V2000
   65.9650   -6.2830   37.6480 C   0  0  0  0  0  0  0  0  0  0  0  0
   67.3570   -6.2040   37.7510 C   0  0  0  0  0  0  0  0  0  0  0  0
   68.0110   -6.7290   38.8690 C   0  0  0  0  0  0  0  0  0  0  0  0
   67.2700   -7.3250   39.8910 C   0  0  0  0  0  0  0  0  0  0  0  0
   65.8750   -7.4010   39.8030 C   0  0  0  0  0  0  0  0  0  0  0  0
   65.2280   -6.8700   38.6810 C   0  0  0  0  0  0  0  0  0  0  0  0
   65.0570   -8.0540   40.9260 C   0  0  0  0  0  0  0  0  0  0  0  0
   64.9540   -7.0810   42.1250 C   0  0  0  0  0  0  0  0  0  0  0  0
   63.8090   -6.1120   41.9680 C   0  0  0  0  0  0  0  0  0  0  0  0
   63.3860   -5.5060   42.9430 O   0  0  0  0  0  0  0  0  0  0  0  0
   63.2960   -5.9520   40.7440 O   0  0  0  0  0  0  0  0  0  0  0  0
   65.2650   -5.7140   36.4670 C   0  0  0  0  0  0  0  0  0  0  0  0
   63.9170   -6.0050   36.2280 C   0  0  0  0  0  0  0  0  0  0  0  0
   63.2670   -5.4470   35.1260 C   0  0  0  0  0  0  0  0  0  0  0  0
   63.9610   -4.6030   34.2560 C   0  0  0  0  0  0  0  0  0  0  0  0
   65.3140   -4.3070   34.4820 C   0  0  0  0  0  0  0  0  0  0  0  0
   66.0050   -3.4770   33.6510 N   0  0  0  0  0  0  0  0  0  0  0  0
   67.2180   -3.4530   33.7620 O   0  0  0  0  0  0  0  0  0  0  0  0
   65.3850   -2.8000   32.8530 O   0  0  0  0  0  0  0  0  0  0  0  0
   65.9510   -4.8670   35.5970 C   0  0  0  0  0  0  0  0  0  0  0  0
   67.9396   -5.7269   36.9492 H   0  0  0  0  0  0  0  0  0  0  0  0
   69.1070   -6.6727   38.9435 H   0  0  0  0  0  0  0  0  0  0  0  0
   67.7855   -7.7374   40.7709 H   0  0  0  0  0  0  0  0  0  0  0  0
   64.1311   -6.9149   38.6115 H   0  0  0  0  0  0  0  0  0  0  0  0
   64.0478   -8.2873   40.5559 H   0  0  0  0  0  0  0  0  0  0  0  0
   65.5537   -8.9809   41.2488 H   0  0  0  0  0  0  0  0  0  0  0  0
   64.8017   -7.6651   43.0446 H   0  0  0  0  0  0  0  0  0  0  0  0
   65.8870   -6.5003   42.1731 H   0  0  0  0  0  0  0  0  0  0  0  0
   63.6059   -5.8211   43.8554 H   0  0  0  0  0  0  0  0  0  0  0  0
   63.3697   -6.6736   36.9088 H   0  0  0  0  0  0  0  0  0  0  0  0
   62.2061   -5.6724   34.9423 H   0  0  0  0  0  0  0  0  0  0  0  0
   63.4438   -4.1676   33.3883 H   0  0  0  0  0  0  0  0  0  0  0  0
   67.0089   -4.6350   35.7893 H   0  0  0  0  0  0  0  0  0  0  0  0
 19 17  1  0
 17 18  2  0
 17 16  1  0
 15 16  2  0
 15 14  1  0
 16 20  1  0
 14 13  2  0
 20 12  2  0
 13 12  1  0
 12  1  1  0
  1  2  2  0
  1  6  1  0
  2  3  1  0
  6  5  2  0
  3  4  2  0
  5  4  1  0
  5  7  1  0
 11  9  2  0
  7  8  1  0
  9  8  1  0
  9 10  1  0
  2 21  1  0
  3 22  1  0
  4 23  1  0
  6 24  1  0
  7 25  1  0
  7 26  1  0
  8 27  1  0
  8 28  1  0
 10 29  1  0
 13 30  1  0
 14 31  1  0
 15 32  1  0
 20 33  1  0
M  CHG  2  17   1  19  -1
A    1
C1
A    2
C2
A    3
C3
A    4
C5
A    5
C6
A    6
C7
A    7
C9
A    8
C10
A    9
C11
A   10
O12
A   11
O14
A   12
C19
A   13
C20
A   14
C22
A   15
C24
A   16
C26
A   17
N27
A   18
O28
A   19
O29
A   20
C30
M  END
