4PRT_2WB_A_402
     RDKit          3D

 37 39  0  0  0  0  0  0  0  0999 V2000
   64.3110   -7.1810   37.8070 O   0  0  0  0  0  0  0  0  0  0  0  0
   64.9440   -7.6170   38.8900 C   0  0  0  0  0  0  0  0  0  0  0  0
   64.2380   -8.6400   39.7360 C   0  0  0  0  0  0  0  0  0  0  0  0
   64.0660   -8.5140   41.1220 C   0  0  0  0  0  0  0  0  0  0  0  0
   63.3980   -9.5350   41.7930 C   0  0  0  0  0  0  0  0  0  0  0  0
   62.9150  -10.6590   41.1230 C   0  0  0  0  0  0  0  0  0  0  0  0
   63.0880  -10.7770   39.7480 C   0  0  0  0  0  0  0  0  0  0  0  0
   63.7440   -9.7590   39.0670 C   0  0  0  0  0  0  0  0  0  0  0  0
   64.5210   -7.2720   41.9020 C   0  0  0  0  0  0  0  0  0  0  0  0
   63.5120   -6.1530   41.6850 C   0  0  0  0  0  0  0  0  0  0  0  0
   63.0720   -5.5310   42.7710 O   0  0  0  0  0  0  0  0  0  0  0  0
   63.1330   -5.8510   40.5570 O   0  0  0  0  0  0  0  0  0  0  0  0
   66.1670   -7.1090   39.0310 C   0  0  0  0  0  0  0  0  0  0  0  0
   66.3170   -6.2040   37.8890 C   0  0  0  0  0  0  0  0  0  0  0  0
   65.1600   -6.3360   37.2280 C   0  0  0  0  0  0  0  0  0  0  0  0
   64.6650   -5.6170   35.9990 C   0  0  0  0  0  0  0  0  0  0  0  0
   65.5250   -4.8000   35.2770 C   0  0  0  0  0  0  0  0  0  0  0  0
   65.0660   -4.0840   34.1660 C   0  0  0  0  0  0  0  0  0  0  0  0
   65.9240   -3.2750   33.4680 N   0  0  0  0  0  0  0  0  0  0  0  0
   65.4630   -2.4760   32.6630 O   0  0  0  0  0  0  0  0  0  0  0  0
   67.1230   -3.3640   33.6840 O   0  0  0  0  0  0  0  0  0  0  0  0
   63.7210   -4.1800   33.7800 C   0  0  0  0  0  0  0  0  0  0  0  0
   62.8500   -4.9910   34.4980 C   0  0  0  0  0  0  0  0  0  0  0  0
   63.3270   -5.7020   35.6040 C   0  0  0  0  0  0  0  0  0  0  0  0
   63.2473   -9.4530   42.8795 H   0  0  0  0  0  0  0  0  0  0  0  0
   62.3972  -11.4522   41.6822 H   0  0  0  0  0  0  0  0  0  0  0  0
   62.7125  -11.6598   39.2098 H   0  0  0  0  0  0  0  0  0  0  0  0
   63.8763   -9.8375   37.9778 H   0  0  0  0  0  0  0  0  0  0  0  0
   64.5813   -7.5114   42.9739 H   0  0  0  0  0  0  0  0  0  0  0  0
   65.5120   -6.9527   41.5470 H   0  0  0  0  0  0  0  0  0  0  0  0
   63.3132   -5.8719   43.6686 H   0  0  0  0  0  0  0  0  0  0  0  0
   66.8984   -7.3209   39.8248 H   0  0  0  0  0  0  0  0  0  0  0  0
   67.1767   -5.5667   37.6346 H   0  0  0  0  0  0  0  0  0  0  0  0
   66.5785   -4.7148   35.5818 H   0  0  0  0  0  0  0  0  0  0  0  0
   63.3560   -3.6142   32.9102 H   0  0  0  0  0  0  0  0  0  0  0  0
   61.7946   -5.0730   34.1990 H   0  0  0  0  0  0  0  0  0  0  0  0
   62.6358   -6.3403   36.1739 H   0  0  0  0  0  0  0  0  0  0  0  0
 20 19  1  0
 19 21  2  0
 19 18  1  0
 22 18  1  0
 22 23  2  0
 18 17  2  0
 23 24  1  0
 17 16  1  0
 24 16  2  0
 16 15  1  0
 15  1  1  0
 15 14  2  0
  1  2  1  0
 14 13  1  0
  2 13  2  0
  2  3  1  0
  8  3  1  0
  8  7  2  0
  3  4  2  0
  7  6  1  0
 12 10  2  0
  4  5  1  0
  4  9  1  0
  6  5  2  0
 10  9  1  0
 10 11  1  0
  5 25  1  0
  6 26  1  0
  7 27  1  0
  8 28  1  0
  9 29  1  0
  9 30  1  0
 11 31  1  0
 13 32  1  0
 14 33  1  0
 17 34  1  0
 22 35  1  0
 23 36  1  0
 24 37  1  0
M  CHG  2  19   1  20  -1
A    1
O1
A    2
C2
A    3
C3
A    4
C4
A    5
C5
A    6
C7
A    7
C8
A    8
C9
A    9
C13
A   10
C14
A   11
O15
A   12
O17
A   13
C20
A   14
C21
A   15
C22
A   16
C23
A   17
C24
A   18
C26
A   19
N27
A   20
O28
A   21
O29
A   22
C30
A   23
C32
A   24
C34
M  END
