4PS7_2WJ_A_1201
     RDKit          3D

 30 32  0  0  0  0  0  0  0  0999 V2000
   14.3590   62.7310   23.4250 C   0  0  0  0  0  0  0  0  0  0  0  0
   15.8190   62.7030   23.0420 C   0  0  0  0  0  0  0  0  0  0  0  0
   16.2100   63.4750   22.1950 O   0  0  0  0  0  0  0  0  0  0  0  0
   16.6580   61.8250   23.6610 N   0  0  0  0  0  0  0  0  0  0  0  0
   18.0160   61.6340   23.4120 C   0  0  0  0  0  0  0  0  0  0  0  0
   18.7410   60.7780   24.0690 N   0  0  0  0  0  0  0  0  0  0  0  0
   20.0280   60.6600   23.7270 C   0  0  0  0  0  0  0  0  0  0  0  0
   21.0090   59.8160   24.2630 C   0  0  0  0  0  0  0  0  0  0  0  0
   22.2890   59.8330   23.7650 C   0  0  0  0  0  0  0  0  0  0  0  0
   22.6370   60.6940   22.7180 C   0  0  0  0  0  0  0  0  0  0  0  0
   21.6770   61.5380   22.1850 C   0  0  0  0  0  0  0  0  0  0  0  0
   20.3880   61.5290   22.6800 C   0  0  0  0  0  0  0  0  0  0  0  0
   18.9800   62.4730   22.1900 S   0  0  0  0  0  0  0  0  0  0  0  0
   23.9970   60.7100   22.1300 C   0  0  0  0  0  0  0  0  0  0  0  0
   24.1820   61.2290   20.8230 C   0  0  0  0  0  0  0  0  0  0  0  0
   25.4580   61.2200   20.2480 C   0  0  0  0  0  0  0  0  0  0  0  0
   26.5150   60.6910   20.9660 C   0  0  0  0  0  0  0  0  0  0  0  0
   26.2900   60.1910   22.1760 N   0  0  0  0  0  0  0  0  0  0  0  0
   25.1020   60.1660   22.7740 C   0  0  0  0  0  0  0  0  0  0  0  0
   14.2675   62.7328   24.5212 H   0  0  0  0  0  0  0  0  0  0  0  0
   13.8901   63.6383   23.0164 H   0  0  0  0  0  0  0  0  0  0  0  0
   13.8556   61.8423   23.0164 H   0  0  0  0  0  0  0  0  0  0  0  0
   16.2412   61.2360   24.3960 H   0  0  0  0  0  0  0  0  0  0  0  0
   20.7527   59.1352   25.0881 H   0  0  0  0  0  0  0  0  0  0  0  0
   23.0486   59.1628   24.1937 H   0  0  0  0  0  0  0  0  0  0  0  0
   21.9427   62.2190   21.3631 H   0  0  0  0  0  0  0  0  0  0  0  0
   23.3268   61.6366   20.2640 H   0  0  0  0  0  0  0  0  0  0  0  0
   25.6179   61.6280   19.2391 H   0  0  0  0  0  0  0  0  0  0  0  0
   27.5293   60.6843   20.5405 H   0  0  0  0  0  0  0  0  0  0  0  0
   24.9948   59.7173   23.7726 H   0  0  0  0  0  0  0  0  0  0  0  0
 16 15  2  0
 16 17  1  0
 15 14  1  0
 17 18  2  0
 14 10  1  0
 14 19  2  0
 18 19  1  0
 11 12  2  0
 11 10  1  0
 13 12  1  0
 13  5  1  0
  3  2  2  0
 12  7  1  0
 10  9  2  0
  2  1  1  0
  2  4  1  0
  5  4  1  0
  5  6  2  0
  7  6  1  0
  7  8  2  0
  9  8  1  0
  1 20  1  0
  1 21  1  0
  1 22  1  0
  4 23  1  0
  8 24  1  0
  9 25  1  0
 11 26  1  0
 15 27  1  0
 16 28  1  0
 17 29  1  0
 19 30  1  0
A    1
C1
A    2
C2
A    3
O3
A    4
N4
A    5
C5
A    6
N6
A    7
C7
A    8
C8
A    9
C9
A   10
C10
A   11
C11
A   12
C12
A   13
S13
A   14
C14
A   15
C15
A   16
C16
A   17
C17
A   18
N18
A   19
C19
M  END
