4PS8_2WK_A_1201
     RDKit          3D

 38 40  0  0  0  0  0  0  0  0999 V2000
   14.1620   62.8420   23.6670 C   0  0  0  0  0  0  0  0  0  0  0  0
   15.6100   62.8520   23.3040 C   0  0  0  0  0  0  0  0  0  0  0  0
   15.9800   63.7080   22.5170 O   0  0  0  0  0  0  0  0  0  0  0  0
   16.4130   61.9230   23.8960 N   0  0  0  0  0  0  0  0  0  0  0  0
   17.7700   61.7140   23.6550 C   0  0  0  0  0  0  0  0  0  0  0  0
   18.4850   60.7760   24.1930 N   0  0  0  0  0  0  0  0  0  0  0  0
   19.7690   60.6840   23.7820 C   0  0  0  0  0  0  0  0  0  0  0  0
   20.7790   59.7770   24.1830 C   0  0  0  0  0  0  0  0  0  0  0  0
   22.0330   59.8460   23.6590 C   0  0  0  0  0  0  0  0  0  0  0  0
   22.3790   60.8190   22.7030 C   0  0  0  0  0  0  0  0  0  0  0  0
   21.4110   61.7120   22.2750 C   0  0  0  0  0  0  0  0  0  0  0  0
   20.1270   61.6460   22.8180 C   0  0  0  0  0  0  0  0  0  0  0  0
   18.7210   62.6410   22.4930 S   0  0  0  0  0  0  0  0  0  0  0  0
   23.7290   60.8170   22.0890 C   0  0  0  0  0  0  0  0  0  0  0  0
   23.8420   61.2770   20.7660 C   0  0  0  0  0  0  0  0  0  0  0  0
   25.0830   61.2440   20.1370 C   0  0  0  0  0  0  0  0  0  0  0  0
   26.1940   60.6950   20.8270 C   0  0  0  0  0  0  0  0  0  0  0  0
   26.0370   60.2310   22.0740 N   0  0  0  0  0  0  0  0  0  0  0  0
   24.8640   60.2610   22.7030 C   0  0  0  0  0  0  0  0  0  0  0  0
   27.4320   60.6480   20.2400 O   0  0  0  0  0  0  0  0  0  0  0  0
   28.1360   59.4060   20.2550 C   0  0  0  0  0  0  0  0  0  0  0  0
   25.1750   61.7160   18.8640 O   0  0  0  0  0  0  0  0  0  0  0  0
   25.1480   63.1230   18.6240 C   0  0  0  0  0  0  0  0  0  0  0  0
   14.0585   62.8413   24.7621 H   0  0  0  0  0  0  0  0  0  0  0  0
   13.6741   63.7368   23.2532 H   0  0  0  0  0  0  0  0  0  0  0  0
   13.6865   61.9405   23.2532 H   0  0  0  0  0  0  0  0  0  0  0  0
   15.9700   61.3105   24.5956 H   0  0  0  0  0  0  0  0  0  0  0  0
   20.5465   59.0039   24.9302 H   0  0  0  0  0  0  0  0  0  0  0  0
   22.7941   59.1243   23.9905 H   0  0  0  0  0  0  0  0  0  0  0  0
   21.6522   62.4676   21.5129 H   0  0  0  0  0  0  0  0  0  0  0  0
   22.9588   61.6592   20.2331 H   0  0  0  0  0  0  0  0  0  0  0  0
   24.7822   59.8446   23.7178 H   0  0  0  0  0  0  0  0  0  0  0  0
   28.3114   59.0965   21.2959 H   0  0  0  0  0  0  0  0  0  0  0  0
   27.5381   58.6394   19.7403 H   0  0  0  0  0  0  0  0  0  0  0  0
   29.1008   59.5252   19.7403 H   0  0  0  0  0  0  0  0  0  0  0  0
   25.1377   63.6587   19.5847 H   0  0  0  0  0  0  0  0  0  0  0  0
   26.0407   63.4145   18.0512 H   0  0  0  0  0  0  0  0  0  0  0  0
   24.2448   63.3800   18.0512 H   0  0  0  0  0  0  0  0  0  0  0  0
 23 22  1  0
 22 16  1  0
 16 15  2  0
 16 17  1  0
 20 21  1  0
 20 17  1  0
 15 14  1  0
 17 18  2  0
 18 19  1  0
 14 19  2  0
 14 10  1  0
 11 10  1  0
 11 12  2  0
 13 12  1  0
 13  5  1  0
  3  2  2  0
 10  9  2  0
 12  7  1  0
  2  1  1  0
  2  4  1  0
  5  4  1  0
  5  6  2  0
  9  8  1  0
  7  8  2  0
  7  6  1  0
  1 24  1  0
  1 25  1  0
  1 26  1  0
  4 27  1  0
  8 28  1  0
  9 29  1  0
 11 30  1  0
 15 31  1  0
 19 32  1  0
 21 33  1  0
 21 34  1  0
 21 35  1  0
 23 36  1  0
 23 37  1  0
 23 38  1  0
A    1
C1
A    2
C2
A    3
O3
A    4
N4
A    5
C5
A    6
N6
A    7
C7
A    8
C8
A    9
C9
A   10
C10
A   11
C11
A   12
C12
A   13
S13
A   14
C14
A   15
C15
A   16
C16
A   17
C17
A   18
N18
A   19
C19
A   20
O20
A   21
C21
A   22
O22
A   23
C23
M  END
