4PTN_GXV_A_403
     RDKit          3D

 12 11  0  0  0  0  0  0  0  0999 V2000
  145.0630   55.0690   12.5680 O   0  0  0  0  0  0  0  0  0  0  0  0
  144.5300   53.8010   13.0290 C   0  0  0  0  0  0  0  0  0  0  0  0
  144.6940   52.7010   11.9810 C   0  0  0  0  0  0  0  0  0  0  0  0
  145.9860   52.1210   11.9780 O   0  0  0  0  0  0  0  0  0  0  0  0
  144.6060   53.2470   10.5860 C   0  0  0  0  0  0  0  0  0  0  0  0
  143.3370   53.2170    9.9200 O   0  0  0  0  0  0  0  0  0  0  0  0
  145.2992   55.6309   13.3481 H   0  0  0  0  0  0  0  0  0  0  0  0
  143.4597   53.9244   13.2510 H   0  0  0  0  0  0  0  0  0  0  0  0
  145.0888   53.5022   13.9282 H   0  0  0  0  0  0  0  0  0  0  0  0
  143.9011   51.9848   12.2423 H   0  0  0  0  0  0  0  0  0  0  0  0
  146.2889   51.9850   12.9107 H   0  0  0  0  0  0  0  0  0  0  0  0
  145.4944   53.6605   10.0863 H   0  0  0  0  0  0  0  0  0  0  0  0
  6  5  2  0
  5  3  1  0
  4  3  1  0
  3  2  1  0
  1  2  1  0
  1  7  1  0
  2  8  1  0
  2  9  1  0
  3 10  1  0
  4 11  1  0
  5 12  1  0
A    1
O2
A    2
C
A    3
C1
A    4
O1
A    5
C2
A    6
O
M  END
