4PUK_2WU_A_405
     RDKit          3D

 27 29  0  0  0  0  0  0  0  0999 V2000
  -16.9220   18.0620  -17.8130 N   0  0  0  0  0  0  0  0  0  0  0  0
  -18.9750   18.6410  -18.4950 N   0  0  0  0  0  0  0  0  0  0  0  0
  -18.1170   18.5000  -17.4600 C   0  0  0  0  0  0  0  0  0  0  0  0
  -17.5360   18.7190  -15.0930 C   0  0  0  0  0  0  0  0  0  0  0  0
  -18.2740   18.2920  -19.6380 C   0  0  0  0  0  0  0  0  0  0  0  0
  -18.5840   18.3270  -20.9790 C   0  0  0  0  0  0  0  0  0  0  0  0
  -17.6240   17.9730  -21.9150 C   0  0  0  0  0  0  0  0  0  0  0  0
  -15.6250   17.4010  -23.7160 C   0  0  0  0  0  0  0  0  0  0  0  0
  -16.3590   17.5340  -21.5030 C   0  0  0  0  0  0  0  0  0  0  0  0
  -16.0420   17.4940  -20.1280 C   0  0  0  0  0  0  0  0  0  0  0  0
  -17.0050   17.9150  -19.2030 C   0  0  0  0  0  0  0  0  0  0  0  0
  -18.4570   18.8110  -16.2110 N   0  0  0  0  0  0  0  0  0  0  0  0
  -17.8970   18.1150  -23.3500 C   0  0  0  0  0  0  0  0  0  0  0  0
  -18.9790   18.4690  -23.8010 O   0  0  0  0  0  0  0  0  0  0  0  0
  -16.8420   17.8330  -24.1710 N   0  0  0  0  0  0  0  0  0  0  0  0
  -14.6810   17.1410  -24.6370 N   0  0  0  0  0  0  0  0  0  0  0  0
  -15.3590   17.2300  -22.4210 N   0  0  0  0  0  0  0  0  0  0  0  0
  -16.1131   17.8718  -17.2043 H   0  0  0  0  0  0  0  0  0  0  0  0
  -18.0982   18.7752  -14.1492 H   0  0  0  0  0  0  0  0  0  0  0  0
  -16.9952   17.7624  -15.1412 H   0  0  0  0  0  0  0  0  0  0  0  0
  -16.8166   19.5498  -15.1412 H   0  0  0  0  0  0  0  0  0  0  0  0
  -19.5882   18.6343  -21.3063 H   0  0  0  0  0  0  0  0  0  0  0  0
  -15.0574   17.1389  -19.7898 H   0  0  0  0  0  0  0  0  0  0  0  0
  -19.4187   19.1320  -16.0295 H   0  0  0  0  0  0  0  0  0  0  0  0
  -16.9689   17.9517  -25.1862 H   0  0  0  0  0  0  0  0  0  0  0  0
  -13.7301   16.8791  -24.3401 H   0  0  0  0  0  0  0  0  0  0  0  0
  -14.9086   17.2037  -25.6396 H   0  0  0  0  0  0  0  0  0  0  0  0
  4 12  1  0
 12  3  1  0
  3  1  1  0
  3  2  2  0
  1 11  1  0
  2  5  1  0
 11  5  2  0
 11 10  1  0
  5  6  1  0
 10  9  2  0
  6  7  2  0
  9  7  1  0
  9 17  1  0
  7 13  1  0
 17  8  2  0
 13 14  2  0
 13 15  1  0
  8 15  1  0
  8 16  1  0
  1 18  1  0
  4 19  1  0
  4 20  1  0
  4 21  1  0
  6 22  1  0
 10 23  1  0
 12 24  1  0
 15 25  1  0
 16 26  1  0
 16 27  1  0
A    1
N1
A    2
N3
A    3
C4
A    4
C5
A    5
C6
A    6
C7
A    7
C8
A    8
C10
A    9
C1
A   10
C2
A   11
C3
A   12
N2
A   13
C9
A   14
O1
A   15
N4
A   16
N5
A   17
N6
M  END
