4PV0_CG4_A_701
     RDKit          3D

 61 65  0  0  0  0  0  0  0  0999 V2000
   -6.7710    6.8090   13.4730 O   0  0  0  0  0  0  0  0  0  0  0  0
   -6.5350    5.8600   12.7290 C   0  0  0  0  0  0  0  0  0  0  0  0
   -7.5620    5.2750   12.0290 O   0  0  0  0  0  0  0  0  0  0  0  0
   -5.1470    5.3670   12.5470 C   0  0  0  0  0  0  0  0  0  0  0  0
   -4.1580    5.7820   13.4360 C   0  0  0  0  0  0  0  0  0  0  0  0
   -2.8620    5.3520   13.2820 C   0  0  0  0  0  0  0  0  0  0  0  0
   -4.8310    4.5110   11.4840 C   0  0  0  0  0  0  0  0  0  0  0  0
   -3.5200    4.0700   11.3320 C   0  0  0  0  0  0  0  0  0  0  0  0
   -2.5250    4.4950   12.2370 C   0  0  0  0  0  0  0  0  0  0  0  0
   -1.1780    4.1150   12.1520 N   0  0  0  0  0  0  0  0  0  0  0  0
   -0.5120    3.6910   10.9940 C   0  0  0  0  0  0  0  0  0  0  0  0
   -1.0300    3.5640    9.8950 O   0  0  0  0  0  0  0  0  0  0  0  0
    0.8930    3.3350   11.1120 C   0  0  0  0  0  0  0  0  0  0  0  0
    1.7690    3.8320   10.1700 C   0  0  0  0  0  0  0  0  0  0  0  0
    3.0970    3.4980   10.2470 C   0  0  0  0  0  0  0  0  0  0  0  0
    1.3210    2.5140   12.1340 C   0  0  0  0  0  0  0  0  0  0  0  0
    2.6530    2.1700   12.2010 C   0  0  0  0  0  0  0  0  0  0  0  0
    3.5390    2.6730   11.2600 C   0  0  0  0  0  0  0  0  0  0  0  0
    3.1090    1.2860   13.3080 C   0  0  0  0  0  0  0  0  0  0  0  0
    4.3940    1.3420   13.7970 C   0  0  0  0  0  0  0  0  0  0  0  0
    2.1880    0.4030   13.8570 N   0  0  0  0  0  0  0  0  0  0  0  0
    2.5010   -0.4480   14.8820 C   0  0  0  0  0  0  0  0  0  0  0  0
    3.8060   -0.3620   15.3230 C   0  0  0  0  0  0  0  0  0  0  0  0
    4.3970   -1.0370   16.3290 N   0  0  0  0  0  0  0  0  0  0  0  0
    5.6610   -0.5880   16.3800 C   0  0  0  0  0  0  0  0  0  0  0  0
    5.8300    0.3700   15.4190 C   0  0  0  0  0  0  0  0  0  0  0  0
    4.6920    0.5000   14.7710 N   0  0  0  0  0  0  0  0  0  0  0  0
    1.5850   -1.3660   15.4920 N   0  0  0  0  0  0  0  0  0  0  0  0
    0.2230   -1.6780   15.3370 C   0  0  0  0  0  0  0  0  0  0  0  0
   -0.5050   -1.0030   14.3540 C   0  0  0  0  0  0  0  0  0  0  0  0
   -1.8400   -1.2140   14.1320 C   0  0  0  0  0  0  0  0  0  0  0  0
   -2.5620   -0.5510   13.1460 O   0  0  0  0  0  0  0  0  0  0  0  0
   -2.2190    0.5890   12.3620 C   0  0  0  0  0  0  0  0  0  0  0  0
   -0.4370   -2.6320   16.1160 C   0  0  0  0  0  0  0  0  0  0  0  0
   -1.7980   -2.8680   15.8950 C   0  0  0  0  0  0  0  0  0  0  0  0
   -2.4820   -2.1640   14.9040 C   0  0  0  0  0  0  0  0  0  0  0  0
   -3.8140   -2.3790   14.7050 O   0  0  0  0  0  0  0  0  0  0  0  0
   -4.3600   -2.7250   13.4190 C   0  0  0  0  0  0  0  0  0  0  0  0
   -6.7408    6.6875   14.4551 H   0  0  0  0  0  0  0  0  0  0  0  0
   -4.4158    6.4572   14.2653 H   0  0  0  0  0  0  0  0  0  0  0  0
   -2.0869    5.6862   13.9874 H   0  0  0  0  0  0  0  0  0  0  0  0
   -5.6107    4.1910   10.7772 H   0  0  0  0  0  0  0  0  0  0  0  0
   -3.2598    3.3906   10.5069 H   0  0  0  0  0  0  0  0  0  0  0  0
   -0.6268    4.1508   13.0213 H   0  0  0  0  0  0  0  0  0  0  0  0
    1.4066    4.4891    9.3657 H   0  0  0  0  0  0  0  0  0  0  0  0
    3.8076    3.8870    9.5029 H   0  0  0  0  0  0  0  0  0  0  0  0
    0.6093    2.1395   12.8845 H   0  0  0  0  0  0  0  0  0  0  0  0
    4.6056    2.4112   11.3223 H   0  0  0  0  0  0  0  0  0  0  0  0
    5.1346    2.0507   13.3980 H   0  0  0  0  0  0  0  0  0  0  0  0
    6.4349   -0.9343   17.0808 H   0  0  0  0  0  0  0  0  0  0  0  0
    6.7544    0.9329   15.2222 H   0  0  0  0  0  0  0  0  0  0  0  0
    2.0343   -1.9366   16.2224 H   0  0  0  0  0  0  0  0  0  0  0  0
    0.0195   -0.2662   13.7278 H   0  0  0  0  0  0  0  0  0  0  0  0
   -1.9664    1.4285   13.0265 H   0  0  0  0  0  0  0  0  0  0  0  0
   -1.3529    0.3504   11.7273 H   0  0  0  0  0  0  0  0  0  0  0  0
   -3.0730    0.8679   11.7273 H   0  0  0  0  0  0  0  0  0  0  0  0
    0.1064   -3.1900   16.8927 H   0  0  0  0  0  0  0  0  0  0  0  0
   -2.3310   -3.6119   16.5053 H   0  0  0  0  0  0  0  0  0  0  0  0
   -5.2818   -3.3091   13.5572 H   0  0  0  0  0  0  0  0  0  0  0  0
   -4.5885   -1.8065   12.8585 H   0  0  0  0  0  0  0  0  0  0  0  0
   -3.6270   -3.3238   12.8585 H   0  0  0  0  0  0  0  0  0  0  0  0
 12 11  2  0
 14 15  2  0
 14 13  1  0
 15 18  1  0
 11 13  1  0
 11 10  1  0
 13 16  2  0
 18 17  2  0
  8  7  1  0
  8  9  2  0
  7  4  2  0
  3  2  2  0
 16 17  1  0
 10  9  1  0
 17 19  1  0
  9  6  1  0
 33 32  1  0
  4  2  1  0
  4  5  1  0
  2  1  1  0
 32 31  1  0
  6  5  2  0
 19 20  2  0
 19 21  1  0
 38 37  1  0
 20 27  1  0
 21 22  2  0
 31 30  2  0
 31 36  1  0
 30 29  1  0
 37 36  1  0
 27 23  1  0
 27 26  1  0
 22 23  1  0
 22 28  1  0
 36 35  2  0
 23 24  2  0
 29 28  1  0
 29 34  2  0
 26 25  2  0
 35 34  1  0
 24 25  1  0
  1 39  1  0
  5 40  1  0
  6 41  1  0
  7 42  1  0
  8 43  1  0
 10 44  1  0
 14 45  1  0
 15 46  1  0
 16 47  1  0
 18 48  1  0
 20 49  1  0
 25 50  1  0
 26 51  1  0
 28 52  1  0
 30 53  1  0
 33 54  1  0
 33 55  1  0
 33 56  1  0
 34 57  1  0
 35 58  1  0
 38 59  1  0
 38 60  1  0
 38 61  1  0
A    1
O18
A    2
C16
A    3
O17
A    4
C7
A    5
C5
A    6
C3
A    7
C6
A    8
C4
A    9
C2
A   10
N1
A   11
C8
A   12
O9
A   13
C15
A   14
C13
A   15
C11
A   16
C14
A   17
C12
A   18
C10
A   19
C24
A   20
C22
A   21
N23
A   22
C21
A   23
C19
A   24
N27
A   25
C26
A   26
C25
A   27
N20
A   28
N28
A   29
C33
A   30
C31
A   31
C29
A   32
O36
A   33
C37
A   34
C34
A   35
C32
A   36
C30
A   37
O35
A   38
C38
M  END
