4PVG_2WT_A_601
     RDKit          3D

 63 67  0  0  0  0  0  0  0  0999 V2000
   -4.4340    9.2860    6.0060 O   0  0  0  0  0  0  0  0  0  0  0  0
   -7.7570   14.6000   10.3460 C   0  0  0  0  0  0  0  0  0  0  0  0
   -9.0200   15.1050   10.0050 C   0  0  0  0  0  0  0  0  0  0  0  0
   -9.5200   16.3320   10.3920 C   0  0  0  0  0  0  0  0  0  0  0  0
  -17.2970   19.0320    8.3580 C   0  0  0  0  0  0  0  0  0  0  0  0
   -8.7000   17.1180   11.1810 C   0  0  0  0  0  0  0  0  0  0  0  0
  -12.0230   16.5570    9.7800 C   0  0  0  0  0  0  0  0  0  0  0  0
   -6.9910   15.4450   11.1420 C   0  0  0  0  0  0  0  0  0  0  0  0
  -13.0010   16.1550   10.8880 C   0  0  0  0  0  0  0  0  0  0  0  0
  -15.3790   16.6890   11.7240 C   0  0  0  0  0  0  0  0  0  0  0  0
  -17.2960   17.3640   10.2430 C   0  0  0  0  0  0  0  0  0  0  0  0
  -16.9670   19.3910    7.0680 C   0  0  0  0  0  0  0  0  0  0  0  0
  -16.2970   18.5240    6.2390 C   0  0  0  0  0  0  0  0  0  0  0  0
  -15.9370   17.2680    6.6700 C   0  0  0  0  0  0  0  0  0  0  0  0
  -16.2650   16.9010    7.9640 C   0  0  0  0  0  0  0  0  0  0  0  0
  -16.9410   17.7680    8.8180 C   0  0  0  0  0  0  0  0  0  0  0  0
  -14.0350   17.2490   11.2370 C   0  0  0  0  0  0  0  0  0  0  0  0
   -7.4450   16.6820   11.5540 C   0  0  0  0  0  0  0  0  0  0  0  0
  -16.6480   20.3530    5.1530 C   0  0  0  0  0  0  0  0  0  0  0  0
  -10.7280   16.9010   10.1100 N   0  0  0  0  0  0  0  0  0  0  0  0
   -5.0980    8.7500    7.0850 C   0  0  0  0  0  0  0  0  0  0  0  0
   -6.5660   13.0320    8.8050 C   0  0  0  0  0  0  0  0  0  0  0  0
   -7.3450   13.3550    9.9140 C   0  0  0  0  0  0  0  0  0  0  0  0
   -8.4090   11.9180   11.6710 C   0  0  0  0  0  0  0  0  0  0  0  0
  -12.3530   16.5930    8.6220 O   0  0  0  0  0  0  0  0  0  0  0  0
   -7.0960   11.1670    9.8180 C   0  0  0  0  0  0  0  0  0  0  0  0
   -6.5180    7.6100    9.3700 O   0  0  0  0  0  0  0  0  0  0  0  0
   -7.5950   12.1780   10.4360 N   0  0  0  0  0  0  0  0  0  0  0  0
   -6.4240   11.7000    8.7490 C   0  0  0  0  0  0  0  0  0  0  0  0
   -7.1050    9.7970   10.0010 C   0  0  0  0  0  0  0  0  0  0  0  0
   -6.4530    8.9520    9.1140 C   0  0  0  0  0  0  0  0  0  0  0  0
   -5.7720    9.5090    8.0230 C   0  0  0  0  0  0  0  0  0  0  0  0
   -5.7730   10.8790    7.8610 C   0  0  0  0  0  0  0  0  0  0  0  0
  -16.2840   16.4060   10.7190 N   0  0  0  0  0  0  0  0  0  0  0  0
   -5.0210    7.5550    7.1220 O   0  0  0  0  0  0  0  0  0  0  0  0
  -15.6300   16.5150   12.8990 O   0  0  0  0  0  0  0  0  0  0  0  0
  -17.1950   20.4640    6.4870 O   0  0  0  0  0  0  0  0  0  0  0  0
  -16.0940   19.0320    5.1330 O   0  0  0  0  0  0  0  0  0  0  0  0
   -5.5830   14.1760    7.2140 I   0  0  0  0  0  0  0  0  0  0  0  0
   -9.6648   14.4717    9.3780 H   0  0  0  0  0  0  0  0  0  0  0  0
  -17.8334   19.7341    9.0132 H   0  0  0  0  0  0  0  0  0  0  0  0
   -9.0531   18.1045   11.5159 H   0  0  0  0  0  0  0  0  0  0  0  0
   -5.9887   15.1163   11.4541 H   0  0  0  0  0  0  0  0  0  0  0  0
  -13.5445   15.2563   10.5611 H   0  0  0  0  0  0  0  0  0  0  0  0
  -12.4027   15.9801   11.7943 H   0  0  0  0  0  0  0  0  0  0  0  0
  -17.3005   18.2527   10.8912 H   0  0  0  0  0  0  0  0  0  0  0  0
  -18.2946   16.9034   10.2682 H   0  0  0  0  0  0  0  0  0  0  0  0
  -15.4029   16.5740    6.0043 H   0  0  0  0  0  0  0  0  0  0  0  0
  -15.9848   15.9007    8.3259 H   0  0  0  0  0  0  0  0  0  0  0  0
  -13.6148   17.8847   12.0303 H   0  0  0  0  0  0  0  0  0  0  0  0
  -14.2348   17.8116   10.3131 H   0  0  0  0  0  0  0  0  0  0  0  0
   -6.8054   17.3210   12.1805 H   0  0  0  0  0  0  0  0  0  0  0  0
  -15.8683   21.1100    4.9826 H   0  0  0  0  0  0  0  0  0  0  0  0
  -17.3979   20.5173    4.3652 H   0  0  0  0  0  0  0  0  0  0  0  0
  -10.6460   17.9265   10.1600 H   0  0  0  0  0  0  0  0  0  0  0  0
   -7.7953   12.1140   12.5626 H   0  0  0  0  0  0  0  0  0  0  0  0
   -9.2872   12.5803   11.6775 H   0  0  0  0  0  0  0  0  0  0  0  0
   -8.7407   10.8692   11.6775 H   0  0  0  0  0  0  0  0  0  0  0  0
   -6.5338    7.2846   10.3049 H   0  0  0  0  0  0  0  0  0  0  0  0
   -7.6375    9.3697   10.8635 H   0  0  0  0  0  0  0  0  0  0  0  0
   -5.2428   11.3219    7.0050 H   0  0  0  0  0  0  0  0  0  0  0  0
  -16.2489   15.4752   10.2793 H   0  0  0  0  0  0  0  0  0  0  0  0
   -4.9909    7.0877    7.9942 H   0  0  0  0  0  0  0  0  0  0  0  0
 38 19  1  0
 38 13  1  0
 19 37  1  0
  1 21  2  0
 13 14  2  0
 13 12  1  0
 14 15  1  0
 37 12  1  0
 21 35  1  0
 21 32  1  0
 12  5  2  0
 39 22  1  0
 33 32  1  0
 33 29  2  0
 15 16  2  0
 32 31  2  0
  5 16  1  0
 25  7  2  0
 29 22  1  0
 29 26  1  0
 16 11  1  0
 22 23  2  0
 31 27  1  0
 31 30  1  0
  7 20  1  0
  7  9  1  0
 26 30  2  0
 26 28  1  0
 23  2  1  0
 23 28  1  0
  3  2  2  0
  3  4  1  0
 20  4  1  0
 11 34  1  0
  2  8  1  0
  4  6  2  0
 28 24  1  0
 34 10  1  0
  9 17  1  0
  6 18  1  0
  8 18  2  0
 17 10  1  0
 10 36  2  0
  3 40  1  0
  5 41  1  0
  6 42  1  0
  8 43  1  0
  9 44  1  0
  9 45  1  0
 11 46  1  0
 11 47  1  0
 14 48  1  0
 15 49  1  0
 17 50  1  0
 17 51  1  0
 18 52  1  0
 19 53  1  0
 19 54  1  0
 20 55  1  0
 24 56  1  0
 24 57  1  0
 24 58  1  0
 27 59  1  0
 30 60  1  0
 33 61  1  0
 34 62  1  0
 35 63  1  0
A    1
O2
A    2
C11
A    3
C12
A    4
C13
A    5
C27
A    6
C14
A    7
C17
A    8
C16
A    9
C18
A   10
C20
A   11
C21
A   12
C26
A   13
C25
A   14
C24
A   15
C23
A   16
C22
A   17
C19
A   18
C15
A   19
C28
A   20
N2
A   21
C7
A   22
C8
A   23
C9
A   24
C10
A   25
O4
A   26
C6
A   27
O1
A   28
N1
A   29
C5
A   30
C1
A   31
C2
A   32
C3
A   33
C4
A   34
N3
A   35
O3
A   36
O5
A   37
O6
A   38
O7
A   39
I
M  END
