4PVX_YS1_F_404
     RDKit          3D

 44 46  0  0  0  0  0  0  0  0999 V2000
   16.3520   32.7090  -10.4890 O   0  0  0  0  0  0  0  0  0  0  0  0
   16.5760   34.0130   -9.6110 P   0  0  0  0  0  0  0  0  0  0  0  0
   17.9430   33.8720   -8.9110 O   0  0  0  0  0  0  0  0  0  0  0  0
   16.3400   35.2390  -10.4000 O   0  0  0  0  0  0  0  0  0  0  0  0
   15.3030   34.0550   -8.2760 C   0  0  0  0  0  0  0  0  0  0  0  0
   15.4300   35.6200   -7.3480 P   0  0  0  0  0  0  0  0  0  0  0  0
   14.3440   35.5080   -6.2540 O   0  0  0  0  0  0  0  0  0  0  0  0
   16.7520   35.6640   -6.6300 O   0  0  0  0  0  0  0  0  0  0  0  0
   15.1940   36.7100   -8.3070 O   0  0  0  0  0  0  0  0  0  0  0  0
   15.4890   32.9500   -7.3180 N   0  0  0  0  0  0  0  0  0  0  0  0
   15.2330   31.6740   -7.7050 C   0  0  0  0  0  0  0  0  0  0  0  0
   16.0480   30.6780   -7.1610 C   0  0  0  0  0  0  0  0  0  0  0  0
   14.2560   31.3790   -8.6420 N   0  0  0  0  0  0  0  0  0  0  0  0
   14.1200   29.9990   -8.9800 C   0  0  0  0  0  0  0  0  0  0  0  0
   14.9410   28.9830   -8.4170 C   0  0  0  0  0  0  0  0  0  0  0  0
   15.9290   29.2980   -7.4860 C   0  0  0  0  0  0  0  0  0  0  0  0
   16.8100   28.3180   -6.9440 C   0  0  0  0  0  0  0  0  0  0  0  0
   16.4870   27.0030   -6.6920 C   0  0  0  0  0  0  0  0  0  0  0  0
   17.3660   26.0450   -6.1980 C   0  0  0  0  0  0  0  0  0  0  0  0
   18.1300   28.6240   -6.7150 C   0  0  0  0  0  0  0  0  0  0  0  0
   19.0230   27.6820   -6.2110 C   0  0  0  0  0  0  0  0  0  0  0  0
   18.6520   26.3800   -5.9210 C   0  0  0  0  0  0  0  0  0  0  0  0
   19.6060   25.4910   -5.5000 O   0  0  0  0  0  0  0  0  0  0  0  0
   19.2630   24.2760   -4.8240 C   0  0  0  0  0  0  0  0  0  0  0  0
   20.2520   23.6300   -4.0490 C   0  0  0  0  0  0  0  0  0  0  0  0
   19.6770   24.8610   -3.5900 C   0  0  0  0  0  0  0  0  0  0  0  0
   17.8141   33.8853   -7.9295 H   0  0  0  0  0  0  0  0  0  0  0  0
   16.1930   36.0026   -9.7873 H   0  0  0  0  0  0  0  0  0  0  0  0
   14.3194   33.9598   -8.7592 H   0  0  0  0  0  0  0  0  0  0  0  0
   14.7693   35.5519   -5.3611 H   0  0  0  0  0  0  0  0  0  0  0  0
   16.5968   35.6588   -5.6523 H   0  0  0  0  0  0  0  0  0  0  0  0
   15.8117   33.1451   -6.3595 H   0  0  0  0  0  0  0  0  0  0  0  0
   16.8245   30.9774   -6.4417 H   0  0  0  0  0  0  0  0  0  0  0  0
   13.3472   29.7087   -9.7070 H   0  0  0  0  0  0  0  0  0  0  0  0
   14.7943   27.9358   -8.7202 H   0  0  0  0  0  0  0  0  0  0  0  0
   15.4539   26.6859   -6.8973 H   0  0  0  0  0  0  0  0  0  0  0  0
   17.0187   25.0146   -6.0316 H   0  0  0  0  0  0  0  0  0  0  0  0
   18.4905   29.6396   -6.9356 H   0  0  0  0  0  0  0  0  0  0  0  0
   20.0660   27.9847   -6.0361 H   0  0  0  0  0  0  0  0  0  0  0  0
   18.4872   23.7706   -5.4178 H   0  0  0  0  0  0  0  0  0  0  0  0
   20.0169   22.6875   -3.5328 H   0  0  0  0  0  0  0  0  0  0  0  0
   21.2754   23.2728   -4.2364 H   0  0  0  0  0  0  0  0  0  0  0  0
   20.2756   25.7839   -3.5897 H   0  0  0  0  0  0  0  0  0  0  0  0
   19.1696   25.1936   -2.6724 H   0  0  0  0  0  0  0  0  0  0  0  0
  1  2  2  0
  4  2  1  0
  2  3  1  0
  2  5  1  0
 14 13  1  0
 14 15  2  0
 13 11  2  0
 15 16  1  0
  9  6  2  0
  5  6  1  0
  5 10  1  0
 11 10  1  0
 11 12  1  0
 16 12  2  0
 16 17  1  0
  6  8  1  0
  6  7  1  0
 17 20  1  0
 17 18  2  0
 20 21  2  0
 18 19  1  0
 21 22  1  0
 19 22  2  0
 22 23  1  0
 23 24  1  0
 24 25  1  0
 24 26  1  0
 25 26  1  0
  3 27  1  0
  4 28  1  0
  5 29  1  0
  7 30  1  0
  8 31  1  0
 10 32  1  0
 12 33  1  0
 14 34  1  0
 15 35  1  0
 18 36  1  0
 19 37  1  0
 20 38  1  0
 21 39  1  0
 24 40  1  0
 25 41  1  0
 25 42  1  0
 26 43  1  0
 26 44  1  0
A    1
OAJ
A    2
PAI
A    3
OAK
A    4
OAL
A    5
CAH
A    6
PAM
A    7
OAN
A    8
OAP
A    9
OAO
A   10
NAG
A   11
CAD
A   12
CAE
A   13
NAC
A   14
CAB
A   15
CAA
A   16
CAF
A   17
CAQ
A   18
CAV
A   19
CAU
A   20
CAR
A   21
CAS
A   22
CAT
A   23
OAW
A   24
CAX
A   25
CAY
A   26
CAZ
M  END
