4PX2_2WY_A_701
     RDKit          3D

 52 56  0  0  0  0  0  0  0  0999 V2000
  -36.5960   25.1340   13.6290 C   0  0  0  0  0  0  0  0  0  0  0  0
  -35.8260   24.1860   14.1730 C   0  0  0  0  0  0  0  0  0  0  0  0
  -34.5610   23.7190   13.7620 C   0  0  0  0  0  0  0  0  0  0  0  0
  -33.9570   22.7340   14.5620 C   0  0  0  0  0  0  0  0  0  0  0  0
  -34.6520   22.2910   15.7240 C   0  0  0  0  0  0  0  0  0  0  0  0
  -35.9030   22.7740   16.1480 C   0  0  0  0  0  0  0  0  0  0  0  0
  -36.4650   23.7280   15.3450 C   0  0  0  0  0  0  0  0  0  0  0  0
  -37.6350   24.4030   15.4480 O   0  0  0  0  0  0  0  0  0  0  0  0
  -37.6870   25.2610   14.3530 C   0  0  0  0  0  0  0  0  0  0  0  0
  -38.8290   26.2150   13.9930 C   0  0  0  0  0  0  0  0  0  0  0  0
  -38.8930   27.4850   14.8830 C   0  0  0  0  0  0  0  0  0  0  0  0
  -38.2050   28.6830   14.4860 C   0  0  0  0  0  0  0  0  0  0  0  0
  -38.2200   29.8890   15.2240 C   0  0  0  0  0  0  0  0  0  0  0  0
  -39.0290   29.8610   16.3810 C   0  0  0  0  0  0  0  0  0  0  0  0
  -39.7130   28.7070   16.7670 C   0  0  0  0  0  0  0  0  0  0  0  0
  -39.6750   27.5120   16.0430 C   0  0  0  0  0  0  0  0  0  0  0  0
  -38.6650   26.7320   12.5770 N   0  0  0  0  0  0  0  0  0  0  0  0
  -39.0480   25.8860   11.1450 S   0  0  0  0  0  0  0  0  0  0  0  0
  -40.5390   25.8700   10.9450 O   0  0  0  0  0  0  0  0  0  0  0  0
  -38.3910   26.6940   10.0810 O   0  0  0  0  0  0  0  0  0  0  0  0
  -38.2410   24.2690   11.2550 C   0  0  0  0  0  0  0  0  0  0  0  0
  -38.8820   23.1990   11.9080 C   0  0  0  0  0  0  0  0  0  0  0  0
  -38.2310   21.9860   12.0520 C   0  0  0  0  0  0  0  0  0  0  0  0
  -39.0220   21.0480   12.6780 O   0  0  0  0  0  0  0  0  0  0  0  0
  -38.4890   20.3260   13.8260 C   0  0  0  0  0  0  0  0  0  0  0  0
  -37.1960   19.4500   13.6750 C   0  0  0  0  0  0  0  0  0  0  0  0
  -35.9790   20.2020   13.0310 C   0  0  0  0  0  0  0  0  0  0  0  0
  -36.1680   20.6320   11.6150 O   0  0  0  0  0  0  0  0  0  0  0  0
  -36.9210   21.8070   11.5460 C   0  0  0  0  0  0  0  0  0  0  0  0
  -36.2520   22.8640   10.8870 C   0  0  0  0  0  0  0  0  0  0  0  0
  -36.9180   24.0920   10.7560 C   0  0  0  0  0  0  0  0  0  0  0  0
  -36.3566   25.7127   12.7247 H   0  0  0  0  0  0  0  0  0  0  0  0
  -34.0698   24.1073   12.8576 H   0  0  0  0  0  0  0  0  0  0  0  0
  -32.9742   22.3164   14.2981 H   0  0  0  0  0  0  0  0  0  0  0  0
  -34.1739   21.5120   16.3361 H   0  0  0  0  0  0  0  0  0  0  0  0
  -36.3952   22.4099   17.0619 H   0  0  0  0  0  0  0  0  0  0  0  0
  -39.7398   25.6144   14.1334 H   0  0  0  0  0  0  0  0  0  0  0  0
  -37.6302   28.6601   13.5484 H   0  0  0  0  0  0  0  0  0  0  0  0
  -37.6473   30.7779   14.9211 H   0  0  0  0  0  0  0  0  0  0  0  0
  -39.1225   30.7704   16.9928 H   0  0  0  0  0  0  0  0  0  0  0  0
  -40.3128   28.7398   17.6885 H   0  0  0  0  0  0  0  0  0  0  0  0
  -40.2384   26.6266   16.3726 H   0  0  0  0  0  0  0  0  0  0  0  0
  -37.6663   26.9687   12.4909 H   0  0  0  0  0  0  0  0  0  0  0  0
  -39.9003   23.3270   12.3038 H   0  0  0  0  0  0  0  0  0  0  0  0
  -38.2743   21.0768   14.6007 H   0  0  0  0  0  0  0  0  0  0  0  0
  -39.2716   19.5836   14.0414 H   0  0  0  0  0  0  0  0  0  0  0  0
  -37.4390   18.5831   13.0430 H   0  0  0  0  0  0  0  0  0  0  0  0
  -36.8880   19.1646   14.6917 H   0  0  0  0  0  0  0  0  0  0  0  0
  -35.1077   19.5316   13.0685 H   0  0  0  0  0  0  0  0  0  0  0  0
  -35.8517   21.1263   13.6136 H   0  0  0  0  0  0  0  0  0  0  0  0
  -35.2363   22.7272   10.4876 H   0  0  0  0  0  0  0  0  0  0  0  0
  -36.4103   24.9322   10.2598 H   0  0  0  0  0  0  0  0  0  0  0  0
 20 18  2  0
 31 30  2  0
 31 21  1  0
 30 29  1  0
 19 18  2  0
 18 21  1  0
 18 17  1  0
 21 22  2  0
 29 28  1  0
 29 23  2  0
 28 27  1  0
 22 23  1  0
 23 24  1  0
 17 10  1  0
 24 25  1  0
 27 26  1  0
  1  2  1  0
  1  9  2  0
 26 25  1  0
  3  2  2  0
  3  4  1  0
 10  9  1  0
 10 11  1  0
  2  7  1  0
  9  8  1  0
 12 11  2  0
 12 13  1  0
  4  5  2  0
 11 16  1  0
 13 14  2  0
  7  8  1  0
  7  6  2  0
  5  6  1  0
 16 15  2  0
 14 15  1  0
  1 32  1  0
  3 33  1  0
  4 34  1  0
  5 35  1  0
  6 36  1  0
 10 37  1  0
 12 38  1  0
 13 39  1  0
 14 40  1  0
 15 41  1  0
 16 42  1  0
 17 43  1  0
 22 44  1  0
 25 45  1  0
 25 46  1  0
 26 47  1  0
 26 48  1  0
 27 49  1  0
 27 50  1  0
 30 51  1  0
 31 52  1  0
A    1
C7
A    2
C1
A    3
C6
A    4
C5
A    5
C4
A    6
C3
A    7
C2
A    8
O1
A    9
C8
A   10
C9
A   11
C10
A   12
C11
A   13
C12
A   14
C13
A   15
C14
A   16
C15
A   17
N1
A   18
S1
A   19
O4
A   20
O5
A   21
C16
A   22
C17
A   23
C18
A   24
O2
A   25
C23
A   26
C22
A   27
C24
A   28
O3
A   29
C19
A   30
C21
A   31
C20
M  END
