4PX3_2WX_A_701
     RDKit          3D

 52 56  0  0  0  0  0  0  0  0999 V2000
   40.1970  -19.3700  -13.9870 C   0  0  0  0  0  0  0  0  0  0  0  0
   39.0050  -19.1810  -14.5430 C   0  0  0  0  0  0  0  0  0  0  0  0
   38.0190  -18.3040  -14.0600 C   0  0  0  0  0  0  0  0  0  0  0  0
   36.8170  -18.1640  -14.7680 C   0  0  0  0  0  0  0  0  0  0  0  0
   36.6670  -18.9290  -15.9550 C   0  0  0  0  0  0  0  0  0  0  0  0
   37.6480  -19.8010  -16.4630 C   0  0  0  0  0  0  0  0  0  0  0  0
   38.8150  -19.9200  -15.7450 C   0  0  0  0  0  0  0  0  0  0  0  0
   40.1940  -20.8340  -16.0040 S   0  0  0  0  0  0  0  0  0  0  0  0
   41.0030  -20.2390  -14.5810 C   0  0  0  0  0  0  0  0  0  0  0  0
   42.3770  -20.6300  -14.0090 C   0  0  0  0  0  0  0  0  0  0  0  0
   43.4330  -20.1100  -14.9360 C   0  0  0  0  0  0  0  0  0  0  0  0
   44.0390  -18.8220  -14.8000 C   0  0  0  0  0  0  0  0  0  0  0  0
   45.0310  -18.3580  -15.6970 C   0  0  0  0  0  0  0  0  0  0  0  0
   45.3880  -19.2390  -16.7310 C   0  0  0  0  0  0  0  0  0  0  0  0
   44.7960  -20.5080  -16.8490 C   0  0  0  0  0  0  0  0  0  0  0  0
   43.8160  -20.9800  -15.9460 C   0  0  0  0  0  0  0  0  0  0  0  0
   43.0580  -22.5790  -16.0350 Cl  0  0  0  0  0  0  0  0  0  0  0  0
   42.6480  -20.0460  -12.6660 N   0  0  0  0  0  0  0  0  0  0  0  0
   42.1510  -20.8610  -11.3170 S   0  0  0  0  0  0  0  0  0  0  0  0
   42.6760  -19.9770  -10.2060 O   0  0  0  0  0  0  0  0  0  0  0  0
   42.7420  -22.2280  -11.3550 O   0  0  0  0  0  0  0  0  0  0  0  0
   40.3410  -20.9250  -11.3740 C   0  0  0  0  0  0  0  0  0  0  0  0
   39.7300  -22.0250  -12.0050 C   0  0  0  0  0  0  0  0  0  0  0  0
   38.3520  -22.0750  -12.1220 C   0  0  0  0  0  0  0  0  0  0  0  0
   37.9100  -23.2090  -12.7470 O   0  0  0  0  0  0  0  0  0  0  0  0
   37.1530  -22.8990  -13.9280 C   0  0  0  0  0  0  0  0  0  0  0  0
   35.6970  -22.4420  -13.7130 C   0  0  0  0  0  0  0  0  0  0  0  0
   35.6040  -21.0680  -13.0030 C   0  0  0  0  0  0  0  0  0  0  0  0
   36.1640  -21.0040  -11.6550 O   0  0  0  0  0  0  0  0  0  0  0  0
   37.5490  -21.0410  -11.6070 C   0  0  0  0  0  0  0  0  0  0  0  0
   38.1280  -19.9250  -10.9660 C   0  0  0  0  0  0  0  0  0  0  0  0
   39.5280  -19.8680  -10.8620 C   0  0  0  0  0  0  0  0  0  0  0  0
   40.5005  -18.8312  -13.0773 H   0  0  0  0  0  0  0  0  0  0  0  0
   38.1886  -17.7328  -13.1353 H   0  0  0  0  0  0  0  0  0  0  0  0
   36.0222  -17.4888  -14.4182 H   0  0  0  0  0  0  0  0  0  0  0  0
   35.7238  -18.8340  -16.5130 H   0  0  0  0  0  0  0  0  0  0  0  0
   37.4882  -20.3635  -17.3947 H   0  0  0  0  0  0  0  0  0  0  0  0
   42.3838  -21.7256  -13.9112 H   0  0  0  0  0  0  0  0  0  0  0  0
   43.7241  -18.1706  -13.9715 H   0  0  0  0  0  0  0  0  0  0  0  0
   45.4948  -17.3662  -15.5905 H   0  0  0  0  0  0  0  0  0  0  0  0
   46.1472  -18.9290  -17.4641 H   0  0  0  0  0  0  0  0  0  0  0  0
   45.1078  -21.1607  -17.6777 H   0  0  0  0  0  0  0  0  0  0  0  0
   43.6685  -19.9302  -12.5886 H   0  0  0  0  0  0  0  0  0  0  0  0
   40.3469  -22.8435  -12.4044 H   0  0  0  0  0  0  0  0  0  0  0  0
   37.1304  -23.8014  -14.5566 H   0  0  0  0  0  0  0  0  0  0  0  0
   37.6638  -22.0373  -14.3825 H   0  0  0  0  0  0  0  0  0  0  0  0
   35.2028  -22.3667  -14.6928 H   0  0  0  0  0  0  0  0  0  0  0  0
   35.2057  -23.1851  -13.0677 H   0  0  0  0  0  0  0  0  0  0  0  0
   36.1359  -20.3319  -13.6236 H   0  0  0  0  0  0  0  0  0  0  0  0
   34.5289  -20.8664  -12.8872 H   0  0  0  0  0  0  0  0  0  0  0  0
   37.4991  -19.1200  -10.5581 H   0  0  0  0  0  0  0  0  0  0  0  0
   40.0030  -19.0002  -10.3812 H   0  0  0  0  0  0  0  0  0  0  0  0
 15 14  2  0
 15 16  1  0
 14 13  1  0
  6  5  2  0
  6  7  1  0
 17 16  1  0
  8  7  1  0
  8  9  1  0
  5  4  1  0
 16 11  2  0
  7  2  2  0
 13 12  2  0
 11 12  1  0
 11 10  1  0
  4  3  2  0
  9 10  1  0
  9  1  2  0
  2  3  1  0
  2  1  1  0
 10 18  1  0
 26 27  1  0
 26 25  1  0
 27 28  1  0
 28 29  1  0
 25 24  1  0
 18 19  1  0
 24 23  2  0
 24 30  1  0
 23 22  1  0
 29 30  1  0
 30 31  2  0
 22 19  1  0
 22 32  2  0
 21 19  2  0
 19 20  2  0
 31 32  1  0
  1 33  1  0
  3 34  1  0
  4 35  1  0
  5 36  1  0
  6 37  1  0
 10 38  1  0
 12 39  1  0
 13 40  1  0
 14 41  1  0
 15 42  1  0
 18 43  1  0
 23 44  1  0
 26 45  1  0
 26 46  1  0
 27 47  1  0
 27 48  1  0
 28 49  1  0
 28 50  1  0
 31 51  1  0
 32 52  1  0
A    1
C18
A    2
C20
A    3
C21
A    4
C22
A    5
C23
A    6
C24
A    7
C19
A    8
S2
A    9
C3
A   10
C1
A   11
C2
A   12
C4
A   13
C5
A   14
C6
A   15
C7
A   16
C8
A   17
CL1
A   18
N1
A   19
S1
A   20
O1
A   21
O2
A   22
C9
A   23
C10
A   24
C13
A   25
O4
A   26
C16
A   27
C17
A   28
C15
A   29
O3
A   30
C14
A   31
C11
A   32
C12
M  END
