4PXZ_6AD_A_1201
     RDKit          3D

 46 48  0  0  0  0  0  0  0  0999 V2000
   16.1810    1.0250   59.4450 O   0  0  0  0  0  0  0  0  0  0  0  0
   16.5690    0.9840   57.8700 P   0  0  0  0  0  0  0  0  0  0  0  0
   18.0030    0.2770   57.7720 O   0  0  0  0  0  0  0  0  0  0  0  0
   16.5710    2.3390   57.2630 O   0  0  0  0  0  0  0  0  0  0  0  0
   15.4810   -0.0350   57.2970 O   0  0  0  0  0  0  0  0  0  0  0  0
   15.5990   -0.9940   55.9910 P   0  0  0  0  0  0  0  0  0  0  0  0
   15.9400   -2.3880   56.3560 O   0  0  0  0  0  0  0  0  0  0  0  0
   16.3430   -0.3060   54.9040 O   0  0  0  0  0  0  0  0  0  0  0  0
   14.0340   -1.0530   55.6750 O   0  0  0  0  0  0  0  0  0  0  0  0
   13.2670    0.0750   55.1880 C   0  0  0  0  0  0  0  0  0  0  0  0
   11.8890   -0.4060   54.6590 C   0  0  0  0  0  0  0  0  0  0  0  0
   12.0110   -1.1130   53.3820 O   0  0  0  0  0  0  0  0  0  0  0  0
   11.1970   -1.3740   55.6310 C   0  0  0  0  0  0  0  0  0  0  0  0
    9.7690   -1.2260   55.6060 O   0  0  0  0  0  0  0  0  0  0  0  0
   11.5820   -2.7230   55.1070 C   0  0  0  0  0  0  0  0  0  0  0  0
   10.6340   -3.7270   55.4220 O   0  0  0  0  0  0  0  0  0  0  0  0
   11.6870   -2.5250   53.6030 C   0  0  0  0  0  0  0  0  0  0  0  0
   12.7030   -3.4490   53.0020 N   0  0  0  0  0  0  0  0  0  0  0  0
   13.8860   -3.8130   53.5020 C   0  0  0  0  0  0  0  0  0  0  0  0
   14.4340   -4.7130   52.6970 N   0  0  0  0  0  0  0  0  0  0  0  0
   13.6120   -4.8950   51.6590 C   0  0  0  0  0  0  0  0  0  0  0  0
   12.5180   -4.1360   51.8800 C   0  0  0  0  0  0  0  0  0  0  0  0
   11.5050   -4.1350   50.9960 N   0  0  0  0  0  0  0  0  0  0  0  0
   11.5660   -4.9030   49.8920 C   0  0  0  0  0  0  0  0  0  0  0  0
   10.1910   -4.8640   48.7880 S   0  0  0  0  0  0  0  0  0  0  0  0
   10.2930   -6.4090   47.9090 C   0  0  0  0  0  0  0  0  0  0  0  0
   12.6770   -5.6360   49.6440 N   0  0  0  0  0  0  0  0  0  0  0  0
   13.6880   -5.6420   50.5320 C   0  0  0  0  0  0  0  0  0  0  0  0
   14.7610   -6.4160   50.3480 N   0  0  0  0  0  0  0  0  0  0  0  0
   17.0031    0.9381   59.9897 H   0  0  0  0  0  0  0  0  0  0  0  0
   18.3496    0.1061   58.6834 H   0  0  0  0  0  0  0  0  0  0  0  0
   15.9613   -2.4752   57.3419 H   0  0  0  0  0  0  0  0  0  0  0  0
   13.8188    0.5654   54.3726 H   0  0  0  0  0  0  0  0  0  0  0  0
   13.1083    0.7856   56.0125 H   0  0  0  0  0  0  0  0  0  0  0  0
   11.2939    0.5118   54.5429 H   0  0  0  0  0  0  0  0  0  0  0  0
   11.4966   -1.1989   56.6748 H   0  0  0  0  0  0  0  0  0  0  0  0
    9.4246   -1.1903   56.5335 H   0  0  0  0  0  0  0  0  0  0  0  0
   12.5192   -3.0752   55.5626 H   0  0  0  0  0  0  0  0  0  0  0  0
   10.5556   -3.8100   56.4054 H   0  0  0  0  0  0  0  0  0  0  0  0
   10.7389   -2.7729   53.1033 H   0  0  0  0  0  0  0  0  0  0  0  0
   14.3334   -3.4289   54.4306 H   0  0  0  0  0  0  0  0  0  0  0  0
   10.3477   -7.2381   48.6299 H   0  0  0  0  0  0  0  0  0  0  0  0
    9.4009   -6.5309   47.2770 H   0  0  0  0  0  0  0  0  0  0  0  0
   11.1933   -6.4126   47.2770 H   0  0  0  0  0  0  0  0  0  0  0  0
   15.2743   -6.7863   51.1606 H   0  0  0  0  0  0  0  0  0  0  0  0
   15.0750   -6.6425   49.3936 H   0  0  0  0  0  0  0  0  0  0  0  0
 26 25  1  0
 25 24  1  0
 27 24  2  0
 27 28  1  0
 24 23  1  0
 29 28  1  0
 28 21  2  0
 23 22  2  0
 21 22  1  0
 21 20  1  0
 22 18  1  0
 20 19  2  0
 18 19  1  0
 18 17  1  0
 12 17  1  0
 12 11  1  0
 17 15  1  0
 11 10  1  0
 11 13  1  0
  8  6  2  0
 15 16  1  0
 15 13  1  0
 10  9  1  0
 14 13  1  0
  9  6  1  0
  6  7  1  0
  6  5  1  0
  4  2  2  0
  5  2  1  0
  3  2  1  0
  2  1  1  0
  1 30  1  0
  3 31  1  0
  7 32  1  0
 10 33  1  0
 10 34  1  0
 11 35  1  0
 13 36  1  0
 14 37  1  0
 15 38  1  0
 16 39  1  0
 17 40  1  0
 19 41  1  0
 26 42  1  0
 26 43  1  0
 26 44  1  0
 29 45  1  0
 29 46  1  0
A    1
O2B
A    2
PB
A    3
O3B
A    4
O1B
A    5
O3A
A    6
PA
A    7
O2A
A    8
O1A
A    9
O5'
A   10
C5'
A   11
C4'
A   12
O4'
A   13
C3'
A   14
O3'
A   15
C2'
A   16
O2'
A   17
C1'
A   18
N9
A   19
C8
A   20
N7
A   21
C5
A   22
C4
A   23
N3
A   24
C2
A   25
S1
A   26
C11
A   27
N1
A   28
C6
A   29
N6
M  END
