4PY2_43E_A_601
     RDKit          3D

 39 40  0  0  0  0  0  0  0  0999 V2000
   29.2100   10.1610   11.3400 C   0  0  0  0  0  0  0  0  0  0  0  0
   28.0730   10.6210   10.6760 C   0  0  0  0  0  0  0  0  0  0  0  0
   27.9960   10.5410    8.9770 Cl  0  0  0  0  0  0  0  0  0  0  0  0
   26.9640   11.1640   11.3400 C   0  0  0  0  0  0  0  0  0  0  0  0
   26.9420   11.2550   12.7420 C   0  0  0  0  0  0  0  0  0  0  0  0
   25.4560   11.9760   13.4590 Cl  0  0  0  0  0  0  0  0  0  0  0  0
   28.1110   10.7770   13.4300 C   0  0  0  0  0  0  0  0  0  0  0  0
   29.2260   10.2470   12.7390 C   0  0  0  0  0  0  0  0  0  0  0  0
   30.5320    9.7260   13.4270 C   0  0  0  0  0  0  0  0  0  0  0  0
   30.4350    8.3640   13.9220 N   0  0  0  0  0  0  0  0  0  0  0  0
   30.5350    7.3270   12.8840 C   0  0  0  0  0  0  0  0  0  0  0  0
   30.7850    5.9300   13.5430 C   0  0  0  0  0  0  0  0  0  0  0  0
   30.6890    4.7270   12.5720 C   0  0  0  0  0  0  0  0  0  0  0  0
   29.3190    4.5200   12.2400 N   0  0  0  0  0  0  0  0  0  0  0  0
   28.9360    3.6960   11.1580 C   0  0  0  0  0  0  0  0  0  0  0  0
   29.7820    3.1350   10.4930 O   0  0  0  0  0  0  0  0  0  0  0  0
   27.5280    3.5470   10.9450 N   0  0  0  0  0  0  0  0  0  0  0  0
   26.9660    2.7970    9.8900 C   0  0  0  0  0  0  0  0  0  0  0  0
   25.4530    2.8810    9.5500 C   0  0  0  0  0  0  0  0  0  0  0  0
   25.2010    2.0470    8.3930 C   0  0  0  0  0  0  0  0  0  0  0  0
   26.5860    1.3340    7.8870 S   0  0  0  0  0  0  0  0  0  0  0  0
   27.6640    1.9220    8.9470 C   0  0  0  0  0  0  0  0  0  0  0  0
   30.0641    9.7453   10.7853 H   0  0  0  0  0  0  0  0  0  0  0  0
   26.1024   11.5224   10.7575 H   0  0  0  0  0  0  0  0  0  0  0  0
   28.1391   10.8250   14.5286 H   0  0  0  0  0  0  0  0  0  0  0  0
   31.3507    9.7702   12.6937 H   0  0  0  0  0  0  0  0  0  0  0  0
   30.7109   10.3704   14.3003 H   0  0  0  0  0  0  0  0  0  0  0  0
   31.1952    8.2138   14.6005 H   0  0  0  0  0  0  0  0  0  0  0  0
   29.5976    7.2958   12.3092 H   0  0  0  0  0  0  0  0  0  0  0  0
   31.3755    7.5658   12.2158 H   0  0  0  0  0  0  0  0  0  0  0  0
   31.7931    5.9348   13.9832 H   0  0  0  0  0  0  0  0  0  0  0  0
   29.9869    5.7915   14.2873 H   0  0  0  0  0  0  0  0  0  0  0  0
   31.2635    4.9410   11.6587 H   0  0  0  0  0  0  0  0  0  0  0  0
   31.1009    3.8252   13.0485 H   0  0  0  0  0  0  0  0  0  0  0  0
   28.5902    4.9822   12.8023 H   0  0  0  0  0  0  0  0  0  0  0  0
   26.8869    4.0153   11.6012 H   0  0  0  0  0  0  0  0  0  0  0  0
   24.7019    3.4722   10.0943 H   0  0  0  0  0  0  0  0  0  0  0  0
   24.2171    1.9114    7.9202 H   0  0  0  0  0  0  0  0  0  0  0  0
   28.7413    1.6999    8.9556 H   0  0  0  0  0  0  0  0  0  0  0  0
  3  2  1  0
  4  2  1  0
  4  5  2  0
  2  1  2  0
  6  5  1  0
  5  7  1  0
  1  8  1  0
  7  8  2  0
  8  9  1  0
  9 10  1  0
 10 11  1  0
 11 12  1  0
 12 13  1  0
 13 14  1  0
 14 15  1  0
 15 16  2  0
 15 17  1  0
 17 18  1  0
 18 19  1  0
 18 22  2  0
 19 20  2  0
 22 21  1  0
 20 21  1  0
  1 23  1  0
  4 24  1  0
  7 25  1  0
  9 26  1  0
  9 27  1  0
 10 28  1  0
 11 29  1  0
 11 30  1  0
 12 31  1  0
 12 32  1  0
 13 33  1  0
 13 34  1  0
 14 35  1  0
 17 36  1  0
 19 37  1  0
 20 38  1  0
 22 39  1  0
A    1
CAH
A    2
CAS
A    3
CLB
A    4
CAG
A    5
CAT
A    6
CLC
A    7
CAI
A    8
CAU
A    9
CAM
A   10
NAN
A   11
CAK
A   12
CAJ
A   13
CAL
A   14
NAO
A   15
CAR
A   16
OAA
A   17
NAP
A   18
CAV
A   19
CAE
A   20
CAD
A   21
SAQ
A   22
CAF
M  END
