4PY4_XL2_A_1901
     RDKit          3D

 44 46  0  0  0  0  0  0  0  0999 V2000
  -24.2510   -7.1500   10.8830 C   0  0  0  0  0  0  0  0  0  0  0  0
  -24.6600   -7.6430    9.6000 C   0  0  0  0  0  0  0  0  0  0  0  0
  -24.6270   -9.0380    9.3590 C   0  0  0  0  0  0  0  0  0  0  0  0
  -24.1970   -9.9270   10.3770 C   0  0  0  0  0  0  0  0  0  0  0  0
  -23.7770   -9.4570   11.6650 C   0  0  0  0  0  0  0  0  0  0  0  0
  -23.8150   -8.0550   11.9040 C   0  0  0  0  0  0  0  0  0  0  0  0
  -24.0270  -11.6330   10.4510 S   0  0  0  0  0  0  0  0  0  0  0  0
  -23.4420  -11.7740   12.0440 C   0  0  0  0  0  0  0  0  0  0  0  0
  -23.3780  -10.4770   12.5530 N   0  0  0  0  0  0  0  0  0  0  0  0
  -23.3870   -7.5050   13.2360 C   0  0  0  0  0  0  0  0  0  0  0  0
  -23.0050   -8.2620   14.0830 O   0  0  0  0  0  0  0  0  0  0  0  0
  -23.4230   -6.1230   13.4550 N   0  0  0  0  0  0  0  0  0  0  0  0
  -25.0680   -6.8280    8.6200 F   0  0  0  0  0  0  0  0  0  0  0  0
  -23.1180  -13.0600   12.6580 N   0  0  0  0  0  0  0  0  0  0  0  0
  -22.3690  -13.2050   13.8350 C   0  0  0  0  0  0  0  0  0  0  0  0
  -21.2390  -14.0710   13.8310 C   0  0  0  0  0  0  0  0  0  0  0  0
  -20.4980  -14.2390   15.0030 C   0  0  0  0  0  0  0  0  0  0  0  0
  -20.8710  -13.5530   16.2010 C   0  0  0  0  0  0  0  0  0  0  0  0
  -21.9740  -12.7180   16.1890 C   0  0  0  0  0  0  0  0  0  0  0  0
  -22.7490  -12.5410   14.9800 C   0  0  0  0  0  0  0  0  0  0  0  0
  -20.0560  -13.7360   17.4650 C   0  0  0  0  0  0  0  0  0  0  0  0
  -20.8420  -13.1380   18.5840 C   0  0  0  0  0  0  0  0  0  0  0  0
  -19.6300  -15.1140   17.6700 N   0  0  0  0  0  0  0  0  0  0  0  0
  -19.6180  -15.5060   19.0400 C   0  0  0  0  0  0  0  0  0  0  0  0
  -18.2580  -15.3470   17.1710 C   0  0  0  0  0  0  0  0  0  0  0  0
  -24.2723   -6.0688   11.0845 H   0  0  0  0  0  0  0  0  0  0  0  0
  -24.9356   -9.4331    8.3799 H   0  0  0  0  0  0  0  0  0  0  0  0
  -23.4326   -5.7540   14.4166 H   0  0  0  0  0  0  0  0  0  0  0  0
  -23.4399   -5.4750   12.6546 H   0  0  0  0  0  0  0  0  0  0  0  0
  -23.4616  -13.9145   12.1969 H   0  0  0  0  0  0  0  0  0  0  0  0
  -20.9518  -14.6035   12.9123 H   0  0  0  0  0  0  0  0  0  0  0  0
  -19.6215  -14.9036   15.0045 H   0  0  0  0  0  0  0  0  0  0  0  0
  -22.2642  -12.1843   17.1060 H   0  0  0  0  0  0  0  0  0  0  0  0
  -23.6312  -11.8839   14.9756 H   0  0  0  0  0  0  0  0  0  0  0  0
  -19.0940  -13.2072   17.3950 H   0  0  0  0  0  0  0  0  0  0  0  0
  -20.4163  -13.4619   19.5452 H   0  0  0  0  0  0  0  0  0  0  0  0
  -20.8007  -12.0409   18.5158 H   0  0  0  0  0  0  0  0  0  0  0  0
  -21.8883  -13.4705   18.5158 H   0  0  0  0  0  0  0  0  0  0  0  0
  -19.6454  -14.6103   19.6779 H   0  0  0  0  0  0  0  0  0  0  0  0
  -20.4974  -16.1326   19.2498 H   0  0  0  0  0  0  0  0  0  0  0  0
  -18.7019  -16.0777   19.2498 H   0  0  0  0  0  0  0  0  0  0  0  0
  -17.5726  -15.4634   18.0235 H   0  0  0  0  0  0  0  0  0  0  0  0
  -18.2406  -16.2610   16.5591 H   0  0  0  0  0  0  0  0  0  0  0  0
  -17.9399  -14.4900   16.5591 H   0  0  0  0  0  0  0  0  0  0  0  0
 25 23  1  0
 23 24  1  0
 23 21  1  0
 22 21  1  0
 21 18  1  0
 18 19  2  0
 18 17  1  0
 19 20  1  0
 17 16  2  0
 20 15  2  0
 16 15  1  0
 15 14  1  0
 11 10  2  0
 14  8  1  0
 12 10  1  0
 10  6  1  0
  9  8  2  0
  9  5  1  0
  8  7  1  0
  6  5  1  0
  6  1  2  0
  5  4  2  0
  7  4  1  0
  1  2  1  0
  4  3  1  0
  2  3  2  0
  2 13  1  0
  1 26  1  0
  3 27  1  0
 12 28  1  0
 12 29  1  0
 14 30  1  0
 16 31  1  0
 17 32  1  0
 19 33  1  0
 20 34  1  0
 21 35  1  0
 22 36  1  0
 22 37  1  0
 22 38  1  0
 24 39  1  0
 24 40  1  0
 24 41  1  0
 25 42  1  0
 25 43  1  0
 25 44  1  0
A    1
C01
A    2
C02
A    3
C03
A    4
C04
A    5
C05
A    6
C06
A    7
S07
A    8
C08
A    9
N09
A   10
C10
A   11
O11
A   12
N12
A   13
F13
A   14
N14
A   15
C15
A   16
C16
A   17
C17
A   18
C18
A   19
C19
A   20
C20
A   21
C21
A   22
C22
A   23
N23
A   24
C24
A   25
C25
M  END
