4PYA_2X3_A_208
     RDKit          3D

 48 51  0  0  0  0  0  0  0  0999 V2000
  -51.9740   17.1140  190.2030 C   0  0  0  0  0  0  0  0  0  0  0  0
  -51.7960   15.0180  189.2350 C   0  0  0  0  0  0  0  0  0  0  0  0
  -53.1310   14.8670  189.1570 C   0  0  0  0  0  0  0  0  0  0  0  0
  -53.9410   15.8540  189.5770 C   0  0  0  0  0  0  0  0  0  0  0  0
  -52.1450   12.9990  188.2120 C   0  0  0  0  0  0  0  0  0  0  0  0
  -55.1740   15.7590  189.5000 O   0  0  0  0  0  0  0  0  0  0  0  0
  -47.7800    7.0290  184.4650 O   0  0  0  0  0  0  0  0  0  0  0  0
  -46.4580    6.7090  185.0290 P   0  0  0  0  0  0  0  0  0  0  0  0
  -45.6930    5.6040  184.4250 O   0  0  0  0  0  0  0  0  0  0  0  0
  -46.1780    7.0780  186.4290 O   0  0  0  0  0  0  0  0  0  0  0  0
  -45.6260    7.9150  184.3400 O   0  0  0  0  0  0  0  0  0  0  0  0
  -46.2390    9.4010  184.1650 P   0  0  0  0  0  0  0  0  0  0  0  0
  -47.0460    9.4230  182.9250 O   0  0  0  0  0  0  0  0  0  0  0  0
  -45.1480   10.3840  184.3470 O   0  0  0  0  0  0  0  0  0  0  0  0
  -47.2340    9.5320  185.4470 O   0  0  0  0  0  0  0  0  0  0  0  0
  -48.5870   10.4110  185.3760 P   0  0  0  0  0  0  0  0  0  0  0  0
  -49.4130    9.9470  184.2400 O   0  0  0  0  0  0  0  0  0  0  0  0
  -48.2270   11.8430  185.4880 O   0  0  0  0  0  0  0  0  0  0  0  0
  -49.3520    9.9560  186.7280 O   0  0  0  0  0  0  0  0  0  0  0  0
  -50.6240   10.5180  187.0910 C   0  0  0  0  0  0  0  0  0  0  0  0
  -50.4820   11.0970  188.5020 C   0  0  0  0  0  0  0  0  0  0  0  0
  -49.5510   12.1910  188.4890 O   0  0  0  0  0  0  0  0  0  0  0  0
  -50.0970   13.1310  189.4190 C   0  0  0  0  0  0  0  0  0  0  0  0
  -51.2080   13.8990  188.8790 N   0  0  0  0  0  0  0  0  0  0  0  0
  -51.2200   16.0940  189.7810 N   0  0  0  0  0  0  0  0  0  0  0  0
  -51.3810   18.1940  190.7040 N   0  0  0  0  0  0  0  0  0  0  0  0
  -53.3720   17.0190  190.1030 N   0  0  0  0  0  0  0  0  0  0  0  0
  -53.4090   13.6560  188.6370 N   0  0  0  0  0  0  0  0  0  0  0  0
  -51.7440   11.7600  189.0550 C   0  0  0  0  0  0  0  0  0  0  0  0
  -52.8180   10.8110  189.3000 O   0  0  0  0  0  0  0  0  0  0  0  0
  -51.1080   12.3410  190.2770 C   0  0  0  0  0  0  0  0  0  0  0  0
  -50.5030   11.3280  191.0780 O   0  0  0  0  0  0  0  0  0  0  0  0
  -52.1867   12.7816  187.1345 H   0  0  0  0  0  0  0  0  0  0  0  0
  -48.4238    7.1848  185.2008 H   0  0  0  0  0  0  0  0  0  0  0  0
  -46.6510    6.4547  187.0355 H   0  0  0  0  0  0  0  0  0  0  0  0
  -44.9900   10.5264  185.3139 H   0  0  0  0  0  0  0  0  0  0  0  0
  -48.1640   12.0937  186.4437 H   0  0  0  0  0  0  0  0  0  0  0  0
  -50.8991   11.3142  186.3836 H   0  0  0  0  0  0  0  0  0  0  0  0
  -51.4106    9.7496  187.0634 H   0  0  0  0  0  0  0  0  0  0  0  0
  -50.1941   10.2255  189.1083 H   0  0  0  0  0  0  0  0  0  0  0  0
  -49.2228   13.6712  189.8113 H   0  0  0  0  0  0  0  0  0  0  0  0
  -51.3131   18.3177  191.7243 H   0  0  0  0  0  0  0  0  0  0  0  0
  -50.9897   18.9067  190.0717 H   0  0  0  0  0  0  0  0  0  0  0  0
  -53.9709   17.7975  190.4131 H   0  0  0  0  0  0  0  0  0  0  0  0
  -54.3508   13.2486  188.5477 H   0  0  0  0  0  0  0  0  0  0  0  0
  -52.9439   10.6998  190.2756 H   0  0  0  0  0  0  0  0  0  0  0  0
  -51.7093   12.8809  191.0233 H   0  0  0  0  0  0  0  0  0  0  0  0
  -50.6318   11.5437  192.0356 H   0  0  0  0  0  0  0  0  0  0  0  0
  1 26  1  0
  2 25  1  0
  3  2  2  0
  3  4  1  0
  4 27  1  0
  5 28  1  0
  5 24  1  0
  5 29  1  0
  6  4  2  0
  8  7  1  0
  8 10  1  0
  8 11  1  0
  9  8  2  0
 11 12  1  0
 12 13  2  0
 12 15  1  0
 12 14  1  0
 16 15  1  0
 16 19  1  0
 16 18  1  0
 17 16  2  0
 19 20  1  0
 20 21  1  0
 21 22  1  0
 21 29  1  0
 22 23  1  0
 23 31  1  0
 24  2  1  0
 24 23  1  0
 25  1  2  0
 27  1  1  0
 28  3  1  0
 29 30  1  0
 29 31  1  0
 31 32  1  0
  5 33  1  0
  7 34  1  0
 10 35  1  0
 14 36  1  0
 18 37  1  0
 20 38  1  0
 20 39  1  0
 21 40  1  0
 23 41  1  0
 26 42  1  0
 26 43  1  0
 27 44  1  0
 28 45  1  0
 30 46  1  0
 31 47  1  0
 32 48  1  0
A    1
C2
A    2
C4
A    3
C5
A    4
C6
A    5
C8
A    6
O6
A    7
OBD
A    8
PBC
A    9
OBE
A   10
OBF
A   11
OAZ
A   12
PAY
A   13
OBA
A   14
OBB
A   15
OAV
A   16
PAU
A   17
OAW
A   18
OAX
A   19
OAT
A   20
CAR
A   21
CAP
A   22
OAO
A   23
CAN
A   24
N9
A   25
N3
A   26
N2
A   27
N1
A   28
N7
A   29
CAL
A   30
OAS
A   31
CAM
A   32
OAQ
M  END
