2QIE_8CS_A_501
     RDKit          3D

 35 38  0  0  0  0  0  0  0  0999 V2000
   32.8930   43.6310   28.2130 O   0  0  0  0  0  0  0  0  0  0  0  0
   32.9220   44.2690   27.1360 C   0  0  0  0  0  0  0  0  0  0  0  0
   31.7900   44.3590   26.3280 C   0  0  0  0  0  0  0  0  0  0  0  0
   30.5790   43.7520   26.6760 N   0  0  0  0  0  0  0  0  0  0  0  0
   34.0680   44.8800   26.7370 N   0  0  0  0  0  0  0  0  0  0  0  0
   34.1100   45.5700   25.5630 C   0  0  0  0  0  0  0  0  0  0  0  0
   35.2600   46.1730   25.1820 N   0  0  0  0  0  0  0  0  0  0  0  0
   33.0100   45.6600   24.7730 N   0  0  0  0  0  0  0  0  0  0  0  0
   31.8530   45.0590   25.1410 C   0  0  0  0  0  0  0  0  0  0  0  0
   30.7130   45.1500   24.3330 N   0  0  0  0  0  0  0  0  0  0  0  0
   29.4750   44.5700   24.6840 C   0  0  0  0  0  0  0  0  0  0  0  0
   29.6450   43.4150   25.6860 C   0  0  0  0  0  0  0  0  0  0  0  0
   28.3310   43.0550   26.3330 C   0  0  0  0  0  0  0  0  0  0  0  0
   28.0540   41.9050   26.6230 O   0  0  0  0  0  0  0  0  0  0  0  0
   27.3390   44.1210   26.6580 C   0  0  0  0  0  0  0  0  0  0  0  0
   27.6850   44.6350   27.9420 O   0  0  0  0  0  0  0  0  0  0  0  0
   28.6680   45.6070   25.2300 O   0  0  0  0  0  0  0  0  0  0  0  0
   27.3420   45.2070   25.5780 C   0  0  0  0  0  0  0  0  0  0  0  0
   26.5490   46.4320   26.0350 C   0  0  0  0  0  0  0  0  0  0  0  0
   27.0310   46.8790   27.2980 O   0  0  0  0  0  0  0  0  0  0  0  0
   26.9020   45.8950   28.5530 P   0  0  0  0  0  0  0  0  0  0  0  0
   25.4490   45.5320   28.7020 O   0  0  0  0  0  0  0  0  0  0  0  0
   27.7110   46.4310   29.7170 O   0  0  0  0  0  0  0  0  0  0  0  0
   30.3721   43.5514   27.6649 H   0  0  0  0  0  0  0  0  0  0  0  0
   34.9108   44.8212   27.3261 H   0  0  0  0  0  0  0  0  0  0  0  0
   35.9201   46.5191   25.8929 H   0  0  0  0  0  0  0  0  0  0  0  0
   35.4752   46.2859   24.1811 H   0  0  0  0  0  0  0  0  0  0  0  0
   30.7809   45.6632   23.4426 H   0  0  0  0  0  0  0  0  0  0  0  0
   28.9996   44.1302   23.7949 H   0  0  0  0  0  0  0  0  0  0  0  0
   30.0110   42.5425   25.1250 H   0  0  0  0  0  0  0  0  0  0  0  0
   26.3146   43.7210   26.6832 H   0  0  0  0  0  0  0  0  0  0  0  0
   26.8644   44.7714   24.6880 H   0  0  0  0  0  0  0  0  0  0  0  0
   26.6641   47.2377   25.2950 H   0  0  0  0  0  0  0  0  0  0  0  0
   25.4870   46.1612   26.1284 H   0  0  0  0  0  0  0  0  0  0  0  0
   27.2895   46.1518   30.5682 H   0  0  0  0  0  0  0  0  0  0  0  0
  1  2  2  0
  2  5  1  0
  2  3  1  0
  3  4  1  0
  3  9  2  0
  4 12  1  0
  5  6  1  0
  6  7  1  0
  6  8  2  0
  8  9  1  0
  9 10  1  0
 10 11  1  0
 11 12  1  0
 11 17  1  0
 12 13  1  0
 13 15  1  0
 13 14  2  0
 15 16  1  0
 15 18  1  0
 16 21  1  0
 17 18  1  0
 18 19  1  0
 19 20  1  0
 20 21  1  0
 21 22  2  0
 21 23  1  0
  4 24  1  0
  5 25  1  0
  7 26  1  0
  7 27  1  0
 10 28  1  0
 11 29  1  0
 12 30  1  0
 15 31  1  0
 18 32  1  0
 19 33  1  0
 19 34  1  0
 23 35  1  0
A    1
O4'
A    2
C4'
A    3
C4A
A    4
N5'
A    5
N3'
A    6
C2'
A    7
N2'
A    8
N1'
A    9
C4B
A   10
N8'
A   11
C7
A   12
C6'
A   13
C7'
A   14
O10
A   15
C8'
A   16
O3
A   17
O9'
A   18
C9'
A   19
C10
A   20
O1
A   21
P
A   22
O2
A   23
O4
M  END
