1B87_ACO_A_200
     RDKit          3D

 89 91  0  0  0  0  0  0  0  0999 V2000
   55.3680   26.6530   21.1960 N   0  0  0  0  0  0  0  0  0  0  0  0
   54.8170   27.1800   20.1020 C   0  0  0  0  0  0  0  0  0  0  0  0
   53.8670   28.0980   20.0200 N   0  0  0  0  0  0  0  0  0  0  0  0
   53.4610   28.4870   21.2610 C   0  0  0  0  0  0  0  0  0  0  0  0
   53.9290   28.0410   22.4630 C   0  0  0  0  0  0  0  0  0  0  0  0
   54.9490   27.0550   22.4170 C   0  0  0  0  0  0  0  0  0  0  0  0
   55.4990   26.5250   23.5120 N   0  0  0  0  0  0  0  0  0  0  0  0
   53.2700   28.6710   23.5120 N   0  0  0  0  0  0  0  0  0  0  0  0
   52.4370   29.4750   22.9140 C   0  0  0  0  0  0  0  0  0  0  0  0
   52.4990   29.4160   21.5480 N   0  0  0  0  0  0  0  0  0  0  0  0
   51.7230   30.1640   20.5650 C   0  0  0  0  0  0  0  0  0  0  0  0
   50.2280   29.9250   20.6960 C   0  0  0  0  0  0  0  0  0  0  0  0
   49.8680   28.7890   19.9070 O   0  0  0  0  0  0  0  0  0  0  0  0
   49.5690   31.1730   20.1240 C   0  0  0  0  0  0  0  0  0  0  0  0
   49.6680   31.1440   18.6870 O   0  0  0  0  0  0  0  0  0  0  0  0
   48.4120   31.5880   17.7590 P   0  0  0  0  0  0  0  0  0  0  0  0
   47.3410   30.6220   18.1250 O   0  0  0  0  0  0  0  0  0  0  0  0
   48.9090   31.4500   16.3700 O   0  0  0  0  0  0  0  0  0  0  0  0
   48.1370   32.9890   18.1680 O   0  0  0  0  0  0  0  0  0  0  0  0
   50.5210   32.2530   20.6590 C   0  0  0  0  0  0  0  0  0  0  0  0
   51.7850   31.5850   20.7000 O   0  0  0  0  0  0  0  0  0  0  0  0
   50.1550   32.8210   22.0380 C   0  0  0  0  0  0  0  0  0  0  0  0
   49.9570   31.7470   22.9570 O   0  0  0  0  0  0  0  0  0  0  0  0
   49.5070   31.9780   24.4910 P   0  0  0  0  0  0  0  0  0  0  0  0
   48.1270   31.4690   24.6280 O   0  0  0  0  0  0  0  0  0  0  0  0
   49.8160   33.3730   24.8580 O   0  0  0  0  0  0  0  0  0  0  0  0
   50.5290   30.9780   25.2530 O   0  0  0  0  0  0  0  0  0  0  0  0
   50.5180   30.6120   26.8100 P   0  0  0  0  0  0  0  0  0  0  0  0
   50.3540   29.1570   26.9330 O   0  0  0  0  0  0  0  0  0  0  0  0
   49.5980   31.5240   27.5060 O   0  0  0  0  0  0  0  0  0  0  0  0
   52.0140   30.9980   27.2690 O   0  0  0  0  0  0  0  0  0  0  0  0
   54.1190   29.9260   27.6210 C   0  0  0  0  0  0  0  0  0  0  0  0
   53.1740   30.4970   26.5880 C   0  0  0  0  0  0  0  0  0  0  0  0
   55.3480   29.2950   26.9430 C   0  0  0  0  0  0  0  0  0  0  0  0
   54.5710   31.0440   28.5930 C   0  0  0  0  0  0  0  0  0  0  0  0
   53.3230   28.8630   28.3860 C   0  0  0  0  0  0  0  0  0  0  0  0
   52.8890   27.7920   27.5290 O   0  0  0  0  0  0  0  0  0  0  0  0
   54.1220   28.3850   29.5850 C   0  0  0  0  0  0  0  0  0  0  0  0
   54.0630   28.9980   30.6530 O   0  0  0  0  0  0  0  0  0  0  0  0
   54.8660   27.2960   29.4010 N   0  0  0  0  0  0  0  0  0  0  0  0
   55.6440   26.6440   30.4370 C   0  0  0  0  0  0  0  0  0  0  0  0
   56.8320   27.4910   30.8760 C   0  0  0  0  0  0  0  0  0  0  0  0
   57.8260   27.7550   29.7570 C   0  0  0  0  0  0  0  0  0  0  0  0
   58.1510   26.8410   28.9830 O   0  0  0  0  0  0  0  0  0  0  0  0
   58.3210   29.0030   29.6810 N   0  0  0  0  0  0  0  0  0  0  0  0
   59.5110   29.3410   28.9360 C   0  0  0  0  0  0  0  0  0  0  0  0
   59.9040   30.7900   29.1010 C   0  0  0  0  0  0  0  0  0  0  0  0
   61.6910   30.9640   29.0260 S   0  0  0  0  0  0  0  0  0  0  0  0
   62.0080   31.7470   30.6180 C   0  0  0  0  0  0  0  0  0  0  0  0
   62.2320   31.0660   31.6320 O   0  0  0  0  0  0  0  0  0  0  0  0
   61.9890   33.2640   30.7040 C   0  0  0  0  0  0  0  0  0  0  0  0
   55.2020   26.8028   19.1431 H   0  0  0  0  0  0  0  0  0  0  0  0
   55.1843   26.8282   24.4447 H   0  0  0  0  0  0  0  0  0  0  0  0
   56.2380   25.8129   23.4241 H   0  0  0  0  0  0  0  0  0  0  0  0
   51.7482   30.1392   23.4565 H   0  0  0  0  0  0  0  0  0  0  0  0
   52.1717   29.8074   19.6261 H   0  0  0  0  0  0  0  0  0  0  0  0
   49.9212   29.7384   21.7357 H   0  0  0  0  0  0  0  0  0  0  0  0
   49.6292   28.0355   20.5031 H   0  0  0  0  0  0  0  0  0  0  0  0
   48.5077   31.3022   20.3828 H   0  0  0  0  0  0  0  0  0  0  0  0
   49.8628   31.1852   16.3856 H   0  0  0  0  0  0  0  0  0  0  0  0
   48.1254   33.0481   19.1562 H   0  0  0  0  0  0  0  0  0  0  0  0
   50.4925   33.1443   20.0150 H   0  0  0  0  0  0  0  0  0  0  0  0
   50.9707   33.4656   22.3974 H   0  0  0  0  0  0  0  0  0  0  0  0
   49.2300   33.4108   21.9581 H   0  0  0  0  0  0  0  0  0  0  0  0
   49.8349   33.4583   25.8441 H   0  0  0  0  0  0  0  0  0  0  0  0
   49.7053   31.4177   28.4844 H   0  0  0  0  0  0  0  0  0  0  0  0
   52.8783   29.7100   25.8786 H   0  0  0  0  0  0  0  0  0  0  0  0
   53.6661   31.3071   26.0298 H   0  0  0  0  0  0  0  0  0  0  0  0
   56.0473   28.9360   27.7125 H   0  0  0  0  0  0  0  0  0  0  0  0
   55.0274   28.4500   26.3159 H   0  0  0  0  0  0  0  0  0  0  0  0
   55.8478   30.0480   26.3159 H   0  0  0  0  0  0  0  0  0  0  0  0
   54.4341   30.7053   29.6306 H   0  0  0  0  0  0  0  0  0  0  0  0
   55.6326   31.2737   28.4194 H   0  0  0  0  0  0  0  0  0  0  0  0
   53.9673   31.9470   28.4194 H   0  0  0  0  0  0  0  0  0  0  0  0
   52.3965   29.3184   28.7658 H   0  0  0  0  0  0  0  0  0  0  0  0
   52.5806   27.0310   28.0821 H   0  0  0  0  0  0  0  0  0  0  0  0
   54.8907   26.8877   28.4557 H   0  0  0  0  0  0  0  0  0  0  0  0
   54.9959   26.4630   31.3072 H   0  0  0  0  0  0  0  0  0  0  0  0
   56.0324   25.6999   30.0273 H   0  0  0  0  0  0  0  0  0  0  0  0
   56.4556   28.4568   31.2442 H   0  0  0  0  0  0  0  0  0  0  0  0
   57.3627   26.9286   31.6583 H   0  0  0  0  0  0  0  0  0  0  0  0
   57.8261   29.7563   30.1796 H   0  0  0  0  0  0  0  0  0  0  0  0
   60.3392   28.7085   29.2880 H   0  0  0  0  0  0  0  0  0  0  0  0
   59.2978   29.1716   27.8702 H   0  0  0  0  0  0  0  0  0  0  0  0
   59.4475   31.3838   28.2954 H   0  0  0  0  0  0  0  0  0  0  0  0
   59.5505   31.1474   30.0794 H   0  0  0  0  0  0  0  0  0  0  0  0
   61.9852   33.5714   31.7602 H   0  0  0  0  0  0  0  0  0  0  0  0
   62.8821   33.6706   30.2070 H   0  0  0  0  0  0  0  0  0  0  0  0
   61.0860   33.6481   30.2070 H   0  0  0  0  0  0  0  0  0  0  0  0
  1  2  2  0
  1  6  1  0
  2  3  1  0
  3  4  2  0
  4  5  1  0
  4 10  1  0
  5  6  2  0
  5  8  1  0
  6  7  1  0
  8  9  2  0
  9 10  1  0
 10 11  1  0
 11 12  1  0
 11 21  1  0
 12 13  1  0
 12 14  1  0
 14 15  1  0
 14 20  1  0
 15 16  1  0
 16 17  2  0
 16 18  1  0
 16 19  1  0
 20 21  1  0
 20 22  1  0
 22 23  1  0
 23 24  1  0
 24 25  2  0
 24 26  1  0
 24 27  1  0
 27 28  1  0
 28 29  2  0
 28 30  1  0
 28 31  1  0
 31 33  1  0
 32 33  1  0
 32 34  1  0
 32 35  1  0
 32 36  1  0
 36 37  1  0
 36 38  1  0
 38 39  2  0
 38 40  1  0
 40 41  1  0
 41 42  1  0
 42 43  1  0
 43 44  2  0
 43 45  1  0
 45 46  1  0
 46 47  1  0
 47 48  1  0
 48 49  1  0
 49 50  2  0
 49 51  1  0
  2 52  1  0
  7 53  1  0
  7 54  1  0
  9 55  1  0
 11 56  1  0
 12 57  1  0
 13 58  1  0
 14 59  1  0
 18 60  1  0
 19 61  1  0
 20 62  1  0
 22 63  1  0
 22 64  1  0
 26 65  1  0
 30 66  1  0
 33 67  1  0
 33 68  1  0
 34 69  1  0
 34 70  1  0
 34 71  1  0
 35 72  1  0
 35 73  1  0
 35 74  1  0
 36 75  1  0
 37 76  1  0
 40 77  1  0
 41 78  1  0
 41 79  1  0
 42 80  1  0
 42 81  1  0
 45 82  1  0
 46 83  1  0
 46 84  1  0
 47 85  1  0
 47 86  1  0
 51 87  1  0
 51 88  1  0
 51 89  1  0
A    1
N1A
A    2
C2A
A    3
N3A
A    4
C4A
A    5
C5A
A    6
C6A
A    7
N6A
A    8
N7A
A    9
C8A
A   10
N9A
A   11
C1B
A   12
C2B
A   13
O2B
A   14
C3B
A   15
O3B
A   16
P3B
A   17
O7A
A   18
O8A
A   19
O9A
A   20
C4B
A   21
O4B
A   22
C5B
A   23
O5B
A   24
P1A
A   25
O1A
A   26
O2A
A   27
O3A
A   28
P2A
A   29
O4A
A   30
O5A
A   31
O6A
A   32
CBP
A   33
CCP
A   34
CDP
A   35
CEP
A   36
CAP
A   37
OAP
A   38
C9P
A   39
O9P
A   40
N8P
A   41
C7P
A   42
C6P
A   43
C5P
A   44
O5P
A   45
N4P
A   46
C3P
A   47
C2P
A   48
S1P
A   49
C
A   50
O
A   51
CH3
M  END
