4PZY_2XR_B_203
     RDKit          3D

 21 22  0  0  0  0  0  0  0  0999 V2000
   16.2890   -2.7170   -6.2180 C   0  0  0  0  0  0  0  0  0  0  0  0
   17.6810   -2.3140   -6.5580 C   0  0  0  0  0  0  0  0  0  0  0  0
   18.3310   -3.0510   -7.2890 O   0  0  0  0  0  0  0  0  0  0  0  0
   18.2910   -1.0400   -6.0600 C   0  0  0  0  0  0  0  0  0  0  0  0
   19.6850   -0.6950   -6.1110 C   0  0  0  0  0  0  0  0  0  0  0  0
   20.8410   -1.3740   -6.5840 C   0  0  0  0  0  0  0  0  0  0  0  0
   22.0970   -0.7790   -6.4990 C   0  0  0  0  0  0  0  0  0  0  0  0
   22.2280    0.5000   -5.9350 C   0  0  0  0  0  0  0  0  0  0  0  0
   21.0980    1.1710   -5.4710 C   0  0  0  0  0  0  0  0  0  0  0  0
   19.8100    0.5630   -5.5630 C   0  0  0  0  0  0  0  0  0  0  0  0
   18.5540    0.9840   -5.1910 N   0  0  0  0  0  0  0  0  0  0  0  0
   17.6350    0.0490   -5.4770 C   0  0  0  0  0  0  0  0  0  0  0  0
   16.1737   -2.7504   -5.1246 H   0  0  0  0  0  0  0  0  0  0  0  0
   15.5826   -1.9865   -6.6391 H   0  0  0  0  0  0  0  0  0  0  0  0
   16.0821   -3.7119   -6.6391 H   0  0  0  0  0  0  0  0  0  0  0  0
   20.7423   -2.3786   -7.0211 H   0  0  0  0  0  0  0  0  0  0  0  0
   22.9848   -1.3100   -6.8730 H   0  0  0  0  0  0  0  0  0  0  0  0
   23.2192    0.9709   -5.8596 H   0  0  0  0  0  0  0  0  0  0  0  0
   21.1993    2.1743   -5.0316 H   0  0  0  0  0  0  0  0  0  0  0  0
   18.3474    1.8929   -4.7527 H   0  0  0  0  0  0  0  0  0  0  0  0
   16.5544    0.1256   -5.2862 H   0  0  0  0  0  0  0  0  0  0  0  0
  3  2  2  0
  6  7  1  0
  6  5  2  0
  2  1  1  0
  2  4  1  0
  7  8  2  0
  5  4  1  0
  5 10  1  0
  4 12  2  0
  8  9  1  0
 10  9  2  0
 10 11  1  0
 12 11  1  0
  1 13  1  0
  1 14  1  0
  1 15  1  0
  6 16  1  0
  7 17  1  0
  8 18  1  0
  9 19  1  0
 11 20  1  0
 12 21  1  0
A    1
CAH
A    2
CAI
A    3
OAJ
A    4
CAN
A    5
CAO
A    6
CAP
A    7
CAQ
A    8
CAR
A    9
CAS
A   10
CAK
A   11
NAL
A   12
CAM
M  END
