4Q0O_2XC_A_802
     RDKit          3D

 44 46  0  0  0  0  0  0  0  0999 V2000
   -0.8050  -30.5270  -13.9140 C   0  0  0  0  0  0  0  0  0  0  0  0
   -0.2220  -29.4480  -14.5800 C   0  0  0  0  0  0  0  0  0  0  0  0
   -0.9190  -28.2830  -14.7440 C   0  0  0  0  0  0  0  0  0  0  0  0
   -2.2440  -28.1210  -14.3010 C   0  0  0  0  0  0  0  0  0  0  0  0
   -2.8260  -29.2160  -13.6150 C   0  0  0  0  0  0  0  0  0  0  0  0
   -2.0810  -30.4240  -13.4280 C   0  0  0  0  0  0  0  0  0  0  0  0
   -2.5000  -31.6250  -12.7880 C   0  0  0  0  0  0  0  0  0  0  0  0
   -3.8830  -31.4660  -12.4500 C   0  0  0  0  0  0  0  0  0  0  0  0
   -1.6530  -31.9290  -11.5170 C   0  0  0  0  0  0  0  0  0  0  0  0
   -2.5120  -32.5670  -10.4370 C   0  0  0  0  0  0  0  0  0  0  0  0
   -3.5200  -33.5430  -11.1160 C   0  0  0  0  0  0  0  0  0  0  0  0
   -4.5320  -32.6290  -11.7300 N   0  0  0  0  0  0  0  0  0  0  0  0
   -5.5180  -32.2550  -10.9320 C   0  0  0  0  0  0  0  0  0  0  0  0
   -6.2160  -30.8880  -10.9310 C   0  0  0  0  0  0  0  0  0  0  0  0
   -7.4330  -30.6340  -10.0600 C   0  0  0  0  0  0  0  0  0  0  0  0
   -7.9690  -31.5650   -9.4170 O   0  0  0  0  0  0  0  0  0  0  0  0
   -8.0380  -29.3710  -10.1070 C   0  0  0  0  0  0  0  0  0  0  0  0
   -7.4940  -28.2520  -10.7970 C   0  0  0  0  0  0  0  0  0  0  0  0
   -8.1830  -27.0430  -10.8140 C   0  0  0  0  0  0  0  0  0  0  0  0
   -9.4310  -26.9210  -10.2070 C   0  0  0  0  0  0  0  0  0  0  0  0
   -9.9910  -28.0350   -9.5670 C   0  0  0  0  0  0  0  0  0  0  0  0
   -9.2900  -29.2280   -9.5280 C   0  0  0  0  0  0  0  0  0  0  0  0
   -9.8660  -30.3390   -8.8980 O   0  0  0  0  0  0  0  0  0  0  0  0
   -0.2392  -31.4607  -13.7794 H   0  0  0  0  0  0  0  0  0  0  0  0
    0.8013  -29.5349  -14.9742 H   0  0  0  0  0  0  0  0  0  0  0  0
   -0.4228  -27.4376  -15.2431 H   0  0  0  0  0  0  0  0  0  0  0  0
   -2.8015  -27.1895  -14.4784 H   0  0  0  0  0  0  0  0  0  0  0  0
   -3.8518  -29.1376  -13.2256 H   0  0  0  0  0  0  0  0  0  0  0  0
   -2.3568  -32.4793  -13.4660 H   0  0  0  0  0  0  0  0  0  0  0  0
   -3.9712  -30.5799  -11.8043 H   0  0  0  0  0  0  0  0  0  0  0  0
   -4.4132  -31.3806  -13.4100 H   0  0  0  0  0  0  0  0  0  0  0  0
   -0.8375  -32.6176  -11.7831 H   0  0  0  0  0  0  0  0  0  0  0  0
   -1.2445  -30.9836  -11.1306 H   0  0  0  0  0  0  0  0  0  0  0  0
   -1.8729  -33.1232   -9.7354 H   0  0  0  0  0  0  0  0  0  0  0  0
   -3.0573  -31.7894   -9.8821 H   0  0  0  0  0  0  0  0  0  0  0  0
   -3.9880  -34.2048  -10.3724 H   0  0  0  0  0  0  0  0  0  0  0  0
   -3.0430  -34.2088  -11.8503 H   0  0  0  0  0  0  0  0  0  0  0  0
   -5.8719  -32.9945  -10.1986 H   0  0  0  0  0  0  0  0  0  0  0  0
   -5.8289  -30.0810  -11.5705 H   0  0  0  0  0  0  0  0  0  0  0  0
   -6.5289  -28.3425  -11.3170 H   0  0  0  0  0  0  0  0  0  0  0  0
   -7.7358  -26.1712  -11.3139 H   0  0  0  0  0  0  0  0  0  0  0  0
   -9.9701  -25.9624  -10.2298 H   0  0  0  0  0  0  0  0  0  0  0  0
  -10.9832  -27.9617   -9.0978 H   0  0  0  0  0  0  0  0  0  0  0  0
   -9.8921  -30.3893   -7.9096 H   0  0  0  0  0  0  0  0  0  0  0  0
  3  2  1  0
  3  4  2  0
  2  1  2  0
  4  5  1  0
  1  6  1  0
  5  6  2  0
  6  7  1  0
  7  8  1  0
  7  9  1  0
  8 12  1  0
 12 11  1  0
 12 13  1  0
  9 10  1  0
 11 10  1  0
 13 14  2  0
 14 15  1  0
 19 18  2  0
 19 20  1  0
 18 17  1  0
 20 21  2  0
 17 15  1  0
 17 22  2  0
 15 16  2  0
 21 22  1  0
 22 23  1  0
  1 24  1  0
  2 25  1  0
  3 26  1  0
  4 27  1  0
  5 28  1  0
  7 29  1  0
  8 30  1  0
  8 31  1  0
  9 32  1  0
  9 33  1  0
 10 34  1  0
 10 35  1  0
 11 36  1  0
 11 37  1  0
 13 38  1  0
 14 39  1  0
 18 40  1  0
 19 41  1  0
 20 42  1  0
 21 43  1  0
 23 44  1  0
A    1
CAS
A    2
CAT
A    3
CAU
A    4
CAV
A    5
CAW
A    6
CAR
A    7
CAP
A    8
CAQ
A    9
CAO
A   10
CAN
A   11
CAM
A   12
NAL
A   13
CAK
A   14
CAI
A   15
CAH
A   16
OAJ
A   17
CAE
A   18
CAD
A   19
CAC
A   20
CAB
A   21
CAA
A   22
CAF
A   23
OAG
M  END
