4Q1B_2Y0_A_301
     RDKit          3D

 58 60  0  0  0  0  0  0  0  0999 V2000
  -37.7080   10.2310    3.2900 C   0  0  0  0  0  0  0  0  0  0  0  0
  -36.4460    9.0000    3.5560 S   0  0  0  0  0  0  0  0  0  0  0  0
  -37.0190    7.8890    4.4460 O   0  0  0  0  0  0  0  0  0  0  0  0
  -35.2610    9.6430    4.2770 O   0  0  0  0  0  0  0  0  0  0  0  0
  -35.8400    8.3120    2.0000 N   0  0  0  0  0  0  0  0  0  0  0  0
  -36.7360    8.5500    0.8480 C   0  0  0  0  0  0  0  0  0  0  0  0
  -36.0010    9.0080   -0.4320 C   0  0  0  0  0  0  0  0  0  0  0  0
  -36.9370    9.7030   -1.2970 O   0  0  0  0  0  0  0  0  0  0  0  0
  -36.5570   10.5160   -2.3370 C   0  0  0  0  0  0  0  0  0  0  0  0
  -35.2270   10.9250   -2.5800 C   0  0  0  0  0  0  0  0  0  0  0  0
  -37.5810   10.9690   -3.1700 C   0  0  0  0  0  0  0  0  0  0  0  0
  -37.2980   11.8200   -4.2270 C   0  0  0  0  0  0  0  0  0  0  0  0
  -35.9830   12.2210   -4.4690 C   0  0  0  0  0  0  0  0  0  0  0  0
  -34.9280   11.7850   -3.6560 C   0  0  0  0  0  0  0  0  0  0  0  0
  -33.6680   12.2200   -3.9020 C   0  0  0  0  0  0  0  0  0  0  0  0
  -32.5870   11.9650   -3.1610 N   0  0  0  0  0  0  0  0  0  0  0  0
  -33.2080   13.2110   -5.1400 S   0  0  0  0  0  0  0  0  0  0  0  0
  -31.6870   13.2800   -4.7340 C   0  0  0  0  0  0  0  0  0  0  0  0
  -30.6140   14.0470   -5.5010 C   0  0  0  0  0  0  0  0  0  0  0  0
  -30.9910   15.4990   -5.5270 C   0  0  0  0  0  0  0  0  0  0  0  0
  -29.9580   16.2390   -6.3680 C   0  0  0  0  0  0  0  0  0  0  0  0
  -31.4940   12.5570   -3.6470 C   0  0  0  0  0  0  0  0  0  0  0  0
  -30.1210   12.3820   -3.0230 C   0  0  0  0  0  0  0  0  0  0  0  0
  -29.3280   10.8930   -3.7720 S   0  0  0  0  0  0  0  0  0  0  0  0
  -27.6170   11.3580   -3.8620 C   0  0  0  0  0  0  0  0  0  0  0  0
  -27.2570   12.6300   -3.7520 N   0  0  0  0  0  0  0  0  0  0  0  0
  -26.6760   10.4160   -4.0210 N   0  0  0  0  0  0  0  0  0  0  0  0
  -25.3630   10.7240   -4.0810 C   0  0  0  0  0  0  0  0  0  0  0  0
  -24.4580    9.7600   -4.2460 N   0  0  0  0  0  0  0  0  0  0  0  0
  -24.9610   12.0510   -3.9820 C   0  0  0  0  0  0  0  0  0  0  0  0
  -25.9680   12.9970   -3.8030 C   0  0  0  0  0  0  0  0  0  0  0  0
  -25.6570   14.2820   -3.6950 N   0  0  0  0  0  0  0  0  0  0  0  0
  -38.0783   10.5922    4.2608 H   0  0  0  0  0  0  0  0  0  0  0  0
  -37.2850   11.0731    2.7226 H   0  0  0  0  0  0  0  0  0  0  0  0
  -38.5393    9.7872    2.7226 H   0  0  0  0  0  0  0  0  0  0  0  0
  -35.7269    7.2950    2.1177 H   0  0  0  0  0  0  0  0  0  0  0  0
  -37.4614    9.3280    1.1282 H   0  0  0  0  0  0  0  0  0  0  0  0
  -37.2173    7.5891    0.6136 H   0  0  0  0  0  0  0  0  0  0  0  0
  -35.5961    8.1307   -0.9576 H   0  0  0  0  0  0  0  0  0  0  0  0
  -35.1754    9.6832   -0.1626 H   0  0  0  0  0  0  0  0  0  0  0  0
  -34.4183   10.5696   -1.9244 H   0  0  0  0  0  0  0  0  0  0  0  0
  -38.6175   10.6493   -2.9870 H   0  0  0  0  0  0  0  0  0  0  0  0
  -38.1104   12.1796   -4.8756 H   0  0  0  0  0  0  0  0  0  0  0  0
  -35.7707   12.8922   -5.3142 H   0  0  0  0  0  0  0  0  0  0  0  0
  -30.5474   13.6628   -6.5296 H   0  0  0  0  0  0  0  0  0  0  0  0
  -29.6378   13.9206   -5.0100 H   0  0  0  0  0  0  0  0  0  0  0  0
  -30.9966   15.9016   -4.5033 H   0  0  0  0  0  0  0  0  0  0  0  0
  -31.9954   15.6253   -5.9574 H   0  0  0  0  0  0  0  0  0  0  0  0
  -29.2441   16.7504   -5.7055 H   0  0  0  0  0  0  0  0  0  0  0  0
  -29.4190   15.5203   -7.0028 H   0  0  0  0  0  0  0  0  0  0  0  0
  -30.4651   16.9805   -7.0028 H   0  0  0  0  0  0  0  0  0  0  0  0
  -30.2215   12.2428   -1.9365 H   0  0  0  0  0  0  0  0  0  0  0  0
  -29.5041   13.2735   -3.2093 H   0  0  0  0  0  0  0  0  0  0  0  0
  -24.0326    9.3069   -3.4246 H   0  0  0  0  0  0  0  0  0  0  0  0
  -24.1838    9.4680   -5.1949 H   0  0  0  0  0  0  0  0  0  0  0  0
  -23.9012   12.3396   -4.0420 H   0  0  0  0  0  0  0  0  0  0  0  0
  -25.5533   14.7103   -2.7640 H   0  0  0  0  0  0  0  0  0  0  0  0
  -25.5192   14.8515   -4.5421 H   0  0  0  0  0  0  0  0  0  0  0  0
 21 20  1  0
 20 19  1  0
 19 18  1  0
 17 18  1  0
 17 15  1  0
 18 22  2  0
 13 12  2  0
 13 14  1  0
 29 28  1  0
 12 11  1  0
 28 27  2  0
 28 30  1  0
 27 25  1  0
 30 31  2  0
 15 14  1  0
 15 16  2  0
 25 24  1  0
 25 26  2  0
 31 26  1  0
 31 32  1  0
 24 23  1  0
 14 10  2  0
 22 16  1  0
 22 23  1  0
 11  9  2  0
 10  9  1  0
  9  8  1  0
  8  7  1  0
  7  6  1  0
  6  5  1  0
  5  2  1  0
  1  2  1  0
  2  4  2  0
  2  3  2  0
  1 33  1  0
  1 34  1  0
  1 35  1  0
  5 36  1  0
  6 37  1  0
  6 38  1  0
  7 39  1  0
  7 40  1  0
 10 41  1  0
 11 42  1  0
 12 43  1  0
 13 44  1  0
 19 45  1  0
 19 46  1  0
 20 47  1  0
 20 48  1  0
 21 49  1  0
 21 50  1  0
 21 51  1  0
 23 52  1  0
 23 53  1  0
 29 54  1  0
 29 55  1  0
 30 56  1  0
 32 57  1  0
 32 58  1  0
A    1
CAB
A    2
SBF
A    3
OAE
A    4
OAF
A    5
NAT
A    6
CAM
A    7
CAN
A    8
OAU
A    9
CAZ
A   10
CAK
A   11
CAH
A   12
CAG
A   13
CAI
A   14
CBA
A   15
CBE
A   16
NAS
A   17
SAW
A   18
CBD
A   19
CAO
A   20
CAL
A   21
CAA
A   22
CBC
A   23
CAP
A   24
SAV
A   25
C2
A   26
N3
A   27
N1
A   28
C6
A   29
NAC
A   30
C5
A   31
C4
A   32
NAD
M  END
