4Q1C_2XM_A_301
     RDKit          3D

 59 61  0  0  0  0  0  0  0  0999 V2000
  -35.1420    6.9480   -0.3300 O   0  0  0  0  0  0  0  0  0  0  0  0
  -36.0670    7.6760   -1.1700 C   0  0  0  0  0  0  0  0  0  0  0  0
  -35.3310    8.8470   -1.8170 C   0  0  0  0  0  0  0  0  0  0  0  0
  -36.2750    9.9110   -2.0350 O   0  0  0  0  0  0  0  0  0  0  0  0
  -35.8510   10.8870   -2.9070 C   0  0  0  0  0  0  0  0  0  0  0  0
  -34.5110   11.2370   -3.0660 C   0  0  0  0  0  0  0  0  0  0  0  0
  -36.8360   11.5670   -3.6070 C   0  0  0  0  0  0  0  0  0  0  0  0
  -38.1180   11.1570   -3.3750 O   0  0  0  0  0  0  0  0  0  0  0  0
  -39.1690   11.9960   -3.7940 C   0  0  0  0  0  0  0  0  0  0  0  0
  -39.9930   11.0420   -4.6540 C   0  0  0  0  0  0  0  0  0  0  0  0
  -40.5260    9.9900   -3.8330 O   0  0  0  0  0  0  0  0  0  0  0  0
  -36.4910   12.5840   -4.4820 C   0  0  0  0  0  0  0  0  0  0  0  0
  -35.1460   12.9050   -4.6320 C   0  0  0  0  0  0  0  0  0  0  0  0
  -34.1480   12.2350   -3.9440 C   0  0  0  0  0  0  0  0  0  0  0  0
  -32.8530   12.5860   -4.0910 C   0  0  0  0  0  0  0  0  0  0  0  0
  -31.9130   12.1880   -3.2640 N   0  0  0  0  0  0  0  0  0  0  0  0
  -32.1930   13.5460   -5.2210 S   0  0  0  0  0  0  0  0  0  0  0  0
  -30.7050   13.4600   -4.6340 C   0  0  0  0  0  0  0  0  0  0  0  0
  -29.5500   14.1970   -5.2350 C   0  0  0  0  0  0  0  0  0  0  0  0
  -29.4630   15.3620   -4.2640 C   0  0  0  0  0  0  0  0  0  0  0  0
  -28.6160   16.4850   -4.8410 C   0  0  0  0  0  0  0  0  0  0  0  0
  -30.7000   12.6560   -3.5600 C   0  0  0  0  0  0  0  0  0  0  0  0
  -29.5100   12.2890   -2.7060 C   0  0  0  0  0  0  0  0  0  0  0  0
  -28.6580   10.7410   -3.2760 S   0  0  0  0  0  0  0  0  0  0  0  0
  -27.0050   11.1520   -3.6360 C   0  0  0  0  0  0  0  0  0  0  0  0
  -26.1360   10.1690   -3.9360 N   0  0  0  0  0  0  0  0  0  0  0  0
  -26.6260   12.4190   -3.6480 N   0  0  0  0  0  0  0  0  0  0  0  0
  -25.3450   12.7410   -3.9460 C   0  0  0  0  0  0  0  0  0  0  0  0
  -24.9830   14.0150   -3.9660 N   0  0  0  0  0  0  0  0  0  0  0  0
  -24.4210   11.7510   -4.2280 C   0  0  0  0  0  0  0  0  0  0  0  0
  -24.8580   10.4350   -4.2080 C   0  0  0  0  0  0  0  0  0  0  0  0
  -24.0220    9.4230   -4.4470 N   0  0  0  0  0  0  0  0  0  0  0  0
  -35.3570    7.1172    0.6215 H   0  0  0  0  0  0  0  0  0  0  0  0
  -36.9000    8.0552   -0.5598 H   0  0  0  0  0  0  0  0  0  0  0  0
  -36.4660    7.0101   -1.9494 H   0  0  0  0  0  0  0  0  0  0  0  0
  -34.9001    8.5298   -2.7781 H   0  0  0  0  0  0  0  0  0  0  0  0
  -34.5176    9.1913   -1.1614 H   0  0  0  0  0  0  0  0  0  0  0  0
  -33.7374   10.7124   -2.4860 H   0  0  0  0  0  0  0  0  0  0  0  0
  -38.7944   12.8464   -4.3827 H   0  0  0  0  0  0  0  0  0  0  0  0
  -39.7319   12.4570   -2.9690 H   0  0  0  0  0  0  0  0  0  0  0  0
  -39.3521   10.6074   -5.4353 H   0  0  0  0  0  0  0  0  0  0  0  0
  -40.8209   11.5950   -5.1217 H   0  0  0  0  0  0  0  0  0  0  0  0
  -40.4074   10.2241   -2.8784 H   0  0  0  0  0  0  0  0  0  0  0  0
  -37.2642   13.1261   -5.0461 H   0  0  0  0  0  0  0  0  0  0  0  0
  -34.8659   13.7171   -5.3191 H   0  0  0  0  0  0  0  0  0  0  0  0
  -28.6314   13.5919   -5.2332 H   0  0  0  0  0  0  0  0  0  0  0  0
  -29.6720   14.4766   -6.2919 H   0  0  0  0  0  0  0  0  0  0  0  0
  -30.4761   15.7409   -4.0640 H   0  0  0  0  0  0  0  0  0  0  0  0
  -28.9945   15.0102   -3.3330 H   0  0  0  0  0  0  0  0  0  0  0  0
  -28.1747   17.0701   -4.0207 H   0  0  0  0  0  0  0  0  0  0  0  0
  -27.8132   16.0579   -5.4599 H   0  0  0  0  0  0  0  0  0  0  0  0
  -29.2473   17.1395   -5.4599 H   0  0  0  0  0  0  0  0  0  0  0  0
  -28.7877   13.1181   -2.7363 H   0  0  0  0  0  0  0  0  0  0  0  0
  -29.8807   12.1044   -1.6869 H   0  0  0  0  0  0  0  0  0  0  0  0
  -24.8386   14.5233   -3.0819 H   0  0  0  0  0  0  0  0  0  0  0  0
  -24.8459   14.4974   -4.8657 H   0  0  0  0  0  0  0  0  0  0  0  0
  -23.3748   11.9992   -4.4603 H   0  0  0  0  0  0  0  0  0  0  0  0
  -23.5975    8.9092   -3.6617 H   0  0  0  0  0  0  0  0  0  0  0  0
  -23.8011    9.1556   -5.4168 H   0  0  0  0  0  0  0  0  0  0  0  0
 19 18  1  0
 19 20  1  0
 17 18  1  0
 17 15  1  0
 21 20  1  0
 10 11  1  0
 10  9  1  0
 18 22  2  0
 13 12  2  0
 13 14  1  0
 12  7  1  0
 32 31  1  0
 30 31  1  0
 30 28  2  0
 31 26  2  0
 15 14  1  0
 15 16  2  0
 29 28  1  0
 28 27  1  0
 14  6  2  0
 26 25  1  0
  9  8  1  0
 27 25  2  0
 25 24  1  0
  7  8  1  0
  7  5  2  0
 22 16  1  0
 22 23  1  0
 24 23  1  0
  6  5  1  0
  5  4  1  0
  4  3  1  0
  3  2  1  0
  2  1  1  0
  1 33  1  0
  2 34  1  0
  2 35  1  0
  3 36  1  0
  3 37  1  0
  6 38  1  0
  9 39  1  0
  9 40  1  0
 10 41  1  0
 10 42  1  0
 11 43  1  0
 12 44  1  0
 13 45  1  0
 19 46  1  0
 19 47  1  0
 20 48  1  0
 20 49  1  0
 21 50  1  0
 21 51  1  0
 21 52  1  0
 23 53  1  0
 23 54  1  0
 29 55  1  0
 29 56  1  0
 30 57  1  0
 32 58  1  0
 32 59  1  0
A    1
OAE
A    2
CAL
A    3
CAN
A    4
OAU
A    5
CBC
A    6
CAI
A    7
CBB
A    8
OAT
A    9
CAM
A   10
CAK
A   11
OAD
A   12
CAG
A   13
CAF
A   14
CAZ
A   15
CBF
A   16
NAS
A   17
SAW
A   18
CBE
A   19
CAO
A   20
CAJ
A   21
CAA
A   22
CBD
A   23
CAP
A   24
SAV
A   25
C2
A   26
N3
A   27
N1
A   28
C6
A   29
NAB
A   30
C5
A   31
C4
A   32
NAC
M  END
