4Q1D_2Y1_A_301
     RDKit          3D

 57 59  0  0  0  0  0  0  0  0999 V2000
    7.3640   35.1750    0.6490 F   0  0  0  0  0  0  0  0  0  0  0  0
    7.5030   35.8330   -0.5510 C   0  0  0  0  0  0  0  0  0  0  0  0
    8.8730   35.4360   -1.0890 C   0  0  0  0  0  0  0  0  0  0  0  0
    8.9320   35.9720   -2.4090 O   0  0  0  0  0  0  0  0  0  0  0  0
   10.1740   35.7340   -2.9990 C   0  0  0  0  0  0  0  0  0  0  0  0
   10.6070   34.4410   -3.2570 C   0  0  0  0  0  0  0  0  0  0  0  0
   10.9620   36.8320   -3.3400 C   0  0  0  0  0  0  0  0  0  0  0  0
   10.4480   38.0950   -3.0520 O   0  0  0  0  0  0  0  0  0  0  0  0
   10.9980   39.1960   -3.8120 C   0  0  0  0  0  0  0  0  0  0  0  0
   12.2090   36.6410   -3.9370 C   0  0  0  0  0  0  0  0  0  0  0  0
   12.6480   35.3550   -4.1900 C   0  0  0  0  0  0  0  0  0  0  0  0
   11.8410   34.2780   -3.8610 C   0  0  0  0  0  0  0  0  0  0  0  0
   12.3180   32.9940   -4.1100 C   0  0  0  0  0  0  0  0  0  0  0  0
   12.0730   31.9550   -3.2980 N   0  0  0  0  0  0  0  0  0  0  0  0
   13.2690   32.5650   -5.4100 S   0  0  0  0  0  0  0  0  0  0  0  0
   13.3550   30.9420   -4.8980 C   0  0  0  0  0  0  0  0  0  0  0  0
   14.0900   29.8100   -5.5660 C   0  0  0  0  0  0  0  0  0  0  0  0
   15.5530   30.2130   -5.5980 C   0  0  0  0  0  0  0  0  0  0  0  0
   16.0360   30.4410   -4.1420 C   0  0  0  0  0  0  0  0  0  0  0  0
   12.6520   30.8340   -3.7250 C   0  0  0  0  0  0  0  0  0  0  0  0
   12.4850   29.5190   -2.9890 C   0  0  0  0  0  0  0  0  0  0  0  0
   12.6290   29.6930   -1.4780 C   0  0  0  0  0  0  0  0  0  0  0  0
   10.8770   28.9340   -3.4990 S   0  0  0  0  0  0  0  0  0  0  0  0
   11.1680   27.2680   -3.8250 C   0  0  0  0  0  0  0  0  0  0  0  0
   10.1620   26.3910   -3.9430 N   0  0  0  0  0  0  0  0  0  0  0  0
   12.4270   26.9020   -3.9430 N   0  0  0  0  0  0  0  0  0  0  0  0
   12.7370   25.6310   -4.1880 C   0  0  0  0  0  0  0  0  0  0  0  0
   14.0390   25.3040   -4.3070 N   0  0  0  0  0  0  0  0  0  0  0  0
   11.7250   24.6680   -4.3290 C   0  0  0  0  0  0  0  0  0  0  0  0
   10.4150   25.0840   -4.1780 C   0  0  0  0  0  0  0  0  0  0  0  0
    9.4030   24.1700   -4.2940 N   0  0  0  0  0  0  0  0  0  0  0  0
    7.4524   36.9212   -0.3987 H   0  0  0  0  0  0  0  0  0  0  0  0
    6.7001   35.5654   -1.2537 H   0  0  0  0  0  0  0  0  0  0  0  0
    8.9742   34.3409   -1.1135 H   0  0  0  0  0  0  0  0  0  0  0  0
    9.6873   35.8182   -0.4558 H   0  0  0  0  0  0  0  0  0  0  0  0
    9.9879   33.5721   -2.9894 H   0  0  0  0  0  0  0  0  0  0  0  0
   11.3809   39.9626   -3.1222 H   0  0  0  0  0  0  0  0  0  0  0  0
   11.8191   38.8300   -4.4459 H   0  0  0  0  0  0  0  0  0  0  0  0
   10.2122   39.6327   -4.4459 H   0  0  0  0  0  0  0  0  0  0  0  0
   12.8358   37.5048   -4.2034 H   0  0  0  0  0  0  0  0  0  0  0  0
   13.6330   35.1876   -4.6502 H   0  0  0  0  0  0  0  0  0  0  0  0
   13.7131   29.6620   -6.5888 H   0  0  0  0  0  0  0  0  0  0  0  0
   13.9473   28.8644   -5.0225 H   0  0  0  0  0  0  0  0  0  0  0  0
   16.1474   29.4136   -6.0646 H   0  0  0  0  0  0  0  0  0  0  0  0
   15.6755   31.1363   -6.1832 H   0  0  0  0  0  0  0  0  0  0  0  0
   15.2697   30.0793   -3.4406 H   0  0  0  0  0  0  0  0  0  0  0  0
   16.9738   29.8905   -3.9763 H   0  0  0  0  0  0  0  0  0  0  0  0
   16.2070   31.5149   -3.9763 H   0  0  0  0  0  0  0  0  0  0  0  0
   13.2669   28.7850   -3.2338 H   0  0  0  0  0  0  0  0  0  0  0  0
   12.0096   28.9446   -0.9620 H   0  0  0  0  0  0  0  0  0  0  0  0
   13.6825   29.5572   -1.1920 H   0  0  0  0  0  0  0  0  0  0  0  0
   12.2986   30.7025   -1.1920 H   0  0  0  0  0  0  0  0  0  0  0  0
   14.6129   25.1599   -3.4640 H   0  0  0  0  0  0  0  0  0  0  0  0
   14.4601   25.1982   -5.2410 H   0  0  0  0  0  0  0  0  0  0  0  0
   11.9661   23.6182   -4.5520 H   0  0  0  0  0  0  0  0  0  0  0  0
    8.9661   23.7754   -3.4489 H   0  0  0  0  0  0  0  0  0  0  0  0
    9.0783   23.8767   -5.2264 H   0  0  0  0  0  0  0  0  0  0  0  0
 18 17  1  0
 18 19  1  0
 17 16  1  0
 15 16  1  0
 15 13  1  0
 16 20  2  0
 29 27  2  0
 29 30  1  0
 28 27  1  0
 31 30  1  0
 11 10  2  0
 11 12  1  0
 27 26  1  0
 30 25  2  0
 13 12  1  0
 13 14  2  0
 26 24  2  0
 25 24  1  0
 10  7  1  0
 12  6  2  0
 24 23  1  0
  9  8  1  0
 20 14  1  0
 20 21  1  0
 23 21  1  0
  7  8  1  0
  7  5  2  0
  6  5  1  0
  5  4  1  0
 21 22  1  0
  4  3  1  0
  3  2  1  0
  2  1  1  0
  2 32  1  0
  2 33  1  0
  3 34  1  0
  3 35  1  0
  6 36  1  0
  9 37  1  0
  9 38  1  0
  9 39  1  0
 10 40  1  0
 11 41  1  0
 17 42  1  0
 17 43  1  0
 18 44  1  0
 18 45  1  0
 19 46  1  0
 19 47  1  0
 19 48  1  0
 21 49  1  0
 22 50  1  0
 22 51  1  0
 22 52  1  0
 28 53  1  0
 28 54  1  0
 29 55  1  0
 31 56  1  0
 31 57  1  0
A    1
FAF
A    2
CAL
A    3
CAM
A    4
OAS
A    5
CAZ
A    6
CAJ
A    7
CAY
A    8
OAR
A    9
CAB
A   10
CAH
A   11
CAG
A   12
CAX
A   13
CBC
A   14
NAQ
A   15
SAU
A   16
CBB
A   17
CAN
A   18
CAK
A   19
CAA
A   20
CBD
A   21
CBE
A   22
CAC
A   23
SAT
A   24
C2
A   25
N3
A   26
N1
A   27
C6
A   28
NAD
A   29
C5
A   30
C4
A   31
NAE
M  END
