4Q1F_2XN_A_302
     RDKit          3D

 59 61  0  0  0  0  0  0  0  0999 V2000
   10.1010  -37.5580  -17.1370 C   0  0  0  0  0  0  0  0  0  0  0  0
    8.9160  -36.5830  -16.2360 S   0  0  0  0  0  0  0  0  0  0  0  0
    7.6140  -37.3730  -16.0920 O   0  0  0  0  0  0  0  0  0  0  0  0
    8.6460  -35.2820  -16.9920 O   0  0  0  0  0  0  0  0  0  0  0  0
    9.5060  -36.2240  -14.7620 N   0  0  0  0  0  0  0  0  0  0  0  0
    8.5370  -35.4170  -14.0030 C   0  0  0  0  0  0  0  0  0  0  0  0
    9.1160  -35.0480  -12.6380 C   0  0  0  0  0  0  0  0  0  0  0  0
    9.4190  -36.2370  -11.9070 O   0  0  0  0  0  0  0  0  0  0  0  0
   10.2390  -36.0000  -10.8460 C   0  0  0  0  0  0  0  0  0  0  0  0
   10.6880  -34.6970  -10.5950 C   0  0  0  0  0  0  0  0  0  0  0  0
   10.6820  -37.0510  -10.0080 C   0  0  0  0  0  0  0  0  0  0  0  0
   10.2940  -38.3730  -10.1580 O   0  0  0  0  0  0  0  0  0  0  0  0
    9.4660  -38.9610  -11.1780 C   0  0  0  0  0  0  0  0  0  0  0  0
   11.5100  -36.7630   -8.9380 C   0  0  0  0  0  0  0  0  0  0  0  0
   11.9370  -35.4630   -8.6960 C   0  0  0  0  0  0  0  0  0  0  0  0
   11.5150  -34.4310   -9.5140 C   0  0  0  0  0  0  0  0  0  0  0  0
   11.9870  -33.2250   -9.2280 C   0  0  0  0  0  0  0  0  0  0  0  0
   11.8410  -32.0800   -9.9140 N   0  0  0  0  0  0  0  0  0  0  0  0
   12.9400  -32.9830   -7.9240 S   0  0  0  0  0  0  0  0  0  0  0  0
   13.1610  -31.4400   -8.1990 C   0  0  0  0  0  0  0  0  0  0  0  0
   13.9860  -30.4830   -7.3480 C   0  0  0  0  0  0  0  0  0  0  0  0
   12.5200  -31.0870   -9.3070 C   0  0  0  0  0  0  0  0  0  0  0  0
   12.5750  -29.6390   -9.7520 C   0  0  0  0  0  0  0  0  0  0  0  0
   13.0970  -29.5970  -11.1870 C   0  0  0  0  0  0  0  0  0  0  0  0
   10.9100  -29.0290   -9.6490 S   0  0  0  0  0  0  0  0  0  0  0  0
   11.1540  -27.3380   -9.4740 C   0  0  0  0  0  0  0  0  0  0  0  0
   12.3890  -26.8190   -9.4100 N   0  0  0  0  0  0  0  0  0  0  0  0
   10.0710  -26.5590   -9.3650 N   0  0  0  0  0  0  0  0  0  0  0  0
   10.1890  -25.2370   -9.2160 C   0  0  0  0  0  0  0  0  0  0  0  0
    9.1010  -24.4800   -9.1230 N   0  0  0  0  0  0  0  0  0  0  0  0
   11.4520  -24.6660   -9.1580 C   0  0  0  0  0  0  0  0  0  0  0  0
   12.5590  -25.4980   -9.2600 C   0  0  0  0  0  0  0  0  0  0  0  0
   13.7840  -24.9840   -9.2090 N   0  0  0  0  0  0  0  0  0  0  0  0
   10.7507  -38.0925  -16.4283 H   0  0  0  0  0  0  0  0  0  0  0  0
    9.5718  -38.2856  -17.7698 H   0  0  0  0  0  0  0  0  0  0  0  0
   10.7131  -36.8985  -17.7698 H   0  0  0  0  0  0  0  0  0  0  0  0
    9.6946  -37.0977  -14.2501 H   0  0  0  0  0  0  0  0  0  0  0  0
    8.3114  -34.4976  -14.5631 H   0  0  0  0  0  0  0  0  0  0  0  0
    7.6169  -36.0020  -13.8576 H   0  0  0  0  0  0  0  0  0  0  0  0
   10.0352  -34.4601  -12.7774 H   0  0  0  0  0  0  0  0  0  0  0  0
    8.3791  -34.4536  -12.0780 H   0  0  0  0  0  0  0  0  0  0  0  0
   10.3818  -33.8772  -11.2615 H   0  0  0  0  0  0  0  0  0  0  0  0
    8.6559  -39.5363  -10.7061 H   0  0  0  0  0  0  0  0  0  0  0  0
    9.0347  -38.1657  -11.8037 H   0  0  0  0  0  0  0  0  0  0  0  0
   10.0747  -39.6303  -11.8037 H   0  0  0  0  0  0  0  0  0  0  0  0
   11.8348  -37.5740   -8.2696 H   0  0  0  0  0  0  0  0  0  0  0  0
   12.6116  -35.2545   -7.8526 H   0  0  0  0  0  0  0  0  0  0  0  0
   13.8063  -30.6915   -6.2830 H   0  0  0  0  0  0  0  0  0  0  0  0
   15.0540  -30.6197   -7.5733 H   0  0  0  0  0  0  0  0  0  0  0  0
   13.6934  -29.4468   -7.5733 H   0  0  0  0  0  0  0  0  0  0  0  0
   13.2419  -29.0223   -9.1316 H   0  0  0  0  0  0  0  0  0  0  0  0
   14.1934  -29.5088  -11.1759 H   0  0  0  0  0  0  0  0  0  0  0  0
   12.8088  -30.5212  -11.7092 H   0  0  0  0  0  0  0  0  0  0  0  0
   12.6647  -28.7307  -11.7092 H   0  0  0  0  0  0  0  0  0  0  0  0
    8.7305  -24.2222   -8.1971 H   0  0  0  0  0  0  0  0  0  0  0  0
    8.6280  -24.1509   -9.9768 H   0  0  0  0  0  0  0  0  0  0  0  0
   11.5736  -23.5798   -9.0341 H   0  0  0  0  0  0  0  0  0  0  0  0
   14.2270  -24.7981   -8.2979 H   0  0  0  0  0  0  0  0  0  0  0  0
   14.2901  -24.7716  -10.0806 H   0  0  0  0  0  0  0  0  0  0  0  0
  1  2  1  0
  4  2  2  0
  2  3  2  0
  2  5  1  0
  5  6  1  0
  6  7  1  0
  7  8  1  0
  8  9  1  0
 24 23  1  0
 13 12  1  0
  9 10  2  0
  9 11  1  0
 10 16  1  0
 12 11  1  0
 11 14  2  0
 18 22  1  0
 18 17  2  0
 23 25  1  0
 23 22  1  0
 25 26  1  0
 16 17  1  0
 16 15  2  0
 26 27  2  0
 26 28  1  0
 27 32  1  0
 28 29  2  0
 22 20  2  0
 32 33  1  0
 32 31  2  0
 17 19  1  0
 29 31  1  0
 29 30  1  0
 14 15  1  0
 20 19  1  0
 20 21  1  0
  1 34  1  0
  1 35  1  0
  1 36  1  0
  5 37  1  0
  6 38  1  0
  6 39  1  0
  7 40  1  0
  7 41  1  0
 10 42  1  0
 13 43  1  0
 13 44  1  0
 13 45  1  0
 14 46  1  0
 15 47  1  0
 21 48  1  0
 21 49  1  0
 21 50  1  0
 23 51  1  0
 24 52  1  0
 24 53  1  0
 24 54  1  0
 30 55  1  0
 30 56  1  0
 31 57  1  0
 33 58  1  0
 33 59  1  0
A    1
CAD
A    2
SBG
A    3
OAG
A    4
OAH
A    5
NAR
A    6
CAM
A    7
CAN
A    8
OAT
A    9
CBC
A   10
CAL
A   11
CBB
A   12
OAS
A   13
CAA
A   14
CAJ
A   15
CAI
A   16
CAY
A   17
CBD
A   18
NAQ
A   19
SAV
A   20
CAZ
A   21
CAB
A   22
CBE
A   23
CBF
A   24
CAC
A   25
SAU
A   26
C2
A   27
N3
A   28
N1
A   29
C6
A   30
NAE
A   31
C5
A   32
C4
A   33
NAF
M  END
