4Q1N_2Y9_A_404
     RDKit          3D

 76 78  0  0  0  0  0  0  0  0999 V2000
   68.8180    7.8850   43.5760 C   0  0  0  0  0  0  0  0  0  0  0  0
   68.7540    7.8360   45.1360 C   0  0  0  0  0  0  0  0  0  0  0  0
   68.8120    6.3280   45.5480 C   0  0  0  0  0  0  0  0  0  0  0  0
   67.6140    5.5120   44.9310 C   0  0  0  0  0  0  0  0  0  0  0  0
   67.5180    5.7160   43.3820 C   0  0  0  0  0  0  0  0  0  0  0  0
   67.6480    7.1540   43.0160 N   0  0  0  0  0  0  0  0  0  0  0  0
   69.8350    8.6600   45.8390 C   0  0  0  0  0  0  0  0  0  0  0  0
   67.6310    4.0440   45.3060 C   0  0  0  0  0  0  0  0  0  0  0  0
   68.7010    3.5200   45.6180 O   0  0  0  0  0  0  0  0  0  0  0  0
   69.6520    9.4580   46.9710 N   0  0  0  0  0  0  0  0  0  0  0  0
   70.9590    8.4780   45.3900 O   0  0  0  0  0  0  0  0  0  0  0  0
   66.4180    3.4130   45.2620 N   0  0  0  0  0  0  0  0  0  0  0  0
   70.0870    5.7750   45.1690 O   0  0  0  0  0  0  0  0  0  0  0  0
   68.3580    9.8470   47.5530 C   0  0  0  0  0  0  0  0  0  0  0  0
   70.6880   10.2430   47.6000 C   0  0  0  0  0  0  0  0  0  0  0  0
   67.1020    8.9800   47.7130 C   0  0  0  0  0  0  0  0  0  0  0  0
   68.0130    9.2430   48.9330 C   0  0  0  0  0  0  0  0  0  0  0  0
   71.1850   11.3900   46.9570 C   0  0  0  0  0  0  0  0  0  0  0  0
   72.1140   12.1950   47.6290 C   0  0  0  0  0  0  0  0  0  0  0  0
   72.5430   11.8750   48.9400 C   0  0  0  0  0  0  0  0  0  0  0  0
   71.9200   10.7790   49.5850 C   0  0  0  0  0  0  0  0  0  0  0  0
   71.0300   10.0050   48.9100 N   0  0  0  0  0  0  0  0  0  0  0  0
   73.4790   12.8480   49.6820 C   0  0  0  0  0  0  0  0  0  0  0  0
   73.2050   12.8110   51.1890 C   0  0  0  0  0  0  0  0  0  0  0  0
   74.9760   12.9820   49.2670 C   0  0  0  0  0  0  0  0  0  0  0  0
   66.1630    2.0030   45.5750 C   0  0  0  0  0  0  0  0  0  0  0  0
   66.1760    1.1420   44.2610 C   0  0  0  0  0  0  0  0  0  0  0  0
   67.3830    1.3040   43.2640 C   0  0  0  0  0  0  0  0  0  0  0  0
   68.7500    0.7510   43.7770 C   0  0  0  0  0  0  0  0  0  0  0  0
   67.0580    0.6590   41.8850 C   0  0  0  0  0  0  0  0  0  0  0  0
   64.7620    1.9580   46.2530 C   0  0  0  0  0  0  0  0  0  0  0  0
   64.8210    2.5600   47.5740 O   0  0  0  0  0  0  0  0  0  0  0  0
   63.8010    2.1490   48.5270 C   0  0  0  0  0  0  0  0  0  0  0  0
   64.3150    0.9100   49.2900 C   0  0  0  0  0  0  0  0  0  0  0  0
   69.7483    7.4104   43.2306 H   0  0  0  0  0  0  0  0  0  0  0  0
   68.7972    8.9314   43.2374 H   0  0  0  0  0  0  0  0  0  0  0  0
   67.8163    8.3071   45.4658 H   0  0  0  0  0  0  0  0  0  0  0  0
   68.7078    6.2541   46.6406 H   0  0  0  0  0  0  0  0  0  0  0  0
   66.6995    5.9246   45.3821 H   0  0  0  0  0  0  0  0  0  0  0  0
   66.5441    5.3437   43.0313 H   0  0  0  0  0  0  0  0  0  0  0  0
   68.3408    5.1613   42.9073 H   0  0  0  0  0  0  0  0  0  0  0  0
   67.7075    7.2103   41.9893 H   0  0  0  0  0  0  0  0  0  0  0  0
   65.6065    3.9824   44.9824 H   0  0  0  0  0  0  0  0  0  0  0  0
   70.6044    5.5506   45.9827 H   0  0  0  0  0  0  0  0  0  0  0  0
   68.4882   10.8267   47.0700 H   0  0  0  0  0  0  0  0  0  0  0  0
   66.1052    9.4423   47.6619 H   0  0  0  0  0  0  0  0  0  0  0  0
   66.7112    8.0802   47.2155 H   0  0  0  0  0  0  0  0  0  0  0  0
   68.6269    8.4301   49.3480 H   0  0  0  0  0  0  0  0  0  0  0  0
   67.8642    9.6453   49.9459 H   0  0  0  0  0  0  0  0  0  0  0  0
   70.8498   11.6513   45.9424 H   0  0  0  0  0  0  0  0  0  0  0  0
   72.5163   13.0893   47.1306 H   0  0  0  0  0  0  0  0  0  0  0  0
   72.1571   10.5536   50.6352 H   0  0  0  0  0  0  0  0  0  0  0  0
   73.1808   13.8263   49.2771 H   0  0  0  0  0  0  0  0  0  0  0  0
   74.1503   12.9387   51.7368 H   0  0  0  0  0  0  0  0  0  0  0  0
   72.5138   13.6240   51.4561 H   0  0  0  0  0  0  0  0  0  0  0  0
   72.7542   11.8438   51.4561 H   0  0  0  0  0  0  0  0  0  0  0  0
   75.6030   13.0381   50.1691 H   0  0  0  0  0  0  0  0  0  0  0  0
   75.2706   12.1066   48.6696 H   0  0  0  0  0  0  0  0  0  0  0  0
   75.1105   13.8958   48.6696 H   0  0  0  0  0  0  0  0  0  0  0  0
   66.9370    1.5884   46.2376 H   0  0  0  0  0  0  0  0  0  0  0  0
   65.2602    1.3879   43.7035 H   0  0  0  0  0  0  0  0  0  0  0  0
   66.2636    0.1062   44.6209 H   0  0  0  0  0  0  0  0  0  0  0  0
   67.5081    2.3927   43.1688 H   0  0  0  0  0  0  0  0  0  0  0  0
   68.7551    0.7489   44.8770 H   0  0  0  0  0  0  0  0  0  0  0  0
   68.8922   -0.2754   43.4077 H   0  0  0  0  0  0  0  0  0  0  0  0
   69.5658    1.3898   43.4077 H   0  0  0  0  0  0  0  0  0  0  0  0
   66.5680   -0.3134   42.0414 H   0  0  0  0  0  0  0  0  0  0  0  0
   66.3861    1.3214   41.3196 H   0  0  0  0  0  0  0  0  0  0  0  0
   67.9902    0.5131   41.3196 H   0  0  0  0  0  0  0  0  0  0  0  0
   64.0413    2.5121   45.6337 H   0  0  0  0  0  0  0  0  0  0  0  0
   64.4461    0.9090   46.3519 H   0  0  0  0  0  0  0  0  0  0  0  0
   63.6048    2.9666   49.2363 H   0  0  0  0  0  0  0  0  0  0  0  0
   62.8674    1.9059   47.9986 H   0  0  0  0  0  0  0  0  0  0  0  0
   64.2406    1.0892   50.3727 H   0  0  0  0  0  0  0  0  0  0  0  0
   63.7058    0.0346   49.0206 H   0  0  0  0  0  0  0  0  0  0  0  0
   65.3650    0.7230   49.0206 H   0  0  0  0  0  0  0  0  0  0  0  0
 30 28  1  0
  6  5  1  0
  6  1  1  0
 28 29  1  0
 28 27  1  0
  5  4  1  0
  1  2  1  0
 27 26  1  0
  4  8  1  0
  4  3  1  0
  2  3  1  0
  2  7  1  0
 13  3  1  0
 12  8  1  0
 12 26  1  0
  8  9  2  0
 11  7  2  0
 26 31  1  0
  7 10  1  0
 31 32  1  0
 18 15  2  0
 18 19  1  0
 10 14  1  0
 10 15  1  0
 14 16  1  0
 14 17  1  0
 32 33  1  0
 15 22  1  0
 19 20  2  0
 16 17  1  0
 33 34  1  0
 22 21  2  0
 20 21  1  0
 20 23  1  0
 25 23  1  0
 23 24  1  0
  1 35  1  0
  1 36  1  0
  2 37  1  0
  3 38  1  0
  4 39  1  0
  5 40  1  0
  5 41  1  0
  6 42  1  0
 12 43  1  0
 13 44  1  0
 14 45  1  0
 16 46  1  0
 16 47  1  0
 17 48  1  0
 17 49  1  0
 18 50  1  0
 19 51  1  0
 21 52  1  0
 23 53  1  0
 24 54  1  0
 24 55  1  0
 24 56  1  0
 25 57  1  0
 25 58  1  0
 25 59  1  0
 26 60  1  0
 27 61  1  0
 27 62  1  0
 28 63  1  0
 29 64  1  0
 29 65  1  0
 29 66  1  0
 30 67  1  0
 30 68  1  0
 30 69  1  0
 31 70  1  0
 31 71  1  0
 33 72  1  0
 33 73  1  0
 34 74  1  0
 34 75  1  0
 34 76  1  0
A    1
C1
A    2
C2
A    3
C3
A    4
C4
A    5
C5
A    6
N6
A    7
C7
A    8
C8
A    9
O9
A   10
N10
A   11
O11
A   12
N12
A   13
O13
A   14
C14
A   15
C15
A   16
C16
A   17
C17
A   18
C18
A   19
C19
A   20
C20
A   21
C21
A   22
N22
A   23
C23
A   24
C24
A   25
C25
A   26
C26
A   27
C27
A   28
C28
A   29
C29
A   30
C30
A   31
C31
A   32
O32
A   33
C33
A   34
C34
M  END
