3T9F_I8P_A_501
     RDKit          3D

 64 64  0  0  0  0  0  0  0  0999 V2000
    0.8330   18.4860    9.9280 C   0  0  0  0  0  0  0  0  0  0  0  0
   -0.6280   18.9530    9.7860 C   0  0  0  0  0  0  0  0  0  0  0  0
   -1.3290   18.8720   11.1580 C   0  0  0  0  0  0  0  0  0  0  0  0
   -0.6480   19.7830   12.1680 C   0  0  0  0  0  0  0  0  0  0  0  0
    0.8470   19.4680   12.2810 C   0  0  0  0  0  0  0  0  0  0  0  0
    1.5950   19.3580   10.9370 C   0  0  0  0  0  0  0  0  0  0  0  0
    1.4820   18.4910    8.6550 O   0  0  0  0  0  0  0  0  0  0  0  0
   -0.6710   20.3030    9.2850 O   0  0  0  0  0  0  0  0  0  0  0  0
   -2.7110   19.2320   11.0460 O   0  0  0  0  0  0  0  0  0  0  0  0
   -1.2500   19.5530   13.4280 O   0  0  0  0  0  0  0  0  0  0  0  0
    1.4600   20.5130   13.0110 O   0  0  0  0  0  0  0  0  0  0  0  0
    2.8330   18.7530   11.2500 O   0  0  0  0  0  0  0  0  0  0  0  0
    0.1760   17.4670    6.7490 O   0  0  0  0  0  0  0  0  0  0  0  0
   -0.5050   21.8430    7.2350 O   0  0  0  0  0  0  0  0  0  0  0  0
   -3.7020   17.6240   12.7310 O   0  0  0  0  0  0  0  0  0  0  0  0
   -3.7790   20.0650   13.7170 O   0  0  0  0  0  0  0  0  0  0  0  0
    1.7910   18.9760   15.0470 O   0  0  0  0  0  0  0  0  0  0  0  0
    5.3860   18.8530   11.7630 O   0  0  0  0  0  0  0  0  0  0  0  0
    2.6930   17.1220    6.9390 O   0  0  0  0  0  0  0  0  0  0  0  0
   -1.2730   19.4310    6.8940 O   0  0  0  0  0  0  0  0  0  0  0  0
   -3.2840   16.8580   10.3090 O   0  0  0  0  0  0  0  0  0  0  0  0
   -2.1670   21.9790   13.4380 O   0  0  0  0  0  0  0  0  0  0  0  0
    0.9670   21.4060   15.2580 O   0  0  0  0  0  0  0  0  0  0  0  0
    4.1130   20.9750   10.9370 O   0  0  0  0  0  0  0  0  0  0  0  0
    1.0030   15.9420    8.5080 O   0  0  0  0  0  0  0  0  0  0  0  0
   -2.8130   21.1020    8.0250 O   0  0  0  0  0  0  0  0  0  0  0  0
   -5.2160   18.5620   10.7840 O   0  0  0  0  0  0  0  0  0  0  0  0
   -2.0940   20.5790   15.6360 O   0  0  0  0  0  0  0  0  0  0  0  0
    3.3380   20.8380   14.5050 O   0  0  0  0  0  0  0  0  0  0  0  0
    4.4600   18.9360    9.3160 O   0  0  0  0  0  0  0  0  0  0  0  0
    0.5070   13.5350    8.6170 O   0  0  0  0  0  0  0  0  0  0  0  0
    3.2600   23.4330   14.6320 O   0  0  0  0  0  0  0  0  0  0  0  0
    3.0420   14.0700    7.9870 O   0  0  0  0  0  0  0  0  0  0  0  0
    5.5000   22.0430   15.0930 O   0  0  0  0  0  0  0  0  0  0  0  0
    2.1690   14.4970   10.3880 O   0  0  0  0  0  0  0  0  0  0  0  0
    3.5980   22.0090   16.8180 O   0  0  0  0  0  0  0  0  0  0  0  0
    1.3830   17.2470    7.5930 P   0  0  0  0  0  0  0  0  0  0  0  0
   -1.3200   20.6040    7.7970 P   0  0  0  0  0  0  0  0  0  0  0  0
   -3.8460   18.0640   11.1930 P   0  0  0  0  0  0  0  0  0  0  0  0
   -2.3070   20.5710   14.1560 P   0  0  0  0  0  0  0  0  0  0  0  0
    1.8090   20.3790   14.5760 P   0  0  0  0  0  0  0  0  0  0  0  0
    4.2440   19.3540   10.7290 P   0  0  0  0  0  0  0  0  0  0  0  0
    1.7690   14.5170    8.9470 P   0  0  0  0  0  0  0  0  0  0  0  0
    3.8850   22.0880   15.3540 P   0  0  0  0  0  0  0  0  0  0  0  0
    0.8308   17.4554   10.3124 H   0  0  0  0  0  0  0  0  0  0  0  0
   -1.1505   18.2986    9.0728 H   0  0  0  0  0  0  0  0  0  0  0  0
   -1.2568   17.8316   11.5078 H   0  0  0  0  0  0  0  0  0  0  0  0
   -0.7591   20.8282   11.8437 H   0  0  0  0  0  0  0  0  0  0  0  0
    0.9118   18.4826   12.7655 H   0  0  0  0  0  0  0  0  0  0  0  0
    1.7074   20.3476   10.4701 H   0  0  0  0  0  0  0  0  0  0  0  0
   -0.1536   22.3771    7.9909 H   0  0  0  0  0  0  0  0  0  0  0  0
   -3.9504   18.3830   13.3160 H   0  0  0  0  0  0  0  0  0  0  0  0
   -4.3190   19.8794   14.5258 H   0  0  0  0  0  0  0  0  0  0  0  0
    5.0731   18.9903   12.6922 H   0  0  0  0  0  0  0  0  0  0  0  0
    3.4007   17.0545    7.6280 H   0  0  0  0  0  0  0  0  0  0  0  0
    1.0512   21.3033   16.2390 H   0  0  0  0  0  0  0  0  0  0  0  0
    4.0962   21.1832   11.9047 H   0  0  0  0  0  0  0  0  0  0  0  0
   -2.9959   21.1630    8.9961 H   0  0  0  0  0  0  0  0  0  0  0  0
   -5.7516   18.7567   11.5935 H   0  0  0  0  0  0  0  0  0  0  0  0
   -2.9702   20.5461   16.0957 H   0  0  0  0  0  0  0  0  0  0  0  0
    0.1031   13.2207    9.4644 H   0  0  0  0  0  0  0  0  0  0  0  0
    5.9744   22.0298   15.9618 H   0  0  0  0  0  0  0  0  0  0  0  0
    1.3591   14.5375   10.9559 H   0  0  0  0  0  0  0  0  0  0  0  0
    4.4165   22.2343   17.3274 H   0  0  0  0  0  0  0  0  0  0  0  0
  7  1  1  0
  2  1  1  0
  1  6  1  0
  8  2  1  0
  2  3  1  0
  9  3  1  0
  3  4  1  0
  4  5  1  0
  4 10  1  0
  6  5  1  0
  5 11  1  0
  6 12  1  0
 37  7  1  0
 38  8  1  0
  9 39  1  0
 10 40  1  0
 11 41  1  0
 42 12  1  0
 13 37  2  0
 14 38  1  0
 39 15  1  0
 16 40  1  0
 41 17  2  0
 42 18  1  0
 19 37  1  0
 20 38  2  0
 21 39  2  0
 22 40  2  0
 41 23  1  0
 42 24  1  0
 37 25  1  0
 25 43  1  0
 38 26  1  0
 27 39  1  0
 40 28  1  0
 29 41  1  0
 29 44  1  0
 30 42  2  0
 31 43  1  0
 32 44  2  0
 33 43  2  0
 34 44  1  0
 43 35  1  0
 44 36  1  0
  1 45  1  0
  2 46  1  0
  3 47  1  0
  4 48  1  0
  5 49  1  0
  6 50  1  0
 14 51  1  0
 15 52  1  0
 16 53  1  0
 18 54  1  0
 19 55  1  0
 23 56  1  0
 24 57  1  0
 26 58  1  0
 27 59  1  0
 28 60  1  0
 31 61  1  0
 34 62  1  0
 35 63  1  0
 36 64  1  0
A    1
C1
A    2
C2
A    3
C3
A    4
C4
A    5
C5
A    6
C6
A    7
O11
A    8
O12
A    9
O13
A   10
O14
A   11
O15
A   12
O16
A   13
O21
A   14
O22
A   15
O23
A   16
O24
A   17
O25
A   18
O26
A   19
O31
A   20
O32
A   21
O33
A   22
O34
A   23
O35
A   24
O36
A   25
O41
A   26
O42
A   27
O43
A   28
O44
A   29
O45
A   30
O46
A   31
O51
A   32
O55
A   33
O61
A   34
O65
A   35
O71
A   36
O75
A   37
PA1
A   38
PA2
A   39
PA3
A   40
PA4
A   41
PA5
A   42
PA6
A   43
PB1
A   44
PB5
M  END
