4Q4D_2YN_A_402
     RDKit          3D

 64 64  0  0  0  0  0  0  0  0999 V2000
    1.7240   24.3320   16.6440 O   0  0  0  0  0  0  0  0  0  0  0  0
    3.0770   23.5780   16.1600 P   0  0  0  0  0  0  0  0  0  0  0  0
    4.0240   24.6200   15.6890 O   0  0  0  0  0  0  0  0  0  0  0  0
    3.5280   22.5720   17.1620 O   0  0  0  0  0  0  0  0  0  0  0  0
    2.5580   22.7560   14.8570 O   0  0  0  0  0  0  0  0  0  0  0  0
    1.3400   21.6490   14.8630 P   0  0  0  0  0  0  0  0  0  0  0  0
    0.2810   22.0500   15.8090 O   0  0  0  0  0  0  0  0  0  0  0  0
    1.9210   20.2860   14.9250 O   0  0  0  0  0  0  0  0  0  0  0  0
    0.7710   21.9350   13.3490 O   0  0  0  0  0  0  0  0  0  0  0  0
    0.6820   20.9160   12.3830 C   0  0  0  0  0  0  0  0  0  0  0  0
   -0.7690   20.7900   12.0510 C   0  0  0  0  0  0  0  0  0  0  0  0
   -1.4380   20.3480   13.2560 O   0  0  0  0  0  0  0  0  0  0  0  0
   -2.6750   21.1560   13.9250 P   0  0  0  0  0  0  0  0  0  0  0  0
   -2.5360   22.5630   13.5250 O   0  0  0  0  0  0  0  0  0  0  0  0
   -3.7970   20.4080   13.3600 O   0  0  0  0  0  0  0  0  0  0  0  0
   -2.4130   20.9190   15.3640 O   0  0  0  0  0  0  0  0  0  0  0  0
    1.5080   21.3180   11.1640 C   0  0  0  0  0  0  0  0  0  0  0  0
    2.8870   21.2920   11.5560 O   0  0  0  0  0  0  0  0  0  0  0  0
    3.7630   22.6240   11.5960 P   0  0  0  0  0  0  0  0  0  0  0  0
    2.8190   23.7530   11.5570 O   0  0  0  0  0  0  0  0  0  0  0  0
    4.5470   22.5110   12.8410 O   0  0  0  0  0  0  0  0  0  0  0  0
    4.5360   22.4140   10.3330 O   0  0  0  0  0  0  0  0  0  0  0  0
    1.3290   20.3210   10.0410 C   0  0  0  0  0  0  0  0  0  0  0  0
    2.0500   20.8360    8.8440 O   0  0  0  0  0  0  0  0  0  0  0  0
    3.3670   20.0430    8.3060 P   0  0  0  0  0  0  0  0  0  0  0  0
    3.8130   20.8210    7.1410 O   0  0  0  0  0  0  0  0  0  0  0  0
    4.2840   20.0580    9.4790 O   0  0  0  0  0  0  0  0  0  0  0  0
    2.7750   18.7080    8.0060 O   0  0  0  0  0  0  0  0  0  0  0  0
   -0.1700   20.1230    9.7210 C   0  0  0  0  0  0  0  0  0  0  0  0
   -0.6480   21.3330    9.1920 O   0  0  0  0  0  0  0  0  0  0  0  0
   -1.0810   21.4610    7.6120 P   0  0  0  0  0  0  0  0  0  0  0  0
   -0.8710   22.8900    7.3660 O   0  0  0  0  0  0  0  0  0  0  0  0
   -0.2250   20.5560    6.8230 O   0  0  0  0  0  0  0  0  0  0  0  0
   -2.4970   21.0060    7.7200 O   0  0  0  0  0  0  0  0  0  0  0  0
   -0.9480   19.7500   10.9920 C   0  0  0  0  0  0  0  0  0  0  0  0
   -2.3570   19.6060   10.7160 O   0  0  0  0  0  0  0  0  0  0  0  0
   -2.8860   18.1850   10.1350 P   0  0  0  0  0  0  0  0  0  0  0  0
   -1.9190   17.0040   10.6840 O   0  0  0  0  0  0  0  0  0  0  0  0
   -2.8890   18.1970    8.6430 O   0  0  0  0  0  0  0  0  0  0  0  0
   -4.2680   17.9620   10.8760 O   0  0  0  0  0  0  0  0  0  0  0  0
   -5.5410   18.8780   10.4950 P   0  0  0  0  0  0  0  0  0  0  0  0
   -6.6810   17.9460   10.4880 O   0  0  0  0  0  0  0  0  0  0  0  0
   -5.5810   19.9140   11.5200 O   0  0  0  0  0  0  0  0  0  0  0  0
   -5.1270   19.3340    9.1470 O   0  0  0  0  0  0  0  0  0  0  0  0
    1.6920   24.3498   17.6333 H   0  0  0  0  0  0  0  0  0  0  0  0
    3.3711   22.9220   18.0747 H   0  0  0  0  0  0  0  0  0  0  0  0
    0.6038   21.9278   16.7369 H   0  0  0  0  0  0  0  0  0  0  0  0
    1.0736   19.9520   12.7397 H   0  0  0  0  0  0  0  0  0  0  0  0
   -1.1752   21.7462   11.6896 H   0  0  0  0  0  0  0  0  0  0  0  0
   -2.4798   23.1319   14.3333 H   0  0  0  0  0  0  0  0  0  0  0  0
   -3.0269   21.4743   15.9070 H   0  0  0  0  0  0  0  0  0  0  0  0
    1.1888   22.3115   10.8161 H   0  0  0  0  0  0  0  0  0  0  0  0
    2.5915   24.0250   12.4813 H   0  0  0  0  0  0  0  0  0  0  0  0
    3.9429   22.5981   13.6205 H   0  0  0  0  0  0  0  0  0  0  0  0
    1.7381   19.3446   10.3397 H   0  0  0  0  0  0  0  0  0  0  0  0
    3.7520   20.0493   10.3139 H   0  0  0  0  0  0  0  0  0  0  0  0
    2.5678   18.2408    8.8539 H   0  0  0  0  0  0  0  0  0  0  0  0
   -0.3050   19.3037    8.9995 H   0  0  0  0  0  0  0  0  0  0  0  0
   -0.8009   23.3669    8.2307 H   0  0  0  0  0  0  0  0  0  0  0  0
   -2.7460   20.9260    8.6748 H   0  0  0  0  0  0  0  0  0  0  0  0
   -0.5468   18.7894   11.3474 H   0  0  0  0  0  0  0  0  0  0  0  0
   -1.9224   17.0082   11.6740 H   0  0  0  0  0  0  0  0  0  0  0  0
   -6.9399   17.7343   11.4198 H   0  0  0  0  0  0  0  0  0  0  0  0
   -5.5647   19.4928   12.4158 H   0  0  0  0  0  0  0  0  0  0  0  0
 33 31  2  0
 26 25  2  0
 32 31  1  0
 31 34  1  0
 31 30  1  0
 28 25  1  0
 25 24  1  0
 25 27  1  0
 39 37  2  0
 24 23  1  0
 44 41  2  0
 30 29  1  0
 29 23  1  0
 29 35  1  0
 23 17  1  0
 37 38  1  0
 37 36  1  0
 37 40  1  0
 22 19  2  0
 42 41  1  0
 41 40  1  0
 41 43  1  0
 36 35  1  0
 35 11  1  0
 17 18  1  0
 17 10  1  0
 18 19  1  0
 20 19  1  0
 19 21  1  0
 11 10  1  0
 11 12  1  0
 10  9  1  0
 12 13  1  0
  9  6  1  0
 15 13  2  0
 14 13  1  0
 13 16  1  0
  5  6  1  0
  5  2  1  0
  6  8  2  0
  6  7  1  0
  3  2  2  0
  2  1  1  0
  2  4  1  0
  1 45  1  0
  4 46  1  0
  7 47  1  0
 10 48  1  0
 11 49  1  0
 14 50  1  0
 16 51  1  0
 17 52  1  0
 20 53  1  0
 21 54  1  0
 23 55  1  0
 27 56  1  0
 28 57  1  0
 29 58  1  0
 32 59  1  0
 34 60  1  0
 35 61  1  0
 38 62  1  0
 42 63  1  0
 43 64  1  0
A    1
O55
A    2
PB5
A    3
O65
A    4
O75
A    5
O45
A    6
PA5
A    7
O35
A    8
O25
A    9
O15
A   10
C5
A   11
C4
A   12
O14
A   13
PA4
A   14
O34
A   15
O24
A   16
O44
A   17
C6
A   18
O16
A   19
PA6
A   20
O46
A   21
O26
A   22
O36
A   23
C1
A   24
O11
A   25
PA1
A   26
O21
A   27
O31
A   28
O41
A   29
C2
A   30
O12
A   31
PA2
A   32
O22
A   33
O32
A   34
O42
A   35
C3
A   36
O13
A   37
PA3
A   38
O23
A   39
O33
A   40
O43
A   41
PB3
A   42
O63
A   43
O73
A   44
O53
M  END
