4Q4P_2YO_A_405
     RDKit          3D

 43 46  0  0  0  0  0  0  0  0999 V2000
  109.0460   18.4540   24.1300 O   0  0  0  0  0  0  0  0  0  0  0  0
  107.9630   18.1050   23.6670 C   0  0  0  0  0  0  0  0  0  0  0  0
  106.8830   17.7850   24.4800 N   0  0  0  0  0  0  0  0  0  0  0  0
  107.6990   18.0350   22.2280 C   0  0  0  0  0  0  0  0  0  0  0  0
  106.4020   17.7000   21.7870 C   0  0  0  0  0  0  0  0  0  0  0  0
  105.4170   17.3910   22.7210 N   0  0  0  0  0  0  0  0  0  0  0  0
  105.6600   17.4370   24.0430 C   0  0  0  0  0  0  0  0  0  0  0  0
  106.0950   17.7450   20.4230 C   0  0  0  0  0  0  0  0  0  0  0  0
  107.0750   18.1250   19.5020 C   0  0  0  0  0  0  0  0  0  0  0  0
  108.3610   18.4240   19.9500 C   0  0  0  0  0  0  0  0  0  0  0  0
  108.6710   18.3810   21.2920 C   0  0  0  0  0  0  0  0  0  0  0  0
  106.9990   18.3160   18.1240 N   0  0  0  0  0  0  0  0  0  0  0  0
  108.2150   18.7070   17.7820 C   0  0  0  0  0  0  0  0  0  0  0  0
  109.0750   18.7800   18.8220 N   0  0  0  0  0  0  0  0  0  0  0  0
  108.6210   19.0120   16.5470 N   0  0  0  0  0  0  0  0  0  0  0  0
  107.7210   18.9920   15.4080 C   0  0  0  0  0  0  0  0  0  0  0  0
  108.4550   19.1210   14.0920 C   0  0  0  0  0  0  0  0  0  0  0  0
  107.5390   19.0940   12.9080 N   0  0  0  0  0  0  0  0  0  0  0  0
  108.2860   18.7640   11.6580 C   0  0  0  0  0  0  0  0  0  0  0  0
  107.3440   18.6610   10.4830 C   0  0  0  0  0  0  0  0  0  0  0  0
  106.5570   19.9420   10.2960 C   0  0  0  0  0  0  0  0  0  0  0  0
  105.8540   20.3320   11.5810 C   0  0  0  0  0  0  0  0  0  0  0  0
  106.8180   20.3930   12.7450 C   0  0  0  0  0  0  0  0  0  0  0  0
  104.4793   17.1206   22.3916 H   0  0  0  0  0  0  0  0  0  0  0  0
  104.8640   17.1917   24.7615 H   0  0  0  0  0  0  0  0  0  0  0  0
  105.0848   17.4820   20.0762 H   0  0  0  0  0  0  0  0  0  0  0  0
  109.6912   18.6211   21.6259 H   0  0  0  0  0  0  0  0  0  0  0  0
  106.1818   18.1830   17.5113 H   0  0  0  0  0  0  0  0  0  0  0  0
  109.6068   19.2704   16.3973 H   0  0  0  0  0  0  0  0  0  0  0  0
  107.0137   19.8292   15.5017 H   0  0  0  0  0  0  0  0  0  0  0  0
  107.2003   18.0230   15.4085 H   0  0  0  0  0  0  0  0  0  0  0  0
  109.1667   18.2869   14.0040 H   0  0  0  0  0  0  0  0  0  0  0  0
  108.9643   20.0960   14.0927 H   0  0  0  0  0  0  0  0  0  0  0  0
  108.8041   17.8027   11.7904 H   0  0  0  0  0  0  0  0  0  0  0  0
  109.0124   19.5657   11.4588 H   0  0  0  0  0  0  0  0  0  0  0  0
  106.6428   17.8316   10.6573 H   0  0  0  0  0  0  0  0  0  0  0  0
  107.9388   18.4827    9.5751 H   0  0  0  0  0  0  0  0  0  0  0  0
  107.2447   20.7485   10.0017 H   0  0  0  0  0  0  0  0  0  0  0  0
  105.8003   19.7809    9.5140 H   0  0  0  0  0  0  0  0  0  0  0  0
  105.3906   21.3208   11.4488 H   0  0  0  0  0  0  0  0  0  0  0  0
  105.0934   19.5690   11.8030 H   0  0  0  0  0  0  0  0  0  0  0  0
  107.5518   21.1921   12.5636 H   0  0  0  0  0  0  0  0  0  0  0  0
  106.2480   20.5967   13.6635 H   0  0  0  0  0  0  0  0  0  0  0  0
 21 20  1  0
 21 22  1  0
 20 19  1  0
 22 23  1  0
 19 18  1  0
 23 18  1  0
 18 17  1  0
 17 16  1  0
 16 15  1  0
 15 13  1  0
 13 12  1  0
 13 14  2  0
 12  9  1  0
 14 10  1  0
  9 10  2  0
  9  8  1  0
 10 11  1  0
  8  5  2  0
 11  4  2  0
  5  4  1  0
  5  6  1  0
  4  2  1  0
  6  7  1  0
  2  1  2  0
  2  3  1  0
  7  3  2  0
  6 24  1  0
  7 25  1  0
  8 26  1  0
 11 27  1  0
 12 28  1  0
 15 29  1  0
 16 30  1  0
 16 31  1  0
 17 32  1  0
 17 33  1  0
 19 34  1  0
 19 35  1  0
 20 36  1  0
 20 37  1  0
 21 38  1  0
 21 39  1  0
 22 40  1  0
 22 41  1  0
 23 42  1  0
 23 43  1  0
A    1
O
A    2
C1
A    3
N1
A    4
C2
A    5
C15
A    6
N6
A    7
C
A    8
C14
A    9
C13
A   10
C4
A   11
C3
A   12
N5
A   13
C5
A   14
N2
A   15
N3
A   16
C6
A   17
C7
A   18
N4
A   19
C12
A   20
C11
A   21
C10
A   22
C9
A   23
C8
M  END
