3C2Z_S98_A_1403
     RDKit          3D

 30 32  0  0  0  0  0  0  0  0999 V2000
   19.2090   18.1450   18.0950 N   0  0  0  0  0  0  0  0  0  0  0  0
   18.5210   17.8440   19.2420 C   0  0  0  0  0  0  0  0  0  0  0  0
   17.2500   17.4470   18.8450 C   0  0  0  0  0  0  0  0  0  0  0  0
   17.2320   17.6230   17.5170 N   0  0  0  0  0  0  0  0  0  0  0  0
   18.3320   18.1270   17.1220 C   0  0  0  0  0  0  0  0  0  0  0  0
   18.6010   18.4410   15.8730 N   0  0  0  0  0  0  0  0  0  0  0  0
   17.6280   18.2540   14.8150 C   0  0  0  0  0  0  0  0  0  0  0  0
   18.1420   18.6680   13.4600 C   0  0  0  0  0  0  0  0  0  0  0  0
   16.3060   16.9880   19.7580 C   0  0  0  0  0  0  0  0  0  0  0  0
   16.6140   17.1830   21.1100 C   0  0  0  0  0  0  0  0  0  0  0  0
   17.8910   17.5620   21.5150 C   0  0  0  0  0  0  0  0  0  0  0  0
   18.1200   17.6100   23.0110 C   0  0  0  0  0  0  0  0  0  0  0  0
   19.2590   17.8940   23.3760 O   0  0  0  0  0  0  0  0  0  0  0  0
   17.0920   17.3870   23.8110 N   0  0  0  0  0  0  0  0  0  0  0  0
   15.9120   17.0530   23.3140 C   0  0  0  0  0  0  0  0  0  0  0  0
   14.9350   16.6940   24.1290 N   0  0  0  0  0  0  0  0  0  0  0  0
   15.6690   16.9050   22.0560 N   0  0  0  0  0  0  0  0  0  0  0  0
   18.9150   17.7860   20.5820 C   0  0  0  0  0  0  0  0  0  0  0  0
   20.2160   18.3456   18.0143 H   0  0  0  0  0  0  0  0  0  0  0  0
   19.5263   18.8295   15.6411 H   0  0  0  0  0  0  0  0  0  0  0  0
   17.3540   17.1894   14.7753 H   0  0  0  0  0  0  0  0  0  0  0  0
   16.7634   18.8931   15.0474 H   0  0  0  0  0  0  0  0  0  0  0  0
   18.9932   19.3536   13.5845 H   0  0  0  0  0  0  0  0  0  0  0  0
   18.4674   17.7768   12.9033 H   0  0  0  0  0  0  0  0  0  0  0  0
   17.3406   19.1758   12.9033 H   0  0  0  0  0  0  0  0  0  0  0  0
   15.3734   16.5010   19.4370 H   0  0  0  0  0  0  0  0  0  0  0  0
   17.2104   17.4740   24.8305 H   0  0  0  0  0  0  0  0  0  0  0  0
   15.0706   16.7438   25.1488 H   0  0  0  0  0  0  0  0  0  0  0  0
   14.0382   16.3645   23.7442 H   0  0  0  0  0  0  0  0  0  0  0  0
   19.9648   17.9086   20.8868 H   0  0  0  0  0  0  0  0  0  0  0  0
  1  2  1  0
  1  5  1  0
  2  3  2  0
  2 18  1  0
  3  4  1  0
  3  9  1  0
  4  5  2  0
  5  6  1  0
  6  7  1  0
  7  8  1  0
  9 10  2  0
 10 11  1  0
 10 17  1  0
 11 12  1  0
 11 18  2  0
 12 13  2  0
 12 14  1  0
 14 15  1  0
 15 16  1  0
 15 17  2  0
  1 19  1  0
  6 20  1  0
  7 21  1  0
  7 22  1  0
  8 23  1  0
  8 24  1  0
  8 25  1  0
  9 26  1  0
 14 27  1  0
 16 28  1  0
 16 29  1  0
 18 30  1  0
A    1
N2
A    2
C3
A    3
C12
A    4
N13
A    5
C1
A    6
N14
A    7
C15
A    8
C16
A    9
C11
A   10
C10
A   11
C5
A   12
C6
A   13
O21
A   14
N7
A   15
C8
A   16
N22
A   17
N9
A   18
C4
M  END
