4Q7N_2ZO_A_402
     RDKit          3D

 25 24  0  0  0  0  0  0  0  0999 V2000
   19.2130    0.4850  -14.1310 O   0  0  0  0  0  0  0  0  0  0  0  0
   19.7950    1.0750  -14.9450 C   0  0  0  0  0  0  0  0  0  0  0  0
   21.2790    0.9560  -15.1850 C   0  0  0  0  0  0  0  0  0  0  0  0
   20.9330    1.9270  -16.2440 C   0  0  0  0  0  0  0  0  0  0  0  0
   19.7410    1.2670  -16.9500 C   0  0  0  0  0  0  0  0  0  0  0  0
   19.6430    2.1500  -18.1160 N   0  0  0  0  0  0  0  0  0  0  0  0
   18.6620    3.1170  -17.6620 C   0  0  0  0  0  0  0  0  0  0  0  0
   19.1390    1.3600  -19.2790 C   0  0  0  0  0  0  0  0  0  0  0  0
   20.9520    2.8230  -18.3440 C   0  0  0  0  0  0  0  0  0  0  0  0
   19.2256    1.7666  -15.5833 H   0  0  0  0  0  0  0  0  0  0  0  0
   21.9320    1.3267  -14.3811 H   0  0  0  0  0  0  0  0  0  0  0  0
   21.8271    0.0145  -15.3371 H   0  0  0  0  0  0  0  0  0  0  0  0
   20.6473    2.8972  -15.8114 H   0  0  0  0  0  0  0  0  0  0  0  0
   21.7715    2.1414  -16.9230 H   0  0  0  0  0  0  0  0  0  0  0  0
   19.9567    0.2274  -17.2376 H   0  0  0  0  0  0  0  0  0  0  0  0
   18.8254    1.1787  -16.3468 H   0  0  0  0  0  0  0  0  0  0  0  0
   18.6452    3.1336  -16.5623 H   0  0  0  0  0  0  0  0  0  0  0  0
   18.9289    4.1150  -18.0397 H   0  0  0  0  0  0  0  0  0  0  0  0
   17.6679    2.8358  -18.0397 H   0  0  0  0  0  0  0  0  0  0  0  0
   18.5809    0.4852  -18.9138 H   0  0  0  0  0  0  0  0  0  0  0  0
   18.4753    1.9895  -19.8899 H   0  0  0  0  0  0  0  0  0  0  0  0
   19.9896    1.0234  -19.8899 H   0  0  0  0  0  0  0  0  0  0  0  0
   21.4154    3.0613  -17.3753 H   0  0  0  0  0  0  0  0  0  0  0  0
   21.6143    2.1536  -18.9126 H   0  0  0  0  0  0  0  0  0  0  0  0
   20.7930    3.7511  -18.9126 H   0  0  0  0  0  0  0  0  0  0  0  0
  1  2  2  0
  2  3  1  0
  3  4  1  0
  4  5  1  0
  5  6  1  0
  6  7  1  0
  6  8  1  0
  6  9  1  0
  2 10  1  0
  3 11  1  0
  3 12  1  0
  4 13  1  0
  4 14  1  0
  5 15  1  0
  5 16  1  0
  7 17  1  0
  7 18  1  0
  7 19  1  0
  8 20  1  0
  8 21  1  0
  8 22  1  0
  9 23  1  0
  9 24  1  0
  9 25  1  0
M  CHG  1   6   1
A    1
O
A    2
C4
A    3
C3
A    4
C2
A    5
C1
A    6
N
A    7
C7
A    8
C6
A    9
C5
M  END
