4Q8S_PNR_A_201
     RDKit          3D

 62 62  0  0  0  0  0  0  0  0999 V2000
  -32.6930  -20.0910  -39.9960 O   0  0  0  0  0  0  0  0  0  0  0  0
  -32.6780  -21.3370  -40.0720 N   0  0  0  0  0  0  0  0  0  0  0  0
  -31.9930  -22.0330  -39.2910 O   0  0  0  0  0  0  0  0  0  0  0  0
  -33.4510  -21.9480  -41.0810 C   0  0  0  0  0  0  0  0  0  0  0  0
  -32.8150  -22.7690  -42.0360 C   0  0  0  0  0  0  0  0  0  0  0  0
  -33.5690  -23.3660  -43.0490 C   0  0  0  0  0  0  0  0  0  0  0  0
  -34.8610  -21.7390  -41.1510 C   0  0  0  0  0  0  0  0  0  0  0  0
  -35.6670  -22.3360  -42.1740 C   0  0  0  0  0  0  0  0  0  0  0  0
  -34.9720  -23.1560  -43.1250 C   0  0  0  0  0  0  0  0  0  0  0  0
  -35.7040  -23.7450  -44.1510 O   0  0  0  0  0  0  0  0  0  0  0  0
  -35.6010  -25.1620  -44.5180 C   0  0  0  0  0  0  0  0  0  0  0  0
  -34.5140  -25.6160  -44.8470 O   0  0  0  0  0  0  0  0  0  0  0  0
  -36.8360  -26.0240  -44.4950 C   0  0  0  0  0  0  0  0  0  0  0  0
  -37.5370  -26.0470  -45.8540 C   0  0  0  0  0  0  0  0  0  0  0  0
  -38.7670  -26.9300  -45.7190 C   0  0  0  0  0  0  0  0  0  0  0  0
  -39.1260  -27.7180  -46.9660 C   0  0  0  0  0  0  0  0  0  0  0  0
  -39.3710  -29.2170  -46.7110 C   0  0  0  0  0  0  0  0  0  0  0  0
  -40.4290  -29.4670  -45.6350 C   0  0  0  0  0  0  0  0  0  0  0  0
  -41.7910  -29.4550  -46.2760 C   0  0  0  0  0  0  0  0  0  0  0  0
  -42.8690  -29.6780  -45.2280 C   0  0  0  0  0  0  0  0  0  0  0  0
  -44.2140  -29.6350  -45.9300 C   0  0  0  0  0  0  0  0  0  0  0  0
  -45.3070  -30.4570  -45.2400 C   0  0  0  0  0  0  0  0  0  0  0  0
  -46.6920  -29.8100  -45.3790 C   0  0  0  0  0  0  0  0  0  0  0  0
  -47.2110  -29.7940  -46.8260 C   0  0  0  0  0  0  0  0  0  0  0  0
  -48.0560  -31.0240  -47.1650 C   0  0  0  0  0  0  0  0  0  0  0  0
  -49.3230  -30.6620  -47.9560 C   0  0  0  0  0  0  0  0  0  0  0  0
  -50.4390  -30.0760  -47.0970 C   0  0  0  0  0  0  0  0  0  0  0  0
  -31.7294  -22.9383  -41.9830 H   0  0  0  0  0  0  0  0  0  0  0  0
  -33.0721  -24.0043  -43.7944 H   0  0  0  0  0  0  0  0  0  0  0  0
  -35.3436  -21.1002  -40.3967 H   0  0  0  0  0  0  0  0  0  0  0  0
  -36.7539  -22.1754  -42.2274 H   0  0  0  0  0  0  0  0  0  0  0  0
  -37.5327  -25.6281  -43.7415 H   0  0  0  0  0  0  0  0  0  0  0  0
  -36.5313  -27.0521  -44.2497 H   0  0  0  0  0  0  0  0  0  0  0  0
  -36.8613  -26.4586  -46.6182 H   0  0  0  0  0  0  0  0  0  0  0  0
  -37.8222  -25.0296  -46.1600 H   0  0  0  0  0  0  0  0  0  0  0  0
  -39.6224  -26.2880  -45.4620 H   0  0  0  0  0  0  0  0  0  0  0  0
  -38.5315  -27.6717  -44.9416 H   0  0  0  0  0  0  0  0  0  0  0  0
  -38.3006  -27.6201  -47.6866 H   0  0  0  0  0  0  0  0  0  0  0  0
  -40.0708  -27.3011  -47.3448 H   0  0  0  0  0  0  0  0  0  0  0  0
  -39.7060  -29.6835  -47.6492 H   0  0  0  0  0  0  0  0  0  0  0  0
  -38.4256  -29.6526  -46.3553 H   0  0  0  0  0  0  0  0  0  0  0  0
  -40.2518  -30.4449  -45.1634 H   0  0  0  0  0  0  0  0  0  0  0  0
  -40.3721  -28.6810  -44.8676 H   0  0  0  0  0  0  0  0  0  0  0  0
  -41.9542  -28.4824  -46.7633 H   0  0  0  0  0  0  0  0  0  0  0  0
  -41.8432  -30.2629  -47.0207 H   0  0  0  0  0  0  0  0  0  0  0  0
  -42.7281  -30.6581  -44.7488 H   0  0  0  0  0  0  0  0  0  0  0  0
  -42.8161  -28.9014  -44.4508 H   0  0  0  0  0  0  0  0  0  0  0  0
  -44.5465  -28.5874  -45.9753 H   0  0  0  0  0  0  0  0  0  0  0  0
  -44.0658  -30.0776  -46.9261 H   0  0  0  0  0  0  0  0  0  0  0  0
  -45.0626  -30.5453  -44.1711 H   0  0  0  0  0  0  0  0  0  0  0  0
  -45.3445  -31.4440  -45.7242 H   0  0  0  0  0  0  0  0  0  0  0  0
  -46.6310  -28.7727  -45.0181 H   0  0  0  0  0  0  0  0  0  0  0  0
  -47.3954  -30.4133  -44.7863 H   0  0  0  0  0  0  0  0  0  0  0  0
  -46.3490  -29.7605  -47.5085 H   0  0  0  0  0  0  0  0  0  0  0  0
  -47.8540  -28.9085  -46.9381 H   0  0  0  0  0  0  0  0  0  0  0  0
  -48.3531  -31.5181  -46.2282 H   0  0  0  0  0  0  0  0  0  0  0  0
  -47.4454  -31.6885  -47.7939 H   0  0  0  0  0  0  0  0  0  0  0  0
  -49.7013  -31.5739  -48.4411 H   0  0  0  0  0  0  0  0  0  0  0  0
  -49.0368  -29.8866  -48.6818 H   0  0  0  0  0  0  0  0  0  0  0  0
  -50.1902  -30.2067  -46.0335 H   0  0  0  0  0  0  0  0  0  0  0  0
  -50.5483  -29.0042  -47.3190 H   0  0  0  0  0  0  0  0  0  0  0  0
  -51.3834  -30.5946  -47.3190 H   0  0  0  0  0  0  0  0  0  0  0  0
  3  2  1  0
  5  6  1  0
  5  4  2  0
  6  9  2  0
  2  4  1  0
  2  1  2  0
  4  7  1  0
 16 17  1  0
 16 15  1  0
  9 10  1  0
  9  8  1  0
 10 11  1  0
  7  8  2  0
 17 18  1  0
 14 15  1  0
 14 13  1  0
 26 27  1  0
 26 25  1  0
 13 11  1  0
 11 12  2  0
 25 24  1  0
 18 19  1  0
 19 20  1  0
 24 23  1  0
 23 22  1  0
 20 21  1  0
 21 22  1  0
  5 28  1  0
  6 29  1  0
  7 30  1  0
  8 31  1  0
 13 32  1  0
 13 33  1  0
 14 34  1  0
 14 35  1  0
 15 36  1  0
 15 37  1  0
 16 38  1  0
 16 39  1  0
 17 40  1  0
 17 41  1  0
 18 42  1  0
 18 43  1  0
 19 44  1  0
 19 45  1  0
 20 46  1  0
 20 47  1  0
 21 48  1  0
 21 49  1  0
 22 50  1  0
 22 51  1  0
 23 52  1  0
 23 53  1  0
 24 54  1  0
 24 55  1  0
 25 56  1  0
 25 57  1  0
 26 58  1  0
 26 59  1  0
 27 60  1  0
 27 61  1  0
 27 62  1  0
M  CHG  2   2   1   3  -1
A    1
O2
A    2
N1
A    3
O1
A    4
C22
A    5
C21
A    6
C20
A    7
C23
A    8
C24
A    9
C19
A   10
O18
A   11
C16
A   12
O17
A   13
C15
A   14
C14
A   15
C13
A   16
C12
A   17
C11
A   18
C10
A   19
C9
A   20
C8
A   21
C7
A   22
C6
A   23
C5
A   24
C4
A   25
C3
A   26
C2
A   27
C1
M  END
