4Q8U_2YW_A_409
     RDKit          3D

 46 49  0  0  0  0  0  0  0  0999 V2000
  106.9950   18.0220   22.1810 C   0  0  0  0  0  0  0  0  0  0  0  0
  107.9720   18.4460   21.2830 C   0  0  0  0  0  0  0  0  0  0  0  0
  107.6930   18.4360   19.9240 C   0  0  0  0  0  0  0  0  0  0  0  0
  106.4420   17.9970   19.4650 C   0  0  0  0  0  0  0  0  0  0  0  0
  105.4680   17.5690   20.3690 C   0  0  0  0  0  0  0  0  0  0  0  0
  105.7500   17.5780   21.7380 C   0  0  0  0  0  0  0  0  0  0  0  0
  107.2570   18.0510   23.6420 C   0  0  0  0  0  0  0  0  0  0  0  0
  104.8360   17.1710   22.6440 N   0  0  0  0  0  0  0  0  0  0  0  0
  105.0830   17.2370   23.9690 C   0  0  0  0  0  0  0  0  0  0  0  0
  104.1290   16.8370   24.8340 N   0  0  0  0  0  0  0  0  0  0  0  0
  106.2680   17.6630   24.4630 N   0  0  0  0  0  0  0  0  0  0  0  0
  108.4450   18.7970   18.8440 N   0  0  0  0  0  0  0  0  0  0  0  0
  106.4340   18.1140   18.1120 N   0  0  0  0  0  0  0  0  0  0  0  0
  107.6560   18.5860   17.7910 C   0  0  0  0  0  0  0  0  0  0  0  0
  108.0660   18.8450   16.5180 N   0  0  0  0  0  0  0  0  0  0  0  0
  107.0930   18.9720   15.4380 C   0  0  0  0  0  0  0  0  0  0  0  0
  107.7020   19.3070   14.0740 C   0  0  0  0  0  0  0  0  0  0  0  0
  108.3510   18.4420   24.1070 O   0  0  0  0  0  0  0  0  0  0  0  0
  109.4850   23.2010   13.8880 C   0  0  0  0  0  0  0  0  0  0  0  0
  110.1440   24.5420   13.8110 C   0  0  0  0  0  0  0  0  0  0  0  0
  109.6870   25.6380   14.6480 O   0  0  0  0  0  0  0  0  0  0  0  0
  110.2070   26.9490   14.4380 C   0  0  0  0  0  0  0  0  0  0  0  0
  108.2000   23.0660   14.4030 C   0  0  0  0  0  0  0  0  0  0  0  0
  107.6060   21.8080   14.4690 C   0  0  0  0  0  0  0  0  0  0  0  0
  108.3080   20.6910   14.0270 C   0  0  0  0  0  0  0  0  0  0  0  0
  109.5880   20.8360   13.5080 C   0  0  0  0  0  0  0  0  0  0  0  0
  110.1840   22.0870   13.4430 C   0  0  0  0  0  0  0  0  0  0  0  0
  111.0780   24.7160   13.0480 O   0  0  0  0  0  0  0  0  0  0  0  0
  108.9531   18.7847   21.6472 H   0  0  0  0  0  0  0  0  0  0  0  0
  104.4870   17.2276   20.0070 H   0  0  0  0  0  0  0  0  0  0  0  0
  104.2923   16.9055   25.8487 H   0  0  0  0  0  0  0  0  0  0  0  0
  103.2370   16.4630   24.4801 H   0  0  0  0  0  0  0  0  0  0  0  0
  106.4135   17.6901   25.4823 H   0  0  0  0  0  0  0  0  0  0  0  0
  109.4110   19.1544   18.8429 H   0  0  0  0  0  0  0  0  0  0  0  0
  109.0704   18.9520   16.3163 H   0  0  0  0  0  0  0  0  0  0  0  0
  106.3856   19.7711   15.7045 H   0  0  0  0  0  0  0  0  0  0  0  0
  106.6103   17.9891   15.3333 H   0  0  0  0  0  0  0  0  0  0  0  0
  106.9120   19.2431   13.3112 H   0  0  0  0  0  0  0  0  0  0  0  0
  108.5103   18.5850   13.8859 H   0  0  0  0  0  0  0  0  0  0  0  0
  110.3970   27.4281   15.4098 H   0  0  0  0  0  0  0  0  0  0  0  0
  111.1474   26.8840   13.8711 H   0  0  0  0  0  0  0  0  0  0  0  0
  109.4777   27.5463   13.8711 H   0  0  0  0  0  0  0  0  0  0  0  0
  107.6533   23.9521   14.7579 H   0  0  0  0  0  0  0  0  0  0  0  0
  106.5870   21.6981   14.8685 H   0  0  0  0  0  0  0  0  0  0  0  0
  110.1334   19.9521   13.1457 H   0  0  0  0  0  0  0  0  0  0  0  0
  111.2025   22.1955   13.0420 H   0  0  0  0  0  0  0  0  0  0  0  0
 28 20  2  0
 27 26  1  0
 27 19  2  0
 26 25  2  0
 20 19  1  0
 20 21  1  0
 19 23  1  0
 25 17  1  0
 25 24  1  0
 17 16  1  0
 23 24  2  0
 22 21  1  0
 16 15  1  0
 15 14  1  0
 14 13  2  0
 14 12  1  0
 13  4  1  0
 12  3  1  0
  4  3  1  0
  4  5  2  0
  3  2  2  0
  5  6  1  0
  2  1  1  0
  6  1  2  0
  6  8  1  0
  1  7  1  0
  8  9  2  0
  7 18  2  0
  7 11  1  0
  9 11  1  0
  9 10  1  0
  2 29  1  0
  5 30  1  0
 10 31  1  0
 10 32  1  0
 11 33  1  0
 12 34  1  0
 15 35  1  0
 16 36  1  0
 16 37  1  0
 17 38  1  0
 17 39  1  0
 22 40  1  0
 22 41  1  0
 22 42  1  0
 23 43  1  0
 24 44  1  0
 26 45  1  0
 27 46  1  0
A    1
C1
A    2
C2
A    3
C3
A    4
C4
A    5
C5
A    6
C6
A    7
C7
A    8
N8
A    9
C9
A   10
N10
A   11
N11
A   12
N12
A   13
N13
A   14
C14
A   15
N15
A   16
C16
A   17
C17
A   18
O18
A   19
C19
A   20
C20
A   21
O21
A   22
C22
A   23
C23
A   24
C24
A   25
C25
A   26
C26
A   27
C27
A   28
O28
M  END
