4Q9S_30G_A_701
     RDKit          3D

 24 26  0  0  0  0  0  0  0  0999 V2000
    8.9800    2.5430   26.2910 C   0  0  0  0  0  0  0  0  0  0  0  0
    8.7430    1.2690   26.7600 C   0  0  0  0  0  0  0  0  0  0  0  0
    7.9610    3.2870   25.7220 C   0  0  0  0  0  0  0  0  0  0  0  0
    7.4820    0.7310   26.6500 C   0  0  0  0  0  0  0  0  0  0  0  0
    6.6790    2.7650   25.6090 C   0  0  0  0  0  0  0  0  0  0  0  0
    6.4720    1.4780   26.0850 C   0  0  0  0  0  0  0  0  0  0  0  0
    4.3880    3.0130   25.2950 C   0  0  0  0  0  0  0  0  0  0  0  0
    4.5980    5.2410   23.7040 C   0  0  0  0  0  0  0  0  0  0  0  0
    4.1940    1.8130   26.1080 C   0  0  0  0  0  0  0  0  0  0  0  0
    5.8450    4.7310   24.3670 C   0  0  0  0  0  0  0  0  0  0  0  0
    3.4390    4.5540   23.9420 N   0  0  0  0  0  0  0  0  0  0  0  0
    5.6220    3.4610   25.0580 N   0  0  0  0  0  0  0  0  0  0  0  0
    3.3560    3.4620   24.7350 N   0  0  0  0  0  0  0  0  0  0  0  0
    4.6210    6.2290   22.9880 O   0  0  0  0  0  0  0  0  0  0  0  0
    5.2380    0.8520   25.9960 O   0  0  0  0  0  0  0  0  0  0  0  0
    9.9894    2.9730   26.3697 H   0  0  0  0  0  0  0  0  0  0  0  0
    9.5559    0.6870   27.2187 H   0  0  0  0  0  0  0  0  0  0  0  0
    8.1689    4.3030   25.3552 H   0  0  0  0  0  0  0  0  0  0  0  0
    7.2815   -0.2887   27.0107 H   0  0  0  0  0  0  0  0  0  0  0  0
    4.1202    2.1196   27.1618 H   0  0  0  0  0  0  0  0  0  0  0  0
    3.2791    1.3273   25.7377 H   0  0  0  0  0  0  0  0  0  0  0  0
    6.6203    4.5860   23.6002 H   0  0  0  0  0  0  0  0  0  0  0  0
    6.1577    5.4734   25.1161 H   0  0  0  0  0  0  0  0  0  0  0  0
    2.5767    4.8893   23.4893 H   0  0  0  0  0  0  0  0  0  0  0  0
 14  8  2  0
  8 11  1  0
  8 10  1  0
 11 13  1  0
 10 12  1  0
 13  7  2  0
 12  7  1  0
 12  5  1  0
  7  9  1  0
  5  3  1  0
  5  6  2  0
  3  1  2  0
 15  6  1  0
 15  9  1  0
  6  4  1  0
  1  2  1  0
  4  2  2  0
  1 16  1  0
  2 17  1  0
  3 18  1  0
  4 19  1  0
  9 20  1  0
  9 21  1  0
 10 22  1  0
 10 23  1  0
 11 24  1  0
A    1
C9
A    2
C13
A    3
C4
A    4
C8
A    5
C1
A    6
C3
A    7
C5
A    8
C12
A    9
C10
A   10
C6
A   11
N14
A   12
N2
A   13
N11
A   14
O15
A   15
O7
M  END
