4Q9Z_PZW_A_801
     RDKit          3D

 41 44  0  0  0  0  0  0  0  0999 V2000
   25.0540   -7.4390  -10.4730 C   0  0  0  0  0  0  0  0  0  0  0  0
   23.9890   -7.1070   -9.4570 C   0  0  0  0  0  0  0  0  0  0  0  0
   24.2660   -6.2110   -8.4360 C   0  0  0  0  0  0  0  0  0  0  0  0
   23.2870   -5.8900   -7.4900 C   0  0  0  0  0  0  0  0  0  0  0  0
   23.5870   -5.0390   -6.5000 O   0  0  0  0  0  0  0  0  0  0  0  0
   22.9400   -5.1520   -5.2350 C   0  0  0  0  0  0  0  0  0  0  0  0
   21.4680   -5.5280   -5.4020 C   0  0  0  0  0  0  0  0  0  0  0  0
   20.6260   -5.2330   -4.4770 N   0  0  0  0  0  0  0  0  0  0  0  0
   19.2810   -5.5790   -4.5610 N   0  0  0  0  0  0  0  0  0  0  0  0
   18.7490   -6.0690   -5.7040 C   0  0  0  0  0  0  0  0  0  0  0  0
   17.5750   -6.3640   -5.7440 O   0  0  0  0  0  0  0  0  0  0  0  0
   19.6070   -6.2110   -6.9530 C   0  0  0  0  0  0  0  0  0  0  0  0
   19.2720   -5.0830   -7.9290 C   0  0  0  0  0  0  0  0  0  0  0  0
   21.0470   -6.1420   -6.5980 N   0  0  0  0  0  0  0  0  0  0  0  0
   22.0420   -6.4890   -7.5600 C   0  0  0  0  0  0  0  0  0  0  0  0
   21.7480   -7.3850   -8.5970 C   0  0  0  0  0  0  0  0  0  0  0  0
   22.7370   -7.7060   -9.5420 C   0  0  0  0  0  0  0  0  0  0  0  0
   22.4540   -8.6100  -10.5950 N   0  0  0  0  0  0  0  0  0  0  0  0
   21.3540   -9.5460  -10.4750 C   0  0  0  0  0  0  0  0  0  0  0  0
   21.4010  -10.7490  -11.5350 C   0  0  0  0  0  0  0  0  0  0  0  0
   21.3170  -11.5510  -10.4100 N   0  0  0  0  0  0  0  0  0  0  0  0
   21.5770  -10.6820   -9.3650 C   0  0  0  0  0  0  0  0  0  0  0  0
   25.9795   -7.7275   -9.9531 H   0  0  0  0  0  0  0  0  0  0  0  0
   24.7122   -8.2732  -11.1033 H   0  0  0  0  0  0  0  0  0  0  0  0
   25.2468   -6.5583  -11.1033 H   0  0  0  0  0  0  0  0  0  0  0  0
   25.2623   -5.7495   -8.3694 H   0  0  0  0  0  0  0  0  0  0  0  0
   23.4442   -5.9289   -4.6416 H   0  0  0  0  0  0  0  0  0  0  0  0
   22.9966   -4.1789   -4.7252 H   0  0  0  0  0  0  0  0  0  0  0  0
   18.6774   -5.4594   -3.7350 H   0  0  0  0  0  0  0  0  0  0  0  0
   19.3995   -7.1848   -7.4205 H   0  0  0  0  0  0  0  0  0  0  0  0
   19.0032   -4.1778   -7.3648 H   0  0  0  0  0  0  0  0  0  0  0  0
   20.1469   -4.8741   -8.5622 H   0  0  0  0  0  0  0  0  0  0  0  0
   18.4249   -5.3855   -8.5622 H   0  0  0  0  0  0  0  0  0  0  0  0
   20.7470   -7.8351   -8.6707 H   0  0  0  0  0  0  0  0  0  0  0  0
   23.0313   -8.6022  -11.4480 H   0  0  0  0  0  0  0  0  0  0  0  0
   20.5273   -8.8218  -10.4291 H   0  0  0  0  0  0  0  0  0  0  0  0
   20.5432  -10.8072  -12.2212 H   0  0  0  0  0  0  0  0  0  0  0  0
   22.1841  -10.8549  -12.3002 H   0  0  0  0  0  0  0  0  0  0  0  0
   20.3763  -11.9609  -10.3210 H   0  0  0  0  0  0  0  0  0  0  0  0
   22.5923  -10.7389   -8.9455 H   0  0  0  0  0  0  0  0  0  0  0  0
   21.0403  -10.7077   -8.4052 H   0  0  0  0  0  0  0  0  0  0  0  0
 20 19  1  0
 20 21  1  0
 18 19  1  0
 18 17  1  0
 19 22  1  0
  1  2  1  0
 21 22  1  0
 17  2  2  0
 17 16  1  0
  2  3  1  0
 16 15  2  0
  3  4  2  0
 13 12  1  0
 15  4  1  0
 15 14  1  0
  4  5  1  0
 12 14  1  0
 12 10  1  0
 14  7  1  0
  5  6  1  0
 11 10  2  0
 10  9  1  0
  7  6  1  0
  7  8  2  0
  9  8  1  0
  1 23  1  0
  1 24  1  0
  1 25  1  0
  3 26  1  0
  6 27  1  0
  6 28  1  0
  9 29  1  0
 12 30  1  0
 13 31  1  0
 13 32  1  0
 13 33  1  0
 16 34  1  0
 18 35  1  0
 19 36  1  0
 20 37  1  0
 20 38  1  0
 21 39  1  0
 22 40  1  0
 22 41  1  0
A    1
C1
A    2
C2
A    3
C3
A    4
C4
A    5
O5
A    6
C6
A    7
C7
A    8
N8
A    9
N9
A   10
C10
A   11
O11
A   12
C12
A   13
C13
A   14
N14
A   15
C15
A   16
C16
A   17
C17
A   18
N18
A   19
C19
A   20
C20
A   21
N21
A   22
C22
M  END
