4QAA_KK1_A_301
     RDKit          3D

 52 53  0  0  0  0  0  0  0  0999 V2000
   -6.4260  -15.3570   61.9750 C   0  0  0  0  0  0  0  0  0  0  0  0
   -6.2970  -13.8120   61.9340 C   0  0  0  0  0  0  0  0  0  0  0  0
   -6.8990  -13.1830   60.6480 C   0  0  0  0  0  0  0  0  0  0  0  0
   -6.5860  -11.6550   60.4990 C   0  0  0  0  0  0  0  0  0  0  0  0
   -6.1080  -11.2430   59.0390 C   0  0  0  0  0  0  0  0  0  0  0  0
   -7.0690  -11.7470   57.8810 C   0  0  0  0  0  0  0  0  0  0  0  0
   -6.4630  -11.8540   56.3910 C   0  0  0  0  0  0  0  0  0  0  0  0
   -7.4490  -11.3310   55.2210 C   0  0  0  0  0  0  0  0  0  0  0  0
   -6.9870  -11.5500   53.7790 N   0  0  0  0  0  0  0  0  0  0  0  0
   -6.1030  -10.6660   53.0430 C   0  0  0  0  0  0  0  0  0  0  0  0
   -6.5170  -10.0970   51.7470 C   0  0  0  0  0  0  0  0  0  0  0  0
   -5.5760   -9.2420   51.0550 C   0  0  0  0  0  0  0  0  0  0  0  0
   -4.3600   -8.9930   51.6160 N   0  0  0  0  0  0  0  0  0  0  0  0
   -4.0240   -9.5550   52.8200 C   0  0  0  0  0  0  0  0  0  0  0  0
   -2.7360   -9.2720   53.3680 N   0  0  0  0  0  0  0  0  0  0  0  0
   -4.8510  -10.3870   53.5750 N   0  0  0  0  0  0  0  0  0  0  0  0
   -5.8170   -8.5090   49.6420 C   0  0  0  0  0  0  0  0  0  0  0  0
   -6.2980   -9.1850   48.4940 C   0  0  0  0  0  0  0  0  0  0  0  0
   -6.4910   -8.5470   47.1910 C   0  0  0  0  0  0  0  0  0  0  0  0
   -6.1890   -7.1810   47.0020 C   0  0  0  0  0  0  0  0  0  0  0  0
   -6.3740   -6.5730   45.7810 O   0  0  0  0  0  0  0  0  0  0  0  0
   -5.7520   -5.2570   45.5790 C   0  0  0  0  0  0  0  0  0  0  0  0
   -5.6890   -6.4790   48.1150 C   0  0  0  0  0  0  0  0  0  0  0  0
   -5.5150   -7.1420   49.3780 C   0  0  0  0  0  0  0  0  0  0  0  0
   -6.4542  -15.6949   63.0214 H   0  0  0  0  0  0  0  0  0  0  0  0
   -7.3527  -15.6612   61.4663 H   0  0  0  0  0  0  0  0  0  0  0  0
   -5.5626  -15.8107   61.4663 H   0  0  0  0  0  0  0  0  0  0  0  0
   -5.2303  -13.5485   61.9860 H   0  0  0  0  0  0  0  0  0  0  0  0
   -6.8626  -13.4134   62.7891 H   0  0  0  0  0  0  0  0  0  0  0  0
   -7.9908  -13.3147   60.6733 H   0  0  0  0  0  0  0  0  0  0  0  0
   -6.4390  -13.6945   59.7896 H   0  0  0  0  0  0  0  0  0  0  0  0
   -5.7913  -11.3915   61.2125 H   0  0  0  0  0  0  0  0  0  0  0  0
   -7.5224  -11.1128   60.6971 H   0  0  0  0  0  0  0  0  0  0  0  0
   -5.1081  -11.6688   58.8690 H   0  0  0  0  0  0  0  0  0  0  0  0
   -6.1113  -10.1437   59.0005 H   0  0  0  0  0  0  0  0  0  0  0  0
   -7.9223  -11.0541   57.8386 H   0  0  0  0  0  0  0  0  0  0  0  0
   -7.3112  -12.7843   58.1554 H   0  0  0  0  0  0  0  0  0  0  0  0
   -6.2258  -12.9096   56.1927 H   0  0  0  0  0  0  0  0  0  0  0  0
   -5.5790  -11.1998   56.3676 H   0  0  0  0  0  0  0  0  0  0  0  0
   -7.5907  -10.2496   55.3642 H   0  0  0  0  0  0  0  0  0  0  0  0
   -8.3631  -11.9341   55.3246 H   0  0  0  0  0  0  0  0  0  0  0  0
   -7.3304  -12.3906   53.2929 H   0  0  0  0  0  0  0  0  0  0  0  0
   -7.5073  -10.3149   51.3206 H   0  0  0  0  0  0  0  0  0  0  0  0
   -2.6058   -9.2434   54.3893 H   0  0  0  0  0  0  0  0  0  0  0  0
   -1.9372   -9.0965   52.7419 H   0  0  0  0  0  0  0  0  0  0  0  0
   -6.5411  -10.2537   48.5874 H   0  0  0  0  0  0  0  0  0  0  0  0
   -6.8763   -9.1395   46.3481 H   0  0  0  0  0  0  0  0  0  0  0  0
   -5.5359   -4.7998   46.5558 H   0  0  0  0  0  0  0  0  0  0  0  0
   -4.8152   -5.3769   45.0150 H   0  0  0  0  0  0  0  0  0  0  0  0
   -6.4393   -4.6093   45.0150 H   0  0  0  0  0  0  0  0  0  0  0  0
   -5.4294   -5.4145   48.0172 H   0  0  0  0  0  0  0  0  0  0  0  0
   -5.1153   -6.5442   50.2104 H   0  0  0  0  0  0  0  0  0  0  0  0
 22 21  1  0
 21 20  1  0
 20 19  1  0
 20 23  2  0
 19 18  2  0
 23 24  1  0
 18 17  1  0
 24 17  2  0
 17 12  1  0
 12 13  2  0
 12 11  1  0
 13 14  1  0
 11 10  2  0
 14 15  1  0
 14 16  2  0
 10 16  1  0
 10  9  1  0
  9  8  1  0
  8  7  1  0
  7  6  1  0
  6  5  1  0
  5  4  1  0
  4  3  1  0
  3  2  1  0
  2  1  1  0
  1 25  1  0
  1 26  1  0
  1 27  1  0
  2 28  1  0
  2 29  1  0
  3 30  1  0
  3 31  1  0
  4 32  1  0
  4 33  1  0
  5 34  1  0
  5 35  1  0
  6 36  1  0
  6 37  1  0
  7 38  1  0
  7 39  1  0
  8 40  1  0
  8 41  1  0
  9 42  1  0
 11 43  1  0
 15 44  1  0
 15 45  1  0
 18 46  1  0
 19 47  1  0
 22 48  1  0
 22 49  1  0
 22 50  1  0
 23 51  1  0
 24 52  1  0
A    1
C01
A    2
C02
A    3
C03
A    4
C04
A    5
C05
A    6
C06
A    7
C07
A    8
C08
A    9
N09
A   10
C10
A   11
C11
A   12
C12
A   13
N13
A   14
C14
A   15
N15
A   16
N16
A   17
C17
A   18
C18
A   19
C19
A   20
C20
A   21
O21
A   22
C22
A   23
C23
A   24
C24
M  END
