4QAC_KK3_A_304
     RDKit          3D

 43 45  0  0  0  0  0  0  0  0999 V2000
  -46.7210  -46.9650   28.6010 C   0  0  0  0  0  0  0  0  0  0  0  0
  -45.2960  -47.1150   29.1230 C   0  0  0  0  0  0  0  0  0  0  0  0
  -45.1710  -46.8060   30.6290 C   0  0  0  0  0  0  0  0  0  0  0  0
  -44.8300  -45.3370   30.8470 C   0  0  0  0  0  0  0  0  0  0  0  0
  -46.4790  -47.1720   31.3350 C   0  0  0  0  0  0  0  0  0  0  0  0
  -47.2000  -48.3100   30.6380 C   0  0  0  0  0  0  0  0  0  0  0  0
  -47.6880  -47.8660   29.3220 N   0  0  0  0  0  0  0  0  0  0  0  0
  -49.0610  -47.5430   29.2790 C   0  0  0  0  0  0  0  0  0  0  0  0
  -49.9510  -47.3770   30.3860 C   0  0  0  0  0  0  0  0  0  0  0  0
  -49.4760  -47.3410   27.9920 N   0  0  0  0  0  0  0  0  0  0  0  0
  -50.8140  -47.0000   27.8390 C   0  0  0  0  0  0  0  0  0  0  0  0
  -51.2650  -46.8030   26.5340 N   0  0  0  0  0  0  0  0  0  0  0  0
  -51.7220  -46.8280   28.8190 N   0  0  0  0  0  0  0  0  0  0  0  0
  -51.2930  -47.0190   30.0880 C   0  0  0  0  0  0  0  0  0  0  0  0
  -52.3670  -46.8140   31.1140 C   0  0  0  0  0  0  0  0  0  0  0  0
  -53.2160  -47.8800   31.4750 C   0  0  0  0  0  0  0  0  0  0  0  0
  -54.2720  -47.6970   32.3920 C   0  0  0  0  0  0  0  0  0  0  0  0
  -54.4930  -46.4360   32.9470 C   0  0  0  0  0  0  0  0  0  0  0  0
  -55.6360  -46.1970   33.9310 C   0  0  0  0  0  0  0  0  0  0  0  0
  -55.3340  -45.4650   35.0250 F   0  0  0  0  0  0  0  0  0  0  0  0
  -56.2490  -47.3250   34.3860 F   0  0  0  0  0  0  0  0  0  0  0  0
  -56.6180  -45.4810   33.3520 F   0  0  0  0  0  0  0  0  0  0  0  0
  -53.6870  -45.3670   32.5840 C   0  0  0  0  0  0  0  0  0  0  0  0
  -52.6430  -45.5490   31.6700 C   0  0  0  0  0  0  0  0  0  0  0  0
  -47.0403  -45.9212   28.7373 H   0  0  0  0  0  0  0  0  0  0  0  0
  -46.7232  -47.2485   27.5382 H   0  0  0  0  0  0  0  0  0  0  0  0
  -44.9658  -48.1497   28.9487 H   0  0  0  0  0  0  0  0  0  0  0  0
  -44.6698  -46.3884   28.5846 H   0  0  0  0  0  0  0  0  0  0  0  0
  -44.3549  -47.4076   31.0557 H   0  0  0  0  0  0  0  0  0  0  0  0
  -44.7815  -45.1280   31.9259 H   0  0  0  0  0  0  0  0  0  0  0  0
  -43.8563  -45.1143   30.3862 H   0  0  0  0  0  0  0  0  0  0  0  0
  -45.6060  -44.7081   30.3862 H   0  0  0  0  0  0  0  0  0  0  0  0
  -46.2527  -47.4744   32.3681 H   0  0  0  0  0  0  0  0  0  0  0  0
  -47.1355  -46.2896   31.3143 H   0  0  0  0  0  0  0  0  0  0  0  0
  -48.0532  -48.6318   31.2533 H   0  0  0  0  0  0  0  0  0  0  0  0
  -46.5020  -49.1489   30.5000 H   0  0  0  0  0  0  0  0  0  0  0  0
  -49.6114  -47.5202   31.4224 H   0  0  0  0  0  0  0  0  0  0  0  0
  -52.1964  -46.3962   26.3669 H   0  0  0  0  0  0  0  0  0  0  0  0
  -50.6667  -47.0643   25.7374 H   0  0  0  0  0  0  0  0  0  0  0  0
  -53.0517  -48.8738   31.0330 H   0  0  0  0  0  0  0  0  0  0  0  0
  -54.9177  -48.5437   32.6681 H   0  0  0  0  0  0  0  0  0  0  0  0
  -53.8692  -44.3721   33.0164 H   0  0  0  0  0  0  0  0  0  0  0  0
  -52.0250  -44.6866   31.3796 H   0  0  0  0  0  0  0  0  0  0  0  0
 12 11  1  0
 11 10  2  0
 11 13  1  0
 10  8  1  0
  1  2  1  0
  1  7  1  0
 13 14  2  0
  2  3  1  0
  8  7  1  0
  8  9  2  0
  7  6  1  0
 14  9  1  0
 14 15  1  0
  3  4  1  0
  3  5  1  0
  6  5  1  0
 15 16  2  0
 15 24  1  0
 16 17  1  0
 24 23  2  0
 17 18  2  0
 23 18  1  0
 18 19  1  0
 22 19  1  0
 19 21  1  0
 19 20  1  0
  1 25  1  0
  1 26  1  0
  2 27  1  0
  2 28  1  0
  3 29  1  0
  4 30  1  0
  4 31  1  0
  4 32  1  0
  5 33  1  0
  5 34  1  0
  6 35  1  0
  6 36  1  0
  9 37  1  0
 12 38  1  0
 12 39  1  0
 16 40  1  0
 17 41  1  0
 23 42  1  0
 24 43  1  0
A    1
C1
A    2
C3
A    3
C7
A    4
C8
A    5
C9
A    6
C10
A    7
N2
A    8
C4
A    9
C5
A   10
N3
A   11
C2
A   12
N4
A   13
N1
A   14
C6
A   15
C11
A   16
C12
A   17
C13
A   18
C14
A   19
C15
A   20
F1
A   21
F2
A   22
F3
A   23
C16
A   24
C17
M  END
