4JE2_F95_A_1001
     RDKit          3D

 25 26  0  0  0  0  0  0  0  0999 V2000
    5.8230   29.1990    3.9310 C   0  0  0  0  0  0  0  0  0  0  0  0
    6.9370   28.3580    3.9400 C   0  0  0  0  0  0  0  0  0  0  0  0
    8.2220   28.9070    4.0410 C   0  0  0  0  0  0  0  0  0  0  0  0
    8.3700   30.2940    4.1510 C   0  0  0  0  0  0  0  0  0  0  0  0
    7.2670   31.1530    4.1500 C   0  0  0  0  0  0  0  0  0  0  0  0
    5.9800   30.6090    4.0380 C   0  0  0  0  0  0  0  0  0  0  0  0
    9.3270   28.1240    4.0630 O   0  0  0  0  0  0  0  0  0  0  0  0
    9.6020   30.8200    4.2450 O   0  0  0  0  0  0  0  0  0  0  0  0
    6.7630   27.0020    3.8320 O   0  0  0  0  0  0  0  0  0  0  0  0
    5.5560   26.3450    3.7160 C   0  0  0  0  0  0  0  0  0  0  0  0
    4.3510   27.2670    3.7200 C   0  0  0  0  0  0  0  0  0  0  0  0
    4.4940   28.6120    3.8200 C   0  0  0  0  0  0  0  0  0  0  0  0
    5.4450   25.1290    3.6190 O   0  0  0  0  0  0  0  0  0  0  0  0
    3.2890   29.5600    3.8230 C   0  0  0  0  0  0  0  0  0  0  0  0
    3.1540   30.4340    5.0770 C   0  0  0  0  0  0  0  0  0  0  0  0
    3.2630   29.8670    6.1880 O   0  0  0  0  0  0  0  0  0  0  0  0
    2.9550   31.6560    4.8940 O   0  0  0  0  0  0  0  0  0  0  0  0
    7.4072   32.2406    4.2359 H   0  0  0  0  0  0  0  0  0  0  0  0
    5.0985   31.2670    4.0329 H   0  0  0  0  0  0  0  0  0  0  0  0
    9.7195   27.8459    4.9283 H   0  0  0  0  0  0  0  0  0  0  0  0
   10.0009   30.9903    5.1349 H   0  0  0  0  0  0  0  0  0  0  0  0
    3.3420   26.8363    3.6403 H   0  0  0  0  0  0  0  0  0  0  0  0
    3.3761   30.2252    2.9513 H   0  0  0  0  0  0  0  0  0  0  0  0
    2.3946   28.9201    3.7968 H   0  0  0  0  0  0  0  0  0  0  0  0
    3.1625   30.3899    7.0226 H   0  0  0  0  0  0  0  0  0  0  0  0
 13 10  2  0
 10 11  1  0
 10  9  1  0
 11 12  2  0
 12 14  1  0
 12  1  1  0
 14 15  1  0
  9  2  1  0
  1  2  1  0
  1  6  2  0
  2  3  2  0
  6  5  1  0
  3  7  1  0
  3  4  1  0
  5  4  2  0
  4  8  1  0
 17 15  2  0
 15 16  1  0
  5 18  1  0
  6 19  1  0
  7 20  1  0
  8 21  1  0
 11 22  1  0
 14 23  1  0
 14 24  1  0
 16 25  1  0
A    1
C1
A    2
C2
A    3
C3
A    4
C4
A    5
C5
A    6
C6
A    7
O1
A    8
O2
A    9
O3
A   10
C7
A   11
C8
A   12
C9
A   13
O4
A   14
C10
A   15
C11
A   16
O5
A   17
O6
M  END
