4QBX_30L_A_402
     RDKit          3D

 38 39  0  0  0  0  0  0  0  0999 V2000
   65.6790   -7.1300   38.6870 N   0  0  0  0  0  0  0  0  0  0  0  0
   66.3850   -6.3160   37.7130 C   0  0  0  0  0  0  0  0  0  0  0  0
   65.4580   -5.8000   36.5950 C   0  0  0  0  0  0  0  0  0  0  0  0
   66.0050   -4.9520   35.6350 C   0  0  0  0  0  0  0  0  0  0  0  0
   65.2300   -4.4340   34.5890 C   0  0  0  0  0  0  0  0  0  0  0  0
   65.8050   -3.6020   33.6640 N   0  0  0  0  0  0  0  0  0  0  0  0
   67.0220   -3.5120   33.6510 O   0  0  0  0  0  0  0  0  0  0  0  0
   65.0910   -2.9900   32.8890 O   0  0  0  0  0  0  0  0  0  0  0  0
   63.8770   -4.7920   34.4900 C   0  0  0  0  0  0  0  0  0  0  0  0
   63.3200   -5.6490   35.4410 C   0  0  0  0  0  0  0  0  0  0  0  0
   64.1070   -6.1570   36.4840 C   0  0  0  0  0  0  0  0  0  0  0  0
   65.7560   -8.4770   38.6460 C   0  0  0  0  0  0  0  0  0  0  0  0
   66.3700   -9.0780   37.7740 O   0  0  0  0  0  0  0  0  0  0  0  0
   64.9640   -9.2340   39.6870 C   0  0  0  0  0  0  0  0  0  0  0  0
   64.2220  -10.3540   39.3010 C   0  0  0  0  0  0  0  0  0  0  0  0
   63.4550  -11.0580   40.2190 C   0  0  0  0  0  0  0  0  0  0  0  0
   63.4350  -10.6240   41.5410 C   0  0  0  0  0  0  0  0  0  0  0  0
   62.7110  -11.2910   42.4250 F   0  0  0  0  0  0  0  0  0  0  0  0
   64.1570   -9.5010   41.9460 C   0  0  0  0  0  0  0  0  0  0  0  0
   64.9230   -8.8060   41.0180 C   0  0  0  0  0  0  0  0  0  0  0  0
   65.7100   -7.7290   41.3830 O   0  0  0  0  0  0  0  0  0  0  0  0
   65.2580   -6.9190   42.4670 C   0  0  0  0  0  0  0  0  0  0  0  0
   64.1070   -6.0410   42.0650 C   0  0  0  0  0  0  0  0  0  0  0  0
   63.8850   -5.8730   40.7730 O   0  0  0  0  0  0  0  0  0  0  0  0
   63.4360   -5.5090   42.9420 O   0  0  0  0  0  0  0  0  0  0  0  0
   65.1133   -6.6743   39.4172 H   0  0  0  0  0  0  0  0  0  0  0  0
   67.1830   -6.9217   37.2586 H   0  0  0  0  0  0  0  0  0  0  0  0
   66.7931   -5.4411   38.2403 H   0  0  0  0  0  0  0  0  0  0  0  0
   67.0696   -4.6828   35.6995 H   0  0  0  0  0  0  0  0  0  0  0  0
   63.2592   -4.4001   33.6686 H   0  0  0  0  0  0  0  0  0  0  0  0
   62.2580   -5.9271   35.3715 H   0  0  0  0  0  0  0  0  0  0  0  0
   63.6609   -6.8410   37.2210 H   0  0  0  0  0  0  0  0  0  0  0  0
   64.2464  -10.6831   38.2517 H   0  0  0  0  0  0  0  0  0  0  0  0
   62.8755  -11.9398   39.9082 H   0  0  0  0  0  0  0  0  0  0  0  0
   64.1201   -9.1677   42.9937 H   0  0  0  0  0  0  0  0  0  0  0  0
   64.9360   -7.5734   43.2904 H   0  0  0  0  0  0  0  0  0  0  0  0
   66.0898   -6.2707   42.7795 H   0  0  0  0  0  0  0  0  0  0  0  0
   63.6457   -5.6753   43.8951 H   0  0  0  0  0  0  0  0  0  0  0  0
  8  6  1  0
  7  6  2  0
  6  5  1  0
  9  5  1  0
  9 10  2  0
  5  4  2  0
 10 11  1  0
  4  3  1  0
 11  3  2  0
  3  2  1  0
  2  1  1  0
 13 12  2  0
 12  1  1  0
 12 14  1  0
 15 14  2  0
 15 16  1  0
 14 20  1  0
 16 17  2  0
 24 23  2  0
 20 21  1  0
 20 19  2  0
 21 22  1  0
 17 19  1  0
 17 18  1  0
 23 22  1  0
 23 25  1  0
  1 26  1  0
  2 27  1  0
  2 28  1  0
  4 29  1  0
  9 30  1  0
 10 31  1  0
 11 32  1  0
 15 33  1  0
 16 34  1  0
 19 35  1  0
 22 36  1  0
 22 37  1  0
 25 38  1  0
M  CHG  2   6   1   8  -1
A    1
N1
A    2
C3
A    3
C4
A    4
C5
A    5
C6
A    6
N7
A    7
O8
A    8
O9
A    9
C10
A   10
C11
A   11
C12
A   12
C19
A   13
O20
A   14
C21
A   15
C22
A   16
C24
A   17
C26
A   18
F27
A   19
C28
A   20
C30
A   21
O31
A   22
C32
A   23
C33
A   24
O34
A   25
O36
M  END
