4QBZ_D80_A_917
     RDKit          3D

 33 35  0  0  0  0  0  0  0  0999 V2000
   51.8220   29.2520   25.3560 N   0  0  0  0  0  0  0  0  0  0  0  0
   52.4820   30.2160   24.7220 C   0  0  0  0  0  0  0  0  0  0  0  0
   52.1160   30.5410   23.4530 N   0  0  0  0  0  0  0  0  0  0  0  0
   52.7940   31.4990   22.7620 C   0  0  0  0  0  0  0  0  0  0  0  0
   52.3970   31.8100   21.4650 C   0  0  0  0  0  0  0  0  0  0  0  0
   53.0530   32.8060   20.7710 C   0  0  0  0  0  0  0  0  0  0  0  0
   54.1360   33.4810   21.3380 C   0  0  0  0  0  0  0  0  0  0  0  0
   54.4940   33.2270   22.6430 C   0  0  0  0  0  0  0  0  0  0  0  0
   53.8420   32.2240   23.3420 C   0  0  0  0  0  0  0  0  0  0  0  0
   54.2460   31.9430   24.6270 C   0  0  0  0  0  0  0  0  0  0  0  0
   55.2400   32.4570   25.3470 O   0  0  0  0  0  0  0  0  0  0  0  0
   53.6080   30.8720   25.3980 C   0  0  0  0  0  0  0  0  0  0  0  0
   54.2560   30.8430   26.6070 N   0  0  0  0  0  0  0  0  0  0  0  0
   55.2310   31.7780   26.5650 C   0  0  0  0  0  0  0  0  0  0  0  0
   56.1670   32.0060   27.7080 C   0  0  0  0  0  0  0  0  0  0  0  0
   57.5890   31.8250   27.1580 C   0  0  0  0  0  0  0  0  0  0  0  0
   57.8870   30.4970   26.4120 C   0  0  0  0  0  0  0  0  0  0  0  0
   59.3420   30.3910   25.9990 C   0  0  0  0  0  0  0  0  0  0  0  0
   51.8066   29.2296   26.3856 H   0  0  0  0  0  0  0  0  0  0  0  0
   51.3259   28.5274   24.8176 H   0  0  0  0  0  0  0  0  0  0  0  0
   51.5648   31.2649   20.9956 H   0  0  0  0  0  0  0  0  0  0  0  0
   52.7183   33.0719   19.7574 H   0  0  0  0  0  0  0  0  0  0  0  0
   54.7016   34.2137   20.7436 H   0  0  0  0  0  0  0  0  0  0  0  0
   55.2892   33.8142   23.1255 H   0  0  0  0  0  0  0  0  0  0  0  0
   55.9740   31.2754   28.5073 H   0  0  0  0  0  0  0  0  0  0  0  0
   56.0330   33.0112   28.1341 H   0  0  0  0  0  0  0  0  0  0  0  0
   57.7825   32.6508   26.4576 H   0  0  0  0  0  0  0  0  0  0  0  0
   58.2406   31.8098   28.0441 H   0  0  0  0  0  0  0  0  0  0  0  0
   57.6442   29.6545   27.0762 H   0  0  0  0  0  0  0  0  0  0  0  0
   57.2727   30.4748   25.4998 H   0  0  0  0  0  0  0  0  0  0  0  0
   59.9756   30.3448   26.8970 H   0  0  0  0  0  0  0  0  0  0  0  0
   59.4877   29.4799   25.4002 H   0  0  0  0  0  0  0  0  0  0  0  0
   59.6183   31.2714   25.4002 H   0  0  0  0  0  0  0  0  0  0  0  0
  7  8  2  0
  7  6  1  0
  8  9  1  0
 11 14  1  0
 11 10  1  0
 15 16  1  0
 15 14  1  0
 16 17  1  0
  6  5  2  0
 14 13  2  0
  9 10  2  0
  9  4  1  0
 10 12  1  0
  5  4  1  0
  4  3  2  0
 13 12  1  0
 12  2  2  0
 17 18  1  0
  3  2  1  0
  2  1  1  0
  1 19  1  0
  1 20  1  0
  5 21  1  0
  6 22  1  0
  7 23  1  0
  8 24  1  0
 15 25  1  0
 15 26  1  0
 16 27  1  0
 16 28  1  0
 17 29  1  0
 17 30  1  0
 18 31  1  0
 18 32  1  0
 18 33  1  0
A    1
NAR
A    2
CAG
A    3
NAI
A    4
CAA
A    5
CAC
A    6
CAE
A    7
CAF
A    8
CAD
A    9
CAB
A   10
CAJ
A   11
OAM
A   12
CAH
A   13
NAK
A   14
CAL
A   15
CAN
A   16
CAO
A   17
CAP
A   18
CAQ
M  END
