1ABE_ARB_A_308
     RDKit          3D

 20 20  0  0  0  0  0  0  0  0999 V2000
   14.3120   56.8760   55.1500 C   0  0  0  0  0  0  0  0  0  0  0  0
   12.8860   57.2200   54.8460 C   0  0  0  0  0  0  0  0  0  0  0  0
   12.3540   56.3080   53.7410 C   0  0  0  0  0  0  0  0  0  0  0  0
   13.2740   56.3940   52.5190 C   0  0  0  0  0  0  0  0  0  0  0  0
   14.6610   55.9060   52.9310 C   0  0  0  0  0  0  0  0  0  0  0  0
   14.3620   55.6400   55.7720 O   0  0  0  0  0  0  0  0  0  0  0  0
   12.0710   57.1200   56.0210 O   0  0  0  0  0  0  0  0  0  0  0  0
   11.0230   56.6670   53.3830 O   0  0  0  0  0  0  0  0  0  0  0  0
   13.2910   57.7230   51.9820 O   0  0  0  0  0  0  0  0  0  0  0  0
   15.1820   56.7970   53.9740 O   0  0  0  0  0  0  0  0  0  0  0  0
   14.6797   57.6950   55.7856 H   0  0  0  0  0  0  0  0  0  0  0  0
   12.8450   58.2625   54.4975 H   0  0  0  0  0  0  0  0  0  0  0  0
   12.3379   55.2732   54.1138 H   0  0  0  0  0  0  0  0  0  0  0  0
   12.9005   55.7497   51.7094 H   0  0  0  0  0  0  0  0  0  0  0  0
   14.5917   54.8799   53.3213 H   0  0  0  0  0  0  0  0  0  0  0  0
   15.3345   55.9126   52.0613 H   0  0  0  0  0  0  0  0  0  0  0  0
   14.3570   55.7644   56.7541 H   0  0  0  0  0  0  0  0  0  0  0  0
   12.6428   57.1902   56.8261 H   0  0  0  0  0  0  0  0  0  0  0  0
   10.4881   56.8113   54.2035 H   0  0  0  0  0  0  0  0  0  0  0  0
   13.2994   58.3786   52.7238 H   0  0  0  0  0  0  0  0  0  0  0  0
  1  2  1  0
  1  6  1  0
  1 10  1  0
  2  3  1  0
  2  7  1  0
  3  4  1  0
  3  8  1  0
  4  5  1  0
  4  9  1  0
  5 10  1  0
  1 11  1  0
  2 12  1  0
  3 13  1  0
  4 14  1  0
  5 15  1  0
  5 16  1  0
  6 17  1  0
  7 18  1  0
  8 19  1  0
  9 20  1  0
A    1
C1
A    2
C2
A    3
C3
A    4
C4
A    5
C5
A    6
O1
A    7
O2
A    8
O3
A    9
O4
A   10
O5
M  END
