4QEH_32O_A_403
     RDKit          3D

 20 20  0  0  0  0  0  0  0  0999 V2000
   -9.2790  -19.1550  -45.2580 O   0  0  0  0  0  0  0  0  0  0  0  0
  -10.3550  -18.4820  -45.9140 C   0  0  0  0  0  0  0  0  0  0  0  0
  -11.3280  -17.7690  -44.9400 C   0  0  0  0  0  0  0  0  0  0  0  0
  -12.3600  -18.6800  -44.4830 O   0  0  0  0  0  0  0  0  0  0  0  0
  -12.0080  -16.6030  -45.6300 C   0  0  0  0  0  0  0  0  0  0  0  0
  -11.4230  -15.3260  -45.2010 O   0  0  0  0  0  0  0  0  0  0  0  0
  -13.4510  -16.7430  -45.1470 C   0  0  0  0  0  0  0  0  0  0  0  0
  -13.6210  -16.1040  -43.8640 O   0  0  0  0  0  0  0  0  0  0  0  0
  -13.6280  -18.2610  -45.0070 C   0  0  0  0  0  0  0  0  0  0  0  0
  -13.9580  -18.8470  -46.2960 O   0  0  0  0  0  0  0  0  0  0  0  0
   -9.3938  -19.0832  -44.2773 H   0  0  0  0  0  0  0  0  0  0  0  0
   -9.9307  -17.7291  -46.5946 H   0  0  0  0  0  0  0  0  0  0  0  0
  -10.9369  -19.2481  -46.4474 H   0  0  0  0  0  0  0  0  0  0  0  0
  -10.7349  -17.4139  -44.0843 H   0  0  0  0  0  0  0  0  0  0  0  0
  -11.9077  -16.6120  -46.7254 H   0  0  0  0  0  0  0  0  0  0  0  0
  -11.4051  -15.2869  -44.2119 H   0  0  0  0  0  0  0  0  0  0  0  0
  -14.1794  -16.2772  -45.8271 H   0  0  0  0  0  0  0  0  0  0  0  0
  -13.4466  -16.7597  -43.1431 H   0  0  0  0  0  0  0  0  0  0  0  0
  -14.4539  -18.5754  -44.3519 H   0  0  0  0  0  0  0  0  0  0  0  0
  -14.4390  -19.7011  -46.1568 H   0  0  0  0  0  0  0  0  0  0  0  0
 10  9  1  0
  2  1  1  0
  2  3  1  0
  5  6  1  0
  5  7  1  0
  5  3  1  0
  7  9  1  0
  7  8  1  0
  9  4  1  0
  3  4  1  0
  1 11  1  0
  2 12  1  0
  2 13  1  0
  3 14  1  0
  5 15  1  0
  6 16  1  0
  7 17  1  0
  8 18  1  0
  9 19  1  0
 10 20  1  0
A    1
O5'
A    2
C5'
A    3
C4'
A    4
O4'
A    5
C3'
A    6
O3'
A    7
C2'
A    8
O2'
A    9
C1'
A   10
O1'
M  END
