4QEV_31O_A_501
     RDKit          3D

 51 54  0  0  0  0  0  0  0  0999 V2000
   71.9580  -11.2650   73.1070 C   0  0  0  0  0  0  0  0  0  0  0  0
   70.7470  -10.6150   72.7180 O   0  0  0  0  0  0  0  0  0  0  0  0
   70.8330   -9.2590   72.6760 C   0  0  0  0  0  0  0  0  0  0  0  0
   71.6550   -8.6200   73.3410 O   0  0  0  0  0  0  0  0  0  0  0  0
   69.8010   -8.5650   71.7410 C   0  0  0  0  0  0  0  0  0  0  0  0
   70.0780   -8.9290   70.2700 C   0  0  0  0  0  0  0  0  0  0  0  0
   69.9270   -7.0560   71.8690 C   0  0  0  0  0  0  0  0  0  0  0  0
   69.8480   -6.5290   73.2740 N   0  0  0  0  0  0  0  0  0  0  0  0
   68.9870   -6.3040   71.1270 C   0  0  0  0  0  0  0  0  0  0  0  0
   67.8340   -6.7550   70.6030 N   0  0  0  0  0  0  0  0  0  0  0  0
   67.2600   -5.8250   70.0550 N   0  0  0  0  0  0  0  0  0  0  0  0
   68.0100   -4.7160   70.1870 C   0  0  0  0  0  0  0  0  0  0  0  0
   67.6340   -3.3490   69.6230 C   0  0  0  0  0  0  0  0  0  0  0  0
   69.1120   -4.9970   70.8800 N   0  0  0  0  0  0  0  0  0  0  0  0
   70.2050   -4.3170   71.3170 C   0  0  0  0  0  0  0  0  0  0  0  0
   70.8230   -3.4660   70.3940 C   0  0  0  0  0  0  0  0  0  0  0  0
   71.9790   -2.7590   70.7480 C   0  0  0  0  0  0  0  0  0  0  0  0
   72.5560   -2.9080   72.0140 C   0  0  0  0  0  0  0  0  0  0  0  0
   73.6900   -2.2490   72.4330 O   0  0  0  0  0  0  0  0  0  0  0  0
   74.4850   -1.5120   71.4870 C   0  0  0  0  0  0  0  0  0  0  0  0
   71.9530   -3.7660   72.9280 C   0  0  0  0  0  0  0  0  0  0  0  0
   70.7940   -4.4630   72.5870 C   0  0  0  0  0  0  0  0  0  0  0  0
   70.3010   -5.2980   73.5940 C   0  0  0  0  0  0  0  0  0  0  0  0
   70.1740   -4.8380   74.9160 C   0  0  0  0  0  0  0  0  0  0  0  0
   70.3000   -5.7260   75.9930 C   0  0  0  0  0  0  0  0  0  0  0  0
   70.1630   -5.2680   77.3040 C   0  0  0  0  0  0  0  0  0  0  0  0
   69.8950   -3.9220   77.5550 C   0  0  0  0  0  0  0  0  0  0  0  0
   69.7210   -3.3560   79.1880 Cl  0  0  0  0  0  0  0  0  0  0  0  0
   69.7680   -3.0360   76.4950 C   0  0  0  0  0  0  0  0  0  0  0  0
   69.9060   -3.4910   75.1850 C   0  0  0  0  0  0  0  0  0  0  0  0
   72.0200  -11.2983   74.2047 H   0  0  0  0  0  0  0  0  0  0  0  0
   71.9685  -12.2900   72.7079 H   0  0  0  0  0  0  0  0  0  0  0  0
   72.8180  -10.7073   72.7079 H   0  0  0  0  0  0  0  0  0  0  0  0
   68.7958   -8.9022   72.0338 H   0  0  0  0  0  0  0  0  0  0  0  0
   70.7437   -9.8037   70.2278 H   0  0  0  0  0  0  0  0  0  0  0  0
   69.1293   -9.1655   69.7659 H   0  0  0  0  0  0  0  0  0  0  0  0
   70.5588   -8.0777   69.7659 H   0  0  0  0  0  0  0  0  0  0  0  0
   70.9375   -6.9165   71.4573 H   0  0  0  0  0  0  0  0  0  0  0  0
   67.4420   -2.6509   70.4511 H   0  0  0  0  0  0  0  0  0  0  0  0
   68.4605   -2.9671   69.0056 H   0  0  0  0  0  0  0  0  0  0  0  0
   66.7285   -3.4435   69.0056 H   0  0  0  0  0  0  0  0  0  0  0  0
   70.3988   -3.3518   69.3855 H   0  0  0  0  0  0  0  0  0  0  0  0
   72.4405   -2.0760   70.0196 H   0  0  0  0  0  0  0  0  0  0  0  0
   75.1877   -0.8606   72.0273 H   0  0  0  0  0  0  0  0  0  0  0  0
   75.0482   -2.2146   70.8552 H   0  0  0  0  0  0  0  0  0  0  0  0
   73.8270   -0.8973   70.8552 H   0  0  0  0  0  0  0  0  0  0  0  0
   72.3937   -3.8958   73.9275 H   0  0  0  0  0  0  0  0  0  0  0  0
   70.5080   -6.7895   75.8039 H   0  0  0  0  0  0  0  0  0  0  0  0
   70.2668   -5.9714   78.1433 H   0  0  0  0  0  0  0  0  0  0  0  0
   69.5582   -1.9737   76.6887 H   0  0  0  0  0  0  0  0  0  0  0  0
   69.8028   -2.7815   74.3508 H   0  0  0  0  0  0  0  0  0  0  0  0
 13 12  1  0
 11 12  2  0
 11 10  1  0
 12 14  1  0
  6  5  1  0
 16 17  1  0
 16 15  2  0
 10  9  2  0
 17 18  2  0
 14  9  1  0
 14 15  1  0
  9  7  1  0
 15 22  1  0
 20 19  1  0
  5  7  1  0
  5  3  1  0
  7  8  1  0
 18 19  1  0
 18 21  1  0
 22 21  2  0
 22 23  1  0
  3  2  1  0
  3  4  2  0
  2  1  1  0
  8 23  2  0
 23 24  1  0
 24 30  1  0
 24 25  2  0
 30 29  2  0
 25 26  1  0
 29 27  1  0
 26 27  2  0
 27 28  1  0
  1 31  1  0
  1 32  1  0
  1 33  1  0
  5 34  1  0
  6 35  1  0
  6 36  1  0
  6 37  1  0
  7 38  1  0
 13 39  1  0
 13 40  1  0
 13 41  1  0
 16 42  1  0
 17 43  1  0
 20 44  1  0
 20 45  1  0
 20 46  1  0
 21 47  1  0
 25 48  1  0
 26 49  1  0
 29 50  1  0
 30 51  1  0
A    1
CAW
A    2
OAU
A    3
CAT
A    4
OAV
A    5
CAS
A    6
CBD
A    7
CAI
A    8
NAH
A    9
CAJ
A   10
NAN
A   11
NAO
A   12
CAP
A   13
CAR
A   14
NAK
A   15
CAE
A   16
CAF
A   17
CAA
A   18
CAB
A   19
OAL
A   20
CAM
A   21
CAC
A   22
CAD
A   23
CAG
A   24
CAQ
A   25
CAX
A   26
CAY
A   27
CAZ
A   28
CL1
A   29
CBA
A   30
CBB
M  END
