1Y5R_C0R_A_11
     RDKit          3D

 55 58  0  0  0  0  0  0  0  0999 V2000
   73.2830   46.7690   41.8820 C   0  0  0  0  0  0  0  0  0  0  0  0
   71.8920   46.1700   41.7890 C   0  0  0  0  0  0  0  0  0  0  0  0
   71.2940   46.2630   43.1900 C   0  0  0  0  0  0  0  0  0  0  0  0
   71.3940   47.5150   44.0060 C   0  0  0  0  0  0  0  0  0  0  0  0
   72.2320   48.5630   43.4660 C   0  0  0  0  0  0  0  0  0  0  0  0
   72.2640   49.9230   44.0730 C   0  0  0  0  0  0  0  0  0  0  0  0
   73.7250   50.2550   44.3840 C   0  0  0  0  0  0  0  0  0  0  0  0
   74.6430   50.1420   43.1700 C   0  0  0  0  0  0  0  0  0  0  0  0
   74.6510   48.6780   42.6590 C   0  0  0  0  0  0  0  0  0  0  0  0
   73.1780   48.2510   42.2970 C   0  0  0  0  0  0  0  0  0  0  0  0
   75.6980   48.3890   41.5520 C   0  0  0  0  0  0  0  0  0  0  0  0
   77.0910   48.8270   42.0220 C   0  0  0  0  0  0  0  0  0  0  0  0
   77.2160   50.2910   42.4580 C   0  0  0  0  0  0  0  0  0  0  0  0
   76.1130   50.3050   43.5710 C   0  0  0  0  0  0  0  0  0  0  0  0
   76.4160   51.6280   44.2560 C   0  0  0  0  0  0  0  0  0  0  0  0
   77.8920   51.8510   44.1310 C   0  0  0  0  0  0  0  0  0  0  0  0
   78.4900   50.6960   43.3140 C   0  0  0  0  0  0  0  0  0  0  0  0
   76.9830   51.3540   41.3640 C   0  0  0  0  0  0  0  0  0  0  0  0
   72.5710   49.0610   41.1300 C   0  0  0  0  0  0  0  0  0  0  0  0
   79.7620   51.1380   42.5590 C   0  0  0  0  0  0  0  0  0  0  0  0
   80.4170   50.0320   41.7570 C   0  0  0  0  0  0  0  0  0  0  0  0
   70.6890   45.3130   43.6790 O   0  0  0  0  0  0  0  0  0  0  0  0
   75.4590   48.9690   40.3990 O   0  0  0  0  0  0  0  0  0  0  0  0
   80.0060   52.2840   42.2950 O   0  0  0  0  0  0  0  0  0  0  0  0
   80.3390   48.8640   42.3490 O   0  0  0  0  0  0  0  0  0  0  0  0
   73.8697   46.2188   42.6324 H   0  0  0  0  0  0  0  0  0  0  0  0
   73.7796   46.6966   40.9031 H   0  0  0  0  0  0  0  0  0  0  0  0
   71.2790   46.7386   41.0742 H   0  0  0  0  0  0  0  0  0  0  0  0
   71.9267   45.1287   41.4362 H   0  0  0  0  0  0  0  0  0  0  0  0
   70.8608   47.6308   44.9611 H   0  0  0  0  0  0  0  0  0  0  0  0
   71.8541   50.6593   43.3660 H   0  0  0  0  0  0  0  0  0  0  0  0
   71.6570   49.9518   44.9899 H   0  0  0  0  0  0  0  0  0  0  0  0
   73.7751   51.2859   44.7645 H   0  0  0  0  0  0  0  0  0  0  0  0
   74.0745   49.5212   45.1253 H   0  0  0  0  0  0  0  0  0  0  0  0
   74.2851   50.8951   42.4525 H   0  0  0  0  0  0  0  0  0  0  0  0
   75.0032   48.0306   43.4756 H   0  0  0  0  0  0  0  0  0  0  0  0
   75.6376   47.3036   41.3836 H   0  0  0  0  0  0  0  0  0  0  0  0
   77.3736   48.1947   42.8766 H   0  0  0  0  0  0  0  0  0  0  0  0
   77.7502   48.7173   41.1483 H   0  0  0  0  0  0  0  0  0  0  0  0
   76.1801   49.4016   44.1950 H   0  0  0  0  0  0  0  0  0  0  0  0
   75.8665   52.4440   43.7638 H   0  0  0  0  0  0  0  0  0  0  0  0
   76.1078   51.6060   45.3117 H   0  0  0  0  0  0  0  0  0  0  0  0
   78.0813   52.8056   43.6182 H   0  0  0  0  0  0  0  0  0  0  0  0
   78.3543   51.8870   45.1285 H   0  0  0  0  0  0  0  0  0  0  0  0
   78.8958   49.8324   43.8613 H   0  0  0  0  0  0  0  0  0  0  0  0
   76.7702   52.3248   41.8354 H   0  0  0  0  0  0  0  0  0  0  0  0
   77.8837   51.4398   40.7383 H   0  0  0  0  0  0  0  0  0  0  0  0
   76.1290   51.0552   40.7383 H   0  0  0  0  0  0  0  0  0  0  0  0
   71.9571   49.8802   41.5325 H   0  0  0  0  0  0  0  0  0  0  0  0
   73.3806   49.4784   40.5132 H   0  0  0  0  0  0  0  0  0  0  0  0
   71.9431   48.4012   40.5132 H   0  0  0  0  0  0  0  0  0  0  0  0
   79.9193   49.9646   40.7784 H   0  0  0  0  0  0  0  0  0  0  0  0
   81.4832   50.2823   41.6543 H   0  0  0  0  0  0  0  0  0  0  0  0
   75.0865   49.8729   40.5552 H   0  0  0  0  0  0  0  0  0  0  0  0
   80.3474   48.9905   43.3309 H   0  0  0  0  0  0  0  0  0  0  0  0
  1  2  1  0
  1 10  1  0
  2  3  1  0
  3  4  1  0
  3 22  2  0
  4  5  2  0
  5  6  1  0
  5 10  1  0
  6  7  1  0
  7  8  1  0
  8  9  1  0
  8 14  1  0
  9 10  1  0
  9 11  1  0
 10 19  1  0
 11 12  1  0
 11 23  1  0
 12 13  1  0
 13 14  1  0
 13 17  1  0
 13 18  1  0
 14 15  1  0
 15 16  1  0
 16 17  1  0
 17 20  1  0
 20 21  1  0
 20 24  2  0
 21 25  1  0
  1 26  1  0
  1 27  1  0
  2 28  1  0
  2 29  1  0
  4 30  1  0
  6 31  1  0
  6 32  1  0
  7 33  1  0
  7 34  1  0
  8 35  1  0
  9 36  1  0
 11 37  1  0
 12 38  1  0
 12 39  1  0
 14 40  1  0
 15 41  1  0
 15 42  1  0
 16 43  1  0
 16 44  1  0
 17 45  1  0
 18 46  1  0
 18 47  1  0
 18 48  1  0
 19 49  1  0
 19 50  1  0
 19 51  1  0
 21 52  1  0
 21 53  1  0
 23 54  1  0
 25 55  1  0
A    1
C1
A    2
C2
A    3
C3
A    4
C4
A    5
C5
A    6
C6
A    7
C7
A    8
C8
A    9
C9
A   10
C10
A   11
C11
A   12
C12
A   13
C13
A   14
C14
A   15
C15
A   16
C16
A   17
C17
A   18
C18
A   19
C19
A   20
C20
A   21
C21
A   22
O1
A   23
O2
A   24
O3
A   25
O4
M  END
