4QG7_32K_A_301
     RDKit          3D

 61 64  0  0  0  0  0  0  0  0999 V2000
   12.5830   -3.1460    0.9450 C   0  0  0  0  0  0  0  0  0  0  0  0
   11.9980   -1.7760    0.8430 C   0  0  0  0  0  0  0  0  0  0  0  0
   11.5450   -1.0620    1.8890 C   0  0  0  0  0  0  0  0  0  0  0  0
   10.9870    0.1960    1.7830 N   0  0  0  0  0  0  0  0  0  0  0  0
   10.9060    0.8450    0.5710 C   0  0  0  0  0  0  0  0  0  0  0  0
   10.4830    1.9880    0.4400 O   0  0  0  0  0  0  0  0  0  0  0  0
   11.3500    0.1070   -0.5080 N   0  0  0  0  0  0  0  0  0  0  0  0
   11.8940   -1.1580   -0.4950 C   0  0  0  0  0  0  0  0  0  0  0  0
   12.2770   -1.7400   -1.5110 O   0  0  0  0  0  0  0  0  0  0  0  0
   10.4350    0.8740    2.9410 C   0  0  0  0  0  0  0  0  0  0  0  0
    9.5780   -0.0170    3.8390 C   0  0  0  0  0  0  0  0  0  0  0  0
    9.0060    0.7870    4.9940 C   0  0  0  0  0  0  0  0  0  0  0  0
   10.1600    1.3970    5.7790 C   0  0  0  0  0  0  0  0  0  0  0  0
   10.9320    2.2800    4.8520 N   0  0  0  0  0  0  0  0  0  0  0  0
   11.5370    1.5370    3.7150 C   0  0  0  0  0  0  0  0  0  0  0  0
   11.9240    3.2130    5.4590 C   0  0  0  0  0  0  0  0  0  0  0  0
   13.1390    2.5400    6.0310 C   0  0  0  0  0  0  0  0  0  0  0  0
   13.0840    2.1400    7.3530 C   0  0  0  0  0  0  0  0  0  0  0  0
   14.1560    1.5020    7.9270 C   0  0  0  0  0  0  0  0  0  0  0  0
   15.3090    1.2720    7.2020 C   0  0  0  0  0  0  0  0  0  0  0  0
   15.3850    1.6940    5.8830 C   0  0  0  0  0  0  0  0  0  0  0  0
   14.3040    2.3370    5.2970 C   0  0  0  0  0  0  0  0  0  0  0  0
   14.3860    2.7700    3.9680 O   0  0  0  0  0  0  0  0  0  0  0  0
   15.0840    4.0310    3.9470 C   0  0  0  0  0  0  0  0  0  0  0  0
   16.5590    1.5200    5.1670 O   0  0  0  0  0  0  0  0  0  0  0  0
   16.6540    0.4670    4.2760 C   0  0  0  0  0  0  0  0  0  0  0  0
   15.8770   -0.6790    4.3480 C   0  0  0  0  0  0  0  0  0  0  0  0
   16.0580   -1.6990    3.4270 C   0  0  0  0  0  0  0  0  0  0  0  0
   17.0090   -1.5530    2.4360 C   0  0  0  0  0  0  0  0  0  0  0  0
   17.7830   -0.4090    2.3830 C   0  0  0  0  0  0  0  0  0  0  0  0
   17.6220    0.6060    3.3040 C   0  0  0  0  0  0  0  0  0  0  0  0
   18.9660   -0.1980    1.1470 Cl  0  0  0  0  0  0  0  0  0  0  0  0
   16.4250    0.5900    7.8690 C   0  0  0  0  0  0  0  0  0  0  0  0
   16.8930    1.1270    8.9040 O   0  0  0  0  0  0  0  0  0  0  0  0
   16.8280   -0.4820    7.3640 O   0  0  0  0  0  0  0  0  0  0  0  0
   12.6988   -3.4173    2.0047 H   0  0  0  0  0  0  0  0  0  0  0  0
   11.9146   -3.8677    0.4527 H   0  0  0  0  0  0  0  0  0  0  0  0
   13.5666   -3.1623    0.4527 H   0  0  0  0  0  0  0  0  0  0  0  0
   11.6241   -1.5084    2.8912 H   0  0  0  0  0  0  0  0  0  0  0  0
   11.2643    0.5553   -1.4313 H   0  0  0  0  0  0  0  0  0  0  0  0
    9.7410    1.6369    2.5584 H   0  0  0  0  0  0  0  0  0  0  0  0
    8.7522   -0.4397    3.2479 H   0  0  0  0  0  0  0  0  0  0  0  0
   10.2061   -0.8244    4.2435 H   0  0  0  0  0  0  0  0  0  0  0  0
    8.3590    1.5867    4.6044 H   0  0  0  0  0  0  0  0  0  0  0  0
    8.4099    0.1338    5.6482 H   0  0  0  0  0  0  0  0  0  0  0  0
   10.8121    0.5995    6.1648 H   0  0  0  0  0  0  0  0  0  0  0  0
    9.7781    1.9780    6.6314 H   0  0  0  0  0  0  0  0  0  0  0  0
   12.2325    0.7753    4.0972 H   0  0  0  0  0  0  0  0  0  0  0  0
   12.0919    2.2290    3.0644 H   0  0  0  0  0  0  0  0  0  0  0  0
   12.2547    3.9172    4.6814 H   0  0  0  0  0  0  0  0  0  0  0  0
   11.4154    3.7095    6.2986 H   0  0  0  0  0  0  0  0  0  0  0  0
   12.1787    2.3334    7.9471 H   0  0  0  0  0  0  0  0  0  0  0  0
   14.0959    1.1709    8.9743 H   0  0  0  0  0  0  0  0  0  0  0  0
   15.2689    4.3650    4.9786 H   0  0  0  0  0  0  0  0  0  0  0  0
   16.0437    3.9102    3.4232 H   0  0  0  0  0  0  0  0  0  0  0  0
   14.4721    4.7801    3.4232 H   0  0  0  0  0  0  0  0  0  0  0  0
   15.1165   -0.7788    5.1364 H   0  0  0  0  0  0  0  0  0  0  0  0
   15.4510   -2.6145    3.4847 H   0  0  0  0  0  0  0  0  0  0  0  0
   17.1505   -2.3475    1.6886 H   0  0  0  0  0  0  0  0  0  0  0  0
   18.2524    1.5066    3.2636 H   0  0  0  0  0  0  0  0  0  0  0  0
   16.6134    0.8061    9.7978 H   0  0  0  0  0  0  0  0  0  0  0  0
  9  8  2  0
  7  8  1  0
  7  5  1  0
  8  2  1  0
  6  5  2  0
  5  4  1  0
  2  1  1  0
  2  3  2  0
 32 30  1  0
  4  3  1  0
  4 10  1  0
 30 29  2  0
 30 31  1  0
 29 28  1  0
 10 15  1  0
 10 11  1  0
 31 26  2  0
 28 27  2  0
 15 14  1  0
 11 12  1  0
 24 23  1  0
 23 22  1  0
 26 27  1  0
 26 25  1  0
 14 16  1  0
 14 13  1  0
 12 13  1  0
 25 21  1  0
 22 21  2  0
 22 17  1  0
 16 17  1  0
 21 20  1  0
 17 18  2  0
 20 33  1  0
 20 19  2  0
 18 19  1  0
 35 33  2  0
 33 34  1  0
  1 36  1  0
  1 37  1  0
  1 38  1  0
  3 39  1  0
  7 40  1  0
 10 41  1  0
 11 42  1  0
 11 43  1  0
 12 44  1  0
 12 45  1  0
 13 46  1  0
 13 47  1  0
 15 48  1  0
 15 49  1  0
 16 50  1  0
 16 51  1  0
 18 52  1  0
 19 53  1  0
 24 54  1  0
 24 55  1  0
 24 56  1  0
 27 57  1  0
 28 58  1  0
 29 59  1  0
 31 60  1  0
 34 61  1  0
A    1
C1
A    2
C2
A    3
C3
A    4
N4
A    5
C5
A    6
O6
A    7
N7
A    8
C8
A    9
O9
A   10
C10
A   11
C11
A   12
C12
A   13
C13
A   14
N14
A   15
C15
A   16
C16
A   17
C17
A   18
C18
A   19
C19
A   20
C20
A   21
C21
A   22
C22
A   23
O23
A   24
C24
A   25
O25
A   26
C26
A   27
C27
A   28
C28
A   29
C29
A   30
C30
A   31
C31
A   32
CL
A   33
C33
A   34
O34
A   35
O35
M  END
