4QGE_35O_A_601
     RDKit          3D

 53 56  0  0  0  0  0  0  0  0999 V2000
   78.7560   49.2720   40.1010 C   0  0  0  0  0  0  0  0  0  0  0  0
   79.6020   49.4750   38.8560 C   0  0  0  0  0  0  0  0  0  0  0  0
   80.8530   50.0410   39.5060 C   0  0  0  0  0  0  0  0  0  0  0  0
   80.2960   51.0850   40.4650 C   0  0  0  0  0  0  0  0  0  0  0  0
   78.8440   50.6760   40.6740 C   0  0  0  0  0  0  0  0  0  0  0  0
   78.4010   50.7780   42.0820 N   0  0  0  0  0  0  0  0  0  0  0  0
   77.3230   51.4570   42.4690 C   0  0  0  0  0  0  0  0  0  0  0  0
   76.3960   52.1640   41.8080 N   0  0  0  0  0  0  0  0  0  0  0  0
   78.9370   50.3240   42.9720 N   0  0  0  0  0  0  0  0  0  0  0  0
   78.3250   50.6240   44.1170 C   0  0  0  0  0  0  0  0  0  0  0  0
   77.2670   51.3610   43.7920 C   0  0  0  0  0  0  0  0  0  0  0  0
   76.2940   51.9670   44.4650 C   0  0  0  0  0  0  0  0  0  0  0  0
   76.4440   52.0520   45.8150 O   0  0  0  0  0  0  0  0  0  0  0  0
   75.3550   52.6750   43.8170 N   0  0  0  0  0  0  0  0  0  0  0  0
   75.4090   52.7730   42.4810 C   0  0  0  0  0  0  0  0  0  0  0  0
   74.5580   53.5660   41.8340 N   0  0  0  0  0  0  0  0  0  0  0  0
   74.6610   53.8040   40.3870 C   0  0  0  0  0  0  0  0  0  0  0  0
   73.7390   54.9540   39.9740 C   0  0  0  0  0  0  0  0  0  0  0  0
   74.2790   52.5340   39.6230 C   0  0  0  0  0  0  0  0  0  0  0  0
   73.1090   52.1530   39.6020 O   0  0  0  0  0  0  0  0  0  0  0  0
   75.2670   52.0470   38.8570 N   0  0  0  0  0  0  0  0  0  0  0  0
   75.0960   50.9380   38.1380 C   0  0  0  0  0  0  0  0  0  0  0  0
   76.1610   50.4660   37.3780 C   0  0  0  0  0  0  0  0  0  0  0  0
   76.0420   49.2860   36.6530 C   0  0  0  0  0  0  0  0  0  0  0  0
   74.8540   48.5630   36.6800 C   0  0  0  0  0  0  0  0  0  0  0  0
   74.7510   47.4210   35.9470 O   0  0  0  0  0  0  0  0  0  0  0  0
   73.4740   46.7970   36.1090 C   0  0  0  0  0  0  0  0  0  0  0  0
   73.7810   49.0430   37.4250 C   0  0  0  0  0  0  0  0  0  0  0  0
   73.9000   50.2270   38.1450 C   0  0  0  0  0  0  0  0  0  0  0  0
   77.7214   48.9898   39.8561 H   0  0  0  0  0  0  0  0  0  0  0  0
   79.0842   48.4641   40.7715 H   0  0  0  0  0  0  0  0  0  0  0  0
   79.1418   50.1888   38.1569 H   0  0  0  0  0  0  0  0  0  0  0  0
   79.7554   48.5782   38.2378 H   0  0  0  0  0  0  0  0  0  0  0  0
   81.4050   49.2596   40.0488 H   0  0  0  0  0  0  0  0  0  0  0  0
   81.5694   50.4553   38.7814 H   0  0  0  0  0  0  0  0  0  0  0  0
   80.8451   51.0696   41.4180 H   0  0  0  0  0  0  0  0  0  0  0  0
   80.3895   52.1074   40.0700 H   0  0  0  0  0  0  0  0  0  0  0  0
   78.1493   51.3599   40.1645 H   0  0  0  0  0  0  0  0  0  0  0  0
   76.4418   52.2397   40.7818 H   0  0  0  0  0  0  0  0  0  0  0  0
   78.6334   50.3223   45.1289 H   0  0  0  0  0  0  0  0  0  0  0  0
   73.8042   54.0270   42.3634 H   0  0  0  0  0  0  0  0  0  0  0  0
   75.6992   54.0747   40.1445 H   0  0  0  0  0  0  0  0  0  0  0  0
   73.3431   55.4478   40.8737 H   0  0  0  0  0  0  0  0  0  0  0  0
   74.3064   55.6821   39.3758 H   0  0  0  0  0  0  0  0  0  0  0  0
   72.9049   54.5585   39.3758 H   0  0  0  0  0  0  0  0  0  0  0  0
   76.1719   52.5380   38.8241 H   0  0  0  0  0  0  0  0  0  0  0  0
   77.1045   51.0308   37.3505 H   0  0  0  0  0  0  0  0  0  0  0  0
   76.8909   48.9224   36.0554 H   0  0  0  0  0  0  0  0  0  0  0  0
   73.2522   46.6886   37.1809 H   0  0  0  0  0  0  0  0  0  0  0  0
   72.6996   47.4182   35.6353 H   0  0  0  0  0  0  0  0  0  0  0  0
   73.4882   45.8043   35.6353 H   0  0  0  0  0  0  0  0  0  0  0  0
   72.8342   48.4833   37.4445 H   0  0  0  0  0  0  0  0  0  0  0  0
   73.0435   50.6036   38.7234 H   0  0  0  0  0  0  0  0  0  0  0  0
 26 27  1  0
 26 25  1  0
 24 25  1  0
 24 23  2  0
 25 28  2  0
 23 22  1  0
 28 29  1  0
 22 29  2  0
 22 21  1  0
  2  3  1  0
  2  1  1  0
 21 19  1  0
  3  4  1  0
 20 19  2  0
 19 17  1  0
 18 17  1  0
  1  5  1  0
 17 16  1  0
  4  5  1  0
  5  6  1  0
  8  7  1  0
  8 15  1  0
 16 15  1  0
  6  7  1  0
  6  9  1  0
  7 11  2  0
 15 14  2  0
  9 10  2  0
 11 10  1  0
 11 12  1  0
 14 12  1  0
 12 13  2  0
  1 30  1  0
  1 31  1  0
  2 32  1  0
  2 33  1  0
  3 34  1  0
  3 35  1  0
  4 36  1  0
  4 37  1  0
  5 38  1  0
  8 39  1  0
 10 40  1  0
 16 41  1  0
 17 42  1  0
 18 43  1  0
 18 44  1  0
 18 45  1  0
 21 46  1  0
 23 47  1  0
 24 48  1  0
 27 49  1  0
 27 50  1  0
 27 51  1  0
 28 52  1  0
 29 53  1  0
A    1
C4
A    2
C1
A    3
C2
A    4
C3
A    5
C5
A    6
N8
A    7
C11
A    8
N13
A    9
N9
A   10
C10
A   11
C12
A   12
C16
A   13
O17
A   14
N15
A   15
C14
A   16
N18
A   17
C19
A   18
C20
A   19
C21
A   20
O22
A   21
N23
A   22
C24
A   23
C29
A   24
C28
A   25
C27
A   26
O30
A   27
C31
A   28
C26
A   29
C25
M  END
