4QGH_32E_A_301
     RDKit          3D

 69 72  0  0  0  0  0  0  0  0999 V2000
   15.9880   -2.0650    3.1700 C   0  0  0  0  0  0  0  0  0  0  0  0
   14.4520    0.9130    8.1210 C   0  0  0  0  0  0  0  0  0  0  0  0
   13.4400    1.6810    7.5640 C   0  0  0  0  0  0  0  0  0  0  0  0
   15.9240   -1.1540    4.2120 C   0  0  0  0  0  0  0  0  0  0  0  0
   16.9300   -1.8830    2.1680 C   0  0  0  0  0  0  0  0  0  0  0  0
   17.7050    0.1350    3.2640 C   0  0  0  0  0  0  0  0  0  0  0  0
   15.5810    0.6340    7.3740 C   0  0  0  0  0  0  0  0  0  0  0  0
   13.5180    2.1530    6.2540 C   0  0  0  0  0  0  0  0  0  0  0  0
   16.7820   -0.0750    4.2680 C   0  0  0  0  0  0  0  0  0  0  0  0
   15.6620    1.0740    6.0640 C   0  0  0  0  0  0  0  0  0  0  0  0
   14.6480    1.8390    5.5220 C   0  0  0  0  0  0  0  0  0  0  0  0
   17.7520   -0.7730    2.2230 C   0  0  0  0  0  0  0  0  0  0  0  0
   11.4530   -1.1250    2.1470 C   0  0  0  0  0  0  0  0  0  0  0  0
   11.8380   -1.8750    1.0970 C   0  0  0  0  0  0  0  0  0  0  0  0
   11.6200   -1.2910   -0.2490 C   0  0  0  0  0  0  0  0  0  0  0  0
   10.7320    0.7630    0.8240 C   0  0  0  0  0  0  0  0  0  0  0  0
   16.6700   -0.1790    7.9520 C   0  0  0  0  0  0  0  0  0  0  0  0
    9.2760    0.8880    5.4350 C   0  0  0  0  0  0  0  0  0  0  0  0
    9.6520    0.0570    4.2160 C   0  0  0  0  0  0  0  0  0  0  0  0
   10.5610    1.4200    6.0440 C   0  0  0  0  0  0  0  0  0  0  0  0
   11.7010    1.4900    3.9190 C   0  0  0  0  0  0  0  0  0  0  0  0
   10.4820    0.8870    3.2300 C   0  0  0  0  0  0  0  0  0  0  0  0
   12.4410   -3.2430    1.2310 C   0  0  0  0  0  0  0  0  0  0  0  0
   13.7670    5.7860    5.6120 C   0  0  0  0  0  0  0  0  0  0  0  0
   12.5230    6.2930    7.6950 C   0  0  0  0  0  0  0  0  0  0  0  0
   12.0180    4.1740    6.5160 C   0  0  0  0  0  0  0  0  0  0  0  0
   12.4480    3.0180    5.5960 C   0  0  0  0  0  0  0  0  0  0  0  0
   13.1070    5.1850    6.8390 C   0  0  0  0  0  0  0  0  0  0  0  0
   11.0880   -0.0030   -0.2680 N   0  0  0  0  0  0  0  0  0  0  0  0
   10.8910    0.1360    2.0440 N   0  0  0  0  0  0  0  0  0  0  0  0
   11.2670    2.2820    5.0730 N   0  0  0  0  0  0  0  0  0  0  0  0
   11.8990   -1.8990   -1.2820 O   0  0  0  0  0  0  0  0  0  0  0  0
   10.3320    1.9200    0.7080 O   0  0  0  0  0  0  0  0  0  0  0  0
   17.1640   -1.1550    7.4100 O   0  0  0  0  0  0  0  0  0  0  0  0
   17.0350    0.3170    9.1620 O   0  0  0  0  0  0  0  0  0  0  0  0
   16.7900    0.8660    5.3030 O   0  0  0  0  0  0  0  0  0  0  0  0
   14.8020    2.2760    4.2480 F   0  0  0  0  0  0  0  0  0  0  0  0
   18.8980   -0.4940    0.9790 Cl  0  0  0  0  0  0  0  0  0  0  0  0
   15.2999   -2.9226    3.1376 H   0  0  0  0  0  0  0  0  0  0  0  0
   14.3569    0.5296    9.1476 H   0  0  0  0  0  0  0  0  0  0  0  0
   12.5547    1.9236    8.1701 H   0  0  0  0  0  0  0  0  0  0  0  0
   15.1771   -1.2933    5.0074 H   0  0  0  0  0  0  0  0  0  0  0  0
   17.0211   -2.6079    1.3457 H   0  0  0  0  0  0  0  0  0  0  0  0
   18.3838    1.0001    3.2913 H   0  0  0  0  0  0  0  0  0  0  0  0
   11.5946   -1.5425    3.1548 H   0  0  0  0  0  0  0  0  0  0  0  0
    8.6297    1.7253    5.1330 H   0  0  0  0  0  0  0  0  0  0  0  0
    8.7279    0.2749    6.1656 H   0  0  0  0  0  0  0  0  0  0  0  0
    8.7344   -0.2864    3.7160 H   0  0  0  0  0  0  0  0  0  0  0  0
   10.2517   -0.8041    4.5461 H   0  0  0  0  0  0  0  0  0  0  0  0
   11.2098    0.5753    6.3190 H   0  0  0  0  0  0  0  0  0  0  0  0
   10.3163    2.0120    6.9382 H   0  0  0  0  0  0  0  0  0  0  0  0
   12.3675    0.6831    4.2577 H   0  0  0  0  0  0  0  0  0  0  0  0
   12.2397    2.1373    3.2114 H   0  0  0  0  0  0  0  0  0  0  0  0
    9.8225    1.6956    2.8818 H   0  0  0  0  0  0  0  0  0  0  0  0
   12.5510   -3.4925    2.2967 H   0  0  0  0  0  0  0  0  0  0  0  0
   11.7851   -3.9818    0.7473 H   0  0  0  0  0  0  0  0  0  0  0  0
   13.4288   -3.2573    0.7473 H   0  0  0  0  0  0  0  0  0  0  0  0
   14.5466    6.4959    5.9256 H   0  0  0  0  0  0  0  0  0  0  0  0
   14.2212    4.9848    5.0104 H   0  0  0  0  0  0  0  0  0  0  0  0
   13.0117    6.3130    5.0104 H   0  0  0  0  0  0  0  0  0  0  0  0
   12.6547    6.0431    8.7581 H   0  0  0  0  0  0  0  0  0  0  0  0
   13.0400    7.2384    7.4738 H   0  0  0  0  0  0  0  0  0  0  0  0
   11.4509    6.4009    7.4738 H   0  0  0  0  0  0  0  0  0  0  0  0
   11.1914    4.7093    6.0259 H   0  0  0  0  0  0  0  0  0  0  0  0
   11.7365    3.7126    7.4741 H   0  0  0  0  0  0  0  0  0  0  0  0
   12.9395    3.4285    4.7016 H   0  0  0  0  0  0  0  0  0  0  0  0
   13.8946    4.6392    7.3791 H   0  0  0  0  0  0  0  0  0  0  0  0
   10.9453    0.4225   -1.1951 H   0  0  0  0  0  0  0  0  0  0  0  0
   16.7152   -0.1176    9.9920 H   0  0  0  0  0  0  0  0  0  0  0  0
 32 15  2  0
 29 15  1  0
 29 16  1  0
 15 14  1  0
 33 16  2  0
 16 30  1  0
 38 12  1  0
 14 23  1  0
 14 13  2  0
 30 13  1  0
 30 22  1  0
  5 12  1  0
  5  1  2  0
 12  6  2  0
  1  4  1  0
 22 21  1  0
 22 19  1  0
  6  9  1  0
 21 31  1  0
  4  9  2  0
 19 18  1  0
 37 11  1  0
  9 36  1  0
 31 27  1  0
 31 20  1  0
 36 10  1  0
 18 20  1  0
 11 10  2  0
 11  8  1  0
 27  8  1  0
 27 26  1  0
 24 28  1  0
 10  7  1  0
  8  3  2  0
 26 28  1  0
 28 25  1  0
  7 17  1  0
  7  2  2  0
 34 17  2  0
  3  2  1  0
 17 35  1  0
  1 39  1  0
  2 40  1  0
  3 41  1  0
  4 42  1  0
  5 43  1  0
  6 44  1  0
 13 45  1  0
 18 46  1  0
 18 47  1  0
 19 48  1  0
 19 49  1  0
 20 50  1  0
 20 51  1  0
 21 52  1  0
 21 53  1  0
 22 54  1  0
 23 55  1  0
 23 56  1  0
 23 57  1  0
 24 58  1  0
 24 59  1  0
 24 60  1  0
 25 61  1  0
 25 62  1  0
 25 63  1  0
 26 64  1  0
 26 65  1  0
 27 66  1  0
 28 67  1  0
 29 68  1  0
 35 69  1  0
A    1
C31
A    2
C23
A    3
C22
A    4
C30
A    5
C32
A    6
C34
A    7
C24
A    8
C21
A    9
C29
A   10
C25
A   11
C26
A   12
C33
A   13
C3
A   14
C2
A   15
C8
A   16
C5
A   17
C36
A   18
C12
A   19
C11
A   20
C13
A   21
C15
A   22
C10
A   23
C1
A   24
C19
A   25
C20
A   26
C17
A   27
C16
A   28
C18
A   29
N7
A   30
N4
A   31
N14
A   32
O9
A   33
O6
A   34
O37
A   35
O38
A   36
O28
A   37
F27
A   38
CL
M  END
