4QHC_33V_A_401
     RDKit          3D

 44 46  0  0  0  0  0  0  0  0999 V2000
  -10.6880   13.5610   -1.1730 S   0  0  0  0  0  0  0  0  0  0  0  0
   -9.4370   14.7630   -1.5740 C   0  0  0  0  0  0  0  0  0  0  0  0
   -9.3050   15.2270   -3.0340 C   0  0  0  0  0  0  0  0  0  0  0  0
   -9.4250   14.2800   -4.1150 N   0  0  0  0  0  0  0  0  0  0  0  0
  -10.6410   13.5600   -4.1770 C   0  0  0  0  0  0  0  0  0  0  0  0
  -10.4960   12.1810   -3.5530 C   0  0  0  0  0  0  0  0  0  0  0  0
  -11.6840   11.3960   -4.0820 C   0  0  0  0  0  0  0  0  0  0  0  0
  -12.3480   10.4250   -3.3590 O   0  0  0  0  0  0  0  0  0  0  0  0
   -7.9310   15.9390   -3.1590 C   0  0  0  0  0  0  0  0  0  0  0  0
   -7.3590   15.9340   -4.2790 O   0  0  0  0  0  0  0  0  0  0  0  0
   -7.4370   16.5020   -2.1420 O   0  0  0  0  0  0  0  0  0  0  0  0
  -10.2920   12.0440   -2.0360 C   0  0  0  0  0  0  0  0  0  0  0  0
   -8.8100   11.6630   -1.8210 C   0  0  0  0  0  0  0  0  0  0  0  0
   -8.2620   10.4940   -2.7930 N   0  0  0  0  0  0  0  0  0  0  0  0
   -7.1850   10.4510   -2.1830 N   0  0  0  0  0  0  0  0  0  0  0  0
   -7.6860   10.1090   -0.7670 C   0  0  0  0  0  0  0  0  0  0  0  0
   -8.5470   11.2780   -0.5670 C   0  0  0  0  0  0  0  0  0  0  0  0
   -6.5980    9.2500   -2.8390 C   0  0  0  0  0  0  0  0  0  0  0  0
   -5.1500    9.0810   -2.0700 S   0  0  0  0  0  0  0  0  0  0  0  0
   -5.2170    9.2560   -0.4680 C   0  0  0  0  0  0  0  0  0  0  0  0
   -6.4220    9.8520    0.2050 C   0  0  0  0  0  0  0  0  0  0  0  0
   -8.4679   14.3327   -1.2814 H   0  0  0  0  0  0  0  0  0  0  0  0
   -9.7497   15.6675   -1.0318 H   0  0  0  0  0  0  0  0  0  0  0  0
  -10.1986   15.8509   -3.1831 H   0  0  0  0  0  0  0  0  0  0  0  0
   -8.6591   13.5975   -4.0225 H   0  0  0  0  0  0  0  0  0  0  0  0
  -11.4173   14.1195   -3.6345 H   0  0  0  0  0  0  0  0  0  0  0  0
  -10.9191   13.4365   -5.2341 H   0  0  0  0  0  0  0  0  0  0  0  0
   -9.5151   11.7845   -3.8540 H   0  0  0  0  0  0  0  0  0  0  0  0
  -12.4448   12.1459   -4.3443 H   0  0  0  0  0  0  0  0  0  0  0  0
  -11.2035   10.7865   -4.8615 H   0  0  0  0  0  0  0  0  0  0  0  0
  -12.2308   10.5964   -2.3910 H   0  0  0  0  0  0  0  0  0  0  0  0
   -7.6987   16.2037   -1.2350 H   0  0  0  0  0  0  0  0  0  0  0  0
  -10.9656   11.2756   -1.6288 H   0  0  0  0  0  0  0  0  0  0  0  0
   -8.2901   12.6018   -2.0625 H   0  0  0  0  0  0  0  0  0  0  0  0
   -8.1705   10.7814   -3.7778 H   0  0  0  0  0  0  0  0  0  0  0  0
   -8.2462    9.1826   -0.5722 H   0  0  0  0  0  0  0  0  0  0  0  0
   -8.0214   12.0681   -0.0107 H   0  0  0  0  0  0  0  0  0  0  0  0
   -9.4496   11.0615    0.0232 H   0  0  0  0  0  0  0  0  0  0  0  0
   -7.2332    8.3651   -2.6856 H   0  0  0  0  0  0  0  0  0  0  0  0
   -6.5009    9.3547   -3.9297 H   0  0  0  0  0  0  0  0  0  0  0  0
   -5.0871    8.2511   -0.0398 H   0  0  0  0  0  0  0  0  0  0  0  0
   -4.4410   10.0123   -0.2790 H   0  0  0  0  0  0  0  0  0  0  0  0
   -6.1264   10.8166    0.6434 H   0  0  0  0  0  0  0  0  0  0  0  0
   -6.7527    9.1167    0.9533 H   0  0  0  0  0  0  0  0  0  0  0  0
 10  9  2  0
  5  4  1  0
  5  6  1  0
  4  3  1  0
  7  6  1  0
  7  8  1  0
  6 12  1  0
  9  3  1  0
  9 11  1  0
  3  2  1  0
 18 15  1  0
 18 19  1  0
 14 15  1  0
 14 13  1  0
 15 16  1  0
 19 20  1  0
 12 13  1  0
 12  1  1  0
 13 17  1  0
  2  1  1  0
 16 17  1  0
 16 21  1  0
 20 21  1  0
  2 22  1  0
  2 23  1  0
  3 24  1  0
  4 25  1  0
  5 26  1  0
  5 27  1  0
  6 28  1  0
  7 29  1  0
  7 30  1  0
  8 31  1  0
 11 32  1  0
 12 33  1  0
 13 34  1  0
 14 35  1  0
 16 36  1  0
 17 37  1  0
 17 38  1  0
 18 39  1  0
 18 40  1  0
 20 41  1  0
 20 42  1  0
 21 43  1  0
 21 44  1  0
A    1
S1
A    2
C2
A    3
C3
A    4
N4
A    5
C5
A    6
C6
A    7
C7
A    8
O8
A    9
C31
A   10
O32
A   11
O33
A   12
C61
A   13
C62
A   14
N63
A   15
N64
A   16
C65
A   17
C66
A   18
C67
A   19
S68
A   20
C69
A   21
C70
M  END
