4QHO_NKG_A_602
     RDKit          3D

 38 40  0  0  0  0  0  0  0  0999 V2000
   31.3540   -5.5740  -24.8740 O   0  0  0  0  0  0  0  0  0  0  0  0
   31.2880   -6.7290  -24.5770 C   0  0  0  0  0  0  0  0  0  0  0  0
   32.0260   -7.1970  -23.5880 N   0  0  0  0  0  0  0  0  0  0  0  0
   32.9910   -6.3700  -22.9280 C   0  0  0  0  0  0  0  0  0  0  0  0
   33.9470   -7.2090  -22.1190 C   0  0  0  0  0  0  0  0  0  0  0  0
   34.4700   -6.7460  -21.1290 O   0  0  0  0  0  0  0  0  0  0  0  0
   34.2520   -8.4610  -22.4370 O   0  0  0  0  0  0  0  0  0  0  0  0
   30.3710   -7.5670  -25.3900 C   0  0  0  0  0  0  0  0  0  0  0  0
   30.3790   -9.0370  -25.2870 C   0  0  0  0  0  0  0  0  0  0  0  0
   31.1940   -9.7130  -24.4550 O   0  0  0  0  0  0  0  0  0  0  0  0
   29.5240   -6.9580  -26.2440 N   0  0  0  0  0  0  0  0  0  0  0  0
   28.6880   -7.6920  -27.0020 C   0  0  0  0  0  0  0  0  0  0  0  0
   28.6710   -9.0840  -26.9520 C   0  0  0  0  0  0  0  0  0  0  0  0
   29.5100   -9.7660  -26.0800 C   0  0  0  0  0  0  0  0  0  0  0  0
   27.7680   -7.0600  -27.9450 C   0  0  0  0  0  0  0  0  0  0  0  0
   26.4070   -6.9810  -27.6700 C   0  0  0  0  0  0  0  0  0  0  0  0
   25.5270   -6.3990  -28.5960 C   0  0  0  0  0  0  0  0  0  0  0  0
   25.9890   -5.8910  -29.8180 C   0  0  0  0  0  0  0  0  0  0  0  0
   27.3540   -5.9310  -30.1490 C   0  0  0  0  0  0  0  0  0  0  0  0
   28.3160   -6.5420  -29.2100 C   0  0  0  0  0  0  0  0  0  0  0  0
   27.8500   -5.4220  -31.3450 C   0  0  0  0  0  0  0  0  0  0  0  0
   29.2170   -5.5220  -31.6480 C   0  0  0  0  0  0  0  0  0  0  0  0
   30.1150   -6.1060  -30.7600 C   0  0  0  0  0  0  0  0  0  0  0  0
   29.6680   -6.6120  -29.5380 C   0  0  0  0  0  0  0  0  0  0  0  0
   31.9058   -8.1742  -23.2855 H   0  0  0  0  0  0  0  0  0  0  0  0
   33.5570   -5.8033  -23.6820 H   0  0  0  0  0  0  0  0  0  0  0  0
   32.4634   -5.6824  -22.2506 H   0  0  0  0  0  0  0  0  0  0  0  0
   34.1591   -7.0212  -20.2303 H   0  0  0  0  0  0  0  0  0  0  0  0
   31.0859   -9.6233  -23.4750 H   0  0  0  0  0  0  0  0  0  0  0  0
   27.9892   -9.6464  -27.6069 H   0  0  0  0  0  0  0  0  0  0  0  0
   29.4842  -10.8641  -26.0209 H   0  0  0  0  0  0  0  0  0  0  0  0
   26.0175   -7.3772  -26.7206 H   0  0  0  0  0  0  0  0  0  0  0  0
   24.4546   -6.3405  -28.3581 H   0  0  0  0  0  0  0  0  0  0  0  0
   25.2720   -5.4543  -30.5288 H   0  0  0  0  0  0  0  0  0  0  0  0
   27.1664   -4.9379  -32.0580 H   0  0  0  0  0  0  0  0  0  0  0  0
   29.5860   -5.1305  -32.6075 H   0  0  0  0  0  0  0  0  0  0  0  0
   31.1815   -6.1693  -31.0219 H   0  0  0  0  0  0  0  0  0  0  0  0
   30.3825   -7.0653  -28.8351 H   0  0  0  0  0  0  0  0  0  0  0  0
 22 21  2  0
 22 23  1  0
 21 19  1  0
 23 24  2  0
 19 18  2  0
 19 20  1  0
 18 17  1  0
 24 20  1  0
 20 15  2  0
 17 16  2  0
 15 16  1  0
 15 12  1  0
 12 13  2  0
 12 11  1  0
 13 14  1  0
 11  8  2  0
 14  9  2  0
  8  9  1  0
  8  2  1  0
  9 10  1  0
  1  2  2  0
  2  3  1  0
  3  4  1  0
  4  5  1  0
  7  5  2  0
  5  6  1  0
  3 25  1  0
  4 26  1  0
  4 27  1  0
  6 28  1  0
 10 29  1  0
 13 30  1  0
 14 31  1  0
 16 32  1  0
 17 33  1  0
 18 34  1  0
 21 35  1  0
 22 36  1  0
 23 37  1  0
 24 38  1  0
A    1
O3
A    2
C15
A    3
N1
A    4
C16
A    5
C17
A    6
O2
A    7
O1
A    8
C14
A    9
C
A   10
O
A   11
N
A   12
C3
A   13
C2
A   14
C1
A   15
C4
A   16
C13
A   17
C12
A   18
C11
A   19
C10
A   20
C5
A   21
C9
A   22
C8
A   23
C7
A   24
C6
M  END
