4QIM_A8T_A_1201
     RDKit          3D

 62 66  0  0  0  0  0  0  0  0999 V2000
   14.9290  -12.0290  -13.7510 C   0  0  0  0  0  0  0  0  0  0  0  0
   14.5320  -10.8250  -14.5150 C   0  0  0  0  0  0  0  0  0  0  0  0
   15.6370   -9.7640  -14.4690 C   0  0  0  0  0  0  0  0  0  0  0  0
   13.4030  -10.3260  -13.9100 O   0  0  0  0  0  0  0  0  0  0  0  0
   14.2110  -11.1260  -15.9750 C   0  0  0  0  0  0  0  0  0  0  0  0
   14.7400  -12.2740  -16.6320 C   0  0  0  0  0  0  0  0  0  0  0  0
   14.4670  -12.6640  -17.9060 N   0  0  0  0  0  0  0  0  0  0  0  0
   13.3850  -10.3160  -16.7940 C   0  0  0  0  0  0  0  0  0  0  0  0
   13.1200  -10.6910  -18.1260 C   0  0  0  0  0  0  0  0  0  0  0  0
   13.6760  -11.8840  -18.6840 C   0  0  0  0  0  0  0  0  0  0  0  0
   13.4670  -12.2530  -20.1020 N   0  0  0  0  0  0  0  0  0  0  0  0
   14.5580  -12.9900  -20.7100 C   0  0  0  0  0  0  0  0  0  0  0  0
   14.4810  -12.9640  -22.2050 C   0  0  0  0  0  0  0  0  0  0  0  0
   12.1100  -12.5810  -20.5470 C   0  0  0  0  0  0  0  0  0  0  0  0
   12.0370  -12.5690  -22.0670 C   0  0  0  0  0  0  0  0  0  0  0  0
   13.1210  -13.3430  -22.6800 N   0  0  0  0  0  0  0  0  0  0  0  0
   13.0360  -13.5220  -24.1430 C   0  0  0  0  0  0  0  0  0  0  0  0
   12.4120  -12.5710  -24.8670 N   0  0  0  0  0  0  0  0  0  0  0  0
   12.3300  -12.6030  -26.2010 N   0  0  0  0  0  0  0  0  0  0  0  0
   13.6470  -14.6740  -24.8430 C   0  0  0  0  0  0  0  0  0  0  0  0
   14.3480  -15.7030  -24.1760 C   0  0  0  0  0  0  0  0  0  0  0  0
   14.9190  -16.7830  -24.9080 C   0  0  0  0  0  0  0  0  0  0  0  0
   14.8470  -16.8270  -26.2980 C   0  0  0  0  0  0  0  0  0  0  0  0
   14.1950  -15.7730  -26.9870 C   0  0  0  0  0  0  0  0  0  0  0  0
   13.5700  -14.6980  -26.2840 C   0  0  0  0  0  0  0  0  0  0  0  0
   12.8530  -13.6120  -26.9250 C   0  0  0  0  0  0  0  0  0  0  0  0
   12.6120  -13.5500  -28.4750 C   0  0  0  0  0  0  0  0  0  0  0  0
   13.5240  -12.5490  -29.1920 C   0  0  0  0  0  0  0  0  0  0  0  0
   14.6890  -12.0790  -28.6090 C   0  0  0  0  0  0  0  0  0  0  0  0
   15.5520  -11.0920  -29.3680 C   0  0  0  0  0  0  0  0  0  0  0  0
   15.1870  -10.7110  -30.6510 C   0  0  0  0  0  0  0  0  0  0  0  0
   13.9320  -11.2450  -31.2860 C   0  0  0  0  0  0  0  0  0  0  0  0
   13.1350  -12.1360  -30.5980 C   0  0  0  0  0  0  0  0  0  0  0  0
   14.8597  -11.8189  -12.6735 H   0  0  0  0  0  0  0  0  0  0  0  0
   14.2582  -12.8627  -14.0059 H   0  0  0  0  0  0  0  0  0  0  0  0
   15.9641  -12.3002  -14.0059 H   0  0  0  0  0  0  0  0  0  0  0  0
   15.8789   -9.5317  -13.4214 H   0  0  0  0  0  0  0  0  0  0  0  0
   16.5346  -10.1472  -14.9763 H   0  0  0  0  0  0  0  0  0  0  0  0
   15.2905   -8.8515  -14.9763 H   0  0  0  0  0  0  0  0  0  0  0  0
   13.5077  -10.3723  -12.9266 H   0  0  0  0  0  0  0  0  0  0  0  0
   15.4337  -12.9035  -16.0553 H   0  0  0  0  0  0  0  0  0  0  0  0
   12.9492   -9.3911  -16.3881 H   0  0  0  0  0  0  0  0  0  0  0  0
   12.4736  -10.0543  -18.7479 H   0  0  0  0  0  0  0  0  0  0  0  0
   14.5153  -14.0350  -20.3693 H   0  0  0  0  0  0  0  0  0  0  0  0
   15.5026  -12.5141  -20.4078 H   0  0  0  0  0  0  0  0  0  0  0  0
   15.2150  -13.6735  -22.6147 H   0  0  0  0  0  0  0  0  0  0  0  0
   14.6977  -11.9414  -22.5477 H   0  0  0  0  0  0  0  0  0  0  0  0
   11.4061  -11.8381  -20.1437 H   0  0  0  0  0  0  0  0  0  0  0  0
   11.8463  -13.5851  -20.1833 H   0  0  0  0  0  0  0  0  0  0  0  0
   12.1034  -11.5281  -22.4166 H   0  0  0  0  0  0  0  0  0  0  0  0
   11.0834  -13.0308  -22.3628 H   0  0  0  0  0  0  0  0  0  0  0  0
   14.4538  -15.6699  -23.0816 H   0  0  0  0  0  0  0  0  0  0  0  0
   15.4252  -17.5957  -24.3665 H   0  0  0  0  0  0  0  0  0  0  0  0
   15.2894  -17.6671  -26.8534 H   0  0  0  0  0  0  0  0  0  0  0  0
   14.1700  -15.7834  -28.0867 H   0  0  0  0  0  0  0  0  0  0  0  0
   11.5663  -13.2596  -28.6541 H   0  0  0  0  0  0  0  0  0  0  0  0
   12.8413  -14.5467  -28.8799 H   0  0  0  0  0  0  0  0  0  0  0  0
   14.9846  -12.4188  -27.6054 H   0  0  0  0  0  0  0  0  0  0  0  0
   16.4612  -10.6806  -28.9053 H   0  0  0  0  0  0  0  0  0  0  0  0
   15.8231  -10.0097  -31.2110 H   0  0  0  0  0  0  0  0  0  0  0  0
   13.6498  -10.9246  -32.2998 H   0  0  0  0  0  0  0  0  0  0  0  0
   12.2259  -12.5430  -31.0649 H   0  0  0  0  0  0  0  0  0  0  0  0
 32 31  2  0
 32 33  1  0
 31 30  1  0
 33 28  2  0
 30 29  2  0
 28 29  1  0
 28 27  1  0
 27 26  1  0
 24 23  2  0
 24 25  1  0
 26 25  2  0
 26 19  1  0
 23 22  1  0
 25 20  1  0
 19 18  2  0
 22 21  2  0
 18 17  1  0
 20 21  1  0
 20 17  2  0
 17 16  1  0
 16 13  1  0
 16 15  1  0
 13 12  1  0
 15 14  1  0
 12 11  1  0
 14 11  1  0
 11 10  1  0
 10  9  2  0
 10  7  1  0
  9  8  1  0
  7  6  2  0
  8  5  2  0
  6  5  1  0
  5  2  1  0
  2  3  1  0
  2  4  1  0
  2  1  1  0
  1 34  1  0
  1 35  1  0
  1 36  1  0
  3 37  1  0
  3 38  1  0
  3 39  1  0
  4 40  1  0
  6 41  1  0
  8 42  1  0
  9 43  1  0
 12 44  1  0
 12 45  1  0
 13 46  1  0
 13 47  1  0
 14 48  1  0
 14 49  1  0
 15 50  1  0
 15 51  1  0
 21 52  1  0
 22 53  1  0
 23 54  1  0
 24 55  1  0
 27 56  1  0
 27 57  1  0
 29 58  1  0
 30 59  1  0
 31 60  1  0
 32 61  1  0
 33 62  1  0
A    1
C12
A    2
C11
A    3
C13
A    4
O1
A    5
C2
A    6
C3
A    7
N1
A    8
C1
A    9
C5
A   10
C4
A   11
N2
A   12
C9
A   13
C8
A   14
C6
A   15
C7
A   16
N3
A   17
C10
A   18
N5
A   19
N4
A   20
C14
A   21
C17
A   22
C18
A   23
C19
A   24
C20
A   25
C15
A   26
C16
A   27
C21
A   28
C22
A   29
C23
A   30
C24
A   31
C25
A   32
C26
A   33
C27
M  END
