1H0J_SDS_A_1061
     RDKit          3D

 43 42  0  0  0  0  0  0  0  0999 V2000
   22.1980   28.4930   33.9300 S   0  0  0  0  0  0  0  0  0  0  0  0
   20.7810   28.3710   34.3200 O   0  0  0  0  0  0  0  0  0  0  0  0
   22.3440   29.6040   32.9640 O   0  0  0  0  0  0  0  0  0  0  0  0
   23.0150   28.7550   35.1340 O   0  0  0  0  0  0  0  0  0  0  0  0
   22.6400   27.2390   33.3060 O   0  0  0  0  0  0  0  0  0  0  0  0
   22.1570   30.8230   33.0130 C   0  0  0  0  0  0  0  0  0  0  0  0
   27.9950   37.2400   27.7890 C   0  0  0  0  0  0  0  0  0  0  0  0
   27.7280   37.6020   29.2220 C   0  0  0  0  0  0  0  0  0  0  0  0
   28.8430   37.0910   30.1220 C   0  0  0  0  0  0  0  0  0  0  0  0
   28.2960   37.3250   31.5380 C   0  0  0  0  0  0  0  0  0  0  0  0
   28.5930   35.9910   32.2410 C   0  0  0  0  0  0  0  0  0  0  0  0
   27.2200   35.6040   32.8340 C   0  0  0  0  0  0  0  0  0  0  0  0
   27.0430   34.1030   32.6110 C   0  0  0  0  0  0  0  0  0  0  0  0
   25.7910   33.8220   31.7890 C   0  0  0  0  0  0  0  0  0  0  0  0
   25.2580   32.4230   32.0690 C   0  0  0  0  0  0  0  0  0  0  0  0
   23.7290   32.5010   32.0420 C   0  0  0  0  0  0  0  0  0  0  0  0
   23.1600   31.9300   33.3350 C   0  0  0  0  0  0  0  0  0  0  0  0
   22.4735   28.5814   35.9444 H   0  0  0  0  0  0  0  0  0  0  0  0
   21.7713   31.0826   32.0161 H   0  0  0  0  0  0  0  0  0  0  0  0
   21.5764   30.8576   33.9467 H   0  0  0  0  0  0  0  0  0  0  0  0
   28.6475   36.3553   27.7498 H   0  0  0  0  0  0  0  0  0  0  0  0
   27.0437   37.0167   27.2839 H   0  0  0  0  0  0  0  0  0  0  0  0
   28.4893   38.0829   27.2839 H   0  0  0  0  0  0  0  0  0  0  0  0
   27.6640   38.6964   29.3121 H   0  0  0  0  0  0  0  0  0  0  0  0
   26.7808   37.1376   29.5337 H   0  0  0  0  0  0  0  0  0  0  0  0
   29.0323   36.0219   29.9452 H   0  0  0  0  0  0  0  0  0  0  0  0
   29.8032   37.5974   29.9444 H   0  0  0  0  0  0  0  0  0  0  0  0
   28.8176   38.1581   32.0318 H   0  0  0  0  0  0  0  0  0  0  0  0
   27.2307   37.5987   31.5542 H   0  0  0  0  0  0  0  0  0  0  0  0
   28.9423   35.2340   31.5234 H   0  0  0  0  0  0  0  0  0  0  0  0
   29.3889   36.0646   32.9968 H   0  0  0  0  0  0  0  0  0  0  0  0
   27.1958   35.8313   33.9100 H   0  0  0  0  0  0  0  0  0  0  0  0
   26.4104   36.1704   32.3506 H   0  0  0  0  0  0  0  0  0  0  0  0
   27.9210   33.7119   32.0760 H   0  0  0  0  0  0  0  0  0  0  0  0
   26.9402   33.6109   33.5894 H   0  0  0  0  0  0  0  0  0  0  0  0
   25.0176   34.5602   32.0475 H   0  0  0  0  0  0  0  0  0  0  0  0
   26.0488   33.8922   30.7219 H   0  0  0  0  0  0  0  0  0  0  0  0
   25.6124   31.7242   31.2969 H   0  0  0  0  0  0  0  0  0  0  0  0
   25.6110   32.0615   33.0461 H   0  0  0  0  0  0  0  0  0  0  0  0
   23.4187   33.5513   31.9390 H   0  0  0  0  0  0  0  0  0  0  0  0
   23.3506   31.9174   31.1898 H   0  0  0  0  0  0  0  0  0  0  0  0
   22.6542   32.7295   33.8961 H   0  0  0  0  0  0  0  0  0  0  0  0
   23.9789   31.5142   33.9404 H   0  0  0  0  0  0  0  0  0  0  0  0
  1  2  2  0
  1  3  1  0
  1  4  1  0
  1  5  2  0
  3  6  1  0
  6 17  1  0
  7  8  1  0
  8  9  1  0
  9 10  1  0
 10 11  1  0
 11 12  1  0
 12 13  1  0
 13 14  1  0
 14 15  1  0
 15 16  1  0
 16 17  1  0
  4 18  1  0
  6 19  1  0
  6 20  1  0
  7 21  1  0
  7 22  1  0
  7 23  1  0
  8 24  1  0
  8 25  1  0
  9 26  1  0
  9 27  1  0
 10 28  1  0
 10 29  1  0
 11 30  1  0
 11 31  1  0
 12 32  1  0
 12 33  1  0
 13 34  1  0
 13 35  1  0
 14 36  1  0
 14 37  1  0
 15 38  1  0
 15 39  1  0
 16 40  1  0
 16 41  1  0
 17 42  1  0
 17 43  1  0
A    1
S
A    2
O1S
A    3
O2S
A    4
O3S
A    5
O4
A    6
C1
A    7
C2
A    8
C3
A    9
C4
A   10
C5
A   11
C6
A   12
C7
A   13
C8
A   14
C9
A   15
C10
A   16
C11
A   17
C12
M  END
