4QJ1_N09_A_502
     RDKit          3D

 41 44  0  0  0  0  0  0  0  0999 V2000
   30.6420   -2.1880  -12.4630 O   0  0  0  0  0  0  0  0  0  0  0  0
   29.8570   -1.4120  -11.8810 C   0  0  0  0  0  0  0  0  0  0  0  0
   29.8550    0.0350  -12.2200 C   0  0  0  0  0  0  0  0  0  0  0  0
   30.5970    0.8460  -13.1410 C   0  0  0  0  0  0  0  0  0  0  0  0
   30.1050    2.1060  -12.9600 N   0  0  0  0  0  0  0  0  0  0  0  0
   28.9860   -1.8730  -10.9150 O   0  0  0  0  0  0  0  0  0  0  0  0
   28.1050   -1.0400  -10.2480 C   0  0  0  0  0  0  0  0  0  0  0  0
   27.2540   -1.5950   -9.2930 C   0  0  0  0  0  0  0  0  0  0  0  0
   26.3450   -0.8000   -8.6010 C   0  0  0  0  0  0  0  0  0  0  0  0
   26.2850    0.5610   -8.8530 C   0  0  0  0  0  0  0  0  0  0  0  0
   27.1280    1.1230   -9.8070 C   0  0  0  0  0  0  0  0  0  0  0  0
   28.0420    0.3360  -10.5080 C   0  0  0  0  0  0  0  0  0  0  0  0
   28.9010    0.8650  -11.4790 C   0  0  0  0  0  0  0  0  0  0  0  0
   29.1000    2.1030  -11.9630 N   0  0  0  0  0  0  0  0  0  0  0  0
   28.5120    3.4250  -11.7140 C   0  0  0  0  0  0  0  0  0  0  0  0
   27.1240    3.3750  -12.2990 C   0  0  0  0  0  0  0  0  0  0  0  0
   26.9120    2.5070  -13.1390 O   0  0  0  0  0  0  0  0  0  0  0  0
   26.2390    4.2760  -11.8450 N   0  0  0  0  0  0  0  0  0  0  0  0
   25.0400    4.5140  -12.4270 C   0  0  0  0  0  0  0  0  0  0  0  0
   24.0310    5.0940  -11.6830 C   0  0  0  0  0  0  0  0  0  0  0  0
   22.7810    5.3660  -12.2430 C   0  0  0  0  0  0  0  0  0  0  0  0
   24.8080    4.2240  -13.7650 C   0  0  0  0  0  0  0  0  0  0  0  0
   23.5870    4.4690  -14.3650 C   0  0  0  0  0  0  0  0  0  0  0  0
   22.5030    5.0800  -13.5660 C   0  0  0  0  0  0  0  0  0  0  0  0
   20.8800    5.4530  -14.2600 Cl  0  0  0  0  0  0  0  0  0  0  0  0
   23.4340    4.1490  -15.6850 O   0  0  0  0  0  0  0  0  0  0  0  0
   24.4590    4.5440  -16.6000 C   0  0  0  0  0  0  0  0  0  0  0  0
   31.3857    0.5246  -13.8371 H   0  0  0  0  0  0  0  0  0  0  0  0
   27.3016   -2.6739   -9.0840 H   0  0  0  0  0  0  0  0  0  0  0  0
   25.6749   -1.2518   -7.8548 H   0  0  0  0  0  0  0  0  0  0  0  0
   25.5744    1.1943   -8.3016 H   0  0  0  0  0  0  0  0  0  0  0  0
   27.0729    2.2025  -10.0111 H   0  0  0  0  0  0  0  0  0  0  0  0
   29.1072    4.2078  -12.2069 H   0  0  0  0  0  0  0  0  0  0  0  0
   28.4900    3.6620  -10.6401 H   0  0  0  0  0  0  0  0  0  0  0  0
   26.4864    4.8180  -11.0048 H   0  0  0  0  0  0  0  0  0  0  0  0
   24.2158    5.3466  -10.6285 H   0  0  0  0  0  0  0  0  0  0  0  0
   21.9989    5.8188  -11.6159 H   0  0  0  0  0  0  0  0  0  0  0  0
   25.6195    3.7865  -14.3650 H   0  0  0  0  0  0  0  0  0  0  0  0
   25.3412    4.8840  -16.0378 H   0  0  0  0  0  0  0  0  0  0  0  0
   24.7352    3.6879  -17.2331 H   0  0  0  0  0  0  0  0  0  0  0  0
   24.0892    5.3640  -17.2331 H   0  0  0  0  0  0  0  0  0  0  0  0
 25 24  1  0
 21 24  1  0
 21 20  2  0
 24 23  2  0
 20 19  1  0
 23 26  1  0
 23 22  1  0
 19 22  2  0
 19 18  1  0
 26 27  1  0
 18 16  1  0
 16 15  1  0
 16 17  2  0
 15 14  1  0
  5 14  1  0
  5  4  2  0
 14 13  1  0
 11 10  2  0
 11 12  1  0
  4  3  1  0
 13 12  1  0
 13  3  2  0
 10  9  1  0
 12  7  2  0
  3  2  1  0
  9  8  2  0
  7  8  1  0
  7  6  1  0
  2  6  1  0
  2  1  2  0
  4 28  1  0
  8 29  1  0
  9 30  1  0
 10 31  1  0
 11 32  1  0
 15 33  1  0
 15 34  1  0
 18 35  1  0
 20 36  1  0
 21 37  1  0
 22 38  1  0
 27 39  1  0
 27 40  1  0
 27 41  1  0
A    1
O4
A    2
C22
A    3
C17
A    4
C16
A    5
N3
A    6
O3
A    7
C20
A    8
C26
A    9
C25
A   10
C24
A   11
C23
A   12
C19
A   13
C18
A   14
N2
A   15
C13
A   16
C11
A   17
O2
A   18
N1
A   19
C4
A   20
C3
A   21
C2
A   22
C5
A   23
C6
A   24
C1
A   25
CL
A   26
O1
A   27
C8
M  END
