4QK4_PIK_A_501
     RDKit          3D

144144  0  0  0  0  0  0  0  0999 V2000
  -24.0350   46.5740  -12.0170 P   0  0  0  0  0  0  0  0  0  0  0  0
  -25.4230   46.0680  -12.3060 O   0  0  0  0  0  0  0  0  0  0  0  0
  -23.5910   46.0710  -10.6700 O   0  0  0  0  0  0  0  0  0  0  0  0
  -23.0430   46.0440  -13.1440 O   0  0  0  0  0  0  0  0  0  0  0  0
  -18.7310   37.0300   -3.9890 C   0  0  0  0  0  0  0  0  0  0  0  0
  -18.2260   38.0480   -4.9800 C   0  0  0  0  0  0  0  0  0  0  0  0
  -18.5310   37.6150   -6.4440 C   0  0  0  0  0  0  0  0  0  0  0  0
  -19.4380   38.6210   -7.1590 C   0  0  0  0  0  0  0  0  0  0  0  0
  -20.7880   37.9550   -7.6280 C   0  0  0  0  0  0  0  0  0  0  0  0
  -22.0080   38.8520   -7.3720 C   0  0  0  0  0  0  0  0  0  0  0  0
  -23.2400   38.0530   -6.9180 C   0  0  0  0  0  0  0  0  0  0  0  0
  -24.3760   38.0780   -7.9420 C   0  0  0  0  0  0  0  0  0  0  0  0
  -23.8930   37.8280   -9.3820 C   0  0  0  0  0  0  0  0  0  0  0  0
  -25.0150   37.3090  -10.2940 C   0  0  0  0  0  0  0  0  0  0  0  0
  -24.5040   36.9540  -11.7230 C   0  0  0  0  0  0  0  0  0  0  0  0
  -24.9920   37.9450  -12.7940 C   0  0  0  0  0  0  0  0  0  0  0  0
  -24.7800   39.4360  -12.3930 C   0  0  0  0  0  0  0  0  0  0  0  0
  -24.5240   40.3500  -13.6240 C   0  0  0  0  0  0  0  0  0  0  0  0
  -23.1200   41.0090  -13.5930 C   0  0  0  0  0  0  0  0  0  0  0  0
  -23.0340   42.2460  -14.5060 C   0  0  0  0  0  0  0  0  0  0  0  0
  -23.8980   42.4210  -15.3520 O   0  0  0  0  0  0  0  0  0  0  0  0
  -21.7480   42.9340  -14.6360 O   0  0  0  0  0  0  0  0  0  0  0  0
  -21.6520   44.2620  -14.0380 C   0  0  0  0  0  0  0  0  0  0  0  0
  -22.9780   44.6240  -13.3450 C   0  0  0  0  0  0  0  0  0  0  0  0
  -25.2820   48.7930  -12.3370 C   0  0  0  0  0  0  0  0  0  0  0  0
  -25.2480   49.3430  -13.7530 C   0  0  0  0  0  0  0  0  0  0  0  0
  -26.6120   49.8980  -14.0910 C   0  0  0  0  0  0  0  0  0  0  0  0
  -27.0000   50.9910  -13.0990 C   0  0  0  0  0  0  0  0  0  0  0  0
  -26.9990   50.4470  -11.6810 C   0  0  0  0  0  0  0  0  0  0  0  0
  -25.6230   49.9010  -11.3540 C   0  0  0  0  0  0  0  0  0  0  0  0
  -24.0520   48.1580  -12.0210 O   0  0  0  0  0  0  0  0  0  0  0  0
  -24.3130   50.3860  -13.8080 O   0  0  0  0  0  0  0  0  0  0  0  0
  -26.6330   50.3890  -15.4290 O   0  0  0  0  0  0  0  0  0  0  0  0
  -28.2650   51.5400  -13.4430 O   0  0  0  0  0  0  0  0  0  0  0  0
  -27.3550   51.4310  -10.7830 O   0  0  0  0  0  0  0  0  0  0  0  0
  -25.5730   49.4210   -9.9970 O   0  0  0  0  0  0  0  0  0  0  0  0
  -28.3320   53.0380  -13.8530 P   0  0  0  0  0  0  0  0  0  0  0  0
  -27.7990   53.1930  -15.2530 O   0  0  0  0  0  0  0  0  0  0  0  0
  -29.7630   53.5090  -13.8050 O   0  0  0  0  0  0  0  0  0  0  0  0
  -27.4960   53.8600  -12.8990 O   0  0  0  0  0  0  0  0  0  0  0  0
  -28.3270   51.0520   -9.5930 P   0  0  0  0  0  0  0  0  0  0  0  0
  -27.5230   50.8130   -8.3440 O   0  0  0  0  0  0  0  0  0  0  0  0
  -29.3010   52.1880   -9.3540 O   0  0  0  0  0  0  0  0  0  0  0  0
  -29.0920   49.7960   -9.9470 O   0  0  0  0  0  0  0  0  0  0  0  0
  -21.2080   45.2750  -15.1150 C   0  0  0  0  0  0  0  0  0  0  0  0
  -20.1820   44.6590  -15.9420 O   0  0  0  0  0  0  0  0  0  0  0  0
  -18.9460   44.3120  -15.2660 C   0  0  0  0  0  0  0  0  0  0  0  0
  -18.5950   44.9260  -14.2620 O   0  0  0  0  0  0  0  0  0  0  0  0
  -17.9230   43.3730  -15.9750 C   0  0  0  0  0  0  0  0  0  0  0  0
  -18.3040   41.8930  -15.8530 C   0  0  0  0  0  0  0  0  0  0  0  0
  -18.6140   41.4660  -14.4200 C   0  0  0  0  0  0  0  0  0  0  0  0
  -18.9910   39.9850  -14.3460 C   0  0  0  0  0  0  0  0  0  0  0  0
  -18.6560   39.3510  -13.0080 C   0  0  0  0  0  0  0  0  0  0  0  0
  -19.6810   38.2560  -12.6150 C   0  0  0  0  0  0  0  0  0  0  0  0
  -19.2220   37.4330  -11.4020 C   0  0  0  0  0  0  0  0  0  0  0  0
  -19.8240   36.0080  -11.4040 C   0  0  0  0  0  0  0  0  0  0  0  0
  -19.8190   35.3620  -10.0190 C   0  0  0  0  0  0  0  0  0  0  0  0
  -20.5400   34.0160  -10.0200 C   0  0  0  0  0  0  0  0  0  0  0  0
  -20.9350   33.5610   -8.6030 C   0  0  0  0  0  0  0  0  0  0  0  0
  -21.9630   34.4920   -7.9800 C   0  0  0  0  0  0  0  0  0  0  0  0
  -22.8890   33.7670   -6.9890 C   0  0  0  0  0  0  0  0  0  0  0  0
  -23.3570   34.6670   -5.8520 C   0  0  0  0  0  0  0  0  0  0  0  0
  -24.3060   33.9530   -4.9000 C   0  0  0  0  0  0  0  0  0  0  0  0
  -24.0465   46.5871   -9.9585 H   0  0  0  0  0  0  0  0  0  0  0  0
  -18.5509   37.3931   -2.9664 H   0  0  0  0  0  0  0  0  0  0  0  0
  -19.8099   36.8763   -4.1388 H   0  0  0  0  0  0  0  0  0  0  0  0
  -18.2007   36.0780   -4.1388 H   0  0  0  0  0  0  0  0  0  0  0  0
  -17.1382   38.1571   -4.8582 H   0  0  0  0  0  0  0  0  0  0  0  0
  -18.7378   39.0024   -4.7874 H   0  0  0  0  0  0  0  0  0  0  0  0
  -19.0297   36.6347   -6.4285 H   0  0  0  0  0  0  0  0  0  0  0  0
  -17.5779   37.5659   -6.9910 H   0  0  0  0  0  0  0  0  0  0  0  0
  -18.9095   39.0149   -8.0397 H   0  0  0  0  0  0  0  0  0  0  0  0
  -19.6803   39.4284   -6.4523 H   0  0  0  0  0  0  0  0  0  0  0  0
  -20.9239   37.0105   -7.0807 H   0  0  0  0  0  0  0  0  0  0  0  0
  -20.7184   37.7882   -8.7130 H   0  0  0  0  0  0  0  0  0  0  0  0
  -21.7520   39.5810   -6.5891 H   0  0  0  0  0  0  0  0  0  0  0  0
  -22.2623   39.3494   -8.3196 H   0  0  0  0  0  0  0  0  0  0  0  0
  -23.6084   38.4820   -5.9745 H   0  0  0  0  0  0  0  0  0  0  0  0
  -22.9277   37.0052   -6.7969 H   0  0  0  0  0  0  0  0  0  0  0  0
  -24.8627   39.0636   -7.9016 H   0  0  0  0  0  0  0  0  0  0  0  0
  -25.0711   37.2660   -7.6823 H   0  0  0  0  0  0  0  0  0  0  0  0
  -23.0836   37.0834   -9.3589 H   0  0  0  0  0  0  0  0  0  0  0  0
  -23.5456   38.7883   -9.7908 H   0  0  0  0  0  0  0  0  0  0  0  0
  -25.7890   38.0860  -10.3787 H   0  0  0  0  0  0  0  0  0  0  0  0
  -25.4147   36.3888   -9.8429 H   0  0  0  0  0  0  0  0  0  0  0  0
  -24.8637   35.9480  -11.9850 H   0  0  0  0  0  0  0  0  0  0  0  0
  -23.4052   37.0022  -11.7033 H   0  0  0  0  0  0  0  0  0  0  0  0
  -26.0661   37.7774  -12.9618 H   0  0  0  0  0  0  0  0  0  0  0  0
  -24.3986   37.7632  -13.7022 H   0  0  0  0  0  0  0  0  0  0  0  0
  -23.9133   39.5007  -11.7187 H   0  0  0  0  0  0  0  0  0  0  0  0
  -25.7000   39.7852  -11.9015 H   0  0  0  0  0  0  0  0  0  0  0  0
  -25.2858   41.1434  -13.6388 H   0  0  0  0  0  0  0  0  0  0  0  0
  -24.5779   39.7206  -14.5245 H   0  0  0  0  0  0  0  0  0  0  0  0
  -22.3755   40.2710  -13.9264 H   0  0  0  0  0  0  0  0  0  0  0  0
  -22.9258   41.3383  -12.5616 H   0  0  0  0  0  0  0  0  0  0  0  0
  -20.8850   44.2842  -13.2499 H   0  0  0  0  0  0  0  0  0  0  0  0
  -23.8203   44.3044  -13.9761 H   0  0  0  0  0  0  0  0  0  0  0  0
  -23.0334   44.1139  -12.3720 H   0  0  0  0  0  0  0  0  0  0  0  0
  -26.0702   48.0293  -12.2627 H   0  0  0  0  0  0  0  0  0  0  0  0
  -24.9742   48.5482  -14.4625 H   0  0  0  0  0  0  0  0  0  0  0  0
  -27.3524   49.0881  -14.0151 H   0  0  0  0  0  0  0  0  0  0  0  0
  -26.2546   51.7985  -13.1478 H   0  0  0  0  0  0  0  0  0  0  0  0
  -27.7383   49.6361  -11.6050 H   0  0  0  0  0  0  0  0  0  0  0  0
  -24.8792   50.7062  -11.4455 H   0  0  0  0  0  0  0  0  0  0  0  0
  -24.0685   50.6588  -12.8883 H   0  0  0  0  0  0  0  0  0  0  0  0
  -26.6753   51.3780  -15.4170 H   0  0  0  0  0  0  0  0  0  0  0  0
  -25.6527   50.1857   -9.3733 H   0  0  0  0  0  0  0  0  0  0  0  0
  -30.0481   53.6028  -12.8616 H   0  0  0  0  0  0  0  0  0  0  0  0
  -27.7335   53.6264  -11.9667 H   0  0  0  0  0  0  0  0  0  0  0  0
  -28.0894   50.9814   -7.5497 H   0  0  0  0  0  0  0  0  0  0  0  0
  -29.4173   52.3236   -8.3803 H   0  0  0  0  0  0  0  0  0  0  0  0
  -20.8017   46.1753  -14.6309 H   0  0  0  0  0  0  0  0  0  0  0  0
  -22.0688   45.5606  -15.7375 H   0  0  0  0  0  0  0  0  0  0  0  0
  -16.9329   43.5214  -15.5192 H   0  0  0  0  0  0  0  0  0  0  0  0
  -17.9178   43.6303  -17.0445 H   0  0  0  0  0  0  0  0  0  0  0  0
  -19.1942   41.7093  -16.4725 H   0  0  0  0  0  0  0  0  0  0  0  0
  -17.4374   41.3044  -16.1884 H   0  0  0  0  0  0  0  0  0  0  0  0
  -17.7259   41.6406  -13.7948 H   0  0  0  0  0  0  0  0  0  0  0  0
  -19.4683   42.0583  -14.0603 H   0  0  0  0  0  0  0  0  0  0  0  0
  -20.0735   39.8904  -14.5169 H   0  0  0  0  0  0  0  0  0  0  0  0
  -18.4051   39.4588  -15.1140 H   0  0  0  0  0  0  0  0  0  0  0  0
  -17.6562   38.8966  -13.0701 H   0  0  0  0  0  0  0  0  0  0  0  0
  -18.6865   40.1382  -12.2403 H   0  0  0  0  0  0  0  0  0  0  0  0
  -20.6387   38.7394  -12.3720 H   0  0  0  0  0  0  0  0  0  0  0  0
  -19.7815   37.5688  -13.4681 H   0  0  0  0  0  0  0  0  0  0  0  0
  -18.1250   37.3546  -11.4212 H   0  0  0  0  0  0  0  0  0  0  0  0
  -19.5697   37.9463  -10.4933 H   0  0  0  0  0  0  0  0  0  0  0  0
  -20.8627   36.0656  -11.7614 H   0  0  0  0  0  0  0  0  0  0  0  0
  -19.2003   35.3855  -12.0625 H   0  0  0  0  0  0  0  0  0  0  0  0
  -18.7772   35.2079   -9.7015 H   0  0  0  0  0  0  0  0  0  0  0  0
  -20.3476   36.0332   -9.3261 H   0  0  0  0  0  0  0  0  0  0  0  0
  -21.4513   34.1038  -10.6298 H   0  0  0  0  0  0  0  0  0  0  0  0
  -19.8496   33.2658  -10.4330 H   0  0  0  0  0  0  0  0  0  0  0  0
  -21.3594   32.5477   -8.6592 H   0  0  0  0  0  0  0  0  0  0  0  0
  -20.0328   33.5759   -7.9739 H   0  0  0  0  0  0  0  0  0  0  0  0
  -21.4340   35.2950   -7.4459 H   0  0  0  0  0  0  0  0  0  0  0  0
  -22.5887   34.8908   -8.7920 H   0  0  0  0  0  0  0  0  0  0  0  0
  -23.7717   33.4026   -7.5349 H   0  0  0  0  0  0  0  0  0  0  0  0
  -22.3154   32.9410   -6.5431 H   0  0  0  0  0  0  0  0  0  0  0  0
  -22.4775   35.0066   -5.2854 H   0  0  0  0  0  0  0  0  0  0  0  0
  -23.9015   35.5132   -6.2964 H   0  0  0  0  0  0  0  0  0  0  0  0
  -24.0163   34.1710   -3.8615 H   0  0  0  0  0  0  0  0  0  0  0  0
  -25.3338   34.3037   -5.0753 H   0  0  0  0  0  0  0  0  0  0  0  0
  -24.2538   32.8683   -5.0753 H   0  0  0  0  0  0  0  0  0  0  0  0
 49 50  1  0
 49 47  1  0
 46 47  1  0
 46 45  1  0
 50 51  1  0
 33 27  1  0
 21 20  2  0
 47 48  2  0
 38 37  2  0
 45 23  1  0
 22 20  1  0
 22 23  1  0
 20 19  1  0
 51 52  1  0
 52 53  1  0
 27 26  1  0
 27 28  1  0
 23 24  1  0
 37 39  1  0
 37 34  1  0
 37 40  1  0
 32 26  1  0
 26 25  1  0
 18 19  1  0
 18 17  1  0
 34 28  1  0
 24  4  1  0
  4  1  1  0
 28 29  1  0
 53 54  1  0
 16 17  1  0
 16 15  1  0
 54 55  1  0
 25 31  1  0
 25 30  1  0
  2  1  2  0
 31  1  1  0
  1  3  1  0
 15 14  1  0
 29 30  1  0
 29 35  1  0
 56 55  1  0
 56 57  1  0
 30 36  1  0
 35 41  1  0
 14 13  1  0
 58 57  1  0
 58 59  1  0
 44 41  2  0
 41 43  1  0
 41 42  1  0
 13 12  1  0
 59 60  1  0
 60 61  1  0
 12 11  1  0
  9 10  1  0
  9  8  1  0
 10 11  1  0
  8  7  1  0
 61 62  1  0
  7  6  1  0
 62 63  1  0
  6  5  1  0
  3 64  1  0
  5 65  1  0
  5 66  1  0
  5 67  1  0
  6 68  1  0
  6 69  1  0
  7 70  1  0
  7 71  1  0
  8 72  1  0
  8 73  1  0
  9 74  1  0
  9 75  1  0
 10 76  1  0
 10 77  1  0
 11 78  1  0
 11 79  1  0
 12 80  1  0
 12 81  1  0
 13 82  1  0
 13 83  1  0
 14 84  1  0
 14 85  1  0
 15 86  1  0
 15 87  1  0
 16 88  1  0
 16 89  1  0
 17 90  1  0
 17 91  1  0
 18 92  1  0
 18 93  1  0
 19 94  1  0
 19 95  1  0
 23 96  1  0
 24 97  1  0
 24 98  1  0
 25 99  1  0
 26100  1  0
 27101  1  0
 28102  1  0
 29103  1  0
 30104  1  0
 32105  1  0
 33106  1  0
 36107  1  0
 39108  1  0
 40109  1  0
 42110  1  0
 43111  1  0
 45112  1  0
 45113  1  0
 49114  1  0
 49115  1  0
 50116  1  0
 50117  1  0
 51118  1  0
 51119  1  0
 52120  1  0
 52121  1  0
 53122  1  0
 53123  1  0
 54124  1  0
 54125  1  0
 55126  1  0
 55127  1  0
 56128  1  0
 56129  1  0
 57130  1  0
 57131  1  0
 58132  1  0
 58133  1  0
 59134  1  0
 59135  1  0
 60136  1  0
 60137  1  0
 61138  1  0
 61139  1  0
 62140  1  0
 62141  1  0
 63142  1  0
 63143  1  0
 63144  1  0
A    1
P1
A    2
O11
A    3
O12
A    4
O13
A    5
CBG
A    6
CBF
A    7
CBE
A    8
CBD
A    9
CBC
A   10
CBB
A   11
CBA
A   12
CB9
A   13
CB8
A   14
CB7
A   15
CB6
A   16
CB5
A   17
CB4
A   18
CB3
A   19
CB2
A   20
CB1
A   21
OB2
A   22
OB1
A   23
C8
A   24
C7
A   25
C1
A   26
C2
A   27
C3
A   28
C4
A   29
C5
A   30
C6
A   31
O1
A   32
O2
A   33
O3
A   34
O4
A   35
O5
A   36
O6
A   37
P4
A   38
O41
A   39
O42
A   40
O43
A   41
P5
A   42
O51
A   43
O52
A   44
O53
A   45
C9
A   46
OA1
A   47
CA1
A   48
OA2
A   49
CA2
A   50
CA3
A   51
CA4
A   52
CA5
A   53
CA6
A   54
CA7
A   55
CA8
A   56
CA9
A   57
CAA
A   58
CAB
A   59
CAC
A   60
CAD
A   61
CAE
A   62
CAF
A   63
CAG
M  END
