1RQ5_CTT_A_820
     RDKit          3D

 87 90  0  0  0  0  0  0  0  0999 V2000
   63.6160   11.7070  -75.1400 O   0  0  0  0  0  0  0  0  0  0  0  0
   62.5310   10.9800  -75.6390 C   0  0  0  0  0  0  0  0  0  0  0  0
   61.3230   11.1830  -74.6620 C   0  0  0  0  0  0  0  0  0  0  0  0
   61.0930   12.5770  -74.4740 O   0  0  0  0  0  0  0  0  0  0  0  0
   61.5390   10.5090  -73.2730 C   0  0  0  0  0  0  0  0  0  0  0  0
   60.3640   10.6390  -72.4850 O   0  0  0  0  0  0  0  0  0  0  0  0
   62.9690    9.5930  -75.6610 O   0  0  0  0  0  0  0  0  0  0  0  0
   63.1220    8.9230  -74.3230 C   0  0  0  0  0  0  0  0  0  0  0  0
   63.5570    7.4990  -74.6150 C   0  0  0  0  0  0  0  0  0  0  0  0
   62.6520    6.8400  -75.5180 O   0  0  0  0  0  0  0  0  0  0  0  0
   61.8340    9.0190  -73.4540 C   0  0  0  0  0  0  0  0  0  0  0  0
   62.0430    8.4040  -72.1430 O   0  0  0  0  0  0  0  0  0  0  0  0
   61.1630    7.4070  -71.6840 C   0  0  0  0  0  0  0  0  0  0  0  0
   61.9730    6.2840  -71.0560 C   0  0  0  0  0  0  0  0  0  0  0  0
   62.8320    5.7730  -72.0470 O   0  0  0  0  0  0  0  0  0  0  0  0
   61.0590    5.1870  -70.5120 C   0  0  0  0  0  0  0  0  0  0  0  0
   61.8700    4.1660  -69.9520 O   0  0  0  0  0  0  0  0  0  0  0  0
   60.2310    7.9550  -70.7110 O   0  0  0  0  0  0  0  0  0  0  0  0
   59.3090    6.9450  -70.1400 C   0  0  0  0  0  0  0  0  0  0  0  0
   58.3670    7.6560  -69.1890 C   0  0  0  0  0  0  0  0  0  0  0  0
   58.0150    8.9500  -69.6530 O   0  0  0  0  0  0  0  0  0  0  0  0
   60.1450    5.8180  -69.4390 C   0  0  0  0  0  0  0  0  0  0  0  0
   59.2670    4.8050  -68.8570 O   0  0  0  0  0  0  0  0  0  0  0  0
   59.9420    4.3500  -67.5260 C   0  0  0  0  0  0  0  0  0  0  0  0
   59.4250    5.3170  -66.4190 C   0  0  0  0  0  0  0  0  0  0  0  0
   60.5330    5.9330  -65.8070 O   0  0  0  0  0  0  0  0  0  0  0  0
   58.8380    4.5120  -65.2620 C   0  0  0  0  0  0  0  0  0  0  0  0
   58.2040    5.3160  -64.3460 O   0  0  0  0  0  0  0  0  0  0  0  0
   59.4810    2.9420  -67.3950 O   0  0  0  0  0  0  0  0  0  0  0  0
   58.7280    2.4640  -66.2180 C   0  0  0  0  0  0  0  0  0  0  0  0
   58.1160    1.1360  -66.6250 C   0  0  0  0  0  0  0  0  0  0  0  0
   56.9440    1.2920  -67.4110 O   0  0  0  0  0  0  0  0  0  0  0  0
   57.7240    3.5190  -65.7060 C   0  0  0  0  0  0  0  0  0  0  0  0
   56.9460    3.0320  -64.5710 O   0  0  0  0  0  0  0  0  0  0  0  0
   55.5480    3.1370  -64.7680 C   0  0  0  0  0  0  0  0  0  0  0  0
   54.7900    2.1510  -63.8520 C   0  0  0  0  0  0  0  0  0  0  0  0
   55.2070    0.8170  -64.1500 O   0  0  0  0  0  0  0  0  0  0  0  0
   53.2880    2.2970  -64.0890 C   0  0  0  0  0  0  0  0  0  0  0  0
   52.5900    1.4050  -63.2430 O   0  0  0  0  0  0  0  0  0  0  0  0
   52.8860    3.7320  -63.7680 C   0  0  0  0  0  0  0  0  0  0  0  0
   51.4830    3.8800  -63.9670 O   0  0  0  0  0  0  0  0  0  0  0  0
   55.1120    4.5160  -64.5180 O   0  0  0  0  0  0  0  0  0  0  0  0
   53.6660    4.6870  -64.7110 C   0  0  0  0  0  0  0  0  0  0  0  0
   53.3280    6.1460  -64.4760 C   0  0  0  0  0  0  0  0  0  0  0  0
   52.1040    6.4880  -65.1350 O   0  0  0  0  0  0  0  0  0  0  0  0
   63.5953   11.6932  -74.1503 H   0  0  0  0  0  0  0  0  0  0  0  0
   62.2125   11.2962  -76.6433 H   0  0  0  0  0  0  0  0  0  0  0  0
   60.4518   10.6984  -75.1270 H   0  0  0  0  0  0  0  0  0  0  0  0
   61.0598   12.7783  -73.5052 H   0  0  0  0  0  0  0  0  0  0  0  0
   62.3862   11.0026  -72.7745 H   0  0  0  0  0  0  0  0  0  0  0  0
   60.6056   10.6123  -71.5253 H   0  0  0  0  0  0  0  0  0  0  0  0
   63.8783    9.4309  -73.7064 H   0  0  0  0  0  0  0  0  0  0  0  0
   64.5598    7.5183  -75.0666 H   0  0  0  0  0  0  0  0  0  0  0  0
   63.5617    6.9411  -73.6670 H   0  0  0  0  0  0  0  0  0  0  0  0
   61.9706    6.3439  -74.9987 H   0  0  0  0  0  0  0  0  0  0  0  0
   61.0013    8.4919  -73.9426 H   0  0  0  0  0  0  0  0  0  0  0  0
   60.5817    7.0175  -72.5328 H   0  0  0  0  0  0  0  0  0  0  0  0
   62.5552    6.6669  -70.2049 H   0  0  0  0  0  0  0  0  0  0  0  0
   63.5982    5.3172  -71.6165 H   0  0  0  0  0  0  0  0  0  0  0  0
   60.4350    4.7474  -71.3041 H   0  0  0  0  0  0  0  0  0  0  0  0
   61.8295    4.2170  -68.9641 H   0  0  0  0  0  0  0  0  0  0  0  0
   58.7056    6.4563  -70.9192 H   0  0  0  0  0  0  0  0  0  0  0  0
   57.4511    7.0562  -69.0828 H   0  0  0  0  0  0  0  0  0  0  0  0
   58.8833    7.7712  -68.2245 H   0  0  0  0  0  0  0  0  0  0  0  0
   57.8530    9.5454  -68.8788 H   0  0  0  0  0  0  0  0  0  0  0  0
   60.7431    6.2410  -68.6184 H   0  0  0  0  0  0  0  0  0  0  0  0
   61.0400    4.3852  -67.4702 H   0  0  0  0  0  0  0  0  0  0  0  0
   58.7099    6.0086  -66.8884 H   0  0  0  0  0  0  0  0  0  0  0  0
   60.4381    5.8802  -64.8230 H   0  0  0  0  0  0  0  0  0  0  0  0
   59.7120    3.9885  -64.8471 H   0  0  0  0  0  0  0  0  0  0  0  0
   58.4371    5.0204  -63.4303 H   0  0  0  0  0  0  0  0  0  0  0  0
   59.3763    2.3064  -65.3434 H   0  0  0  0  0  0  0  0  0  0  0  0
   58.8579    0.5702  -67.2075 H   0  0  0  0  0  0  0  0  0  0  0  0
   57.8313    0.6049  -65.7048 H   0  0  0  0  0  0  0  0  0  0  0  0
   56.1594    1.3964  -66.8164 H   0  0  0  0  0  0  0  0  0  0  0  0
   56.9418    3.8752  -66.3926 H   0  0  0  0  0  0  0  0  0  0  0  0
   55.3172    2.8746  -65.8110 H   0  0  0  0  0  0  0  0  0  0  0  0
   55.0113    2.3710  -62.7972 H   0  0  0  0  0  0  0  0  0  0  0  0
   55.3614    0.3232  -63.3059 H   0  0  0  0  0  0  0  0  0  0  0  0
   53.0429    2.0638  -65.1357 H   0  0  0  0  0  0  0  0  0  0  0  0
   52.7713    1.6367  -62.2977 H   0  0  0  0  0  0  0  0  0  0  0  0
   53.1247    3.9747  -62.7220 H   0  0  0  0  0  0  0  0  0  0  0  0
   51.0284    3.9280  -63.0889 H   0  0  0  0  0  0  0  0  0  0  0  0
   53.3688    4.4222  -65.7365 H   0  0  0  0  0  0  0  0  0  0  0  0
   53.2197    6.3233  -63.3958 H   0  0  0  0  0  0  0  0  0  0  0  0
   54.1380    6.7695  -64.8825 H   0  0  0  0  0  0  0  0  0  0  0  0
   51.4080    6.6825  -64.4583 H   0  0  0  0  0  0  0  0  0  0  0  0
  1  2  1  0
  2  7  1  0
  2  3  1  0
  4  3  1  0
  3  5  1  0
  5 11  1  0
  5  6  1  0
  7  8  1  0
  8 11  1  0
  8  9  1  0
 10  9  1  0
 11 12  1  0
 12 13  1  0
 13 14  1  0
 13 18  1  0
 15 14  1  0
 14 16  1  0
 16 17  1  0
 16 22  1  0
 18 19  1  0
 19 20  1  0
 19 22  1  0
 21 20  1  0
 22 23  1  0
 23 24  1  0
 24 29  1  0
 24 25  1  0
 26 25  1  0
 25 27  1  0
 27 33  1  0
 27 28  1  0
 29 30  1  0
 31 30  1  0
 30 33  1  0
 32 31  1  0
 33 34  1  0
 34 35  1  0
 35 42  1  0
 35 36  1  0
 36 37  1  0
 36 38  1  0
 40 38  1  0
 38 39  1  0
 43 40  1  0
 40 41  1  0
 42 43  1  0
 44 43  1  0
 45 44  1  0
  1 46  1  0
  2 47  1  0
  3 48  1  0
  4 49  1  0
  5 50  1  0
  6 51  1  0
  8 52  1  0
  9 53  1  0
  9 54  1  0
 10 55  1  0
 11 56  1  0
 13 57  1  0
 14 58  1  0
 15 59  1  0
 16 60  1  0
 17 61  1  0
 19 62  1  0
 20 63  1  0
 20 64  1  0
 21 65  1  0
 22 66  1  0
 24 67  1  0
 25 68  1  0
 26 69  1  0
 27 70  1  0
 28 71  1  0
 30 72  1  0
 31 73  1  0
 31 74  1  0
 32 75  1  0
 33 76  1  0
 35 77  1  0
 36 78  1  0
 37 79  1  0
 38 80  1  0
 39 81  1  0
 40 82  1  0
 41 83  1  0
 43 84  1  0
 44 85  1  0
 44 86  1  0
 45 87  1  0
A    1
O1B
A    2
C1B
A    3
C2B
A    4
O2B
A    5
C3B
A    6
O3B
A    7
O5B
A    8
C5B
A    9
C6B
A   10
O6B
A   11
C4B
A   12
O4B
A   13
C1C
A   14
C2C
A   15
O2C
A   16
C3C
A   17
O3C
A   18
O5C
A   19
C5C
A   20
C6C
A   21
O6C
A   22
C4C
A   23
O4C
A   24
C1D
A   25
C2D
A   26
O2D
A   27
C3D
A   28
O3D
A   29
O5D
A   30
C5D
A   31
C6D
A   32
O6D
A   33
C4D
A   34
O4D
A   35
C1E
A   36
C2E
A   37
O2E
A   38
C3E
A   39
O3E
A   40
C4E
A   41
O4E
A   42
O5E
A   43
C5E
A   44
C6E
A   45
O6E
M  END
