4QM0_39K_A_601
     RDKit          3D

 58 60  0  0  0  0  0  0  0  0999 V2000
  -29.6010   -9.2140    3.5050 C   0  0  0  0  0  0  0  0  0  0  0  0
  -30.9590   -9.7680    3.9360 C   0  0  0  0  0  0  0  0  0  0  0  0
  -31.4460  -10.7270    2.8500 C   0  0  0  0  0  0  0  0  0  0  0  0
  -30.8140  -10.5580    5.2390 C   0  0  0  0  0  0  0  0  0  0  0  0
  -31.1190   -9.7770    6.4520 N   0  0  0  0  0  0  0  0  0  0  0  0
  -30.0950   -8.8920    7.0530 C   0  0  0  0  0  0  0  0  0  0  0  0
  -30.2720   -7.4050    6.8180 C   0  0  0  0  0  0  0  0  0  0  0  0
  -31.0510   -6.6030    7.5520 C   0  0  0  0  0  0  0  0  0  0  0  0
  -31.0480   -5.2740    7.1770 C   0  0  0  0  0  0  0  0  0  0  0  0
  -30.2440   -4.9780    6.1320 C   0  0  0  0  0  0  0  0  0  0  0  0
  -29.4590   -6.4460    5.5720 S   0  0  0  0  0  0  0  0  0  0  0  0
  -30.1120   -3.6410    5.5130 C   0  0  0  0  0  0  0  0  0  0  0  0
  -30.1680   -2.4690    6.2660 C   0  0  0  0  0  0  0  0  0  0  0  0
  -30.0690   -1.2450    5.6330 C   0  0  0  0  0  0  0  0  0  0  0  0
  -29.9380   -1.1780    4.2540 C   0  0  0  0  0  0  0  0  0  0  0  0
  -29.8970   -2.3330    3.5020 C   0  0  0  0  0  0  0  0  0  0  0  0
  -29.9850   -3.5620    4.1240 C   0  0  0  0  0  0  0  0  0  0  0  0
  -29.8320    0.3840    3.4650 S   0  0  0  0  0  0  0  0  0  0  0  0
  -31.1770    0.8180    3.3330 O   0  0  0  0  0  0  0  0  0  0  0  0
  -29.0070    0.1900    2.3270 O   0  0  0  0  0  0  0  0  0  0  0  0
  -29.0220    1.3680    4.7200 C   0  0  0  0  0  0  0  0  0  0  0  0
  -32.6060  -10.0010    7.1700 S   0  0  0  0  0  0  0  0  0  0  0  0
  -33.5160   -9.2290    6.4010 O   0  0  0  0  0  0  0  0  0  0  0  0
  -32.3720   -9.6790    8.5300 O   0  0  0  0  0  0  0  0  0  0  0  0
  -32.9250  -11.7840    6.9630 C   0  0  0  0  0  0  0  0  0  0  0  0
  -33.7020  -12.4390    8.0870 C   0  0  0  0  0  0  0  0  0  0  0  0
  -33.1270  -12.6460    9.3300 C   0  0  0  0  0  0  0  0  0  0  0  0
  -33.8360  -13.2580   10.3540 C   0  0  0  0  0  0  0  0  0  0  0  0
  -35.1340  -13.6810   10.1410 C   0  0  0  0  0  0  0  0  0  0  0  0
  -35.7110  -13.4840    8.8990 C   0  0  0  0  0  0  0  0  0  0  0  0
  -34.9990  -12.8730    7.8760 C   0  0  0  0  0  0  0  0  0  0  0  0
  -29.0045   -8.9707    4.3966 H   0  0  0  0  0  0  0  0  0  0  0  0
  -29.0714   -9.9679    2.9041 H   0  0  0  0  0  0  0  0  0  0  0  0
  -29.7499   -8.3047    2.9041 H   0  0  0  0  0  0  0  0  0  0  0  0
  -31.6651   -8.9380    4.0860 H   0  0  0  0  0  0  0  0  0  0  0  0
  -31.8965  -11.6141    3.3193 H   0  0  0  0  0  0  0  0  0  0  0  0
  -32.1968  -10.2219    2.2246 H   0  0  0  0  0  0  0  0  0  0  0  0
  -30.5952  -11.0352    2.2246 H   0  0  0  0  0  0  0  0  0  0  0  0
  -29.7772  -10.9182    5.3114 H   0  0  0  0  0  0  0  0  0  0  0  0
  -31.5459  -11.3781    5.1966 H   0  0  0  0  0  0  0  0  0  0  0  0
  -29.1173   -9.1825    6.6411 H   0  0  0  0  0  0  0  0  0  0  0  0
  -30.1887   -9.0306    8.1402 H   0  0  0  0  0  0  0  0  0  0  0  0
  -31.6516   -6.9757    8.3948 H   0  0  0  0  0  0  0  0  0  0  0  0
  -31.6545   -4.5134    7.6904 H   0  0  0  0  0  0  0  0  0  0  0  0
  -30.2903   -2.5186    7.3581 H   0  0  0  0  0  0  0  0  0  0  0  0
  -30.0942   -0.3188    6.2259 H   0  0  0  0  0  0  0  0  0  0  0  0
  -29.7943   -2.2751    2.4083 H   0  0  0  0  0  0  0  0  0  0  0  0
  -29.9550   -4.4831    3.5235 H   0  0  0  0  0  0  0  0  0  0  0  0
  -29.3184    1.0079    5.7162 H   0  0  0  0  0  0  0  0  0  0  0  0
  -27.9313    1.2798    4.6078 H   0  0  0  0  0  0  0  0  0  0  0  0
  -29.3182    2.4214    4.6078 H   0  0  0  0  0  0  0  0  0  0  0  0
  -31.9546  -12.2950    6.8783 H   0  0  0  0  0  0  0  0  0  0  0  0
  -33.5532  -11.8777    6.0649 H   0  0  0  0  0  0  0  0  0  0  0  0
  -32.0917  -12.3200    9.5083 H   0  0  0  0  0  0  0  0  0  0  0  0
  -33.3641  -13.4065   11.3365 H   0  0  0  0  0  0  0  0  0  0  0  0
  -35.7011  -14.1679   10.9481 H   0  0  0  0  0  0  0  0  0  0  0  0
  -36.7447  -13.8150    8.7204 H   0  0  0  0  0  0  0  0  0  0  0  0
  -35.4687  -12.7329    6.8913 H   0  0  0  0  0  0  0  0  0  0  0  0
 28 29  1  0
 28 27  2  0
 29 30  2  0
 27 26  1  0
 30 31  1  0
 23 22  2  0
 26 31  2  0
 26 25  1  0
  8  9  1  0
  8  7  2  0
 25 22  1  0
  9 10  2  0
 22  5  1  0
 22 24  2  0
  6  7  1  0
  6  5  1  0
  7 11  1  0
  5  4  1  0
 13 14  2  0
 13 12  1  0
 10 12  1  0
 10 11  1  0
 14 15  1  0
 12 17  2  0
  4  2  1  0
 21 18  1  0
 15 16  2  0
 15 18  1  0
 17 16  1  0
  2  1  1  0
  2  3  1  0
 20 18  2  0
 18 19  2  0
  1 32  1  0
  1 33  1  0
  1 34  1  0
  2 35  1  0
  3 36  1  0
  3 37  1  0
  3 38  1  0
  4 39  1  0
  4 40  1  0
  6 41  1  0
  6 42  1  0
  8 43  1  0
  9 44  1  0
 13 45  1  0
 14 46  1  0
 16 47  1  0
 17 48  1  0
 21 49  1  0
 21 50  1  0
 21 51  1  0
 25 52  1  0
 25 53  1  0
 27 54  1  0
 28 55  1  0
 29 56  1  0
 30 57  1  0
 31 58  1  0
A    1
C1
A    2
C2
A    3
C3
A    4
C4
A    5
N5
A    6
C6
A    7
C7
A    8
C8
A    9
C9
A   10
C10
A   11
S11
A   12
C12
A   13
C13
A   14
C14
A   15
C15
A   16
C16
A   17
C17
A   18
S18
A   19
O19
A   20
O20
A   21
C21
A   22
S22
A   23
O23
A   24
O24
A   25
C25
A   26
C26
A   27
C27
A   28
C28
A   29
C29
A   30
C30
A   31
C31
M  END
