4QMM_35R_A_401
     RDKit          3D

 51 55  0  0  0  0  0  0  0  0999 V2000
  124.8160    0.1160   77.4390 O   0  0  0  0  0  0  0  0  0  0  0  0
  125.3470    1.1450   76.9660 C   0  0  0  0  0  0  0  0  0  0  0  0
  125.2400    2.3460   77.5790 N   0  0  0  0  0  0  0  0  0  0  0  0
  125.4320    3.5960   76.9280 C   0  0  0  0  0  0  0  0  0  0  0  0
  126.8780    4.1060   76.7920 C   0  0  0  0  0  0  0  0  0  0  0  0
  125.9360    4.7290   77.8330 C   0  0  0  0  0  0  0  0  0  0  0  0
  126.0700    1.1360   75.8250 N   0  0  0  0  0  0  0  0  0  0  0  0
  126.3070    0.0930   74.9810 C   0  0  0  0  0  0  0  0  0  0  0  0
  125.9290   -1.2410   75.0930 C   0  0  0  0  0  0  0  0  0  0  0  0
  126.3960   -1.8730   74.0070 N   0  0  0  0  0  0  0  0  0  0  0  0
  127.0420   -1.0570   73.2280 N   0  0  0  0  0  0  0  0  0  0  0  0
  127.0320    0.1700   73.7810 C   0  0  0  0  0  0  0  0  0  0  0  0
  127.6330    1.3050   73.1790 C   0  0  0  0  0  0  0  0  0  0  0  0
  128.2850    1.3140   71.9940 N   0  0  0  0  0  0  0  0  0  0  0  0
  128.6930    2.5680   71.7470 C   0  0  0  0  0  0  0  0  0  0  0  0
  129.4100    3.1350   70.6750 C   0  0  0  0  0  0  0  0  0  0  0  0
  129.6960    4.5200   70.7060 C   0  0  0  0  0  0  0  0  0  0  0  0
  129.2860    5.3240   71.8090 C   0  0  0  0  0  0  0  0  0  0  0  0
  129.5760    6.7900   71.8180 C   0  0  0  0  0  0  0  0  0  0  0  0
  130.9990    7.2560   71.9700 N   0  0  0  0  0  0  0  0  0  0  0  0
  131.4160    7.3300   73.4030 C   0  0  0  0  0  0  0  0  0  0  0  0
  132.8760    7.8210   73.5350 C   0  0  0  0  0  0  0  0  0  0  0  0
  133.0330    9.1130   72.9110 O   0  0  0  0  0  0  0  0  0  0  0  0
  132.6680    9.1100   71.5120 C   0  0  0  0  0  0  0  0  0  0  0  0
  131.2280    8.5770   71.2890 C   0  0  0  0  0  0  0  0  0  0  0  0
  128.5620    4.7180   72.8730 C   0  0  0  0  0  0  0  0  0  0  0  0
  128.2780    3.3420   72.8240 C   0  0  0  0  0  0  0  0  0  0  0  0
  127.6200    2.5560   73.6930 N   0  0  0  0  0  0  0  0  0  0  0  0
  125.0043    2.3560   78.5816 H   0  0  0  0  0  0  0  0  0  0  0  0
  124.5993    3.4559   76.2231 H   0  0  0  0  0  0  0  0  0  0  0  0
  127.7173    3.4740   77.1178 H   0  0  0  0  0  0  0  0  0  0  0  0
  127.4919    4.4949   75.9662 H   0  0  0  0  0  0  0  0  0  0  0  0
  126.1017    4.5439   78.9046 H   0  0  0  0  0  0  0  0  0  0  0  0
  125.5968    5.7502   78.0612 H   0  0  0  0  0  0  0  0  0  0  0  0
  126.4977    2.0343   75.5584 H   0  0  0  0  0  0  0  0  0  0  0  0
  125.3557   -1.6917   75.9165 H   0  0  0  0  0  0  0  0  0  0  0  0
  126.2605   -2.8758   73.8146 H   0  0  0  0  0  0  0  0  0  0  0  0
  128.4415    0.4979   71.3854 H   0  0  0  0  0  0  0  0  0  0  0  0
  129.7410    2.5129   69.8304 H   0  0  0  0  0  0  0  0  0  0  0  0
  130.2410    4.9816   69.8694 H   0  0  0  0  0  0  0  0  0  0  0  0
  129.2045    7.1970   70.8660 H   0  0  0  0  0  0  0  0  0  0  0  0
  129.0840    7.1484   72.7343 H   0  0  0  0  0  0  0  0  0  0  0  0
  130.7529    8.0287   73.9342 H   0  0  0  0  0  0  0  0  0  0  0  0
  131.3463    6.3224   73.8389 H   0  0  0  0  0  0  0  0  0  0  0  0
  133.5464    7.0989   73.0460 H   0  0  0  0  0  0  0  0  0  0  0  0
  133.1269    7.9085   74.6024 H   0  0  0  0  0  0  0  0  0  0  0  0
  133.3731    8.4693   70.9622 H   0  0  0  0  0  0  0  0  0  0  0  0
  132.7069   10.1473   71.1481 H   0  0  0  0  0  0  0  0  0  0  0  0
  130.5128    9.3106   71.6895 H   0  0  0  0  0  0  0  0  0  0  0  0
  131.0866    8.4286   70.2083 H   0  0  0  0  0  0  0  0  0  0  0  0
  128.2265    5.3222   73.7287 H   0  0  0  0  0  0  0  0  0  0  0  0
 16 17  1  0
 16 15  2  0
 17 18  2  0
 25 24  1  0
 25 20  1  0
 24 23  1  0
 15 14  1  0
 15 27  1  0
 18 19  1  0
 18 26  1  0
 19 20  1  0
 20 21  1  0
 14 13  1  0
 27 26  2  0
 27 28  1  0
 23 22  1  0
 13 28  2  0
 13 12  1  0
 11 12  2  0
 11 10  1  0
 21 22  1  0
 12  8  1  0
 10  9  1  0
  8  9  2  0
  8  7  1  0
  7  2  1  0
  5  4  1  0
  5  6  1  0
  4  3  1  0
  4  6  1  0
  2  1  2  0
  2  3  1  0
  3 29  1  0
  4 30  1  0
  5 31  1  0
  5 32  1  0
  6 33  1  0
  6 34  1  0
  7 35  1  0
  9 36  1  0
 10 37  1  0
 14 38  1  0
 16 39  1  0
 17 40  1  0
 19 41  1  0
 19 42  1  0
 21 43  1  0
 21 44  1  0
 22 45  1  0
 22 46  1  0
 24 47  1  0
 24 48  1  0
 25 49  1  0
 25 50  1  0
 26 51  1  0
A    1
O1
A    2
C2
A    3
N3
A    4
C4
A    5
C5
A    6
C6
A    7
N7
A    8
C8
A    9
C9
A   10
N10
A   11
N12
A   12
C13
A   13
C14
A   14
N15
A   15
C16
A   16
C17
A   17
C18
A   18
C19
A   19
C20
A   20
N21
A   21
C23
A   22
C24
A   23
O25
A   24
C26
A   25
C27
A   26
C28
A   27
C29
A   28
N30
M  END
