3AMA_SKE_A_351
     RDKit          3D

 39 41  0  0  0  0  0  0  0  0999 V2000
  -28.6830   10.0970   11.9220 S   0  0  0  0  0  0  0  0  0  0  0  0
  -32.1560    9.8830    3.7540 C   0  0  0  0  0  0  0  0  0  0  0  0
  -28.7600   11.7680    5.1630 F   0  0  0  0  0  0  0  0  0  0  0  0
  -32.7050    9.9840    2.5270 N   0  0  0  0  0  0  0  0  0  0  0  0
  -29.5200   10.0720   13.1440 O   0  0  0  0  0  0  0  0  0  0  0  0
  -31.9350    9.7100    5.8650 C   0  0  0  0  0  0  0  0  0  0  0  0
  -28.0770    7.7870    2.6430 F   0  0  0  0  0  0  0  0  0  0  0  0
  -32.8470    9.7610    4.8840 N   0  0  0  0  0  0  0  0  0  0  0  0
  -27.9410   11.4000   11.7950 O   0  0  0  0  0  0  0  0  0  0  0  0
  -31.4040    9.6890    8.2320 C   0  0  0  0  0  0  0  0  0  0  0  0
  -32.2440    9.5780    7.1800 N   0  0  0  0  0  0  0  0  0  0  0  0
  -29.9410   10.0090    1.9880 O   0  0  0  0  0  0  0  0  0  0  0  0
  -30.0060    9.7340    8.1000 C   0  0  0  0  0  0  0  0  0  0  0  0
  -27.6010    8.8890   11.9620 N   0  0  0  0  0  0  0  0  0  0  0  0
  -29.1850    9.8560    9.2300 C   0  0  0  0  0  0  0  0  0  0  0  0
  -30.7180    9.7660    5.3140 N   0  0  0  0  0  0  0  0  0  0  0  0
  -29.7490    9.9280   10.5000 C   0  0  0  0  0  0  0  0  0  0  0  0
  -30.8520    9.9000    4.0690 N   0  0  0  0  0  0  0  0  0  0  0  0
  -31.1380    9.8940   10.6410 C   0  0  0  0  0  0  0  0  0  0  0  0
  -31.9640    9.7690    9.5190 C   0  0  0  0  0  0  0  0  0  0  0  0
  -29.8050    9.9720    3.2190 C   0  0  0  0  0  0  0  0  0  0  0  0
  -28.4260    9.7910    3.8830 C   0  0  0  0  0  0  0  0  0  0  0  0
  -27.9940   10.7000    4.8540 C   0  0  0  0  0  0  0  0  0  0  0  0
  -26.7610   10.5130    5.4890 C   0  0  0  0  0  0  0  0  0  0  0  0
  -25.9770    9.4020    5.1640 C   0  0  0  0  0  0  0  0  0  0  0  0
  -26.4190    8.4880    4.2010 C   0  0  0  0  0  0  0  0  0  0  0  0
  -27.6450    8.6810    3.5630 C   0  0  0  0  0  0  0  0  0  0  0  0
  -33.7133   10.1695    2.4276 H   0  0  0  0  0  0  0  0  0  0  0  0
  -32.1162    9.8757    1.6888 H   0  0  0  0  0  0  0  0  0  0  0  0
  -33.2285    9.3701    7.4003 H   0  0  0  0  0  0  0  0  0  0  0  0
  -29.5511    9.6729    7.1003 H   0  0  0  0  0  0  0  0  0  0  0  0
  -27.3880    8.6512   12.9413 H   0  0  0  0  0  0  0  0  0  0  0  0
  -27.9905    8.0633   11.4851 H   0  0  0  0  0  0  0  0  0  0  0  0
  -28.0920    9.8949    9.1122 H   0  0  0  0  0  0  0  0  0  0  0  0
  -31.5863    9.9661   11.6429 H   0  0  0  0  0  0  0  0  0  0  0  0
  -33.0563    9.7332    9.6442 H   0  0  0  0  0  0  0  0  0  0  0  0
  -26.4105   11.2364    6.2399 H   0  0  0  0  0  0  0  0  0  0  0  0
  -25.0109    9.2461    5.6663 H   0  0  0  0  0  0  0  0  0  0  0  0
  -25.7989    7.6158    3.9464 H   0  0  0  0  0  0  0  0  0  0  0  0
 17  1  1  0
  9  1  2  0
  1 14  1  0
  1  5  2  0
  4  2  1  0
  2 18  1  0
  2  8  2  0
 23  3  1  0
  8  6  1  0
 16  6  2  0
  6 11  1  0
  7 27  1  0
 11 10  1  0
 13 10  2  0
 10 20  1  0
 12 21  2  0
 13 15  1  0
 15 17  2  0
 18 16  1  0
 17 19  1  0
 21 18  1  0
 20 19  2  0
 21 22  1  0
 27 22  1  0
 22 23  2  0
 23 24  1  0
 25 24  2  0
 26 25  1  0
 27 26  2  0
  4 28  1  0
  4 29  1  0
 11 30  1  0
 13 31  1  0
 14 32  1  0
 14 33  1  0
 15 34  1  0
 19 35  1  0
 20 36  1  0
 24 37  1  0
 25 38  1  0
 26 39  1  0
A    1
S
A    2
C1
A    3
F1
A    4
N1
A    5
O1
A    6
C2
A    7
F2
A    8
N2
A    9
O2
A   10
C3
A   11
N3
A   12
O3
A   13
C4
A   14
N4
A   15
C5
A   16
N5
A   17
C6
A   18
N6
A   19
C7
A   20
C8
A   21
C9
A   22
C10
A   23
C11
A   24
C12
A   25
C13
A   26
C14
A   27
C15
M  END
