4QMV_34W_A_401
     RDKit          3D

 59 63  0  0  0  0  0  0  0  0999 V2000
   37.5420    2.8220   71.6720 C   0  0  0  0  0  0  0  0  0  0  0  0
   36.3190    2.5080   70.9090 C   0  0  0  0  0  0  0  0  0  0  0  0
   36.1310    3.0760   69.7980 O   0  0  0  0  0  0  0  0  0  0  0  0
   35.4110    1.6270   71.4200 N   0  0  0  0  0  0  0  0  0  0  0  0
   34.1960    1.2600   70.7620 C   0  0  0  0  0  0  0  0  0  0  0  0
   33.0380    2.1150   71.1440 C   0  0  0  0  0  0  0  0  0  0  0  0
   33.2240    3.0100   72.0120 O   0  0  0  0  0  0  0  0  0  0  0  0
   31.7810    1.9730   70.5900 N   0  0  0  0  0  0  0  0  0  0  0  0
   30.5780    2.7020   70.8780 C   0  0  0  0  0  0  0  0  0  0  0  0
   30.0440    3.0690   69.4520 C   0  0  0  0  0  0  0  0  0  0  0  0
   30.5950    1.9120   68.5710 C   0  0  0  0  0  0  0  0  0  0  0  0
   31.3110    1.0210   69.6340 C   0  0  0  0  0  0  0  0  0  0  0  0
   30.3610    0.4480   70.6130 C   0  0  0  0  0  0  0  0  0  0  0  0
   29.8980    1.5070   71.4000 C   0  0  0  0  0  0  0  0  0  0  0  0
   28.9610    1.3090   72.4250 C   0  0  0  0  0  0  0  0  0  0  0  0
   28.5100   -0.0130   72.6430 C   0  0  0  0  0  0  0  0  0  0  0  0
   28.9870   -1.0990   71.8660 C   0  0  0  0  0  0  0  0  0  0  0  0
   29.9140   -0.8600   70.8270 C   0  0  0  0  0  0  0  0  0  0  0  0
   28.5250   -2.3570   72.0880 N   0  0  0  0  0  0  0  0  0  0  0  0
   27.8750   -2.9530   73.1230 C   0  0  0  0  0  0  0  0  0  0  0  0
   27.5820   -4.2710   73.0750 N   0  0  0  0  0  0  0  0  0  0  0  0
   26.9240   -4.9010   74.0630 C   0  0  0  0  0  0  0  0  0  0  0  0
   26.5080   -4.2060   75.2080 C   0  0  0  0  0  0  0  0  0  0  0  0
   26.8160   -2.8220   75.2520 C   0  0  0  0  0  0  0  0  0  0  0  0
   27.4830   -2.2520   74.2110 N   0  0  0  0  0  0  0  0  0  0  0  0
   26.4670   -2.0600   76.3240 N   0  0  0  0  0  0  0  0  0  0  0  0
   26.9460   -0.7320   76.5510 C   0  0  0  0  0  0  0  0  0  0  0  0
   26.5450   -0.1890   77.9400 C   0  0  0  0  0  0  0  0  0  0  0  0
   26.2180    1.1450   77.2600 C   0  0  0  0  0  0  0  0  0  0  0  0
   26.0260    0.3550   75.9540 C   0  0  0  0  0  0  0  0  0  0  0  0
   25.7810   -4.9430   76.2720 C   0  0  0  0  0  0  0  0  0  0  0  0
   24.5070   -4.4550   76.4740 F   0  0  0  0  0  0  0  0  0  0  0  0
   26.4620   -4.8910   77.4490 F   0  0  0  0  0  0  0  0  0  0  0  0
   25.6280   -6.2590   75.9390 F   0  0  0  0  0  0  0  0  0  0  0  0
   37.3264    2.7667   72.7493 H   0  0  0  0  0  0  0  0  0  0  0  0
   38.3291    2.0968   71.4178 H   0  0  0  0  0  0  0  0  0  0  0  0
   37.8824    3.8367   71.4178 H   0  0  0  0  0  0  0  0  0  0  0  0
   35.6132    1.2004   72.3354 H   0  0  0  0  0  0  0  0  0  0  0  0
   33.9603    0.2171   71.0203 H   0  0  0  0  0  0  0  0  0  0  0  0
   34.3572    1.3931   69.6820 H   0  0  0  0  0  0  0  0  0  0  0  0
   30.5493    3.6044   71.5063 H   0  0  0  0  0  0  0  0  0  0  0  0
   30.4363    4.0415   69.1199 H   0  0  0  0  0  0  0  0  0  0  0  0
   28.9492    3.1670   69.4083 H   0  0  0  0  0  0  0  0  0  0  0  0
   29.7815    1.3655   68.0716 H   0  0  0  0  0  0  0  0  0  0  0  0
   31.2500    2.2458   67.7527 H   0  0  0  0  0  0  0  0  0  0  0  0
   31.9546    0.3123   69.0922 H   0  0  0  0  0  0  0  0  0  0  0  0
   28.5924    2.1477   73.0339 H   0  0  0  0  0  0  0  0  0  0  0  0
   27.7708   -0.2039   73.4349 H   0  0  0  0  0  0  0  0  0  0  0  0
   30.2772   -1.6865   70.1985 H   0  0  0  0  0  0  0  0  0  0  0  0
   28.7063   -2.9980   71.3024 H   0  0  0  0  0  0  0  0  0  0  0  0
   26.7088   -5.9759   73.9725 H   0  0  0  0  0  0  0  0  0  0  0  0
   25.8181   -2.4645   77.0141 H   0  0  0  0  0  0  0  0  0  0  0  0
   27.9949   -0.8437   76.2391 H   0  0  0  0  0  0  0  0  0  0  0  0
   25.6808   -0.6937   78.3964 H   0  0  0  0  0  0  0  0  0  0  0  0
   27.2295   -0.2445   78.7993 H   0  0  0  0  0  0  0  0  0  0  0  0
   27.0482    1.8664   77.2420 H   0  0  0  0  0  0  0  0  0  0  0  0
   25.4393    1.8173   77.6493 H   0  0  0  0  0  0  0  0  0  0  0  0
   26.4245    0.8501   75.0562 H   0  0  0  0  0  0  0  0  0  0  0  0
   25.0250    0.1150   75.5663 H   0  0  0  0  0  0  0  0  0  0  0  0
 11 10  1  0
 11 12  1  0
 10  9  1  0
 12  8  1  0
 12 13  1  0
  3  2  2  0
  8  9  1  0
  8  6  1  0
 13 18  2  0
 13 14  1  0
  5  6  1  0
  5  4  1  0
 18 17  1  0
  9 14  1  0
  2  4  1  0
  2  1  1  0
  6  7  2  0
 14 15  2  0
 17 19  1  0
 17 16  2  0
 19 20  1  0
 15 16  1  0
 21 20  2  0
 21 22  1  0
 20 25  1  0
 22 23  2  0
 25 24  2  0
 23 24  1  0
 23 31  1  0
 24 26  1  0
 34 31  1  0
 30 27  1  0
 30 29  1  0
 31 32  1  0
 31 33  1  0
 26 27  1  0
 27 28  1  0
 29 28  1  0
  1 35  1  0
  1 36  1  0
  1 37  1  0
  4 38  1  0
  5 39  1  0
  5 40  1  0
  9 41  1  0
 10 42  1  0
 10 43  1  0
 11 44  1  0
 11 45  1  0
 12 46  1  0
 15 47  1  0
 16 48  1  0
 18 49  1  0
 19 50  1  0
 22 51  1  0
 26 52  1  0
 27 53  1  0
 28 54  1  0
 28 55  1  0
 29 56  1  0
 29 57  1  0
 30 58  1  0
 30 59  1  0
A    1
C01
A    2
C02
A    3
O03
A    4
N04
A    5
C05
A    6
C06
A    7
O07
A    8
N08
A    9
C09
A   10
C10
A   11
C11
A   12
C12
A   13
C13
A   14
C14
A   15
C15
A   16
C16
A   17
C17
A   18
C18
A   19
N19
A   20
C20
A   21
N21
A   22
C22
A   23
C23
A   24
C24
A   25
N25
A   26
N26
A   27
C27
A   28
C28
A   29
C29
A   30
C30
A   31
C31
A   32
F32
A   33
F33
A   34
F34
M  END
