3QQJ_X11_A_300
     RDKit          3D

 24 25  0  0  0  0  0  0  0  0999 V2000
  -12.0000  -80.2160  -11.1620 N   0  0  0  0  0  0  0  0  0  0  0  0
  -11.1560  -80.5350  -10.1500 C   0  0  0  0  0  0  0  0  0  0  0  0
  -10.1210  -81.3800  -10.3700 N   0  0  0  0  0  0  0  0  0  0  0  0
   -9.9330  -81.9050  -11.6010 C   0  0  0  0  0  0  0  0  0  0  0  0
  -10.7730  -81.5850  -12.6040 N   0  0  0  0  0  0  0  0  0  0  0  0
  -11.8060  -80.7440  -12.3920 C   0  0  0  0  0  0  0  0  0  0  0  0
  -11.3580  -79.9840   -8.8720 N   0  0  0  0  0  0  0  0  0  0  0  0
   -8.8710  -82.7750  -11.8460 N   0  0  0  0  0  0  0  0  0  0  0  0
  -12.7230  -80.3990  -13.5130 C   0  0  0  0  0  0  0  0  0  0  0  0
  -12.5100  -80.9550  -14.8190 C   0  0  0  0  0  0  0  0  0  0  0  0
  -13.3820  -80.6100  -15.8820 C   0  0  0  0  0  0  0  0  0  0  0  0
  -14.4700  -79.7170  -15.6550 C   0  0  0  0  0  0  0  0  0  0  0  0
  -14.6910  -79.1650  -14.3530 C   0  0  0  0  0  0  0  0  0  0  0  0
  -13.8160  -79.5060  -13.2890 C   0  0  0  0  0  0  0  0  0  0  0  0
  -11.4680  -81.8190  -15.0480 O   0  0  0  0  0  0  0  0  0  0  0  0
  -11.1530  -80.5433   -8.0317 H   0  0  0  0  0  0  0  0  0  0  0  0
  -11.7110  -79.0211   -8.7762 H   0  0  0  0  0  0  0  0  0  0  0  0
   -8.3576  -83.1956  -11.0583 H   0  0  0  0  0  0  0  0  0  0  0  0
   -8.6000  -82.9970  -12.8146 H   0  0  0  0  0  0  0  0  0  0  0  0
  -13.2188  -81.0323  -16.8845 H   0  0  0  0  0  0  0  0  0  0  0  0
  -15.1424  -79.4511  -16.4840 H   0  0  0  0  0  0  0  0  0  0  0  0
  -15.5341  -78.4805  -14.1781 H   0  0  0  0  0  0  0  0  0  0  0  0
  -13.9798  -79.0812  -12.2877 H   0  0  0  0  0  0  0  0  0  0  0  0
  -10.9822  -82.2218  -14.2852 H   0  0  0  0  0  0  0  0  0  0  0  0
  1  2  2  0
  1  6  1  0
  2  3  1  0
  2  7  1  0
  3  4  2  0
  4  5  1  0
  4  8  1  0
  5  6  2  0
  6  9  1  0
  9 10  2  0
  9 14  1  0
 10 11  1  0
 10 15  1  0
 11 12  2  0
 12 13  1  0
 13 14  2  0
  7 16  1  0
  7 17  1  0
  8 18  1  0
  8 19  1  0
 11 20  1  0
 12 21  1  0
 13 22  1  0
 14 23  1  0
 15 24  1  0
A    1
N1
A    2
C2
A    3
N3
A    4
C4
A    5
N5
A    6
C6
A    7
N7
A    8
N8
A    9
C9
A   10
C10
A   11
C11
A   12
C12
A   13
C13
A   14
C14
A   15
O15
M  END
