3MA6_DXR_A_299
     RDKit          3D

 33 34  0  0  0  0  0  0  0  0999 V2000
   -3.0080   22.9880   14.2960 N   0  0  0  0  0  0  0  0  0  0  0  0
   -1.7940   23.4940   14.0590 C   0  0  0  0  0  0  0  0  0  0  0  0
   -0.8200   23.4360   14.9700 N   0  0  0  0  0  0  0  0  0  0  0  0
   -1.0410   22.8570   16.1710 C   0  0  0  0  0  0  0  0  0  0  0  0
   -2.2990   22.3050   16.4350 C   0  0  0  0  0  0  0  0  0  0  0  0
   -3.2810   22.3740   15.4670 C   0  0  0  0  0  0  0  0  0  0  0  0
   -0.0700   22.8200   17.0790 N   0  0  0  0  0  0  0  0  0  0  0  0
   -2.8950   21.6420   17.5020 C   0  0  0  0  0  0  0  0  0  0  0  0
   -4.1500   21.3620   17.1370 N   0  0  0  0  0  0  0  0  0  0  0  0
   -4.3640   21.7730   15.9850 N   0  0  0  0  0  0  0  0  0  0  0  0
   -5.6780   21.5990   15.2530 C   0  0  0  0  0  0  0  0  0  0  0  0
   -5.4330   20.7020   14.0360 C   0  0  0  0  0  0  0  0  0  0  0  0
   -6.1970   22.9670   14.7950 C   0  0  0  0  0  0  0  0  0  0  0  0
   -6.7200   20.9370   16.1660 C   0  0  0  0  0  0  0  0  0  0  0  0
   -2.2650   21.3040   18.8560 C   0  0  0  0  0  0  0  0  0  0  0  0
   -2.3150   22.5390   19.7620 C   0  0  0  0  0  0  0  0  0  0  0  0
   -1.5922   23.9705   13.0883 H   0  0  0  0  0  0  0  0  0  0  0  0
   -0.3026   22.8289   18.0824 H   0  0  0  0  0  0  0  0  0  0  0  0
    0.9146   22.7825   16.7789 H   0  0  0  0  0  0  0  0  0  0  0  0
   -5.1572   19.6923   14.3743 H   0  0  0  0  0  0  0  0  0  0  0  0
   -6.3493   20.6481   13.4298 H   0  0  0  0  0  0  0  0  0  0  0  0
   -4.6165   21.1214   13.4298 H   0  0  0  0  0  0  0  0  0  0  0  0
   -6.4310   23.5838   15.6752 H   0  0  0  0  0  0  0  0  0  0  0  0
   -5.4264   23.4679   14.1906 H   0  0  0  0  0  0  0  0  0  0  0  0
   -7.1059   22.8308   14.1906 H   0  0  0  0  0  0  0  0  0  0  0  0
   -6.4483   21.1096   17.2179 H   0  0  0  0  0  0  0  0  0  0  0  0
   -7.7107   21.3717   15.9671 H   0  0  0  0  0  0  0  0  0  0  0  0
   -6.7475   19.8555   15.9671 H   0  0  0  0  0  0  0  0  0  0  0  0
   -2.8237   20.4811   19.3258 H   0  0  0  0  0  0  0  0  0  0  0  0
   -1.2188   20.9979   18.7088 H   0  0  0  0  0  0  0  0  0  0  0  0
   -2.3022   22.2219   20.8152 H   0  0  0  0  0  0  0  0  0  0  0  0
   -1.4420   23.1771   19.5605 H   0  0  0  0  0  0  0  0  0  0  0  0
   -3.2368   23.1045   19.5605 H   0  0  0  0  0  0  0  0  0  0  0  0
  2  1  2  0
  1  6  1  0
  3  2  1  0
  3  4  2  0
  7  4  1  0
  4  5  1  0
  5  6  2  0
  5  8  1  0
  6 10  1  0
 15  8  1  0
  8  9  2  0
 10  9  1  0
 10 11  1  0
 13 11  1  0
 11 12  1  0
 11 14  1  0
 16 15  1  0
  2 17  1  0
  7 18  1  0
  7 19  1  0
 12 20  1  0
 12 21  1  0
 12 22  1  0
 13 23  1  0
 13 24  1  0
 13 25  1  0
 14 26  1  0
 14 27  1  0
 14 28  1  0
 15 29  1  0
 15 30  1  0
 16 31  1  0
 16 32  1  0
 16 33  1  0
A    1
N1
A    2
C2
A    3
N3
A    4
C4
A    5
C5
A    6
C6
A    7
NAG
A    8
CAH
A    9
NAI
A   10
NAJ
A   11
CAK
A   12
CAL
A   13
CAM
A   14
CAN
A   15
CAO
A   16
CAP
M  END
