4QP2_36R_A_401
     RDKit          3D

 16 17  0  0  0  0  0  0  0  0999 V2000
  -17.6670  -36.2520  -28.4660 C   0  0  0  0  0  0  0  0  0  0  0  0
  -17.8780  -37.5810  -28.8270 C   0  0  0  0  0  0  0  0  0  0  0  0
  -17.5390  -38.6050  -27.9580 C   0  0  0  0  0  0  0  0  0  0  0  0
  -16.9950  -38.3260  -26.7080 C   0  0  0  0  0  0  0  0  0  0  0  0
  -16.7840  -37.0150  -26.3280 C   0  0  0  0  0  0  0  0  0  0  0  0
  -17.1110  -35.9810  -27.1950 C   0  0  0  0  0  0  0  0  0  0  0  0
  -17.7950  -40.2550  -28.4440 Cl  0  0  0  0  0  0  0  0  0  0  0  0
  -17.8800  -35.0490  -29.0880 N   0  0  0  0  0  0  0  0  0  0  0  0
  -17.4690  -34.1070  -28.2510 C   0  0  0  0  0  0  0  0  0  0  0  0
  -17.0120  -34.6370  -27.1000 O   0  0  0  0  0  0  0  0  0  0  0  0
  -17.4990  -32.7570  -28.4580 N   0  0  0  0  0  0  0  0  0  0  0  0
  -18.3162  -37.8184  -29.8076 H   0  0  0  0  0  0  0  0  0  0  0  0
  -16.7337  -39.1473  -26.0244 H   0  0  0  0  0  0  0  0  0  0  0  0
  -16.3573  -36.7903  -25.3394 H   0  0  0  0  0  0  0  0  0  0  0  0
  -17.5133  -32.1129  -27.6543 H   0  0  0  0  0  0  0  0  0  0  0  0
  -17.5073  -32.3832  -29.4177 H   0  0  0  0  0  0  0  0  0  0  0  0
  8  1  1  0
  8  9  2  0
  2  1  2  0
  2  3  1  0
  1  6  1  0
 11  9  1  0
  7  3  1  0
  9 10  1  0
  3  4  2  0
  6 10  1  0
  6  5  2  0
  4  5  1  0
  2 12  1  0
  4 13  1  0
  5 14  1  0
 11 15  1  0
 11 16  1  0
A    1
C4
A    2
C5
A    3
C6
A    4
C1
A    5
C2
A    6
C3
A    7
CL7
A    8
N8
A    9
C9
A   10
O10
A   11
N11
M  END
