4QP8_362_A_401
     RDKit          3D

 30 33  0  0  0  0  0  0  0  0999 V2000
   35.4140  -45.5110   37.6180 C   0  0  0  0  0  0  0  0  0  0  0  0
   36.0880  -45.3780   35.4180 C   0  0  0  0  0  0  0  0  0  0  0  0
   36.5340  -44.2220   39.4350 C   0  0  0  0  0  0  0  0  0  0  0  0
   37.5860  -43.5970   40.0180 C   0  0  0  0  0  0  0  0  0  0  0  0
   34.1710  -44.4580   42.7960 C   0  0  0  0  0  0  0  0  0  0  0  0
   32.2650  -45.6060   41.6440 C   0  0  0  0  0  0  0  0  0  0  0  0
   31.6030  -46.1900   40.5450 C   0  0  0  0  0  0  0  0  0  0  0  0
   37.0940  -44.4830   35.7280 C   0  0  0  0  0  0  0  0  0  0  0  0
   37.2630  -44.0860   37.0430 C   0  0  0  0  0  0  0  0  0  0  0  0
   36.4080  -44.6180   38.0130 C   0  0  0  0  0  0  0  0  0  0  0  0
   35.2910  -45.8580   36.3540 N   0  0  0  0  0  0  0  0  0  0  0  0
   37.3190  -43.3910   41.3390 N   0  0  0  0  0  0  0  0  0  0  0  0
   36.0730  -43.8770   41.6600 C   0  0  0  0  0  0  0  0  0  0  0  0
   35.5220  -44.4170   40.4830 C   0  0  0  0  0  0  0  0  0  0  0  0
   34.3100  -44.9620   40.4980 N   0  0  0  0  0  0  0  0  0  0  0  0
   33.6200  -44.9960   41.6290 C   0  0  0  0  0  0  0  0  0  0  0  0
   35.3720  -43.9160   42.7870 N   0  0  0  0  0  0  0  0  0  0  0  0
   31.4320  -45.7060   42.7220 C   0  0  0  0  0  0  0  0  0  0  0  0
   30.3060  -46.3230   42.3120 N   0  0  0  0  0  0  0  0  0  0  0  0
   30.4350  -46.6150   40.9490 N   0  0  0  0  0  0  0  0  0  0  0  0
   34.7267  -45.9293   38.3681 H   0  0  0  0  0  0  0  0  0  0  0  0
   35.9492  -45.6956   34.3740 H   0  0  0  0  0  0  0  0  0  0  0  0
   38.5127  -43.3014   39.5043 H   0  0  0  0  0  0  0  0  0  0  0  0
   33.5951  -44.4876   43.7327 H   0  0  0  0  0  0  0  0  0  0  0  0
   32.0011  -46.2736   39.5230 H   0  0  0  0  0  0  0  0  0  0  0  0
   37.7526  -44.0907   34.9391 H   0  0  0  0  0  0  0  0  0  0  0  0
   38.0508  -43.3694   37.3183 H   0  0  0  0  0  0  0  0  0  0  0  0
   37.9605  -42.9352   42.0035 H   0  0  0  0  0  0  0  0  0  0  0  0
   31.6422  -45.3477   43.7406 H   0  0  0  0  0  0  0  0  0  0  0  0
   29.4899  -46.5422   42.9010 H   0  0  0  0  0  0  0  0  0  0  0  0
  2  8  2  0
  2 11  1  0
  8  9  1  0
 11  1  2  0
  9 10  2  0
  1 10  1  0
 10  3  1  0
  3  4  2  0
  3 14  1  0
  4 12  1  0
 14 15  2  0
 14 13  1  0
 15 16  1  0
  7 20  2  0
  7  6  1  0
 20 19  1  0
 12 13  1  0
 16  6  1  0
 16  5  2  0
  6 18  2  0
 13 17  2  0
 19 18  1  0
 17  5  1  0
  1 21  1  0
  2 22  1  0
  4 23  1  0
  5 24  1  0
  7 25  1  0
  8 26  1  0
  9 27  1  0
 12 28  1  0
 18 29  1  0
 19 30  1  0
A    1
C4
A    2
C6
A    3
C7
A    4
C8
A    5
C15
A    6
C17
A    7
C22
A    8
C1
A    9
C2
A   10
C3
A   11
N5
A   12
N9
A   13
C11
A   14
C12
A   15
N13
A   16
C14
A   17
N16
A   18
C18
A   19
N19
A   20
N21
M  END
