4QPF_39L_A_901
     RDKit          3D

 31 32  0  0  0  0  0  0  0  0999 V2000
   15.1180  -37.1300   24.6510 O   0  0  0  0  0  0  0  0  0  0  0  0
   15.2520  -35.8400   23.7640 P   0  0  0  0  0  0  0  0  0  0  0  0
   14.1340  -35.7440   22.7450 O   0  0  0  0  0  0  0  0  0  0  0  0
   16.6550  -35.7630   23.1990 O   0  0  0  0  0  0  0  0  0  0  0  0
   15.0190  -34.3060   24.8340 C   0  0  0  0  0  0  0  0  0  0  0  0
   13.7870  -34.4620   25.4980 F   0  0  0  0  0  0  0  0  0  0  0  0
   16.3550  -34.2120   26.1400 P   0  0  0  0  0  0  0  0  0  0  0  0
   16.0960  -33.0480   27.0140 O   0  0  0  0  0  0  0  0  0  0  0  0
   16.2950  -35.5840   26.7260 O   0  0  0  0  0  0  0  0  0  0  0  0
   17.6990  -34.0390   25.4240 O   0  0  0  0  0  0  0  0  0  0  0  0
   14.9600  -33.0770   23.9020 C   0  0  0  0  0  0  0  0  0  0  0  0
   14.5730  -31.7630   24.5840 C   0  0  0  0  0  0  0  0  0  0  0  0
   13.7690  -31.4930   25.6750 C   0  0  0  0  0  0  0  0  0  0  0  0
   13.7400  -30.1480   25.9030 N   0  0  0  0  0  0  0  0  0  0  0  0
   14.4860  -29.5980   24.8710 C   0  0  0  0  0  0  0  0  0  0  0  0
   14.9620  -30.5570   24.0840 N   0  0  0  0  0  0  0  0  0  0  0  0
   15.8140  -30.3010   23.0440 C   0  0  0  0  0  0  0  0  0  0  0  0
   16.1450  -28.9370   22.8170 C   0  0  0  0  0  0  0  0  0  0  0  0
   15.6110  -27.9330   23.5730 C   0  0  0  0  0  0  0  0  0  0  0  0
   14.7670  -28.2270   24.6370 C   0  0  0  0  0  0  0  0  0  0  0  0
   15.1443  -36.8768   25.6077 H   0  0  0  0  0  0  0  0  0  0  0  0
   17.3084  -35.7271   23.9419 H   0  0  0  0  0  0  0  0  0  0  0  0
   16.1580  -33.3268   27.9619 H   0  0  0  0  0  0  0  0  0  0  0  0
   16.2977  -35.5213   27.7140 H   0  0  0  0  0  0  0  0  0  0  0  0
   14.2208  -33.2823   23.1137 H   0  0  0  0  0  0  0  0  0  0  0  0
   15.9811  -32.9340   23.5187 H   0  0  0  0  0  0  0  0  0  0  0  0
   13.2336  -32.2479   26.2695 H   0  0  0  0  0  0  0  0  0  0  0  0
   16.2212  -31.1078   22.4169 H   0  0  0  0  0  0  0  0  0  0  0  0
   16.8497  -28.6839   22.0112 H   0  0  0  0  0  0  0  0  0  0  0  0
   15.8504  -26.8853   23.3383 H   0  0  0  0  0  0  0  0  0  0  0  0
   14.3373  -27.4348   25.2677 H   0  0  0  0  0  0  0  0  0  0  0  0
  3  2  2  0
 18 17  2  0
 18 19  1  0
 17 16  1  0
  4  2  1  0
 19 20  2  0
  2  1  1  0
  2  5  1  0
 11 12  1  0
 11  5  1  0
 16 12  1  0
 16 15  1  0
 12 13  2  0
 20 15  1  0
  5  6  1  0
  5  7  1  0
 15 14  2  0
 10  7  2  0
 13 14  1  0
  7  9  1  0
  7  8  1  0
  1 21  1  0
  4 22  1  0
  8 23  1  0
  9 24  1  0
 11 25  1  0
 11 26  1  0
 13 27  1  0
 17 28  1  0
 18 29  1  0
 19 30  1  0
 20 31  1  0
A    1
O4
A    2
P2
A    3
O6
A    4
O5
A    5
C9
A    6
F
A    7
P1
A    8
O3
A    9
O1
A   10
O2
A   11
C8
A   12
C2
A   13
C1
A   14
N1
A   15
C7
A   16
N2
A   17
C3
A   18
C4
A   19
C5
A   20
C6
M  END
