4QPP_36S_A_1001
     RDKit          3D

 48 51  0  0  0  0  0  0  0  0999 V2000
  -39.5200    3.5600  -18.6650 C   0  0  0  0  0  0  0  0  0  0  0  0
  -39.2970    2.8900  -19.9150 O   0  0  0  0  0  0  0  0  0  0  0  0
  -39.4630    3.6480  -21.0370 C   0  0  0  0  0  0  0  0  0  0  0  0
  -40.3630    4.7190  -21.0870 C   0  0  0  0  0  0  0  0  0  0  0  0
  -40.5070    5.4650  -22.2470 C   0  0  0  0  0  0  0  0  0  0  0  0
  -39.7520    5.1350  -23.3600 C   0  0  0  0  0  0  0  0  0  0  0  0
  -38.8580    4.0650  -23.3120 C   0  0  0  0  0  0  0  0  0  0  0  0
  -38.7120    3.2710  -22.1610 C   0  0  0  0  0  0  0  0  0  0  0  0
  -37.8010    2.2610  -22.1190 C   0  0  0  0  0  0  0  0  0  0  0  0
  -37.1110    1.9430  -21.0250 N   0  0  0  0  0  0  0  0  0  0  0  0
  -37.3490    1.4600  -23.0950 C   0  0  0  0  0  0  0  0  0  0  0  0
  -37.8770    1.4300  -24.7410 Cl  0  0  0  0  0  0  0  0  0  0  0  0
  -36.4080    0.6390  -22.6150 C   0  0  0  0  0  0  0  0  0  0  0  0
  -35.6680   -0.3390  -23.1760 C   0  0  0  0  0  0  0  0  0  0  0  0
  -36.2710    0.9470  -21.3210 C   0  0  0  0  0  0  0  0  0  0  0  0
  -35.3960    0.2870  -20.5550 C   0  0  0  0  0  0  0  0  0  0  0  0
  -34.6100   -0.7320  -21.0790 C   0  0  0  0  0  0  0  0  0  0  0  0
  -34.7280   -1.0750  -22.4250 C   0  0  0  0  0  0  0  0  0  0  0  0
  -33.8910   -2.1220  -22.9280 C   0  0  0  0  0  0  0  0  0  0  0  0
  -34.0680   -2.4060  -24.4240 C   0  0  0  0  0  0  0  0  0  0  0  0
  -33.2210   -3.5940  -24.8160 C   0  0  0  0  0  0  0  0  0  0  0  0
  -32.4440   -1.7290  -22.7240 C   0  0  0  0  0  0  0  0  0  0  0  0
  -31.5730   -2.9140  -23.1310 C   0  0  0  0  0  0  0  0  0  0  0  0
  -31.8130   -3.1930  -24.5720 N   0  0  0  0  0  0  0  0  0  0  0  0
  -30.8800   -4.2280  -25.0740 C   0  0  0  0  0  0  0  0  0  0  0  0
  -39.2918    2.8744  -17.8357 H   0  0  0  0  0  0  0  0  0  0  0  0
  -38.8674    4.4431  -18.6008 H   0  0  0  0  0  0  0  0  0  0  0  0
  -40.5717    3.8759  -18.6008 H   0  0  0  0  0  0  0  0  0  0  0  0
  -40.9609    4.9709  -20.1987 H   0  0  0  0  0  0  0  0  0  0  0  0
  -41.2122    6.3085  -22.2827 H   0  0  0  0  0  0  0  0  0  0  0  0
  -39.8576    5.7191  -24.2861 H   0  0  0  0  0  0  0  0  0  0  0  0
  -38.2502    3.8361  -24.1998 H   0  0  0  0  0  0  0  0  0  0  0  0
  -37.2088    2.3911  -20.1027 H   0  0  0  0  0  0  0  0  0  0  0  0
  -35.8006   -0.5679  -24.2437 H   0  0  0  0  0  0  0  0  0  0  0  0
  -35.2968    0.5551  -19.4928 H   0  0  0  0  0  0  0  0  0  0  0  0
  -33.8970   -1.2663  -20.4339 H   0  0  0  0  0  0  0  0  0  0  0  0
  -34.1794   -3.0291  -22.3766 H   0  0  0  0  0  0  0  0  0  0  0  0
  -35.1255   -2.6251  -24.6328 H   0  0  0  0  0  0  0  0  0  0  0  0
  -33.7540   -1.5253  -25.0035 H   0  0  0  0  0  0  0  0  0  0  0  0
  -33.4812   -4.4681  -24.2010 H   0  0  0  0  0  0  0  0  0  0  0  0
  -33.3830   -3.8741  -25.8673 H   0  0  0  0  0  0  0  0  0  0  0  0
  -32.2025   -0.8561  -23.3482 H   0  0  0  0  0  0  0  0  0  0  0  0
  -32.2638   -1.4653  -21.6714 H   0  0  0  0  0  0  0  0  0  0  0  0
  -30.5126   -2.6694  -22.9705 H   0  0  0  0  0  0  0  0  0  0  0  0
  -31.8253   -3.7970  -22.5256 H   0  0  0  0  0  0  0  0  0  0  0  0
  -30.4137   -4.7453  -24.2226 H   0  0  0  0  0  0  0  0  0  0  0  0
  -31.4338   -4.9550  -25.6861 H   0  0  0  0  0  0  0  0  0  0  0  0
  -30.0996   -3.7523  -25.6861 H   0  0  0  0  0  0  0  0  0  0  0  0
  5  6  2  0
  5  4  1  0
  6  7  1  0
  4  3  2  0
  7  8  2  0
  3  8  1  0
  3  2  1  0
  1  2  1  0
  8  9  1  0
  9 10  1  0
  9 11  2  0
 10 15  1  0
 11 12  1  0
 11 13  1  0
 15 13  2  0
 15 16  1  0
 13 14  1  0
 16 17  2  0
 14 18  2  0
 17 18  1  0
 18 19  1  0
 22 19  1  0
 22 23  1  0
 19 20  1  0
 23 24  1  0
 20 21  1  0
 24 21  1  0
 24 25  1  0
  1 26  1  0
  1 27  1  0
  1 28  1  0
  4 29  1  0
  5 30  1  0
  6 31  1  0
  7 32  1  0
 10 33  1  0
 14 34  1  0
 16 35  1  0
 17 36  1  0
 19 37  1  0
 20 38  1  0
 20 39  1  0
 21 40  1  0
 21 41  1  0
 22 42  1  0
 22 43  1  0
 23 44  1  0
 23 45  1  0
 25 46  1  0
 25 47  1  0
 25 48  1  0
A    1
CAB
A    2
OAS
A    3
CAV
A    4
CAF
A    5
CAD
A    6
CAE
A    7
CAG
A    8
CAW
A    9
CAX
A   10
NAR
A   11
CAU
A   12
CL
A   13
CAZ
A   14
CAJ
A   15
CAY
A   16
CAI
A   17
CAH
A   18
CAT
A   19
CBA
A   20
CAM
A   21
CAP
A   22
CAL
A   23
CAO
A   24
NBB
A   25
CAN
M  END
