4QQ6_36X_A_204
     RDKit          3D

 30 32  0  0  0  0  0  0  0  0999 V2000
    9.6750    0.3060    2.0870 N   0  0  0  0  0  0  0  0  0  0  0  0
    8.9860    0.9330    3.0790 C   0  0  0  0  0  0  0  0  0  0  0  0
    7.7400    0.4410    3.5060 C   0  0  0  0  0  0  0  0  0  0  0  0
    7.0200   -0.8370    3.1530 C   0  0  0  0  0  0  0  0  0  0  0  0
    5.6550   -0.6870    3.8520 C   0  0  0  0  0  0  0  0  0  0  0  0
    5.6920    0.5540    4.7480 C   0  0  0  0  0  0  0  0  0  0  0  0
    6.9950    1.1710    4.4850 C   0  0  0  0  0  0  0  0  0  0  0  0
    9.4930    2.1080    3.6610 C   0  0  0  0  0  0  0  0  0  0  0  0
    8.7590    2.8140    4.6620 C   0  0  0  0  0  0  0  0  0  0  0  0
    7.5360    2.3720    5.0480 N   0  0  0  0  0  0  0  0  0  0  0  0
    6.7810    3.1070    6.0740 C   0  0  0  0  0  0  0  0  0  0  0  0
    9.5280    3.9420    5.2050 C   0  0  0  0  0  0  0  0  0  0  0  0
   10.6330    4.1400    4.1720 C   0  0  0  0  0  0  0  0  0  0  0  0
   10.8110    2.8010    3.4390 C   0  0  0  0  0  0  0  0  0  0  0  0
   10.5870    0.6742    1.7812 H   0  0  0  0  0  0  0  0  0  0  0  0
    6.8957   -0.9302    2.0640 H   0  0  0  0  0  0  0  0  0  0  0  0
    7.5664   -1.7376    3.4698 H   0  0  0  0  0  0  0  0  0  0  0  0
    4.8635   -0.5739    3.0966 H   0  0  0  0  0  0  0  0  0  0  0  0
    5.4466   -1.5800    4.4596 H   0  0  0  0  0  0  0  0  0  0  0  0
    4.8769    1.2447    4.4861 H   0  0  0  0  0  0  0  0  0  0  0  0
    5.5606    0.3014    5.8105 H   0  0  0  0  0  0  0  0  0  0  0  0
    7.1112    2.7856    7.0728 H   0  0  0  0  0  0  0  0  0  0  0  0
    6.9601    4.1861    5.9583 H   0  0  0  0  0  0  0  0  0  0  0  0
    5.7071    2.8990    5.9583 H   0  0  0  0  0  0  0  0  0  0  0  0
    9.9491    3.6942    6.1905 H   0  0  0  0  0  0  0  0  0  0  0  0
    8.9181    4.8438    5.3625 H   0  0  0  0  0  0  0  0  0  0  0  0
   11.5707    4.4240    4.6721 H   0  0  0  0  0  0  0  0  0  0  0  0
   10.3699    4.9412    3.4657 H   0  0  0  0  0  0  0  0  0  0  0  0
   11.6392    2.2213    3.8726 H   0  0  0  0  0  0  0  0  0  0  0  0
   11.0601    2.9223    2.3745 H   0  0  0  0  0  0  0  0  0  0  0  0
  1  2  2  3
  2  3  1  0
  2  8  1  0
  4  3  1  0
  4  5  1  0
 14  8  1  0
 14 13  1  0
  3  7  2  0
  8  9  2  0
  5  6  1  0
 13 12  1  0
  7  6  1  0
  7 10  1  0
  9 10  1  0
  9 12  1  0
 10 11  1  0
  1 15  1  0
  4 16  1  0
  4 17  1  0
  5 18  1  0
  5 19  1  0
  6 20  1  0
  6 21  1  0
 11 22  1  0
 11 23  1  0
 11 24  1  0
 12 25  1  0
 12 26  1  0
 13 27  1  0
 13 28  1  0
 14 29  1  0
 14 30  1  0
A    1
N1
A    2
C6
A    3
C5
A    4
C4
A    5
C3
A    6
C2
A    7
C1
A    8
C7
A    9
C11
A   10
N
A   11
C
A   12
C10
A   13
C9
A   14
C8
M  END
