4QQE_37F_A_401
     RDKit          3D

 61 65  0  0  0  0  0  0  0  0999 V2000
   -7.8350   25.4960    2.7210 F   0  0  0  0  0  0  0  0  0  0  0  0
   -7.7890   26.2510    1.6340 C   0  0  0  0  0  0  0  0  0  0  0  0
   -8.4910   25.6580    0.7060 F   0  0  0  0  0  0  0  0  0  0  0  0
   -6.5400   26.3340    1.2330 F   0  0  0  0  0  0  0  0  0  0  0  0
   -8.3080   27.5340    1.9360 C   0  0  0  0  0  0  0  0  0  0  0  0
   -7.4340   28.6490    1.9790 C   0  0  0  0  0  0  0  0  0  0  0  0
   -7.9180   29.9300    2.2700 C   0  0  0  0  0  0  0  0  0  0  0  0
   -7.1920   30.9320    2.2870 O   0  0  0  0  0  0  0  0  0  0  0  0
   -9.2810   30.0920    2.5180 N   0  0  0  0  0  0  0  0  0  0  0  0
  -10.1080   29.0490    2.4970 C   0  0  0  0  0  0  0  0  0  0  0  0
   -9.6960   27.7450    2.1930 C   0  0  0  0  0  0  0  0  0  0  0  0
  -10.7170   26.7420    2.2330 C   0  0  0  0  0  0  0  0  0  0  0  0
  -10.5210   25.6840    2.8060 O   0  0  0  0  0  0  0  0  0  0  0  0
  -11.8530   27.0300    1.5770 N   0  0  0  0  0  0  0  0  0  0  0  0
  -13.0270   26.3470    1.6970 C   0  0  0  0  0  0  0  0  0  0  0  0
  -13.6700   26.4300    2.9380 C   0  0  0  0  0  0  0  0  0  0  0  0
  -13.6770   25.7530    0.6000 C   0  0  0  0  0  0  0  0  0  0  0  0
  -13.1510   25.5630   -0.6290 N   0  0  0  0  0  0  0  0  0  0  0  0
  -11.8490   24.8720   -0.6620 C   0  0  0  0  0  0  0  0  0  0  0  0
  -11.1540   25.0240   -1.9770 C   0  0  0  0  0  0  0  0  0  0  0  0
  -11.9390   24.6540   -3.1170 N   0  0  0  0  0  0  0  0  0  0  0  0
  -11.2760   24.8800   -4.4080 C   0  0  0  0  0  0  0  0  0  0  0  0
  -13.0890   25.5950   -3.1680 C   0  0  0  0  0  0  0  0  0  0  0  0
  -13.9510   25.4720   -1.8800 C   0  0  0  0  0  0  0  0  0  0  0  0
  -14.9180   25.1510    0.8700 C   0  0  0  0  0  0  0  0  0  0  0  0
  -15.5230   25.2220    2.1280 C   0  0  0  0  0  0  0  0  0  0  0  0
  -14.9190   25.8580    3.2090 C   0  0  0  0  0  0  0  0  0  0  0  0
  -15.5250   25.9330    4.5160 C   0  0  0  0  0  0  0  0  0  0  0  0
  -16.7590   25.3250    4.8470 C   0  0  0  0  0  0  0  0  0  0  0  0
  -17.2810   25.4400    6.1600 C   0  0  0  0  0  0  0  0  0  0  0  0
  -18.4850   24.8350    6.5040 C   0  0  0  0  0  0  0  0  0  0  0  0
  -19.0070   24.9410    7.8020 C   0  0  0  0  0  0  0  0  0  0  0  0
  -18.3270   25.6680    8.7840 C   0  0  0  0  0  0  0  0  0  0  0  0
  -17.1210   26.2740    8.4440 C   0  0  0  0  0  0  0  0  0  0  0  0
  -16.6020   26.1550    7.1500 C   0  0  0  0  0  0  0  0  0  0  0  0
  -15.4310   26.7530    6.8550 N   0  0  0  0  0  0  0  0  0  0  0  0
  -14.8810   26.6380    5.5630 C   0  0  0  0  0  0  0  0  0  0  0  0
   -6.3614   28.5059    1.7811 H   0  0  0  0  0  0  0  0  0  0  0  0
   -9.6526   31.0311    2.7201 H   0  0  0  0  0  0  0  0  0  0  0  0
  -11.1693   29.2198    2.7303 H   0  0  0  0  0  0  0  0  0  0  0  0
  -11.8360   27.8319    0.9308 H   0  0  0  0  0  0  0  0  0  0  0  0
  -13.1643   26.9766    3.7476 H   0  0  0  0  0  0  0  0  0  0  0  0
  -12.0129   23.8011   -0.4712 H   0  0  0  0  0  0  0  0  0  0  0  0
  -11.2094   25.3266    0.1089 H   0  0  0  0  0  0  0  0  0  0  0  0
  -10.2527   24.3935   -1.9628 H   0  0  0  0  0  0  0  0  0  0  0  0
  -10.9319   26.0956   -2.0882 H   0  0  0  0  0  0  0  0  0  0  0  0
  -10.2477   25.2305   -4.2357 H   0  0  0  0  0  0  0  0  0  0  0  0
  -11.2521   23.9393   -4.9776 H   0  0  0  0  0  0  0  0  0  0  0  0
  -11.8317   25.6395   -4.9776 H   0  0  0  0  0  0  0  0  0  0  0  0
  -12.7108   26.6244   -3.2535 H   0  0  0  0  0  0  0  0  0  0  0  0
  -13.7134   25.3467   -4.0389 H   0  0  0  0  0  0  0  0  0  0  0  0
  -14.6954   26.2819   -1.8787 H   0  0  0  0  0  0  0  0  0  0  0  0
  -14.4221   24.4781   -1.8954 H   0  0  0  0  0  0  0  0  0  0  0  0
  -15.4305   24.6055    0.0639 H   0  0  0  0  0  0  0  0  0  0  0  0
  -16.5109   24.7592    2.2688 H   0  0  0  0  0  0  0  0  0  0  0  0
  -17.3150   24.7614    4.0833 H   0  0  0  0  0  0  0  0  0  0  0  0
  -19.0382   24.2629    5.7446 H   0  0  0  0  0  0  0  0  0  0  0  0
  -19.9589   24.4482    8.0491 H   0  0  0  0  0  0  0  0  0  0  0  0
  -18.7356   25.7588    9.8013 H   0  0  0  0  0  0  0  0  0  0  0  0
  -16.5702   26.8524    9.2003 H   0  0  0  0  0  0  0  0  0  0  0  0
  -13.9113   27.1154    5.3585 H   0  0  0  0  0  0  0  0  0  0  0  0
 22 21  1  0
 23 21  1  0
 23 24  1  0
 21 20  1  0
 20 19  1  0
 24 18  1  0
 19 18  1  0
 18 17  1  0
 17 25  2  0
 17 15  1  0
  3  2  1  0
 25 26  1  0
  4  2  1  0
 14 15  1  0
 14 12  1  0
  2  5  1  0
  2  1  1  0
 15 16  2  0
  5  6  2  0
  5 11  1  0
  6  7  1  0
 26 27  2  0
 11 12  1  0
 11 10  2  0
 12 13  2  0
  7  8  2  0
  7  9  1  0
 10  9  1  0
 16 27  1  0
 27 28  1  0
 28 29  2  0
 28 37  1  0
 29 30  1  0
 37 36  2  0
 30 31  2  0
 30 35  1  0
 31 32  1  0
 36 35  1  0
 35 34  2  0
 32 33  2  0
 34 33  1  0
  6 38  1  0
  9 39  1  0
 10 40  1  0
 14 41  1  0
 16 42  1  0
 19 43  1  0
 19 44  1  0
 20 45  1  0
 20 46  1  0
 22 47  1  0
 22 48  1  0
 22 49  1  0
 23 50  1  0
 23 51  1  0
 24 52  1  0
 24 53  1  0
 25 54  1  0
 26 55  1  0
 29 56  1  0
 31 57  1  0
 32 58  1  0
 33 59  1  0
 34 60  1  0
 37 61  1  0
A    1
FAD
A    2
CBK
A    3
FAE
A    4
FAF
A    5
CBE
A    6
CAP
A    7
CBF
A    8
OAC
A    9
NAX
A   10
CAN
A   11
CBC
A   12
CAY
A   13
OAB
A   14
NAW
A   15
CBB
A   16
CAO
A   17
CBD
A   18
NBJ
A   19
CAT
A   20
CAR
A   21
NBI
A   22
CAA
A   23
CAS
A   24
CAU
A   25
CAJ
A   26
CAI
A   27
CAZ
A   28
CBA
A   29
CAQ
A   30
CBG
A   31
CAK
A   32
CAG
A   33
CAH
A   34
CAL
A   35
CBH
A   36
NAV
A   37
CAM
M  END
