4QQN_3BQ_A_601
     RDKit          3D

 50 52  0  0  0  0  0  0  0  0999 V2000
   -3.0640   -4.3130   31.7780 O   0  0  0  0  0  0  0  0  0  0  0  0
   -2.0290   -4.2680   32.4430 C   0  0  0  0  0  0  0  0  0  0  0  0
   -0.7710   -4.3660   31.9070 N   0  0  0  0  0  0  0  0  0  0  0  0
   -0.3870   -4.8560   30.6390 C   0  0  0  0  0  0  0  0  0  0  0  0
   -1.2720   -5.4310   29.7470 C   0  0  0  0  0  0  0  0  0  0  0  0
   -0.8450   -5.8220   28.4560 C   0  0  0  0  0  0  0  0  0  0  0  0
   -1.7070   -6.4140   27.5080 C   0  0  0  0  0  0  0  0  0  0  0  0
   -1.2110   -6.7710   26.2890 C   0  0  0  0  0  0  0  0  0  0  0  0
    0.0640   -6.6080   25.9170 N   0  0  0  0  0  0  0  0  0  0  0  0
    0.8940   -6.0520   26.7970 C   0  0  0  0  0  0  0  0  0  0  0  0
    0.5060   -5.6200   28.0930 C   0  0  0  0  0  0  0  0  0  0  0  0
    1.3840   -5.0310   29.0310 C   0  0  0  0  0  0  0  0  0  0  0  0
    0.9450   -4.6600   30.2680 C   0  0  0  0  0  0  0  0  0  0  0  0
   -2.0260   -4.0970   33.7770 N   0  0  0  0  0  0  0  0  0  0  0  0
   -3.1640   -3.5630   34.5120 C   0  0  0  0  0  0  0  0  0  0  0  0
   -3.4910   -4.5220   35.6290 C   0  0  0  0  0  0  0  0  0  0  0  0
   -4.6650   -4.1330   36.5470 C   0  0  0  0  0  0  0  0  0  0  0  0
   -4.1980   -3.2720   37.7410 C   0  0  0  0  0  0  0  0  0  0  0  0
   -4.5980   -1.8780   37.6590 N   0  0  0  0  0  0  0  0  0  0  0  0
   -5.3010   -5.4200   37.1000 C   0  0  0  0  0  0  0  0  0  0  0  0
   -6.5560   -5.1730   37.9240 C   0  0  0  0  0  0  0  0  0  0  0  0
   -7.5810   -4.3750   37.1370 C   0  0  0  0  0  0  0  0  0  0  0  0
   -6.9940   -3.0730   36.6340 C   0  0  0  0  0  0  0  0  0  0  0  0
   -5.7410   -3.3210   35.8050 C   0  0  0  0  0  0  0  0  0  0  0  0
   -0.0027   -4.0384   32.5098 H   0  0  0  0  0  0  0  0  0  0  0  0
   -2.3197   -5.5864   30.0438 H   0  0  0  0  0  0  0  0  0  0  0  0
   -2.7664   -6.5854   27.7497 H   0  0  0  0  0  0  0  0  0  0  0  0
   -1.9043   -7.2225   25.5641 H   0  0  0  0  0  0  0  0  0  0  0  0
    1.9453   -5.9190   26.5020 H   0  0  0  0  0  0  0  0  0  0  0  0
    2.4376   -4.8693   28.7593 H   0  0  0  0  0  0  0  0  0  0  0  0
    1.6470   -4.2020   30.9803 H   0  0  0  0  0  0  0  0  0  0  0  0
   -1.1793   -4.3558   34.3033 H   0  0  0  0  0  0  0  0  0  0  0  0
   -2.9095   -2.5775   34.9291 H   0  0  0  0  0  0  0  0  0  0  0  0
   -4.0296   -3.4470   33.8432 H   0  0  0  0  0  0  0  0  0  0  0  0
   -3.7300   -5.4950   35.1749 H   0  0  0  0  0  0  0  0  0  0  0  0
   -2.6030   -4.5266   36.2781 H   0  0  0  0  0  0  0  0  0  0  0  0
   -4.6217   -3.6994   38.6618 H   0  0  0  0  0  0  0  0  0  0  0  0
   -3.0981   -3.2875   37.7325 H   0  0  0  0  0  0  0  0  0  0  0  0
   -4.7077   -1.4958   38.6092 H   0  0  0  0  0  0  0  0  0  0  0  0
   -3.8766   -1.3429   37.1548 H   0  0  0  0  0  0  0  0  0  0  0  0
   -5.5636   -6.0702   36.2525 H   0  0  0  0  0  0  0  0  0  0  0  0
   -4.5614   -5.8839   37.7692 H   0  0  0  0  0  0  0  0  0  0  0  0
   -6.9954   -6.1407   38.2076 H   0  0  0  0  0  0  0  0  0  0  0  0
   -6.2777   -4.5966   38.8186 H   0  0  0  0  0  0  0  0  0  0  0  0
   -8.4397   -4.1535   37.7879 H   0  0  0  0  0  0  0  0  0  0  0  0
   -7.8957   -4.9730   36.2690 H   0  0  0  0  0  0  0  0  0  0  0  0
   -6.7356   -2.4390   37.4950 H   0  0  0  0  0  0  0  0  0  0  0  0
   -7.7410   -2.5754   35.9981 H   0  0  0  0  0  0  0  0  0  0  0  0
   -5.3111   -2.3482   35.5241 H   0  0  0  0  0  0  0  0  0  0  0  0
   -6.0448   -3.9116   34.9281 H   0  0  0  0  0  0  0  0  0  0  0  0
  9  8  1  0
  9 10  2  0
  8  7  2  0
 10 11  1  0
  7  6  1  0
 11  6  1  0
 11 12  2  0
  6  5  2  0
 12 13  1  0
  5  4  1  0
 13  4  2  0
  4  3  1  0
  1  2  2  0
  3  2  1  0
  2 14  1  0
 14 15  1  0
 15 16  1  0
 16 17  1  0
 24 17  1  0
 24 23  1  0
 17 20  1  0
 17 18  1  0
 23 22  1  0
 20 21  1  0
 22 21  1  0
 19 18  1  0
  3 25  1  0
  5 26  1  0
  7 27  1  0
  8 28  1  0
 10 29  1  0
 12 30  1  0
 13 31  1  0
 14 32  1  0
 15 33  1  0
 15 34  1  0
 16 35  1  0
 16 36  1  0
 18 37  1  0
 18 38  1  0
 19 39  1  0
 19 40  1  0
 20 41  1  0
 20 42  1  0
 21 43  1  0
 21 44  1  0
 22 45  1  0
 22 46  1  0
 23 47  1  0
 23 48  1  0
 24 49  1  0
 24 50  1  0
A    1
O
A    2
C4
A    3
N2
A    4
C5
A    5
C13
A    6
C12
A    7
C11
A    8
C10
A    9
N3
A   10
C9
A   11
C8
A   12
C7
A   13
C6
A   14
N1
A   15
C3
A   16
C2
A   17
C1
A   18
C
A   19
N
A   20
C18
A   21
C17
A   22
C16
A   23
C15
A   24
C14
M  END
