4QR6_37V_A_402
     RDKit          3D

 38 40  0  0  0  0  0  0  0  0999 V2000
   66.3610   -7.5610   38.7690 N   0  0  0  0  0  0  0  0  0  0  0  0
   67.2170   -6.8150   37.8430 C   0  0  0  0  0  0  0  0  0  0  0  0
   66.3870   -6.1410   36.7830 C   0  0  0  0  0  0  0  0  0  0  0  0
   64.6560   -6.5300   36.6220 S   0  0  0  0  0  0  0  0  0  0  0  0
   64.6310   -5.3720   35.2990 C   0  0  0  0  0  0  0  0  0  0  0  0
   63.5020   -5.0370   34.5410 C   0  0  0  0  0  0  0  0  0  0  0  0
   63.6800   -4.0860   33.5350 C   0  0  0  0  0  0  0  0  0  0  0  0
   64.9400   -3.5110   33.3100 C   0  0  0  0  0  0  0  0  0  0  0  0
   66.0600   -3.8570   34.0850 C   0  0  0  0  0  0  0  0  0  0  0  0
   65.8770   -4.8040   35.0860 C   0  0  0  0  0  0  0  0  0  0  0  0
   66.8120   -5.2790   35.9450 N   0  0  0  0  0  0  0  0  0  0  0  0
   66.2430   -8.9050   38.6650 C   0  0  0  0  0  0  0  0  0  0  0  0
   66.7920   -9.5370   37.7750 O   0  0  0  0  0  0  0  0  0  0  0  0
   65.3240   -9.6100   39.6360 C   0  0  0  0  0  0  0  0  0  0  0  0
   64.6690  -10.7550   39.1990 C   0  0  0  0  0  0  0  0  0  0  0  0
   63.7770  -11.4330   40.0240 C   0  0  0  0  0  0  0  0  0  0  0  0
   63.5470  -10.9360   41.3040 C   0  0  0  0  0  0  0  0  0  0  0  0
   62.6960  -11.5740   42.0970 F   0  0  0  0  0  0  0  0  0  0  0  0
   64.1950   -9.7930   41.7630 C   0  0  0  0  0  0  0  0  0  0  0  0
   65.0780   -9.1250   40.9210 C   0  0  0  0  0  0  0  0  0  0  0  0
   65.7720   -8.0010   41.3340 O   0  0  0  0  0  0  0  0  0  0  0  0
   65.2200   -7.2660   42.4300 C   0  0  0  0  0  0  0  0  0  0  0  0
   64.0600   -6.4510   41.9390 C   0  0  0  0  0  0  0  0  0  0  0  0
   63.3170   -5.9480   42.9180 O   0  0  0  0  0  0  0  0  0  0  0  0
   63.8620   -6.2660   40.7450 O   0  0  0  0  0  0  0  0  0  0  0  0
   65.8449   -7.0583   39.5051 H   0  0  0  0  0  0  0  0  0  0  0  0
   67.9223   -7.5094   37.3631 H   0  0  0  0  0  0  0  0  0  0  0  0
   67.7655   -6.0463   38.4071 H   0  0  0  0  0  0  0  0  0  0  0  0
   62.5225   -5.5008   34.7293 H   0  0  0  0  0  0  0  0  0  0  0  0
   62.8245   -3.7845   32.9127 H   0  0  0  0  0  0  0  0  0  0  0  0
   65.0541   -2.7696   32.5055 H   0  0  0  0  0  0  0  0  0  0  0  0
   67.0429   -3.3965   33.9065 H   0  0  0  0  0  0  0  0  0  0  0  0
   64.8590  -11.1319   38.1832 H   0  0  0  0  0  0  0  0  0  0  0  0
   63.2651  -12.3411   39.6729 H   0  0  0  0  0  0  0  0  0  0  0  0
   64.0107   -9.4215   42.7818 H   0  0  0  0  0  0  0  0  0  0  0  0
   64.8766   -7.9651   43.2068 H   0  0  0  0  0  0  0  0  0  0  0  0
   65.9869   -6.6015   42.8546 H   0  0  0  0  0  0  0  0  0  0  0  0
   63.5634   -6.1148   43.8622 H   0  0  0  0  0  0  0  0  0  0  0  0
  8  7  2  0
  8  9  1  0
  7  6  1  0
  9 10  2  0
  6  5  2  0
 10  5  1  0
 10 11  1  0
  5  4  1  0
 11  3  2  0
  4  3  1  0
  3  2  1  0
 13 12  2  0
  2  1  1  0
 12  1  1  0
 12 14  1  0
 15 14  2  0
 15 16  1  0
 14 20  1  0
 16 17  2  0
 25 23  2  0
 20 21  1  0
 20 19  2  0
 17 19  1  0
 17 18  1  0
 21 22  1  0
 23 22  1  0
 23 24  1  0
  1 26  1  0
  2 27  1  0
  2 28  1  0
  6 29  1  0
  7 30  1  0
  8 31  1  0
  9 32  1  0
 15 33  1  0
 16 34  1  0
 19 35  1  0
 22 36  1  0
 22 37  1  0
 24 38  1  0
A    1
N1
A    2
C3
A    3
C4
A    4
S5
A    5
C6
A    6
C7
A    7
C8
A    8
C9
A    9
C10
A   10
C12
A   11
N13
A   12
C19
A   13
O20
A   14
C21
A   15
C22
A   16
C24
A   17
C26
A   18
F27
A   19
C28
A   20
C30
A   21
O31
A   22
C32
A   23
C33
A   24
O34
A   25
O36
M  END
