4QSA_EWW_A_302
     RDKit          3D

 35 36  0  0  0  0  0  0  0  0999 V2000
   -6.5770    3.8670   17.2090 Cl  0  0  0  0  0  0  0  0  0  0  0  0
   -5.5670    3.4300   15.8630 C   0  0  0  0  0  0  0  0  0  0  0  0
   -5.2030    2.0690   15.6770 C   0  0  0  0  0  0  0  0  0  0  0  0
   -5.8280    0.7670   16.7580 S   0  0  0  0  0  0  0  0  0  0  0  0
   -7.3400    0.8330   16.5860 O   0  0  0  0  0  0  0  0  0  0  0  0
   -5.2760   -0.6590   16.0920 N   0  0  0  0  0  0  0  0  0  0  0  0
   -5.2720    0.9820   18.1540 O   0  0  0  0  0  0  0  0  0  0  0  0
   -4.3270    1.6980   14.6350 C   0  0  0  0  0  0  0  0  0  0  0  0
   -5.1120    4.4460   15.0750 C   0  0  0  0  0  0  0  0  0  0  0  0
   -4.2280    4.0960   14.0250 C   0  0  0  0  0  0  0  0  0  0  0  0
   -3.8610    2.7370   13.8040 C   0  0  0  0  0  0  0  0  0  0  0  0
   -3.7240    5.1880   13.1780 C   0  0  0  0  0  0  0  0  0  0  0  0
   -4.3830    6.1720   12.9400 O   0  0  0  0  0  0  0  0  0  0  0  0
   -2.3320    5.0740   12.6700 C   0  0  0  0  0  0  0  0  0  0  0  0
   -2.0340    6.3930   11.4570 S   0  0  0  0  0  0  0  0  0  0  0  0
   -1.6840    7.7850   12.5320 C   0  0  0  0  0  0  0  0  0  0  0  0
   -1.5740    9.0280   11.9650 N   0  0  0  0  0  0  0  0  0  0  0  0
   -1.3140   10.1260   12.7730 C   0  0  0  0  0  0  0  0  0  0  0  0
   -1.2030   11.2520   12.3010 O   0  0  0  0  0  0  0  0  0  0  0  0
   -1.1550    9.9530   14.1390 C   0  0  0  0  0  0  0  0  0  0  0  0
   -1.2800    8.6670   14.6670 C   0  0  0  0  0  0  0  0  0  0  0  0
   -1.5560    7.5940   13.8810 N   0  0  0  0  0  0  0  0  0  0  0  0
   -1.1340    8.4740   16.1020 C   0  0  0  0  0  0  0  0  0  0  0  0
   -5.0224   -1.3142   16.8452 H   0  0  0  0  0  0  0  0  0  0  0  0
   -6.0166   -1.0753   15.5097 H   0  0  0  0  0  0  0  0  0  0  0  0
   -4.0234    0.6523   14.4792 H   0  0  0  0  0  0  0  0  0  0  0  0
   -5.4173    5.4887   15.2469 H   0  0  0  0  0  0  0  0  0  0  0  0
   -3.1963    2.4921   12.9625 H   0  0  0  0  0  0  0  0  0  0  0  0
   -2.1938    4.0939   12.1902 H   0  0  0  0  0  0  0  0  0  0  0  0
   -1.6229    5.1707   13.5053 H   0  0  0  0  0  0  0  0  0  0  0  0
   -1.6834    9.1462   10.9477 H   0  0  0  0  0  0  0  0  0  0  0  0
   -0.9352   10.8101   14.7924 H   0  0  0  0  0  0  0  0  0  0  0  0
   -1.7142    9.2410   16.6360 H   0  0  0  0  0  0  0  0  0  0  0  0
   -1.5050    7.4757   16.3773 H   0  0  0  0  0  0  0  0  0  0  0  0
   -0.0724    8.5594   16.3773 H   0  0  0  0  0  0  0  0  0  0  0  0
 15 16  1  0
 15 14  1  0
 17 16  1  0
 17 18  1  0
 19 18  2  0
 16 22  2  0
 14 12  1  0
 18 20  1  0
 13 12  2  0
 12 10  1  0
 11 10  2  0
 11  8  1  0
 22 21  1  0
 10  9  1  0
 20 21  2  0
  8  3  2  0
 21 23  1  0
  9  2  2  0
  3  2  1  0
  3  4  1  0
  2  1  1  0
  6  4  1  0
  5  4  2  0
  4  7  2  0
  6 24  1  0
  6 25  1  0
  8 26  1  0
  9 27  1  0
 11 28  1  0
 14 29  1  0
 14 30  1  0
 17 31  1  0
 20 32  1  0
 23 33  1  0
 23 34  1  0
 23 35  1  0
A    1
CL
A    2
C3
A    3
C4
A    4
S6
A    5
O8
A    6
N11
A    7
O7
A    8
C5
A    9
C2
A   10
C22
A   11
C1
A   12
C9
A   13
O12
A   14
C10
A   15
S13
A   16
C14
A   17
N17
A   18
C18
A   19
O21
A   20
C19
A   21
C16
A   22
N15
A   23
C20
M  END
