2J4H_YYY_A_1175
     RDKit          3D

 39 40  0  0  0  0  0  0  0  0999 V2000
   11.4810  -10.0700   20.7450 O   0  0  0  0  0  0  0  0  0  0  0  0
   11.9370   -9.8180   22.2480 P   0  0  0  0  0  0  0  0  0  0  0  0
   11.2300  -10.9190   23.1340 O   0  0  0  0  0  0  0  0  0  0  0  0
   13.5410   -9.8860   22.3670 O   0  0  0  0  0  0  0  0  0  0  0  0
   11.5830   -8.2750   22.6620 O   0  0  0  0  0  0  0  0  0  0  0  0
   10.6100   -7.7600   23.8600 P   0  0  0  0  0  0  0  0  0  0  0  0
   10.4010   -8.9370   24.9000 O   0  0  0  0  0  0  0  0  0  0  0  0
    9.1970   -7.2120   23.3420 O   0  0  0  0  0  0  0  0  0  0  0  0
   11.4710   -6.5860   24.5100 O   0  0  0  0  0  0  0  0  0  0  0  0
   12.6330   -6.9740   25.1990 C   0  0  0  0  0  0  0  0  0  0  0  0
   13.5230   -5.7720   25.4630 C   0  0  0  0  0  0  0  0  0  0  0  0
   13.8920   -5.0320   24.2910 O   0  0  0  0  0  0  0  0  0  0  0  0
   12.9700   -4.8010   26.5110 C   0  0  0  0  0  0  0  0  0  0  0  0
   13.5570   -4.9580   27.7850 O   0  0  0  0  0  0  0  0  0  0  0  0
   13.2180   -3.4270   25.9420 C   0  0  0  0  0  0  0  0  0  0  0  0
   13.7750   -3.6280   24.5320 C   0  0  0  0  0  0  0  0  0  0  0  0
   12.8860   -2.8940   23.6080 N   0  0  0  0  0  0  0  0  0  0  0  0
   13.4170   -2.0050   22.6420 C   0  0  0  0  0  0  0  0  0  0  0  0
   14.6630   -1.8610   22.5300 O   0  0  0  0  0  0  0  0  0  0  0  0
   12.5580   -1.3210   21.8330 N   0  0  0  0  0  0  0  0  0  0  0  0
   11.2090   -1.4560   21.9290 C   0  0  0  0  0  0  0  0  0  0  0  0
   10.3730   -0.7700   21.1150 N   0  0  0  0  0  0  0  0  0  0  0  0
   10.6830   -2.3190   22.8780 C   0  0  0  0  0  0  0  0  0  0  0  0
   11.5440   -3.0210   23.7120 C   0  0  0  0  0  0  0  0  0  0  0  0
   10.6145  -10.5488   20.7389 H   0  0  0  0  0  0  0  0  0  0  0  0
   13.8009   -9.8970   23.3222 H   0  0  0  0  0  0  0  0  0  0  0  0
    8.6244   -6.9899   24.1185 H   0  0  0  0  0  0  0  0  0  0  0  0
   12.3490   -7.4314   26.1582 H   0  0  0  0  0  0  0  0  0  0  0  0
   13.1867   -7.6972   24.5823 H   0  0  0  0  0  0  0  0  0  0  0  0
   14.4310   -6.2437   25.8669 H   0  0  0  0  0  0  0  0  0  0  0  0
   11.9014   -4.9897   26.6914 H   0  0  0  0  0  0  0  0  0  0  0  0
   12.8804   -4.7770   28.4847 H   0  0  0  0  0  0  0  0  0  0  0  0
   12.2771   -2.8587   25.9003 H   0  0  0  0  0  0  0  0  0  0  0  0
   13.9232   -2.8611   26.5685 H   0  0  0  0  0  0  0  0  0  0  0  0
   14.7871   -3.2227   24.3855 H   0  0  0  0  0  0  0  0  0  0  0  0
    9.6402   -0.1687   21.5180 H   0  0  0  0  0  0  0  0  0  0  0  0
   10.4696   -0.8493   20.0926 H   0  0  0  0  0  0  0  0  0  0  0  0
    9.5943   -2.4466   22.9697 H   0  0  0  0  0  0  0  0  0  0  0  0
   11.1248   -3.6949   24.4736 H   0  0  0  0  0  0  0  0  0  0  0  0
  1  2  1  0
  2  3  2  0
  2  4  1  0
  2  5  1  0
  5  6  1  0
  6  7  2  0
  6  8  1  0
  6  9  1  0
  9 10  1  0
 10 11  1  0
 11 12  1  0
 11 13  1  0
 12 16  1  0
 13 14  1  0
 13 15  1  0
 15 16  1  0
 16 17  1  0
 17 18  1  0
 17 24  1  0
 18 19  2  0
 18 20  1  0
 20 21  2  0
 21 22  1  0
 21 23  1  0
 23 24  2  0
  1 25  1  0
  4 26  1  0
  8 27  1  0
 10 28  1  0
 10 29  1  0
 11 30  1  0
 13 31  1  0
 14 32  1  0
 15 33  1  0
 15 34  1  0
 16 35  1  0
 22 36  1  0
 22 37  1  0
 23 38  1  0
 24 39  1  0
A    1
O3B
A    2
PB
A    3
O1B
A    4
O2B
A    5
O3A
A    6
PA
A    7
O1A
A    8
O2A
A    9
O5'
A   10
C5'
A   11
C4'
A   12
O4'
A   13
C3'
A   14
O3'
A   15
C2'
A   16
C1'
A   17
N1
A   18
C2
A   19
O2
A   20
N3
A   21
C4
A   22
N4
A   23
C5
A   24
C6
M  END
