4QWE_FTD_A_701
     RDKit          3D

 38 39  0  0  0  0  0  0  0  0999 V2000
   31.2250   11.2840   14.2790 O   0  0  0  0  0  0  0  0  0  0  0  0
   30.7870   12.1810   15.0080 C   0  0  0  0  0  0  0  0  0  0  0  0
   31.5220   13.2720   15.3290 N   0  0  0  0  0  0  0  0  0  0  0  0
   31.0270   14.2660   16.1320 C   0  0  0  0  0  0  0  0  0  0  0  0
   31.7810   15.3660   16.4360 N   0  0  0  0  0  0  0  0  0  0  0  0
   29.7560   14.1410   16.6420 C   0  0  0  0  0  0  0  0  0  0  0  0
   29.2670   15.0780   17.4250 F   0  0  0  0  0  0  0  0  0  0  0  0
   28.9650   13.0410   16.3390 C   0  0  0  0  0  0  0  0  0  0  0  0
   29.5350   11.9960   15.5940 N   0  0  0  0  0  0  0  0  0  0  0  0
   28.7130   10.8880   15.0970 C   0  0  0  0  0  0  0  0  0  0  0  0
   27.9090   10.5090   16.1840 O   0  0  0  0  0  0  0  0  0  0  0  0
   27.8040   11.2370   13.8970 C   0  0  0  0  0  0  0  0  0  0  0  0
   26.4470   10.1500   14.1630 S   0  0  0  0  0  0  0  0  0  0  0  0
   26.8790    9.5990   15.7750 C   0  0  0  0  0  0  0  0  0  0  0  0
   25.6800    9.7930   16.6860 C   0  0  0  0  0  0  0  0  0  0  0  0
   26.1520    9.4970   17.9970 O   0  0  0  0  0  0  0  0  0  0  0  0
   25.2970    9.8640   19.2890 P   0  0  0  0  0  0  0  0  0  0  0  0
   23.8980    9.3440   19.1100 O   0  0  0  0  0  0  0  0  0  0  0  0
   26.2250    9.3940   20.3510 O   0  0  0  0  0  0  0  0  0  0  0  0
   25.1730   11.4590   19.2460 O   0  0  0  0  0  0  0  0  0  0  0  0
   24.0090   12.2570   20.0480 P   0  0  0  0  0  0  0  0  0  0  0  0
   22.8060   11.9600   19.2240 O   0  0  0  0  0  0  0  0  0  0  0  0
   23.8230   11.6160   21.4230 O   0  0  0  0  0  0  0  0  0  0  0  0
   24.3660   13.7100   20.1660 O   0  0  0  0  0  0  0  0  0  0  0  0
   32.4796   13.3571   14.9594 H   0  0  0  0  0  0  0  0  0  0  0  0
   31.9528   15.6166   17.4202 H   0  0  0  0  0  0  0  0  0  0  0  0
   32.1770   15.9437   15.6808 H   0  0  0  0  0  0  0  0  0  0  0  0
   28.0977   13.4099   15.7718 H   0  0  0  0  0  0  0  0  0  0  0  0
   28.7439   12.5881   17.3167 H   0  0  0  0  0  0  0  0  0  0  0  0
   29.3801   10.0973   14.7230 H   0  0  0  0  0  0  0  0  0  0  0  0
   28.3042   11.0295   12.9395 H   0  0  0  0  0  0  0  0  0  0  0  0
   27.5247   12.2993   13.8380 H   0  0  0  0  0  0  0  0  0  0  0  0
   27.1900    8.5443   15.8063 H   0  0  0  0  0  0  0  0  0  0  0  0
   25.3188   10.8306   16.6317 H   0  0  0  0  0  0  0  0  0  0  0  0
   24.8375    9.1471   16.3980 H   0  0  0  0  0  0  0  0  0  0  0  0
   25.8361    9.5909   21.2399 H   0  0  0  0  0  0  0  0  0  0  0  0
   24.0168   12.2840   22.1275 H   0  0  0  0  0  0  0  0  0  0  0  0
   24.4270   13.9582   21.1224 H   0  0  0  0  0  0  0  0  0  0  0  0
 12 13  1  0
 12 10  1  0
 13 14  1  0
  1  2  2  0
  2  3  1  0
  2  9  1  0
 10  9  1  0
 10 11  1  0
  3  4  1  0
  9  8  1  0
 14 11  1  0
 14 15  1  0
  4  5  1  0
  4  6  2  0
  8  6  1  0
  6  7  1  0
 15 16  1  0
 16 17  1  0
 18 17  2  0
 22 21  2  0
 20 17  1  0
 20 21  1  0
 17 19  1  0
 21 24  1  0
 21 23  1  0
  3 25  1  0
  5 26  1  0
  5 27  1  0
  8 28  1  0
  8 29  1  0
 10 30  1  0
 12 31  1  0
 12 32  1  0
 14 33  1  0
 15 34  1  0
 15 35  1  0
 19 36  1  0
 23 37  1  0
 24 38  1  0
A    1
O2
A    2
C2
A    3
N3
A    4
C4
A    5
N4
A    6
C5
A    7
F5
A    8
C6
A    9
N1
A   10
C1'
A   11
O4'
A   12
C2'
A   13
S3'
A   14
C4'
A   15
C5'
A   16
O5'
A   17
PA
A   18
O1A
A   19
O3A
A   20
O2A
A   21
PB
A   22
O3B
A   23
O2B
A   24
O1B
M  END
