4QXM_713_A_302
     RDKit          3D

 45 47  0  0  0  0  0  0  0  0999 V2000
  -24.3800   14.6110   34.0370 Cl  0  0  0  0  0  0  0  0  0  0  0  0
  -25.6510   15.4600   34.8070 C   0  0  0  0  0  0  0  0  0  0  0  0
  -26.1610   16.5910   34.1800 C   0  0  0  0  0  0  0  0  0  0  0  0
  -27.1920   17.3140   34.7600 C   0  0  0  0  0  0  0  0  0  0  0  0
  -27.6980   18.4710   34.0920 F   0  0  0  0  0  0  0  0  0  0  0  0
  -27.7120   16.8880   35.9780 C   0  0  0  0  0  0  0  0  0  0  0  0
  -27.2050   15.7520   36.6140 C   0  0  0  0  0  0  0  0  0  0  0  0
  -26.1660   15.0300   36.0320 C   0  0  0  0  0  0  0  0  0  0  0  0
  -25.6560   13.8740   36.6610 C   0  0  0  0  0  0  0  0  0  0  0  0
  -26.1100   12.6930   35.9030 N   0  0  0  0  0  0  0  0  0  0  0  0
  -27.3850   12.2680   35.9480 C   0  0  0  0  0  0  0  0  0  0  0  0
  -28.2590   12.8140   36.6250 O   0  0  0  0  0  0  0  0  0  0  0  0
  -27.7050   11.1990   35.1010 C   0  0  0  0  0  0  0  0  0  0  0  0
  -26.8120   10.7790   34.1180 C   0  0  0  0  0  0  0  0  0  0  0  0
  -27.1540    9.7310   33.2660 C   0  0  0  0  0  0  0  0  0  0  0  0
  -28.9490   10.5830   35.2080 C   0  0  0  0  0  0  0  0  0  0  0  0
  -29.2900    9.5370   34.3570 C   0  0  0  0  0  0  0  0  0  0  0  0
  -28.3940    9.1080   33.3790 C   0  0  0  0  0  0  0  0  0  0  0  0
  -28.7430    8.0480   32.5210 C   0  0  0  0  0  0  0  0  0  0  0  0
  -28.4180    8.3570   31.0820 N   0  0  0  0  0  0  0  0  0  0  0  0
  -27.5380    7.7200   30.3660 N   0  0  0  0  0  0  0  0  0  0  0  0
  -27.5390    8.2730   29.1460 C   0  0  0  0  0  0  0  0  0  0  0  0
  -26.6490    7.8500   27.9730 C   0  0  0  0  0  0  0  0  0  0  0  0
  -28.4260    9.2590   29.0790 C   0  0  0  0  0  0  0  0  0  0  0  0
  -28.9660    9.2920   30.2920 C   0  0  0  0  0  0  0  0  0  0  0  0
  -30.0600   10.2830   30.6960 C   0  0  0  0  0  0  0  0  0  0  0  0
  -25.7430   16.9151   33.2155 H   0  0  0  0  0  0  0  0  0  0  0  0
  -28.5321   17.4523   36.4459 H   0  0  0  0  0  0  0  0  0  0  0  0
  -27.6273   15.4272   37.5764 H   0  0  0  0  0  0  0  0  0  0  0  0
  -26.0289   13.8181   37.6943 H   0  0  0  0  0  0  0  0  0  0  0  0
  -24.5568   13.9094   36.6830 H   0  0  0  0  0  0  0  0  0  0  0  0
  -25.4314   12.1794   35.3229 H   0  0  0  0  0  0  0  0  0  0  0  0
  -25.8358   11.2752   34.0143 H   0  0  0  0  0  0  0  0  0  0  0  0
  -26.4404    9.3939   32.4998 H   0  0  0  0  0  0  0  0  0  0  0  0
  -29.6656   10.9252   35.9692 H   0  0  0  0  0  0  0  0  0  0  0  0
  -30.2697    9.0468   34.4560 H   0  0  0  0  0  0  0  0  0  0  0  0
  -29.8234    7.8607   32.6089 H   0  0  0  0  0  0  0  0  0  0  0  0
  -28.1607    7.1635   32.8188 H   0  0  0  0  0  0  0  0  0  0  0  0
  -25.7188    7.4079   28.3593 H   0  0  0  0  0  0  0  0  0  0  0  0
  -27.1801    7.1080   27.3587 H   0  0  0  0  0  0  0  0  0  0  0  0
  -26.4090    8.7304   27.3587 H   0  0  0  0  0  0  0  0  0  0  0  0
  -28.6598    9.9010   28.2169 H   0  0  0  0  0  0  0  0  0  0  0  0
  -30.1192   10.3366   31.7931 H   0  0  0  0  0  0  0  0  0  0  0  0
  -29.8206   11.2780   30.2926 H   0  0  0  0  0  0  0  0  0  0  0  0
  -31.0265    9.9467   30.2926 H   0  0  0  0  0  0  0  0  0  0  0  0
 23 22  1  0
 22 24  1  0
 22 21  2  0
 24 25  2  0
 21 20  1  0
 25 20  1  0
 25 26  1  0
 20 19  1  0
 19 18  1  0
 18 17  2  0
 18 15  1  0
 17 16  1  0
 15 14  2  0
 16 13  2  0
 14 13  1  0
 13 11  1  0
  1  2  1  0
 11 10  1  0
 11 12  2  0
 10  9  1  0
  3  2  2  0
  3  4  1  0
  2  8  1  0
  5  4  1  0
  4  6  2  0
  8  9  1  0
  8  7  2  0
  6  7  1  0
  3 27  1  0
  6 28  1  0
  7 29  1  0
  9 30  1  0
  9 31  1  0
 10 32  1  0
 14 33  1  0
 15 34  1  0
 16 35  1  0
 17 36  1  0
 19 37  1  0
 19 38  1  0
 23 39  1  0
 23 40  1  0
 23 41  1  0
 24 42  1  0
 26 43  1  0
 26 44  1  0
 26 45  1  0
A    1
CL1
A    2
C17
A    3
C19
A    4
C20
A    5
F21
A    6
C22
A    7
C23
A    8
C16
A    9
C15
A   10
N14
A   11
C13
A   12
O24
A   13
C12
A   14
C25
A   15
C26
A   16
C11
A   17
C10
A   18
C9
A   19
C8
A   20
N4
A   21
N3
A   22
C2
A   23
C1
A   24
C7
A   25
C5
A   26
C6
M  END
