4LOL_1YE_A_401
     RDKit          3D

 35 37  0  0  0  0  0  0  0  0999 V2000
   23.1110  -30.8760  -10.6410 O   0  0  0  0  0  0  0  0  0  0  0  0
   22.1300  -30.2280  -11.0450 C   0  0  0  0  0  0  0  0  0  0  0  0
   21.2720  -29.5080  -10.2110 C   0  0  0  0  0  0  0  0  0  0  0  0
   21.5440  -29.3770   -8.8630 C   0  0  0  0  0  0  0  0  0  0  0  0
   20.6730  -28.6330   -8.0800 C   0  0  0  0  0  0  0  0  0  0  0  0
   19.5240  -28.0330   -8.5890 C   0  0  0  0  0  0  0  0  0  0  0  0
   18.7060  -27.2870   -7.6810 C   0  0  0  0  0  0  0  0  0  0  0  0
   19.2460  -28.1470   -9.9590 C   0  0  0  0  0  0  0  0  0  0  0  0
   18.1100  -27.5780  -10.5740 C   0  0  0  0  0  0  0  0  0  0  0  0
   20.1230  -28.8750  -10.7180 C   0  0  0  0  0  0  0  0  0  0  0  0
   19.7800  -28.9590  -12.0050 O   0  0  0  0  0  0  0  0  0  0  0  0
   20.6480  -29.5490  -12.8470 C   0  0  0  0  0  0  0  0  0  0  0  0
   21.8200  -30.1760  -12.3910 C   0  0  0  0  0  0  0  0  0  0  0  0
   22.6710  -30.7730  -13.2930 C   0  0  0  0  0  0  0  0  0  0  0  0
   22.3480  -30.7360  -14.6200 C   0  0  0  0  0  0  0  0  0  0  0  0
   21.1880  -30.0940  -15.0450 C   0  0  0  0  0  0  0  0  0  0  0  0
   20.3200  -29.4760  -14.1750 C   0  0  0  0  0  0  0  0  0  0  0  0
   19.1550  -28.8370  -14.6250 C   0  0  0  0  0  0  0  0  0  0  0  0
   19.0900  -27.3080  -14.2660 C   0  0  0  0  0  0  0  0  0  0  0  0
   20.1160  -26.6510  -14.0180 O   0  0  0  0  0  0  0  0  0  0  0  0
   17.9630  -26.7880  -14.2440 O   0  0  0  0  0  0  0  0  0  0  0  0
   22.4317  -29.8521   -8.4200 H   0  0  0  0  0  0  0  0  0  0  0  0
   20.9000  -28.5118   -7.0105 H   0  0  0  0  0  0  0  0  0  0  0  0
   18.9825  -27.5391   -6.6466 H   0  0  0  0  0  0  0  0  0  0  0  0
   18.8588  -26.2108   -7.8494 H   0  0  0  0  0  0  0  0  0  0  0  0
   17.6483  -27.5380   -7.8494 H   0  0  0  0  0  0  0  0  0  0  0  0
   17.4109  -27.2278   -9.8003 H   0  0  0  0  0  0  0  0  0  0  0  0
   18.4191  -26.7283  -11.2005 H   0  0  0  0  0  0  0  0  0  0  0  0
   17.6147  -28.3344  -11.2005 H   0  0  0  0  0  0  0  0  0  0  0  0
   23.5917  -31.2694  -12.9527 H   0  0  0  0  0  0  0  0  0  0  0  0
   23.0084  -31.2163  -15.3570 H   0  0  0  0  0  0  0  0  0  0  0  0
   20.9562  -30.0804  -16.1202 H   0  0  0  0  0  0  0  0  0  0  0  0
   18.2874  -29.3371  -14.1698 H   0  0  0  0  0  0  0  0  0  0  0  0
   19.1546  -28.9083  -15.7227 H   0  0  0  0  0  0  0  0  0  0  0  0
   20.3805  -26.4817  -13.0791 H   0  0  0  0  0  0  0  0  0  0  0  0
 16 15  2  0
 16 17  1  0
 18 19  1  0
 18 17  1  0
 15 14  1  0
 19 21  2  0
 19 20  1  0
 17 12  2  0
 14 13  2  0
 12 13  1  0
 12 11  1  0
 13  2  1  0
 11 10  1  0
  2  1  2  0
  2  3  1  0
 10  3  2  0
 10  8  1  0
  9  8  1  0
  3  4  1  0
  8  6  2  0
  4  5  2  0
  6  5  1  0
  6  7  1  0
  4 22  1  0
  5 23  1  0
  7 24  1  0
  7 25  1  0
  7 26  1  0
  9 27  1  0
  9 28  1  0
  9 29  1  0
 14 30  1  0
 15 31  1  0
 16 32  1  0
 18 33  1  0
 18 34  1  0
 20 35  1  0
A    1
OAD
A    2
CAQ
A    3
CAS
A    4
CAJ
A    5
CAH
A    6
CAN
A    7
CAA
A    8
CAO
A    9
CAB
A   10
CAT
A   11
OAL
A   12
CAU
A   13
CAR
A   14
CAI
A   15
CAF
A   16
CAG
A   17
CAP
A   18
CAK
A   19
CAM
A   20
OAE
A   21
OAC
M  END
