4QYE_3DL_A_301
     RDKit          3D

 34 36  0  0  0  0  0  0  0  0999 V2000
    9.6940    5.8110   15.0030 O   0  0  0  0  0  0  0  0  0  0  0  0
    9.8100    6.8970   15.6050 C   0  0  0  0  0  0  0  0  0  0  0  0
   10.8540    7.5860   15.5610 O   0  0  0  0  0  0  0  0  0  0  0  0
    8.6490    7.3700   16.4170 C   0  0  0  0  0  0  0  0  0  0  0  0
    7.5700    6.5190   16.5870 C   0  0  0  0  0  0  0  0  0  0  0  0
    6.4780    6.9200   17.3350 C   0  0  0  0  0  0  0  0  0  0  0  0
    6.4830    8.1620   17.9640 C   0  0  0  0  0  0  0  0  0  0  0  0
    7.5530    9.0270   17.7850 C   0  0  0  0  0  0  0  0  0  0  0  0
    8.6400    8.6300   17.0130 C   0  0  0  0  0  0  0  0  0  0  0  0
    5.2720    8.5810   18.7080 C   0  0  0  0  0  0  0  0  0  0  0  0
    4.1330    7.8820   18.4890 N   0  0  0  0  0  0  0  0  0  0  0  0
    2.9880    8.2540   19.1040 C   0  0  0  0  0  0  0  0  0  0  0  0
    2.9910    9.3830   19.9190 C   0  0  0  0  0  0  0  0  0  0  0  0
    4.1120   10.0750   20.1120 N   0  0  0  0  0  0  0  0  0  0  0  0
    5.2470    9.7130   19.5170 C   0  0  0  0  0  0  0  0  0  0  0  0
    1.7340    7.5160   18.8270 C   0  0  0  0  0  0  0  0  0  0  0  0
    0.6080    7.6660   19.6270 C   0  0  0  0  0  0  0  0  0  0  0  0
   -0.5580    6.9830   19.3080 C   0  0  0  0  0  0  0  0  0  0  0  0
   -1.6330    7.1340   20.1340 O   0  0  0  0  0  0  0  0  0  0  0  0
   -0.6290    6.1660   18.1750 C   0  0  0  0  0  0  0  0  0  0  0  0
    0.4870    6.0380   17.3490 C   0  0  0  0  0  0  0  0  0  0  0  0
    1.6600    6.7220   17.6730 C   0  0  0  0  0  0  0  0  0  0  0  0
   11.2920    7.8751   16.4004 H   0  0  0  0  0  0  0  0  0  0  0  0
    7.5814    5.5205   16.1255 H   0  0  0  0  0  0  0  0  0  0  0  0
    5.6054    6.2575   17.4330 H   0  0  0  0  0  0  0  0  0  0  0  0
    7.5418   10.0230   18.2518 H   0  0  0  0  0  0  0  0  0  0  0  0
    9.4927    9.3106   16.8728 H   0  0  0  0  0  0  0  0  0  0  0  0
    2.0597    9.7058   20.4073 H   0  0  0  0  0  0  0  0  0  0  0  0
    6.1613   10.3065   19.6644 H   0  0  0  0  0  0  0  0  0  0  0  0
    0.6401    8.3227   20.5089 H   0  0  0  0  0  0  0  0  0  0  0  0
   -1.5090    7.1166   21.1160 H   0  0  0  0  0  0  0  0  0  0  0  0
   -1.5587    5.6282   17.9373 H   0  0  0  0  0  0  0  0  0  0  0  0
    0.4436    5.4043   16.4509 H   0  0  0  0  0  0  0  0  0  0  0  0
    2.5374    6.6373   17.0150 H   0  0  0  0  0  0  0  0  0  0  0  0
  1  2  2  0
  3  2  1  0
  2  4  1  0
  4  5  2  0
  4  9  1  0
  5  6  1  0
  9  8  2  0
  6  7  2  0
 21 22  2  0
 21 20  1  0
 22 16  1  0
  8  7  1  0
  7 10  1  0
 20 18  2  0
 11 10  2  0
 11 12  1  0
 10 15  1  0
 16 12  1  0
 16 17  2  0
 12 13  2  0
 18 17  1  0
 18 19  1  0
 15 14  2  0
 13 14  1  0
  3 23  1  0
  5 24  1  0
  6 25  1  0
  8 26  1  0
  9 27  1  0
 13 28  1  0
 15 29  1  0
 17 30  1  0
 19 31  1  0
 20 32  1  0
 21 33  1  0
 22 34  1  0
A    1
O3
A    2
C17
A    3
O2
A    4
C1
A    5
C6
A    6
C5
A    7
C4
A    8
C3
A    9
C2
A   10
C7
A   11
N2
A   12
C10
A   13
C9
A   14
N1
A   15
C8
A   16
C11
A   17
C16
A   18
C15
A   19
O1
A   20
C14
A   21
C13
A   22
C12
M  END
