1AP9_RET_A_300
     RDKit          3D

 50 50  0  0  0  0  0  0  0  0999 V2000
   15.3950   45.5350    1.1780 C   0  0  0  0  0  0  0  0  0  0  0  0
   14.6150   46.3110    0.1220 C   0  0  0  0  0  0  0  0  0  0  0  0
   15.2070   47.6770   -0.0630 C   0  0  0  0  0  0  0  0  0  0  0  0
   15.2060   48.5010    1.2150 C   0  0  0  0  0  0  0  0  0  0  0  0
   15.6230   47.7100    2.4210 C   0  0  0  0  0  0  0  0  0  0  0  0
   15.7230   46.3440    2.4610 C   0  0  0  0  0  0  0  0  0  0  0  0
   16.1240   45.6120    3.6720 C   0  0  0  0  0  0  0  0  0  0  0  0
   16.2360   44.3150    4.0070 C   0  0  0  0  0  0  0  0  0  0  0  0
   16.6420   43.5820    5.1900 C   0  0  0  0  0  0  0  0  0  0  0  0
   16.5780   42.2050    5.1160 C   0  0  0  0  0  0  0  0  0  0  0  0
   16.8540   41.1740    6.0820 C   0  0  0  0  0  0  0  0  0  0  0  0
   16.9600   39.8850    5.7220 C   0  0  0  0  0  0  0  0  0  0  0  0
   17.2540   38.7990    6.5810 C   0  0  0  0  0  0  0  0  0  0  0  0
   17.4510   37.6720    5.8930 C   0  0  0  0  0  0  0  0  0  0  0  0
   17.8620   36.5170    6.5100 C   0  0  0  0  0  0  0  0  0  0  0  0
   14.5120   44.3410    1.3170 C   0  0  0  0  0  0  0  0  0  0  0  0
   16.7510   45.1130    0.5590 C   0  0  0  0  0  0  0  0  0  0  0  0
   15.8690   48.7460    3.4800 C   0  0  0  0  0  0  0  0  0  0  0  0
   17.1520   44.3540    6.3770 C   0  0  0  0  0  0  0  0  0  0  0  0
   17.4090   38.9910    8.0720 C   0  0  0  0  0  0  0  0  0  0  0  0
   14.6552   45.7657   -0.8325 H   0  0  0  0  0  0  0  0  0  0  0  0
   13.5711   46.4151    0.4527 H   0  0  0  0  0  0  0  0  0  0  0  0
   16.2456   47.5655   -0.4078 H   0  0  0  0  0  0  0  0  0  0  0  0
   14.5859   48.2088   -0.7988 H   0  0  0  0  0  0  0  0  0  0  0  0
   15.9022   49.3434    1.0899 H   0  0  0  0  0  0  0  0  0  0  0  0
   14.1748   48.8438    1.3857 H   0  0  0  0  0  0  0  0  0  0  0  0
   16.3966   46.2846    4.4986 H   0  0  0  0  0  0  0  0  0  0  0  0
   15.9496   43.6464    3.1818 H   0  0  0  0  0  0  0  0  0  0  0  0
   16.2559   41.8244    4.1355 H   0  0  0  0  0  0  0  0  0  0  0  0
   16.9810   41.4487    7.1396 H   0  0  0  0  0  0  0  0  0  0  0  0
   16.8036   39.6506    4.6587 H   0  0  0  0  0  0  0  0  0  0  0  0
   17.2799   37.6690    4.8064 H   0  0  0  0  0  0  0  0  0  0  0  0
   17.8155   36.6477    7.6012 H   0  0  0  0  0  0  0  0  0  0  0  0
   17.2038   35.6877    6.2116 H   0  0  0  0  0  0  0  0  0  0  0  0
   18.8961   36.2899    6.2116 H   0  0  0  0  0  0  0  0  0  0  0  0
   14.3524   44.1252    2.3837 H   0  0  0  0  0  0  0  0  0  0  0  0
   13.5441   44.5427    0.8349 H   0  0  0  0  0  0  0  0  0  0  0  0
   14.9883   43.4746    0.8349 H   0  0  0  0  0  0  0  0  0  0  0  0
   17.4676   44.8900    1.3632 H   0  0  0  0  0  0  0  0  0  0  0  0
   16.6072   44.2171   -0.0629 H   0  0  0  0  0  0  0  0  0  0  0  0
   17.1410   45.9323   -0.0629 H   0  0  0  0  0  0  0  0  0  0  0  0
   15.7601   48.2874    4.4739 H   0  0  0  0  0  0  0  0  0  0  0  0
   16.8874   49.1472    3.3709 H   0  0  0  0  0  0  0  0  0  0  0  0
   15.1397   49.5622    3.3709 H   0  0  0  0  0  0  0  0  0  0  0  0
   16.8254   43.8596    7.3038 H   0  0  0  0  0  0  0  0  0  0  0  0
   18.2511   44.3883    6.3474 H   0  0  0  0  0  0  0  0  0  0  0  0
   16.7523   45.3784    6.3474 H   0  0  0  0  0  0  0  0  0  0  0  0
   16.8039   38.2415    8.6031 H   0  0  0  0  0  0  0  0  0  0  0  0
   18.4668   38.8715    8.3491 H   0  0  0  0  0  0  0  0  0  0  0  0
   17.0691   39.9998    8.3491 H   0  0  0  0  0  0  0  0  0  0  0  0
  1  2  1  0
  1  6  1  0
  1 16  1  0
  1 17  1  0
  2  3  1  0
  3  4  1  0
  4  5  1  0
  5  6  2  0
  5 18  1  0
  6  7  1  0
  7  8  2  0
  8  9  1  0
  9 10  2  0
  9 19  1  0
 10 11  1  0
 11 12  2  0
 12 13  1  0
 13 14  2  0
 13 20  1  0
 14 15  1  0
  2 21  1  0
  2 22  1  0
  3 23  1  0
  3 24  1  0
  4 25  1  0
  4 26  1  0
  7 27  1  0
  8 28  1  0
 10 29  1  0
 11 30  1  0
 12 31  1  0
 14 32  1  0
 15 33  1  0
 15 34  1  0
 15 35  1  0
 16 36  1  0
 16 37  1  0
 16 38  1  0
 17 39  1  0
 17 40  1  0
 17 41  1  0
 18 42  1  0
 18 43  1  0
 18 44  1  0
 19 45  1  0
 19 46  1  0
 19 47  1  0
 20 48  1  0
 20 49  1  0
 20 50  1  0
A    1
C1
A    2
C2
A    3
C3
A    4
C4
A    5
C5
A    6
C6
A    7
C7
A    8
C8
A    9
C9
A   10
C10
A   11
C11
A   12
C12
A   13
C13
A   14
C14
A   15
C15
A   16
C16
A   17
C17
A   18
C18
A   19
C19
A   20
C20
M  END
