4QYY_3G7_A_401
     RDKit          3D

 63 66  0  0  0  0  0  0  0  0999 V2000
   49.2160   21.7580    8.6400 N   0  0  0  0  0  0  0  0  0  0  0  0
   43.2270   25.1880    8.4880 C   0  0  0  0  0  0  0  0  0  0  0  0
   49.0290   13.7500    9.2040 N   0  0  0  0  0  0  0  0  0  0  0  0
   45.0680   24.3650    9.8290 C   0  0  0  0  0  0  0  0  0  0  0  0
   45.9080   24.3380    8.7080 C   0  0  0  0  0  0  0  0  0  0  0  0
   45.3910   24.8170    7.4930 C   0  0  0  0  0  0  0  0  0  0  0  0
   44.0690   25.2100    7.3840 C   0  0  0  0  0  0  0  0  0  0  0  0
   49.0980   22.7110    7.5450 C   0  0  0  0  0  0  0  0  0  0  0  0
   48.5630   15.8860   10.1890 C   0  0  0  0  0  0  0  0  0  0  0  0
   49.1550   17.2660   10.5240 C   0  0  0  0  0  0  0  0  0  0  0  0
   49.5300   14.9680    9.4880 C   0  0  0  0  0  0  0  0  0  0  0  0
   50.9240   12.6760    8.0160 C   0  0  0  0  0  0  0  0  0  0  0  0
   51.4950   11.5210    7.5020 C   0  0  0  0  0  0  0  0  0  0  0  0
   48.7190    8.7670    8.2980 Cl  0  0  0  0  0  0  0  0  0  0  0  0
   49.5850   10.2680    8.2140 C   0  0  0  0  0  0  0  0  0  0  0  0
   50.8340   10.2990    7.6060 C   0  0  0  0  0  0  0  0  0  0  0  0
   51.3660    9.1360    7.1560 O   0  0  0  0  0  0  0  0  0  0  0  0
   49.0000   11.4130    8.7180 C   0  0  0  0  0  0  0  0  0  0  0  0
   49.6770   12.6290    8.6270 C   0  0  0  0  0  0  0  0  0  0  0  0
   50.6760   15.3220    9.2120 O   0  0  0  0  0  0  0  0  0  0  0  0
   47.4230   16.2770    9.2100 C   0  0  0  0  0  0  0  0  0  0  0  0
   47.4210   17.7860    9.0610 C   0  0  0  0  0  0  0  0  0  0  0  0
   48.8340   18.1480    9.3430 N   0  0  0  0  0  0  0  0  0  0  0  0
   49.1300   19.5660    9.7150 C   0  0  0  0  0  0  0  0  0  0  0  0
   49.1650   20.4250    8.4570 C   0  0  0  0  0  0  0  0  0  0  0  0
   49.0960   19.9210    7.3390 O   0  0  0  0  0  0  0  0  0  0  0  0
   49.0340   22.5060    9.8800 C   0  0  0  0  0  0  0  0  0  0  0  0
   47.5990   22.9770    9.9550 C   0  0  0  0  0  0  0  0  0  0  0  0
   47.6830   23.2080    7.4870 C   0  0  0  0  0  0  0  0  0  0  0  0
   47.2330   23.7750    8.7720 N   0  0  0  0  0  0  0  0  0  0  0  0
   43.7550   24.7920    9.7190 C   0  0  0  0  0  0  0  0  0  0  0  0
   41.7850   25.5490    8.3460 C   0  0  0  0  0  0  0  0  0  0  0  0
   41.3160   25.8180    7.2380 O   0  0  0  0  0  0  0  0  0  0  0  0
   40.9060   25.5470    9.5510 C   0  0  0  0  0  0  0  0  0  0  0  0
   48.0354   13.6143    9.4392 H   0  0  0  0  0  0  0  0  0  0  0  0
   45.4555   24.0436   10.8071 H   0  0  0  0  0  0  0  0  0  0  0  0
   46.0483   24.8807    6.6133 H   0  0  0  0  0  0  0  0  0  0  0  0
   43.6801   25.5440    6.4108 H   0  0  0  0  0  0  0  0  0  0  0  0
   49.3558   22.2178    6.5962 H   0  0  0  0  0  0  0  0  0  0  0  0
   49.7843   23.5550    7.7084 H   0  0  0  0  0  0  0  0  0  0  0  0
   48.2626   15.3322   11.0907 H   0  0  0  0  0  0  0  0  0  0  0  0
   50.2438   17.1925   10.6626 H   0  0  0  0  0  0  0  0  0  0  0  0
   48.7365   17.6706   11.4573 H   0  0  0  0  0  0  0  0  0  0  0  0
   51.4607   13.6331    7.9395 H   0  0  0  0  0  0  0  0  0  0  0  0
   52.4769   11.5703    7.0087 H   0  0  0  0  0  0  0  0  0  0  0  0
   51.6786    8.4526    7.8005 H   0  0  0  0  0  0  0  0  0  0  0  0
   48.0066   11.3663    9.1881 H   0  0  0  0  0  0  0  0  0  0  0  0
   46.4557   15.9416    9.6123 H   0  0  0  0  0  0  0  0  0  0  0  0
   47.5825   15.7995    8.2320 H   0  0  0  0  0  0  0  0  0  0  0  0
   47.1320   18.0829    8.0420 H   0  0  0  0  0  0  0  0  0  0  0  0
   46.7025   18.2877    9.7259 H   0  0  0  0  0  0  0  0  0  0  0  0
   50.1057   19.6163   10.2205 H   0  0  0  0  0  0  0  0  0  0  0  0
   48.3466   19.9385   10.3914 H   0  0  0  0  0  0  0  0  0  0  0  0
   49.2561   21.8570   10.7399 H   0  0  0  0  0  0  0  0  0  0  0  0
   49.7140   23.3704    9.8999 H   0  0  0  0  0  0  0  0  0  0  0  0
   47.4715   23.5942   10.8565 H   0  0  0  0  0  0  0  0  0  0  0  0
   46.9457   22.0928    9.9919 H   0  0  0  0  0  0  0  0  0  0  0  0
   47.6137   23.9871    6.7135 H   0  0  0  0  0  0  0  0  0  0  0  0
   47.0355   22.3499    7.2540 H   0  0  0  0  0  0  0  0  0  0  0  0
   43.1179   24.8197   10.6153 H   0  0  0  0  0  0  0  0  0  0  0  0
   41.5278   25.5484   10.4584 H   0  0  0  0  0  0  0  0  0  0  0  0
   40.2689   26.4437    9.5416 H   0  0  0  0  0  0  0  0  0  0  0  0
   40.2730   24.6474    9.5416 H   0  0  0  0  0  0  0  0  0  0  0  0
 17 16  1  0
 33 32  2  0
 26 25  2  0
  7  6  1  0
  7  2  2  0
 29  8  1  0
 29 30  1  0
  6  5  2  0
 13 16  1  0
 13 12  2  0
  8  1  1  0
 16 15  2  0
 12 19  1  0
 15 14  1  0
 15 18  1  0
 32  2  1  0
 32 34  1  0
 25  1  1  0
 25 24  1  0
  2 31  1  0
 19 18  2  0
 19  3  1  0
  1 27  1  0
  5 30  1  0
  5  4  1  0
 30 28  1  0
 22 21  1  0
 22 23  1  0
  3 11  1  0
 21  9  1  0
 20 11  2  0
 23 24  1  0
 23 10  1  0
 11  9  1  0
 31  4  2  0
 27 28  1  0
  9 10  1  0
  3 35  1  0
  4 36  1  0
  6 37  1  0
  7 38  1  0
  8 39  1  0
  8 40  1  0
  9 41  1  0
 10 42  1  0
 10 43  1  0
 12 44  1  0
 13 45  1  0
 17 46  1  0
 18 47  1  0
 21 48  1  0
 21 49  1  0
 22 50  1  0
 22 51  1  0
 24 52  1  0
 24 53  1  0
 27 54  1  0
 27 55  1  0
 28 56  1  0
 28 57  1  0
 29 58  1  0
 29 59  1  0
 31 60  1  0
 34 61  1  0
 34 62  1  0
 34 63  1  0
A    1
N1
A    2
C2
A    3
N3
A    4
C4
A    5
C5
A    6
C6
A    7
C7
A    8
C10
A    9
C16
A   10
C17
A   11
C18
A   12
C20
A   13
C21
A   14
CL
A   15
C23
A   16
C22
A   17
O3
A   18
C24
A   19
C19
A   20
O2
A   21
C15
A   22
C14
A   23
N2
A   24
C13
A   25
C12
A   26
O1
A   27
C9
A   28
C8
A   29
C11
A   30
N
A   31
C3
A   32
C1
A   33
O
A   34
C
M  END
