4R1Q_SST_A_501
     RDKit          3D

 22 21  0  0  0  0  0  0  0  0999 V2000
    1.8100  -13.0450   49.2080 O   0  0  0  0  0  0  0  0  0  0  0  0
   -0.6840  -14.2620   50.0300 O   0  0  0  0  0  0  0  0  0  0  0  0
    1.7190  -16.2100   47.5060 O   0  0  0  0  0  0  0  0  0  0  0  0
   -0.4640  -12.2280   48.3550 O   0  0  0  0  0  0  0  0  0  0  0  0
    3.2480  -14.7870   45.7560 O   0  0  0  0  0  0  0  0  0  0  0  0
    1.4470  -14.3590   48.9940 C   0  0  0  0  0  0  0  0  0  0  0  0
   -0.0550  -14.4910   48.8190 C   0  0  0  0  0  0  0  0  0  0  0  0
    2.2710  -15.0060   47.9000 C   0  0  0  0  0  0  0  0  0  0  0  0
   -0.6060  -13.5030   47.8350 C   0  0  0  0  0  0  0  0  0  0  0  0
    2.4830  -14.1140   46.6920 C   0  0  0  0  0  0  0  0  0  0  0  0
    1.8583  -12.8703   50.1813 H   0  0  0  0  0  0  0  0  0  0  0  0
   -0.0664  -14.4868   50.7704 H   0  0  0  0  0  0  0  0  0  0  0  0
    1.4763  -16.7394   48.3065 H   0  0  0  0  0  0  0  0  0  0  0  0
   -0.4690  -12.2725   49.3440 H   0  0  0  0  0  0  0  0  0  0  0  0
    3.9046  -15.3646   46.2201 H   0  0  0  0  0  0  0  0  0  0  0  0
    1.6885  -14.9388   49.8971 H   0  0  0  0  0  0  0  0  0  0  0  0
   -0.2420  -15.5087   48.4458 H   0  0  0  0  0  0  0  0  0  0  0  0
    3.2620  -15.1836   48.3432 H   0  0  0  0  0  0  0  0  0  0  0  0
   -1.6710  -13.7131   47.6572 H   0  0  0  0  0  0  0  0  0  0  0  0
   -0.0610  -13.5808   46.8827 H   0  0  0  0  0  0  0  0  0  0  0  0
    3.0036  -13.1953   47.0003 H   0  0  0  0  0  0  0  0  0  0  0  0
    1.5096  -13.8510   46.2524 H   0  0  0  0  0  0  0  0  0  0  0  0
  4  9  1  0
  9  7  1  0
  2  7  1  0
 10  5  1  0
 10  8  1  0
  7  6  1  0
  8  6  1  0
  8  3  1  0
  6  1  1  0
  1 11  1  0
  2 12  1  0
  3 13  1  0
  4 14  1  0
  5 15  1  0
  6 16  1  0
  7 17  1  0
  8 18  1  0
  9 19  1  0
  9 20  1  0
 10 21  1  0
 10 22  1  0
A    1
O3
A    2
O4
A    3
O2
A    4
O5
A    5
O1
A    6
C3
A    7
C4
A    8
C2
A    9
C5
A   10
C1
M  END
