4R1V_3E8_A_1401
     RDKit          3D

 65 69  0  0  0  0  0  0  0  0999 V2000
  108.0060   17.6260  141.3860 C   0  0  0  0  0  0  0  0  0  0  0  0
  108.2360   16.3920  141.9820 C   0  0  0  0  0  0  0  0  0  0  0  0
  108.8860   18.0990  140.4110 C   0  0  0  0  0  0  0  0  0  0  0  0
  109.3530   15.6400  141.6140 C   0  0  0  0  0  0  0  0  0  0  0  0
  110.0010   17.3440  140.0650 C   0  0  0  0  0  0  0  0  0  0  0  0
  110.2380   16.1030  140.6540 C   0  0  0  0  0  0  0  0  0  0  0  0
  106.8160   18.4270  141.7240 C   0  0  0  0  0  0  0  0  0  0  0  0
  106.0690   18.2680  142.9920 C   0  0  0  0  0  0  0  0  0  0  0  0
  104.5450   19.9990  142.2540 C   0  0  0  0  0  0  0  0  0  0  0  0
  105.5140   23.3500  140.8170 C   0  0  0  0  0  0  0  0  0  0  0  0
  107.2350   22.1690  139.6720 C   0  0  0  0  0  0  0  0  0  0  0  0
  106.3670   24.4330  140.9770 C   0  0  0  0  0  0  0  0  0  0  0  0
  108.0870   23.2520  139.8220 C   0  0  0  0  0  0  0  0  0  0  0  0
  107.6520   24.3810  140.5040 C   0  0  0  0  0  0  0  0  0  0  0  0
  109.9180   21.8990  138.9240 N   0  0  0  0  0  0  0  0  0  0  0  0
  111.6690   24.0070  139.3390 C   0  0  0  0  0  0  0  0  0  0  0  0
  111.2550   21.7460  138.6700 C   0  0  0  0  0  0  0  0  0  0  0  0
  113.4400   22.5520  138.5760 O   0  0  0  0  0  0  0  0  0  0  0  0
  116.0950   21.6850  138.2320 C   0  0  0  0  0  0  0  0  0  0  0  0
  115.7160   21.8270  140.6810 C   0  0  0  0  0  0  0  0  0  0  0  0
  117.5060   21.1260  138.5150 C   0  0  0  0  0  0  0  0  0  0  0  0
  117.1230   21.2570  140.9760 C   0  0  0  0  0  0  0  0  0  0  0  0
  118.9180   19.8850  140.0450 C   0  0  0  0  0  0  0  0  0  0  0  0
  109.5530   14.3660  142.2190 C   0  0  0  0  0  0  0  0  0  0  0  0
  109.6440   13.3030  142.6720 N   0  0  0  0  0  0  0  0  0  0  0  0
  106.4050   19.2870  140.8360 N   0  0  0  0  0  0  0  0  0  0  0  0
  105.2700   20.0570  141.0880 N   0  0  0  0  0  0  0  0  0  0  0  0
  103.5700   20.7110  142.4050 O   0  0  0  0  0  0  0  0  0  0  0  0
  104.9850   19.0200  143.2430 C   0  0  0  0  0  0  0  0  0  0  0  0
  105.0010   21.0170  140.0130 C   0  0  0  0  0  0  0  0  0  0  0  0
  105.9330   22.2090  140.1610 C   0  0  0  0  0  0  0  0  0  0  0  0
  109.4770   23.1220  139.4020 C   0  0  0  0  0  0  0  0  0  0  0  0
  112.1270   22.7820  138.8740 C   0  0  0  0  0  0  0  0  0  0  0  0
  110.3350   24.1650  139.6230 N   0  0  0  0  0  0  0  0  0  0  0  0
  114.4610   23.3780  139.1070 C   0  0  0  0  0  0  0  0  0  0  0  0
  115.7710   22.6320  139.3750 C   0  0  0  0  0  0  0  0  0  0  0  0
  117.5620   20.4320  139.8260 N   0  0  0  0  0  0  0  0  0  0  0  0
  107.5394   16.0086  142.7421 H   0  0  0  0  0  0  0  0  0  0  0  0
  108.6981   19.0646  139.9187 H   0  0  0  0  0  0  0  0  0  0  0  0
  110.7066   17.7317  139.3154 H   0  0  0  0  0  0  0  0  0  0  0  0
  111.1119   15.5022  140.3618 H   0  0  0  0  0  0  0  0  0  0  0  0
  106.4042   17.5285  143.7341 H   0  0  0  0  0  0  0  0  0  0  0  0
  104.4909   23.4010  141.2178 H   0  0  0  0  0  0  0  0  0  0  0  0
  107.5935   21.2645  139.1588 H   0  0  0  0  0  0  0  0  0  0  0  0
  106.0090   25.3395  141.4871 H   0  0  0  0  0  0  0  0  0  0  0  0
  108.3350   25.2284  140.6635 H   0  0  0  0  0  0  0  0  0  0  0  0
  112.3688   24.8441  139.4788 H   0  0  0  0  0  0  0  0  0  0  0  0
  111.6321   20.7817  138.2986 H   0  0  0  0  0  0  0  0  0  0  0  0
  116.0855   22.2269  137.2748 H   0  0  0  0  0  0  0  0  0  0  0  0
  115.3526   20.8763  138.1618 H   0  0  0  0  0  0  0  0  0  0  0  0
  115.4025   22.4830  141.5065 H   0  0  0  0  0  0  0  0  0  0  0  0
  114.9930   21.0039  140.5820 H   0  0  0  0  0  0  0  0  0  0  0  0
  117.7742   20.4132  137.7212 H   0  0  0  0  0  0  0  0  0  0  0  0
  118.2131   21.9683  138.5393 H   0  0  0  0  0  0  0  0  0  0  0  0
  117.0860   20.6353  141.8827 H   0  0  0  0  0  0  0  0  0  0  0  0
  117.8325   22.0829  141.1323 H   0  0  0  0  0  0  0  0  0  0  0  0
  119.1118   19.8068  141.1250 H   0  0  0  0  0  0  0  0  0  0  0  0
  118.9895   18.8877  139.5865 H   0  0  0  0  0  0  0  0  0  0  0  0
  119.6615   20.5535  139.5865 H   0  0  0  0  0  0  0  0  0  0  0  0
  104.4330   18.8990  144.1867 H   0  0  0  0  0  0  0  0  0  0  0  0
  103.9567   21.3567  140.0762 H   0  0  0  0  0  0  0  0  0  0  0  0
  105.1689   20.5360  139.0381 H   0  0  0  0  0  0  0  0  0  0  0  0
  114.6617   24.1881  138.3904 H   0  0  0  0  0  0  0  0  0  0  0  0
  114.1004   23.7575  140.0745 H   0  0  0  0  0  0  0  0  0  0  0  0
  116.5564   23.3970  139.4638 H   0  0  0  0  0  0  0  0  0  0  0  0
 19 21  1  0
 19 36  1  0
 21 37  1  0
 18 33  1  0
 18 35  1  0
 17 33  1  0
 17 15  2  0
 33 16  2  0
 15 32  1  0
 35 36  1  0
 16 34  1  0
 36 20  1  0
 32 34  2  0
 32 13  1  0
 11 13  2  0
 11 31  1  0
 13 14  1  0
 37 23  1  0
 37 22  1  0
 30 31  1  0
 30 27  1  0
  5  3  2  0
  5  6  1  0
 31 10  2  0
  3  1  1  0
 14 12  2  0
  6  4  2  0
 20 22  1  0
 10 12  1  0
 26 27  1  0
 26  7  2  0
 27  9  1  0
  1  7  1  0
  1  2  2  0
  4  2  1  0
  4 24  1  0
  7  8  1  0
 24 25  3  0
  9 28  2  0
  9 29  1  0
  8 29  2  0
  2 38  1  0
  3 39  1  0
  5 40  1  0
  6 41  1  0
  8 42  1  0
 10 43  1  0
 11 44  1  0
 12 45  1  0
 14 46  1  0
 16 47  1  0
 17 48  1  0
 19 49  1  0
 19 50  1  0
 20 51  1  0
 20 52  1  0
 21 53  1  0
 21 54  1  0
 22 55  1  0
 22 56  1  0
 23 57  1  0
 23 58  1  0
 23 59  1  0
 29 60  1  0
 30 61  1  0
 30 62  1  0
 35 63  1  0
 35 64  1  0
 36 65  1  0
A    1
C1
A    2
C2
A    3
C3
A    4
C4
A    5
C5
A    6
C6
A    7
C7
A    8
C8
A    9
C12
A   10
C15
A   11
C16
A   12
C17
A   13
C18
A   14
C19
A   15
N22
A   16
C23
A   17
C24
A   18
O26
A   19
C30
A   20
C31
A   21
C32
A   22
C33
A   23
C35
A   24
C36
A   25
N37
A   26
N9
A   27
N11
A   28
O27
A   29
C10
A   30
C13
A   31
C14
A   32
C20
A   33
C25
A   34
N21
A   35
C28
A   36
C29
A   37
N34
M  END
