4R4I_3HV_A_201
     RDKit          3D

 63 68  0  0  0  0  0  0  0  0999 V2000
   17.1210   13.3210   19.4170 C   0  0  0  0  0  0  0  0  0  0  0  0
   14.9350   10.6420   22.5100 C   0  0  0  0  0  0  0  0  0  0  0  0
   12.3990   13.7410   23.8510 C   0  0  0  0  0  0  0  0  0  0  0  0
   10.2800   12.0230   26.3740 C   0  0  0  0  0  0  0  0  0  0  0  0
    8.9530   12.5620   25.9000 C   0  0  0  0  0  0  0  0  0  0  0  0
    8.2710   11.8710   24.9270 C   0  0  0  0  0  0  0  0  0  0  0  0
    8.4160   13.7310   26.4390 C   0  0  0  0  0  0  0  0  0  0  0  0
    6.4830   13.5250   25.0130 C   0  0  0  0  0  0  0  0  0  0  0  0
    4.6690   15.4030   24.6630 C   0  0  0  0  0  0  0  0  0  0  0  0
   12.0280    9.6310   25.4990 S   0  0  0  0  0  0  0  0  0  0  0  0
   12.1260   11.1860   24.9120 C   0  0  0  0  0  0  0  0  0  0  0  0
   13.1140   11.4330   23.9250 C   0  0  0  0  0  0  0  0  0  0  0  0
   13.2520   12.7040   23.3920 C   0  0  0  0  0  0  0  0  0  0  0  0
   14.2320   12.9530   22.4100 C   0  0  0  0  0  0  0  0  0  0  0  0
   15.0600   11.9180   21.9810 C   0  0  0  0  0  0  0  0  0  0  0  0
   16.1050   12.1990   20.9280 C   0  0  0  0  0  0  0  0  0  0  0  0
   17.1840   11.3900   20.5290 C   0  0  0  0  0  0  0  0  0  0  0  0
   17.8670   12.1370   19.5010 C   0  0  0  0  0  0  0  0  0  0  0  0
   17.3310   14.4850   18.5270 C   0  0  0  0  0  0  0  0  0  0  0  0
   18.3520   14.5810   17.8010 O   0  0  0  0  0  0  0  0  0  0  0  0
   16.4270   15.3520   18.5580 O   0  0  0  0  0  0  0  0  0  0  0  0
   16.1110   13.3040   20.2420 O   0  0  0  0  0  0  0  0  0  0  0  0
   13.9650   10.3880   23.4740 C   0  0  0  0  0  0  0  0  0  0  0  0
   11.4520   13.4250   24.8270 C   0  0  0  0  0  0  0  0  0  0  0  0
   11.3110   12.1880   25.3420 N   0  0  0  0  0  0  0  0  0  0  0  0
    7.0550   12.3570   24.4900 C   0  0  0  0  0  0  0  0  0  0  0  0
    7.1840   14.2170   25.9960 C   0  0  0  0  0  0  0  0  0  0  0  0
    5.1460   14.0610   24.5270 C   0  0  0  0  0  0  0  0  0  0  0  0
    3.3780   15.4170   24.0510 C   0  0  0  0  0  0  0  0  0  0  0  0
    2.4380   16.5800   23.9170 C   0  0  0  0  0  0  0  0  0  0  0  0
    1.3180   16.3950   23.3790 O   0  0  0  0  0  0  0  0  0  0  0  0
    2.7540   17.7300   24.3320 O   0  0  0  0  0  0  0  0  0  0  0  0
    3.1450   14.1930   23.5980 N   0  0  0  0  0  0  0  0  0  0  0  0
    4.1710   13.4070   23.8860 N   0  0  0  0  0  0  0  0  0  0  0  0
    4.2300   12.0080   23.5340 C   0  0  0  0  0  0  0  0  0  0  0  0
    3.6990   11.0460   24.3730 C   0  0  0  0  0  0  0  0  0  0  0  0
    3.7850    9.7080   24.0210 C   0  0  0  0  0  0  0  0  0  0  0  0
    4.4070    9.3400   22.8380 C   0  0  0  0  0  0  0  0  0  0  0  0
    4.4650    7.6560   22.4730 Cl  0  0  0  0  0  0  0  0  0  0  0  0
    4.9590   10.3140   22.0050 C   0  0  0  0  0  0  0  0  0  0  0  0
    5.7630    9.9800   20.5100 Cl  0  0  0  0  0  0  0  0  0  0  0  0
    4.8530   11.6420   22.3570 C   0  0  0  0  0  0  0  0  0  0  0  0
   15.5998    9.8347   22.1688 H   0  0  0  0  0  0  0  0  0  0  0  0
   13.0403   14.5347   24.2619 H   0  0  0  0  0  0  0  0  0  0  0  0
   11.8033   14.0184   22.9688 H   0  0  0  0  0  0  0  0  0  0  0  0
   10.1718   10.9535   26.6072 H   0  0  0  0  0  0  0  0  0  0  0  0
   10.5868   12.5824   27.2701 H   0  0  0  0  0  0  0  0  0  0  0  0
    8.6876   10.9453   24.5032 H   0  0  0  0  0  0  0  0  0  0  0  0
    8.9677   14.2749   27.2199 H   0  0  0  0  0  0  0  0  0  0  0  0
    5.1880   16.2478   25.1394 H   0  0  0  0  0  0  0  0  0  0  0  0
   14.3426   13.9610   21.9838 H   0  0  0  0  0  0  0  0  0  0  0  0
   17.4510   10.3966   20.9188 H   0  0  0  0  0  0  0  0  0  0  0  0
   18.7572   11.8477   18.9232 H   0  0  0  0  0  0  0  0  0  0  0  0
   16.0852   15.6798   19.4273 H   0  0  0  0  0  0  0  0  0  0  0  0
   13.8562    9.3750   23.8886 H   0  0  0  0  0  0  0  0  0  0  0  0
   11.6650   14.0856   25.6804 H   0  0  0  0  0  0  0  0  0  0  0  0
   10.5129   13.5367   24.2652 H   0  0  0  0  0  0  0  0  0  0  0  0
    6.5159   11.8083   23.7036 H   0  0  0  0  0  0  0  0  0  0  0  0
    6.7696   15.1426   26.4221 H   0  0  0  0  0  0  0  0  0  0  0  0
    2.8032   17.9091   25.3044 H   0  0  0  0  0  0  0  0  0  0  0  0
    3.2113   11.3405   25.3140 H   0  0  0  0  0  0  0  0  0  0  0  0
    3.3594    8.9377   24.6809 H   0  0  0  0  0  0  0  0  0  0  0  0
    5.2678   12.4167   21.6954 H   0  0  0  0  0  0  0  0  0  0  0  0
 20 19  2  0
 19 21  1  0
 19  1  1  0
  1 18  2  0
  1 22  1  0
 18 17  1  0
 22 16  1  0
 41 40  1  0
 17 16  2  0
 16 15  1  0
 15 14  1  0
 15  2  2  0
 40 42  2  0
 40 38  1  0
 42 35  1  0
 14 13  2  0
 39 38  1  0
  2 23  1  0
 38 37  2  0
 31 30  2  0
 13  3  1  0
 13 12  1  0
 23 12  2  0
 35 34  1  0
 35 36  2  0
 33 34  1  0
 33 29  2  0
  3 24  1  0
 34 28  1  0
 30 29  1  0
 30 32  1  0
 12 11  1  0
 37 36  1  0
 29  9  1  0
 26  6  2  0
 26  8  1  0
 28  9  2  0
 28  8  1  0
 24 25  1  0
 11 25  1  0
 11 10  2  0
  6  5  1  0
  8 27  2  0
 25  4  1  0
  5  4  1  0
  5  7  2  0
 27  7  1  0
  2 43  1  0
  3 44  1  0
  3 45  1  0
  4 46  1  0
  4 47  1  0
  6 48  1  0
  7 49  1  0
  9 50  1  0
 14 51  1  0
 17 52  1  0
 18 53  1  0
 21 54  1  0
 23 55  1  0
 24 56  1  0
 24 57  1  0
 26 58  1  0
 27 59  1  0
 32 60  1  0
 36 61  1  0
 37 62  1  0
 42 63  1  0
A    1
C10
A    2
C15
A    3
C17
A    4
C20
A    5
C21
A    6
C22
A    7
C24
A    8
C26
A    9
C28
A   10
S01
A   11
C02
A   12
C03
A   13
C04
A   14
C05
A   15
C06
A   16
C07
A   17
C08
A   18
C09
A   19
C11
A   20
O12
A   21
O13
A   22
O14
A   23
C16
A   24
C18
A   25
N19
A   26
C23
A   27
C25
A   28
C27
A   29
C29
A   30
C30
A   31
O31
A   32
O32
A   33
N33
A   34
N34
A   35
C35
A   36
C36
A   37
C37
A   38
C38
A   39
CL3
A   40
C40
A   41
CL4
A   42
C42
M  END
