4R4O_3HW_A_201
     RDKit          3D

 59 63  0  0  0  0  0  0  0  0999 V2000
   -4.8660    9.3380    3.6980 C   0  0  0  0  0  0  0  0  0  0  0  0
   -5.2760   10.9820    2.0140 C   0  0  0  0  0  0  0  0  0  0  0  0
   -1.8990   11.2930   -0.0260 C   0  0  0  0  0  0  0  0  0  0  0  0
    0.4890   11.0600   -0.1060 C   0  0  0  0  0  0  0  0  0  0  0  0
    4.1600   12.1530    2.0340 C   0  0  0  0  0  0  0  0  0  0  0  0
    4.9360   10.9010    1.7940 C   0  0  0  0  0  0  0  0  0  0  0  0
    6.8060    9.5320    2.4160 C   0  0  0  0  0  0  0  0  0  0  0  0
    7.3140    7.4240    1.2190 C   0  0  0  0  0  0  0  0  0  0  0  0
    8.8360    5.7740    1.3890 C   0  0  0  0  0  0  0  0  0  0  0  0
   -6.9160   11.2890   -3.4150 O   0  0  0  0  0  0  0  0  0  0  0  0
   -5.6930   11.5890   -3.4390 C   0  0  0  0  0  0  0  0  0  0  0  0
   -4.8710   11.3550   -2.2230 C   0  0  0  0  0  0  0  0  0  0  0  0
   -5.3250   10.8360   -1.0950 N   0  0  0  0  0  0  0  0  0  0  0  0
   -4.3510   10.7520   -0.2120 N   0  0  0  0  0  0  0  0  0  0  0  0
   -4.5220   10.2500    1.1120 C   0  0  0  0  0  0  0  0  0  0  0  0
   -3.9280    9.0620    1.5020 C   0  0  0  0  0  0  0  0  0  0  0  0
   -4.1050    8.6120    2.7980 C   0  0  0  0  0  0  0  0  0  0  0  0
   -3.3750    7.1240    3.2740 Cl  0  0  0  0  0  0  0  0  0  0  0  0
   -5.1030    8.7860    5.3140 Cl  0  0  0  0  0  0  0  0  0  0  0  0
   -5.4510   10.5260    3.3080 C   0  0  0  0  0  0  0  0  0  0  0  0
   -3.2150   11.2300   -0.7130 C   0  0  0  0  0  0  0  0  0  0  0  0
   -0.7440   11.0070   -0.7380 C   0  0  0  0  0  0  0  0  0  0  0  0
    0.5580   11.3960    1.2380 C   0  0  0  0  0  0  0  0  0  0  0  0
    1.8660   11.4500    1.9390 C   0  0  0  0  0  0  0  0  0  0  0  0
    2.8590   12.3650    1.4660 N   0  0  0  0  0  0  0  0  0  0  0  0
    6.0370   10.6660    2.6000 C   0  0  0  0  0  0  0  0  0  0  0  0
    6.4690    8.6240    1.4270 C   0  0  0  0  0  0  0  0  0  0  0  0
    8.2900    6.9060    2.0780 C   0  0  0  0  0  0  0  0  0  0  0  0
    8.1320    5.7130    0.1820 C   0  0  0  0  0  0  0  0  0  0  0  0
    8.2790    4.7490   -0.9330 C   0  0  0  0  0  0  0  0  0  0  0  0
    9.2390    3.9340   -0.9710 O   0  0  0  0  0  0  0  0  0  0  0  0
    7.4150    4.7820   -1.8480 O   0  0  0  0  0  0  0  0  0  0  0  0
    7.2820    6.6970    0.1390 O   0  0  0  0  0  0  0  0  0  0  0  0
    5.3800    8.8610    0.6000 C   0  0  0  0  0  0  0  0  0  0  0  0
    4.6070   10.0010    0.7840 C   0  0  0  0  0  0  0  0  0  0  0  0
    1.9450   10.7890    3.4650 S   0  0  0  0  0  0  0  0  0  0  0  0
   -0.5930   11.6740    1.9500 C   0  0  0  0  0  0  0  0  0  0  0  0
   -1.8200   11.6320    1.3170 C   0  0  0  0  0  0  0  0  0  0  0  0
   -3.4880   11.6360   -2.0490 C   0  0  0  0  0  0  0  0  0  0  0  0
   -5.1620   12.0660   -4.4740 O   0  0  0  0  0  0  0  0  0  0  0  0
   -5.7375   11.9298    1.7001 H   0  0  0  0  0  0  0  0  0  0  0  0
    1.4080   10.8367   -0.6677 H   0  0  0  0  0  0  0  0  0  0  0  0
    4.7908   12.9793    1.6743 H   0  0  0  0  0  0  0  0  0  0  0  0
    3.9328   12.0801    3.1078 H   0  0  0  0  0  0  0  0  0  0  0  0
    7.6837    9.3516    3.0541 H   0  0  0  0  0  0  0  0  0  0  0  0
    9.6343    5.1004    1.7341 H   0  0  0  0  0  0  0  0  0  0  0  0
   -7.3808   11.1750   -2.5484 H   0  0  0  0  0  0  0  0  0  0  0  0
   -3.3223    8.4826    0.7896 H   0  0  0  0  0  0  0  0  0  0  0  0
   -6.0530   11.1067    4.0224 H   0  0  0  0  0  0  0  0  0  0  0  0
   -0.8059   10.7384   -1.8029 H   0  0  0  0  0  0  0  0  0  0  0  0
    2.6587   13.1076    0.7809 H   0  0  0  0  0  0  0  0  0  0  0  0
    6.3009   11.3845    3.3900 H   0  0  0  0  0  0  0  0  0  0  0  0
    8.5767    7.2862    3.0696 H   0  0  0  0  0  0  0  0  0  0  0  0
    9.6359    3.5971   -0.1290 H   0  0  0  0  0  0  0  0  0  0  0  0
    5.1293    8.1481   -0.1993 H   0  0  0  0  0  0  0  0  0  0  0  0
    3.7395   10.1914    0.1349 H   0  0  0  0  0  0  0  0  0  0  0  0
   -0.5324   11.9282    3.0185 H   0  0  0  0  0  0  0  0  0  0  0  0
   -2.7360   11.8677    1.8786 H   0  0  0  0  0  0  0  0  0  0  0  0
   -2.7891   12.0684   -2.7801 H   0  0  0  0  0  0  0  0  0  0  0  0
 40 11  2  0
 11 10  1  0
 11 12  1  0
 12 39  1  0
 12 13  2  0
 39 21  2  0
 32 30  2  0
 13 14  1  0
 31 30  1  0
 30 29  1  0
 22  4  2  0
 22  3  1  0
 21 14  1  0
 21  3  1  0
 14 15  1  0
  4 23  1  0
  3 38  2  0
 33 29  1  0
 33  8  1  0
 29  9  2  0
 34 35  2  0
 34 27  1  0
 35  6  1  0
 15 16  2  0
 15  2  1  0
  8 27  1  0
  8 28  2  0
 23 24  1  0
 23 37  2  0
 38 37  1  0
  9 28  1  0
 27  7  2  0
 25 24  1  0
 25  5  1  0
 16 17  1  0
  6  5  1  0
  6 26  2  0
 24 36  2  0
  2 20  2  0
  7 26  1  0
 17 18  1  0
 17  1  2  0
 20  1  1  0
  1 19  1  0
  2 41  1  0
  4 42  1  0
  5 43  1  0
  5 44  1  0
  7 45  1  0
  9 46  1  0
 10 47  1  0
 16 48  1  0
 20 49  1  0
 22 50  1  0
 25 51  1  0
 26 52  1  0
 28 53  1  0
 31 54  1  0
 34 55  1  0
 35 56  1  0
 37 57  1  0
 38 58  1  0
 39 59  1  0
A    1
C10
A    2
C13
A    3
C15
A    4
C17
A    5
C21
A    6
C22
A    7
C24
A    8
C26
A    9
C28
A   10
O01
A   11
C02
A   12
C03
A   13
N04
A   14
N05
A   15
C06
A   16
C07
A   17
C08
A   18
CL0
A   19
CL1
A   20
C12
A   21
C14
A   22
C16
A   23
C18
A   24
C19
A   25
N20
A   26
C23
A   27
C25
A   28
C27
A   29
C29
A   30
C30
A   31
O31
A   32
O32
A   33
O33
A   34
C34
A   35
C35
A   36
S36
A   37
C37
A   38
C38
A   39
C39
A   40
O40
M  END
