4R4Q_3HZ_A_201
     RDKit          3D

 65 69  0  0  0  0  0  0  0  0999 V2000
    5.0400    9.2080   22.9420 C   0  0  0  0  0  0  0  0  0  0  0  0
    4.6120   10.8940   24.6580 C   0  0  0  0  0  0  0  0  0  0  0  0
    7.8200   13.3990   24.8010 C   0  0  0  0  0  0  0  0  0  0  0  0
   10.2450   13.6490   24.6220 C   0  0  0  0  0  0  0  0  0  0  0  0
   12.5310    9.5450   25.7730 C   0  0  0  0  0  0  0  0  0  0  0  0
   12.7010    9.8340   27.2580 C   0  0  0  0  0  0  0  0  0  0  0  0
   11.9520   10.3320   23.5370 C   0  0  0  0  0  0  0  0  0  0  0  0
   14.2490    9.9380   22.8150 C   0  0  0  0  0  0  0  0  0  0  0  0
   15.3760   11.4250   21.2310 C   0  0  0  0  0  0  0  0  0  0  0  0
    3.9780   17.3990   24.9870 O   0  0  0  0  0  0  0  0  0  0  0  0
    3.6640   16.3130   24.5880 C   0  0  0  0  0  0  0  0  0  0  0  0
    4.6420   15.1950   24.5460 C   0  0  0  0  0  0  0  0  0  0  0  0
    4.3220   13.9940   24.1560 N   0  0  0  0  0  0  0  0  0  0  0  0
    5.3580   13.2170   24.2140 N   0  0  0  0  0  0  0  0  0  0  0  0
    5.2930   11.8750   23.8040 C   0  0  0  0  0  0  0  0  0  0  0  0
    5.7970   11.5140   22.6370 C   0  0  0  0  0  0  0  0  0  0  0  0
    5.6520   10.1050   22.1820 C   0  0  0  0  0  0  0  0  0  0  0  0
    6.3440    9.6450   20.6590 Cl  0  0  0  0  0  0  0  0  0  0  0  0
    4.8620    7.5470   22.4980 Cl  0  0  0  0  0  0  0  0  0  0  0  0
    4.5080    9.6350   24.2490 C   0  0  0  0  0  0  0  0  0  0  0  0
    6.4330   13.9320   24.6070 C   0  0  0  0  0  0  0  0  0  0  0  0
    8.8660   14.1560   24.4500 C   0  0  0  0  0  0  0  0  0  0  0  0
   10.4490   12.4000   25.1270 C   0  0  0  0  0  0  0  0  0  0  0  0
   11.8850   11.9070   25.3350 C   0  0  0  0  0  0  0  0  0  0  0  0
   12.1070   10.5800   24.8890 N   0  0  0  0  0  0  0  0  0  0  0  0
   12.7340    8.4500   25.3100 O   0  0  0  0  0  0  0  0  0  0  0  0
   13.1530   10.7100   22.7610 C   0  0  0  0  0  0  0  0  0  0  0  0
   15.4260   10.3110   21.9740 C   0  0  0  0  0  0  0  0  0  0  0  0
   16.4840   11.8410   20.3640 C   0  0  0  0  0  0  0  0  0  0  0  0
   17.6730   11.2120   20.0780 C   0  0  0  0  0  0  0  0  0  0  0  0
   18.3310   11.9870   19.1590 C   0  0  0  0  0  0  0  0  0  0  0  0
   17.5100   13.0320   18.9130 C   0  0  0  0  0  0  0  0  0  0  0  0
   17.7170   14.1670   17.9910 C   0  0  0  0  0  0  0  0  0  0  0  0
   18.6740   14.1700   17.2800 O   0  0  0  0  0  0  0  0  0  0  0  0
   16.8280   15.0110   18.0420 O   0  0  0  0  0  0  0  0  0  0  0  0
   16.3740   12.9660   19.6210 O   0  0  0  0  0  0  0  0  0  0  0  0
   14.1400   12.2630   21.1600 C   0  0  0  0  0  0  0  0  0  0  0  0
   13.1060   11.9190   21.8860 C   0  0  0  0  0  0  0  0  0  0  0  0
    9.2880   11.5600   25.5110 C   0  0  0  0  0  0  0  0  0  0  0  0
    8.0330   12.0150   25.3340 C   0  0  0  0  0  0  0  0  0  0  0  0
    6.0230   15.2070   24.8630 C   0  0  0  0  0  0  0  0  0  0  0  0
    2.5520   16.0830   24.1790 O   0  0  0  0  0  0  0  0  0  0  0  0
    4.1918   11.1991   25.6277 H   0  0  0  0  0  0  0  0  0  0  0  0
   11.1030   14.2783   24.3431 H   0  0  0  0  0  0  0  0  0  0  0  0
   12.2290    9.0317   27.8441 H   0  0  0  0  0  0  0  0  0  0  0  0
   13.7725    9.8842   27.5015 H   0  0  0  0  0  0  0  0  0  0  0  0
   12.2243   10.7950   27.5015 H   0  0  0  0  0  0  0  0  0  0  0  0
   11.0934   10.9111   23.1663 H   0  0  0  0  0  0  0  0  0  0  0  0
   11.7907    9.2517   23.4070 H   0  0  0  0  0  0  0  0  0  0  0  0
   14.2802    9.0504   23.4639 H   0  0  0  0  0  0  0  0  0  0  0  0
    4.0284   17.5733   25.9602 H   0  0  0  0  0  0  0  0  0  0  0  0
    6.3194   12.2492   22.0072 H   0  0  0  0  0  0  0  0  0  0  0  0
    4.0153    8.8961   24.8981 H   0  0  0  0  0  0  0  0  0  0  0  0
    8.6998   15.1597   24.0317 H   0  0  0  0  0  0  0  0  0  0  0  0
   12.1152   11.9543   26.4096 H   0  0  0  0  0  0  0  0  0  0  0  0
   12.5365   12.5589   24.7345 H   0  0  0  0  0  0  0  0  0  0  0  0
   16.3250    9.6773   21.9648 H   0  0  0  0  0  0  0  0  0  0  0  0
   18.0294   10.2638   20.5068 H   0  0  0  0  0  0  0  0  0  0  0  0
   19.3195   11.7982   18.7149 H   0  0  0  0  0  0  0  0  0  0  0  0
   16.4952   15.3270   18.9192 H   0  0  0  0  0  0  0  0  0  0  0  0
   14.1000   13.1504   20.5112 H   0  0  0  0  0  0  0  0  0  0  0  0
   12.1910   12.5285   21.8508 H   0  0  0  0  0  0  0  0  0  0  0  0
    9.4530   10.5615   25.9420 H   0  0  0  0  0  0  0  0  0  0  0  0
    7.1716   11.3761   25.5786 H   0  0  0  0  0  0  0  0  0  0  0  0
    6.6255   16.0506   25.2309 H   0  0  0  0  0  0  0  0  0  0  0  0
 34 33  2  0
 33 35  1  0
 33 32  1  0
 32 31  2  0
 32 36  1  0
 31 30  1  0
 36 29  1  0
 30 29  2  0
 29  9  1  0
 18 17  1  0
 37  9  2  0
 37 38  1  0
  9 28  1  0
 38 27  2  0
 28  8  2  0
 17 16  1  0
 17  1  2  0
 19  1  1  0
 16 15  2  0
 27  8  1  0
 27  7  1  0
  1 20  1  0
  7 25  1  0
 15 14  1  0
 15  2  1  0
 13 14  1  0
 13 12  2  0
 42 11  2  0
 14 21  1  0
 20  2  2  0
 22  4  2  0
 22  3  1  0
 12 11  1  0
 12 41  1  0
 11 10  1  0
 21  3  1  0
 21 41  2  0
  4 23  1  0
  3 40  2  0
 25 24  1  0
 25  5  1  0
 23 24  1  0
 23 39  2  0
 26  5  2  0
 40 39  1  0
  5  6  1  0
  2 43  1  0
  4 44  1  0
  6 45  1  0
  6 46  1  0
  6 47  1  0
  7 48  1  0
  7 49  1  0
  8 50  1  0
 10 51  1  0
 16 52  1  0
 20 53  1  0
 22 54  1  0
 24 55  1  0
 24 56  1  0
 28 57  1  0
 30 58  1  0
 31 59  1  0
 35 60  1  0
 37 61  1  0
 38 62  1  0
 39 63  1  0
 40 64  1  0
 41 65  1  0
A    1
C10
A    2
C13
A    3
C15
A    4
C17
A    5
C21
A    6
C22
A    7
C24
A    8
C26
A    9
C28
A   10
O01
A   11
C02
A   12
C03
A   13
N04
A   14
N05
A   15
C06
A   16
C07
A   17
C08
A   18
CL0
A   19
CL1
A   20
C12
A   21
C14
A   22
C16
A   23
C18
A   24
C19
A   25
N20
A   26
O23
A   27
C25
A   28
C27
A   29
C29
A   30
C30
A   31
C31
A   32
C32
A   33
C33
A   34
O34
A   35
O35
A   36
O36
A   37
C37
A   38
C38
A   39
C39
A   40
C40
A   41
C41
A   42
O42
M  END
