4R5V_R5V_A_1102
     RDKit          3D

 43 44  0  0  0  0  0  0  0  0999 V2000
   18.3390    8.9020   10.0550 C   0  0  0  0  0  0  0  0  0  0  0  0
   16.8180    8.7630   10.0800 C   0  0  0  0  0  0  0  0  0  0  0  0
   16.4400    7.3810   10.5970 C   0  0  0  0  0  0  0  0  0  0  0  0
   16.2750    8.9450    8.6600 C   0  0  0  0  0  0  0  0  0  0  0  0
   16.2240    9.8520   10.9720 C   0  0  0  0  0  0  0  0  0  0  0  0
   16.9470   10.6710   11.5330 O   0  0  0  0  0  0  0  0  0  0  0  0
   14.8900    9.8560   11.0820 N   0  0  0  0  0  0  0  0  0  0  0  0
   14.2300   10.9300   11.8410 C   0  0  0  0  0  0  0  0  0  0  0  0
   13.1110   11.5210   10.9780 C   0  0  0  0  0  0  0  0  0  0  0  0
   12.1000   10.8760   10.7040 O   0  0  0  0  0  0  0  0  0  0  0  0
   13.3740   12.7560   10.5260 N   0  0  0  0  0  0  0  0  0  0  0  0
   12.3930   13.3860    9.6990 O   0  0  0  0  0  0  0  0  0  0  0  0
   13.8110   10.6130   13.1430 C   0  0  0  0  0  0  0  0  0  0  0  0
   13.0420   11.5550   13.8130 C   0  0  0  0  0  0  0  0  0  0  0  0
   12.6060   11.3380   15.1110 C   0  0  0  0  0  0  0  0  0  0  0  0
   14.1740    9.4390   13.7980 C   0  0  0  0  0  0  0  0  0  0  0  0
   13.7360    9.2160   15.1050 C   0  0  0  0  0  0  0  0  0  0  0  0
   12.9520   10.1630   15.7620 C   0  0  0  0  0  0  0  0  0  0  0  0
   12.5370    9.9800   17.0150 N   0  0  0  0  0  0  0  0  0  0  0  0
   11.7580   10.7020   17.6020 N   0  0  0  0  0  0  0  0  0  0  0  0
   11.5650   10.2570   18.8420 C   0  0  0  0  0  0  0  0  0  0  0  0
   12.3170    9.1750   18.9910 C   0  0  0  0  0  0  0  0  0  0  0  0
   12.9400    9.0070   17.8310 C   0  0  0  0  0  0  0  0  0  0  0  0
   18.7210    8.9369   11.0860 H   0  0  0  0  0  0  0  0  0  0  0  0
   18.7774    8.0402    9.5305 H   0  0  0  0  0  0  0  0  0  0  0  0
   18.6139    9.8290    9.5305 H   0  0  0  0  0  0  0  0  0  0  0  0
   16.4419    7.3879   11.6970 H   0  0  0  0  0  0  0  0  0  0  0  0
   15.4362    7.1155   10.2337 H   0  0  0  0  0  0  0  0  0  0  0  0
   17.1689    6.6416   10.2337 H   0  0  0  0  0  0  0  0  0  0  0  0
   15.2330    9.2942    8.7079 H   0  0  0  0  0  0  0  0  0  0  0  0
   16.8864    9.6873    8.1260 H   0  0  0  0  0  0  0  0  0  0  0  0
   16.3155    7.9842    8.1260 H   0  0  0  0  0  0  0  0  0  0  0  0
   14.3302    9.1135   10.6391 H   0  0  0  0  0  0  0  0  0  0  0  0
   15.0016   11.6875   12.0429 H   0  0  0  0  0  0  0  0  0  0  0  0
   14.2537   13.2346   10.7668 H   0  0  0  0  0  0  0  0  0  0  0  0
   11.7121   13.8233   10.2694 H   0  0  0  0  0  0  0  0  0  0  0  0
   12.7733   12.4923   13.3037 H   0  0  0  0  0  0  0  0  0  0  0  0
   11.9896   12.0927   15.6214 H   0  0  0  0  0  0  0  0  0  0  0  0
   14.8015    8.6924   13.2893 H   0  0  0  0  0  0  0  0  0  0  0  0
   14.0122    8.2845   15.6209 H   0  0  0  0  0  0  0  0  0  0  0  0
   10.9053   10.7033   19.6007 H   0  0  0  0  0  0  0  0  0  0  0  0
   12.4061    8.5469   19.8896 H   0  0  0  0  0  0  0  0  0  0  0  0
   13.6580    8.2099   17.5878 H   0  0  0  0  0  0  0  0  0  0  0  0
  4  2  1  0
 12 11  1  0
  1  2  1  0
  2  3  1  0
  2  5  1  0
 11  9  1  0
 10  9  2  0
  5  7  1  0
  5  6  2  0
  9  8  1  0
  7  8  1  0
  8 13  1  0
 13 16  2  0
 13 14  1  0
 16 17  1  0
 14 15  2  0
 17 18  2  0
 15 18  1  0
 18 19  1  0
 19 20  1  0
 19 23  1  0
 20 21  2  0
 23 22  2  0
 21 22  1  0
  1 24  1  0
  1 25  1  0
  1 26  1  0
  3 27  1  0
  3 28  1  0
  3 29  1  0
  4 30  1  0
  4 31  1  0
  4 32  1  0
  7 33  1  0
  8 34  1  0
 11 35  1  0
 12 36  1  0
 14 37  1  0
 15 38  1  0
 16 39  1  0
 17 40  1  0
 21 41  1  0
 22 42  1  0
 23 43  1  0
A    1
CAA
A    2
CAB
A    3
CAC
A    4
CAD
A    5
CAE
A    6
OAF
A    7
N
A    8
CA
A    9
C
A   10
O
A   11
NAK
A   12
OAL
A   13
CAM
A   14
CAW
A   15
CAV
A   16
CAN
A   17
CAO
A   18
CAP
A   19
NAQ
A   20
NAU
A   21
CAT
A   22
CAS
A   23
CAR
M  END
