4R6E_3JD_A_1101
     RDKit          3D

 44 47  0  0  0  0  0  0  0  0999 V2000
  -65.3360   25.2750   29.6600 C   0  0  0  0  0  0  0  0  0  0  0  0
  -65.2250   25.6390   31.1890 C   0  0  0  0  0  0  0  0  0  0  0  0
  -65.7090   27.0590   31.5170 C   0  0  0  0  0  0  0  0  0  0  0  0
  -67.0980   27.2800   31.0940 N   0  0  0  0  0  0  0  0  0  0  0  0
  -67.6690   26.3690   30.0110 C   0  0  0  0  0  0  0  0  0  0  0  0
  -66.6490   25.8190   28.9810 C   0  0  0  0  0  0  0  0  0  0  0  0
  -67.3010   24.8670   28.0570 C   0  0  0  0  0  0  0  0  0  0  0  0
  -67.2330   25.0560   26.6630 C   0  0  0  0  0  0  0  0  0  0  0  0
  -67.7910   24.0950   25.8040 C   0  0  0  0  0  0  0  0  0  0  0  0
  -68.0240   23.7270   28.5610 C   0  0  0  0  0  0  0  0  0  0  0  0
  -68.6520   22.7900   27.6490 C   0  0  0  0  0  0  0  0  0  0  0  0
  -68.6120   23.0520   26.2120 C   0  0  0  0  0  0  0  0  0  0  0  0
  -69.1870   22.1940   25.3040 N   0  0  0  0  0  0  0  0  0  0  0  0
  -68.7200   21.9550   24.0620 C   0  0  0  0  0  0  0  0  0  0  0  0
  -70.1180   21.3660   25.5600 N   0  0  0  0  0  0  0  0  0  0  0  0
  -70.4680   20.6460   24.5160 C   0  0  0  0  0  0  0  0  0  0  0  0
  -69.5380   21.0030   23.4990 C   0  0  0  0  0  0  0  0  0  0  0  0
  -69.5760   20.4190   22.2200 C   0  0  0  0  0  0  0  0  0  0  0  0
  -70.6220   19.4690   21.9740 C   0  0  0  0  0  0  0  0  0  0  0  0
  -71.5580   19.1010   23.0240 C   0  0  0  0  0  0  0  0  0  0  0  0
  -71.4870   19.6970   24.3410 C   0  0  0  0  0  0  0  0  0  0  0  0
  -72.4260   19.3450   25.3720 C   0  0  0  0  0  0  0  0  0  0  0  0
  -73.2820   18.5010   25.1860 O   0  0  0  0  0  0  0  0  0  0  0  0
  -72.4250   19.9330   26.5750 N   0  0  0  0  0  0  0  0  0  0  0  0
  -65.3200   24.1796   29.5603 H   0  0  0  0  0  0  0  0  0  0  0  0
  -64.4856   25.7514   29.1503 H   0  0  0  0  0  0  0  0  0  0  0  0
  -65.8321   24.9230   31.7624 H   0  0  0  0  0  0  0  0  0  0  0  0
  -64.1592   25.5904   31.4568 H   0  0  0  0  0  0  0  0  0  0  0  0
  -65.0614   27.7828   31.0005 H   0  0  0  0  0  0  0  0  0  0  0  0
  -65.6620   27.1896   32.6082 H   0  0  0  0  0  0  0  0  0  0  0  0
  -67.1623   28.2474   30.7462 H   0  0  0  0  0  0  0  0  0  0  0  0
  -68.4313   26.9385   29.4591 H   0  0  0  0  0  0  0  0  0  0  0  0
  -68.0619   25.4882   30.5399 H   0  0  0  0  0  0  0  0  0  0  0  0
  -66.2987   26.6567   28.3601 H   0  0  0  0  0  0  0  0  0  0  0  0
  -66.7456   25.9512   26.2493 H   0  0  0  0  0  0  0  0  0  0  0  0
  -67.5612   24.1743   24.7312 H   0  0  0  0  0  0  0  0  0  0  0  0
  -68.1003   23.5659   29.6465 H   0  0  0  0  0  0  0  0  0  0  0  0
  -69.1537   21.8906   28.0355 H   0  0  0  0  0  0  0  0  0  0  0  0
  -67.8491   22.4314   23.5882 H   0  0  0  0  0  0  0  0  0  0  0  0
  -68.8390   20.6784   21.4457 H   0  0  0  0  0  0  0  0  0  0  0  0
  -70.7174   19.0127   20.9776 H   0  0  0  0  0  0  0  0  0  0  0  0
  -72.3369   18.3535   22.8129 H   0  0  0  0  0  0  0  0  0  0  0  0
  -72.4260   19.3578   27.4294 H   0  0  0  0  0  0  0  0  0  0  0  0
  -72.4233   20.9605   26.6460 H   0  0  0  0  0  0  0  0  0  0  0  0
 19 18  2  0
 19 20  1  0
 18 17  1  0
 20 21  2  0
 17 14  2  0
 17 16  1  0
 14 13  1  0
 21 16  1  0
 21 22  1  0
 16 15  2  0
 23 22  2  0
 13 15  1  0
 13 12  1  0
 22 24  1  0
  9 12  1  0
  9  8  2  0
 12 11  2  0
  8  7  1  0
 11 10  1  0
  7 10  2  0
  7  6  1  0
  6  1  1  0
  6  5  1  0
  1  2  1  0
  5  4  1  0
  4  3  1  0
  2  3  1  0
  1 25  1  0
  1 26  1  0
  2 27  1  0
  2 28  1  0
  3 29  1  0
  3 30  1  0
  4 31  1  0
  5 32  1  0
  5 33  1  0
  6 34  1  0
  8 35  1  0
  9 36  1  0
 10 37  1  0
 11 38  1  0
 14 39  1  0
 18 40  1  0
 19 41  1  0
 20 42  1  0
 24 43  1  0
 24 44  1  0
A    1
CAM
A    2
CAK
A    3
CAL
A    4
NAP
A    5
CAN
A    6
CAW
A    7
CAR
A    8
CAF
A    9
CAH
A   10
CAE
A   11
CAG
A   12
CAS
A   13
NAX
A   14
CAJ
A   15
NAO
A   16
CAV
A   17
CAU
A   18
CAI
A   19
CAC
A   20
CAD
A   21
CAT
A   22
CAQ
A   23
OAB
A   24
NAA
M  END
