1AFA_MBG_1_1
     RDKit          3D

 27 27  0  0  0  0  0  0  0  0999 V2000
   48.1220   -2.4430   21.4160 C   0  0  0  0  0  0  0  0  0  0  0  0
   46.6810   -2.5300   21.9370 C   0  0  0  0  0  0  0  0  0  0  0  0
   46.6080   -3.4720   23.1410 C   0  0  0  0  0  0  0  0  0  0  0  0
   47.2490   -4.8190   22.8180 C   0  0  0  0  0  0  0  0  0  0  0  0
   48.6510   -4.6350   22.2460 C   0  0  0  0  0  0  0  0  0  0  0  0
   49.2320   -5.9600   21.7900 C   0  0  0  0  0  0  0  0  0  0  0  0
   49.5130   -1.3100   19.8340 C   0  0  0  0  0  0  0  0  0  0  0  0
   48.1800   -1.5760   20.3170 O   0  0  0  0  0  0  0  0  0  0  0  0
   46.2230   -1.2470   22.3170 O   0  0  0  0  0  0  0  0  0  0  0  0
   45.2570   -3.6860   23.5010 O   0  0  0  0  0  0  0  0  0  0  0  0
   46.4500   -5.5220   21.8850 O   0  0  0  0  0  0  0  0  0  0  0  0
   48.5960   -3.7520   21.1000 O   0  0  0  0  0  0  0  0  0  0  0  0
   50.6430   -5.8930   21.6610 O   0  0  0  0  0  0  0  0  0  0  0  0
   48.7815   -2.0292   22.1931 H   0  0  0  0  0  0  0  0  0  0  0  0
   46.0426   -2.9219   21.1315 H   0  0  0  0  0  0  0  0  0  0  0  0
   47.1536   -3.0038   23.9735 H   0  0  0  0  0  0  0  0  0  0  0  0
   47.3233   -5.3944   23.7526 H   0  0  0  0  0  0  0  0  0  0  0  0
   49.2852   -4.2106   23.0382 H   0  0  0  0  0  0  0  0  0  0  0  0
   48.9771   -6.7348   22.5281 H   0  0  0  0  0  0  0  0  0  0  0  0
   48.8069   -6.2020   20.8048 H   0  0  0  0  0  0  0  0  0  0  0  0
   50.1923   -1.1744   20.6885 H   0  0  0  0  0  0  0  0  0  0  0  0
   49.8573   -2.1571   19.2226 H   0  0  0  0  0  0  0  0  0  0  0  0
   49.5058   -0.3956   19.2226 H   0  0  0  0  0  0  0  0  0  0  0  0
   46.2004   -1.1838   23.3047 H   0  0  0  0  0  0  0  0  0  0  0  0
   45.1764   -3.6988   24.4876 H   0  0  0  0  0  0  0  0  0  0  0  0
   45.8018   -6.0924   22.3693 H   0  0  0  0  0  0  0  0  0  0  0  0
   51.0560   -5.8734   22.5605 H   0  0  0  0  0  0  0  0  0  0  0  0
  1  2  1  0
  1  8  1  0
  1 12  1  0
  2  3  1  0
  2  9  1  0
  3  4  1  0
  3 10  1  0
  4  5  1  0
  4 11  1  0
  5  6  1  0
  5 12  1  0
  6 13  1  0
  7  8  1  0
  1 14  1  0
  2 15  1  0
  3 16  1  0
  4 17  1  0
  5 18  1  0
  6 19  1  0
  6 20  1  0
  7 21  1  0
  7 22  1  0
  7 23  1  0
  9 24  1  0
 10 25  1  0
 11 26  1  0
 13 27  1  0
A    1
C1
A    2
C2
A    3
C3
A    4
C4
A    5
C5
A    6
C6
A    7
C7
A    8
O1
A    9
O2
A   10
O3
A   11
O4
A   12
O5
A   13
O6
M  END
