4R7H_P31_A_1001
     RDKit          3D

 44 47  0  0  0  0  0  0  0  0999 V2000
  -19.4490   -1.8600   17.7040 C   0  0  0  0  0  0  0  0  0  0  0  0
  -20.7170   -2.0230   18.2410 C   0  0  0  0  0  0  0  0  0  0  0  0
  -21.6050   -1.0300   18.4680 N   0  0  0  0  0  0  0  0  0  0  0  0
  -19.0020   -0.5960   17.3540 C   0  0  0  0  0  0  0  0  0  0  0  0
  -19.8830    0.4720   17.5660 C   0  0  0  0  0  0  0  0  0  0  0  0
  -21.1300    0.1760   18.1110 C   0  0  0  0  0  0  0  0  0  0  0  0
  -21.8170    1.3470   18.2320 N   0  0  0  0  0  0  0  0  0  0  0  0
  -19.8280    1.8850   17.3530 C   0  0  0  0  0  0  0  0  0  0  0  0
  -18.6870    2.6710   16.7850 C   0  0  0  0  0  0  0  0  0  0  0  0
  -19.2150    4.0540   16.5480 C   0  0  0  0  0  0  0  0  0  0  0  0
  -19.7640    4.4300   15.3310 C   0  0  0  0  0  0  0  0  0  0  0  0
  -20.2610    5.6590   15.0690 N   0  0  0  0  0  0  0  0  0  0  0  0
  -20.2240    6.5930   16.0520 C   0  0  0  0  0  0  0  0  0  0  0  0
  -19.6870    6.2920   17.3010 C   0  0  0  0  0  0  0  0  0  0  0  0
  -19.1830    5.0210   17.5460 C   0  0  0  0  0  0  0  0  0  0  0  0
  -20.7190    7.8800   15.8590 N   0  0  0  0  0  0  0  0  0  0  0  0
  -21.2970    8.3050   14.5980 C   0  0  0  0  0  0  0  0  0  0  0  0
  -20.6280    9.5970   14.2450 C   0  0  0  0  0  0  0  0  0  0  0  0
  -21.0470    2.3830   17.7810 C   0  0  0  0  0  0  0  0  0  0  0  0
  -19.2480    9.6500   14.1140 C   0  0  0  0  0  0  0  0  0  0  0  0
  -18.5530   10.7650   13.8150 N   0  0  0  0  0  0  0  0  0  0  0  0
  -19.2600   11.8980   13.6300 C   0  0  0  0  0  0  0  0  0  0  0  0
  -20.6450   11.9520   13.7500 C   0  0  0  0  0  0  0  0  0  0  0  0
  -21.3340   10.7840   14.0610 C   0  0  0  0  0  0  0  0  0  0  0  0
  -18.4600   13.1220   13.3150 C   0  0  0  0  0  0  0  0  0  0  0  0
  -18.8500   14.1850   14.0650 F   0  0  0  0  0  0  0  0  0  0  0  0
  -17.1370   12.9320   13.5690 F   0  0  0  0  0  0  0  0  0  0  0  0
  -18.5040   13.5680   12.0390 F   0  0  0  0  0  0  0  0  0  0  0  0
  -18.4060   -3.1950   17.4560 Cl  0  0  0  0  0  0  0  0  0  0  0  0
  -21.0257   -3.0455   18.5041 H   0  0  0  0  0  0  0  0  0  0  0  0
  -17.9999   -0.4384   16.9286 H   0  0  0  0  0  0  0  0  0  0  0  0
  -22.7721    1.4378   18.6067 H   0  0  0  0  0  0  0  0  0  0  0  0
  -18.3485    2.2238   15.8387 H   0  0  0  0  0  0  0  0  0  0  0  0
  -17.8249    2.6806   17.4681 H   0  0  0  0  0  0  0  0  0  0  0  0
  -19.7969    3.6795   14.5275 H   0  0  0  0  0  0  0  0  0  0  0  0
  -19.6620    7.0576   18.0904 H   0  0  0  0  0  0  0  0  0  0  0  0
  -18.7579    4.7794   18.5313 H   0  0  0  0  0  0  0  0  0  0  0  0
  -20.6733    8.5528   16.6375 H   0  0  0  0  0  0  0  0  0  0  0  0
  -22.3813    8.4546   14.7069 H   0  0  0  0  0  0  0  0  0  0  0  0
  -21.1465    7.5488   13.8135 H   0  0  0  0  0  0  0  0  0  0  0  0
  -21.3474    3.4410   17.7614 H   0  0  0  0  0  0  0  0  0  0  0  0
  -18.6827    8.7185   14.2644 H   0  0  0  0  0  0  0  0  0  0  0  0
  -21.1845   12.8991   13.6020 H   0  0  0  0  0  0  0  0  0  0  0  0
  -22.4294   10.7976   14.1610 H   0  0  0  0  0  0  0  0  0  0  0  0
 28 25  1  0
 25 27  1  0
 25 22  1  0
 25 26  1  0
 22 23  2  0
 22 21  1  0
 23 24  1  0
 21 20  2  0
 24 18  2  0
 20 18  1  0
 18 17  1  0
 17 16  1  0
 12 11  2  0
 12 13  1  0
 11 10  1  0
 16 13  1  0
 13 14  2  0
 10  9  1  0
 10 15  2  0
  9  8  1  0
 14 15  1  0
  8  5  1  0
  8 19  2  0
  4  5  1  0
  4  1  2  0
 29  1  1  0
  5  6  2  0
  1  2  1  0
 19  7  1  0
  6  7  1  0
  6  3  1  0
  2  3  2  0
  2 30  1  0
  4 31  1  0
  7 32  1  0
  9 33  1  0
  9 34  1  0
 11 35  1  0
 14 36  1  0
 15 37  1  0
 16 38  1  0
 17 39  1  0
 17 40  1  0
 19 41  1  0
 20 42  1  0
 23 43  1  0
 24 44  1  0
A    1
C1
A    2
C2
A    3
N4
A    4
C5
A    5
C7
A    6
C8
A    7
N9
A    8
C11
A    9
C12
A   10
C15
A   11
C16
A   12
N18
A   13
C19
A   14
C20
A   15
C22
A   16
N24
A   17
C26
A   18
C29
A   19
C30
A   20
C32
A   21
N34
A   22
C35
A   23
C36
A   24
C38
A   25
C40
A   26
F41
A   27
F42
A   28
F43
A   29
CL1
M  END
