4R8M_3LX_C_600
     RDKit          3D

 40 39  0  0  0  0  0  0  0  0999 V2000
   45.7350   -2.2660  108.1120 C   0  0  0  0  0  0  0  0  0  0  0  0
   45.3310   -0.9600  108.8950 S   0  0  0  0  0  0  0  0  0  0  0  0
   44.7390   -2.9660  107.2160 C   0  0  0  0  0  0  0  0  0  0  0  0
   43.7330   -3.7080  108.0960 C   0  0  0  0  0  0  0  0  0  0  0  0
   42.7090   -4.4720  107.2650 C   0  0  0  0  0  0  0  0  0  0  0  0
   41.2760   -4.0020  107.4970 C   0  0  0  0  0  0  0  0  0  0  0  0
   40.3080   -4.9150  106.7400 C   0  0  0  0  0  0  0  0  0  0  0  0
   38.8440   -4.5280  106.9620 C   0  0  0  0  0  0  0  0  0  0  0  0
   37.8910   -5.6790  106.6370 C   0  0  0  0  0  0  0  0  0  0  0  0
   37.6720   -5.8470  105.1370 C   0  0  0  0  0  0  0  0  0  0  0  0
   36.4280   -5.0970  104.6690 C   0  0  0  0  0  0  0  0  0  0  0  0
   36.2860   -5.1170  103.1450 C   0  0  0  0  0  0  0  0  0  0  0  0
   36.2380   -3.7090  102.5500 C   0  0  0  0  0  0  0  0  0  0  0  0
   35.9480   -3.7370  101.0630 C   0  0  0  0  0  0  0  0  0  0  0  0
   46.7516   -2.6724  108.2183 H   0  0  0  0  0  0  0  0  0  0  0  0
   45.2635   -3.6825  106.5668 H   0  0  0  0  0  0  0  0  0  0  0  0
   44.2178   -2.2309  106.5851 H   0  0  0  0  0  0  0  0  0  0  0  0
   44.2760   -4.4203  108.7346 H   0  0  0  0  0  0  0  0  0  0  0  0
   43.1950   -2.9641  108.7019 H   0  0  0  0  0  0  0  0  0  0  0  0
   42.7735   -5.5389  107.5250 H   0  0  0  0  0  0  0  0  0  0  0  0
   42.9456   -4.2899  106.2063 H   0  0  0  0  0  0  0  0  0  0  0  0
   41.1658   -2.9697  107.1335 H   0  0  0  0  0  0  0  0  0  0  0  0
   41.0485   -4.0395  108.5726 H   0  0  0  0  0  0  0  0  0  0  0  0
   40.4558   -5.9492  107.0845 H   0  0  0  0  0  0  0  0  0  0  0  0
   40.5221   -4.8125  105.6659 H   0  0  0  0  0  0  0  0  0  0  0  0
   38.6009   -3.6723  106.3149 H   0  0  0  0  0  0  0  0  0  0  0  0
   38.7177   -4.2723  108.0244 H   0  0  0  0  0  0  0  0  0  0  0  0
   36.9207   -5.4800  107.1155 H   0  0  0  0  0  0  0  0  0  0  0  0
   38.3446   -6.6069  107.0156 H   0  0  0  0  0  0  0  0  0  0  0  0
   37.5516   -6.9166  104.9104 H   0  0  0  0  0  0  0  0  0  0  0  0
   38.5447   -5.4327  104.6109 H   0  0  0  0  0  0  0  0  0  0  0  0
   36.4956   -4.0520  105.0057 H   0  0  0  0  0  0  0  0  0  0  0  0
   35.5477   -5.5973  105.0989 H   0  0  0  0  0  0  0  0  0  0  0  0
   35.3568   -5.6441  102.8828 H   0  0  0  0  0  0  0  0  0  0  0  0
   37.1674   -5.6284  102.7307 H   0  0  0  0  0  0  0  0  0  0  0  0
   37.2093   -3.2195  102.7143 H   0  0  0  0  0  0  0  0  0  0  0  0
   35.4276   -3.1551  103.0464 H   0  0  0  0  0  0  0  0  0  0  0  0
   34.8648   -3.8416  100.9026 H   0  0  0  0  0  0  0  0  0  0  0  0
   36.2980   -2.8009  100.6035 H   0  0  0  0  0  0  0  0  0  0  0  0
   36.4707   -4.5889  100.6035 H   0  0  0  0  0  0  0  0  0  0  0  0
 14 13  1  0
 13 12  1  0
 12 11  1  0
 11 10  1  0
 10  9  1  0
  9  8  1  0
  7  8  1  0
  7  6  1  0
  3  4  1  0
  3  1  1  0
  5  6  1  0
  5  4  1  0
  1  2  2  0
  1 15  1  0
  3 16  1  0
  3 17  1  0
  4 18  1  0
  4 19  1  0
  5 20  1  0
  5 21  1  0
  6 22  1  0
  6 23  1  0
  7 24  1  0
  7 25  1  0
  8 26  1  0
  8 27  1  0
  9 28  1  0
  9 29  1  0
 10 30  1  0
 10 31  1  0
 11 32  1  0
 11 33  1  0
 12 34  1  0
 12 35  1  0
 13 36  1  0
 13 37  1  0
 14 38  1  0
 14 39  1  0
 14 40  1  0
A    1
C1
A    2
S1
A    3
C2
A    4
C3
A    5
C4
A    6
C5
A    7
C6
A    8
C7
A    9
C8
A   10
C9
A   11
C10
A   12
C11
A   13
C12
A   14
C13
M  END
