4R92_3KU_A_501
     RDKit          3D

 69 72  0  0  0  0  0  0  0  0999 V2000
   21.3210   11.8320   23.2280 C   0  0  0  0  0  0  0  0  0  0  0  0
   20.9120   10.7230   22.2730 C   0  0  0  0  0  0  0  0  0  0  0  0
   21.4960    9.5480   22.9030 N   0  0  0  0  0  0  0  0  0  0  0  0
   22.1270    9.8900   24.0750 C   0  0  0  0  0  0  0  0  0  0  0  0
   22.0400   11.2540   24.2480 N   0  0  0  0  0  0  0  0  0  0  0  0
   20.9910   12.9990   23.1300 O   0  0  0  0  0  0  0  0  0  0  0  0
   19.3960   10.5560   22.2220 C   0  0  0  0  0  0  0  0  0  0  0  0
   22.9290   11.0380   20.6940 C   0  0  0  0  0  0  0  0  0  0  0  0
   18.6980   10.5200   23.5880 C   0  0  0  0  0  0  0  0  0  0  0  0
   17.2440   10.0750   23.5440 C   0  0  0  0  0  0  0  0  0  0  0  0
   23.3790   12.1880   19.8090 C   0  0  0  0  0  0  0  0  0  0  0  0
   24.8990   12.1330   19.6430 C   0  0  0  0  0  0  0  0  0  0  0  0
   25.3860   10.7850   19.1240 C   0  0  0  0  0  0  0  0  0  0  0  0
   24.9360    9.6890   20.0660 C   0  0  0  0  0  0  0  0  0  0  0  0
   23.4120    9.7060   20.1310 C   0  0  0  0  0  0  0  0  0  0  0  0
   16.8070    9.7490   24.9690 C   0  0  0  0  0  0  0  0  0  0  0  0
   15.3400    9.3440   25.0860 C   0  0  0  0  0  0  0  0  0  0  0  0
   14.4240   10.3670   24.4230 C   0  0  0  0  0  0  0  0  0  0  0  0
   14.8820   10.7200   23.0120 C   0  0  0  0  0  0  0  0  0  0  0  0
   16.3460   11.1520   22.9480 C   0  0  0  0  0  0  0  0  0  0  0  0
   22.7340    9.1050   24.9020 N   0  0  0  0  0  0  0  0  0  0  0  0
   25.3890   13.2070   18.8180 N   0  0  0  0  0  0  0  0  0  0  0  0
   25.7620   14.3990   19.4200 C   0  0  0  0  0  0  0  0  0  0  0  0
   21.4150   10.9760   20.8540 C   0  0  0  0  0  0  0  0  0  0  0  0
   22.6500   12.0160   25.3330 C   0  0  0  0  0  0  0  0  0  0  0  0
   25.6810   14.6460   20.6200 O   0  0  0  0  0  0  0  0  0  0  0  0
   26.3040   15.4100   18.5030 C   0  0  0  0  0  0  0  0  0  0  0  0
   26.4830   16.7050   18.9550 C   0  0  0  0  0  0  0  0  0  0  0  0
   27.0000   17.6220   18.0610 C   0  0  0  0  0  0  0  0  0  0  0  0
   26.6360   15.0760   17.2070 C   0  0  0  0  0  0  0  0  0  0  0  0
   27.1570   16.0680   16.4020 C   0  0  0  0  0  0  0  0  0  0  0  0
   27.3490   17.3360   16.7970 N   0  0  0  0  0  0  0  0  0  0  0  0
   21.4436    8.5921   22.5229 H   0  0  0  0  0  0  0  0  0  0  0  0
   18.9797   11.3976   21.6489 H   0  0  0  0  0  0  0  0  0  0  0  0
   19.2116    9.5757   21.7582 H   0  0  0  0  0  0  0  0  0  0  0  0
   23.3737   11.2219   21.6832 H   0  0  0  0  0  0  0  0  0  0  0  0
   19.2502    9.8247   24.2374 H   0  0  0  0  0  0  0  0  0  0  0  0
   18.6968   11.5534   23.9651 H   0  0  0  0  0  0  0  0  0  0  0  0
   17.1537    9.1886   22.8990 H   0  0  0  0  0  0  0  0  0  0  0  0
   23.0945   13.1431   20.2746 H   0  0  0  0  0  0  0  0  0  0  0  0
   22.8973   12.1052   18.8236 H   0  0  0  0  0  0  0  0  0  0  0  0
   25.3175   12.2617   20.6521 H   0  0  0  0  0  0  0  0  0  0  0  0
   24.9661   10.6039   18.1236 H   0  0  0  0  0  0  0  0  0  0  0  0
   26.4844   10.7899   19.0653 H   0  0  0  0  0  0  0  0  0  0  0  0
   25.2811    8.7135   19.6929 H   0  0  0  0  0  0  0  0  0  0  0  0
   25.3590    9.8543   21.0679 H   0  0  0  0  0  0  0  0  0  0  0  0
   23.0027    9.5682   19.1193 H   0  0  0  0  0  0  0  0  0  0  0  0
   23.0694    8.8915   20.7862 H   0  0  0  0  0  0  0  0  0  0  0  0
   17.4265    8.9194   25.3405 H   0  0  0  0  0  0  0  0  0  0  0  0
   16.9341   10.6673   25.5611 H   0  0  0  0  0  0  0  0  0  0  0  0
   15.0750    9.2637   26.1506 H   0  0  0  0  0  0  0  0  0  0  0  0
   15.2064    8.3787   24.5757 H   0  0  0  0  0  0  0  0  0  0  0  0
   14.4157   11.2827   25.0324 H   0  0  0  0  0  0  0  0  0  0  0  0
   13.4193    9.9250   24.3516 H   0  0  0  0  0  0  0  0  0  0  0  0
   14.2571   11.5439   22.6369 H   0  0  0  0  0  0  0  0  0  0  0  0
   14.7802    9.8133   22.3975 H   0  0  0  0  0  0  0  0  0  0  0  0
   16.6289   11.3198   21.8983 H   0  0  0  0  0  0  0  0  0  0  0  0
   16.4699   12.0799   23.5257 H   0  0  0  0  0  0  0  0  0  0  0  0
   23.1700    9.4901   25.7520 H   0  0  0  0  0  0  0  0  0  0  0  0
   25.4612   13.0914   17.7971 H   0  0  0  0  0  0  0  0  0  0  0  0
   20.9990   11.9357   20.5134 H   0  0  0  0  0  0  0  0  0  0  0  0
   21.0844   10.1120   20.2588 H   0  0  0  0  0  0  0  0  0  0  0  0
   22.3214   11.6055   26.2992 H   0  0  0  0  0  0  0  0  0  0  0  0
   23.7453   11.9471   25.2588 H   0  0  0  0  0  0  0  0  0  0  0  0
   22.3430   13.0697   25.2588 H   0  0  0  0  0  0  0  0  0  0  0  0
   26.2241   16.9928   19.9846 H   0  0  0  0  0  0  0  0  0  0  0  0
   27.1349   18.6569   18.4085 H   0  0  0  0  0  0  0  0  0  0  0  0
   26.4904   14.0537   16.8279 H   0  0  0  0  0  0  0  0  0  0  0  0
   27.4326   15.8026   15.3707 H   0  0  0  0  0  0  0  0  0  0  0  0
 31 32  2  0
 31 30  1  0
 32 29  1  0
 30 27  2  0
 29 28  2  0
 27 28  1  0
 27 23  1  0
 22 23  1  0
 22 12  1  0
 13 12  1  0
 13 14  1  0
 23 26  2  0
 12 11  1  0
 11  8  1  0
 14 15  1  0
 15  8  1  0
  8 24  1  0
 24  2  1  0
  7  2  1  0
  7  9  1  0
  2  3  1  0
  2  1  1  0
  3  4  1  0
 20 19  1  0
 20 10  1  0
 19 18  1  0
  6  1  2  0
  1  5  1  0
 10  9  1  0
 10 16  1  0
  4  5  1  0
  4 21  2  3
  5 25  1  0
 18 17  1  0
 16 17  1  0
  3 33  1  0
  7 34  1  0
  7 35  1  0
  8 36  1  0
  9 37  1  0
  9 38  1  0
 10 39  1  0
 11 40  1  0
 11 41  1  0
 12 42  1  0
 13 43  1  0
 13 44  1  0
 14 45  1  0
 14 46  1  0
 15 47  1  0
 15 48  1  0
 16 49  1  0
 16 50  1  0
 17 51  1  0
 17 52  1  0
 18 53  1  0
 18 54  1  0
 19 55  1  0
 19 56  1  0
 20 57  1  0
 20 58  1  0
 21 59  1  0
 22 60  1  0
 24 61  1  0
 24 62  1  0
 25 63  1  0
 25 64  1  0
 25 65  1  0
 28 66  1  0
 29 67  1  0
 30 68  1  0
 31 69  1  0
A    1
C1
A    2
C2
A    3
N3
A    4
C4
A    5
N5
A    6
O6
A    7
C7
A    8
C8
A    9
C9
A   10
C10
A   11
C11
A   12
C12
A   13
C13
A   14
C14
A   15
C15
A   16
C16
A   17
C17
A   18
C18
A   19
C19
A   20
C20
A   21
N21
A   22
N22
A   23
C23
A   24
C24
A   25
C25
A   26
O26
A   27
C27
A   28
C28
A   29
C29
A   30
C30
A   31
C31
A   32
N32
M  END
