4R9R_3KX_A_302
     RDKit          3D

 42 44  0  0  0  0  0  0  0  0999 V2000
  -51.4620    2.5330    9.6370 O   0  0  0  0  0  0  0  0  0  0  0  0
  -50.4000    2.7220    9.0280 C   0  0  0  0  0  0  0  0  0  0  0  0
  -50.2290    2.4420    7.6540 C   0  0  0  0  0  0  0  0  0  0  0  0
  -51.3890    1.8590    6.9490 C   0  0  0  0  0  0  0  0  0  0  0  0
  -52.5270    2.6200    6.7210 C   0  0  0  0  0  0  0  0  0  0  0  0
  -53.6350    2.0560    6.0920 C   0  0  0  0  0  0  0  0  0  0  0  0
  -53.6260    0.7120    5.7250 C   0  0  0  0  0  0  0  0  0  0  0  0
  -52.5020   -0.0610    5.9730 C   0  0  0  0  0  0  0  0  0  0  0  0
  -51.3980    0.5030    6.6090 C   0  0  0  0  0  0  0  0  0  0  0  0
  -48.9720    2.6760    7.0340 C   0  0  0  0  0  0  0  0  0  0  0  0
  -48.7580    2.4090    5.7090 O   0  0  0  0  0  0  0  0  0  0  0  0
  -47.8780    3.1980    7.7870 C   0  0  0  0  0  0  0  0  0  0  0  0
  -48.0590    3.4730    9.1070 C   0  0  0  0  0  0  0  0  0  0  0  0
  -49.2920    3.2460    9.6900 N   0  0  0  0  0  0  0  0  0  0  0  0
  -47.0200    4.0360   10.0210 C   0  0  0  0  0  0  0  0  0  0  0  0
  -46.9200    3.1850   11.2910 C   0  0  0  0  0  0  0  0  0  0  0  0
  -46.3540    1.7950   11.0010 C   0  0  0  0  0  0  0  0  0  0  0  0
  -44.9190    1.6010   11.4910 C   0  0  0  0  0  0  0  0  0  0  0  0
  -44.8270    1.7370   12.9990 C   0  0  0  0  0  0  0  0  0  0  0  0
  -45.6590    2.9270   13.4990 C   0  0  0  0  0  0  0  0  0  0  0  0
  -46.0740    3.8720   12.3630 C   0  0  0  0  0  0  0  0  0  0  0  0
  -52.5544    3.6729    7.0382 H   0  0  0  0  0  0  0  0  0  0  0  0
  -54.5206    2.6745    5.8843 H   0  0  0  0  0  0  0  0  0  0  0  0
  -54.5071    0.2659    5.2405 H   0  0  0  0  0  0  0  0  0  0  0  0
  -52.4819   -1.1177    5.6682 H   0  0  0  0  0  0  0  0  0  0  0  0
  -50.5259   -0.1242    6.8457 H   0  0  0  0  0  0  0  0  0  0  0  0
  -48.1614    1.6647    5.4441 H   0  0  0  0  0  0  0  0  0  0  0  0
  -46.9039    3.3752    7.3078 H   0  0  0  0  0  0  0  0  0  0  0  0
  -49.3991    3.4816   10.6869 H   0  0  0  0  0  0  0  0  0  0  0  0
  -46.0471    4.0395    9.5077 H   0  0  0  0  0  0  0  0  0  0  0  0
  -47.3011    5.0631   10.2967 H   0  0  0  0  0  0  0  0  0  0  0  0
  -47.9461    3.0708   11.6704 H   0  0  0  0  0  0  0  0  0  0  0  0
  -46.9937    1.0494   11.4959 H   0  0  0  0  0  0  0  0  0  0  0  0
  -46.3391    1.6758    9.9076 H   0  0  0  0  0  0  0  0  0  0  0  0
  -44.5739    0.5978   11.2002 H   0  0  0  0  0  0  0  0  0  0  0  0
  -44.2886    2.3779   11.0338 H   0  0  0  0  0  0  0  0  0  0  0  0
  -45.2023    0.8147   13.4664 H   0  0  0  0  0  0  0  0  0  0  0  0
  -43.7749    1.9078   13.2707 H   0  0  0  0  0  0  0  0  0  0  0  0
  -45.0617    3.4934   14.2287 H   0  0  0  0  0  0  0  0  0  0  0  0
  -46.5773    2.5259   13.9527 H   0  0  0  0  0  0  0  0  0  0  0  0
  -45.1648    4.2706   11.8893 H   0  0  0  0  0  0  0  0  0  0  0  0
  -46.6898    4.6681   12.8068 H   0  0  0  0  0  0  0  0  0  0  0  0
 11 10  1  0
  7  8  2  0
  7  6  1  0
  8  9  1  0
  6  5  2  0
  9  4  2  0
  5  4  1  0
  4  3  1  0
 10  3  2  0
 10 12  1  0
  3  2  1  0
 12 13  2  0
  2  1  2  0
  2 14  1  0
 13 14  1  0
 13 15  1  0
 15 16  1  0
 17 16  1  0
 17 18  1  0
 16 21  1  0
 18 19  1  0
 21 20  1  0
 19 20  1  0
  5 22  1  0
  6 23  1  0
  7 24  1  0
  8 25  1  0
  9 26  1  0
 11 27  1  0
 12 28  1  0
 14 29  1  0
 15 30  1  0
 15 31  1  0
 16 32  1  0
 17 33  1  0
 17 34  1  0
 18 35  1  0
 18 36  1  0
 19 37  1  0
 19 38  1  0
 20 39  1  0
 20 40  1  0
 21 41  1  0
 21 42  1  0
A    1
O
A    2
C
A    3
C11
A    4
C12
A    5
C17
A    6
C16
A    7
C15
A    8
C14
A    9
C13
A   10
C10
A   11
O1
A   12
C9
A   13
C1
A   14
N
A   15
C2
A   16
C3
A   17
C8
A   18
C7
A   19
C6
A   20
C5
A   21
C4
M  END
