4R9S_3KY_A_302
     RDKit          3D

 48 50  0  0  0  0  0  0  0  0999 V2000
  -50.8780    1.6630    9.8550 O   0  0  0  0  0  0  0  0  0  0  0  0
  -49.8810    2.0410    9.2060 C   0  0  0  0  0  0  0  0  0  0  0  0
  -49.7820    1.9200    7.8030 C   0  0  0  0  0  0  0  0  0  0  0  0
  -50.9230    1.3060    7.1120 C   0  0  0  0  0  0  0  0  0  0  0  0
  -52.0700    2.0650    6.8380 C   0  0  0  0  0  0  0  0  0  0  0  0
  -53.1680    1.4800    6.1940 C   0  0  0  0  0  0  0  0  0  0  0  0
  -53.1310    0.1200    5.8410 C   0  0  0  0  0  0  0  0  0  0  0  0
  -51.9820   -0.6440    6.1270 C   0  0  0  0  0  0  0  0  0  0  0  0
  -50.8870   -0.0480    6.7660 C   0  0  0  0  0  0  0  0  0  0  0  0
  -48.6670    2.3500    7.1130 C   0  0  0  0  0  0  0  0  0  0  0  0
  -48.6080    2.2210    5.7490 O   0  0  0  0  0  0  0  0  0  0  0  0
  -48.7890    2.6370    9.8430 N   0  0  0  0  0  0  0  0  0  0  0  0
  -47.6380    3.0770    9.1810 C   0  0  0  0  0  0  0  0  0  0  0  0
  -47.5460    2.9500    7.8060 C   0  0  0  0  0  0  0  0  0  0  0  0
  -46.5930    3.6810   10.0650 C   0  0  0  0  0  0  0  0  0  0  0  0
  -45.7970    2.6870   10.9240 C   0  0  0  0  0  0  0  0  0  0  0  0
  -46.4980    1.3300   11.0270 C   0  0  0  0  0  0  0  0  0  0  0  0
  -45.6540    0.3050   11.8010 C   0  0  0  0  0  0  0  0  0  0  0  0
  -44.4820    0.8420   12.6460 C   0  0  0  0  0  0  0  0  0  0  0  0
  -43.2430    1.0140   11.7550 C   0  0  0  0  0  0  0  0  0  0  0  0
  -44.1590   -0.1640   13.7520 C   0  0  0  0  0  0  0  0  0  0  0  0
  -44.8970    2.1920   13.2740 C   0  0  0  0  0  0  0  0  0  0  0  0
  -45.5420    3.2350   12.3350 C   0  0  0  0  0  0  0  0  0  0  0  0
  -52.1077    3.1248    7.1302 H   0  0  0  0  0  0  0  0  0  0  0  0
  -54.0581    2.0843    5.9649 H   0  0  0  0  0  0  0  0  0  0  0  0
  -53.9947   -0.3457    5.3439 H   0  0  0  0  0  0  0  0  0  0  0  0
  -51.9449   -1.7076    5.8487 H   0  0  0  0  0  0  0  0  0  0  0  0
  -49.9946   -0.6483    6.9966 H   0  0  0  0  0  0  0  0  0  0  0  0
  -48.2320    1.3989    5.3453 H   0  0  0  0  0  0  0  0  0  0  0  0
  -48.8347    2.7600   10.8646 H   0  0  0  0  0  0  0  0  0  0  0  0
  -46.6545    3.2921    7.2599 H   0  0  0  0  0  0  0  0  0  0  0  0
  -45.8803    4.2226    9.4257 H   0  0  0  0  0  0  0  0  0  0  0  0
  -47.1334    4.3263   10.7732 H   0  0  0  0  0  0  0  0  0  0  0  0
  -44.8320    2.5468   10.4150 H   0  0  0  0  0  0  0  0  0  0  0  0
  -47.4582    1.4645   11.5465 H   0  0  0  0  0  0  0  0  0  0  0  0
  -46.6486    0.9463   10.0071 H   0  0  0  0  0  0  0  0  0  0  0  0
  -46.3309   -0.2333   12.4807 H   0  0  0  0  0  0  0  0  0  0  0  0
  -45.1797   -0.3121   11.0237 H   0  0  0  0  0  0  0  0  0  0  0  0
  -42.3512    1.1378   12.3870 H   0  0  0  0  0  0  0  0  0  0  0  0
  -43.1217    0.1241   11.1199 H   0  0  0  0  0  0  0  0  0  0  0  0
  -43.3687    1.9033   11.1199 H   0  0  0  0  0  0  0  0  0  0  0  0
  -44.3108    0.3088   14.7335 H   0  0  0  0  0  0  0  0  0  0  0  0
  -44.8221   -1.0367   13.6589 H   0  0  0  0  0  0  0  0  0  0  0  0
  -43.1118   -0.4876   13.6589 H   0  0  0  0  0  0  0  0  0  0  0  0
  -43.9941    2.6483   13.7059 H   0  0  0  0  0  0  0  0  0  0  0  0
  -45.6827    1.9386   14.0010 H   0  0  0  0  0  0  0  0  0  0  0  0
  -44.8702    4.1027   12.2591 H   0  0  0  0  0  0  0  0  0  0  0  0
  -46.5164    3.5102   12.7648 H   0  0  0  0  0  0  0  0  0  0  0  0
 11 10  1  0
  7  8  2  0
  7  6  1  0
  8  9  1  0
  6  5  2  0
  9  4  2  0
  5  4  1  0
  4  3  1  0
 10  3  2  0
 10 14  1  0
  3  2  1  0
 14 13  2  0
 13 12  1  0
 13 15  1  0
  2 12  1  0
  2  1  2  0
 15 16  1  0
 16 17  1  0
 16 23  1  0
 17 18  1  0
 20 19  1  0
 18 19  1  0
 23 22  1  0
 19 22  1  0
 19 21  1  0
  5 24  1  0
  6 25  1  0
  7 26  1  0
  8 27  1  0
  9 28  1  0
 11 29  1  0
 12 30  1  0
 14 31  1  0
 15 32  1  0
 15 33  1  0
 16 34  1  0
 17 35  1  0
 17 36  1  0
 18 37  1  0
 18 38  1  0
 20 39  1  0
 20 40  1  0
 20 41  1  0
 21 42  1  0
 21 43  1  0
 21 44  1  0
 22 45  1  0
 22 46  1  0
 23 47  1  0
 23 48  1  0
A    1
O1
A    2
C19
A    3
C12
A    4
C13
A    5
C18
A    6
C17
A    7
C16
A    8
C15
A    9
C14
A   10
C
A   11
O
A   12
N
A   13
C2
A   14
C1
A   15
C3
A   16
C4
A   17
C11
A   18
C10
A   19
C7
A   20
C9
A   21
C8
A   22
C6
A   23
C5
M  END
