4RA5_3L0_A_801
     RDKit          3D

 57 61  0  0  0  0  0  0  0  0999 V2000
  -29.5390    5.5930  -25.8710 C   0  0  0  0  0  0  0  0  0  0  0  0
  -29.5360    4.3180  -26.6150 N   0  0  0  0  0  0  0  0  0  0  0  0
  -28.8880    3.2180  -25.8720 C   0  0  0  0  0  0  0  0  0  0  0  0
  -28.0950    2.8380  -27.1380 C   0  0  0  0  0  0  0  0  0  0  0  0
  -28.7400    1.7450  -28.0040 C   0  0  0  0  0  0  0  0  0  0  0  0
  -28.4380    4.2650  -27.6070 C   0  0  0  0  0  0  0  0  0  0  0  0
  -26.6890    2.5170  -26.8550 N   0  0  0  0  0  0  0  0  0  0  0  0
  -26.3710    1.5110  -25.8340 C   0  0  0  0  0  0  0  0  0  0  0  0
  -25.6530    3.0610  -27.6180 C   0  0  0  0  0  0  0  0  0  0  0  0
  -25.2670    2.2590  -28.6740 C   0  0  0  0  0  0  0  0  0  0  0  0
  -24.2610    2.6510  -29.5510 C   0  0  0  0  0  0  0  0  0  0  0  0
  -23.8190    1.8390  -30.6140 N   0  0  0  0  0  0  0  0  0  0  0  0
  -24.0020    0.3650  -30.5590 C   0  0  0  0  0  0  0  0  0  0  0  0
  -23.1860   -0.2460  -29.4050 C   0  0  0  0  0  0  0  0  0  0  0  0
  -23.6120   -0.3040  -31.8490 C   0  0  0  0  0  0  0  0  0  0  0  0
  -23.8650   -1.4810  -31.9960 O   0  0  0  0  0  0  0  0  0  0  0  0
  -22.9950    0.4050  -32.8180 N   0  0  0  0  0  0  0  0  0  0  0  0
  -22.7000    1.7690  -32.6760 N   0  0  0  0  0  0  0  0  0  0  0  0
  -23.1040    2.4410  -31.6530 C   0  0  0  0  0  0  0  0  0  0  0  0
  -22.7590    3.9060  -31.5500 C   0  0  0  0  0  0  0  0  0  0  0  0
  -22.6270    4.2720  -30.1800 O   0  0  0  0  0  0  0  0  0  0  0  0
  -23.6130    3.8770  -29.3380 C   0  0  0  0  0  0  0  0  0  0  0  0
  -23.9860    4.6900  -28.2770 C   0  0  0  0  0  0  0  0  0  0  0  0
  -25.0060    4.3030  -27.4030 C   0  0  0  0  0  0  0  0  0  0  0  0
  -25.3310    5.2390  -26.2940 C   0  0  0  0  0  0  0  0  0  0  0  0
  -25.6300    6.5830  -26.5560 C   0  0  0  0  0  0  0  0  0  0  0  0
  -25.9150    7.4450  -25.5070 C   0  0  0  0  0  0  0  0  0  0  0  0
  -25.8930    6.9860  -24.1930 C   0  0  0  0  0  0  0  0  0  0  0  0
  -25.5860    5.6610  -23.9270 C   0  0  0  0  0  0  0  0  0  0  0  0
  -25.3030    4.7880  -24.9670 C   0  0  0  0  0  0  0  0  0  0  0  0
  -29.5385    5.3870  -24.7905 H   0  0  0  0  0  0  0  0  0  0  0  0
  -28.6422    6.1732  -26.1341 H   0  0  0  0  0  0  0  0  0  0  0  0
  -30.4385    6.1689  -26.1341 H   0  0  0  0  0  0  0  0  0  0  0  0
  -29.5827    2.4387  -25.5254 H   0  0  0  0  0  0  0  0  0  0  0  0
  -28.3660    3.4155  -24.9241 H   0  0  0  0  0  0  0  0  0  0  0  0
  -29.1910    0.9807  -27.3540 H   0  0  0  0  0  0  0  0  0  0  0  0
  -29.5189    2.1923  -28.6390 H   0  0  0  0  0  0  0  0  0  0  0  0
  -27.9719    1.2794  -28.6390 H   0  0  0  0  0  0  0  0  0  0  0  0
  -27.6385    5.0004  -27.4336 H   0  0  0  0  0  0  0  0  0  0  0  0
  -28.6331    4.4732  -28.6694 H   0  0  0  0  0  0  0  0  0  0  0  0
  -26.5090    1.9474  -24.8338 H   0  0  0  0  0  0  0  0  0  0  0  0
  -27.0393    0.6452  -25.9516 H   0  0  0  0  0  0  0  0  0  0  0  0
  -25.3265    1.1866  -25.9516 H   0  0  0  0  0  0  0  0  0  0  0  0
  -25.7655    1.2901  -28.8247 H   0  0  0  0  0  0  0  0  0  0  0  0
  -25.0743    0.1884  -30.3887 H   0  0  0  0  0  0  0  0  0  0  0  0
  -23.6139    0.0744  -28.4436 H   0  0  0  0  0  0  0  0  0  0  0  0
  -23.2189   -1.3434  -29.4735 H   0  0  0  0  0  0  0  0  0  0  0  0
  -22.1423    0.0945  -29.4735 H   0  0  0  0  0  0  0  0  0  0  0  0
  -22.7317   -0.0722  -33.6920 H   0  0  0  0  0  0  0  0  0  0  0  0
  -21.8098    4.0959  -32.0725 H   0  0  0  0  0  0  0  0  0  0  0  0
  -23.5598    4.5025  -32.0113 H   0  0  0  0  0  0  0  0  0  0  0  0
  -23.4728    5.6505  -28.1219 H   0  0  0  0  0  0  0  0  0  0  0  0
  -25.6387    6.9537  -27.5916 H   0  0  0  0  0  0  0  0  0  0  0  0
  -26.1597    8.4971  -25.7148 H   0  0  0  0  0  0  0  0  0  0  0  0
  -26.1193    7.6749  -23.3659 H   0  0  0  0  0  0  0  0  0  0  0  0
  -25.5667    5.3006  -22.8879 H   0  0  0  0  0  0  0  0  0  0  0  0
  -25.0558    3.7384  -24.7498 H   0  0  0  0  0  0  0  0  0  0  0  0
 17 18  1  0
 17 15  1  0
 18 19  2  0
 16 15  2  0
 15 13  1  0
 19 20  1  0
 19 12  1  0
 20 21  1  0
 12 13  1  0
 12 11  1  0
 13 14  1  0
 21 22  1  0
 11 22  1  0
 11 10  2  0
 22 23  2  0
 10  9  1  0
 23 24  1  0
  5  4  1  0
  9 24  2  0
  9  7  1  0
  6  4  1  0
  6  2  1  0
 24 25  1  0
  4  7  1  0
  4  3  1  0
  7  8  1  0
  2  3  1  0
  2  1  1  0
 26 25  2  0
 26 27  1  0
 25 30  1  0
 27 28  2  0
 30 29  2  0
 28 29  1  0
  1 31  1  0
  1 32  1  0
  1 33  1  0
  3 34  1  0
  3 35  1  0
  5 36  1  0
  5 37  1  0
  5 38  1  0
  6 39  1  0
  6 40  1  0
  8 41  1  0
  8 42  1  0
  8 43  1  0
 10 44  1  0
 13 45  1  0
 14 46  1  0
 14 47  1  0
 14 48  1  0
 17 49  1  0
 20 50  1  0
 20 51  1  0
 23 52  1  0
 26 53  1  0
 27 54  1  0
 28 55  1  0
 29 56  1  0
 30 57  1  0
A    1
C1
A    2
N2
A    3
C3
A    4
C4
A    5
C5
A    6
C6
A    7
N7
A    8
C8
A    9
C9
A   10
C10
A   11
C11
A   12
N12
A   13
C13
A   14
C15
A   15
C16
A   16
O17
A   17
N18
A   18
N19
A   19
C20
A   20
C21
A   21
O22
A   22
C23
A   23
C24
A   24
C25
A   25
C26
A   26
C27
A   27
C28
A   28
C29
A   29
C30
A   30
C31
M  END
