1FQG_PNM_A_523
     RDKit          3D

 43 44  0  0  0  0  0  0  0  0999 V2000
   38.3320   34.8550   31.6070 O   0  0  0  0  0  0  0  0  0  0  0  0
   38.5540   35.9840   31.2790 C   0  0  0  0  0  0  0  0  0  0  0  0
   40.5160   35.5530   30.2160 N   0  0  0  0  0  0  0  0  0  0  0  0
   41.6450   34.6330   30.3620 C   0  0  0  0  0  0  0  0  0  0  0  0
   41.6920   33.5630   29.2400 C   0  0  0  0  0  0  0  0  0  0  0  0
   42.4810   32.6140   29.4000 O   0  0  0  0  0  0  0  0  0  0  0  0
   41.1780   33.8490   28.1500 O   0  0  0  0  0  0  0  0  0  0  0  0
   42.9250   35.5070   30.4930 C   0  0  0  0  0  0  0  0  0  0  0  0
   43.9060   34.9080   31.5010 C   0  0  0  0  0  0  0  0  0  0  0  0
   43.6010   35.7500   29.1620 C   0  0  0  0  0  0  0  0  0  0  0  0
   42.3460   37.1240   31.1730 S   0  0  0  0  0  0  0  0  0  0  0  0
   40.6610   36.9760   30.5890 C   0  0  0  0  0  0  0  0  0  0  0  0
   39.6350   36.9730   31.7570 C   0  0  0  0  0  0  0  0  0  0  0  0
   40.0500   36.4520   33.0230 N   0  0  0  0  0  0  0  0  0  0  0  0
   40.5280   37.2120   34.0300 C   0  0  0  0  0  0  0  0  0  0  0  0
   40.7010   38.4210   33.9000 O   0  0  0  0  0  0  0  0  0  0  0  0
   40.1910   36.6470   35.4020 C   0  0  0  0  0  0  0  0  0  0  0  0
   41.4030   36.1830   36.2260 C   0  0  0  0  0  0  0  0  0  0  0  0
   41.4230   36.4210   37.5890 C   0  0  0  0  0  0  0  0  0  0  0  0
   42.4980   36.0060   38.3520 C   0  0  0  0  0  0  0  0  0  0  0  0
   43.5550   35.3030   37.7520 C   0  0  0  0  0  0  0  0  0  0  0  0
   43.5050   35.0440   36.4180 C   0  0  0  0  0  0  0  0  0  0  0  0
   42.4570   35.4550   35.6480 C   0  0  0  0  0  0  0  0  0  0  0  0
   37.8751   36.3813   30.5101 H   0  0  0  0  0  0  0  0  0  0  0  0
   40.2447   35.5335   29.2226 H   0  0  0  0  0  0  0  0  0  0  0  0
   41.5445   34.0186   31.2688 H   0  0  0  0  0  0  0  0  0  0  0  0
   42.7244   32.3213   30.3139 H   0  0  0  0  0  0  0  0  0  0  0  0
   43.5577   35.1207   32.5225 H   0  0  0  0  0  0  0  0  0  0  0  0
   43.9650   33.8196   31.3529 H   0  0  0  0  0  0  0  0  0  0  0  0
   44.9011   35.3527   31.3529 H   0  0  0  0  0  0  0  0  0  0  0  0
   44.6237   36.1176   29.3319 H   0  0  0  0  0  0  0  0  0  0  0  0
   43.6393   34.8093   28.5930 H   0  0  0  0  0  0  0  0  0  0  0  0
   43.0316   36.4997   28.5930 H   0  0  0  0  0  0  0  0  0  0  0  0
   40.4957   37.7700   29.8459 H   0  0  0  0  0  0  0  0  0  0  0  0
   39.3743   38.0255   31.9420 H   0  0  0  0  0  0  0  0  0  0  0  0
   39.9797   35.4357   33.1748 H   0  0  0  0  0  0  0  0  0  0  0  0
   39.6675   37.4274   35.9738 H   0  0  0  0  0  0  0  0  0  0  0  0
   39.5772   35.7516   35.2248 H   0  0  0  0  0  0  0  0  0  0  0  0
   40.5804   36.9423   38.0668 H   0  0  0  0  0  0  0  0  0  0  0  0
   42.5255   36.2264   39.4293 H   0  0  0  0  0  0  0  0  0  0  0  0
   44.4124   34.9661   38.3532 H   0  0  0  0  0  0  0  0  0  0  0  0
   44.3305   34.4891   35.9482 H   0  0  0  0  0  0  0  0  0  0  0  0
   42.4367   35.2166   34.5743 H   0  0  0  0  0  0  0  0  0  0  0  0
  1  2  2  0
  2 13  1  0
  3  4  1  0
  3 12  1  0
  4  5  1  0
  4  8  1  0
  5  6  1  0
  5  7  2  0
  8  9  1  0
  8 10  1  0
  8 11  1  0
 11 12  1  0
 12 13  1  0
 13 14  1  0
 14 15  1  0
 15 16  2  0
 15 17  1  0
 17 18  1  0
 18 19  2  0
 18 23  1  0
 19 20  1  0
 20 21  2  0
 21 22  1  0
 22 23  2  0
  2 24  1  0
  3 25  1  0
  4 26  1  0
  6 27  1  0
  9 28  1  0
  9 29  1  0
  9 30  1  0
 10 31  1  0
 10 32  1  0
 10 33  1  0
 12 34  1  0
 13 35  1  0
 14 36  1  0
 17 37  1  0
 17 38  1  0
 19 39  1  0
 20 40  1  0
 21 41  1  0
 22 42  1  0
 23 43  1  0
A    1
O8
A    2
C7
A    3
N4
A    4
C3
A    5
C11
A    6
O13
A    7
O12
A    8
C2
A    9
C10
A   10
C9
A   11
S1
A   12
C5
A   13
C6
A   14
N14
A   15
C15
A   16
O16
A   17
C17
A   18
C18
A   19
C19
A   20
C20
A   21
C21
A   22
C22
A   23
C23
M  END
