4RAQ_3L8_A_301
     RDKit          3D

 48 49  0  0  0  0  0  0  0  0999 V2000
   61.5030   -2.7400    5.6570 O   0  0  0  0  0  0  0  0  0  0  0  0
   61.8140   -3.0390    4.1460 P   0  0  0  0  0  0  0  0  0  0  0  0
   62.2450   -1.7080    3.4310 O   0  0  0  0  0  0  0  0  0  0  0  0
   60.6070   -3.6460    3.4860 O   0  0  0  0  0  0  0  0  0  0  0  0
   63.2300   -4.2200    3.9940 C   0  0  0  0  0  0  0  0  0  0  0  0
   63.6290   -4.5470    2.6890 O   0  0  0  0  0  0  0  0  0  0  0  0
   64.9590   -4.3260    2.3080 C   0  0  0  0  0  0  0  0  0  0  0  0
   65.6660   -5.5320    1.7580 C   0  0  0  0  0  0  0  0  0  0  0  0
   66.4900   -5.3880    0.5700 N   0  0  0  0  0  0  0  0  0  0  0  0
   66.9370   -6.7010    0.1130 C   0  0  0  0  0  0  0  0  0  0  0  0
   66.6590   -7.1890   -1.2820 C   0  0  0  0  0  0  0  0  0  0  0  0
   67.7130   -8.5900   -1.8320 P   0  0  0  0  0  0  0  0  0  0  0  0
   67.9850   -9.5810   -0.6660 O   0  0  0  0  0  0  0  0  0  0  0  0
   67.0090   -9.3920   -2.9720 O   0  0  0  0  0  0  0  0  0  0  0  0
   69.0130   -8.0280   -2.3200 O   0  0  0  0  0  0  0  0  0  0  0  0
   65.7990   -4.6080   -0.4670 C   0  0  0  0  0  0  0  0  0  0  0  0
   66.3640   -3.1920   -0.6300 C   0  0  0  0  0  0  0  0  0  0  0  0
   66.3830   -2.6160   -1.9830 N   0  0  0  0  0  0  0  0  0  0  0  0
   65.6110   -1.5240   -2.3660 C   0  0  0  0  0  0  0  0  0  0  0  0
   64.6980   -0.7650   -1.6640 N   0  0  0  0  0  0  0  0  0  0  0  0
   64.0760    0.2340   -2.3050 C   0  0  0  0  0  0  0  0  0  0  0  0
   64.3350    0.4980   -3.6050 N   0  0  0  0  0  0  0  0  0  0  0  0
   65.2100   -0.2080   -4.3420 C   0  0  0  0  0  0  0  0  0  0  0  0
   65.4410    0.1090   -5.6480 O   0  0  0  0  0  0  0  0  0  0  0  0
   65.8990   -1.2770   -3.6940 C   0  0  0  0  0  0  0  0  0  0  0  0
   66.8450   -2.2040   -4.0980 N   0  0  0  0  0  0  0  0  0  0  0  0
   67.1230   -3.0060   -3.0360 C   0  0  0  0  0  0  0  0  0  0  0  0
   62.0847   -3.2992    6.2306 H   0  0  0  0  0  0  0  0  0  0  0  0
   59.9761   -3.9633    4.1798 H   0  0  0  0  0  0  0  0  0  0  0  0
   62.9439   -5.1534    4.5009 H   0  0  0  0  0  0  0  0  0  0  0  0
   64.0915   -3.7048    4.4439 H   0  0  0  0  0  0  0  0  0  0  0  0
   65.5143   -3.9770    3.1911 H   0  0  0  0  0  0  0  0  0  0  0  0
   64.9289   -3.5869    1.4938 H   0  0  0  0  0  0  0  0  0  0  0  0
   64.8933   -6.2795    1.5250 H   0  0  0  0  0  0  0  0  0  0  0  0
   66.3861   -5.7963    2.5464 H   0  0  0  0  0  0  0  0  0  0  0  0
   66.4838   -7.4364    0.7940 H   0  0  0  0  0  0  0  0  0  0  0  0
   68.0311   -6.5872    0.1076 H   0  0  0  0  0  0  0  0  0  0  0  0
   66.8157   -6.3499   -1.9758 H   0  0  0  0  0  0  0  0  0  0  0  0
   65.6242   -7.5622   -1.2793 H   0  0  0  0  0  0  0  0  0  0  0  0
   67.8574   -9.1161    0.1987 H   0  0  0  0  0  0  0  0  0  0  0  0
   69.5785   -7.7835   -1.5450 H   0  0  0  0  0  0  0  0  0  0  0  0
   64.7353   -4.5318   -0.1974 H   0  0  0  0  0  0  0  0  0  0  0  0
   65.9445   -5.1317   -1.4233 H   0  0  0  0  0  0  0  0  0  0  0  0
   67.4016   -3.2081   -0.2650 H   0  0  0  0  0  0  0  0  0  0  0  0
   65.6734   -2.5498   -0.0637 H   0  0  0  0  0  0  0  0  0  0  0  0
   63.3422    0.8496   -1.7640 H   0  0  0  0  0  0  0  0  0  0  0  0
   63.8367    1.2798   -4.0538 H   0  0  0  0  0  0  0  0  0  0  0  0
   67.8392   -3.8409   -3.0378 H   0  0  0  0  0  0  0  0  0  0  0  0
 24 23  2  0
 23 25  1  0
 23 22  1  0
 26 25  1  0
 26 27  2  0
 25 19  2  0
 22 21  1  0
 27 18  1  0
 14 12  2  0
 19 18  1  0
 19 20  1  0
 15 12  1  0
 21 20  2  0
 18 17  1  0
 12 11  1  0
 12 13  1  0
 11 10  1  0
 17 16  1  0
 16  9  1  0
 10  9  1  0
  9  8  1  0
  8  7  1  0
  7  6  1  0
  6  5  1  0
  3  2  2  0
  4  2  1  0
  5  2  1  0
  2  1  1  0
  1 28  1  0
  4 29  1  0
  5 30  1  0
  5 31  1  0
  7 32  1  0
  7 33  1  0
  8 34  1  0
  8 35  1  0
 10 36  1  0
 10 37  1  0
 11 38  1  0
 11 39  1  0
 13 40  1  0
 15 41  1  0
 16 42  1  0
 16 43  1  0
 17 44  1  0
 17 45  1  0
 21 46  1  0
 22 47  1  0
 27 48  1  0
A    1
OAF
A    2
PBA
A    3
OAG
A    4
OAC
A    5
CAP
A    6
OAT
A    7
CAJ
A    8
CAK
A    9
NAX
A   10
CAM
A   11
CAO
A   12
PAZ
A   13
OAD
A   14
OAE
A   15
OAB
A   16
CAL
A   17
CAN
A   18
N9
A   19
C4
A   20
N3
A   21
C2
A   22
N1
A   23
C6
A   24
O6
A   25
C5
A   26
N7
A   27
C8
M  END
