2WKH_ZZ7_A_1265
     RDKit          3D

 45 46  0  0  0  0  0  0  0  0999 V2000
    1.5430   11.8280   64.1600 O   0  0  0  0  0  0  0  0  0  0  0  0
    0.6400   12.7050   64.0790 C   0  0  0  0  0  0  0  0  0  0  0  0
   -0.5690   12.4140   63.9140 O   0  0  0  0  0  0  0  0  0  0  0  0
    1.0410   14.1620   64.1380 C   0  0  0  0  0  0  0  0  0  0  0  0
    0.6170   14.9390   65.3920 C   0  0  0  0  0  0  0  0  0  0  0  0
    0.8070   14.1290   66.6710 C   0  0  0  0  0  0  0  0  0  0  0  0
   -0.8250   15.4050   65.3510 C   0  0  0  0  0  0  0  0  0  0  0  0
    1.6990   16.3370   65.4160 S   0  0  0  0  0  0  0  0  0  0  0  0
    2.4860   14.3000   64.0750 N   0  0  0  0  0  0  0  0  0  0  0  0
    3.0570   15.4100   64.8130 C   0  0  0  0  0  0  0  0  0  0  0  0
    3.9600   16.2100   63.8880 C   0  0  0  0  0  0  0  0  0  0  0  0
    4.8750   15.1500   63.3220 C   0  0  0  0  0  0  0  0  0  0  0  0
    4.5310   14.4640   62.3450 O   0  0  0  0  0  0  0  0  0  0  0  0
    3.1250   16.7820   62.8440 N   0  0  0  0  0  0  0  0  0  0  0  0
    3.1420   18.0810   62.6020 C   0  0  0  0  0  0  0  0  0  0  0  0
    3.9130   18.7970   63.2080 O   0  0  0  0  0  0  0  0  0  0  0  0
    2.1920   18.6770   61.6160 C   0  0  0  0  0  0  0  0  0  0  0  0
    2.5990   20.0610   61.4210 N   0  0  0  0  0  0  0  0  0  0  0  0
    0.8460   18.5260   62.2260 C   0  0  0  0  0  0  0  0  0  0  0  0
   -0.1370   17.7840   61.5850 C   0  0  0  0  0  0  0  0  0  0  0  0
   -1.3850   17.6270   62.1820 C   0  0  0  0  0  0  0  0  0  0  0  0
   -1.6660   18.2000   63.4220 C   0  0  0  0  0  0  0  0  0  0  0  0
   -0.6810   18.9320   64.0730 C   0  0  0  0  0  0  0  0  0  0  0  0
    0.5720   19.0840   63.4740 C   0  0  0  0  0  0  0  0  0  0  0  0
   -1.1557   12.2728   64.6988 H   0  0  0  0  0  0  0  0  0  0  0  0
    0.5085   14.5877   63.2747 H   0  0  0  0  0  0  0  0  0  0  0  0
    0.6541   14.7807   67.5439 H   0  0  0  0  0  0  0  0  0  0  0  0
    0.0775   13.3061   66.6956 H   0  0  0  0  0  0  0  0  0  0  0  0
    1.8263   13.7163   66.6956 H   0  0  0  0  0  0  0  0  0  0  0  0
   -1.2005   15.5263   66.3778 H   0  0  0  0  0  0  0  0  0  0  0  0
   -0.8842   16.3680   64.8227 H   0  0  0  0  0  0  0  0  0  0  0  0
   -1.4366   14.6588   64.8227 H   0  0  0  0  0  0  0  0  0  0  0  0
    2.9007   13.4319   64.4428 H   0  0  0  0  0  0  0  0  0  0  0  0
    3.6857   15.0929   65.6581 H   0  0  0  0  0  0  0  0  0  0  0  0
    4.5139   17.0320   64.3649 H   0  0  0  0  0  0  0  0  0  0  0  0
    5.8604   14.9830   63.7815 H   0  0  0  0  0  0  0  0  0  0  0  0
    2.5136   16.1680   62.2871 H   0  0  0  0  0  0  0  0  0  0  0  0
    2.1818   18.2008   60.6245 H   0  0  0  0  0  0  0  0  0  0  0  0
    2.7317   20.5122   62.3374 H   0  0  0  0  0  0  0  0  0  0  0  0
    3.4835   20.0878   60.8938 H   0  0  0  0  0  0  0  0  0  0  0  0
    0.0695   17.3216   60.6085 H   0  0  0  0  0  0  0  0  0  0  0  0
   -2.1615   17.0418   61.6675 H   0  0  0  0  0  0  0  0  0  0  0  0
   -2.6580   18.0736   63.8802 H   0  0  0  0  0  0  0  0  0  0  0  0
   -0.8860   19.3885   65.0526 H   0  0  0  0  0  0  0  0  0  0  0  0
    1.3554   19.6534   63.9957 H   0  0  0  0  0  0  0  0  0  0  0  0
  1  2  2  0
  2  3  1  0
  2  4  1  0
  4  5  1  0
  4  9  1  0
  5  6  1  0
  5  7  1  0
  5  8  1  0
  8 10  1  0
  9 10  1  0
 10 11  1  0
 11 12  1  0
 11 14  1  0
 12 13  2  0
 14 15  1  0
 15 16  2  0
 15 17  1  0
 17 18  1  0
 17 19  1  0
 19 20  2  0
 19 24  1  0
 20 21  1  0
 21 22  2  0
 22 23  1  0
 23 24  2  0
  3 25  1  0
  4 26  1  0
  6 27  1  0
  6 28  1  0
  6 29  1  0
  7 30  1  0
  7 31  1  0
  7 32  1  0
  9 33  1  0
 10 34  1  0
 11 35  1  0
 12 36  1  0
 14 37  1  0
 17 38  1  0
 18 39  1  0
 18 40  1  0
 20 41  1  0
 21 42  1  0
 22 43  1  0
 23 44  1  0
 24 45  1  0
A    1
O1
A    2
C2
A    3
O2
A    4
C12
A    5
C6
A    6
C1
A    7
C16
A    8
S1
A    9
N3
A   10
C13
A   11
C14
A   12
C15
A   13
O4
A   14
N1
A   15
C3
A   16
O3
A   17
C4
A   18
N2
A   19
C5
A   20
C7
A   21
C8
A   22
C9
A   23
C10
A   24
C11
M  END
