4RC2_3O8_A_401
     RDKit          3D

 45 47  0  0  0  0  0  0  0  0999 V2000
   26.1700  -37.8800    7.5210 O   0  0  0  0  0  0  0  0  0  0  0  0
   25.5940  -39.0020    8.1740 C   0  0  0  0  0  0  0  0  0  0  0  0
   26.0250  -40.3710    7.6150 C   0  0  0  0  0  0  0  0  0  0  0  0
   24.9320  -41.2180    7.0430 N   0  0  0  0  0  0  0  0  0  0  0  0
   24.6330  -40.9940    5.5880 C   0  0  0  0  0  0  0  0  0  0  0  0
   23.7780  -39.7170    5.3460 C   0  0  0  0  0  0  0  0  0  0  0  0
   24.1170  -38.8900    4.1340 N   0  0  0  0  0  0  0  0  0  0  0  0
   23.5580  -37.5400    3.9240 C   0  0  0  0  0  0  0  0  0  0  0  0
   23.2050  -36.8150    5.0230 C   0  0  0  0  0  0  0  0  0  0  0  0
   23.2950  -36.9270    2.6300 C   0  0  0  0  0  0  0  0  0  0  0  0
   22.6590  -35.5780    4.9310 C   0  0  0  0  0  0  0  0  0  0  0  0
   23.6130  -37.5850    1.3170 C   0  0  0  0  0  0  0  0  0  0  0  0
   24.1690  -38.8100    1.2610 O   0  0  0  0  0  0  0  0  0  0  0  0
   22.7140  -35.6140    2.5720 C   0  0  0  0  0  0  0  0  0  0  0  0
   23.3290  -36.8940    0.0320 C   0  0  0  0  0  0  0  0  0  0  0  0
   22.3990  -34.9180    3.7580 C   0  0  0  0  0  0  0  0  0  0  0  0
   22.4720  -34.9450    1.2980 C   0  0  0  0  0  0  0  0  0  0  0  0
   21.9570  -33.6720    1.2380 O   0  0  0  0  0  0  0  0  0  0  0  0
   23.6150  -37.4600   -1.1610 C   0  0  0  0  0  0  0  0  0  0  0  0
   21.8680  -33.5960    3.7460 N   0  0  0  0  0  0  0  0  0  0  0  0
   24.1880  -38.6950   -1.0970 O   0  0  0  0  0  0  0  0  0  0  0  0
   23.4040  -36.7750   -2.2980 C   0  0  0  0  0  0  0  0  0  0  0  0
   22.9020  -35.5500   -2.2800 C   0  0  0  0  0  0  0  0  0  0  0  0
   22.5960  -34.9430   -1.1200 C   0  0  0  0  0  0  0  0  0  0  0  0
   22.0600  -33.6710   -0.9180 O   0  0  0  0  0  0  0  0  0  0  0  0
   22.8190  -35.6190    0.0480 C   0  0  0  0  0  0  0  0  0  0  0  0
   26.4998  -37.2375    8.1981 H   0  0  0  0  0  0  0  0  0  0  0  0
   25.8780  -38.9620    9.2359 H   0  0  0  0  0  0  0  0  0  0  0  0
   24.5087  -38.9302    8.0099 H   0  0  0  0  0  0  0  0  0  0  0  0
   26.4957  -40.9359    8.4332 H   0  0  0  0  0  0  0  0  0  0  0  0
   26.7001  -40.1499    6.7751 H   0  0  0  0  0  0  0  0  0  0  0  0
   24.0716  -41.0282    7.5764 H   0  0  0  0  0  0  0  0  0  0  0  0
   24.0830  -41.8652    5.2025 H   0  0  0  0  0  0  0  0  0  0  0  0
   25.5919  -40.8584    5.0664 H   0  0  0  0  0  0  0  0  0  0  0  0
   23.8872  -39.0715    6.2300 H   0  0  0  0  0  0  0  0  0  0  0  0
   22.7572  -40.0851    5.1657 H   0  0  0  0  0  0  0  0  0  0  0  0
   24.7595  -39.2788    3.4290 H   0  0  0  0  0  0  0  0  0  0  0  0
   23.3692  -37.2495    6.0201 H   0  0  0  0  0  0  0  0  0  0  0  0
   22.4049  -35.0641    5.8698 H   0  0  0  0  0  0  0  0  0  0  0  0
   21.6733  -33.1112    4.6336 H   0  0  0  0  0  0  0  0  0  0  0  0
   21.6789  -33.1251    2.8497 H   0  0  0  0  0  0  0  0  0  0  0  0
   24.3792  -39.1070   -0.2173 H   0  0  0  0  0  0  0  0  0  0  0  0
   23.6533  -37.2414   -3.2625 H   0  0  0  0  0  0  0  0  0  0  0  0
   22.7326  -35.0205   -3.2292 H   0  0  0  0  0  0  0  0  0  0  0  0
   21.9180  -33.3341    0.0020 H   0  0  0  0  0  0  0  0  0  0  0  0
 22 23  2  0
 22 19  1  0
 23 24  1  0
 19 21  1  0
 19 15  2  0
 24 25  1  0
 24 26  2  0
 15 26  1  0
 15 12  1  0
 26 17  1  0
 18 17  2  0
 13 12  2  0
 17 14  1  0
 12 10  1  0
 14 10  1  0
 14 16  2  0
 10  8  2  0
 20 16  1  0
 16 11  1  0
  8  7  1  0
  8  9  1  0
  7  6  1  0
 11  9  2  0
  6  5  1  0
  5  4  1  0
  4  3  1  0
  1  2  1  0
  3  2  1  0
  1 27  1  0
  2 28  1  0
  2 29  1  0
  3 30  1  0
  3 31  1  0
  4 32  1  0
  5 33  1  0
  5 34  1  0
  6 35  1  0
  6 36  1  0
  7 37  1  0
  9 38  1  0
 11 39  1  0
 20 40  1  0
 20 41  1  0
 21 42  1  0
 22 43  1  0
 23 44  1  0
 25 45  1  0
A    1
OAC
A    2
CAK
A    3
CAM
A    4
NAS
A    5
CAO
A    6
CAQ
A    7
NAU
A    8
CAY
A    9
CAI
A   10
CBE
A   11
CAJ
A   12
CBA
A   13
OAA
A   14
CBF
A   15
CBC
A   16
CAZ
A   17
CBB
A   18
OAB
A   19
CAW
A   20
NAV
A   21
OAE
A   22
CAG
A   23
CAH
A   24
CAX
A   25
OAF
A   26
CBD
M  END
