4RC3_3OA_A_401
     RDKit          3D

 58 60  0  0  0  0  0  0  0  0999 V2000
  -26.9090  -38.6180  -10.9710 O   0  0  0  0  0  0  0  0  0  0  0  0
  -27.0940  -38.2990   -9.5760 C   0  0  0  0  0  0  0  0  0  0  0  0
  -25.8410  -37.7890   -8.9170 C   0  0  0  0  0  0  0  0  0  0  0  0
  -25.2000  -38.9510   -8.3880 O   0  0  0  0  0  0  0  0  0  0  0  0
  -25.4270  -39.2320   -7.0190 C   0  0  0  0  0  0  0  0  0  0  0  0
  -24.0890  -39.5650   -6.4120 C   0  0  0  0  0  0  0  0  0  0  0  0
  -23.9460  -38.6710   -5.2550 N   0  0  0  0  0  0  0  0  0  0  0  0
  -23.4730  -37.3910   -5.2650 C   0  0  0  0  0  0  0  0  0  0  0  0
  -23.1780  -36.6520   -6.4290 C   0  0  0  0  0  0  0  0  0  0  0  0
  -22.6500  -35.3400   -6.3270 C   0  0  0  0  0  0  0  0  0  0  0  0
  -23.2320  -36.8120   -3.9950 C   0  0  0  0  0  0  0  0  0  0  0  0
  -23.5090  -37.5260   -2.7860 C   0  0  0  0  0  0  0  0  0  0  0  0
  -24.0130  -38.8250   -2.8460 O   0  0  0  0  0  0  0  0  0  0  0  0
  -23.2920  -36.9780   -1.5220 C   0  0  0  0  0  0  0  0  0  0  0  0
  -23.5940  -37.6390   -0.3470 C   0  0  0  0  0  0  0  0  0  0  0  0
  -24.1080  -38.9040   -0.4040 O   0  0  0  0  0  0  0  0  0  0  0  0
  -23.3860  -37.0430    0.8670 C   0  0  0  0  0  0  0  0  0  0  0  0
  -22.9050  -35.7510    0.9030 C   0  0  0  0  0  0  0  0  0  0  0  0
  -22.6430  -35.1050   -0.2640 C   0  0  0  0  0  0  0  0  0  0  0  0
  -22.1690  -33.8280   -0.3320 O   0  0  0  0  0  0  0  0  0  0  0  0
  -22.8140  -35.7070   -1.4780 C   0  0  0  0  0  0  0  0  0  0  0  0
  -22.5050  -34.9810   -2.6340 C   0  0  0  0  0  0  0  0  0  0  0  0
  -22.0170  -33.6560   -2.4810 O   0  0  0  0  0  0  0  0  0  0  0  0
  -22.7080  -35.4940   -3.9080 C   0  0  0  0  0  0  0  0  0  0  0  0
  -22.4350  -34.7320   -5.0730 C   0  0  0  0  0  0  0  0  0  0  0  0
  -21.9700  -33.4630   -4.8830 N   0  0  0  0  0  0  0  0  0  0  0  0
  -21.9770  -32.3290   -5.8650 C   0  0  0  0  0  0  0  0  0  0  0  0
  -23.0770  -32.2070   -7.0010 C   0  0  0  0  0  0  0  0  0  0  0  0
  -22.5150  -31.7250   -8.3040 O   0  0  0  0  0  0  0  0  0  0  0  0
  -21.1480  -32.1310   -8.7130 C   0  0  0  0  0  0  0  0  0  0  0  0
  -20.9050  -32.0630  -10.2170 C   0  0  0  0  0  0  0  0  0  0  0  0
  -19.8230  -32.9970  -10.4200 O   0  0  0  0  0  0  0  0  0  0  0  0
  -26.4140  -39.4716  -11.0515 H   0  0  0  0  0  0  0  0  0  0  0  0
  -27.8725  -37.5263   -9.4936 H   0  0  0  0  0  0  0  0  0  0  0  0
  -27.3807  -39.2282   -9.0618 H   0  0  0  0  0  0  0  0  0  0  0  0
  -25.1925  -37.2914   -9.6531 H   0  0  0  0  0  0  0  0  0  0  0  0
  -26.0591  -37.0464   -8.1353 H   0  0  0  0  0  0  0  0  0  0  0  0
  -25.8606  -38.3531   -6.5194 H   0  0  0  0  0  0  0  0  0  0  0  0
  -26.1317  -40.0683   -6.9007 H   0  0  0  0  0  0  0  0  0  0  0  0
  -24.0646  -40.6165   -6.0900 H   0  0  0  0  0  0  0  0  0  0  0  0
  -23.2700  -39.4303   -7.1338 H   0  0  0  0  0  0  0  0  0  0  0  0
  -24.2326  -39.0498   -4.3411 H   0  0  0  0  0  0  0  0  0  0  0  0
  -23.3581  -37.0948   -7.4197 H   0  0  0  0  0  0  0  0  0  0  0  0
  -22.4032  -34.7854   -7.2444 H   0  0  0  0  0  0  0  0  0  0  0  0
  -24.3076  -39.3953    0.4320 H   0  0  0  0  0  0  0  0  0  0  0  0
  -23.5991  -37.5859    1.7997 H   0  0  0  0  0  0  0  0  0  0  0  0
  -22.7350  -35.2482    1.8665 H   0  0  0  0  0  0  0  0  0  0  0  0
  -21.9821  -33.3244    0.4996 H   0  0  0  0  0  0  0  0  0  0  0  0
  -21.5671  -33.2602   -3.9570 H   0  0  0  0  0  0  0  0  0  0  0  0
  -21.0054  -32.3615   -6.3796 H   0  0  0  0  0  0  0  0  0  0  0  0
  -22.2131  -31.4684   -5.2219 H   0  0  0  0  0  0  0  0  0  0  0  0
  -23.8494  -31.4982   -6.6677 H   0  0  0  0  0  0  0  0  0  0  0  0
  -23.4912  -33.2119   -7.1704 H   0  0  0  0  0  0  0  0  0  0  0  0
  -20.9811  -33.1667   -8.3821 H   0  0  0  0  0  0  0  0  0  0  0  0
  -20.4513  -31.4197   -8.2454 H   0  0  0  0  0  0  0  0  0  0  0  0
  -20.6123  -31.0479  -10.5236 H   0  0  0  0  0  0  0  0  0  0  0  0
  -21.7998  -32.3047  -10.8094 H   0  0  0  0  0  0  0  0  0  0  0  0
  -19.4763  -33.2962   -9.5423 H   0  0  0  0  0  0  0  0  0  0  0  0
  1  2  1  0
 32 31  1  0
 31 30  1  0
  2  3  1  0
  3  4  1  0
 30 29  1  0
  4  5  1  0
 29 28  1  0
  5  6  1  0
 28 27  1  0
  9 10  1  0
  9  8  2  0
  6  7  1  0
 10 25  2  0
 27 26  1  0
  8  7  1  0
  8 11  1  0
 25 26  1  0
 25 24  1  0
 11 24  2  0
 11 12  1  0
 24 22  1  0
 13 12  2  0
 12 14  1  0
 22 23  2  0
 22 21  1  0
 14 21  2  0
 14 15  1  0
 21 19  1  0
 16 15  1  0
 15 17  2  0
 20 19  1  0
 19 18  2  0
 17 18  1  0
  1 33  1  0
  2 34  1  0
  2 35  1  0
  3 36  1  0
  3 37  1  0
  5 38  1  0
  5 39  1  0
  6 40  1  0
  6 41  1  0
  7 42  1  0
  9 43  1  0
 10 44  1  0
 16 45  1  0
 17 46  1  0
 18 47  1  0
 20 48  1  0
 26 49  1  0
 27 50  1  0
 27 51  1  0
 28 52  1  0
 28 53  1  0
 30 54  1  0
 30 55  1  0
 31 56  1  0
 31 57  1  0
 32 58  1  0
A    1
OAC
A    2
CAK
A    3
CAM
A    4
O1
A    5
CAO
A    6
CAQ
A    7
NAU
A    8
CAY
A    9
CAI
A   10
CAJ
A   11
CBE
A   12
CBA
A   13
OAA
A   14
CBC
A   15
CAW
A   16
OAE
A   17
CAG
A   18
CAH
A   19
CAX
A   20
OAF
A   21
CBD
A   22
CBB
A   23
OAB
A   24
CBF
A   25
CAZ
A   26
NAV
A   27
CAR
A   28
CAP
A   29
O2
A   30
CAN
A   31
CAL
A   32
OAD
M  END
