4RC4_3OK_A_401
     RDKit          3D

 46 48  0  0  0  0  0  0  0  0999 V2000
  -25.9240  113.7870   -2.6230 N   0  0  0  0  0  0  0  0  0  0  0  0
  -25.7230  115.1660   -2.2360 C   0  0  0  0  0  0  0  0  0  0  0  0
  -26.4940  115.4840   -0.9190 C   0  0  0  0  0  0  0  0  0  0  0  0
  -27.4810  116.5570   -1.0480 N   0  0  0  0  0  0  0  0  0  0  0  0
  -27.1990  117.7530   -1.8530 C   0  0  0  0  0  0  0  0  0  0  0  0
  -27.3440  117.7200   -3.2230 C   0  0  0  0  0  0  0  0  0  0  0  0
  -26.7870  118.9690   -1.1950 C   0  0  0  0  0  0  0  0  0  0  0  0
  -27.0980  118.8100   -3.9920 C   0  0  0  0  0  0  0  0  0  0  0  0
  -26.5710  119.1110    0.2750 C   0  0  0  0  0  0  0  0  0  0  0  0
  -26.7700  118.0970    1.1790 O   0  0  0  0  0  0  0  0  0  0  0  0
  -26.5210  120.0900   -2.0430 C   0  0  0  0  0  0  0  0  0  0  0  0
  -26.1010  120.4170    0.8320 C   0  0  0  0  0  0  0  0  0  0  0  0
  -26.6750  120.0160   -3.4550 C   0  0  0  0  0  0  0  0  0  0  0  0
  -26.0750  121.3100   -1.4500 C   0  0  0  0  0  0  0  0  0  0  0  0
  -25.8060  122.3740   -2.2640 O   0  0  0  0  0  0  0  0  0  0  0  0
  -25.8930  120.6190    2.2070 C   0  0  0  0  0  0  0  0  0  0  0  0
  -26.4100  121.2000   -4.3240 N   0  0  0  0  0  0  0  0  0  0  0  0
  -26.1120  119.5660    3.0440 O   0  0  0  0  0  0  0  0  0  0  0  0
  -25.4570  121.7970    2.6990 C   0  0  0  0  0  0  0  0  0  0  0  0
  -25.0550  121.5370   -4.8010 C   0  0  0  0  0  0  0  0  0  0  0  0
  -25.2230  122.8360    1.8840 C   0  0  0  0  0  0  0  0  0  0  0  0
  -25.0460  122.4830   -6.0280 C   0  0  0  0  0  0  0  0  0  0  0  0
  -25.4100  122.7180    0.5280 C   0  0  0  0  0  0  0  0  0  0  0  0
  -23.7800  122.3950   -6.7500 N   0  0  0  0  0  0  0  0  0  0  0  0
  -25.1440  123.7660   -0.2940 O   0  0  0  0  0  0  0  0  0  0  0  0
  -25.8590  121.4850   -0.0100 C   0  0  0  0  0  0  0  0  0  0  0  0
  -26.0092  113.2025   -1.7792 H   0  0  0  0  0  0  0  0  0  0  0  0
  -26.7852  113.7095   -3.1827 H   0  0  0  0  0  0  0  0  0  0  0  0
  -24.6491  115.3444   -2.0783 H   0  0  0  0  0  0  0  0  0  0  0  0
  -26.1035  115.8180   -3.0361 H   0  0  0  0  0  0  0  0  0  0  0  0
  -27.0162  114.5715   -0.5956 H   0  0  0  0  0  0  0  0  0  0  0  0
  -25.7462  115.8273   -0.1889 H   0  0  0  0  0  0  0  0  0  0  0  0
  -28.3877  116.4722   -0.5667 H   0  0  0  0  0  0  0  0  0  0  0  0
  -27.6675  116.7858   -3.7053 H   0  0  0  0  0  0  0  0  0  0  0  0
  -27.2392  118.7343   -5.0803 H   0  0  0  0  0  0  0  0  0  0  0  0
  -27.1991  121.8018   -4.5999 H   0  0  0  0  0  0  0  0  0  0  0  0
  -26.0843  119.6991    4.0246 H   0  0  0  0  0  0  0  0  0  0  0  0
  -25.2915  121.9066    3.7810 H   0  0  0  0  0  0  0  0  0  0  0  0
  -24.5418  120.6042   -5.0775 H   0  0  0  0  0  0  0  0  0  0  0  0
  -24.5475  122.0671   -3.9816 H   0  0  0  0  0  0  0  0  0  0  0  0
  -24.8781  123.7918    2.3052 H   0  0  0  0  0  0  0  0  0  0  0  0
  -25.1928  123.5178   -5.6850 H   0  0  0  0  0  0  0  0  0  0  0  0
  -25.8573  122.1822   -6.7072 H   0  0  0  0  0  0  0  0  0  0  0  0
  -23.0033  122.3410   -6.0757 H   0  0  0  0  0  0  0  0  0  0  0  0
  -23.7801  121.5520   -7.3418 H   0  0  0  0  0  0  0  0  0  0  0  0
  -24.9194  124.6509    0.0889 H   0  0  0  0  0  0  0  0  0  0  0  0
 24 22  1  0
 22 20  1  0
 20 17  1  0
 17 13  1  0
  8 13  2  0
  8  6  1  0
 13 11  1  0
  6  5  2  0
  1  2  1  0
 15 14  2  0
  2  3  1  0
 11 14  1  0
 11  7  2  0
  5  7  1  0
  5  4  1  0
 14 26  1  0
  7  9  1  0
  4  3  1  0
 25 23  1  0
 26 23  1  0
 26 12  2  0
  9 12  1  0
  9 10  2  0
 23 21  2  0
 12 16  1  0
 21 19  1  0
 16 19  2  0
 16 18  1  0
  1 27  1  0
  1 28  1  0
  2 29  1  0
  2 30  1  0
  3 31  1  0
  3 32  1  0
  4 33  1  0
  6 34  1  0
  8 35  1  0
 17 36  1  0
 18 37  1  0
 19 38  1  0
 20 39  1  0
 20 40  1  0
 21 41  1  0
 22 42  1  0
 22 43  1  0
 24 44  1  0
 24 45  1  0
 25 46  1  0
A    1
NAS
A    2
CAO
A    3
CAQ
A    4
NAU
A    5
CAY
A    6
CAI
A    7
CBE
A    8
CAJ
A    9
CBA
A   10
OAA
A   11
CBF
A   12
CBC
A   13
CAZ
A   14
CBB
A   15
OAB
A   16
CAW
A   17
NAV
A   18
OAE
A   19
CAG
A   20
CAR
A   21
CAH
A   22
CAP
A   23
CAX
A   24
NAT
A   25
OAF
A   26
CBD
M  END
