4RCD_3LL_A_501
     RDKit          3D

 52 57  0  0  0  0  0  0  0  0999 V2000
   71.1960   50.4410    8.7760 C   0  0  0  0  0  0  0  0  0  0  0  0
   67.2240   50.7270   10.0950 C   0  0  0  0  0  0  0  0  0  0  0  0
   70.3040   49.5360    8.1720 C   0  0  0  0  0  0  0  0  0  0  0  0
   70.7790   48.6480    7.2040 C   0  0  0  0  0  0  0  0  0  0  0  0
   69.5340   51.4170   10.1420 C   0  0  0  0  0  0  0  0  0  0  0  0
   68.5310   50.5790    9.6250 C   0  0  0  0  0  0  0  0  0  0  0  0
   68.8220   49.4970    8.5670 C   0  0  0  0  0  0  0  0  0  0  0  0
   67.9940   52.5160   11.4990 C   0  0  0  0  0  0  0  0  0  0  0  0
   66.9590   51.7020   11.0440 C   0  0  0  0  0  0  0  0  0  0  0  0
   72.5290   50.4300    8.3880 C   0  0  0  0  0  0  0  0  0  0  0  0
   63.0320   53.6450   13.2870 C   0  0  0  0  0  0  0  0  0  0  0  0
   63.0410   52.9590   14.5640 O   0  0  0  0  0  0  0  0  0  0  0  0
   63.1540   51.6520   13.9420 C   0  0  0  0  0  0  0  0  0  0  0  0
   63.2180   52.3200   12.5780 C   0  0  0  0  0  0  0  0  0  0  0  0
   62.0410   51.9080   11.6620 C   0  0  0  0  0  0  0  0  0  0  0  0
   64.5480   52.1030   12.0160 C   0  0  0  0  0  0  0  0  0  0  0  0
   65.6480   51.9080   11.5610 C   0  0  0  0  0  0  0  0  0  0  0  0
   69.2260   52.3600   11.0470 N   0  0  0  0  0  0  0  0  0  0  0  0
   70.8340   51.3530    9.7420 O   0  0  0  0  0  0  0  0  0  0  0  0
   68.4250   48.1030    9.0610 C   0  0  0  0  0  0  0  0  0  0  0  0
   67.4520   47.5830    8.0890 O   0  0  0  0  0  0  0  0  0  0  0  0
   67.1570   48.5930    7.1970 C   0  0  0  0  0  0  0  0  0  0  0  0
   67.9060   49.6920    7.3940 N   0  0  0  0  0  0  0  0  0  0  0  0
   66.2130   48.4520    6.2380 N   0  0  0  0  0  0  0  0  0  0  0  0
   72.9920   49.5380    7.4260 C   0  0  0  0  0  0  0  0  0  0  0  0
   72.1220   48.6460    6.8200 C   0  0  0  0  0  0  0  0  0  0  0  0
   72.5830   47.7580    5.8410 C   0  0  0  0  0  0  0  0  0  0  0  0
   73.6040   46.8610    6.1340 C   0  0  0  0  0  0  0  0  0  0  0  0
   74.0140   45.9880    5.1310 C   0  0  0  0  0  0  0  0  0  0  0  0
   73.4130   46.0330    3.8710 C   0  0  0  0  0  0  0  0  0  0  0  0
   72.4510   46.9000    3.6010 N   0  0  0  0  0  0  0  0  0  0  0  0
   72.0230   47.7430    4.5540 C   0  0  0  0  0  0  0  0  0  0  0  0
   71.0640   48.6120    4.2300 F   0  0  0  0  0  0  0  0  0  0  0  0
   66.4180   50.0802    9.7181 H   0  0  0  0  0  0  0  0  0  0  0  0
   70.0825   47.9371    6.7354 H   0  0  0  0  0  0  0  0  0  0  0  0
   67.7832   53.2979   12.2434 H   0  0  0  0  0  0  0  0  0  0  0  0
   73.2317   51.1394    8.8495 H   0  0  0  0  0  0  0  0  0  0  0  0
   63.8654   54.3495   13.1492 H   0  0  0  0  0  0  0  0  0  0  0  0
   62.1986   54.3102   13.0168 H   0  0  0  0  0  0  0  0  0  0  0  0
   62.2754   51.0062   14.0870 H   0  0  0  0  0  0  0  0  0  0  0  0
   63.9364   50.9464   14.2581 H   0  0  0  0  0  0  0  0  0  0  0  0
   61.1826   51.6075   12.2808 H   0  0  0  0  0  0  0  0  0  0  0  0
   61.7551   52.7595   11.0270 H   0  0  0  0  0  0  0  0  0  0  0  0
   62.3486   51.0641   11.0270 H   0  0  0  0  0  0  0  0  0  0  0  0
   67.9682   48.1684   10.0595 H   0  0  0  0  0  0  0  0  0  0  0  0
   69.3011   47.4428    9.1423 H   0  0  0  0  0  0  0  0  0  0  0  0
   65.2284   48.3049    6.5022 H   0  0  0  0  0  0  0  0  0  0  0  0
   66.4790   48.4917    5.2437 H   0  0  0  0  0  0  0  0  0  0  0  0
   74.0554   49.5409    7.1447 H   0  0  0  0  0  0  0  0  0  0  0  0
   74.0735   46.8420    7.1286 H   0  0  0  0  0  0  0  0  0  0  0  0
   74.8140   45.2601    5.3311 H   0  0  0  0  0  0  0  0  0  0  0  0
   73.7457   45.3347    3.0889 H   0  0  0  0  0  0  0  0  0  0  0  0
 31 30  2  0
 31 32  1  0
 30 29  1  0
 33 32  1  0
 32 27  2  0
 29 28  2  0
 27 28  1  0
 27 26  1  0
 24 22  1  0
 26  4  1  0
 26 25  2  0
 22 23  2  0
 22 21  1  0
  4  3  2  0
 23  7  1  0
 25 10  1  0
 21 20  1  0
  3  7  1  0
  3  1  1  0
 10  1  2  0
  7 20  1  0
  7  6  1  0
  1 19  1  0
  6  2  2  0
  6  5  1  0
 19  5  1  0
  2  9  1  0
  5 18  2  0
  9  8  2  0
  9 17  1  0
 18  8  1  0
 17 16  3  0
 15 14  1  0
 16 14  1  0
 14 11  1  0
 14 13  1  0
 11 12  1  0
 13 12  1  0
  2 34  1  0
  4 35  1  0
  8 36  1  0
 10 37  1  0
 11 38  1  0
 11 39  1  0
 13 40  1  0
 13 41  1  0
 15 42  1  0
 15 43  1  0
 15 44  1  0
 20 45  1  0
 20 46  1  0
 24 47  1  0
 24 48  1  0
 25 49  1  0
 28 50  1  0
 29 51  1  0
 30 52  1  0
A    1
C4
A    2
C14
A    3
C5
A    4
C6
A    5
C8
A    6
C9
A    7
C10
A    8
C12
A    9
C13
A   10
C3
A   11
C30
A   12
O31
A   13
C32
A   14
C23
A   15
C33
A   16
C22
A   17
C16
A   18
N11
A   19
O7
A   20
C17
A   21
O18
A   22
C19
A   23
N20
A   24
N21
A   25
C2
A   26
C1
A   27
C15
A   28
C28
A   29
C27
A   30
C26
A   31
N25
A   32
C24
A   33
F29
M  END
