4RCF_3LO_A_404
     RDKit          3D

 52 57  0  0  0  0  0  0  0  0999 V2000
   71.0140   50.1410    8.7930 C   0  0  0  0  0  0  0  0  0  0  0  0
   72.5180   47.5700    5.8060 C   0  0  0  0  0  0  0  0  0  0  0  0
   70.1530   49.2550    8.1230 C   0  0  0  0  0  0  0  0  0  0  0  0
   70.6730   48.4280    7.1340 C   0  0  0  0  0  0  0  0  0  0  0  0
   67.5620   52.1430   11.4300 C   0  0  0  0  0  0  0  0  0  0  0  0
   69.2600   51.0800   10.0780 C   0  0  0  0  0  0  0  0  0  0  0  0
   68.2830   50.2330    9.5330 C   0  0  0  0  0  0  0  0  0  0  0  0
   68.6620   49.1920    8.4850 C   0  0  0  0  0  0  0  0  0  0  0  0
   68.8870   52.0140   11.0230 C   0  0  0  0  0  0  0  0  0  0  0  0
   66.5770   51.3080   10.9060 C   0  0  0  0  0  0  0  0  0  0  0  0
   66.9530   50.3550    9.9510 C   0  0  0  0  0  0  0  0  0  0  0  0
   67.7980   49.4210    7.3010 N   0  0  0  0  0  0  0  0  0  0  0  0
   66.2710   48.2230    6.0020 N   0  0  0  0  0  0  0  0  0  0  0  0
   72.3620   50.1580    8.4560 C   0  0  0  0  0  0  0  0  0  0  0  0
   72.4760   46.6580    3.5840 N   0  0  0  0  0  0  0  0  0  0  0  0
   64.1520   50.4260   11.0730 C   0  0  0  0  0  0  0  0  0  0  0  0
   62.7560   51.0580   11.0830 C   0  0  0  0  0  0  0  0  0  0  0  0
   62.5540   51.7630   12.3070 O   0  0  0  0  0  0  0  0  0  0  0  0
   63.5340   52.8020   12.4360 C   0  0  0  0  0  0  0  0  0  0  0  0
   64.8640   52.6220   12.0090 C   0  0  0  0  0  0  0  0  0  0  0  0
   65.2440   51.4560   11.3230 C   0  0  0  0  0  0  0  0  0  0  0  0
   69.8330   52.8130   11.5540 F   0  0  0  0  0  0  0  0  0  0  0  0
   70.5800   51.0080    9.7510 O   0  0  0  0  0  0  0  0  0  0  0  0
   68.2460   47.7730    8.9180 C   0  0  0  0  0  0  0  0  0  0  0  0
   67.4420   47.2470    7.8130 O   0  0  0  0  0  0  0  0  0  0  0  0
   67.1370   48.3170    7.0060 C   0  0  0  0  0  0  0  0  0  0  0  0
   72.8680   49.3170    7.4700 C   0  0  0  0  0  0  0  0  0  0  0  0
   72.0230   48.4370    6.7890 C   0  0  0  0  0  0  0  0  0  0  0  0
   73.5250   46.6610    6.1290 C   0  0  0  0  0  0  0  0  0  0  0  0
   73.9880   45.7910    5.1480 C   0  0  0  0  0  0  0  0  0  0  0  0
   73.4400   45.8120    3.8690 C   0  0  0  0  0  0  0  0  0  0  0  0
   72.0090   47.5210    4.4980 C   0  0  0  0  0  0  0  0  0  0  0  0
   71.0430   48.3690    4.1260 F   0  0  0  0  0  0  0  0  0  0  0  0
   69.9948   47.7423    6.6051 H   0  0  0  0  0  0  0  0  0  0  0  0
   67.2905   52.9096   12.1706 H   0  0  0  0  0  0  0  0  0  0  0  0
   66.1889   49.6903    9.5217 H   0  0  0  0  0  0  0  0  0  0  0  0
   65.2656   48.1139    6.1976 H   0  0  0  0  0  0  0  0  0  0  0  0
   66.6053   48.2593    5.0284 H   0  0  0  0  0  0  0  0  0  0  0  0
   73.0408   50.8485    8.9779 H   0  0  0  0  0  0  0  0  0  0  0  0
   64.2004   49.6586   11.8596 H   0  0  0  0  0  0  0  0  0  0  0  0
   64.3197   49.9865   10.0787 H   0  0  0  0  0  0  0  0  0  0  0  0
   62.6658   51.7579   10.2392 H   0  0  0  0  0  0  0  0  0  0  0  0
   61.9980   50.2663   10.9902 H   0  0  0  0  0  0  0  0  0  0  0  0
   63.5836   53.0492   13.5067 H   0  0  0  0  0  0  0  0  0  0  0  0
   63.1631   53.5624   11.7329 H   0  0  0  0  0  0  0  0  0  0  0  0
   65.6124   53.4016   12.2145 H   0  0  0  0  0  0  0  0  0  0  0  0
   67.6506   47.8121    9.8421 H   0  0  0  0  0  0  0  0  0  0  0  0
   69.1192   47.1373    9.1262 H   0  0  0  0  0  0  0  0  0  0  0  0
   73.9400   49.3450    7.2250 H   0  0  0  0  0  0  0  0  0  0  0  0
   73.9467   46.6326    7.1445 H   0  0  0  0  0  0  0  0  0  0  0  0
   74.7938   45.0806    5.3848 H   0  0  0  0  0  0  0  0  0  0  0  0
   73.8132   45.1217    3.0982 H   0  0  0  0  0  0  0  0  0  0  0  0
 15 31  2  0
 15 32  1  0
 31 30  1  0
 33 32  1  0
 32  2  2  0
 30 29  2  0
  2 29  1  0
  2 28  1  0
 13 26  1  0
 28  4  2  0
 28 27  1  0
 26 12  2  0
 26 25  1  0
  4  3  1  0
 12  8  1  0
 27 14  2  0
 25 24  1  0
  3  8  1  0
  3  1  2  0
 14  1  1  0
  8 24  1  0
  8  7  1  0
  1 23  1  0
  7 11  1  0
  7  6  2  0
 23  6  1  0
 11 10  2  0
  6  9  1  0
 10 21  1  0
 10  5  1  0
  9  5  2  0
  9 22  1  0
 16 17  1  0
 16 21  1  0
 17 18  1  0
 21 20  2  0
 20 19  1  0
 18 19  1  0
  4 34  1  0
  5 35  1  0
 11 36  1  0
 13 37  1  0
 13 38  1  0
 14 39  1  0
 16 40  1  0
 16 41  1  0
 17 42  1  0
 17 43  1  0
 19 44  1  0
 19 45  1  0
 20 46  1  0
 24 47  1  0
 24 48  1  0
 27 49  1  0
 29 50  1  0
 30 51  1  0
 31 52  1  0
A    1
C4
A    2
C14
A    3
C5
A    4
C6
A    5
C11
A    6
C7
A    7
C8
A    8
C9
A    9
C10
A   10
C12
A   11
C13
A   12
N1
A   13
N2
A   14
C3
A   15
N3
A   16
C22
A   17
C23
A   18
O3
A   19
C24
A   20
C25
A   21
C15
A   22
F1
A   23
O1
A   24
C16
A   25
O2
A   26
C17
A   27
C2
A   28
C1
A   29
C21
A   30
C20
A   31
C19
A   32
C18
A   33
F2
M  END
