4RES_BUF_A_2001
     RDKit          3D

 62 66  0  0  0  0  0  0  0  0999 V2000
    8.6860   21.0360   -0.8970 C   0  0  0  0  0  0  0  0  0  0  0  0
    7.1680   20.9330   -1.0390 C   0  0  0  0  0  0  0  0  0  0  0  0
    6.6670   19.5150   -1.2010 C   0  0  0  0  0  0  0  0  0  0  0  0
    6.8530   18.9660   -2.5880 C   0  0  0  0  0  0  0  0  0  0  0  0
    6.3020   19.8460   -3.7150 C   0  0  0  0  0  0  0  0  0  0  0  0
    6.4430   19.1810   -5.1240 C   0  0  0  0  0  0  0  0  0  0  0  0
    7.9090   18.8290   -5.3730 C   0  0  0  0  0  0  0  0  0  0  0  0
    5.6650   17.8350   -5.1250 C   0  0  0  0  0  0  0  0  0  0  0  0
    4.1520   17.9660   -5.0680 C   0  0  0  0  0  0  0  0  0  0  0  0
    3.7120   18.7460   -6.2850 C   0  0  0  0  0  0  0  0  0  0  0  0
    4.1460   18.0100   -7.4060 O   0  0  0  0  0  0  0  0  0  0  0  0
    4.3750   20.1430   -6.2870 C   0  0  0  0  0  0  0  0  0  0  0  0
    5.9220   20.1070   -6.2520 C   0  0  0  0  0  0  0  0  0  0  0  0
    6.5420   21.5060   -6.1370 C   0  0  0  0  0  0  0  0  0  0  0  0
    6.4760   22.1540   -4.7590 C   0  0  0  0  0  0  0  0  0  0  0  0
    6.9580   21.2360   -3.6270 C   0  0  0  0  0  0  0  0  0  0  0  0
    6.7190   21.8720   -2.2080 C   0  0  0  0  0  0  0  0  0  0  0  0
    7.4690   23.0560   -2.1670 O   0  0  0  0  0  0  0  0  0  0  0  0
    5.2680   22.1900   -1.8620 C   0  0  0  0  0  0  0  0  0  0  0  0
    5.1290   22.0330   -0.3390 C   0  0  0  0  0  0  0  0  0  0  0  0
    6.4420   21.4370    0.2200 C   0  0  0  0  0  0  0  0  0  0  0  0
    7.2540   22.3180    1.1590 C   0  0  0  0  0  0  0  0  0  0  0  0
    7.5160   23.7100    0.8900 C   0  0  0  0  0  0  0  0  0  0  0  0
    8.2360   24.4600    1.7410 C   0  0  0  0  0  0  0  0  0  0  0  0
    8.7720   23.8950    2.9690 C   0  0  0  0  0  0  0  0  0  0  0  0
    9.4320   24.4380    3.8320 O   0  0  0  0  0  0  0  0  0  0  0  0
    8.5050   22.5670    3.2050 O   0  0  0  0  0  0  0  0  0  0  0  0
    7.7810   21.8480    2.3280 C   0  0  0  0  0  0  0  0  0  0  0  0
    8.9541   21.0542    0.1697 H   0  0  0  0  0  0  0  0  0  0  0  0
    9.1591   20.1679   -1.3792 H   0  0  0  0  0  0  0  0  0  0  0  0
    9.0375   21.9601   -1.3792 H   0  0  0  0  0  0  0  0  0  0  0  0
    5.5938   19.4957   -0.9603 H   0  0  0  0  0  0  0  0  0  0  0  0
    7.2593   18.8840   -0.5221 H   0  0  0  0  0  0  0  0  0  0  0  0
    6.3471   17.9906   -2.6390 H   0  0  0  0  0  0  0  0  0  0  0  0
    7.9393   18.9053   -2.7502 H   0  0  0  0  0  0  0  0  0  0  0  0
    5.2167   19.9656   -3.5811 H   0  0  0  0  0  0  0  0  0  0  0  0
    8.4251   18.7051   -4.4095 H   0  0  0  0  0  0  0  0  0  0  0  0
    7.9689   17.8909   -5.9444 H   0  0  0  0  0  0  0  0  0  0  0  0
    8.3883   19.6376   -5.9444 H   0  0  0  0  0  0  0  0  0  0  0  0
    5.9257   17.2912   -6.0449 H   0  0  0  0  0  0  0  0  0  0  0  0
    5.9621   17.3082   -4.2062 H   0  0  0  0  0  0  0  0  0  0  0  0
    3.8565   18.5008   -4.1533 H   0  0  0  0  0  0  0  0  0  0  0  0
    3.6796   16.9727   -5.0556 H   0  0  0  0  0  0  0  0  0  0  0  0
    2.6214   18.8892   -6.2944 H   0  0  0  0  0  0  0  0  0  0  0  0
    4.6247   17.1982   -7.1026 H   0  0  0  0  0  0  0  0  0  0  0  0
    4.0621   20.6728   -7.1988 H   0  0  0  0  0  0  0  0  0  0  0  0
    4.0481   20.6512   -5.3678 H   0  0  0  0  0  0  0  0  0  0  0  0
    6.2429   19.6894   -7.2178 H   0  0  0  0  0  0  0  0  0  0  0  0
    7.6015   21.4293   -6.4226 H   0  0  0  0  0  0  0  0  0  0  0  0
    5.9438   22.1511   -6.7974 H   0  0  0  0  0  0  0  0  0  0  0  0
    7.1056   23.0559   -4.7678 H   0  0  0  0  0  0  0  0  0  0  0  0
    5.4190   22.3850   -4.5604 H   0  0  0  0  0  0  0  0  0  0  0  0
    8.0435   21.1150   -3.7577 H   0  0  0  0  0  0  0  0  0  0  0  0
    7.6309   23.3116   -1.2244 H   0  0  0  0  0  0  0  0  0  0  0  0
    5.0249   23.2206   -2.1601 H   0  0  0  0  0  0  0  0  0  0  0  0
    4.5793   21.5160   -2.3924 H   0  0  0  0  0  0  0  0  0  0  0  0
    4.9442   23.0159    0.1191 H   0  0  0  0  0  0  0  0  0  0  0  0
    4.2858   21.3660   -0.1064 H   0  0  0  0  0  0  0  0  0  0  0  0
    6.2429   20.6267    0.9368 H   0  0  0  0  0  0  0  0  0  0  0  0
    7.1191   24.1664   -0.0288 H   0  0  0  0  0  0  0  0  0  0  0  0
    8.4230   25.5180    1.5051 H   0  0  0  0  0  0  0  0  0  0  0  0
    7.5979   20.7915    2.5735 H   0  0  0  0  0  0  0  0  0  0  0  0
 11 10  1  0
 12 10  1  0
 12 13  1  0
 10  9  1  0
 13 14  1  0
 13  6  1  0
 14 15  1  0
  7  6  1  0
  8  6  1  0
  8  9  1  0
  6  5  1  0
 15 16  1  0
  5 16  1  0
  5  4  1  0
 16 17  1  0
  4  3  1  0
 17 18  1  0
 17 19  1  0
 17  2  1  0
 19 20  1  0
  3  2  1  0
  2  1  1  0
  2 21  1  0
 20 21  1  0
 21 22  1  0
 23 22  1  0
 23 24  2  0
 22 28  2  0
 24 25  1  0
 28 27  1  0
 25 27  1  0
 25 26  2  0
  1 29  1  0
  1 30  1  0
  1 31  1  0
  3 32  1  0
  3 33  1  0
  4 34  1  0
  4 35  1  0
  5 36  1  0
  7 37  1  0
  7 38  1  0
  7 39  1  0
  8 40  1  0
  8 41  1  0
  9 42  1  0
  9 43  1  0
 10 44  1  0
 11 45  1  0
 12 46  1  0
 12 47  1  0
 13 48  1  0
 14 49  1  0
 14 50  1  0
 15 51  1  0
 15 52  1  0
 16 53  1  0
 18 54  1  0
 19 55  1  0
 19 56  1  0
 20 57  1  0
 20 58  1  0
 21 59  1  0
 23 60  1  0
 24 61  1  0
 28 62  1  0
A    1
C18
A    2
C13
A    3
C12
A    4
C11
A    5
C9
A    6
C10
A    7
C19
A    8
C1
A    9
C2
A   10
C3
A   11
O3
A   12
C4
A   13
C5
A   14
C6
A   15
C7
A   16
C8
A   17
C14
A   18
O14
A   19
C15
A   20
C16
A   21
C17
A   22
C20
A   23
C22
A   24
C23
A   25
C24
A   26
O24
A   27
O21
A   28
C21
M  END
