4RFY_3OU_A_701
     RDKit          3D

 81 86  0  0  0  0  0  0  0  0999 V2000
   21.5900    5.6290    1.2150 C   0  0  0  0  0  0  0  0  0  0  0  0
   22.8130    5.9140    0.5290 C   0  0  0  0  0  0  0  0  0  0  0  0
   23.8670    6.3710    1.2600 C   0  0  0  0  0  0  0  0  0  0  0  0
   23.7080    6.5230    2.6730 C   0  0  0  0  0  0  0  0  0  0  0  0
   22.5010    6.2330    3.2950 C   0  0  0  0  0  0  0  0  0  0  0  0
   21.4540    5.7850    2.5610 N   0  0  0  0  0  0  0  0  0  0  0  0
   20.1400    5.4900    3.2120 C   0  0  0  0  0  0  0  0  0  0  0  0
   20.6610    5.2210    0.5160 O   0  0  0  0  0  0  0  0  0  0  0  0
   22.7800    5.7170   -0.8810 N   0  0  0  0  0  0  0  0  0  0  0  0
   23.7750    5.7820   -1.8300 C   0  0  0  0  0  0  0  0  0  0  0  0
   23.5030    5.3560   -3.1480 C   0  0  0  0  0  0  0  0  0  0  0  0
   24.5010    5.4520   -4.0910 C   0  0  0  0  0  0  0  0  0  0  0  0
   25.7470    5.9730   -3.6910 C   0  0  0  0  0  0  0  0  0  0  0  0
   25.9390    6.3980   -2.3500 C   0  0  0  0  0  0  0  0  0  0  0  0
   24.9560    6.2860   -1.4640 N   0  0  0  0  0  0  0  0  0  0  0  0
   26.8960    6.1530   -4.6290 C   0  0  0  0  0  0  0  0  0  0  0  0
   27.9680    5.6680   -4.3290 O   0  0  0  0  0  0  0  0  0  0  0  0
   26.7870    6.9300   -5.7490 N   0  0  0  0  0  0  0  0  0  0  0  0
   27.9820    7.1160   -6.6370 C   0  0  0  0  0  0  0  0  0  0  0  0
   27.6000    7.6340   -8.0340 C   0  0  0  0  0  0  0  0  0  0  0  0
   26.6610    8.7160   -7.8790 O   0  0  0  0  0  0  0  0  0  0  0  0
   25.4000    8.1420   -7.5330 C   0  0  0  0  0  0  0  0  0  0  0  0
   25.4920    7.6120   -6.0940 C   0  0  0  0  0  0  0  0  0  0  0  0
   24.8810    6.9830    3.4740 C   0  0  0  0  0  0  0  0  0  0  0  0
   26.1220    6.3530    3.1860 C   0  0  0  0  0  0  0  0  0  0  0  0
   27.2890    6.6900    3.8580 C   0  0  0  0  0  0  0  0  0  0  0  0
   27.2450    7.6600    4.8980 C   0  0  0  0  0  0  0  0  0  0  0  0
   26.0310    8.3060    5.1780 C   0  0  0  0  0  0  0  0  0  0  0  0
   24.8420    7.9490    4.5150 C   0  0  0  0  0  0  0  0  0  0  0  0
   23.5120    8.6560    4.7630 C   0  0  0  0  0  0  0  0  0  0  0  0
   25.9220    9.2680    6.2290 N   0  0  0  0  0  0  0  0  0  0  0  0
   26.0350   10.7020    5.8430 C   0  0  0  0  0  0  0  0  0  0  0  0
   25.0780   11.5270    6.6800 C   0  0  0  0  0  0  0  0  0  0  0  0
   25.7490    8.8580    7.5170 C   0  0  0  0  0  0  0  0  0  0  0  0
   25.5020    9.8860    8.5650 C   0  0  0  0  0  0  0  0  0  0  0  0
   25.1250   11.2020    8.1370 C   0  0  0  0  0  0  0  0  0  0  0  0
   24.7950   12.1560    9.0890 C   0  0  0  0  0  0  0  0  0  0  0  0
   24.7660   11.7920   10.4680 C   0  0  0  0  0  0  0  0  0  0  0  0
   25.1560   10.4960   10.8870 C   0  0  0  0  0  0  0  0  0  0  0  0
   25.4710    9.5360    9.9230 C   0  0  0  0  0  0  0  0  0  0  0  0
   24.4440   12.7410   11.4750 N   0  0  0  0  0  0  0  0  0  0  0  0
   23.7620   14.0300   11.1060 C   0  0  0  0  0  0  0  0  0  0  0  0
   24.6990   12.4970   12.8840 C   0  0  0  0  0  0  0  0  0  0  0  0
   25.6630    7.6500    7.8360 O   0  0  0  0  0  0  0  0  0  0  0  0
   22.8460    8.1810    5.9580 O   0  0  0  0  0  0  0  0  0  0  0  0
   24.8219    6.6184    0.7732 H   0  0  0  0  0  0  0  0  0  0  0  0
   22.3950    6.3667    4.3817 H   0  0  0  0  0  0  0  0  0  0  0  0
   20.2583    5.5166    4.3053 H   0  0  0  0  0  0  0  0  0  0  0  0
   19.4010    6.2446    2.9047 H   0  0  0  0  0  0  0  0  0  0  0  0
   19.7944    4.4919    2.9047 H   0  0  0  0  0  0  0  0  0  0  0  0
   21.8491    5.4855   -1.2562 H   0  0  0  0  0  0  0  0  0  0  0  0
   22.5141    4.9557   -3.4159 H   0  0  0  0  0  0  0  0  0  0  0  0
   24.3301    5.1305   -5.1290 H   0  0  0  0  0  0  0  0  0  0  0  0
   26.9066    6.8221   -2.0434 H   0  0  0  0  0  0  0  0  0  0  0  0
   28.4943    6.1488   -6.7469 H   0  0  0  0  0  0  0  0  0  0  0  0
   28.6346    7.8671   -6.1679 H   0  0  0  0  0  0  0  0  0  0  0  0
   27.1390    6.8232   -8.6172 H   0  0  0  0  0  0  0  0  0  0  0  0
   28.4973    7.9864   -8.5639 H   0  0  0  0  0  0  0  0  0  0  0  0
   24.6123    8.9070   -7.5983 H   0  0  0  0  0  0  0  0  0  0  0  0
   25.1531    7.3228   -8.2244 H   0  0  0  0  0  0  0  0  0  0  0  0
   25.3609    8.4621   -5.4083 H   0  0  0  0  0  0  0  0  0  0  0  0
   24.7070    6.8475   -5.9974 H   0  0  0  0  0  0  0  0  0  0  0  0
   26.1588    5.5760    2.4082 H   0  0  0  0  0  0  0  0  0  0  0  0
   28.2414    6.2103    3.5883 H   0  0  0  0  0  0  0  0  0  0  0  0
   28.1503    7.9003    5.4748 H   0  0  0  0  0  0  0  0  0  0  0  0
   23.7002    9.7346    4.8691 H   0  0  0  0  0  0  0  0  0  0  0  0
   22.8551    8.4424    3.9069 H   0  0  0  0  0  0  0  0  0  0  0  0
   27.0648   11.0481    6.0153 H   0  0  0  0  0  0  0  0  0  0  0  0
   25.7832   10.8162    4.7783 H   0  0  0  0  0  0  0  0  0  0  0  0
   25.3318   12.5897    6.5524 H   0  0  0  0  0  0  0  0  0  0  0  0
   24.0612   11.2947    6.3304 H   0  0  0  0  0  0  0  0  0  0  0  0
   24.5575   13.1854    8.7826 H   0  0  0  0  0  0  0  0  0  0  0  0
   25.2100   10.2492   11.9576 H   0  0  0  0  0  0  0  0  0  0  0  0
   25.6952    8.5035   10.2291 H   0  0  0  0  0  0  0  0  0  0  0  0
   23.4768   14.5691   12.0215 H   0  0  0  0  0  0  0  0  0  0  0  0
   24.4491   14.6518   10.5134 H   0  0  0  0  0  0  0  0  0  0  0  0
   22.8614   13.8117   10.5134 H   0  0  0  0  0  0  0  0  0  0  0  0
   24.0365   13.1309   13.4917 H   0  0  0  0  0  0  0  0  0  0  0  0
   24.5059   11.4387   13.1137 H   0  0  0  0  0  0  0  0  0  0  0  0
   25.7477   12.7366   13.1137 H   0  0  0  0  0  0  0  0  0  0  0  0
   23.3213    8.5200    6.7575 H   0  0  0  0  0  0  0  0  0  0  0  0
 20 21  1  0
 20 19  1  0
 21 22  1  0
 22 23  1  0
 19 18  1  0
 23 18  1  0
 18 16  1  0
 16 17  2  0
 16 13  1  0
 12 13  1  0
 12 11  2  0
 13 14  2  0
 11 10  1  0
 14 15  1  0
 10 15  2  0
 10  9  1  0
  9  2  1  0
  8  1  2  0
  2  1  1  0
  2  3  2  0
  1  6  1  0
  3  4  1  0
  6  7  1  0
  6  5  1  0
  4  5  2  0
  4 24  1  0
 25 24  2  0
 25 26  1  0
 24 29  1  0
 26 27  2  0
 29 30  1  0
 29 28  2  0
 30 45  1  0
 27 28  1  0
 28 31  1  0
 32 31  1  0
 32 33  1  0
 31 34  1  0
 33 36  1  0
 34 44  2  0
 34 35  1  0
 36 35  2  0
 36 37  1  0
 35 40  1  0
 37 38  2  0
 40 39  2  0
 38 39  1  0
 38 41  1  0
 42 41  1  0
 41 43  1  0
  3 46  1  0
  5 47  1  0
  7 48  1  0
  7 49  1  0
  7 50  1  0
  9 51  1  0
 11 52  1  0
 12 53  1  0
 14 54  1  0
 19 55  1  0
 19 56  1  0
 20 57  1  0
 20 58  1  0
 22 59  1  0
 22 60  1  0
 23 61  1  0
 23 62  1  0
 25 63  1  0
 26 64  1  0
 27 65  1  0
 30 66  1  0
 30 67  1  0
 32 68  1  0
 32 69  1  0
 33 70  1  0
 33 71  1  0
 37 72  1  0
 39 73  1  0
 40 74  1  0
 42 75  1  0
 42 76  1  0
 42 77  1  0
 43 78  1  0
 43 79  1  0
 43 80  1  0
 45 81  1  0
A    1
C1
A    2
C2
A    3
C3
A    4
C4
A    5
C5
A    6
N6
A    7
C7
A    8
O8
A    9
N9
A   10
C10
A   11
C11
A   12
C12
A   13
C13
A   14
C14
A   15
N15
A   16
C16
A   17
O17
A   18
N18
A   19
C19
A   20
C20
A   21
O21
A   22
C22
A   23
C23
A   24
C24
A   25
C25
A   26
C26
A   27
C27
A   28
C28
A   29
C29
A   30
C30
A   31
N31
A   32
C32
A   33
C33
A   34
C34
A   35
C35
A   36
C36
A   37
C37
A   38
C38
A   39
C39
A   40
C40
A   41
N41
A   42
C42
A   43
C43
A   44
O44
A   45
O45
M  END
