4RHU_45T_C_301
     RDKit          3D

 49 50  0  0  0  0  0  0  0  0999 V2000
   32.1390   16.0840  -33.1930 O   0  0  0  0  0  0  0  0  0  0  0  0
   30.7680   15.7430  -32.6190 P   0  0  0  0  0  0  0  0  0  0  0  0
   30.5660   16.3410  -31.2340 O   0  0  0  0  0  0  0  0  0  0  0  0
   30.4120   14.2690  -32.7140 O   0  0  0  0  0  0  0  0  0  0  0  0
   29.4860   16.6590  -33.7590 C   0  0  0  0  0  0  0  0  0  0  0  0
   29.8330   18.1200  -33.9660 C   0  0  0  0  0  0  0  0  0  0  0  0
   28.9380   18.6400  -35.0080 O   0  0  0  0  0  0  0  0  0  0  0  0
   29.0670   20.0340  -35.1940 C   0  0  0  0  0  0  0  0  0  0  0  0
   28.3340   20.7750  -33.9890 C   0  0  0  0  0  0  0  0  0  0  0  0
   28.2970   22.1240  -34.3430 O   0  0  0  0  0  0  0  0  0  0  0  0
   27.6350   22.9620  -33.3340 C   0  0  0  0  0  0  0  0  0  0  0  0
   27.9350   24.3980  -33.6870 C   0  0  0  0  0  0  0  0  0  0  0  0
   27.0780   25.6340  -32.4880 P   0  0  0  0  0  0  0  0  0  0  0  0
   25.6040   25.2870  -32.5310 O   0  0  0  0  0  0  0  0  0  0  0  0
   27.7310   25.3880  -31.1300 O   0  0  0  0  0  0  0  0  0  0  0  0
   27.4070   27.0110  -33.0430 O   0  0  0  0  0  0  0  0  0  0  0  0
   26.7890   20.2590  -33.9600 C   0  0  0  0  0  0  0  0  0  0  0  0
   25.9850   20.4600  -35.2710 N   0  0  0  0  0  0  0  0  0  0  0  0
   25.8340   19.6320  -36.3870 C   0  0  0  0  0  0  0  0  0  0  0  0
   26.3390   18.3870  -36.6980 N   0  0  0  0  0  0  0  0  0  0  0  0
   25.9300   17.9240  -37.9250 C   0  0  0  0  0  0  0  0  0  0  0  0
   26.4280   16.6510  -38.2830 N   0  0  0  0  0  0  0  0  0  0  0  0
   25.1050   18.5230  -38.8610 N   0  0  0  0  0  0  0  0  0  0  0  0
   24.6340   19.7440  -38.5110 C   0  0  0  0  0  0  0  0  0  0  0  0
   23.8100   20.3920  -39.3920 O   0  0  0  0  0  0  0  0  0  0  0  0
   24.9540   20.3690  -37.2840 C   0  0  0  0  0  0  0  0  0  0  0  0
   24.5970   21.5980  -36.7110 N   0  0  0  0  0  0  0  0  0  0  0  0
   25.2370   21.6280  -35.4880 C   0  0  0  0  0  0  0  0  0  0  0  0
   30.7940   15.6660  -30.5466 H   0  0  0  0  0  0  0  0  0  0  0  0
   30.3210   13.8921  -31.8031 H   0  0  0  0  0  0  0  0  0  0  0  0
   28.4914   16.5952  -33.2935 H   0  0  0  0  0  0  0  0  0  0  0  0
   29.5041   16.1686  -34.7434 H   0  0  0  0  0  0  0  0  0  0  0  0
   30.8805   18.2158  -34.2878 H   0  0  0  0  0  0  0  0  0  0  0  0
   29.7098   18.6851  -33.0303 H   0  0  0  0  0  0  0  0  0  0  0  0
   30.1318   20.3097  -35.2063 H   0  0  0  0  0  0  0  0  0  0  0  0
   28.6124   20.3301  -36.1509 H   0  0  0  0  0  0  0  0  0  0  0  0
   28.8338   20.5953  -33.0257 H   0  0  0  0  0  0  0  0  0  0  0  0
   26.5491   22.7876  -33.3517 H   0  0  0  0  0  0  0  0  0  0  0  0
   27.9991   22.7218  -32.3242 H   0  0  0  0  0  0  0  0  0  0  0  0
   29.0227   24.5548  -33.6397 H   0  0  0  0  0  0  0  0  0  0  0  0
   27.5476   24.5853  -34.6994 H   0  0  0  0  0  0  0  0  0  0  0  0
   25.2571   25.2053  -31.6074 H   0  0  0  0  0  0  0  0  0  0  0  0
   27.0952   25.6275  -30.4099 H   0  0  0  0  0  0  0  0  0  0  0  0
   26.2672   20.8012  -33.1577 H   0  0  0  0  0  0  0  0  0  0  0  0
   26.8404   19.1712  -33.8051 H   0  0  0  0  0  0  0  0  0  0  0  0
   26.6918   15.9766  -37.5506 H   0  0  0  0  0  0  0  0  0  0  0  0
   26.5272   16.3975  -39.2764 H   0  0  0  0  0  0  0  0  0  0  0  0
   24.8669   18.0739  -39.7569 H   0  0  0  0  0  0  0  0  0  0  0  0
   25.1693   22.4619  -34.7738 H   0  0  0  0  0  0  0  0  0  0  0  0
 25 24  2  0
 23 24  1  0
 23 21  1  0
 24 26  1  0
 22 21  1  0
 21 20  2  0
 26 27  1  0
 26 19  2  0
 27 28  2  0
 20 19  1  0
 19 18  1  0
 28 18  1  0
 18 17  1  0
  8  7  1  0
  8  9  1  0
  7  6  1  0
 10  9  1  0
 10 11  1  0
  9 17  1  0
  6  5  1  0
  5  2  1  0
 12 11  1  0
 12 13  1  0
  1  2  2  0
 16 13  2  0
  4  2  1  0
  2  3  1  0
 14 13  1  0
 13 15  1  0
  3 29  1  0
  4 30  1  0
  5 31  1  0
  5 32  1  0
  6 33  1  0
  6 34  1  0
  8 35  1  0
  8 36  1  0
  9 37  1  0
 11 38  1  0
 11 39  1  0
 12 40  1  0
 12 41  1  0
 14 42  1  0
 15 43  1  0
 17 44  1  0
 17 45  1  0
 22 46  1  0
 22 47  1  0
 23 48  1  0
 28 49  1  0
A    1
OAE
A    2
PBA
A    3
OAF
A    4
OAC
A    5
CAL
A    6
CAJ
A    7
OAS
A    8
CAN
A    9
CAY
A   10
OAT
A   11
CAK
A   12
CAM
A   13
PBB
A   14
OAG
A   15
OAH
A   16
OAD
A   17
CAO
A   18
N9
A   19
C4
A   20
N3
A   21
C2
A   22
N2
A   23
N1
A   24
C6
A   25
O6
A   26
C5
A   27
N7
A   28
C8
M  END
