4RHX_3QF_A_301
     RDKit          3D

 59 60  0  0  0  0  0  0  0  0999 V2000
   -3.4260    7.6880  124.3960 O   0  0  0  0  0  0  0  0  0  0  0  0
   -4.1380    7.2190  123.1640 P   0  0  0  0  0  0  0  0  0  0  0  0
   -3.8360    5.7620  122.9330 O   0  0  0  0  0  0  0  0  0  0  0  0
   -5.6130    7.4050  123.3410 O   0  0  0  0  0  0  0  0  0  0  0  0
   -3.5740    8.2230  121.7060 C   0  0  0  0  0  0  0  0  0  0  0  0
   -3.9470    9.7430  121.9230 C   0  0  0  0  0  0  0  0  0  0  0  0
   -3.1430   10.6390  121.0550 N   0  0  0  0  0  0  0  0  0  0  0  0
   -3.0980   10.1000  119.6630 C   0  0  0  0  0  0  0  0  0  0  0  0
   -4.4330   10.3710  118.9460 C   0  0  0  0  0  0  0  0  0  0  0  0
   -5.3300    9.4990  118.9430 O   0  0  0  0  0  0  0  0  0  0  0  0
   -3.7500   11.9650  121.0700 C   0  0  0  0  0  0  0  0  0  0  0  0
   -3.5520   12.5980  122.4850 C   0  0  0  0  0  0  0  0  0  0  0  0
   -4.7010   13.4190  122.8740 N   0  0  0  0  0  0  0  0  0  0  0  0
   -4.5330   14.7310  122.3740 C   0  0  0  0  0  0  0  0  0  0  0  0
   -5.8770   15.3510  122.0520 C   0  0  0  0  0  0  0  0  0  0  0  0
   -5.7170   17.0350  121.2580 P   0  0  0  0  0  0  0  0  0  0  0  0
   -5.2720   16.8640  119.8310 O   0  0  0  0  0  0  0  0  0  0  0  0
   -7.0640   17.7400  121.2940 O   0  0  0  0  0  0  0  0  0  0  0  0
   -4.6950   17.8680  121.9950 O   0  0  0  0  0  0  0  0  0  0  0  0
   -4.7770   13.4530  124.3410 C   0  0  0  0  0  0  0  0  0  0  0  0
   -3.6050   14.2780  124.9360 C   0  0  0  0  0  0  0  0  0  0  0  0
   -3.9520   14.7350  126.3150 N   0  0  0  0  0  0  0  0  0  0  0  0
   -3.9860   13.9550  127.4320 C   0  0  0  0  0  0  0  0  0  0  0  0
   -3.7450   12.6280  127.7230 N   0  0  0  0  0  0  0  0  0  0  0  0
   -3.8620   12.1540  128.9460 C   0  0  0  0  0  0  0  0  0  0  0  0
   -3.6030   10.7790  129.1860 N   0  0  0  0  0  0  0  0  0  0  0  0
   -4.2310   12.9510  130.0020 N   0  0  0  0  0  0  0  0  0  0  0  0
   -4.4860   14.2400  129.8360 C   0  0  0  0  0  0  0  0  0  0  0  0
   -4.8640   15.0490  130.9260 O   0  0  0  0  0  0  0  0  0  0  0  0
   -4.3640   14.7970  128.4930 C   0  0  0  0  0  0  0  0  0  0  0  0
   -4.5400   16.0460  127.9470 N   0  0  0  0  0  0  0  0  0  0  0  0
   -4.2930   16.0000  126.6530 C   0  0  0  0  0  0  0  0  0  0  0  0
   -3.9101    7.3691  125.1985 H   0  0  0  0  0  0  0  0  0  0  0  0
   -5.8286    7.4322  124.3068 H   0  0  0  0  0  0  0  0  0  0  0  0
   -4.0676    7.8528  120.7953 H   0  0  0  0  0  0  0  0  0  0  0  0
   -2.4830    8.1292  121.6020 H   0  0  0  0  0  0  0  0  0  0  0  0
   -3.7632   10.0077  122.9747 H   0  0  0  0  0  0  0  0  0  0  0  0
   -5.0071    9.8749  121.6606 H   0  0  0  0  0  0  0  0  0  0  0  0
   -2.9181    9.0154  119.6987 H   0  0  0  0  0  0  0  0  0  0  0  0
   -2.2863   10.5967  119.1112 H   0  0  0  0  0  0  0  0  0  0  0  0
   -4.5983   11.3316  118.4362 H   0  0  0  0  0  0  0  0  0  0  0  0
   -3.2689   12.5997  120.3112 H   0  0  0  0  0  0  0  0  0  0  0  0
   -4.8238   11.8852  120.8450 H   0  0  0  0  0  0  0  0  0  0  0  0
   -3.4236   11.7916  123.2220 H   0  0  0  0  0  0  0  0  0  0  0  0
   -2.6628   13.2446  122.4513 H   0  0  0  0  0  0  0  0  0  0  0  0
   -3.9225   14.6947  121.4597 H   0  0  0  0  0  0  0  0  0  0  0  0
   -4.0328   15.3426  123.1394 H   0  0  0  0  0  0  0  0  0  0  0  0
   -6.4505   15.4540  122.9850 H   0  0  0  0  0  0  0  0  0  0  0  0
   -6.3863   14.6905  121.3348 H   0  0  0  0  0  0  0  0  0  0  0  0
   -7.3367   17.8827  122.2349 H   0  0  0  0  0  0  0  0  0  0  0  0
   -4.8247   17.7623  122.9707 H   0  0  0  0  0  0  0  0  0  0  0  0
   -5.7302   13.9122  124.6419 H   0  0  0  0  0  0  0  0  0  0  0  0
   -4.7107   12.4228  124.7209 H   0  0  0  0  0  0  0  0  0  0  0  0
   -2.7017   13.6515  124.9761 H   0  0  0  0  0  0  0  0  0  0  0  0
   -3.4212   15.1562  124.2996 H   0  0  0  0  0  0  0  0  0  0  0  0
   -3.5370   10.4284  130.1522 H   0  0  0  0  0  0  0  0  0  0  0  0
   -3.4811   10.1320  128.3939 H   0  0  0  0  0  0  0  0  0  0  0  0
   -4.3110   12.5378  130.9421 H   0  0  0  0  0  0  0  0  0  0  0  0
   -4.3542   16.8521  125.9601 H   0  0  0  0  0  0  0  0  0  0  0  0
 10  9  2  0
  9  8  1  0
  8  7  1  0
 17 16  2  0
  7 11  1  0
  7  6  1  0
 11 12  1  0
 16 18  1  0
 16 19  1  0
 16 15  1  0
  5  6  1  0
  5  2  1  0
 15 14  1  0
 14 13  1  0
 12 13  1  0
 13 20  1  0
  3  2  2  0
  2  4  1  0
  2  1  1  0
 20 21  1  0
 21 22  1  0
 22 32  1  0
 22 23  1  0
 32 31  2  0
 23 24  1  0
 23 30  2  0
 24 25  2  0
 31 30  1  0
 30 28  1  0
 25 26  1  0
 25 27  1  0
 28 27  1  0
 28 29  2  0
  1 33  1  0
  4 34  1  0
  5 35  1  0
  5 36  1  0
  6 37  1  0
  6 38  1  0
  8 39  1  0
  8 40  1  0
  9 41  1  0
 11 42  1  0
 11 43  1  0
 12 44  1  0
 12 45  1  0
 14 46  1  0
 14 47  1  0
 15 48  1  0
 15 49  1  0
 18 50  1  0
 19 51  1  0
 20 52  1  0
 20 53  1  0
 21 54  1  0
 21 55  1  0
 26 56  1  0
 26 57  1  0
 27 58  1  0
 32 59  1  0
A    1
OAF
A    2
PBE
A    3
OAG
A    4
OAC
A    5
CAS
A    6
CAP
A    7
NBB
A    8
CAL
A    9
CAK
A   10
OAE
A   11
CAM
A   12
CAN
A   13
NBC
A   14
CAQ
A   15
CAT
A   16
PBF
A   17
OAH
A   18
OAI
A   19
OAD
A   20
CAO
A   21
CAR
A   22
N9
A   23
C4
A   24
N3
A   25
C2
A   26
N2
A   27
N1
A   28
C6
A   29
O6
A   30
C5
A   31
N7
A   32
C8
M  END
