4RJ6_3R0_A_1102
     RDKit          3D

 50 54  0  0  0  0  0  0  0  0999 V2000
  -48.6190   -1.7840  -21.1050 C   0  0  0  0  0  0  0  0  0  0  0  0
  -49.4400   -0.5620  -20.6660 C   0  0  0  0  0  0  0  0  0  0  0  0
  -52.1150    1.2860  -17.2790 C   0  0  0  0  0  0  0  0  0  0  0  0
  -48.8500   -0.9000  -18.2990 C   0  0  0  0  0  0  0  0  0  0  0  0
  -47.9270   -2.0830  -18.6480 C   0  0  0  0  0  0  0  0  0  0  0  0
  -50.9960    0.0810  -18.9380 C   0  0  0  0  0  0  0  0  0  0  0  0
  -53.0110    1.7420  -18.2470 C   0  0  0  0  0  0  0  0  0  0  0  0
  -52.8930    1.3110  -19.5870 C   0  0  0  0  0  0  0  0  0  0  0  0
  -47.4490   -2.0240  -20.1190 C   0  0  0  0  0  0  0  0  0  0  0  0
  -45.4960   -3.0530  -21.1380 C   0  0  0  0  0  0  0  0  0  0  0  0
  -46.7490   -3.2340  -20.4620 O   0  0  0  0  0  0  0  0  0  0  0  0
  -49.9510   -0.7810  -19.2910 N   0  0  0  0  0  0  0  0  0  0  0  0
  -51.1360    0.4640  -17.6580 N   0  0  0  0  0  0  0  0  0  0  0  0
  -51.8700    0.4870  -19.8760 N   0  0  0  0  0  0  0  0  0  0  0  0
  -53.8010    1.8050  -20.5420 N   0  0  0  0  0  0  0  0  0  0  0  0
  -53.9520    1.3930  -21.8810 C   0  0  0  0  0  0  0  0  0  0  0  0
  -53.0680    0.4960  -22.4750 C   0  0  0  0  0  0  0  0  0  0  0  0
  -53.2840    0.0890  -23.7940 C   0  0  0  0  0  0  0  0  0  0  0  0
  -54.3890    0.5850  -24.5410 C   0  0  0  0  0  0  0  0  0  0  0  0
  -55.2270    1.4880  -23.8760 C   0  0  0  0  0  0  0  0  0  0  0  0
  -54.9730    1.8630  -22.6140 N   0  0  0  0  0  0  0  0  0  0  0  0
  -54.3550   -0.0120  -25.7720 N   0  0  0  0  0  0  0  0  0  0  0  0
  -53.3070   -0.8230  -25.7970 C   0  0  0  0  0  0  0  0  0  0  0  0
  -52.6230   -0.7770  -24.6210 N   0  0  0  0  0  0  0  0  0  0  0  0
  -52.7470   -1.6200  -26.8960 C   0  0  0  0  0  0  0  0  0  0  0  0
  -53.3690   -2.0740  -28.0270 C   0  0  0  0  0  0  0  0  0  0  0  0
  -52.4400   -2.7370  -28.7320 N   0  0  0  0  0  0  0  0  0  0  0  0
  -51.2180   -2.6960  -28.0470 N   0  0  0  0  0  0  0  0  0  0  0  0
  -51.3960   -2.0310  -26.9480 C   0  0  0  0  0  0  0  0  0  0  0  0
  -49.2686   -2.6716  -21.1211 H   0  0  0  0  0  0  0  0  0  0  0  0
  -48.2101   -1.5999  -22.1095 H   0  0  0  0  0  0  0  0  0  0  0  0
  -48.8021    0.3340  -20.6822 H   0  0  0  0  0  0  0  0  0  0  0  0
  -50.2861   -0.4207  -21.3546 H   0  0  0  0  0  0  0  0  0  0  0  0
  -52.2141    1.5973  -16.2286 H   0  0  0  0  0  0  0  0  0  0  0  0
  -48.2615    0.0294  -18.2997 H   0  0  0  0  0  0  0  0  0  0  0  0
  -49.2874   -1.0745  -17.3049 H   0  0  0  0  0  0  0  0  0  0  0  0
  -48.4768   -3.0225  -18.4896 H   0  0  0  0  0  0  0  0  0  0  0  0
  -47.0412   -2.0292  -17.9980 H   0  0  0  0  0  0  0  0  0  0  0  0
  -53.8128    2.4403  -17.9651 H   0  0  0  0  0  0  0  0  0  0  0  0
  -46.7649   -1.1672  -20.2083 H   0  0  0  0  0  0  0  0  0  0  0  0
  -44.6924   -2.9369  -20.3959 H   0  0  0  0  0  0  0  0  0  0  0  0
  -45.2892   -3.9306  -21.7681 H   0  0  0  0  0  0  0  0  0  0  0  0
  -45.5460   -2.1528  -21.7681 H   0  0  0  0  0  0  0  0  0  0  0  0
  -54.4296    2.5567  -20.2246 H   0  0  0  0  0  0  0  0  0  0  0  0
  -52.2063    0.1108  -21.9102 H   0  0  0  0  0  0  0  0  0  0  0  0
  -56.1063    1.8957  -24.3962 H   0  0  0  0  0  0  0  0  0  0  0  0
  -55.0234    0.1413  -26.5405 H   0  0  0  0  0  0  0  0  0  0  0  0
  -54.4231   -1.9247  -28.3037 H   0  0  0  0  0  0  0  0  0  0  0  0
  -52.5999   -3.2037  -29.6362 H   0  0  0  0  0  0  0  0  0  0  0  0
  -50.6284   -1.8229  -26.1880 H   0  0  0  0  0  0  0  0  0  0  0  0
 27 28  1  0
 27 26  1  0
 28 29  2  0
 26 25  2  0
 29 25  1  0
 25 23  1  0
 23 22  1  0
 23 24  2  0
 22 19  1  0
 24 18  1  0
 19 20  2  0
 19 18  1  0
 20 21  1  0
 18 17  2  0
 21 16  2  0
 17 16  1  0
 16 15  1  0
 10 11  1  0
  1  2  1  0
  1  9  1  0
  2 12  1  0
 15  8  1  0
 11  9  1  0
  9  5  1  0
 14  8  2  0
 14  6  1  0
  8  7  1  0
 12  6  1  0
 12  4  1  0
  6 13  2  0
  5  4  1  0
  7  3  2  0
 13  3  1  0
  1 30  1  0
  1 31  1  0
  2 32  1  0
  2 33  1  0
  3 34  1  0
  4 35  1  0
  4 36  1  0
  5 37  1  0
  5 38  1  0
  7 39  1  0
  9 40  1  0
 10 41  1  0
 10 42  1  0
 10 43  1  0
 15 44  1  0
 17 45  1  0
 20 46  1  0
 22 47  1  0
 26 48  1  0
 27 49  1  0
 29 50  1  0
A    1
C4
A    2
C5
A    3
C11
A    4
C7
A    5
C8
A    6
C9
A    7
C12
A    8
C13
A    9
C3
A   10
C1
A   11
O2
A   12
N6
A   13
N10
A   14
N14
A   15
N15
A   16
C16
A   17
C17
A   18
C18
A   19
C19
A   20
C20
A   21
N21
A   22
N22
A   23
C23
A   24
N24
A   25
C26
A   26
C27
A   27
N28
A   28
N30
A   29
C31
M  END
