4RJ7_3R1_A_1102
     RDKit          3D

 50 52  0  0  0  0  0  0  0  0999 V2000
  -52.9730    1.2320  -18.8220 C   0  0  0  0  0  0  0  0  0  0  0  0
  -51.0120    0.0600  -18.3110 C   0  0  0  0  0  0  0  0  0  0  0  0
  -48.1750   -1.1940  -20.3390 C   0  0  0  0  0  0  0  0  0  0  0  0
  -49.6770   -1.0330  -20.1450 C   0  0  0  0  0  0  0  0  0  0  0  0
  -50.3770   -2.3400  -20.5560 C   0  0  0  0  0  0  0  0  0  0  0  0
  -53.0790    1.6320  -17.4720 C   0  0  0  0  0  0  0  0  0  0  0  0
  -52.1690    1.5310  -15.1100 C   0  0  0  0  0  0  0  0  0  0  0  0
  -52.1120    1.1640  -16.5740 C   0  0  0  0  0  0  0  0  0  0  0  0
  -51.9410    0.4530  -19.1760 N   0  0  0  0  0  0  0  0  0  0  0  0
  -51.1100    0.3990  -17.0250 N   0  0  0  0  0  0  0  0  0  0  0  0
  -49.9470   -0.7330  -18.7310 N   0  0  0  0  0  0  0  0  0  0  0  0
  -50.6680   -2.3330  -21.9650 O   0  0  0  0  0  0  0  0  0  0  0  0
  -53.9080    1.6820  -19.7620 N   0  0  0  0  0  0  0  0  0  0  0  0
  -53.9230    1.4410  -21.1450 C   0  0  0  0  0  0  0  0  0  0  0  0
  -53.1010    0.4720  -21.7200 C   0  0  0  0  0  0  0  0  0  0  0  0
  -53.1460    0.2320  -23.0950 C   0  0  0  0  0  0  0  0  0  0  0  0
  -54.0820    0.9750  -23.8610 C   0  0  0  0  0  0  0  0  0  0  0  0
  -54.9140    1.8910  -23.2320 C   0  0  0  0  0  0  0  0  0  0  0  0
  -54.7980    2.1070  -21.9170 N   0  0  0  0  0  0  0  0  0  0  0  0
  -52.2980   -0.7870  -23.5810 N   0  0  0  0  0  0  0  0  0  0  0  0
  -52.3820   -1.3840  -24.7920 C   0  0  0  0  0  0  0  0  0  0  0  0
  -53.1960   -1.0180  -25.6450 O   0  0  0  0  0  0  0  0  0  0  0  0
  -51.4840   -2.4990  -25.1800 C   0  0  0  0  0  0  0  0  0  0  0  0
  -50.3880   -2.2380  -26.0150 C   0  0  0  0  0  0  0  0  0  0  0  0
  -49.6270   -3.2850  -26.5160 C   0  0  0  0  0  0  0  0  0  0  0  0
  -49.9700   -4.6010  -26.2220 C   0  0  0  0  0  0  0  0  0  0  0  0
  -51.0730   -4.8790  -25.4250 C   0  0  0  0  0  0  0  0  0  0  0  0
  -51.8350   -3.8390  -24.9200 C   0  0  0  0  0  0  0  0  0  0  0  0
  -53.1870   -4.2200  -23.9140 Cl  0  0  0  0  0  0  0  0  0  0  0  0
  -49.9570   -0.5950  -26.3520 Cl  0  0  0  0  0  0  0  0  0  0  0  0
  -47.6820   -1.2468  -19.3571 H   0  0  0  0  0  0  0  0  0  0  0  0
  -47.9748   -2.1188  -20.9000 H   0  0  0  0  0  0  0  0  0  0  0  0
  -47.7833   -0.3327  -20.9000 H   0  0  0  0  0  0  0  0  0  0  0  0
  -50.0581   -0.2094  -20.7667 H   0  0  0  0  0  0  0  0  0  0  0  0
  -51.3164   -2.4404  -19.9926 H   0  0  0  0  0  0  0  0  0  0  0  0
  -49.7102   -3.1862  -20.3342 H   0  0  0  0  0  0  0  0  0  0  0  0
  -53.8945    2.2897  -17.1368 H   0  0  0  0  0  0  0  0  0  0  0  0
  -52.0286    0.6268  -14.4996 H   0  0  0  0  0  0  0  0  0  0  0  0
  -51.3725    2.2546  -14.8821 H   0  0  0  0  0  0  0  0  0  0  0  0
  -53.1475    1.9789  -14.8821 H   0  0  0  0  0  0  0  0  0  0  0  0
  -49.3185   -1.1282  -18.0171 H   0  0  0  0  0  0  0  0  0  0  0  0
  -51.6486   -2.3094  -22.0993 H   0  0  0  0  0  0  0  0  0  0  0  0
  -54.6777    2.2595  -19.3945 H   0  0  0  0  0  0  0  0  0  0  0  0
  -52.4129   -0.1069  -21.0864 H   0  0  0  0  0  0  0  0  0  0  0  0
  -54.1478    0.8255  -24.9488 H   0  0  0  0  0  0  0  0  0  0  0  0
  -55.6687    2.4393  -23.8149 H   0  0  0  0  0  0  0  0  0  0  0  0
  -51.5449   -1.1056  -22.9548 H   0  0  0  0  0  0  0  0  0  0  0  0
  -48.7509   -3.0740  -27.1468 H   0  0  0  0  0  0  0  0  0  0  0  0
  -49.3638   -5.4265  -26.6233 H   0  0  0  0  0  0  0  0  0  0  0  0
  -51.3401   -5.9212  -25.1959 H   0  0  0  0  0  0  0  0  0  0  0  0
 25 26  1  0
 25 24  2  0
 30 24  1  0
 26 27  2  0
 24 23  1  0
 22 21  2  0
 27 28  1  0
 23 28  2  0
 23 21  1  0
 28 29  1  0
 21 20  1  0
 17 18  2  0
 17 16  1  0
 20 16  1  0
 18 19  1  0
 16 15  2  0
 12  5  1  0
 19 14  2  0
 15 14  1  0
 14 13  1  0
  5  4  1  0
  3  4  1  0
  4 11  1  0
 13  1  1  0
  9  1  1  0
  9  2  2  0
  1  6  2  0
 11  2  1  0
  2 10  1  0
  6  8  1  0
 10  8  2  0
  8  7  1  0
  3 31  1  0
  3 32  1  0
  3 33  1  0
  4 34  1  0
  5 35  1  0
  5 36  1  0
  6 37  1  0
  7 38  1  0
  7 39  1  0
  7 40  1  0
 11 41  1  0
 12 42  1  0
 13 43  1  0
 15 44  1  0
 17 45  1  0
 18 46  1  0
 20 47  1  0
 25 48  1  0
 26 49  1  0
 27 50  1  0
A    1
C4
A    2
C6
A    3
C11
A    4
C9
A    5
C12
A    6
C3
A    7
C1
A    8
C2
A    9
N5
A   10
N7
A   11
N8
A   12
O13
A   13
N14
A   14
C15
A   15
C16
A   16
C17
A   17
C18
A   18
C19
A   19
N20
A   20
N21
A   21
C22
A   22
O23
A   23
C24
A   24
C25
A   25
C26
A   26
C27
A   27
C28
A   28
C29
A   29
CL1
A   30
CL2
M  END
