4RK8_3RV_A_403
     RDKit          3D

 41 44  0  0  0  0  0  0  0  0999 V2000
  -33.7910   20.9770   24.8360 C   0  0  0  0  0  0  0  0  0  0  0  0
  -32.6140   21.0360   25.5810 C   0  0  0  0  0  0  0  0  0  0  0  0
  -31.4160   21.4150   24.9720 C   0  0  0  0  0  0  0  0  0  0  0  0
  -31.4510   21.7690   23.6140 C   0  0  0  0  0  0  0  0  0  0  0  0
  -32.6040   21.6330   22.9050 C   0  0  0  0  0  0  0  0  0  0  0  0
  -33.7790   21.2780   23.5120 C   0  0  0  0  0  0  0  0  0  0  0  0
  -32.6980   21.9810   21.4630 C   0  0  0  0  0  0  0  0  0  0  0  0
  -31.7810   22.3100   20.7680 O   0  0  0  0  0  0  0  0  0  0  0  0
  -34.9720   20.6170   25.3380 F   0  0  0  0  0  0  0  0  0  0  0  0
  -30.3240   22.0440   22.8680 N   0  0  0  0  0  0  0  0  0  0  0  0
  -29.0760   22.0820   23.3620 C   0  0  0  0  0  0  0  0  0  0  0  0
  -28.7760   22.0120   24.6820 N   0  0  0  0  0  0  0  0  0  0  0  0
  -27.4300   22.1410   24.8000 C   0  0  0  0  0  0  0  0  0  0  0  0
  -26.6450   22.2690   23.5570 C   0  0  0  0  0  0  0  0  0  0  0  0
  -27.7720   22.2080   22.2450 S   0  0  0  0  0  0  0  0  0  0  0  0
  -26.8070   22.1240   25.9260 O   0  0  0  0  0  0  0  0  0  0  0  0
  -25.1670   22.3250   23.4850 C   0  0  0  0  0  0  0  0  0  0  0  0
  -24.5320   22.5780   22.1880 C   0  0  0  0  0  0  0  0  0  0  0  0
  -25.0780   22.0150   21.0470 C   0  0  0  0  0  0  0  0  0  0  0  0
  -24.5560   22.3520   19.8090 C   0  0  0  0  0  0  0  0  0  0  0  0
  -23.5190   23.2640   19.7180 C   0  0  0  0  0  0  0  0  0  0  0  0
  -22.9820   23.8490   20.8630 C   0  0  0  0  0  0  0  0  0  0  0  0
  -23.4970   23.5070   22.1030 C   0  0  0  0  0  0  0  0  0  0  0  0
  -33.8850   21.9950   20.9310 O   0  0  0  0  0  0  0  0  0  0  0  0
  -22.9620   24.0790   23.2600 C   0  0  0  0  0  0  0  0  0  0  0  0
  -21.9060   24.9980   23.1580 C   0  0  0  0  0  0  0  0  0  0  0  0
  -21.3890   25.3300   21.9010 C   0  0  0  0  0  0  0  0  0  0  0  0
  -21.9320   24.7530   20.7580 C   0  0  0  0  0  0  0  0  0  0  0  0
  -32.6292   20.7833   26.6515 H   0  0  0  0  0  0  0  0  0  0  0  0
  -30.4736   21.4356   25.5390 H   0  0  0  0  0  0  0  0  0  0  0  0
  -34.7106   21.2368   22.9286 H   0  0  0  0  0  0  0  0  0  0  0  0
  -30.4482   22.2332   21.8632 H   0  0  0  0  0  0  0  0  0  0  0  0
  -24.5565   22.1794   24.3884 H   0  0  0  0  0  0  0  0  0  0  0  0
  -25.9171   21.3078   21.1228 H   0  0  0  0  0  0  0  0  0  0  0  0
  -24.9663   21.8941   18.8969 H   0  0  0  0  0  0  0  0  0  0  0  0
  -23.1141   23.5301   18.7305 H   0  0  0  0  0  0  0  0  0  0  0  0
  -34.6873   22.0045   21.5110 H   0  0  0  0  0  0  0  0  0  0  0  0
  -23.3667   23.8102   24.2469 H   0  0  0  0  0  0  0  0  0  0  0  0
  -21.4854   25.4566   24.0651 H   0  0  0  0  0  0  0  0  0  0  0  0
  -20.5567   26.0443   21.8171 H   0  0  0  0  0  0  0  0  0  0  0  0
  -21.5291   25.0130   19.7680 H   0  0  0  0  0  0  0  0  0  0  0  0
 21 20  1  0
 21 22  2  0
 20 19  2  0
 28 22  1  0
 28 27  2  0
  8  7  2  0
 22 23  1  0
 24  7  1  0
 19 18  1  0
  7  5  1  0
 27 26  1  0
 23 18  2  0
 23 25  1  0
 18 17  1  0
 15 11  1  0
 15 14  1  0
 10 11  1  0
 10  4  1  0
  5  6  1  0
  5  4  2  0
 26 25  2  0
 11 12  2  0
 17 14  2  0
  6  1  2  0
 14 13  1  0
  4  3  1  0
 12 13  1  0
 13 16  2  0
  1  9  1  0
  1  2  1  0
  3  2  2  0
  2 29  1  0
  3 30  1  0
  6 31  1  0
 10 32  1  0
 17 33  1  0
 19 34  1  0
 20 35  1  0
 21 36  1  0
 24 37  1  0
 25 38  1  0
 26 39  1  0
 27 40  1  0
 28 41  1  0
A    1
C1
A    2
C2
A    3
C3
A    4
C4
A    5
C5
A    6
C6
A    7
C7
A    8
O8
A    9
F10
A   10
N11
A   11
C13
A   12
N14
A   13
C15
A   14
C16
A   15
S17
A   16
O18
A   17
C19
A   18
C21
A   19
C22
A   20
C23
A   21
C24
A   22
C25
A   23
C26
A   24
O1
A   25
C36
A   26
C37
A   27
C38
A   28
C39
M  END
