4RL2_3S3_A_303
     RDKit          3D

 45 46  0  0  0  0  0  0  0  0999 V2000
  -20.7000   15.9030  -23.0090 O   0  0  0  0  0  0  0  0  0  0  0  0
  -21.1050   16.4250  -24.0470 C   0  0  0  0  0  0  0  0  0  0  0  0
  -22.5430   16.2240  -24.5840 C   0  0  0  0  0  0  0  0  0  0  0  0
  -22.6180   15.2710  -25.6270 C   0  0  0  0  0  0  0  0  0  0  0  0
  -23.7930   15.2150  -26.3860 C   0  0  0  0  0  0  0  0  0  0  0  0
  -23.9380   14.3110  -27.4300 C   0  0  0  0  0  0  0  0  0  0  0  0
  -22.8960   13.4370  -27.7290 C   0  0  0  0  0  0  0  0  0  0  0  0
  -21.7240   13.4870  -26.9870 C   0  0  0  0  0  0  0  0  0  0  0  0
  -21.5780   14.4020  -25.9360 C   0  0  0  0  0  0  0  0  0  0  0  0
  -23.4320   15.8110  -23.4980 N   0  0  0  0  0  0  0  0  0  0  0  0
  -20.3660   17.2060  -24.8300 N   0  0  0  0  0  0  0  0  0  0  0  0
  -18.9750   17.5770  -24.5930 C   0  0  0  0  0  0  0  0  0  0  0  0
  -18.8170   19.0240  -25.0930 C   0  0  0  0  0  0  0  0  0  0  0  0
  -19.8080   19.5980  -25.6090 O   0  0  0  0  0  0  0  0  0  0  0  0
  -17.7070   19.5310  -24.9390 O   0  0  0  0  0  0  0  0  0  0  0  0
  -18.0500   16.6250  -25.3680 C   0  0  0  0  0  0  0  0  0  0  0  0
  -16.7310   17.2210  -25.6770 N   0  0  0  0  0  0  0  0  0  0  0  0
  -18.7470   16.1380  -26.9620 S   0  0  0  0  0  0  0  0  0  0  0  0
  -17.4120   15.1030  -27.4620 C   0  0  0  0  0  0  0  0  0  0  0  0
  -16.4150   16.1280  -27.8830 C   0  0  0  0  0  0  0  0  0  0  0  0
  -16.9760   16.9090  -29.0920 C   0  0  0  0  0  0  0  0  0  0  0  0
  -16.0190   16.9700  -26.8040 C   0  0  0  0  0  0  0  0  0  0  0  0
  -14.7360   17.5110  -26.8810 C   0  0  0  0  0  0  0  0  0  0  0  0
  -13.9360   17.2450  -25.9630 O   0  0  0  0  0  0  0  0  0  0  0  0
  -14.3820   18.2180  -27.8620 O   0  0  0  0  0  0  0  0  0  0  0  0
  -22.8578   17.1936  -24.9972 H   0  0  0  0  0  0  0  0  0  0  0  0
  -24.6192   15.9019  -26.1503 H   0  0  0  0  0  0  0  0  0  0  0  0
  -24.8685   14.2855  -28.0161 H   0  0  0  0  0  0  0  0  0  0  0  0
  -23.0011   12.7110  -28.5487 H   0  0  0  0  0  0  0  0  0  0  0  0
  -20.8995   12.7996  -27.2271 H   0  0  0  0  0  0  0  0  0  0  0  0
  -20.6431   14.4326  -25.3571 H   0  0  0  0  0  0  0  0  0  0  0  0
  -22.9869   16.0178  -22.5925 H   0  0  0  0  0  0  0  0  0  0  0  0
  -24.3218   16.3249  -23.5685 H   0  0  0  0  0  0  0  0  0  0  0  0
  -23.6132   14.7995  -23.5685 H   0  0  0  0  0  0  0  0  0  0  0  0
  -20.8149   17.5816  -25.6775 H   0  0  0  0  0  0  0  0  0  0  0  0
  -18.7077   17.5056  -23.5284 H   0  0  0  0  0  0  0  0  0  0  0  0
  -17.3579   19.6904  -24.0264 H   0  0  0  0  0  0  0  0  0  0  0  0
  -17.9394   15.7620  -24.6949 H   0  0  0  0  0  0  0  0  0  0  0  0
  -17.6977   14.4473  -28.2978 H   0  0  0  0  0  0  0  0  0  0  0  0
  -17.0556   14.4088  -26.6867 H   0  0  0  0  0  0  0  0  0  0  0  0
  -15.4887   15.6257  -28.1988 H   0  0  0  0  0  0  0  0  0  0  0  0
  -17.5827   17.7536  -28.7334 H   0  0  0  0  0  0  0  0  0  0  0  0
  -16.1429   17.2887  -29.7018 H   0  0  0  0  0  0  0  0  0  0  0  0
  -17.6019   16.2408  -29.7018 H   0  0  0  0  0  0  0  0  0  0  0  0
  -14.2175   17.3386  -25.0185 H   0  0  0  0  0  0  0  0  0  0  0  0
 21 20  1  0
 20 19  1  0
 20 22  1  0
 25 23  2  0
  7  6  1  0
  7  8  2  0
 19 18  1  0
  6  5  2  0
  8  9  1  0
 18 16  1  0
 23 22  1  0
 23 24  1  0
 22 17  2  0
  5  4  1  0
  9  4  2  0
 17 16  1  0
  4  3  1  0
 14 13  2  0
 16 12  1  0
 13 15  1  0
 13 12  1  0
 11 12  1  0
 11  2  1  0
  3  2  1  0
  3 10  1  0
  2  1  2  0
  3 26  1  0
  5 27  1  0
  6 28  1  0
  7 29  1  0
  8 30  1  0
  9 31  1  0
 10 32  1  0
 10 33  1  0
 10 34  1  0
 11 35  1  0
 12 36  1  0
 15 37  1  0
 16 38  1  0
 19 39  1  0
 19 40  1  0
 20 41  1  0
 21 42  1  0
 21 43  1  0
 21 44  1  0
 24 45  1  0
M  CHG  1  10   1
A    1
OAK
A    2
CAI
A    3
CAG
A    4
CAF
A    5
CAA
A    6
CAB
A    7
CAC
A    8
CAD
A    9
CAE
A   10
NAH
A   11
N
A   12
CA
A   13
C
A   14
OXT
A   15
O
A   16
CB
A   17
NAQ
A   18
SAU
A   19
CAT
A   20
CAS
A   21
CAY
A   22
CAR
A   23
CAV
A   24
OAW
A   25
OAX
M  END
