4RLI_3SH_A_403
     RDKit          3D

 42 44  0  0  0  0  0  0  0  0999 V2000
   31.9080   10.7240    0.6110 C   0  0  0  0  0  0  0  0  0  0  0  0
   32.2350    9.8290   -0.3790 C   0  0  0  0  0  0  0  0  0  0  0  0
   32.1820    8.4820   -0.0520 C   0  0  0  0  0  0  0  0  0  0  0  0
   31.8070    8.0240    1.2130 C   0  0  0  0  0  0  0  0  0  0  0  0
   31.4710    8.9220    2.1910 C   0  0  0  0  0  0  0  0  0  0  0  0
   31.5150   10.2170    1.8280 C   0  0  0  0  0  0  0  0  0  0  0  0
   31.7380    6.5590    1.5390 C   0  0  0  0  0  0  0  0  0  0  0  0
   31.9760   12.0650    0.4450 N   0  0  0  0  0  0  0  0  0  0  0  0
   32.5670   12.8880    1.3830 C   0  0  0  0  0  0  0  0  0  0  0  0
   32.4290   12.6840    3.0770 S   0  0  0  0  0  0  0  0  0  0  0  0
   33.3640   14.0170    3.5230 C   0  0  0  0  0  0  0  0  0  0  0  0
   33.8500   14.6530    2.2600 C   0  0  0  0  0  0  0  0  0  0  0  0
   33.3500   13.9790    1.1510 N   0  0  0  0  0  0  0  0  0  0  0  0
   34.6700   15.8810    2.1270 C   0  0  0  0  0  0  0  0  0  0  0  0
   35.0280   16.3550    0.8670 C   0  0  0  0  0  0  0  0  0  0  0  0
   35.7610   17.5110    0.7010 C   0  0  0  0  0  0  0  0  0  0  0  0
   36.1310   18.2250    1.8170 C   0  0  0  0  0  0  0  0  0  0  0  0
   35.7390   17.7650    3.0610 C   0  0  0  0  0  0  0  0  0  0  0  0
   35.0180   16.6060    3.2310 C   0  0  0  0  0  0  0  0  0  0  0  0
   33.4130   14.1780    5.0160 C   0  0  0  0  0  0  0  0  0  0  0  0
   33.6510   15.1890    5.6560 O   0  0  0  0  0  0  0  0  0  0  0  0
   33.0310   13.0450    5.8120 O   0  0  0  0  0  0  0  0  0  0  0  0
   31.6570   12.7800    6.0750 C   0  0  0  0  0  0  0  0  0  0  0  0
   31.2590   13.3450    7.4190 C   0  0  0  0  0  0  0  0  0  0  0  0
   30.9280    8.5120    3.8720 Cl  0  0  0  0  0  0  0  0  0  0  0  0
   32.5256   10.1654   -1.3852 H   0  0  0  0  0  0  0  0  0  0  0  0
   32.4467    7.7426   -0.8222 H   0  0  0  0  0  0  0  0  0  0  0  0
   31.2029   10.9498    2.5867 H   0  0  0  0  0  0  0  0  0  0  0  0
   31.7317    6.4263    2.6309 H   0  0  0  0  0  0  0  0  0  0  0  0
   30.8187    6.1313    1.1124 H   0  0  0  0  0  0  0  0  0  0  0  0
   32.6130    6.0468    1.1124 H   0  0  0  0  0  0  0  0  0  0  0  0
   31.5751   12.4843   -0.4061 H   0  0  0  0  0  0  0  0  0  0  0  0
   34.7162   15.7894   -0.0234 H   0  0  0  0  0  0  0  0  0  0  0  0
   36.0444   17.8556   -0.3044 H   0  0  0  0  0  0  0  0  0  0  0  0
   36.7274   19.1444    1.7218 H   0  0  0  0  0  0  0  0  0  0  0  0
   36.0151   18.3499    3.9508 H   0  0  0  0  0  0  0  0  0  0  0  0
   34.7272   16.2694    4.2370 H   0  0  0  0  0  0  0  0  0  0  0  0
   31.0417   13.2442    5.2902 H   0  0  0  0  0  0  0  0  0  0  0  0
   31.4992   11.6914    6.0848 H   0  0  0  0  0  0  0  0  0  0  0  0
   31.6936   12.7281    8.2193 H   0  0  0  0  0  0  0  0  0  0  0  0
   31.6311   14.3763    7.5080 H   0  0  0  0  0  0  0  0  0  0  0  0
   30.1626   13.3419    7.5080 H   0  0  0  0  0  0  0  0  0  0  0  0
  2  3  2  0
  2  1  1  0
  3  4  1  0
 16 15  2  0
 16 17  1  0
  8  1  1  0
  8  9  1  0
  1  6  2  0
 15 14  1  0
  4  7  1  0
  4  5  2  0
 13  9  2  0
 13 12  1  0
 17 18  2  0
  9 10  1  0
  6  5  1  0
  5 25  1  0
 14 12  1  0
 14 19  2  0
 12 11  2  0
 18 19  1  0
 10 11  1  0
 11 20  1  0
 20 22  1  0
 20 21  2  0
 22 23  1  0
 23 24  1  0
  2 26  1  0
  3 27  1  0
  6 28  1  0
  7 29  1  0
  7 30  1  0
  7 31  1  0
  8 32  1  0
 15 33  1  0
 16 34  1  0
 17 35  1  0
 18 36  1  0
 19 37  1  0
 23 38  1  0
 23 39  1  0
 24 40  1  0
 24 41  1  0
 24 42  1  0
A    1
C1
A    2
C2
A    3
C3
A    4
C4
A    5
C5
A    6
C6
A    7
C7
A    8
N9
A    9
C10
A   10
S11
A   11
C12
A   12
C13
A   13
N14
A   14
C15
A   15
C16
A   16
C17
A   17
C18
A   18
C19
A   19
C20
A   20
C21
A   21
O22
A   22
O23
A   23
C24
A   24
C25
A   25
CL8
M  END
