4RMC_3SV_A_500
     RDKit          3D

 65 65  0  0  0  0  0  0  0  0999 V2000
   64.4520   49.1200   35.6580 C   0  0  0  0  0  0  0  0  0  0  0  0
   63.5500   48.5730   34.5500 C   0  0  0  0  0  0  0  0  0  0  0  0
   62.2720   47.9690   35.1380 C   0  0  0  0  0  0  0  0  0  0  0  0
   64.2960   47.5270   33.7210 C   0  0  0  0  0  0  0  0  0  0  0  0
   65.0870   48.1860   32.5900 C   0  0  0  0  0  0  0  0  0  0  0  0
   65.5910   47.1490   31.5810 C   0  0  0  0  0  0  0  0  0  0  0  0
   66.6870   46.3320   31.8560 C   0  0  0  0  0  0  0  0  0  0  0  0
   67.5470   46.5290   33.1080 C   0  0  0  0  0  0  0  0  0  0  0  0
   67.0600   45.6330   34.2500 C   0  0  0  0  0  0  0  0  0  0  0  0
   67.1420   45.1670   30.9690 C   0  0  0  0  0  0  0  0  0  0  0  0
   66.6780   45.3100   29.5170 C   0  0  0  0  0  0  0  0  0  0  0  0
   65.2150   45.7530   29.4550 C   0  0  0  0  0  0  0  0  0  0  0  0
   64.9850   46.9820   30.3380 C   0  0  0  0  0  0  0  0  0  0  0  0
   64.1370   47.9790   29.8630 C   0  0  0  0  0  0  0  0  0  0  0  0
   63.3540   47.8050   28.7250 C   0  0  0  0  0  0  0  0  0  0  0  0
   63.7070   48.5690   27.4470 C   0  0  0  0  0  0  0  0  0  0  0  0
   62.2640   46.9400   28.7450 C   0  0  0  0  0  0  0  0  0  0  0  0
   61.0310   47.3360   29.2540 C   0  0  0  0  0  0  0  0  0  0  0  0
   59.8820   46.6670   28.8450 C   0  0  0  0  0  0  0  0  0  0  0  0
   58.8950   46.2610   29.7380 C   0  0  0  0  0  0  0  0  0  0  0  0
   59.2550   45.8310   31.1630 C   0  0  0  0  0  0  0  0  0  0  0  0
   57.5780   46.2050   29.2940 C   0  0  0  0  0  0  0  0  0  0  0  0
   56.4940   46.3970   30.1430 C   0  0  0  0  0  0  0  0  0  0  0  0
   56.2460   45.5070   30.9880 O   0  0  0  0  0  0  0  0  0  0  0  0
   55.8210   47.4430   30.0050 O   0  0  0  0  0  0  0  0  0  0  0  0
   64.0259   48.8616   36.6387 H   0  0  0  0  0  0  0  0  0  0  0  0
   65.4550   48.6779   35.5660 H   0  0  0  0  0  0  0  0  0  0  0  0
   64.5236   50.2138   35.5660 H   0  0  0  0  0  0  0  0  0  0  0  0
   63.2685   49.4094   33.8933 H   0  0  0  0  0  0  0  0  0  0  0  0
   62.3260   47.9945   36.2364 H   0  0  0  0  0  0  0  0  0  0  0  0
   61.4021   48.5513   34.8001 H   0  0  0  0  0  0  0  0  0  0  0  0
   62.1696   46.9272   34.8001 H   0  0  0  0  0  0  0  0  0  0  0  0
   63.5681   46.8245   33.2890 H   0  0  0  0  0  0  0  0  0  0  0  0
   65.0005   46.9964   34.3783 H   0  0  0  0  0  0  0  0  0  0  0  0
   65.9499   48.7166   33.0189 H   0  0  0  0  0  0  0  0  0  0  0  0
   64.4205   48.8851   32.0636 H   0  0  0  0  0  0  0  0  0  0  0  0
   68.5911   46.2760   32.8716 H   0  0  0  0  0  0  0  0  0  0  0  0
   67.4696   47.5790   33.4267 H   0  0  0  0  0  0  0  0  0  0  0  0
   67.3128   46.0981   35.2143 H   0  0  0  0  0  0  0  0  0  0  0  0
   65.9696   45.5075   34.1781 H   0  0  0  0  0  0  0  0  0  0  0  0
   67.5478   44.6497   34.1781 H   0  0  0  0  0  0  0  0  0  0  0  0
   66.7315   44.2323   31.3786 H   0  0  0  0  0  0  0  0  0  0  0  0
   68.2420   45.1631   30.9662 H   0  0  0  0  0  0  0  0  0  0  0  0
   66.7831   44.3407   29.0077 H   0  0  0  0  0  0  0  0  0  0  0  0
   67.2982   46.0719   29.0222 H   0  0  0  0  0  0  0  0  0  0  0  0
   64.9566   46.0018   28.4151 H   0  0  0  0  0  0  0  0  0  0  0  0
   64.5806   44.9315   29.8193 H   0  0  0  0  0  0  0  0  0  0  0  0
   64.0840   48.9351   30.4044 H   0  0  0  0  0  0  0  0  0  0  0  0
   62.7024   48.6333   29.0402 H   0  0  0  0  0  0  0  0  0  0  0  0
   64.1549   49.5383   27.7112 H   0  0  0  0  0  0  0  0  0  0  0  0
   64.4253   47.9822   26.8556 H   0  0  0  0  0  0  0  0  0  0  0  0
   62.7946   48.7356   26.8556 H   0  0  0  0  0  0  0  0  0  0  0  0
   62.0871   46.6395   27.7017 H   0  0  0  0  0  0  0  0  0  0  0  0
   62.5831   46.1742   29.4673 H   0  0  0  0  0  0  0  0  0  0  0  0
   61.0882   47.2374   30.3481 H   0  0  0  0  0  0  0  0  0  0  0  0
   60.8977   48.3528   28.8559 H   0  0  0  0  0  0  0  0  0  0  0  0
   59.3849   47.3287   28.1205 H   0  0  0  0  0  0  0  0  0  0  0  0
   60.2906   45.7032   28.5073 H   0  0  0  0  0  0  0  0  0  0  0  0
   58.7460   47.3058   30.0483 H   0  0  0  0  0  0  0  0  0  0  0  0
   58.7217   46.4680   31.8840 H   0  0  0  0  0  0  0  0  0  0  0  0
   58.9623   44.7815   31.3143 H   0  0  0  0  0  0  0  0  0  0  0  0
   60.3396   45.9346   31.3143 H   0  0  0  0  0  0  0  0  0  0  0  0
   57.4884   46.9683   28.5070 H   0  0  0  0  0  0  0  0  0  0  0  0
   57.4736   45.1416   29.0326 H   0  0  0  0  0  0  0  0  0  0  0  0
   56.3033   45.7125   31.9547 H   0  0  0  0  0  0  0  0  0  0  0  0
 16 15  1  0
 15 17  1  0
 15 14  1  0
 17 18  1  0
 19 18  1  0
 19 20  1  0
 22 20  1  0
 22 23  1  0
 12 11  1  0
 12 13  1  0
 11 10  1  0
 20 21  1  0
 14 13  2  0
 25 23  2  0
 23 24  1  0
 13  6  1  0
 10  7  1  0
  6  7  2  0
  6  5  1  0
  7  8  1  0
  5  4  1  0
  8  9  1  0
  4  2  1  0
  2  3  1  0
  2  1  1  0
  1 26  1  0
  1 27  1  0
  1 28  1  0
  2 29  1  0
  3 30  1  0
  3 31  1  0
  3 32  1  0
  4 33  1  0
  4 34  1  0
  5 35  1  0
  5 36  1  0
  8 37  1  0
  8 38  1  0
  9 39  1  0
  9 40  1  0
  9 41  1  0
 10 42  1  0
 10 43  1  0
 11 44  1  0
 11 45  1  0
 12 46  1  0
 12 47  1  0
 14 48  1  0
 15 49  1  0
 16 50  1  0
 16 51  1  0
 16 52  1  0
 17 53  1  0
 17 54  1  0
 18 55  1  0
 18 56  1  0
 19 57  1  0
 19 58  1  0
 20 59  1  0
 21 60  1  0
 21 61  1  0
 21 62  1  0
 22 63  1  0
 22 64  1  0
 24 65  1  0
A    1
C5'
A    2
C3'
A    3
C4'
A    4
C2'
A    5
C1'
A    6
C1
A    7
C2
A    8
C6'
A    9
C7'
A   10
C3
A   11
C4
A   12
C5
A   13
C6
A   14
C7
A   15
C8
A   16
C19
A   17
C9
A   18
C10
A   19
C11
A   20
C12
A   21
C20
A   22
C13
A   23
C14
A   24
O1
A   25
O2
M  END
