4RMD_3SW_A_500
     RDKit          3D

 60 61  0  0  0  0  0  0  0  0999 V2000
   65.9260   46.2970   29.4050 C   0  0  0  0  0  0  0  0  0  0  0  0
   61.3970   47.3770   29.1780 C   0  0  0  0  0  0  0  0  0  0  0  0
   60.1890   46.9100   28.6750 C   0  0  0  0  0  0  0  0  0  0  0  0
   62.4420   47.8460   28.2610 C   0  0  0  0  0  0  0  0  0  0  0  0
   56.6890   45.4680   30.8060 O   0  0  0  0  0  0  0  0  0  0  0  0
   56.6250   46.4420   30.0230 C   0  0  0  0  0  0  0  0  0  0  0  0
   59.4300   45.5870   30.7860 C   0  0  0  0  0  0  0  0  0  0  0  0
   64.7410   48.6710   27.6550 C   0  0  0  0  0  0  0  0  0  0  0  0
   59.1140   46.4490   29.5610 C   0  0  0  0  0  0  0  0  0  0  0  0
   57.8080   46.8120   29.2410 C   0  0  0  0  0  0  0  0  0  0  0  0
   67.0850   45.4860   29.9910 C   0  0  0  0  0  0  0  0  0  0  0  0
   66.7600   46.5670   32.2170 C   0  0  0  0  0  0  0  0  0  0  0  0
   65.4630   46.9740   31.9110 C   0  0  0  0  0  0  0  0  0  0  0  0
   65.1560   47.0760   30.4780 C   0  0  0  0  0  0  0  0  0  0  0  0
   64.1430   47.9420   30.0770 C   0  0  0  0  0  0  0  0  0  0  0  0
   63.7410   48.1220   28.6760 C   0  0  0  0  0  0  0  0  0  0  0  0
   67.7850   46.2310   31.1310 C   0  0  0  0  0  0  0  0  0  0  0  0
   55.6040   47.1450   29.8630 O   0  0  0  0  0  0  0  0  0  0  0  0
   64.9360   48.7720   35.8450 C   0  0  0  0  0  0  0  0  0  0  0  0
   63.8370   48.9800   34.8010 C   0  0  0  0  0  0  0  0  0  0  0  0
   62.6120   48.1110   35.1000 C   0  0  0  0  0  0  0  0  0  0  0  0
   64.3780   48.7620   33.3840 C   0  0  0  0  0  0  0  0  0  0  0  0
   64.4280   47.2820   32.9980 C   0  0  0  0  0  0  0  0  0  0  0  0
   67.1910   46.5020   33.6850 C   0  0  0  0  0  0  0  0  0  0  0  0
   68.5430   45.8410   33.9670 C   0  0  0  0  0  0  0  0  0  0  0  0
   67.2440   45.1070   34.3110 C   0  0  0  0  0  0  0  0  0  0  0  0
   66.3296   47.0107   28.6717 H   0  0  0  0  0  0  0  0  0  0  0  0
   65.2255   45.5902   28.9363 H   0  0  0  0  0  0  0  0  0  0  0  0
   61.5700   47.3951   30.2642 H   0  0  0  0  0  0  0  0  0  0  0  0
   60.0347   46.8853   27.5862 H   0  0  0  0  0  0  0  0  0  0  0  0
   62.1875   47.9854   27.2000 H   0  0  0  0  0  0  0  0  0  0  0  0
   56.6791   45.6180   31.7845 H   0  0  0  0  0  0  0  0  0  0  0  0
   59.2200   46.1597   31.7014 H   0  0  0  0  0  0  0  0  0  0  0  0
   58.8052   44.6818   30.7684 H   0  0  0  0  0  0  0  0  0  0  0  0
   60.4918   45.3001   30.7684 H   0  0  0  0  0  0  0  0  0  0  0  0
   65.5868   49.1353   28.1833 H   0  0  0  0  0  0  0  0  0  0  0  0
   65.1096   47.8488   27.0241 H   0  0  0  0  0  0  0  0  0  0  0  0
   64.2451   49.4234   27.0241 H   0  0  0  0  0  0  0  0  0  0  0  0
   57.6535   47.4196   28.3371 H   0  0  0  0  0  0  0  0  0  0  0  0
   66.6930   44.5333   30.3767 H   0  0  0  0  0  0  0  0  0  0  0  0
   67.8214   45.3175   29.1914 H   0  0  0  0  0  0  0  0  0  0  0  0
   63.6162   48.5216   30.8494 H   0  0  0  0  0  0  0  0  0  0  0  0
   68.5756   45.5948   31.5555 H   0  0  0  0  0  0  0  0  0  0  0  0
   68.2329   47.1589   30.7459 H   0  0  0  0  0  0  0  0  0  0  0  0
   64.5041   48.8537   36.8533 H   0  0  0  0  0  0  0  0  0  0  0  0
   65.3800   47.7739   35.7161 H   0  0  0  0  0  0  0  0  0  0  0  0
   65.7140   49.5388   35.7161 H   0  0  0  0  0  0  0  0  0  0  0  0
   63.5013   50.0259   34.8593 H   0  0  0  0  0  0  0  0  0  0  0  0
   62.4839   48.0201   36.1887 H   0  0  0  0  0  0  0  0  0  0  0  0
   61.7165   48.5769   34.6630 H   0  0  0  0  0  0  0  0  0  0  0  0
   62.7558   47.1118   34.6630 H   0  0  0  0  0  0  0  0  0  0  0  0
   65.3955   49.1761   33.3271 H   0  0  0  0  0  0  0  0  0  0  0  0
   63.6963   49.2675   32.6841 H   0  0  0  0  0  0  0  0  0  0  0  0
   63.4354   46.9835   32.6297 H   0  0  0  0  0  0  0  0  0  0  0  0
   64.7225   46.7205   33.8969 H   0  0  0  0  0  0  0  0  0  0  0  0
   66.7225   47.4602   33.9540 H   0  0  0  0  0  0  0  0  0  0  0  0
   69.1686   45.4905   33.1329 H   0  0  0  0  0  0  0  0  0  0  0  0
   69.4471   46.1258   34.5252 H   0  0  0  0  0  0  0  0  0  0  0  0
   66.9546   44.9648   35.3627 H   0  0  0  0  0  0  0  0  0  0  0  0
   66.8156   44.1253   34.0603 H   0  0  0  0  0  0  0  0  0  0  0  0
  8 16  1  0
  4 16  2  0
  4  2  1  0
  3  2  2  0
  3  9  1  0
 16 15  1  0
 10  9  2  0
 10  6  1  0
  1 11  1  0
  1 14  1  0
  9  7  1  0
 18  6  2  0
 11 17  1  0
  6  5  1  0
 15 14  2  0
 14 13  1  0
 17 12  1  0
 13 12  2  0
 13 23  1  0
 12 24  1  0
 23 22  1  0
 22 20  1  0
 24 25  1  0
 24 26  1  0
 25 26  1  0
 20 21  1  0
 20 19  1  0
  1 27  1  0
  1 28  1  0
  2 29  1  0
  3 30  1  0
  4 31  1  0
  5 32  1  0
  7 33  1  0
  7 34  1  0
  7 35  1  0
  8 36  1  0
  8 37  1  0
  8 38  1  0
 10 39  1  0
 11 40  1  0
 11 41  1  0
 15 42  1  0
 17 43  1  0
 17 44  1  0
 19 45  1  0
 19 46  1  0
 19 47  1  0
 20 48  1  0
 21 49  1  0
 21 50  1  0
 21 51  1  0
 22 52  1  0
 22 53  1  0
 23 54  1  0
 23 55  1  0
 24 56  1  0
 25 57  1  0
 25 58  1  0
 26 59  1  0
 26 60  1  0
A    1
C1
A    2
C10
A    3
C11
A    4
C9
A    5
O2
A    6
C14
A    7
C20
A    8
C19
A    9
C12
A   10
C13
A   11
C2
A   12
C4
A   13
C5
A   14
C6
A   15
C7
A   16
C8
A   17
C3
A   18
O1
A   19
C4'
A   20
C3'
A   21
C5'
A   22
C2'
A   23
C1'
A   24
C6'
A   25
C7'
A   26
C8'
M  END
