4RME_3T2_A_500
     RDKit          3D

 62 62  0  0  0  0  0  0  0  0999 V2000
   57.7800   46.8330   29.2310 C   0  0  0  0  0  0  0  0  0  0  0  0
   60.1440   46.9440   28.6330 C   0  0  0  0  0  0  0  0  0  0  0  0
   62.3270   47.9360   28.1150 C   0  0  0  0  0  0  0  0  0  0  0  0
   63.6370   48.2870   28.4240 C   0  0  0  0  0  0  0  0  0  0  0  0
   59.4320   45.6340   30.7700 C   0  0  0  0  0  0  0  0  0  0  0  0
   56.6600   45.4450   30.7500 O   0  0  0  0  0  0  0  0  0  0  0  0
   55.6180   47.2280   29.9620 O   0  0  0  0  0  0  0  0  0  0  0  0
   65.5160   47.1580   31.5610 C   0  0  0  0  0  0  0  0  0  0  0  0
   66.4700   46.1820   31.8440 C   0  0  0  0  0  0  0  0  0  0  0  0
   66.9310   45.0990   30.8610 C   0  0  0  0  0  0  0  0  0  0  0  0
   66.6800   45.4660   29.3960 C   0  0  0  0  0  0  0  0  0  0  0  0
   65.2750   46.0370   29.1900 C   0  0  0  0  0  0  0  0  0  0  0  0
   64.9870   47.1590   30.1910 C   0  0  0  0  0  0  0  0  0  0  0  0
   64.1800   48.2170   29.7850 C   0  0  0  0  0  0  0  0  0  0  0  0
   61.3420   47.4750   29.0990 C   0  0  0  0  0  0  0  0  0  0  0  0
   59.0900   46.4800   29.5410 C   0  0  0  0  0  0  0  0  0  0  0  0
   56.6080   46.4680   30.0330 C   0  0  0  0  0  0  0  0  0  0  0  0
   64.6710   48.8300   35.6090 C   0  0  0  0  0  0  0  0  0  0  0  0
   63.5680   48.6900   34.5580 C   0  0  0  0  0  0  0  0  0  0  0  0
   62.2490   48.2770   35.2150 C   0  0  0  0  0  0  0  0  0  0  0  0
   63.9620   47.6750   33.4830 C   0  0  0  0  0  0  0  0  0  0  0  0
   65.0790   48.2110   32.5840 C   0  0  0  0  0  0  0  0  0  0  0  0
   67.1340   46.2000   33.2260 C   0  0  0  0  0  0  0  0  0  0  0  0
   66.9580   44.8500   33.9260 C   0  0  0  0  0  0  0  0  0  0  0  0
   68.6170   46.5550   33.1030 C   0  0  0  0  0  0  0  0  0  0  0  0
   64.5280   48.8410   27.3110 C   0  0  0  0  0  0  0  0  0  0  0  0
   57.6121   47.4273   28.3207 H   0  0  0  0  0  0  0  0  0  0  0  0
   59.9817   46.8696   27.5476 H   0  0  0  0  0  0  0  0  0  0  0  0
   62.0092   48.0089   27.0644 H   0  0  0  0  0  0  0  0  0  0  0  0
   59.2018   46.2033   31.6826 H   0  0  0  0  0  0  0  0  0  0  0  0
   58.8373   44.7087   30.7553 H   0  0  0  0  0  0  0  0  0  0  0  0
   60.5026   45.3820   30.7553 H   0  0  0  0  0  0  0  0  0  0  0  0
   56.6556   45.5310   31.7362 H   0  0  0  0  0  0  0  0  0  0  0  0
   66.3884   44.1690   31.0861 H   0  0  0  0  0  0  0  0  0  0  0  0
   68.0178   44.9850   30.9872 H   0  0  0  0  0  0  0  0  0  0  0  0
   66.7924   44.5632   28.7777 H   0  0  0  0  0  0  0  0  0  0  0  0
   67.4099   46.2357   29.1046 H   0  0  0  0  0  0  0  0  0  0  0  0
   65.1954   46.4371   28.1684 H   0  0  0  0  0  0  0  0  0  0  0  0
   64.5427   45.2312   29.3462 H   0  0  0  0  0  0  0  0  0  0  0  0
   63.9439   49.0187   30.5002 H   0  0  0  0  0  0  0  0  0  0  0  0
   61.5455   47.5473   30.1776 H   0  0  0  0  0  0  0  0  0  0  0  0
   64.2286   48.7738   36.6145 H   0  0  0  0  0  0  0  0  0  0  0  0
   65.4018   48.0174   35.4840 H   0  0  0  0  0  0  0  0  0  0  0  0
   65.1756   49.7994   35.4840 H   0  0  0  0  0  0  0  0  0  0  0  0
   63.4324   49.6697   34.0765 H   0  0  0  0  0  0  0  0  0  0  0  0
   62.3579   48.3111   36.3091 H   0  0  0  0  0  0  0  0  0  0  0  0
   61.4521   48.9686   34.9041 H   0  0  0  0  0  0  0  0  0  0  0  0
   61.9889   47.2544   34.9041 H   0  0  0  0  0  0  0  0  0  0  0  0
   63.0812   47.4515   32.8631 H   0  0  0  0  0  0  0  0  0  0  0  0
   64.3298   46.7678   33.9848 H   0  0  0  0  0  0  0  0  0  0  0  0
   65.9421   48.4855   33.2082 H   0  0  0  0  0  0  0  0  0  0  0  0
   64.6997   49.0894   32.0413 H   0  0  0  0  0  0  0  0  0  0  0  0
   66.6428   46.9713   33.8374 H   0  0  0  0  0  0  0  0  0  0  0  0
   66.9772   44.9969   35.0160 H   0  0  0  0  0  0  0  0  0  0  0  0
   65.9946   44.4076   33.6325 H   0  0  0  0  0  0  0  0  0  0  0  0
   67.7758   44.1754   33.6325 H   0  0  0  0  0  0  0  0  0  0  0  0
   69.0535   46.6595   34.1073 H   0  0  0  0  0  0  0  0  0  0  0  0
   69.1410   45.7569   32.5567 H   0  0  0  0  0  0  0  0  0  0  0  0
   68.7228   47.5038   32.5567 H   0  0  0  0  0  0  0  0  0  0  0  0
   65.3825   49.3723   27.7556 H   0  0  0  0  0  0  0  0  0  0  0  0
   64.8954   48.0118   26.6885 H   0  0  0  0  0  0  0  0  0  0  0  0
   63.9469   49.5373   26.6885 H   0  0  0  0  0  0  0  0  0  0  0  0
 26  4  1  0
  3  4  2  0
  3 15  1  0
  4 14  1  0
  2 15  2  0
  2 16  1  0
 12 11  1  0
 12 13  1  0
  1 16  2  0
  1 17  1  0
 11 10  1  0
 16  5  1  0
 14 13  2  0
  7 17  2  0
 17  6  1  0
 13  8  1  0
 10  9  1  0
  8  9  2  0
  8 22  1  0
  9 23  1  0
 22 21  1  0
 25 23  1  0
 23 24  1  0
 21 19  1  0
 19 20  1  0
 19 18  1  0
  1 27  1  0
  2 28  1  0
  3 29  1  0
  5 30  1  0
  5 31  1  0
  5 32  1  0
  6 33  1  0
 10 34  1  0
 10 35  1  0
 11 36  1  0
 11 37  1  0
 12 38  1  0
 12 39  1  0
 14 40  1  0
 15 41  1  0
 18 42  1  0
 18 43  1  0
 18 44  1  0
 19 45  1  0
 20 46  1  0
 20 47  1  0
 20 48  1  0
 21 49  1  0
 21 50  1  0
 22 51  1  0
 22 52  1  0
 23 53  1  0
 24 54  1  0
 24 55  1  0
 24 56  1  0
 25 57  1  0
 25 58  1  0
 25 59  1  0
 26 60  1  0
 26 61  1  0
 26 62  1  0
A    1
C13
A    2
C11
A    3
C9
A    4
C8
A    5
C20
A    6
O1
A    7
O2
A    8
C1
A    9
C2
A   10
C3
A   11
C4
A   12
C5
A   13
C6
A   14
C7
A   15
C10
A   16
C12
A   17
C14
A   18
C4'
A   19
C3'
A   20
C5'
A   21
C2'
A   22
C1'
A   23
C6'
A   24
C7'
A   25
C8'
A   26
C19
M  END
