4RMG_3TE_A_402
     RDKit          3D

 49 52  0  0  0  0  0  0  0  0999 V2000
  -18.3070  -25.2070   13.6580 C   0  0  0  0  0  0  0  0  0  0  0  0
  -16.7400  -26.0440   14.9130 C   0  0  0  0  0  0  0  0  0  0  0  0
  -16.0760  -24.9360   14.5360 C   0  0  0  0  0  0  0  0  0  0  0  0
  -14.6700  -24.5350   14.9220 C   0  0  0  0  0  0  0  0  0  0  0  0
  -13.6200  -25.6270   14.9670 C   0  0  0  0  0  0  0  0  0  0  0  0
  -13.2260  -26.3210   13.7830 C   0  0  0  0  0  0  0  0  0  0  0  0
  -17.0820  -24.0150   13.4610 S   0  0  0  0  0  0  0  0  0  0  0  0
  -18.0050  -26.2120   14.4260 N   0  0  0  0  0  0  0  0  0  0  0  0
  -13.6810  -25.9650   12.4850 C   0  0  0  0  0  0  0  0  0  0  0  0
  -13.2450  -26.6370   11.3790 C   0  0  0  0  0  0  0  0  0  0  0  0
  -22.3330  -28.2500   10.7700 N   0  0  0  0  0  0  0  0  0  0  0  0
  -12.3550  -27.6900   11.4970 C   0  0  0  0  0  0  0  0  0  0  0  0
  -11.8910  -28.0720   12.7190 C   0  0  0  0  0  0  0  0  0  0  0  0
  -19.3190  -23.1570   12.0070 O   0  0  0  0  0  0  0  0  0  0  0  0
  -19.9510  -24.1840   12.2300 C   0  0  0  0  0  0  0  0  0  0  0  0
  -21.3040  -24.4630   11.6110 C   0  0  0  0  0  0  0  0  0  0  0  0
  -21.5250  -25.7780   10.3920 S   0  0  0  0  0  0  0  0  0  0  0  0
  -21.9200  -27.1560   11.3960 C   0  0  0  0  0  0  0  0  0  0  0  0
  -21.6640  -27.0050   12.6990 N   0  0  0  0  0  0  0  0  0  0  0  0
  -21.8950  -28.0830   13.4600 C   0  0  0  0  0  0  0  0  0  0  0  0
  -21.4670  -27.9890   14.8900 C   0  0  0  0  0  0  0  0  0  0  0  0
  -22.4100  -29.2390   12.9230 C   0  0  0  0  0  0  0  0  0  0  0  0
  -22.6300  -29.2900   11.5590 C   0  0  0  0  0  0  0  0  0  0  0  0
  -23.2630  -30.4740   10.8980 C   0  0  0  0  0  0  0  0  0  0  0  0
  -19.5700  -25.1140   13.1460 N   0  0  0  0  0  0  0  0  0  0  0  0
  -13.0960  -26.0240   16.1750 C   0  0  0  0  0  0  0  0  0  0  0  0
  -12.2250  -27.0930   16.2710 C   0  0  0  0  0  0  0  0  0  0  0  0
  -11.8370  -27.7770   15.1610 C   0  0  0  0  0  0  0  0  0  0  0  0
  -12.3060  -27.4070   13.8890 C   0  0  0  0  0  0  0  0  0  0  0  0
  -16.2827  -26.7843   15.5859 H   0  0  0  0  0  0  0  0  0  0  0  0
  -14.3310  -23.7812   14.1961 H   0  0  0  0  0  0  0  0  0  0  0  0
  -14.7535  -24.1826   15.9607 H   0  0  0  0  0  0  0  0  0  0  0  0
  -14.3948  -25.1361   12.3692 H   0  0  0  0  0  0  0  0  0  0  0  0
  -13.6052  -26.3380   10.3836 H   0  0  0  0  0  0  0  0  0  0  0  0
  -12.0192  -28.2234   10.5955 H   0  0  0  0  0  0  0  0  0  0  0  0
  -11.1831  -28.9106   12.7932 H   0  0  0  0  0  0  0  0  0  0  0  0
  -21.6216  -23.5297   11.1232 H   0  0  0  0  0  0  0  0  0  0  0  0
  -21.8871  -24.8314   12.4679 H   0  0  0  0  0  0  0  0  0  0  0  0
  -22.3306  -28.1787   15.5444 H   0  0  0  0  0  0  0  0  0  0  0  0
  -20.6852  -28.7368   15.0887 H   0  0  0  0  0  0  0  0  0  0  0  0
  -21.0705  -26.9824   15.0887 H   0  0  0  0  0  0  0  0  0  0  0  0
  -22.6415  -30.1029   13.5634 H   0  0  0  0  0  0  0  0  0  0  0  0
  -23.6341  -31.1681   11.6665 H   0  0  0  0  0  0  0  0  0  0  0  0
  -24.1022  -30.1387   10.2708 H   0  0  0  0  0  0  0  0  0  0  0  0
  -22.5181  -30.9856   10.2708 H   0  0  0  0  0  0  0  0  0  0  0  0
  -20.2760  -25.7887   13.4734 H   0  0  0  0  0  0  0  0  0  0  0  0
  -13.3770  -25.4773   17.0873 H   0  0  0  0  0  0  0  0  0  0  0  0
  -11.8410  -27.3942   17.2568 H   0  0  0  0  0  0  0  0  0  0  0  0
  -11.1485  -28.6292   15.2602 H   0  0  0  0  0  0  0  0  0  0  0  0
 17 18  1  0
 17 16  1  0
 11 18  2  0
 11 23  1  0
 24 23  1  0
 10 12  1  0
 10  9  2  0
 18 19  1  0
 12 13  2  0
 23 22  2  0
 16 15  1  0
 14 15  2  0
 15 25  1  0
  9  6  1  0
 19 20  2  0
 13 29  1  0
 22 20  1  0
 25  1  1  0
 20 21  1  0
  7  1  1  0
  7  3  1  0
  1  8  2  0
  6 29  2  0
  6  5  1  0
 29 28  1  0
  8  2  1  0
  3  2  2  0
  3  4  1  0
  4  5  1  0
  5 26  2  0
 28 27  2  0
 26 27  1  0
  2 30  1  0
  4 31  1  0
  4 32  1  0
  9 33  1  0
 10 34  1  0
 12 35  1  0
 13 36  1  0
 16 37  1  0
 16 38  1  0
 21 39  1  0
 21 40  1  0
 21 41  1  0
 22 42  1  0
 24 43  1  0
 24 44  1  0
 24 45  1  0
 25 46  1  0
 26 47  1  0
 27 48  1  0
 28 49  1  0
A    1
C1
A    2
C2
A    3
C3
A    4
C4
A    5
C5
A    6
C6
A    7
S
A    8
N1
A    9
C7
A   10
C8
A   11
N2
A   12
C9
A   13
C10
A   14
O
A   15
C
A   16
C15
A   17
S1
A   18
C16
A   19
N3
A   20
C20
A   21
C21
A   22
C19
A   23
C17
A   24
C18
A   25
N
A   26
C14
A   27
C13
A   28
C12
A   29
C11
M  END
