4HFP_15U_B_402
     RDKit          3D

 71 73  0  0  0  0  0  0  0  0999 V2000
    2.6270   13.7560    0.1060 S   0  0  0  0  0  0  0  0  0  0  0  0
    1.7960   12.5870    0.1880 O   0  0  0  0  0  0  0  0  0  0  0  0
    2.5190   14.4990    1.3360 O   0  0  0  0  0  0  0  0  0  0  0  0
    2.8590   12.5350   -4.2320 C   0  0  0  0  0  0  0  0  0  0  0  0
    3.2060   13.6560   -5.2110 C   0  0  0  0  0  0  0  0  0  0  0  0
    2.1800   14.7790   -5.0950 C   0  0  0  0  0  0  0  0  0  0  0  0
    2.0180   15.1820   -3.6410 C   0  0  0  0  0  0  0  0  0  0  0  0
    1.5040   16.4350   -3.3080 C   0  0  0  0  0  0  0  0  0  0  0  0
    1.3570   16.8100   -1.9700 C   0  0  0  0  0  0  0  0  0  0  0  0
    1.7090   15.9640   -0.9140 C   0  0  0  0  0  0  0  0  0  0  0  0
    2.2270   14.6900   -1.1370 C   0  0  0  0  0  0  0  0  0  0  0  0
    2.4100   14.2440   -2.5480 C   0  0  0  0  0  0  0  0  0  0  0  0
    3.3040   13.1300   -6.6400 C   0  0  0  0  0  0  0  0  0  0  0  0
    2.9100   13.0240   -2.8610 N   0  0  0  0  0  0  0  0  0  0  0  0
    4.1460   13.2890   -0.0920 N   0  0  0  0  0  0  0  0  0  0  0  0
    5.2210   14.2650   -0.0310 C   0  0  0  0  0  0  0  0  0  0  0  0
    5.7820   14.5690   -1.4020 C   0  0  0  0  0  0  0  0  0  0  0  0
    5.7190   13.7090   -2.2640 O   0  0  0  0  0  0  0  0  0  0  0  0
    6.2860   13.7810    0.9590 C   0  0  0  0  0  0  0  0  0  0  0  0
    7.1590   12.6580    0.4110 C   0  0  0  0  0  0  0  0  0  0  0  0
    8.4110   12.4950    1.2560 C   0  0  0  0  0  0  0  0  0  0  0  0
    8.7070   11.0930    1.4730 N   0  0  0  0  0  0  0  0  0  0  0  0
    9.5120   10.3780    0.6840 C   0  0  0  0  0  0  0  0  0  0  0  0
    9.6370    9.0720    0.9240 N   0  0  0  0  0  0  0  0  0  0  0  0
   10.1490   10.9120   -0.2740 N   0  0  0  0  0  0  0  0  0  0  0  0
    6.3330   15.7650   -1.6510 N   0  0  0  0  0  0  0  0  0  0  0  0
    6.4210   16.7960   -0.5970 C   0  0  0  0  0  0  0  0  0  0  0  0
    5.8550   18.1290   -1.1100 C   0  0  0  0  0  0  0  0  0  0  0  0
    6.3960   18.5200   -2.4840 C   0  0  0  0  0  0  0  0  0  0  0  0
    6.1450   17.3690   -3.4520 C   0  0  0  0  0  0  0  0  0  0  0  0
    6.9180   16.1530   -2.9460 C   0  0  0  0  0  0  0  0  0  0  0  0
    7.8280   16.9050   -0.0600 C   0  0  0  0  0  0  0  0  0  0  0  0
    8.6020   15.9360   -0.2160 O   0  0  0  0  0  0  0  0  0  0  0  0
    8.1780   17.9510    0.5300 O   0  0  0  0  0  0  0  0  0  0  0  0
    5.8050   19.8330   -2.9860 C   0  0  0  0  0  0  0  0  0  0  0  0
    1.8453   12.1663   -4.4478 H   0  0  0  0  0  0  0  0  0  0  0  0
    3.5900   11.7212   -4.3479 H   0  0  0  0  0  0  0  0  0  0  0  0
    4.1950   14.0610   -4.9507 H   0  0  0  0  0  0  0  0  0  0  0  0
    2.5216   15.6469   -5.6782 H   0  0  0  0  0  0  0  0  0  0  0  0
    1.2127   14.4276   -5.4835 H   0  0  0  0  0  0  0  0  0  0  0  0
    1.2118   17.1340   -4.1055 H   0  0  0  0  0  0  0  0  0  0  0  0
    0.9501   17.8056   -1.7395 H   0  0  0  0  0  0  0  0  0  0  0  0
    1.5734   16.3135    0.1202 H   0  0  0  0  0  0  0  0  0  0  0  0
    3.5054   12.0488   -6.6197 H   0  0  0  0  0  0  0  0  0  0  0  0
    2.3557   13.3165   -7.1652 H   0  0  0  0  0  0  0  0  0  0  0  0
    4.1216   13.6455   -7.1652 H   0  0  0  0  0  0  0  0  0  0  0  0
    3.3289   12.4385   -2.1244 H   0  0  0  0  0  0  0  0  0  0  0  0
    4.2015   12.8434   -1.0190 H   0  0  0  0  0  0  0  0  0  0  0  0
    4.8239   15.2224    0.3374 H   0  0  0  0  0  0  0  0  0  0  0  0
    6.9340   14.6316    1.2170 H   0  0  0  0  0  0  0  0  0  0  0  0
    5.7554   13.3804    1.8353 H   0  0  0  0  0  0  0  0  0  0  0  0
    6.5888   11.7174    0.4239 H   0  0  0  0  0  0  0  0  0  0  0  0
    7.4553   12.9084   -0.6183 H   0  0  0  0  0  0  0  0  0  0  0  0
    9.2593   12.9667    0.7384 H   0  0  0  0  0  0  0  0  0  0  0  0
    8.2427   12.9747    2.2315 H   0  0  0  0  0  0  0  0  0  0  0  0
    8.2726   10.6227    2.2799 H   0  0  0  0  0  0  0  0  0  0  0  0
    9.6700    8.7275    1.8941 H   0  0  0  0  0  0  0  0  0  0  0  0
    9.7006    8.4079    0.1392 H   0  0  0  0  0  0  0  0  0  0  0  0
   10.0516   11.9207   -0.4583 H   0  0  0  0  0  0  0  0  0  0  0  0
    5.7978   16.4969    0.2587 H   0  0  0  0  0  0  0  0  0  0  0  0
    6.1173   18.9202   -0.3922 H   0  0  0  0  0  0  0  0  0  0  0  0
    4.7662   18.0071   -1.2085 H   0  0  0  0  0  0  0  0  0  0  0  0
    7.4786   18.6989   -2.4068 H   0  0  0  0  0  0  0  0  0  0  0  0
    6.4962   17.6431   -4.4577 H   0  0  0  0  0  0  0  0  0  0  0  0
    5.0699   17.1433   -3.5084 H   0  0  0  0  0  0  0  0  0  0  0  0
    6.8259   15.3241   -3.6633 H   0  0  0  0  0  0  0  0  0  0  0  0
    7.9858   16.3917   -2.8332 H   0  0  0  0  0  0  0  0  0  0  0  0
    8.1882   17.9814    1.5195 H   0  0  0  0  0  0  0  0  0  0  0  0
    5.5228   20.4600   -2.1274 H   0  0  0  0  0  0  0  0  0  0  0  0
    6.5520   20.3617   -3.5964 H   0  0  0  0  0  0  0  0  0  0  0  0
    4.9140   19.6244   -3.5964 H   0  0  0  0  0  0  0  0  0  0  0  0
 13  5  1  0
  5  6  1  0
  5  4  1  0
  6  7  1  0
  4 14  1  0
  7  8  1  0
  7 12  2  0
 30 31  1  0
 30 29  1  0
  8  9  2  0
 35 29  1  0
 31 26  1  0
 14 12  1  0
 12 11  1  0
 29 28  1  0
 18 17  2  0
  9 10  1  0
 26 17  1  0
 26 27  1  0
 17 16  1  0
 11 10  2  0
 11  1  1  0
 28 27  1  0
 27 32  1  0
 25 23  2  3
 33 32  2  0
 15 16  1  0
 15  1  1  0
 32 34  1  0
 16 19  1  0
  1  2  2  0
  1  3  2  0
 20 19  1  0
 20 21  1  0
 23 24  1  0
 23 22  1  0
 21 22  1  0
  4 36  1  0
  4 37  1  0
  5 38  1  0
  6 39  1  0
  6 40  1  0
  8 41  1  0
  9 42  1  0
 10 43  1  0
 13 44  1  0
 13 45  1  0
 13 46  1  0
 14 47  1  0
 15 48  1  0
 16 49  1  0
 19 50  1  0
 19 51  1  0
 20 52  1  0
 20 53  1  0
 21 54  1  0
 21 55  1  0
 22 56  1  0
 24 57  1  0
 24 58  1  0
 25 59  1  0
 27 60  1  0
 28 61  1  0
 28 62  1  0
 29 63  1  0
 30 64  1  0
 30 65  1  0
 31 66  1  0
 31 67  1  0
 34 68  1  0
 35 69  1  0
 35 70  1  0
 35 71  1  0
A    1
S
A    2
O1
A    3
O2
A    4
C1
A    5
C2
A    6
C3
A    7
C4
A    8
C5
A    9
C6
A   10
C7
A   11
C8
A   12
C9
A   13
C10
A   14
N
A   15
N1
A   16
CA
A   17
C
A   18
O
A   19
CB
A   20
CG
A   21
CD
A   22
NE
A   23
CZ
A   24
NH1
A   25
NH2
A   26
N2
A   27
C11
A   28
C21
A   29
C31
A   30
C41
A   31
C51
A   32
C61
A   33
O11
A   34
O21
A   35
C71
M  END
