4RNQ_A4S_A_604
     RDKit          3D

 51 51  0  0  0  0  0  0  0  0999 V2000
   25.5100   76.9150   13.3890 C   0  0  0  0  0  0  0  0  0  0  0  0
   26.1170   78.0370   12.8170 C   0  0  0  0  0  0  0  0  0  0  0  0
   26.2170   79.2450   13.5230 C   0  0  0  0  0  0  0  0  0  0  0  0
   25.8020   79.2910   14.8230 C   0  0  0  0  0  0  0  0  0  0  0  0
   25.2860   78.1560   15.4350 C   0  0  0  0  0  0  0  0  0  0  0  0
   25.0860   76.9700   14.6940 C   0  0  0  0  0  0  0  0  0  0  0  0
   24.3850   75.8140   15.2880 N   0  0  0  0  0  0  0  0  0  0  0  0
   23.9270   75.8450   16.6600 C   0  0  0  0  0  0  0  0  0  0  0  0
   22.6800   76.7940   16.8610 C   0  0  0  0  0  0  0  0  0  0  0  0
   21.6800   77.0010   15.9120 C   0  0  0  0  0  0  0  0  0  0  0  0
   21.0830   78.3960   15.6720 C   0  0  0  0  0  0  0  0  0  0  0  0
   22.1110   79.4220   15.1130 C   0  0  0  0  0  0  0  0  0  0  0  0
   22.2540   79.4090   13.5750 C   0  0  0  0  0  0  0  0  0  0  0  0
   22.9460   80.4170   12.9500 C   0  0  0  0  0  0  0  0  0  0  0  0
   23.5070   80.1750   11.5500 C   0  0  0  0  0  0  0  0  0  0  0  0
   22.5960   80.4940   10.5500 O   0  0  0  0  0  0  0  0  0  0  0  0
   22.9290   81.8830    9.7940 P   0  0  0  0  0  0  0  0  0  0  0  0
   21.7180   82.3270    8.9620 O   0  0  0  0  0  0  0  0  0  0  0  0
   23.2770   82.8840   10.9980 O   0  0  0  0  0  0  0  0  0  0  0  0
   24.0990   81.6370    8.8800 O   0  0  0  0  0  0  0  0  0  0  0  0
   23.8180   84.4110   11.0870 P   0  0  0  0  0  0  0  0  0  0  0  0
   22.7230   85.4060   10.9830 O   0  0  0  0  0  0  0  0  0  0  0  0
   24.9770   84.6560   10.0230 O   0  0  0  0  0  0  0  0  0  0  0  0
   24.3010   84.7110   12.5050 O   0  0  0  0  0  0  0  0  0  0  0  0
   22.1900   78.0800   12.7710 C   0  0  0  0  0  0  0  0  0  0  0  0
   22.5050   77.5580   18.1770 C   0  0  0  0  0  0  0  0  0  0  0  0
   25.3733   75.9966   12.7992 H   0  0  0  0  0  0  0  0  0  0  0  0
   26.5228   77.9715   11.7967 H   0  0  0  0  0  0  0  0  0  0  0  0
   26.6243   80.1432   13.0358 H   0  0  0  0  0  0  0  0  0  0  0  0
   25.8767   80.2316   15.3884 H   0  0  0  0  0  0  0  0  0  0  0  0
   25.0311   78.1808   16.5048 H   0  0  0  0  0  0  0  0  0  0  0  0
   24.2196   74.9729   14.7169 H   0  0  0  0  0  0  0  0  0  0  0  0
   23.6461   74.8250   16.9611 H   0  0  0  0  0  0  0  0  0  0  0  0
   24.7484   76.2376   17.2774 H   0  0  0  0  0  0  0  0  0  0  0  0
   21.3110   76.1483   15.3232 H   0  0  0  0  0  0  0  0  0  0  0  0
   20.6942   78.7777   16.6276 H   0  0  0  0  0  0  0  0  0  0  0  0
   20.2923   78.2844   14.9154 H   0  0  0  0  0  0  0  0  0  0  0  0
   23.0944   79.1975   15.5518 H   0  0  0  0  0  0  0  0  0  0  0  0
   21.7377   80.4203   15.3850 H   0  0  0  0  0  0  0  0  0  0  0  0
   23.0943   81.3852   13.4505 H   0  0  0  0  0  0  0  0  0  0  0  0
   23.7761   79.1125   11.4564 H   0  0  0  0  0  0  0  0  0  0  0  0
   24.3842   80.8266   11.4238 H   0  0  0  0  0  0  0  0  0  0  0  0
   20.9826   82.5966    9.5675 H   0  0  0  0  0  0  0  0  0  0  0  0
   22.4309   85.6714   11.8909 H   0  0  0  0  0  0  0  0  0  0  0  0
   23.6694   84.3187   13.1587 H   0  0  0  0  0  0  0  0  0  0  0  0
   22.1491   77.2308   13.4690 H   0  0  0  0  0  0  0  0  0  0  0  0
   21.2907   78.0776   12.1376 H   0  0  0  0  0  0  0  0  0  0  0  0
   23.0849   77.9912   12.1376 H   0  0  0  0  0  0  0  0  0  0  0  0
   22.6621   76.8723   19.0227 H   0  0  0  0  0  0  0  0  0  0  0  0
   23.2391   78.3757   18.2267 H   0  0  0  0  0  0  0  0  0  0  0  0
   21.4882   77.9746   18.2267 H   0  0  0  0  0  0  0  0  0  0  0  0
 20 17  2  0
 18 17  1  0
 17 16  1  0
 17 19  1  0
 23 21  2  0
 16 15  1  0
 22 21  1  0
 19 21  1  0
 21 24  1  0
 15 14  1  0
 25 13  1  0
  2  1  2  0
  2  3  1  0
 14 13  2  0
  1  6  1  0
  3  4  2  0
 13 12  1  0
  6  7  1  0
  6  5  2  0
  4  5  1  0
 12 11  1  0
  7  8  1  0
 11 10  1  0
 10  9  2  0
  8  9  1  0
  9 26  1  0
  1 27  1  0
  2 28  1  0
  3 29  1  0
  4 30  1  0
  5 31  1  0
  7 32  1  0
  8 33  1  0
  8 34  1  0
 10 35  1  0
 11 36  1  0
 11 37  1  0
 12 38  1  0
 12 39  1  0
 14 40  1  0
 15 41  1  0
 15 42  1  0
 18 43  1  0
 22 44  1  0
 24 45  1  0
 25 46  1  0
 25 47  1  0
 25 48  1  0
 26 49  1  0
 26 50  1  0
 26 51  1  0
A    1
C01
A    2
C02
A    3
C03
A    4
C04
A    5
C05
A    6
C06
A    7
N07
A    8
C08
A    9
C09
A   10
C10
A   11
C11
A   12
C12
A   13
C13
A   14
C14
A   15
C15
A   16
O16
A   17
P17
A   18
O18
A   19
O19
A   20
O20
A   21
P21
A   22
O22
A   23
O23
A   24
O24
A   25
C25
A   26
C26
M  END
