4RPK_3UA_B_402
     RDKit          3D

 58 60  0  0  0  0  0  0  0  0999 V2000
   83.8140   -3.4190   15.8970 F   0  0  0  0  0  0  0  0  0  0  0  0
   82.6020   -3.5120   16.4200 C   0  0  0  0  0  0  0  0  0  0  0  0
   82.4850   -4.6300   17.1120 F   0  0  0  0  0  0  0  0  0  0  0  0
   81.4860   -3.3750   15.3600 C   0  0  0  0  0  0  0  0  0  0  0  0
   81.7480   -3.9900   14.2310 F   0  0  0  0  0  0  0  0  0  0  0  0
   80.3490   -3.8620   15.8610 F   0  0  0  0  0  0  0  0  0  0  0  0
   82.3160   -2.3460   17.3740 C   0  0  0  0  0  0  0  0  0  0  0  0
   82.0190   -1.2870   16.4350 O   0  0  0  0  0  0  0  0  0  0  0  0
   81.2490   -1.8620   15.3250 C   0  0  0  0  0  0  0  0  0  0  0  0
   81.4500   -1.1520   13.9960 C   0  0  0  0  0  0  0  0  0  0  0  0
   81.9900   -2.0200   13.0240 O   0  0  0  0  0  0  0  0  0  0  0  0
   82.3360    0.0400   14.0950 C   0  0  0  0  0  0  0  0  0  0  0  0
   81.4700    1.1740   14.2270 O   0  0  0  0  0  0  0  0  0  0  0  0
   83.4790   -2.0040   18.0940 O   0  0  0  0  0  0  0  0  0  0  0  0
   83.3480   -1.2720   19.3900 P   0  0  0  0  0  0  0  0  0  0  0  0
   83.8640   -2.1010   20.3960 O   0  0  0  0  0  0  0  0  0  0  0  0
   81.8920   -0.8470   19.6250 O   0  0  0  0  0  0  0  0  0  0  0  0
   84.2540   -0.0450   19.1120 O   0  0  0  0  0  0  0  0  0  0  0  0
   85.5000   -0.1290   18.1790 P   0  0  0  0  0  0  0  0  0  0  0  0
   85.2190    0.1680   16.8370 O   0  0  0  0  0  0  0  0  0  0  0  0
   86.2770   -1.4470   18.3110 O   0  0  0  0  0  0  0  0  0  0  0  0
   86.2330    1.0750   18.7630 O   0  0  0  0  0  0  0  0  0  0  0  0
   86.8630    1.1110   20.0140 C   0  0  0  0  0  0  0  0  0  0  0  0
   87.1320    2.5230   20.4960 C   0  0  0  0  0  0  0  0  0  0  0  0
   87.8030    3.2860   19.5260 O   0  0  0  0  0  0  0  0  0  0  0  0
   85.8870    3.2950   20.8020 C   0  0  0  0  0  0  0  0  0  0  0  0
   85.4630    3.0790   22.1170 O   0  0  0  0  0  0  0  0  0  0  0  0
   86.3070    4.6970   20.6000 C   0  0  0  0  0  0  0  0  0  0  0  0
   86.8360    5.2320   21.7970 O   0  0  0  0  0  0  0  0  0  0  0  0
   87.3310    4.6020   19.5110 C   0  0  0  0  0  0  0  0  0  0  0  0
   86.7270    4.9790   18.2520 N   0  0  0  0  0  0  0  0  0  0  0  0
   86.6290    6.2470   17.9360 C   0  0  0  0  0  0  0  0  0  0  0  0
   87.0360    7.1140   18.6720 O   0  0  0  0  0  0  0  0  0  0  0  0
   86.2630    4.0910   17.4010 C   0  0  0  0  0  0  0  0  0  0  0  0
   85.7000    4.4610   16.2340 C   0  0  0  0  0  0  0  0  0  0  0  0
   85.6310    5.7830   15.9690 C   0  0  0  0  0  0  0  0  0  0  0  0
   86.0940    6.6420   16.8200 N   0  0  0  0  0  0  0  0  0  0  0  0
   85.1390    6.1890   14.9400 O   0  0  0  0  0  0  0  0  0  0  0  0
   81.5306   -2.5550   18.1153 H   0  0  0  0  0  0  0  0  0  0  0  0
   80.1699   -1.6905   15.4519 H   0  0  0  0  0  0  0  0  0  0  0  0
   80.4456   -0.8176   13.6971 H   0  0  0  0  0  0  0  0  0  0  0  0
   82.4561   -2.7692   13.4730 H   0  0  0  0  0  0  0  0  0  0  0  0
   82.9907   -0.0439   14.9750 H   0  0  0  0  0  0  0  0  0  0  0  0
   82.9835    0.1318   13.2105 H   0  0  0  0  0  0  0  0  0  0  0  0
   81.3228    1.3668   15.1868 H   0  0  0  0  0  0  0  0  0  0  0  0
   83.6315   -1.7275   21.2829 H   0  0  0  0  0  0  0  0  0  0  0  0
   86.4032   -1.6611   19.2693 H   0  0  0  0  0  0  0  0  0  0  0  0
   86.2170    0.6064   20.7475 H   0  0  0  0  0  0  0  0  0  0  0  0
   87.8346    0.6058   19.9101 H   0  0  0  0  0  0  0  0  0  0  0  0
   87.7335    2.3786   21.4056 H   0  0  0  0  0  0  0  0  0  0  0  0
   85.0334    3.0024   20.1729 H   0  0  0  0  0  0  0  0  0  0  0  0
   86.1450    3.4264   22.7449 H   0  0  0  0  0  0  0  0  0  0  0  0
   85.4829    5.3724   20.3269 H   0  0  0  0  0  0  0  0  0  0  0  0
   86.4038    4.7949   22.5731 H   0  0  0  0  0  0  0  0  0  0  0  0
   88.1788    5.2872   19.6583 H   0  0  0  0  0  0  0  0  0  0  0  0
   86.3360    3.0214   17.6472 H   0  0  0  0  0  0  0  0  0  0  0  0
   85.3118    3.7150   15.5249 H   0  0  0  0  0  0  0  0  0  0  0  0
   86.0376    7.6488   16.6100 H   0  0  0  0  0  0  0  0  0  0  0  0
 11 10  1  0
 10 12  1  0
 10  9  1  0
 12 13  1  0
  5  4  1  0
 38 36  2  0
  9  4  1  0
  9  8  1  0
  4  6  1  0
  4  2  1  0
 36 35  1  0
 36 37  1  0
  1  2  1  0
 35 34  2  0
  8  7  1  0
  2  3  1  0
  2  7  1  0
 37 32  1  0
 20 19  2  0
  7 14  1  0
 34 31  1  0
 32 31  1  0
 32 33  2  0
 14 15  1  0
 19 21  1  0
 19 22  1  0
 19 18  1  0
 31 30  1  0
 22 23  1  0
 18 15  1  0
 15 17  2  0
 15 16  1  0
 30 25  1  0
 30 28  1  0
 25 24  1  0
 23 24  1  0
 24 26  1  0
 28 26  1  0
 28 29  1  0
 26 27  1  0
  7 39  1  0
  9 40  1  0
 10 41  1  0
 11 42  1  0
 12 43  1  0
 12 44  1  0
 13 45  1  0
 16 46  1  0
 21 47  1  0
 23 48  1  0
 23 49  1  0
 24 50  1  0
 26 51  1  0
 27 52  1  0
 28 53  1  0
 29 54  1  0
 30 55  1  0
 34 56  1  0
 35 57  1  0
 37 58  1  0
A    1
F58
A    2
C11
A    3
F6
A    4
C12
A    5
F7
A    6
F57
A    7
C1
A    8
O
A    9
C
A   10
C13
A   11
O15
A   12
C14
A   13
O16
A   14
O1
A   15
P
A   16
O3
A   17
O2
A   18
O4
A   19
P1
A   20
O6
A   21
O5
A   22
O7
A   23
C2
A   24
C3
A   25
O8
A   26
C6
A   27
O10
A   28
C5
A   29
O9
A   30
C4
A   31
N
A   32
C10
A   33
O12
A   34
C7
A   35
C8
A   36
C9
A   37
N1
A   38
O11
M  END
