4RPL_3UC_B_402
     RDKit          3D

 58 60  0  0  0  0  0  0  0  0999 V2000
   80.7770   -4.4220   17.2460 F   0  0  0  0  0  0  0  0  0  0  0  0
   81.7950   -3.5130   17.5030 C   0  0  0  0  0  0  0  0  0  0  0  0
   82.4050   -4.2700   18.5420 F   0  0  0  0  0  0  0  0  0  0  0  0
   82.4910   -3.6650   16.2190 C   0  0  0  0  0  0  0  0  0  0  0  0
   82.9460   -4.6400   15.9190 F   0  0  0  0  0  0  0  0  0  0  0  0
   83.7970   -3.0320   16.2800 F   0  0  0  0  0  0  0  0  0  0  0  0
   81.6550   -3.0860   15.2100 C   0  0  0  0  0  0  0  0  0  0  0  0
   80.3140   -3.5970   15.3160 O   0  0  0  0  0  0  0  0  0  0  0  0
   81.5590   -1.6180   15.4110 C   0  0  0  0  0  0  0  0  0  0  0  0
   80.5370   -1.1110   14.4890 C   0  0  0  0  0  0  0  0  0  0  0  0
   80.9320   -0.9020   13.1680 O   0  0  0  0  0  0  0  0  0  0  0  0
   81.1710   -1.2350   16.8190 O   0  0  0  0  0  0  0  0  0  0  0  0
   81.6330   -2.0450   17.8700 C   0  0  0  0  0  0  0  0  0  0  0  0
   82.8600   -1.5920   18.3010 O   0  0  0  0  0  0  0  0  0  0  0  0
   82.9730   -0.9430   19.6330 P   0  0  0  0  0  0  0  0  0  0  0  0
   81.6400   -0.4830   20.0300 O   0  0  0  0  0  0  0  0  0  0  0  0
   83.5690   -1.8670   20.6400 O   0  0  0  0  0  0  0  0  0  0  0  0
   83.8380    0.3140   19.4160 O   0  0  0  0  0  0  0  0  0  0  0  0
   84.9810    0.3820   18.2850 P   0  0  0  0  0  0  0  0  0  0  0  0
   85.8340   -0.9020   18.3530 O   0  0  0  0  0  0  0  0  0  0  0  0
   84.3870    0.5850   16.8890 O   0  0  0  0  0  0  0  0  0  0  0  0
   85.8830    1.6290   18.7140 O   0  0  0  0  0  0  0  0  0  0  0  0
   86.4630    1.6110   19.9770 C   0  0  0  0  0  0  0  0  0  0  0  0
   86.8580    2.9180   20.5030 C   0  0  0  0  0  0  0  0  0  0  0  0
   85.6650    3.6700   20.8820 C   0  0  0  0  0  0  0  0  0  0  0  0
   85.2820    3.3970   22.2090 O   0  0  0  0  0  0  0  0  0  0  0  0
   86.0690    5.0270   20.7150 C   0  0  0  0  0  0  0  0  0  0  0  0
   86.6960    5.5040   21.8650 O   0  0  0  0  0  0  0  0  0  0  0  0
   87.4400    3.6780   19.4410 O   0  0  0  0  0  0  0  0  0  0  0  0
   87.0250    4.9780   19.5770 C   0  0  0  0  0  0  0  0  0  0  0  0
   86.3420    5.5110   18.3490 N   0  0  0  0  0  0  0  0  0  0  0  0
   85.7200    4.6910   17.4760 C   0  0  0  0  0  0  0  0  0  0  0  0
   85.0980    5.2290   16.3480 C   0  0  0  0  0  0  0  0  0  0  0  0
   85.1360    6.5990   16.1490 C   0  0  0  0  0  0  0  0  0  0  0  0
   84.5520    7.1420   15.0830 O   0  0  0  0  0  0  0  0  0  0  0  0
   85.7580    7.3740   17.0280 N   0  0  0  0  0  0  0  0  0  0  0  0
   86.3530    6.8240   18.1130 C   0  0  0  0  0  0  0  0  0  0  0  0
   86.9140    7.5480   18.9040 O   0  0  0  0  0  0  0  0  0  0  0  0
   82.0968   -3.3314   14.2330 H   0  0  0  0  0  0  0  0  0  0  0  0
   80.0707   -3.6897   16.2712 H   0  0  0  0  0  0  0  0  0  0  0  0
   82.5517   -1.1832   15.2227 H   0  0  0  0  0  0  0  0  0  0  0  0
   80.1782   -0.1497   14.8854 H   0  0  0  0  0  0  0  0  0  0  0  0
   79.7743   -1.9021   14.4404 H   0  0  0  0  0  0  0  0  0  0  0  0
   81.8070   -0.4390   13.1545 H   0  0  0  0  0  0  0  0  0  0  0  0
   80.8611   -1.9767   18.6507 H   0  0  0  0  0  0  0  0  0  0  0  0
   83.3592   -1.5418   21.5512 H   0  0  0  0  0  0  0  0  0  0  0  0
   85.9937   -1.1423   19.3000 H   0  0  0  0  0  0  0  0  0  0  0  0
   85.7393    1.1677   20.6769 H   0  0  0  0  0  0  0  0  0  0  0  0
   87.3919    1.0305   19.8766 H   0  0  0  0  0  0  0  0  0  0  0  0
   87.5419    2.7638   21.3507 H   0  0  0  0  0  0  0  0  0  0  0  0
   84.7822    3.4111   20.2789 H   0  0  0  0  0  0  0  0  0  0  0  0
   85.9086    3.8437   22.8319 H   0  0  0  0  0  0  0  0  0  0  0  0
   85.2199    5.7012   20.5294 H   0  0  0  0  0  0  0  0  0  0  0  0
   86.2316    5.1507   22.6648 H   0  0  0  0  0  0  0  0  0  0  0  0
   87.9134    5.6043   19.7458 H   0  0  0  0  0  0  0  0  0  0  0  0
   85.7033    3.6053   17.6522 H   0  0  0  0  0  0  0  0  0  0  0  0
   84.5853    4.5744   15.6278 H   0  0  0  0  0  0  0  0  0  0  0  0
   85.7883    8.3936   16.8852 H   0  0  0  0  0  0  0  0  0  0  0  0
 11 10  1  0
 10  9  1  0
 35 34  2  0
  7  8  1  0
  7  9  1  0
  7  4  1  0
  9 12  1  0
  5  4  1  0
  4  6  1  0
  4  2  1  0
 34 33  1  0
 34 36  1  0
 33 32  2  0
 12 13  1  0
 21 19  2  0
 36 37  1  0
  1  2  1  0
  2 13  1  0
  2  3  1  0
 32 31  1  0
 13 14  1  0
 37 31  1  0
 37 38  2  0
 14 15  1  0
 19 20  1  0
 19 22  1  0
 19 18  1  0
 31 30  1  0
 22 23  1  0
 18 15  1  0
 29 30  1  0
 29 24  1  0
 15 16  2  0
 15 17  1  0
 30 27  1  0
 23 24  1  0
 24 25  1  0
 27 25  1  0
 27 28  1  0
 25 26  1  0
  7 39  1  0
  8 40  1  0
  9 41  1  0
 10 42  1  0
 10 43  1  0
 11 44  1  0
 13 45  1  0
 17 46  1  0
 20 47  1  0
 23 48  1  0
 23 49  1  0
 24 50  1  0
 25 51  1  0
 26 52  1  0
 27 53  1  0
 28 54  1  0
 30 55  1  0
 32 56  1  0
 33 57  1  0
 36 58  1  0
A    1
F2''
A    2
C2'
A    3
F2'
A    4
C3'
A    5
F3''
A    6
F3'
A    7
C4'
A    8
O4'
A    9
C5'
A   10
C6'
A   11
O6'
A   12
O5'
A   13
C1'
A   14
O3B
A   15
PB
A   16
O1B
A   17
O2B
A   18
O3A
A   19
PA
A   20
O1A
A   21
O2A
A   22
O5D
A   23
C5D
A   24
C4D
A   25
C3D
A   26
O3D
A   27
C2D
A   28
O2D
A   29
O4D
A   30
C1D
A   31
N1
A   32
C6
A   33
C5
A   34
C4
A   35
O4
A   36
N3
A   37
C2
A   38
O2
M  END
