4RPQ_3UH_A_401
     RDKit          3D

 48 50  0  0  0  0  0  0  0  0999 V2000
   65.2610   -7.8590   41.1390 O   0  0  0  0  0  0  0  0  0  0  0  0
   64.7850   -7.0780   42.2390 C   0  0  0  0  0  0  0  0  0  0  0  0
   63.5500   -6.3340   41.8340 C   0  0  0  0  0  0  0  0  0  0  0  0
   63.3190   -6.2110   40.5280 O   0  0  0  0  0  0  0  0  0  0  0  0
   62.8310   -5.8650   42.7000 O   0  0  0  0  0  0  0  0  0  0  0  0
   64.5900   -9.0390   40.8590 C   0  0  0  0  0  0  0  0  0  0  0  0
   64.7110   -9.5720   39.5760 C   0  0  0  0  0  0  0  0  0  0  0  0
   65.4740   -8.8060   38.5310 C   0  0  0  0  0  0  0  0  0  0  0  0
   65.2900   -7.4620   38.4910 N   0  0  0  0  0  0  0  0  0  0  0  0
   65.9830   -6.6500   37.5010 C   0  0  0  0  0  0  0  0  0  0  0  0
   65.0290   -6.0980   36.4250 C   0  0  0  0  0  0  0  0  0  0  0  0
   65.5480   -5.1970   35.4960 C   0  0  0  0  0  0  0  0  0  0  0  0
   64.7640   -4.6330   34.4840 C   0  0  0  0  0  0  0  0  0  0  0  0
   65.3330   -3.7510   33.6030 N   0  0  0  0  0  0  0  0  0  0  0  0
   66.5450   -3.6170   33.6150 O   0  0  0  0  0  0  0  0  0  0  0  0
   64.6120   -3.1300   32.8450 O   0  0  0  0  0  0  0  0  0  0  0  0
   63.4100   -5.0030   34.4140 C   0  0  0  0  0  0  0  0  0  0  0  0
   62.8740   -5.9140   35.3380 C   0  0  0  0  0  0  0  0  0  0  0  0
   63.6810   -6.4630   36.3390 C   0  0  0  0  0  0  0  0  0  0  0  0
   66.1360   -9.4280   37.7100 O   0  0  0  0  0  0  0  0  0  0  0  0
   64.0890  -10.7690   39.2550 C   0  0  0  0  0  0  0  0  0  0  0  0
   63.3500  -11.4520   40.2150 C   0  0  0  0  0  0  0  0  0  0  0  0
   62.6730  -12.7200   39.8520 C   0  0  0  0  0  0  0  0  0  0  0  0
   63.2280  -13.6040   38.9140 C   0  0  0  0  0  0  0  0  0  0  0  0
   62.5470  -14.7790   38.5800 C   0  0  0  0  0  0  0  0  0  0  0  0
   61.3220  -15.0790   39.1840 C   0  0  0  0  0  0  0  0  0  0  0  0
   60.7680  -14.2000   40.1190 C   0  0  0  0  0  0  0  0  0  0  0  0
   61.4480  -13.0280   40.4520 C   0  0  0  0  0  0  0  0  0  0  0  0
   63.2260  -10.9120   41.4990 C   0  0  0  0  0  0  0  0  0  0  0  0
   63.8440   -9.7020   41.8290 C   0  0  0  0  0  0  0  0  0  0  0  0
   64.5511   -7.7418   43.0844 H   0  0  0  0  0  0  0  0  0  0  0  0
   65.5617   -6.3586   42.5376 H   0  0  0  0  0  0  0  0  0  0  0  0
   63.0491   -6.0073   43.6551 H   0  0  0  0  0  0  0  0  0  0  0  0
   64.6551   -7.0129   39.1663 H   0  0  0  0  0  0  0  0  0  0  0  0
   66.7494   -7.2681   37.0105 H   0  0  0  0  0  0  0  0  0  0  0  0
   66.4319   -5.7927   38.0240 H   0  0  0  0  0  0  0  0  0  0  0  0
   66.6106   -4.9201   35.5611 H   0  0  0  0  0  0  0  0  0  0  0  0
   62.7664   -4.5763   33.6306 H   0  0  0  0  0  0  0  0  0  0  0  0
   61.8131   -6.1974   35.2740 H   0  0  0  0  0  0  0  0  0  0  0  0
   63.2572   -7.1802   37.0573 H   0  0  0  0  0  0  0  0  0  0  0  0
   64.1803  -11.1794   38.2385 H   0  0  0  0  0  0  0  0  0  0  0  0
   64.1951  -13.3736   38.4432 H   0  0  0  0  0  0  0  0  0  0  0  0
   62.9766  -15.4697   37.8395 H   0  0  0  0  0  0  0  0  0  0  0  0
   60.7937  -16.0079   38.9230 H   0  0  0  0  0  0  0  0  0  0  0  0
   59.8011  -14.4310   40.5898 H   0  0  0  0  0  0  0  0  0  0  0  0
   61.0163  -12.3397   41.1936 H   0  0  0  0  0  0  0  0  0  0  0  0
   62.6353  -11.4455   42.2583 H   0  0  0  0  0  0  0  0  0  0  0  0
   63.7421   -9.2805   42.8399 H   0  0  0  0  0  0  0  0  0  0  0  0
 16 14  2  0
 14 15  1  0
 14 13  1  0
 17 13  1  0
 17 18  2  0
 13 12  2  0
 18 19  1  0
 12 11  1  0
 19 11  2  0
 11 10  1  0
 10  9  1  0
 20  8  2  0
  9  8  1  0
  8  7  1  0
 25 24  2  0
 25 26  1  0
 24 23  1  0
 26 27  2  0
 21  7  1  0
 21 22  2  0
  7  6  2  0
 23 22  1  0
 23 28  2  0
 27 28  1  0
 22 29  1  0
  4  3  2  0
  6  1  1  0
  6 30  1  0
  1  2  1  0
 29 30  2  0
  3  2  1  0
  3  5  1  0
  2 31  1  0
  2 32  1  0
  5 33  1  0
  9 34  1  0
 10 35  1  0
 10 36  1  0
 12 37  1  0
 17 38  1  0
 18 39  1  0
 19 40  1  0
 21 41  1  0
 24 42  1  0
 25 43  1  0
 26 44  1  0
 27 45  1  0
 28 46  1  0
 29 47  1  0
 30 48  1  0
M  CHG  2  14   1  15  -1
A    1
O1
A    2
C2
A    3
C3
A    4
O4
A    5
O6
A    6
C9
A    7
C10
A    8
C11
A    9
N12
A   10
C14
A   11
C15
A   12
C16
A   13
C17
A   14
N18
A   15
O19
A   16
O20
A   17
C21
A   18
C22
A   19
C23
A   20
O30
A   21
C31
A   22
C33
A   23
C34
A   24
C35
A   25
C36
A   26
C38
A   27
C39
A   28
C40
A   29
C45
A   30
C47
M  END
