4RQV_R2S_A_406
     RDKit          3D

 32 35  0  0  0  0  0  0  0  0999 V2000
  -16.7030   16.8390  -14.1770 Cl  0  0  0  0  0  0  0  0  0  0  0  0
  -15.3440   17.4660  -13.3210 C   0  0  0  0  0  0  0  0  0  0  0  0
  -15.2530   17.2270  -11.9600 C   0  0  0  0  0  0  0  0  0  0  0  0
  -14.1710   17.7170  -11.2560 C   0  0  0  0  0  0  0  0  0  0  0  0
  -13.2010   18.4350  -11.9220 C   0  0  0  0  0  0  0  0  0  0  0  0
  -13.2980   18.6800  -13.2960 C   0  0  0  0  0  0  0  0  0  0  0  0
  -14.3750   18.1940  -13.9920 C   0  0  0  0  0  0  0  0  0  0  0  0
  -12.0830   18.9030  -11.1440 N   0  0  0  0  0  0  0  0  0  0  0  0
  -12.2790   18.5170   -9.8430 C   0  0  0  0  0  0  0  0  0  0  0  0
  -11.3760   18.8680   -8.8380 N   0  0  0  0  0  0  0  0  0  0  0  0
  -11.2830   18.0210   -7.4700 S   0  0  0  0  0  0  0  0  0  0  0  0
  -12.4570   18.1020   -6.7160 O   0  0  0  0  0  0  0  0  0  0  0  0
  -10.2890   18.5440   -6.6320 O   0  0  0  0  0  0  0  0  0  0  0  0
  -10.9700   16.3810   -8.0320 C   0  0  0  0  0  0  0  0  0  0  0  0
  -10.0000   15.9450   -8.9870 C   0  0  0  0  0  0  0  0  0  0  0  0
  -10.1760   14.4470   -9.1500 C   0  0  0  0  0  0  0  0  0  0  0  0
   -9.4250   13.6190   -9.9870 C   0  0  0  0  0  0  0  0  0  0  0  0
   -9.7120   12.2640  -10.0130 C   0  0  0  0  0  0  0  0  0  0  0  0
  -10.7230   11.6990   -9.2190 C   0  0  0  0  0  0  0  0  0  0  0  0
  -11.4700   12.5280   -8.3920 C   0  0  0  0  0  0  0  0  0  0  0  0
  -11.1870   13.8960   -8.3660 C   0  0  0  0  0  0  0  0  0  0  0  0
  -11.8540   15.1290   -7.5090 S   0  0  0  0  0  0  0  0  0  0  0  0
  -13.6990   17.6550   -9.6710 S   0  0  0  0  0  0  0  0  0  0  0  0
  -16.0360   16.6517  -11.4442 H   0  0  0  0  0  0  0  0  0  0  0  0
  -12.5175   19.2572  -13.8133 H   0  0  0  0  0  0  0  0  0  0  0  0
  -14.4685   18.3803  -15.0721 H   0  0  0  0  0  0  0  0  0  0  0  0
  -10.7590   19.6817   -8.9729 H   0  0  0  0  0  0  0  0  0  0  0  0
   -9.2643   16.5768   -9.5061 H   0  0  0  0  0  0  0  0  0  0  0  0
   -8.6216   14.0344  -10.6131 H   0  0  0  0  0  0  0  0  0  0  0  0
   -9.1289   11.6093  -10.6773 H   0  0  0  0  0  0  0  0  0  0  0  0
  -10.9202   10.6173   -9.2514 H   0  0  0  0  0  0  0  0  0  0  0  0
  -12.2736   12.1131   -7.7659 H   0  0  0  0  0  0  0  0  0  0  0  0
  1  2  1  0
  7  2  2  0
  7  6  1  0
  2  3  1  0
  6  5  2  0
  3  4  2  0
  5  4  1  0
  5  8  1  0
  4 23  1  0
  8  9  2  0
 18 17  1  0
 18 19  2  0
 17 16  2  0
  9 23  1  0
  9 10  1  0
 19 20  1  0
 16 15  1  0
 16 21  1  0
 15 14  2  0
 10 11  1  0
 20 21  2  0
 21 22  1  0
 14 22  1  0
 14 11  1  0
 11 12  2  0
 11 13  2  0
  3 24  1  0
  6 25  1  0
  7 26  1  0
 10 27  1  0
 15 28  1  0
 17 29  1  0
 18 30  1  0
 19 31  1  0
 20 32  1  0
A    1
CL1
A    2
C02
A    3
C03
A    4
C04
A    5
C05
A    6
C06
A    7
C07
A    8
N08
A    9
C09
A   10
N10
A   11
S11
A   12
O12
A   13
O13
A   14
C14
A   15
C15
A   16
C16
A   17
C17
A   18
C18
A   19
C19
A   20
C20
A   21
C21
A   22
S22
A   23
S23
M  END
