4RRO_3UX_A_502
     RDKit          3D

 50 54  0  0  0  0  0  0  0  0999 V2000
   26.9660   15.4910    9.6340 C   0  0  0  0  0  0  0  0  0  0  0  0
   27.6890   14.2810    9.4550 C   0  0  0  0  0  0  0  0  0  0  0  0
   27.0290   13.1140    8.9880 C   0  0  0  0  0  0  0  0  0  0  0  0
   25.6410   13.1240    8.6950 C   0  0  0  0  0  0  0  0  0  0  0  0
   24.9200   14.3370    8.8690 C   0  0  0  0  0  0  0  0  0  0  0  0
   25.5810   15.5080    9.3220 C   0  0  0  0  0  0  0  0  0  0  0  0
   27.5930   16.6950   10.0520 C   0  0  0  0  0  0  0  0  0  0  0  0
   25.0180   11.9600    8.2500 O   0  0  0  0  0  0  0  0  0  0  0  0
   23.5980   11.8290    8.3330 C   0  0  0  0  0  0  0  0  0  0  0  0
   23.0120   13.1420    7.7570 C   0  0  0  0  0  0  0  0  0  0  0  0
   23.4330   14.4010    8.5240 C   0  0  0  0  0  0  0  0  0  0  0  0
   23.1550   10.6320    7.4490 C   0  0  0  0  0  0  0  0  0  0  0  0
   21.6430   10.6940    7.1010 C   0  0  0  0  0  0  0  0  0  0  0  0
   21.1690   12.1000    6.6390 C   0  0  0  0  0  0  0  0  0  0  0  0
   21.6020   13.1060    7.5750 O   0  0  0  0  0  0  0  0  0  0  0  0
   22.5820   14.7050    9.6740 N   0  0  0  0  0  0  0  0  0  0  0  0
   21.9890   15.8360    9.4760 C   0  0  0  0  0  0  0  0  0  0  0  0
   22.2750   16.4260    8.2870 N   0  0  0  0  0  0  0  0  0  0  0  0
   23.1550   15.6220    7.6460 C   0  0  0  0  0  0  0  0  0  0  0  0
   23.6700   15.7870    6.5380 O   0  0  0  0  0  0  0  0  0  0  0  0
   21.1140   16.4680   10.3360 N   0  0  0  0  0  0  0  0  0  0  0  0
   23.1750   11.5710    9.8070 C   0  0  0  0  0  0  0  0  0  0  0  0
   21.7760   17.6970    7.7620 C   0  0  0  0  0  0  0  0  0  0  0  0
   28.7080   17.1820    9.3140 C   0  0  0  0  0  0  0  0  0  0  0  0
   29.3010   18.4030    9.7250 C   0  0  0  0  0  0  0  0  0  0  0  0
   28.7600   19.1020   10.8350 C   0  0  0  0  0  0  0  0  0  0  0  0
   27.6900   18.6440   11.5210 N   0  0  0  0  0  0  0  0  0  0  0  0
   27.1210   17.4780   11.1390 C   0  0  0  0  0  0  0  0  0  0  0  0
   26.0610   17.0630   11.8640 F   0  0  0  0  0  0  0  0  0  0  0  0
   28.7654   14.2483    9.6794 H   0  0  0  0  0  0  0  0  0  0  0  0
   27.6037   12.1861    8.8510 H   0  0  0  0  0  0  0  0  0  0  0  0
   25.0120   16.4428    9.4331 H   0  0  0  0  0  0  0  0  0  0  0  0
   23.4666   13.2116    6.7577 H   0  0  0  0  0  0  0  0  0  0  0  0
   23.3565    9.6964    7.9912 H   0  0  0  0  0  0  0  0  0  0  0  0
   23.7224   10.6765    6.5077 H   0  0  0  0  0  0  0  0  0  0  0  0
   21.0683   10.4094    7.9947 H   0  0  0  0  0  0  0  0  0  0  0  0
   21.4766   10.0046    6.2601 H   0  0  0  0  0  0  0  0  0  0  0  0
   21.5942   12.3189    5.6484 H   0  0  0  0  0  0  0  0  0  0  0  0
   20.0702   12.1082    6.5876 H   0  0  0  0  0  0  0  0  0  0  0  0
   21.2381   16.3784   11.3546 H   0  0  0  0  0  0  0  0  0  0  0  0
   20.3369   17.0293    9.9593 H   0  0  0  0  0  0  0  0  0  0  0  0
   23.9145   12.0221   10.4850 H   0  0  0  0  0  0  0  0  0  0  0  0
   22.1880   12.0210    9.9893 H   0  0  0  0  0  0  0  0  0  0  0  0
   23.1233   10.4874    9.9893 H   0  0  0  0  0  0  0  0  0  0  0  0
   21.5149   18.3620    8.5984 H   0  0  0  0  0  0  0  0  0  0  0  0
   22.5550   18.1706    7.1464 H   0  0  0  0  0  0  0  0  0  0  0  0
   20.8829   17.5141    7.1464 H   0  0  0  0  0  0  0  0  0  0  0  0
   29.0991   16.6268    8.4487 H   0  0  0  0  0  0  0  0  0  0  0  0
   30.1729   18.8047    9.1879 H   0  0  0  0  0  0  0  0  0  0  0  0
   29.2271   20.0477   11.1472 H   0  0  0  0  0  0  0  0  0  0  0  0
 20 19  2  0
 14 13  1  0
 14 15  1  0
 13 12  1  0
 12  9  1  0
 15 10  1  0
 19 18  1  0
 19 11  1  0
 10  9  1  0
 10 11  1  0
 23 18  1  0
  8  9  1  0
  8  4  1  0
 18 17  1  0
  9 22  1  0
 11  5  1  0
 11 16  1  0
  4  5  2  0
  4  3  1  0
  5  6  1  0
  3  2  2  0
 24 25  2  0
 24  7  1  0
  6  1  2  0
  2  1  1  0
 17 16  2  0
 17 21  1  0
  1  7  1  0
 25 26  1  0
  7 28  2  0
 26 27  2  0
 28 27  1  0
 28 29  1  0
  2 30  1  0
  3 31  1  0
  6 32  1  0
 10 33  1  0
 12 34  1  0
 12 35  1  0
 13 36  1  0
 13 37  1  0
 14 38  1  0
 14 39  1  0
 21 40  1  0
 21 41  1  0
 22 42  1  0
 22 43  1  0
 22 44  1  0
 23 45  1  0
 23 46  1  0
 23 47  1  0
 24 48  1  0
 25 49  1  0
 26 50  1  0
A    1
C1
A    2
C2
A    3
C3
A    4
C4
A    5
C5
A    6
C6
A    7
C7
A    8
O8
A    9
C9
A   10
C10
A   11
C11
A   12
C12
A   13
C13
A   14
C14
A   15
O15
A   16
N16
A   17
C17
A   18
N18
A   19
C19
A   20
O20
A   21
N21
A   22
C22
A   23
C23
A   24
C24
A   25
C25
A   26
C26
A   27
N27
A   28
C28
A   29
F29
M  END
