4RSC_A3V_A_603
     RDKit          3D

 44 45  0  0  0  0  0  0  0  0999 V2000
  -35.4840  133.9560    9.0630 O   0  0  0  0  0  0  0  0  0  0  0  0
  -36.6370  133.2270    9.4840 C   0  0  0  0  0  0  0  0  0  0  0  0
  -37.1620  132.4070    8.3250 C   0  0  0  0  0  0  0  0  0  0  0  0
  -36.1940  131.3730    7.7880 C   0  0  0  0  0  0  0  0  0  0  0  0
  -34.8290  131.7640    7.5580 N   0  0  0  0  0  0  0  0  0  0  0  0
  -37.6790  134.1300   10.1220 C   0  0  0  0  0  0  0  0  0  0  0  0
  -38.4680  135.0140    9.3870 C   0  0  0  0  0  0  0  0  0  0  0  0
  -39.3330  135.8960   10.0500 C   0  0  0  0  0  0  0  0  0  0  0  0
  -39.4290  135.8720   11.4190 C   0  0  0  0  0  0  0  0  0  0  0  0
  -38.6720  134.9730   12.1310 C   0  0  0  0  0  0  0  0  0  0  0  0
  -37.7990  134.1220   11.4940 C   0  0  0  0  0  0  0  0  0  0  0  0
  -40.1100  136.7970    9.3800 O   0  0  0  0  0  0  0  0  0  0  0  0
  -40.1020  136.8590    7.9570 C   0  0  0  0  0  0  0  0  0  0  0  0
  -40.9470  138.0730    7.6400 C   0  0  0  0  0  0  0  0  0  0  0  0
  -40.2710  139.3510    8.1480 C   0  0  0  0  0  0  0  0  0  0  0  0
  -41.0480  140.6300    7.8310 C   0  0  0  0  0  0  0  0  0  0  0  0
  -41.4060  140.7270    6.3630 C   0  0  0  0  0  0  0  0  0  0  0  0
  -42.0800  139.4520    5.8820 C   0  0  0  0  0  0  0  0  0  0  0  0
  -41.2170  138.2220    6.1590 C   0  0  0  0  0  0  0  0  0  0  0  0
  -34.9848  134.2716    9.8576 H   0  0  0  0  0  0  0  0  0  0  0  0
  -36.3564  132.5247   10.2828 H   0  0  0  0  0  0  0  0  0  0  0  0
  -37.4160  133.0958    7.5059 H   0  0  0  0  0  0  0  0  0  0  0  0
  -38.0294  131.8494    8.7082 H   0  0  0  0  0  0  0  0  0  0  0  0
  -36.5966  131.0195    6.8273 H   0  0  0  0  0  0  0  0  0  0  0  0
  -36.1276  130.6241    8.5910 H   0  0  0  0  0  0  0  0  0  0  0  0
  -34.3539  131.9001    8.4617 H   0  0  0  0  0  0  0  0  0  0  0  0
  -34.3462  131.0275    7.0238 H   0  0  0  0  0  0  0  0  0  0  0  0
  -38.4119  135.0194    8.2884 H   0  0  0  0  0  0  0  0  0  0  0  0
  -40.1050  136.5653   11.9408 H   0  0  0  0  0  0  0  0  0  0  0  0
  -38.7655  134.9333   13.2263 H   0  0  0  0  0  0  0  0  0  0  0  0
  -37.1887  133.4259   12.0882 H   0  0  0  0  0  0  0  0  0  0  0  0
  -40.5447  135.9502    7.5233 H   0  0  0  0  0  0  0  0  0  0  0  0
  -39.0859  136.9296    7.5416 H   0  0  0  0  0  0  0  0  0  0  0  0
  -41.9083  137.9209    8.1526 H   0  0  0  0  0  0  0  0  0  0  0  0
  -40.1606  139.2742    9.2397 H   0  0  0  0  0  0  0  0  0  0  0  0
  -39.3033  139.4282    7.6306 H   0  0  0  0  0  0  0  0  0  0  0  0
  -40.4298  141.4980    8.1039 H   0  0  0  0  0  0  0  0  0  0  0  0
  -41.9840  140.6109    8.4085 H   0  0  0  0  0  0  0  0  0  0  0  0
  -40.4885  140.8914    5.7789 H   0  0  0  0  0  0  0  0  0  0  0  0
  -42.1045  141.5658    6.2269 H   0  0  0  0  0  0  0  0  0  0  0  0
  -42.2564  139.5280    4.7989 H   0  0  0  0  0  0  0  0  0  0  0  0
  -43.0286  139.3371    6.4269 H   0  0  0  0  0  0  0  0  0  0  0  0
  -41.7413  137.3254    5.7967 H   0  0  0  0  0  0  0  0  0  0  0  0
  -40.2561  138.3428    5.6375 H   0  0  0  0  0  0  0  0  0  0  0  0
 18 19  1  0
 18 17  1  0
 19 14  1  0
 17 16  1  0
  5  4  1  0
 14 13  1  0
 14 15  1  0
  4  3  1  0
 16 15  1  0
 13 12  1  0
  3  2  1  0
  1  2  1  0
 12  8  1  0
  7  8  1  0
  7  6  2  0
  2  6  1  0
  8  9  2  0
  6 11  1  0
  9 10  1  0
 11 10  2  0
  1 20  1  0
  2 21  1  0
  3 22  1  0
  3 23  1  0
  4 24  1  0
  4 25  1  0
  5 26  1  0
  5 27  1  0
  7 28  1  0
  9 29  1  0
 10 30  1  0
 11 31  1  0
 13 32  1  0
 13 33  1  0
 14 34  1  0
 15 35  1  0
 15 36  1  0
 16 37  1  0
 16 38  1  0
 17 39  1  0
 17 40  1  0
 18 41  1  0
 18 42  1  0
 19 43  1  0
 19 44  1  0
A    1
O
A    2
C2
A    3
C1
A    4
C
A    5
N
A    6
C3
A    7
C15
A    8
C7
A    9
C6
A   10
C5
A   11
C4
A   12
O1
A   13
C8
A   14
C9
A   15
C14
A   16
C13
A   17
C12
A   18
C11
A   19
C10
M  END
