4RSS_4MG_A_701
     RDKit          3D

 58 62  0  0  0  0  0  0  0  0999 V2000
  -23.4660   -4.3730  -13.8210 C   0  0  0  0  0  0  0  0  0  0  0  0
  -22.2070   -5.1250  -13.4870 N   0  0  0  0  0  0  0  0  0  0  0  0
  -22.1160   -6.0420  -12.5490 C   0  0  0  0  0  0  0  0  0  0  0  0
  -23.2580   -6.5220  -11.6660 C   0  0  0  0  0  0  0  0  0  0  0  0
  -20.8140   -6.4920  -12.5250 C   0  0  0  0  0  0  0  0  0  0  0  0
  -20.2790   -7.5710  -11.6130 C   0  0  0  0  0  0  0  0  0  0  0  0
  -20.1030   -5.7970  -13.4910 C   0  0  0  0  0  0  0  0  0  0  0  0
  -18.7770   -5.8310  -13.9190 C   0  0  0  0  0  0  0  0  0  0  0  0
  -21.0220   -4.9440  -14.0720 C   0  0  0  0  0  0  0  0  0  0  0  0
  -20.6290   -4.0940  -15.0980 C   0  0  0  0  0  0  0  0  0  0  0  0
  -19.3190   -4.1020  -15.5290 C   0  0  0  0  0  0  0  0  0  0  0  0
  -18.3700   -4.9690  -14.9480 C   0  0  0  0  0  0  0  0  0  0  0  0
  -17.1320   -4.9040  -15.4940 N   0  0  0  0  0  0  0  0  0  0  0  0
  -16.0650   -5.5850  -15.1320 C   0  0  0  0  0  0  0  0  0  0  0  0
  -16.0220   -6.3740  -14.0350 N   0  0  0  0  0  0  0  0  0  0  0  0
  -14.9620   -5.3720  -15.8470 N   0  0  0  0  0  0  0  0  0  0  0  0
  -13.8230   -5.9710  -15.5590 C   0  0  0  0  0  0  0  0  0  0  0  0
  -13.7480   -6.8480  -14.4600 C   0  0  0  0  0  0  0  0  0  0  0  0
  -14.8720   -7.0060  -13.7030 C   0  0  0  0  0  0  0  0  0  0  0  0
  -14.8800   -7.8920  -12.6830 N   0  0  0  0  0  0  0  0  0  0  0  0
  -15.9950   -8.2960  -12.0540 C   0  0  0  0  0  0  0  0  0  0  0  0
  -13.8810   -8.5450  -12.3290 N   0  0  0  0  0  0  0  0  0  0  0  0
  -14.2660   -9.3760  -11.3580 C   0  0  0  0  0  0  0  0  0  0  0  0
  -13.2970  -10.3150  -10.6460 C   0  0  0  0  0  0  0  0  0  0  0  0
  -15.6500   -9.2400  -11.1730 C   0  0  0  0  0  0  0  0  0  0  0  0
  -16.6620   -9.9730  -10.2130 C   0  0  0  0  0  0  0  0  0  0  0  0
  -17.1360  -11.1170  -10.9930 N   0  0  0  0  0  0  0  0  0  0  0  0
  -18.0820  -10.9490  -12.0810 C   0  0  0  0  0  0  0  0  0  0  0  0
  -18.2840  -11.8430  -10.3130 C   0  0  0  0  0  0  0  0  0  0  0  0
  -18.7680  -12.2190  -11.6910 C   0  0  0  0  0  0  0  0  0  0  0  0
  -20.1810  -11.9830  -11.9390 O   0  0  0  0  0  0  0  0  0  0  0  0
  -23.9706   -4.0716  -12.8912 H   0  0  0  0  0  0  0  0  0  0  0  0
  -23.2135   -3.4776  -14.4080 H   0  0  0  0  0  0  0  0  0  0  0  0
  -24.1346   -5.0198  -14.4080 H   0  0  0  0  0  0  0  0  0  0  0  0
  -22.9783   -6.4044  -10.6087 H   0  0  0  0  0  0  0  0  0  0  0  0
  -24.1587   -5.9263  -11.8754 H   0  0  0  0  0  0  0  0  0  0  0  0
  -23.4627   -7.5823  -11.8754 H   0  0  0  0  0  0  0  0  0  0  0  0
  -20.4273   -7.2720  -10.5649 H   0  0  0  0  0  0  0  0  0  0  0  0
  -20.8148   -8.5123  -11.8050 H   0  0  0  0  0  0  0  0  0  0  0  0
  -19.2054   -7.7144  -11.8050 H   0  0  0  0  0  0  0  0  0  0  0  0
  -18.0594   -6.5244  -13.4561 H   0  0  0  0  0  0  0  0  0  0  0  0
  -21.3598   -3.4172  -15.5648 H   0  0  0  0  0  0  0  0  0  0  0  0
  -19.0098   -3.4228  -16.3371 H   0  0  0  0  0  0  0  0  0  0  0  0
  -17.0121   -4.2489  -16.2798 H   0  0  0  0  0  0  0  0  0  0  0  0
  -12.9321   -5.7856  -16.1770 H   0  0  0  0  0  0  0  0  0  0  0  0
  -12.8185   -7.3854  -14.2208 H   0  0  0  0  0  0  0  0  0  0  0  0
  -17.0123   -7.9172  -12.2321 H   0  0  0  0  0  0  0  0  0  0  0  0
  -13.4117  -10.2039   -9.5577 H   0  0  0  0  0  0  0  0  0  0  0  0
  -13.5153  -11.3541  -10.9335 H   0  0  0  0  0  0  0  0  0  0  0  0
  -12.2653  -10.0641  -10.9335 H   0  0  0  0  0  0  0  0  0  0  0  0
  -16.1556  -10.3093   -9.2963 H   0  0  0  0  0  0  0  0  0  0  0  0
  -17.4829   -9.3171   -9.8875 H   0  0  0  0  0  0  0  0  0  0  0  0
  -17.6241  -10.9760  -13.0808 H   0  0  0  0  0  0  0  0  0  0  0  0
  -18.6564  -10.0158  -12.1767 H   0  0  0  0  0  0  0  0  0  0  0  0
  -18.9678  -11.1933   -9.7471 H   0  0  0  0  0  0  0  0  0  0  0  0
  -18.1118  -12.5984   -9.5322 H   0  0  0  0  0  0  0  0  0  0  0  0
  -18.6130  -13.2362  -12.0800 H   0  0  0  0  0  0  0  0  0  0  0  0
  -20.6588  -11.9032  -11.0756 H   0  0  0  0  0  0  0  0  0  0  0  0
 16 17  2  0
 16 14  1  0
 17 18  1  0
 11 10  1  0
 11 12  2  0
 13 14  1  0
 13 12  1  0
 14 15  2  0
 10  9  2  0
 12  8  1  0
 18 19  2  0
  9  7  1  0
  9  2  1  0
 15 19  1  0
  8  7  2  0
  1  2  1  0
 19 20  1  0
  7  5  1  0
  2  3  1  0
 20 22  1  0
 20 21  1  0
  3  5  2  0
  3  4  1  0
  5  6  1  0
 22 23  2  0
 28 30  1  0
 28 27  1  0
 21 25  2  0
 31 30  1  0
 30 29  1  0
 23 25  1  0
 23 24  1  0
 25 26  1  0
 27 29  1  0
 27 26  1  0
  1 32  1  0
  1 33  1  0
  1 34  1  0
  4 35  1  0
  4 36  1  0
  4 37  1  0
  6 38  1  0
  6 39  1  0
  6 40  1  0
  8 41  1  0
 10 42  1  0
 11 43  1  0
 13 44  1  0
 17 45  1  0
 18 46  1  0
 21 47  1  0
 24 48  1  0
 24 49  1  0
 24 50  1  0
 26 51  1  0
 26 52  1  0
 28 53  1  0
 28 54  1  0
 29 55  1  0
 29 56  1  0
 30 57  1  0
 31 58  1  0
A    1
CAD
A    2
NBD
A    3
CAW
A    4
CAC
A    5
CAV
A    6
CAB
A    7
CAZ
A    8
CAJ
A    9
CBA
A   10
CAI
A   11
CAH
A   12
CAS
A   13
NAP
A   14
C2
A   15
N3
A   16
N1
A   17
C6
A   18
C5
A   19
C4
A   20
NBE
A   21
CAK
A   22
NAO
A   23
CAT
A   24
CAA
A   25
CAU
A   26
CAL
A   27
NBC
A   28
CAN
A   29
CAM
A   30
CBB
A   31
OAE
M  END
