4RT3_C6T_A_408
     RDKit          3D

 49 50  0  0  0  0  0  0  0  0999 V2000
   10.7540    7.7230   11.0030 O   0  0  0  0  0  0  0  0  0  0  0  0
    9.3840    7.7050   10.7800 C   0  0  0  0  0  0  0  0  0  0  0  0
    8.5470    7.2680   11.8200 C   0  0  0  0  0  0  0  0  0  0  0  0
    9.1100    6.8120   13.1640 C   0  0  0  0  0  0  0  0  0  0  0  0
    7.1640    7.2330   11.5540 C   0  0  0  0  0  0  0  0  0  0  0  0
    8.8820    8.0980    9.5900 N   0  0  0  0  0  0  0  0  0  0  0  0
    7.5690    8.0490    9.4170 C   0  0  0  0  0  0  0  0  0  0  0  0
    7.1230    8.3890    8.3430 O   0  0  0  0  0  0  0  0  0  0  0  0
    6.7150    7.6400   10.3550 N   0  0  0  0  0  0  0  0  0  0  0  0
    5.2900    7.5590   10.0780 C   0  0  0  0  0  0  0  0  0  0  0  0
    5.0020    6.3400    9.7050 C   0  0  0  0  0  0  0  0  0  0  0  0
    4.4590    5.6060   10.9340 C   0  0  0  0  0  0  0  0  0  0  0  0
    3.6890    4.4740   10.6480 O   0  0  0  0  0  0  0  0  0  0  0  0
    4.4640    7.7840   11.4130 O   0  0  0  0  0  0  0  0  0  0  0  0
    3.6880    6.7640   11.5830 C   0  0  0  0  0  0  0  0  0  0  0  0
    3.4410    6.5030   13.1130 C   0  0  0  0  0  0  0  0  0  0  0  0
    4.7090    6.5160   13.7690 O   0  0  0  0  0  0  0  0  0  0  0  0
    5.0450    5.3440   14.7970 P   0  0  0  0  0  0  0  0  0  0  0  0
    3.9080    5.3010   15.8110 O   0  0  0  0  0  0  0  0  0  0  0  0
    6.3590    5.6840   15.4580 O   0  0  0  0  0  0  0  0  0  0  0  0
    5.1540    3.9200   13.9080 N   0  0  0  0  0  0  0  0  0  0  0  0
    4.0040    2.6840   13.8000 P   0  0  0  0  0  0  0  0  0  0  0  0
    3.9590    2.2320   12.2670 O   0  0  0  0  0  0  0  0  0  0  0  0
    2.6110    3.1170   14.3790 O   0  0  0  0  0  0  0  0  0  0  0  0
    4.6340    1.2430   14.7440 C   0  0  0  0  0  0  0  0  0  0  0  0
    4.1290    1.1540   16.5000 P   0  0  0  0  0  0  0  0  0  0  0  0
    2.8920    0.3090   16.5730 O   0  0  0  0  0  0  0  0  0  0  0  0
    5.2050    0.5470   17.3650 O   0  0  0  0  0  0  0  0  0  0  0  0
    3.8080    2.5830   16.9040 O   0  0  0  0  0  0  0  0  0  0  0  0
    8.5358    7.2771   13.9789 H   0  0  0  0  0  0  0  0  0  0  0  0
    9.0346    5.7173   13.2407 H   0  0  0  0  0  0  0  0  0  0  0  0
   10.1652    7.1131   13.2407 H   0  0  0  0  0  0  0  0  0  0  0  0
    6.4594    6.8763   12.3197 H   0  0  0  0  0  0  0  0  0  0  0  0
    9.5028    8.4271    8.8368 H   0  0  0  0  0  0  0  0  0  0  0  0
    5.0455    8.3113    9.3136 H   0  0  0  0  0  0  0  0  0  0  0  0
    4.2412    6.3589    8.9108 H   0  0  0  0  0  0  0  0  0  0  0  0
    5.8939    5.8320    9.3096 H   0  0  0  0  0  0  0  0  0  0  0  0
    5.2235    5.1413   11.5740 H   0  0  0  0  0  0  0  0  0  0  0  0
    3.4000    4.0491   11.4942 H   0  0  0  0  0  0  0  0  0  0  0  0
    2.6905    6.9027   11.1406 H   0  0  0  0  0  0  0  0  0  0  0  0
    2.7971    7.2924   13.5279 H   0  0  0  0  0  0  0  0  0  0  0  0
    2.9419    5.5341   13.2615 H   0  0  0  0  0  0  0  0  0  0  0  0
    4.2824    5.3152   16.7274 H   0  0  0  0  0  0  0  0  0  0  0  0
    6.0060    3.4572   14.2557 H   0  0  0  0  0  0  0  0  0  0  0  0
    2.6469    3.1058   15.3683 H   0  0  0  0  0  0  0  0  0  0  0  0
    4.2768    0.3306   14.2441 H   0  0  0  0  0  0  0  0  0  0  0  0
    5.7287    1.3503   14.7546 H   0  0  0  0  0  0  0  0  0  0  0  0
    4.9742    0.6772   18.3189 H   0  0  0  0  0  0  0  0  0  0  0  0
    3.7927    2.6512   17.8915 H   0  0  0  0  0  0  0  0  0  0  0  0
  8  7  2  0
  7  6  1  0
  7  9  1  0
  6  2  1  0
 11 10  1  0
 11 12  1  0
 10  9  1  0
 10 14  1  0
  9  5  1  0
 13 12  1  0
  2  1  2  0
  2  3  1  0
 12 15  1  0
 14 15  1  0
  5  3  2  0
 15 16  1  0
  3  4  1  0
 23 22  2  0
 16 17  1  0
 17 18  1  0
 22 21  1  0
 22 24  1  0
 22 25  1  0
 21 18  1  0
 25 26  1  0
 18 20  2  0
 18 19  1  0
 26 27  2  0
 26 29  1  0
 26 28  1  0
  4 30  1  0
  4 31  1  0
  4 32  1  0
  5 33  1  0
  6 34  1  0
 10 35  1  0
 11 36  1  0
 11 37  1  0
 12 38  1  0
 13 39  1  0
 15 40  1  0
 16 41  1  0
 16 42  1  0
 19 43  1  0
 21 44  1  0
 24 45  1  0
 25 46  1  0
 25 47  1  0
 28 48  1  0
 29 49  1  0
A    1
O4
A    2
C4
A    3
C5
A    4
C7
A    5
C6
A    6
N3
A    7
C2
A    8
O2
A    9
N1
A   10
C1'
A   11
C2'
A   12
C3'
A   13
O3'
A   14
O4'
A   15
C4'
A   16
C5'
A   17
O5'
A   18
PA
A   19
O1A
A   20
O2A
A   21
N3A
A   22
PB
A   23
O1B
A   24
O2B
A   25
C3B
A   26
PG
A   27
O2G
A   28
O1G
A   29
O3G
M  END
