3O1E_H97_A_1
     RDKit          3D

 85 87  0  0  0  0  0  0  0  0999 V2000
    2.5920   39.8270   38.6990 C   0  0  0  0  0  0  0  0  0  0  0  0
    3.7340   27.2720   32.1910 F   0  0  0  0  0  0  0  0  0  0  0  0
    3.9740   39.8970   38.3160 O   0  0  0  0  0  0  0  0  0  0  0  0
    1.8760   41.0540   38.1540 C   0  0  0  0  0  0  0  0  0  0  0  0
    2.3940   28.2910   33.5460 F   0  0  0  0  0  0  0  0  0  0  0  0
    0.2910   41.0900   39.9420 O   0  0  0  0  0  0  0  0  0  0  0  0
    0.4040   41.0280   38.5230 C   0  0  0  0  0  0  0  0  0  0  0  0
    3.3090   29.4460   31.9610 F   0  0  0  0  0  0  0  0  0  0  0  0
    5.2020   27.3660   33.9220 O   0  0  0  0  0  0  0  0  0  0  0  0
   -0.3060   39.7710   37.9870 C   0  0  0  0  0  0  0  0  0  0  0  0
    5.8020   28.7780   31.6680 F   0  0  0  0  0  0  0  0  0  0  0  0
    2.3390   25.6380   39.6040 O   0  0  0  0  0  0  0  0  0  0  0  0
    0.4860   38.5200   38.2870 C   0  0  0  0  0  0  0  0  0  0  0  0
    6.8010   29.4680   33.4720 F   0  0  0  0  0  0  0  0  0  0  0  0
   -0.1540   37.3880   38.6530 C   0  0  0  0  0  0  0  0  0  0  0  0
    5.1760   30.6210   32.4840 F   0  0  0  0  0  0  0  0  0  0  0  0
    0.5510   36.1350   38.9610 C   0  0  0  0  0  0  0  0  0  0  0  0
   -0.0860   34.9550   38.8690 C   0  0  0  0  0  0  0  0  0  0  0  0
   -1.5260   34.8760   38.4020 C   0  0  0  0  0  0  0  0  0  0  0  0
    1.9850   38.5520   38.1290 C   0  0  0  0  0  0  0  0  0  0  0  0
   -1.6090   33.9140   37.2110 C   0  0  0  0  0  0  0  0  0  0  0  0
   -0.8640   32.5900   37.4150 C   0  0  0  0  0  0  0  0  0  0  0  0
    0.5690   32.8290   37.8580 C   0  0  0  0  0  0  0  0  0  0  0  0
    0.5420   33.6170   39.1540 C   0  0  0  0  0  0  0  0  0  0  0  0
    1.9810   33.5490   39.6460 C   0  0  0  0  0  0  0  0  0  0  0  0
    2.4820   32.1920   39.1300 C   0  0  0  0  0  0  0  0  0  0  0  0
    1.3640   31.5970   38.2660 C   0  0  0  0  0  0  0  0  0  0  0  0
    1.3450   33.6400   36.8240 C   0  0  0  0  0  0  0  0  0  0  0  0
    1.8590   30.6880   37.1290 C   0  0  0  0  0  0  0  0  0  0  0  0
    3.3720   30.7770   36.9520 C   0  0  0  0  0  0  0  0  0  0  0  0
    3.8330   30.0260   35.7760 C   0  0  0  0  0  0  0  0  0  0  0  0
    4.2070   29.4210   34.8270 C   0  0  0  0  0  0  0  0  0  0  0  0
    4.6680   28.6630   33.6460 C   0  0  0  0  0  0  0  0  0  0  0  0
    5.6550   29.4320   32.8010 C   0  0  0  0  0  0  0  0  0  0  0  0
    3.4670   28.4170   32.7900 C   0  0  0  0  0  0  0  0  0  0  0  0
    1.4380   29.2230   37.3590 C   0  0  0  0  0  0  0  0  0  0  0  0
    2.3600   28.4050   38.2920 C   0  0  0  0  0  0  0  0  0  0  0  0
    1.7330   28.0000   39.6350 C   0  0  0  0  0  0  0  0  0  0  0  0
    2.4290   26.8440   40.3710 C   0  0  0  0  0  0  0  0  0  0  0  0
    1.7690   26.5640   41.7130 C   0  0  0  0  0  0  0  0  0  0  0  0
    3.8940   27.1470   40.6270 C   0  0  0  0  0  0  0  0  0  0  0  0
    2.4897   39.8074   39.7941 H   0  0  0  0  0  0  0  0  0  0  0  0
    4.5403   39.9257   39.1275 H   0  0  0  0  0  0  0  0  0  0  0  0
    2.3378   41.9584   38.5769 H   0  0  0  0  0  0  0  0  0  0  0  0
    1.9644   41.0555   37.0576 H   0  0  0  0  0  0  0  0  0  0  0  0
    1.0798   40.6572   40.3551 H   0  0  0  0  0  0  0  0  0  0  0  0
   -0.0888   41.8949   38.0587 H   0  0  0  0  0  0  0  0  0  0  0  0
    5.2567   27.2332   34.9015 H   0  0  0  0  0  0  0  0  0  0  0  0
   -1.2958   39.6900   38.4601 H   0  0  0  0  0  0  0  0  0  0  0  0
   -0.4016   39.8666   36.8953 H   0  0  0  0  0  0  0  0  0  0  0  0
    2.2811   24.8616   40.2155 H   0  0  0  0  0  0  0  0  0  0  0  0
   -1.2516   37.4044   38.7238 H   0  0  0  0  0  0  0  0  0  0  0  0
    1.6067   36.1635   39.2687 H   0  0  0  0  0  0  0  0  0  0  0  0
   -2.1601   34.5055   39.2209 H   0  0  0  0  0  0  0  0  0  0  0  0
   -1.8755   35.8744   38.1001 H   0  0  0  0  0  0  0  0  0  0  0  0
    2.2306   38.4895   37.0586 H   0  0  0  0  0  0  0  0  0  0  0  0
    2.4032   37.6992   38.6838 H   0  0  0  0  0  0  0  0  0  0  0  0
   -2.6692   33.6873   37.0247 H   0  0  0  0  0  0  0  0  0  0  0  0
   -1.1241   34.4203   36.3634 H   0  0  0  0  0  0  0  0  0  0  0  0
   -1.3839   32.0006   38.1846 H   0  0  0  0  0  0  0  0  0  0  0  0
   -0.8470   32.0486   36.4576 H   0  0  0  0  0  0  0  0  0  0  0  0
   -0.0832   33.2451   39.9791 H   0  0  0  0  0  0  0  0  0  0  0  0
    2.5778   34.3722   39.2263 H   0  0  0  0  0  0  0  0  0  0  0  0
    2.0614   33.6441   40.7389 H   0  0  0  0  0  0  0  0  0  0  0  0
    3.3917   32.3301   38.5272 H   0  0  0  0  0  0  0  0  0  0  0  0
    2.7285   31.5219   39.9668 H   0  0  0  0  0  0  0  0  0  0  0  0
    0.7310   30.8712   38.7975 H   0  0  0  0  0  0  0  0  0  0  0  0
    2.0172   34.3425   37.3383 H   0  0  0  0  0  0  0  0  0  0  0  0
    1.9375   32.9601   36.1942 H   0  0  0  0  0  0  0  0  0  0  0  0
    0.6396   34.2019   36.1942 H   0  0  0  0  0  0  0  0  0  0  0  0
    1.3845   31.0480   36.2042 H   0  0  0  0  0  0  0  0  0  0  0  0
    3.6541   31.8334   36.8319 H   0  0  0  0  0  0  0  0  0  0  0  0
    3.8451   30.3380   37.8428 H   0  0  0  0  0  0  0  0  0  0  0  0
    0.4287   29.2250   37.7964 H   0  0  0  0  0  0  0  0  0  0  0  0
    1.4935   28.7345   36.3750 H   0  0  0  0  0  0  0  0  0  0  0  0
    2.6533   27.4868   37.7620 H   0  0  0  0  0  0  0  0  0  0  0  0
    3.2094   29.0602   38.5352 H   0  0  0  0  0  0  0  0  0  0  0  0
    1.7490   28.8798   40.2950 H   0  0  0  0  0  0  0  0  0  0  0  0
    0.7209   27.6400   39.3982 H   0  0  0  0  0  0  0  0  0  0  0  0
    2.4520   26.8538   42.5251 H   0  0  0  0  0  0  0  0  0  0  0  0
    0.8381   27.1447   41.7921 H   0  0  0  0  0  0  0  0  0  0  0  0
    1.5397   25.4911   41.7921 H   0  0  0  0  0  0  0  0  0  0  0  0
    4.0766   27.1848   41.7111 H   0  0  0  0  0  0  0  0  0  0  0  0
    4.5155   26.3584   40.1777 H   0  0  0  0  0  0  0  0  0  0  0  0
    4.1517   28.1174   40.1777 H   0  0  0  0  0  0  0  0  0  0  0  0
 20  1  1  0
  4  1  1  0
  3  1  1  0
  2 35  1  0
  4  7  1  0
 35  5  1  0
  7  6  1  0
 10  7  1  0
  8 35  1  0
 33  9  1  0
 10 13  1  0
 11 34  1  0
 12 39  1  0
 20 13  1  0
 13 15  2  0
 34 14  1  0
 15 17  1  0
 16 34  1  0
 18 17  2  0
 19 18  1  0
 18 24  1  0
 21 19  1  0
 21 22  1  0
 22 23  1  0
 28 23  1  0
 23 27  1  0
 23 24  1  0
 24 25  1  0
 26 25  1  0
 27 26  1  0
 29 27  1  0
 30 29  1  0
 29 36  1  0
 31 30  1  0
 32 31  3  0
 33 32  1  0
 35 33  1  0
 34 33  1  0
 36 37  1  0
 37 38  1  0
 38 39  1  0
 39 41  1  0
 39 40  1  0
  1 42  1  0
  3 43  1  0
  4 44  1  0
  4 45  1  0
  6 46  1  0
  7 47  1  0
  9 48  1  0
 10 49  1  0
 10 50  1  0
 12 51  1  0
 15 52  1  0
 17 53  1  0
 19 54  1  0
 19 55  1  0
 20 56  1  0
 20 57  1  0
 21 58  1  0
 21 59  1  0
 22 60  1  0
 22 61  1  0
 24 62  1  0
 25 63  1  0
 25 64  1  0
 26 65  1  0
 26 66  1  0
 27 67  1  0
 28 68  1  0
 28 69  1  0
 28 70  1  0
 29 71  1  0
 30 72  1  0
 30 73  1  0
 36 74  1  0
 36 75  1  0
 37 76  1  0
 37 77  1  0
 38 78  1  0
 38 79  1  0
 40 80  1  0
 40 81  1  0
 40 82  1  0
 41 83  1  0
 41 84  1  0
 41 85  1  0
A    1
C1
A    2
F1
A    3
O1
A    4
C2
A    5
F2
A    6
O2
A    7
C3
A    8
F3
A    9
O3
A   10
C4
A   11
F4
A   12
O4
A   13
C5
A   14
F5
A   15
C6
A   16
F6
A   17
C7
A   18
C8
A   19
C9
A   20
C10
A   21
C11
A   22
C12
A   23
C13
A   24
C14
A   25
C15
A   26
C16
A   27
C17
A   28
C18
A   29
C20
A   30
C21
A   31
C22
A   32
C23
A   33
C24
A   34
C25
A   35
C26
A   36
C27
A   37
C28
A   38
C29
A   39
C30
A   40
C31
A   41
C32
M  END
