4RV8_I13_A_501
     RDKit          3D

 54 55  0  0  0  0  0  0  0  0999 V2000
    6.7780   24.2340   77.5550 C   0  0  0  0  0  0  0  0  0  0  0  0
    7.3180   24.4810   76.1520 C   0  0  0  0  0  0  0  0  0  0  0  0
    7.7570   24.7630   78.5950 C   0  0  0  0  0  0  0  0  0  0  0  0
    4.3650   24.6570   77.0940 C   0  0  0  0  0  0  0  0  0  0  0  0
    2.1170   25.5250   76.8280 C   0  0  0  0  0  0  0  0  0  0  0  0
    1.8770   25.0050   75.5580 C   0  0  0  0  0  0  0  0  0  0  0  0
    0.6660   25.2260   74.9130 C   0  0  0  0  0  0  0  0  0  0  0  0
    5.5050   24.9210   77.7430 N   0  0  0  0  0  0  0  0  0  0  0  0
    3.2860   25.3430   77.5020 N   0  0  0  0  0  0  0  0  0  0  0  0
    0.4450   24.6940   73.6380 N   0  0  0  0  0  0  0  0  0  0  0  0
   -0.0970   26.5000   76.7930 C   0  0  0  0  0  0  0  0  0  0  0  0
   -0.3180   25.9760   75.5230 C   0  0  0  0  0  0  0  0  0  0  0  0
    1.1020   23.5280   73.2520 O   0  0  0  0  0  0  0  0  0  0  0  0
   -0.4200   25.3300   72.7500 O   0  0  0  0  0  0  0  0  0  0  0  0
   -1.8650   26.2510   74.6580 Cl  0  0  0  0  0  0  0  0  0  0  0  0
    1.1180   26.2790   77.4340 C   0  0  0  0  0  0  0  0  0  0  0  0
    4.3320   23.8150   76.2050 O   0  0  0  0  0  0  0  0  0  0  0  0
    6.6650   22.7500   77.7850 C   0  0  0  0  0  0  0  0  0  0  0  0
    5.7260   22.2390   78.6770 C   0  0  0  0  0  0  0  0  0  0  0  0
    5.6330   20.8700   78.8980 C   0  0  0  0  0  0  0  0  0  0  0  0
    6.4810   19.9980   78.2240 C   0  0  0  0  0  0  0  0  0  0  0  0
    7.4250   20.5030   77.3340 C   0  0  0  0  0  0  0  0  0  0  0  0
    7.5210   21.8760   77.1200 C   0  0  0  0  0  0  0  0  0  0  0  0
    4.6010   20.3370   79.8470 C   0  0  0  0  0  0  0  0  0  0  0  0
    3.9150   21.2320   80.8420 C   0  0  0  0  0  0  0  0  0  0  0  0
    4.2610   19.1230   79.8060 N   0  0  0  0  0  0  0  0  0  0  0  0
    3.3850   18.6790   80.5890 O   0  0  0  0  0  0  0  0  0  0  0  0
    2.8300   17.3780   80.3820 C   0  0  0  0  0  0  0  0  0  0  0  0
    1.4530   17.3000   81.0360 C   0  0  0  0  0  0  0  0  0  0  0  0
    1.5570   17.6920   82.4510 N   0  0  0  0  0  0  0  0  0  0  0  0
    8.3165   24.9377   76.2186 H   0  0  0  0  0  0  0  0  0  0  0  0
    7.3873   23.5251   75.6122 H   0  0  0  0  0  0  0  0  0  0  0  0
    6.6401   25.1586   75.6122 H   0  0  0  0  0  0  0  0  0  0  0  0
    7.3697   24.5537   79.6031 H   0  0  0  0  0  0  0  0  0  0  0  0
    8.7311   24.2685   78.4665 H   0  0  0  0  0  0  0  0  0  0  0  0
    7.8772   25.8488   78.4665 H   0  0  0  0  0  0  0  0  0  0  0  0
    2.6569   24.4112   75.0588 H   0  0  0  0  0  0  0  0  0  0  0  0
    5.4815   25.6793   78.4396 H   0  0  0  0  0  0  0  0  0  0  0  0
    3.3495   25.7821   78.4315 H   0  0  0  0  0  0  0  0  0  0  0  0
   -0.8823   27.0886   77.2898 H   0  0  0  0  0  0  0  0  0  0  0  0
    1.2905   26.7062   78.4329 H   0  0  0  0  0  0  0  0  0  0  0  0
    5.0520   22.9247   79.2114 H   0  0  0  0  0  0  0  0  0  0  0  0
    6.4062   18.9137   78.3933 H   0  0  0  0  0  0  0  0  0  0  0  0
    8.0967   19.8160   76.7985 H   0  0  0  0  0  0  0  0  0  0  0  0
    8.2753   22.2710   76.4236 H   0  0  0  0  0  0  0  0  0  0  0  0
    4.1652   20.9056   81.8622 H   0  0  0  0  0  0  0  0  0  0  0  0
    4.2519   22.2689   80.6958 H   0  0  0  0  0  0  0  0  0  0  0  0
    2.8262   21.1761   80.6958 H   0  0  0  0  0  0  0  0  0  0  0  0
    2.7342   17.1881   79.3028 H   0  0  0  0  0  0  0  0  0  0  0  0
    3.4915   16.6225   80.8310 H   0  0  0  0  0  0  0  0  0  0  0  0
    0.7619   17.9806   80.5172 H   0  0  0  0  0  0  0  0  0  0  0  0
    1.0738   16.2696   80.9687 H   0  0  0  0  0  0  0  0  0  0  0  0
    1.3419   16.8811   83.0486 H   0  0  0  0  0  0  0  0  0  0  0  0
    2.5138   18.0189   82.6473 H   0  0  0  0  0  0  0  0  0  0  0  0
 14 10  1  0
 13 10  2  0
 10  7  1  0
 15 12  1  0
  7 12  1  0
  7  6  2  0
 12 11  2  0
  6  5  1  0
  2  1  1  0
 17  4  2  0
 11 16  1  0
  5 16  2  0
  5  9  1  0
  4  9  1  0
  4  8  1  0
 23 22  2  0
 23 18  1  0
 22 21  1  0
  1  8  1  0
  1 18  1  0
  1  3  1  0
 18 19  2  0
 21 20  2  0
 19 20  1  0
 20 24  1  0
 26 24  2  0
 26 27  1  0
 24 25  1  0
 28 27  1  0
 28 29  1  0
 29 30  1  0
  2 31  1  0
  2 32  1  0
  2 33  1  0
  3 34  1  0
  3 35  1  0
  3 36  1  0
  6 37  1  0
  8 38  1  0
  9 39  1  0
 11 40  1  0
 16 41  1  0
 19 42  1  0
 21 43  1  0
 22 44  1  0
 23 45  1  0
 25 46  1  0
 25 47  1  0
 25 48  1  0
 28 49  1  0
 28 50  1  0
 29 51  1  0
 29 52  1  0
 30 53  1  0
 30 54  1  0
M  CHG  2  10   1  14  -1
A    1
C1
A    2
C2
A    3
C3
A    4
C4
A    5
C5
A    6
C6
A    7
C7
A    8
N1
A    9
N2
A   10
N3
A   11
C9
A   12
C8
A   13
O1
A   14
O2
A   15
CL
A   16
C10
A   17
O
A   18
C12
A   19
C17
A   20
C16
A   21
C15
A   22
C14
A   23
C13
A   24
C18
A   25
C19
A   26
N4
A   27
O3
A   28
C47
A   29
C48
A   30
N5
M  END
