4RVM_3X7_A_301
     RDKit          3D

 49 53  0  0  0  0  0  0  0  0999 V2000
    9.0570    6.0230   15.1900 N   0  0  0  0  0  0  0  0  0  0  0  0
    8.5810    6.7500   15.9920 C   0  0  0  0  0  0  0  0  0  0  0  0
    7.9840    7.5540   16.8250 C   0  0  0  0  0  0  0  0  0  0  0  0
    8.6990    8.6070   17.2940 N   0  0  0  0  0  0  0  0  0  0  0  0
    8.1980    9.4940   18.1270 C   0  0  0  0  0  0  0  0  0  0  0  0
    6.8790    9.3920   18.5360 C   0  0  0  0  0  0  0  0  0  0  0  0
    6.6370    7.4050   17.2040 C   0  0  0  0  0  0  0  0  0  0  0  0
    6.0910    8.3550   18.0780 C   0  0  0  0  0  0  0  0  0  0  0  0
    4.8270    8.4930   18.6390 C   0  0  0  0  0  0  0  0  0  0  0  0
    3.6290    7.7840   18.5430 C   0  0  0  0  0  0  0  0  0  0  0  0
    2.5280    8.3020   19.3000 C   0  0  0  0  0  0  0  0  0  0  0  0
    2.6750    9.4640   20.0550 C   0  0  0  0  0  0  0  0  0  0  0  0
    3.8280   10.1170   20.1110 N   0  0  0  0  0  0  0  0  0  0  0  0
    4.8710    9.6240   19.4340 C   0  0  0  0  0  0  0  0  0  0  0  0
    6.1130   10.1580   19.3600 N   0  0  0  0  0  0  0  0  0  0  0  0
    1.1760    7.6760   19.2850 C   0  0  0  0  0  0  0  0  0  0  0  0
    0.7700    6.9360   18.1570 C   0  0  0  0  0  0  0  0  0  0  0  0
   -0.5050    6.3620   18.1180 C   0  0  0  0  0  0  0  0  0  0  0  0
    0.2720    7.8640   20.3490 C   0  0  0  0  0  0  0  0  0  0  0  0
   -0.9960    7.2910   20.3070 C   0  0  0  0  0  0  0  0  0  0  0  0
   -1.3840    6.5330   19.2030 C   0  0  0  0  0  0  0  0  0  0  0  0
   -2.7600    5.9090   19.1940 C   0  0  0  0  0  0  0  0  0  0  0  0
   -2.7350    4.5080   19.6840 N   0  0  0  0  0  0  0  0  0  0  0  0
   -1.9970    3.6240   18.7620 C   0  0  0  0  0  0  0  0  0  0  0  0
   -2.1980    2.1820   19.1960 C   0  0  0  0  0  0  0  0  0  0  0  0
   -1.7030    1.9870   20.6280 C   0  0  0  0  0  0  0  0  0  0  0  0
   -2.3460    2.9910   21.5850 C   0  0  0  0  0  0  0  0  0  0  0  0
   -2.1930    4.4150   21.0650 C   0  0  0  0  0  0  0  0  0  0  0  0
    8.8270   10.3165   18.4984 H   0  0  0  0  0  0  0  0  0  0  0  0
    6.0310    6.5684   16.8259 H   0  0  0  0  0  0  0  0  0  0  0  0
    3.5352    6.8805   17.9226 H   0  0  0  0  0  0  0  0  0  0  0  0
    1.8128    9.8495   20.6189 H   0  0  0  0  0  0  0  0  0  0  0  0
    6.4278   11.0080   19.8491 H   0  0  0  0  0  0  0  0  0  0  0  0
    1.4560    6.8095   17.3065 H   0  0  0  0  0  0  0  0  0  0  0  0
   -0.8198    5.7780   17.2406 H   0  0  0  0  0  0  0  0  0  0  0  0
    0.5701    8.4677   21.2189 H   0  0  0  0  0  0  0  0  0  0  0  0
   -1.6926    7.4364   21.1458 H   0  0  0  0  0  0  0  0  0  0  0  0
   -3.4232    6.5007   19.8421 H   0  0  0  0  0  0  0  0  0  0  0  0
   -3.1242    5.9010   18.1561 H   0  0  0  0  0  0  0  0  0  0  0  0
   -0.9258    3.8723   18.7906 H   0  0  0  0  0  0  0  0  0  0  0  0
   -2.3707    3.7600   17.7364 H   0  0  0  0  0  0  0  0  0  0  0  0
   -3.2682    1.9331   19.1447 H   0  0  0  0  0  0  0  0  0  0  0  0
   -1.6261    1.5230   18.5262 H   0  0  0  0  0  0  0  0  0  0  0  0
   -1.9542    0.9680   20.9573 H   0  0  0  0  0  0  0  0  0  0  0  0
   -0.6146    2.1459   20.6415 H   0  0  0  0  0  0  0  0  0  0  0  0
   -3.4163    2.7577   21.6856 H   0  0  0  0  0  0  0  0  0  0  0  0
   -1.8427    2.9178   22.5604 H   0  0  0  0  0  0  0  0  0  0  0  0
   -1.1276    4.6888   21.0583 H   0  0  0  0  0  0  0  0  0  0  0  0
   -2.7484    5.1024   21.7201 H   0  0  0  0  0  0  0  0  0  0  0  0
  1  2  3  0
  2  3  1  0
  3  7  2  0
  3  4  1  0
  7  8  1  0
  4  5  2  0
  8  6  2  0
  8  9  1  0
 18 17  2  0
 18 21  1  0
  5  6  1  0
 17 16  1  0
  6 15  1  0
 10  9  2  0
 10 11  1  0
  9 14  1  0
 24 25  1  0
 24 23  1  0
 22 21  1  0
 22 23  1  0
 25 26  1  0
 21 20  2  0
 16 11  1  0
 16 19  2  0
 11 12  2  0
 15 14  1  0
 14 13  2  0
 23 28  1  0
 12 13  1  0
 20 19  1  0
 26 27  1  0
 28 27  1  0
  5 29  1  0
  7 30  1  0
 10 31  1  0
 12 32  1  0
 15 33  1  0
 17 34  1  0
 18 35  1  0
 19 36  1  0
 20 37  1  0
 22 38  1  0
 22 39  1  0
 24 40  1  0
 24 41  1  0
 25 42  1  0
 25 43  1  0
 26 44  1  0
 26 45  1  0
 27 46  1  0
 27 47  1  0
 28 48  1  0
 28 49  1  0
A    1
N5
A    2
C18
A    3
C6
A    4
N2
A    5
C7
A    6
C3
A    7
C5
A    8
C2
A    9
C1
A   10
C10
A   11
C9
A   12
C8
A   13
N3
A   14
C4
A   15
N1
A   16
C14
A   17
C13
A   18
C12
A   19
C15
A   20
C16
A   21
C11
A   22
C17
A   23
N4
A   24
C23
A   25
C22
A   26
C21
A   27
C20
A   28
C19
M  END
