4RVR_3WQ_A_2001
     RDKit          3D

 47 49  0  0  0  0  0  0  0  0999 V2000
   75.2430   44.4920    0.3470 C   0  0  0  0  0  0  0  0  0  0  0  0
   74.1740   44.4640   -0.7600 C   0  0  0  0  0  0  0  0  0  0  0  0
   73.4920   43.0660   -0.7930 C   0  0  0  0  0  0  0  0  0  0  0  0
   72.0710   43.2330   -1.0180 O   0  0  0  0  0  0  0  0  0  0  0  0
   71.2550   42.1170   -0.9640 C   0  0  0  0  0  0  0  0  0  0  0  0
   71.7400   40.7980   -0.7840 C   0  0  0  0  0  0  0  0  0  0  0  0
   70.8790   39.7590   -0.7440 C   0  0  0  0  0  0  0  0  0  0  0  0
   69.8880   42.3500   -1.1150 C   0  0  0  0  0  0  0  0  0  0  0  0
   69.0130   41.2840   -1.0950 C   0  0  0  0  0  0  0  0  0  0  0  0
   69.5610   39.9930   -0.8930 N   0  0  0  0  0  0  0  0  0  0  0  0
   68.8770   38.8100   -0.8640 C   0  0  0  0  0  0  0  0  0  0  0  0
   67.4870   38.7120   -0.9780 C   0  0  0  0  0  0  0  0  0  0  0  0
   66.7180   39.6920   -1.1200 O   0  0  0  0  0  0  0  0  0  0  0  0
   66.8560   37.3220   -0.9030 C   0  0  0  0  0  0  0  0  0  0  0  0
   69.8040   37.8350   -0.6680 C   0  0  0  0  0  0  0  0  0  0  0  0
   71.0440   38.4320   -0.6150 C   0  0  0  0  0  0  0  0  0  0  0  0
   72.2540   37.7890   -0.5230 C   0  0  0  0  0  0  0  0  0  0  0  0
   72.9370   37.5320   -1.7130 C   0  0  0  0  0  0  0  0  0  0  0  0
   74.1530   36.8470   -1.7660 C   0  0  0  0  0  0  0  0  0  0  0  0
   74.7430   36.3560   -0.6090 C   0  0  0  0  0  0  0  0  0  0  0  0
   74.0800   36.5990    0.5880 C   0  0  0  0  0  0  0  0  0  0  0  0
   72.8690   37.2950    0.6450 C   0  0  0  0  0  0  0  0  0  0  0  0
   72.1540   37.4790    2.2470 S   0  0  0  0  0  0  0  0  0  0  0  0
   73.2870   37.1310    3.1640 O   0  0  0  0  0  0  0  0  0  0  0  0
   71.7020   38.8580    2.4370 O   0  0  0  0  0  0  0  0  0  0  0  0
   70.8400   36.2880    2.4150 C   0  0  0  0  0  0  0  0  0  0  0  0
   74.7520   44.4791    1.3313 H   0  0  0  0  0  0  0  0  0  0  0  0
   75.8940   43.6106    0.2504 H   0  0  0  0  0  0  0  0  0  0  0  0
   75.8470   45.4063    0.2504 H   0  0  0  0  0  0  0  0  0  0  0  0
   74.6487   44.6626   -1.7322 H   0  0  0  0  0  0  0  0  0  0  0  0
   73.4164   45.2349   -0.5553 H   0  0  0  0  0  0  0  0  0  0  0  0
   73.6546   42.5549    0.1674 H   0  0  0  0  0  0  0  0  0  0  0  0
   73.9257   42.4630   -1.6044 H   0  0  0  0  0  0  0  0  0  0  0  0
   72.8202   40.6202   -0.6766 H   0  0  0  0  0  0  0  0  0  0  0  0
   69.5112   43.3748   -1.2488 H   0  0  0  0  0  0  0  0  0  0  0  0
   67.9313   41.4304   -1.2307 H   0  0  0  0  0  0  0  0  0  0  0  0
   66.7257   37.0349    0.1508 H   0  0  0  0  0  0  0  0  0  0  0  0
   65.8763   37.3366   -1.4029 H   0  0  0  0  0  0  0  0  0  0  0  0
   67.5119   36.5941   -1.4029 H   0  0  0  0  0  0  0  0  0  0  0  0
   69.5996   36.7587   -0.5691 H   0  0  0  0  0  0  0  0  0  0  0  0
   72.4955   37.8867   -2.6560 H   0  0  0  0  0  0  0  0  0  0  0  0
   74.6492   36.6947   -2.7359 H   0  0  0  0  0  0  0  0  0  0  0  0
   75.6918   35.8001   -0.6385 H   0  0  0  0  0  0  0  0  0  0  0  0
   74.5242   36.2304    1.5244 H   0  0  0  0  0  0  0  0  0  0  0  0
   70.6420   36.1085    3.4820 H   0  0  0  0  0  0  0  0  0  0  0  0
   69.9301   36.6755    1.9333 H   0  0  0  0  0  0  0  0  0  0  0  0
   71.1365   35.3445    1.9333 H   0  0  0  0  0  0  0  0  0  0  0  0
 19 18  2  0
 19 20  1  0
 18 17  1  0
 13 12  2  0
  8  9  2  0
  8  5  1  0
  9 10  1  0
  4  5  1  0
  4  3  1  0
 12 14  1  0
 12 11  1  0
  5  6  2  0
 10 11  1  0
 10  7  1  0
 11 15  2  0
  3  2  1  0
  6  7  1  0
  2  1  1  0
  7 16  2  0
 15 16  1  0
 16 17  1  0
 20 21  2  0
 17 22  2  0
 21 22  1  0
 22 23  1  0
 23 26  1  0
 23 25  2  0
 23 24  2  0
  1 27  1  0
  1 28  1  0
  1 29  1  0
  2 30  1  0
  2 31  1  0
  3 32  1  0
  3 33  1  0
  6 34  1  0
  8 35  1  0
  9 36  1  0
 14 37  1  0
 14 38  1  0
 14 39  1  0
 15 40  1  0
 18 41  1  0
 19 42  1  0
 20 43  1  0
 21 44  1  0
 26 45  1  0
 26 46  1  0
 26 47  1  0
A    1
CAA
A    2
CAO
A    3
CAP
A    4
OAQ
A    5
CAS
A    6
CAN
A    7
CAX
A    8
CAK
A    9
CAL
A   10
NAY
A   11
CAU
A   12
CAR
A   13
OAD
A   14
CAB
A   15
CAM
A   16
CAV
A   17
CAT
A   18
CAI
A   19
CAG
A   20
CAH
A   21
CAJ
A   22
CAW
A   23
SAZ
A   24
OAE
A   25
OAF
A   26
CAC
M  END
