4RW7_3X6_A_601
     RDKit          3D

 45 47  0  0  0  0  0  0  0  0999 V2000
  213.7390  -32.0140   32.1190 C   0  0  0  0  0  0  0  0  0  0  0  0
  212.7120  -33.3300   33.9020 C   0  0  0  0  0  0  0  0  0  0  0  0
  211.8910  -32.1640   34.2450 C   0  0  0  0  0  0  0  0  0  0  0  0
  212.0270  -31.0170   33.5330 C   0  0  0  0  0  0  0  0  0  0  0  0
  216.1880  -27.6600   33.8980 C   0  0  0  0  0  0  0  0  0  0  0  0
  217.2340  -27.1600   34.7030 C   0  0  0  0  0  0  0  0  0  0  0  0
  217.1120  -27.1520   36.1110 C   0  0  0  0  0  0  0  0  0  0  0  0
  215.9390  -27.6490   36.7200 C   0  0  0  0  0  0  0  0  0  0  0  0
  214.8770  -28.1550   35.9230 C   0  0  0  0  0  0  0  0  0  0  0  0
  215.0060  -28.1620   34.5090 C   0  0  0  0  0  0  0  0  0  0  0  0
  213.7070  -28.6560   36.4690 O   0  0  0  0  0  0  0  0  0  0  0  0
  212.7880  -27.8560   37.1250 C   0  0  0  0  0  0  0  0  0  0  0  0
  212.6760  -26.4520   36.9230 C   0  0  0  0  0  0  0  0  0  0  0  0
  211.7120  -25.7030   37.6250 C   0  0  0  0  0  0  0  0  0  0  0  0
  210.8450  -26.3380   38.5320 C   0  0  0  0  0  0  0  0  0  0  0  0
  210.9140  -27.7350   38.7710 C   0  0  0  0  0  0  0  0  0  0  0  0
  211.9020  -28.4790   38.0450 C   0  0  0  0  0  0  0  0  0  0  0  0
  211.5990  -24.0050   37.3680 Cl  0  0  0  0  0  0  0  0  0  0  0  0
  209.9700  -28.3090   39.7240 C   0  0  0  0  0  0  0  0  0  0  0  0
  210.2300  -29.4540   40.3940 C   0  0  0  0  0  0  0  0  0  0  0  0
  209.4250  -29.8400   41.5060 C   0  0  0  0  0  0  0  0  0  0  0  0
  208.7720  -30.1250   42.4190 N   0  0  0  0  0  0  0  0  0  0  0  0
  213.9490  -28.6570   33.7770 O   0  0  0  0  0  0  0  0  0  0  0  0
  214.1660  -28.8160   32.3770 C   0  0  0  0  0  0  0  0  0  0  0  0
  213.0300  -29.6480   31.7590 C   0  0  0  0  0  0  0  0  0  0  0  0
  212.9550  -30.9420   32.4620 N   0  0  0  0  0  0  0  0  0  0  0  0
  213.5640  -33.1380   32.8620 N   0  0  0  0  0  0  0  0  0  0  0  0
  214.5550  -31.9860   31.1980 O   0  0  0  0  0  0  0  0  0  0  0  0
  212.6510  -34.4020   34.4930 O   0  0  0  0  0  0  0  0  0  0  0  0
  211.1699  -32.2190   35.0738 H   0  0  0  0  0  0  0  0  0  0  0  0
  211.4141  -30.1398   33.7876 H   0  0  0  0  0  0  0  0  0  0  0  0
  216.2867  -27.6614   32.8024 H   0  0  0  0  0  0  0  0  0  0  0  0
  218.1499  -26.7741   34.2316 H   0  0  0  0  0  0  0  0  0  0  0  0
  217.9303  -26.7588   36.7321 H   0  0  0  0  0  0  0  0  0  0  0  0
  215.8469  -27.6444   37.8161 H   0  0  0  0  0  0  0  0  0  0  0  0
  213.3478  -25.9476   36.2128 H   0  0  0  0  0  0  0  0  0  0  0  0
  210.0957  -25.7376   39.0688 H   0  0  0  0  0  0  0  0  0  0  0  0
  211.9762  -29.5647   38.2051 H   0  0  0  0  0  0  0  0  0  0  0  0
  209.0152  -27.7930   39.9032 H   0  0  0  0  0  0  0  0  0  0  0  0
  211.0685  -30.0925   40.0791 H   0  0  0  0  0  0  0  0  0  0  0  0
  215.1246  -29.3301   32.2132 H   0  0  0  0  0  0  0  0  0  0  0  0
  214.1876  -27.8248   31.9005 H   0  0  0  0  0  0  0  0  0  0  0  0
  212.0761  -29.1113   31.8689 H   0  0  0  0  0  0  0  0  0  0  0  0
  213.2260  -29.8135   30.6893 H   0  0  0  0  0  0  0  0  0  0  0  0
  214.1504  -33.9447   32.6045 H   0  0  0  0  0  0  0  0  0  0  0  0
 28  1  2  0
 25 24  1  0
 25 26  1  0
  1 26  1  0
  1 27  1  0
 24 23  1  0
 26  4  1  0
 27  2  1  0
  4  3  2  0
 23 10  1  0
  5 10  2  0
  5  6  1  0
  2  3  1  0
  2 29  2  0
 10  9  1  0
  6  7  2  0
  9 11  1  0
  9  8  2  0
  7  8  1  0
 11 12  1  0
 13 12  2  0
 13 14  1  0
 12 17  1  0
 18 14  1  0
 14 15  2  0
 17 16  2  0
 15 16  1  0
 16 19  1  0
 19 20  2  0
 20 21  1  0
 21 22  3  0
  3 30  1  0
  4 31  1  0
  5 32  1  0
  6 33  1  0
  7 34  1  0
  8 35  1  0
 13 36  1  0
 15 37  1  0
 17 38  1  0
 19 39  1  0
 20 40  1  0
 24 41  1  0
 24 42  1  0
 25 43  1  0
 25 44  1  0
 27 45  1  0
A    1
C10
A    2
C12
A    3
C13
A    4
C14
A    5
C00
A    6
C01
A    7
C02
A    8
C03
A    9
C04
A   10
C05
A   11
O0A
A   12
C0C
A   13
C0D
A   14
C0E
A   15
C0F
A   16
C0G
A   17
C0H
A   18
CL1
A   19
C0M
A   20
C0V
A   21
C0X
A   22
N0Z
A   23
O0B
A   24
C0O
A   25
C0P
A   26
N0S
A   27
N11
A   28
O15
A   29
O17
M  END
