4RX8_3YX_A_703
     RDKit          3D

 49 52  0  0  0  0  0  0  0  0999 V2000
    0.4040    4.5760   10.2660 C   0  0  0  0  0  0  0  0  0  0  0  0
   -0.6060    5.1660   11.2460 C   0  0  0  0  0  0  0  0  0  0  0  0
   -0.5780    4.4630   12.5860 C   0  0  0  0  0  0  0  0  0  0  0  0
   -1.0940    0.0410   12.8480 C   0  0  0  0  0  0  0  0  0  0  0  0
   -1.8660   -0.9650   13.4600 C   0  0  0  0  0  0  0  0  0  0  0  0
    4.2700    0.5710   14.9430 C   0  0  0  0  0  0  0  0  0  0  0  0
    3.4900    2.6720   13.4590 C   0  0  0  0  0  0  0  0  0  0  0  0
    3.0610    0.5460   14.2940 C   0  0  0  0  0  0  0  0  0  0  0  0
    4.7630   -0.5620   15.7870 C   0  0  0  0  0  0  0  0  0  0  0  0
    0.1180   -1.5670   14.6710 C   0  0  0  0  0  0  0  0  0  0  0  0
   -1.2090   -1.7650   14.3790 C   0  0  0  0  0  0  0  0  0  0  0  0
   -1.5730   -2.9370   15.2710 C   0  0  0  0  0  0  0  0  0  0  0  0
   -0.4730   -3.2200   15.9460 C   0  0  0  0  0  0  0  0  0  0  0  0
    0.8060    4.4470   13.2100 C   0  0  0  0  0  0  0  0  0  0  0  0
    1.7670    3.7770   12.2000 C   0  0  0  0  0  0  0  0  0  0  0  0
    1.7780    4.5750   10.8960 C   0  0  0  0  0  0  0  0  0  0  0  0
    3.0750    3.6960   12.7390 N   0  0  0  0  0  0  0  0  0  0  0  0
    1.2050    5.8290   13.5360 N   0  0  0  0  0  0  0  0  0  0  0  0
    0.9170   -0.5560   14.0720 C   0  0  0  0  0  0  0  0  0  0  0  0
    0.2710    0.2170   13.1250 C   0  0  0  0  0  0  0  0  0  0  0  0
    2.2170   -0.4930   14.4300 N   0  0  0  0  0  0  0  0  0  0  0  0
    5.0550    1.6610   14.8300 N   0  0  0  0  0  0  0  0  0  0  0  0
    4.6510    2.6780   14.0910 N   0  0  0  0  0  0  0  0  0  0  0  0
    2.7020    1.6040   13.5830 N   0  0  0  0  0  0  0  0  0  0  0  0
    4.0550   -1.4470   16.0680 O   0  0  0  0  0  0  0  0  0  0  0  0
    0.4960   -2.4300   15.5860 N   0  0  0  0  0  0  0  0  0  0  0  0
    6.0020   -0.4850   16.1740 N   0  0  0  0  0  0  0  0  0  0  0  0
    0.4220    5.1828    9.3487 H   0  0  0  0  0  0  0  0  0  0  0  0
    0.1141    3.5442   10.0183 H   0  0  0  0  0  0  0  0  0  0  0  0
   -0.3719    6.2299   11.3988 H   0  0  0  0  0  0  0  0  0  0  0  0
   -1.6102    5.0356   10.8164 H   0  0  0  0  0  0  0  0  0  0  0  0
   -1.2664    4.9812   13.2698 H   0  0  0  0  0  0  0  0  0  0  0  0
   -0.8798    3.4184   12.4197 H   0  0  0  0  0  0  0  0  0  0  0  0
   -1.5786    0.7143   12.1257 H   0  0  0  0  0  0  0  0  0  0  0  0
   -2.9304   -1.1071   13.2215 H   0  0  0  0  0  0  0  0  0  0  0  0
   -2.5467   -3.4439   15.3410 H   0  0  0  0  0  0  0  0  0  0  0  0
   -0.3884   -4.0116   16.7050 H   0  0  0  0  0  0  0  0  0  0  0  0
    0.8280    3.8741   14.1488 H   0  0  0  0  0  0  0  0  0  0  0  0
    1.4154    2.7551   11.9947 H   0  0  0  0  0  0  0  0  0  0  0  0
    2.4960    4.1192   10.1984 H   0  0  0  0  0  0  0  0  0  0  0  0
    2.0701    5.6125   11.1156 H   0  0  0  0  0  0  0  0  0  0  0  0
    3.7301    4.4706   12.5607 H   0  0  0  0  0  0  0  0  0  0  0  0
    1.2383    5.9445   14.5590 H   0  0  0  0  0  0  0  0  0  0  0  0
    2.1356    6.0205   13.1383 H   0  0  0  0  0  0  0  0  0  0  0  0
    0.8376    0.9849   12.5779 H   0  0  0  0  0  0  0  0  0  0  0  0
    2.6103   -1.3428   14.8590 H   0  0  0  0  0  0  0  0  0  0  0  0
    1.4491   -2.4760   15.9737 H   0  0  0  0  0  0  0  0  0  0  0  0
    6.2277   -0.4710   17.1789 H   0  0  0  0  0  0  0  0  0  0  0  0
    6.7577   -0.4380   15.4757 H   0  0  0  0  0  0  0  0  0  0  0  0
  1 16  1  0
  1  2  1  0
 16 15  1  0
  2  3  1  0
 15 17  1  0
 15 14  1  0
  3 14  1  0
 17  7  1  0
  4 20  2  0
  4  5  1  0
 20 19  1  0
 14 18  1  0
  7 24  2  0
  7 23  1  0
  5 11  2  0
 24  8  1  0
 19 21  1  0
 19 10  2  0
 23 22  2  0
  8 21  1  0
  8  6  2  0
 11 10  1  0
 11 12  1  0
 10 26  1  0
 22  6  1  0
  6  9  1  0
 12 13  2  0
 26 13  1  0
  9 25  2  0
  9 27  1  0
  1 28  1  0
  1 29  1  0
  2 30  1  0
  2 31  1  0
  3 32  1  0
  3 33  1  0
  4 34  1  0
  5 35  1  0
 12 36  1  0
 13 37  1  0
 14 38  1  0
 15 39  1  0
 16 40  1  0
 16 41  1  0
 17 42  1  0
 18 43  1  0
 18 44  1  0
 20 45  1  0
 21 46  1  0
 26 47  1  0
 27 48  1  0
 27 49  1  0
A    1
C1
A    2
C2
A    3
C3
A    4
C11
A    5
C12
A    6
C14
A    7
C17
A    8
C19
A    9
C20
A   10
C22
A   11
C23
A   12
C24
A   13
C25
A   14
C4
A   15
C5
A   16
C6
A   17
N7
A   18
N8
A   19
C9
A   20
C10
A   21
N13
A   22
N15
A   23
N16
A   24
N18
A   25
O21
A   26
N26
A   27
N27
M  END
