4RXA_3F2_A_1001
     RDKit          3D

 68 73  0  0  0  0  0  0  0  0999 V2000
   -7.1930   37.3680  -11.3220 N   0  0  0  0  0  0  0  0  0  0  0  0
   -7.9830   36.2790  -11.9050 C   0  0  0  0  0  0  0  0  0  0  0  0
   -9.3870   36.5040  -11.4480 C   0  0  0  0  0  0  0  0  0  0  0  0
   -9.2640   37.5160  -10.4110 N   0  0  0  0  0  0  0  0  0  0  0  0
   -8.0020   38.0070  -10.4050 C   0  0  0  0  0  0  0  0  0  0  0  0
   -7.5960   38.8940   -9.4610 C   0  0  0  0  0  0  0  0  0  0  0  0
   -6.3550   39.4570   -9.5650 C   0  0  0  0  0  0  0  0  0  0  0  0
   -8.3690   39.1730   -8.3360 C   0  0  0  0  0  0  0  0  0  0  0  0
   -7.8910   40.0570   -7.3460 C   0  0  0  0  0  0  0  0  0  0  0  0
   -6.6390   40.6450   -7.4880 C   0  0  0  0  0  0  0  0  0  0  0  0
   -5.8930   40.3540   -8.6150 C   0  0  0  0  0  0  0  0  0  0  0  0
   -4.7290   40.8040   -8.8220 N   0  0  0  0  0  0  0  0  0  0  0  0
   -4.6120   41.6220   -9.8550 C   0  0  0  0  0  0  0  0  0  0  0  0
   -5.5910   42.0450  -10.4800 O   0  0  0  0  0  0  0  0  0  0  0  0
   -3.4480   41.4360  -10.4630 C   0  0  0  0  0  0  0  0  0  0  0  0
   -2.2480   41.5190   -9.7780 C   0  0  0  0  0  0  0  0  0  0  0  0
   -1.0810   41.1270  -10.4260 C   0  0  0  0  0  0  0  0  0  0  0  0
   -3.5010   40.8090  -11.6840 C   0  0  0  0  0  0  0  0  0  0  0  0
   -2.3620   40.4250  -12.3190 C   0  0  0  0  0  0  0  0  0  0  0  0
   -1.1410   40.7040  -11.7550 C   0  0  0  0  0  0  0  0  0  0  0  0
   -0.1330   40.0470  -12.2560 C   0  0  0  0  0  0  0  0  0  0  0  0
   -0.1100   38.8080  -11.7240 C   0  0  0  0  0  0  0  0  0  0  0  0
    0.7430   37.8950  -12.1340 C   0  0  0  0  0  0  0  0  0  0  0  0
    0.6780   40.3740  -13.3610 C   0  0  0  0  0  0  0  0  0  0  0  0
    1.6230   39.3970  -13.7930 C   0  0  0  0  0  0  0  0  0  0  0  0
    1.6340   38.1550  -13.1130 C   0  0  0  0  0  0  0  0  0  0  0  0
    2.3700   37.0730  -13.4020 C   0  0  0  0  0  0  0  0  0  0  0  0
    2.6890   36.7980  -14.5460 O   0  0  0  0  0  0  0  0  0  0  0  0
    2.2420   36.1670  -12.3870 N   0  0  0  0  0  0  0  0  0  0  0  0
    2.4800   34.8910  -12.5970 C   0  0  0  0  0  0  0  0  0  0  0  0
    3.2270   34.1250  -11.6620 C   0  0  0  0  0  0  0  0  0  0  0  0
    1.7730   34.2520  -13.6060 C   0  0  0  0  0  0  0  0  0  0  0  0
    1.9250   32.8940  -13.7940 C   0  0  0  0  0  0  0  0  0  0  0  0
    2.7090   32.1410  -12.9280 C   0  0  0  0  0  0  0  0  0  0  0  0
    3.3670   32.7340  -11.8600 C   0  0  0  0  0  0  0  0  0  0  0  0
    4.1250   31.9430  -11.0310 C   0  0  0  0  0  0  0  0  0  0  0  0
    3.9470   30.5890  -11.0020 N   0  0  0  0  0  0  0  0  0  0  0  0
    4.8920   29.9990  -10.0990 C   0  0  0  0  0  0  0  0  0  0  0  0
    5.9240   31.0330  -10.0470 C   0  0  0  0  0  0  0  0  0  0  0  0
    5.1300   32.2840  -10.1940 N   0  0  0  0  0  0  0  0  0  0  0  0
   -6.2189   37.6100  -11.5532 H   0  0  0  0  0  0  0  0  0  0  0  0
   -7.9279   36.3114  -13.0031 H   0  0  0  0  0  0  0  0  0  0  0  0
   -7.6081   35.2939  -11.5904 H   0  0  0  0  0  0  0  0  0  0  0  0
  -10.0137   36.8672  -12.2758 H   0  0  0  0  0  0  0  0  0  0  0  0
   -9.8657   35.5827  -11.0845 H   0  0  0  0  0  0  0  0  0  0  0  0
   -5.7117   39.1936  -10.4175 H   0  0  0  0  0  0  0  0  0  0  0  0
   -9.3562   38.7020   -8.2192 H   0  0  0  0  0  0  0  0  0  0  0  0
   -8.5078   40.2808   -6.4631 H   0  0  0  0  0  0  0  0  0  0  0  0
   -6.2498   41.3282   -6.7188 H   0  0  0  0  0  0  0  0  0  0  0  0
   -3.9273   40.5508   -8.2270 H   0  0  0  0  0  0  0  0  0  0  0  0
   -2.2177   41.8875   -8.7420 H   0  0  0  0  0  0  0  0  0  0  0  0
   -0.1179   41.1502   -9.8950 H   0  0  0  0  0  0  0  0  0  0  0  0
   -4.4767   40.6153  -12.1536 H   0  0  0  0  0  0  0  0  0  0  0  0
   -2.4179   39.8932  -13.2803 H   0  0  0  0  0  0  0  0  0  0  0  0
   -0.8235   38.5544  -10.9261 H   0  0  0  0  0  0  0  0  0  0  0  0
    0.7297   36.8983  -11.6689 H   0  0  0  0  0  0  0  0  0  0  0  0
    0.5859   41.3446  -13.8704 H   0  0  0  0  0  0  0  0  0  0  0  0
    2.3164   39.6004  -14.6223 H   0  0  0  0  0  0  0  0  0  0  0  0
    1.9569   36.4862  -11.4501 H   0  0  0  0  0  0  0  0  0  0  0  0
    3.6920   34.6113  -10.7918 H   0  0  0  0  0  0  0  0  0  0  0  0
    1.0940   34.8264  -14.2533 H   0  0  0  0  0  0  0  0  0  0  0  0
    1.4203   32.4017  -14.6384 H   0  0  0  0  0  0  0  0  0  0  0  0
    2.8094   31.0579  -13.0918 H   0  0  0  0  0  0  0  0  0  0  0  0
    3.2419   30.0710  -11.5455 H   0  0  0  0  0  0  0  0  0  0  0  0
    5.2899   29.0527  -10.4944 H   0  0  0  0  0  0  0  0  0  0  0  0
    4.4715   29.7330   -9.1180 H   0  0  0  0  0  0  0  0  0  0  0  0
    6.6435   30.9191  -10.8712 H   0  0  0  0  0  0  0  0  0  0  0  0
    6.5311   31.0027   -9.1302 H   0  0  0  0  0  0  0  0  0  0  0  0
 39 40  1  0
 39 38  1  0
 40 36  2  0
 38 37  1  0
 36 37  1  0
 36 35  1  0
 34 35  1  0
 34 33  2  0
 35 31  2  0
 33 32  1  0
 31 30  1  0
 32 30  2  0
 30 29  1  0
 29 27  1  0
 28 27  2  0
 27 26  1  0
 26 25  2  0
 26 23  1  0
 25 24  1  0
 23 22  2  0
 24 21  2  0
 22 21  1  0
 21 20  1  0
 20 19  2  0
 20 17  1  0
 19 18  1  0
 17 16  2  0
 18 15  2  0
 16 15  1  0
 15 13  1  0
 13 14  2  0
 13 12  1  0
 12 11  1  0
 11  7  2  0
 11 10  1  0
  7  6  1  0
 10  9  2  0
  1  2  1  0
  1  5  1  0
  9  8  1  0
  6  5  1  0
  6  8  2  0
  2  3  1  0
  5  4  2  0
  4  3  1  0
  1 41  1  0
  2 42  1  0
  2 43  1  0
  3 44  1  0
  3 45  1  0
  7 46  1  0
  8 47  1  0
  9 48  1  0
 10 49  1  0
 12 50  1  0
 16 51  1  0
 17 52  1  0
 18 53  1  0
 19 54  1  0
 22 55  1  0
 23 56  1  0
 24 57  1  0
 25 58  1  0
 29 59  1  0
 31 60  1  0
 32 61  1  0
 33 62  1  0
 34 63  1  0
 37 64  1  0
 38 65  1  0
 38 66  1  0
 39 67  1  0
 39 68  1  0
A    1
NAY
A    2
CAU
A    3
CAS
A    4
NAW
A    5
CBE
A    6
CBK
A    7
CAQ
A    8
CAG
A    9
CAC
A   10
CAE
A   11
CBG
A   12
NBA
A   13
CBC
A   14
OAA
A   15
CBI
A   16
CAJ
A   17
CAN
A   18
CAI
A   19
CAM
A   20
CBM
A   21
CBN
A   22
CAP
A   23
CAL
A   24
CAO
A   25
CAK
A   26
CBJ
A   27
CBD
A   28
OAB
A   29
NBB
A   30
CBH
A   31
CAR
A   32
CAF
A   33
CAD
A   34
CAH
A   35
CBL
A   36
CBF
A   37
NAX
A   38
CAT
A   39
CAV
A   40
NAZ
M  END
