1GX6_UTP_A_1001
     RDKit          3D

 44 45  0  0  0  0  0  0  0  0999 V2000
   18.3090   26.3650   27.4410 P   0  0  0  0  0  0  0  0  0  0  0  0
   19.0580   25.4780   26.5140 O   0  0  0  0  0  0  0  0  0  0  0  0
   18.4600   26.2060   28.9130 O   0  0  0  0  0  0  0  0  0  0  0  0
   16.7250   26.3280   27.0940 O   0  0  0  0  0  0  0  0  0  0  0  0
   18.5660   27.8840   27.0760 O   0  0  0  0  0  0  0  0  0  0  0  0
   15.5020   25.6360   27.8210 P   0  0  0  0  0  0  0  0  0  0  0  0
   15.7550   25.1330   29.1610 O   0  0  0  0  0  0  0  0  0  0  0  0
   14.9620   24.7290   26.8430 O   0  0  0  0  0  0  0  0  0  0  0  0
   14.5600   26.9100   27.9850 O   0  0  0  0  0  0  0  0  0  0  0  0
   13.1460   27.0700   28.6780 P   0  0  0  0  0  0  0  0  0  0  0  0
   12.9610   28.5600   28.9830 O   0  0  0  0  0  0  0  0  0  0  0  0
   12.1920   26.5420   27.6370 O   0  0  0  0  0  0  0  0  0  0  0  0
   13.1230   26.2390   29.9520 O   0  0  0  0  0  0  0  0  0  0  0  0
   17.9530   28.9080   27.8370 C   0  0  0  0  0  0  0  0  0  0  0  0
   17.7990   30.1420   26.9990 C   0  0  0  0  0  0  0  0  0  0  0  0
   16.7650   29.9180   26.0020 O   0  0  0  0  0  0  0  0  0  0  0  0
   16.0250   31.1050   25.8560 C   0  0  0  0  0  0  0  0  0  0  0  0
   15.9600   31.6540   27.2820 C   0  0  0  0  0  0  0  0  0  0  0  0
   15.6240   33.0210   27.2930 O   0  0  0  0  0  0  0  0  0  0  0  0
   17.3780   31.3760   27.7870 C   0  0  0  0  0  0  0  0  0  0  0  0
   18.2720   32.4520   27.5230 O   0  0  0  0  0  0  0  0  0  0  0  0
   14.7070   30.7800   25.2820 N   0  0  0  0  0  0  0  0  0  0  0  0
   13.9210   29.7820   25.8090 C   0  0  0  0  0  0  0  0  0  0  0  0
   14.2680   31.5370   24.2040 C   0  0  0  0  0  0  0  0  0  0  0  0
   14.9580   32.3930   23.6750 O   0  0  0  0  0  0  0  0  0  0  0  0
   12.9970   31.2440   23.7640 N   0  0  0  0  0  0  0  0  0  0  0  0
   12.1460   30.2760   24.2670 C   0  0  0  0  0  0  0  0  0  0  0  0
   10.9960   30.1780   23.8170 O   0  0  0  0  0  0  0  0  0  0  0  0
   12.6920   29.5090   25.3500 C   0  0  0  0  0  0  0  0  0  0  0  0
   17.8577   26.8402   29.3769 H   0  0  0  0  0  0  0  0  0  0  0  0
   15.4258   25.7875   29.8268 H   0  0  0  0  0  0  0  0  0  0  0  0
   12.9440   28.6965   29.9634 H   0  0  0  0  0  0  0  0  0  0  0  0
   13.1396   26.8401   30.7384 H   0  0  0  0  0  0  0  0  0  0  0  0
   16.9620   28.5693   28.1735 H   0  0  0  0  0  0  0  0  0  0  0  0
   18.5825   29.1380   28.7093 H   0  0  0  0  0  0  0  0  0  0  0  0
   18.7908   30.3292   26.5616 H   0  0  0  0  0  0  0  0  0  0  0  0
   16.4587   31.8502   25.1729 H   0  0  0  0  0  0  0  0  0  0  0  0
   15.1843   31.1967   27.9137 H   0  0  0  0  0  0  0  0  0  0  0  0
   15.5470   33.3344   28.2289 H   0  0  0  0  0  0  0  0  0  0  0  0
   17.4013   31.2413   28.8785 H   0  0  0  0  0  0  0  0  0  0  0  0
   18.5898   32.8345   28.3790 H   0  0  0  0  0  0  0  0  0  0  0  0
   14.3177   29.1830   26.6419 H   0  0  0  0  0  0  0  0  0  0  0  0
   12.6418   31.8050   22.9766 H   0  0  0  0  0  0  0  0  0  0  0  0
   12.1025   28.6981   25.8027 H   0  0  0  0  0  0  0  0  0  0  0  0
  1  2  2  0
  1  3  1  0
  1  4  1  0
  1  5  1  0
  4  6  1  0
  5 14  1  0
  6  7  1  0
  6  8  2  0
  6  9  1  0
  9 10  1  0
 10 11  1  0
 10 12  2  0
 10 13  1  0
 14 15  1  0
 15 16  1  0
 15 20  1  0
 16 17  1  0
 17 18  1  0
 17 22  1  0
 18 19  1  0
 18 20  1  0
 20 21  1  0
 22 23  1  0
 22 24  1  0
 23 29  2  0
 24 25  2  0
 24 26  1  0
 26 27  1  0
 27 28  2  0
 27 29  1  0
  3 30  1  0
  7 31  1  0
 11 32  1  0
 13 33  1  0
 14 34  1  0
 14 35  1  0
 15 36  1  0
 17 37  1  0
 18 38  1  0
 19 39  1  0
 20 40  1  0
 21 41  1  0
 23 42  1  0
 26 43  1  0
 29 44  1  0
A    1
PA
A    2
O1A
A    3
O2A
A    4
O3A
A    5
O5'
A    6
PB
A    7
O1B
A    8
O2B
A    9
O3B
A   10
PG
A   11
O1G
A   12
O2G
A   13
O3G
A   14
C5'
A   15
C4'
A   16
O4'
A   17
C1'
A   18
C2'
A   19
O2'
A   20
C3'
A   21
O3'
A   22
N1
A   23
C6
A   24
C2
A   25
O2
A   26
N3
A   27
C4
A   28
O4
A   29
C5
M  END
