4RYL_3ZG_A_601
     RDKit          3D

 40 42  0  0  0  0  0  0  0  0999 V2000
   -4.6550   -0.4920  -13.0110 C   0  0  0  0  0  0  0  0  0  0  0  0
   -4.9950   -0.9240  -14.2600 C   0  0  0  0  0  0  0  0  0  0  0  0
   -5.6090   -0.0480  -15.1920 C   0  0  0  0  0  0  0  0  0  0  0  0
   -4.4750    1.1740  -11.3020 N   0  0  0  0  0  0  0  0  0  0  0  0
   -6.0330   -0.4330  -16.4920 C   0  0  0  0  0  0  0  0  0  0  0  0
   -6.8100    1.6600  -16.9820 C   0  0  0  0  0  0  0  0  0  0  0  0
   -6.6280    0.3820  -17.3580 N   0  0  0  0  0  0  0  0  0  0  0  0
   -6.4440    2.1580  -15.7650 C   0  0  0  0  0  0  0  0  0  0  0  0
   -5.8450    1.2880  -14.8140 C   0  0  0  0  0  0  0  0  0  0  0  0
   -5.4870    1.7040  -13.5070 C   0  0  0  0  0  0  0  0  0  0  0  0
   -3.3030    6.2690   -7.6000 C   0  0  0  0  0  0  0  0  0  0  0  0
   -4.5590    5.5370   -7.6500 N   0  0  0  0  0  0  0  0  0  0  0  0
   -3.7320    7.6320   -7.1410 C   0  0  0  0  0  0  0  0  0  0  0  0
   -4.9150    7.4010   -6.3410 C   0  0  0  0  0  0  0  0  0  0  0  0
   -5.6460    6.3140   -7.0480 C   0  0  0  0  0  0  0  0  0  0  0  0
   -4.4750    3.4670  -11.3640 O   0  0  0  0  0  0  0  0  0  0  0  0
   -4.3860    2.4180  -10.7400 C   0  0  0  0  0  0  0  0  0  0  0  0
   -4.1250    2.4020   -9.4330 N   0  0  0  0  0  0  0  0  0  0  0  0
   -3.6300    3.5860   -8.7710 C   0  0  0  0  0  0  0  0  0  0  0  0
   -4.8050    4.3340   -8.1820 C   0  0  0  0  0  0  0  0  0  0  0  0
   -5.9170    3.8630   -8.1970 O   0  0  0  0  0  0  0  0  0  0  0  0
   -4.9030    0.8210  -12.6120 C   0  0  0  0  0  0  0  0  0  0  0  0
   -4.1778   -1.1905  -12.3079 H   0  0  0  0  0  0  0  0  0  0  0  0
   -4.7902   -1.9657  -14.5482 H   0  0  0  0  0  0  0  0  0  0  0  0
   -4.1951    0.3891  -10.6966 H   0  0  0  0  0  0  0  0  0  0  0  0
   -5.8576   -1.4736  -16.8026 H   0  0  0  0  0  0  0  0  0  0  0  0
   -7.2831    2.3466  -17.6995 H   0  0  0  0  0  0  0  0  0  0  0  0
   -6.6104    3.2182  -15.5235 H   0  0  0  0  0  0  0  0  0  0  0  0
   -5.6754    2.7429  -13.1984 H   0  0  0  0  0  0  0  0  0  0  0  0
   -2.6054    5.8108   -6.8835 H   0  0  0  0  0  0  0  0  0  0  0  0
   -2.7669    6.2811   -8.5604 H   0  0  0  0  0  0  0  0  0  0  0  0
   -2.9425    8.1031   -6.5371 H   0  0  0  0  0  0  0  0  0  0  0  0
   -3.9289    8.3097   -7.9847 H   0  0  0  0  0  0  0  0  0  0  0  0
   -4.6394    7.0849   -5.3241 H   0  0  0  0  0  0  0  0  0  0  0  0
   -5.5260    8.3091   -6.2315 H   0  0  0  0  0  0  0  0  0  0  0  0
   -6.3164    6.7223   -7.8187 H   0  0  0  0  0  0  0  0  0  0  0  0
   -6.2940    5.7203   -6.3865 H   0  0  0  0  0  0  0  0  0  0  0  0
   -4.2774    1.5392   -8.8915 H   0  0  0  0  0  0  0  0  0  0  0  0
   -2.9335    3.2990   -7.9694 H   0  0  0  0  0  0  0  0  0  0  0  0
   -3.0989    4.2259   -9.4911 H   0  0  0  0  0  0  0  0  0  0  0  0
  7  6  2  0
  7  5  1  0
  6  8  1  0
  5  3  2  0
  8  9  2  0
  3  9  1  0
  3  2  1  0
  9 10  1  0
  2  1  2  0
 10 22  2  0
  1 22  1  0
 22  4  1  0
 16 17  2  0
  4 17  1  0
 17 18  1  0
 18 19  1  0
 19 20  1  0
 21 20  2  0
 20 12  1  0
 12 11  1  0
 12 15  1  0
 11 13  1  0
 13 14  1  0
 15 14  1  0
  1 23  1  0
  2 24  1  0
  4 25  1  0
  5 26  1  0
  6 27  1  0
  8 28  1  0
 10 29  1  0
 11 30  1  0
 11 31  1  0
 13 32  1  0
 13 33  1  0
 14 34  1  0
 14 35  1  0
 15 36  1  0
 15 37  1  0
 18 38  1  0
 19 39  1  0
 19 40  1  0
A    1
C4
A    2
C5
A    3
C6
A    4
N1
A    5
C7
A    6
C8
A    7
N2
A    8
C9
A    9
C10
A   10
C11
A   11
C12
A   12
N3
A   13
C13
A   14
C14
A   15
C15
A   16
O1
A   17
C2
A   18
N
A   19
C1
A   20
C
A   21
O
A   22
C3
M  END
