4RYZ_A5V_A_603
     RDKit          3D

 44 45  0  0  0  0  0  0  0  0999 V2000
  -35.7650  132.5200    9.8150 O   0  0  0  0  0  0  0  0  0  0  0  0
  -36.8580  133.0610    9.0800 C   0  0  0  0  0  0  0  0  0  0  0  0
  -37.5000  131.8280    8.4610 C   0  0  0  0  0  0  0  0  0  0  0  0
  -36.6160  131.1040    7.4410 C   0  0  0  0  0  0  0  0  0  0  0  0
  -35.1810  130.9020    7.7690 N   0  0  0  0  0  0  0  0  0  0  0  0
  -37.7800  133.9110    9.9400 C   0  0  0  0  0  0  0  0  0  0  0  0
  -38.7200  134.7570    9.3490 C   0  0  0  0  0  0  0  0  0  0  0  0
  -39.4970  135.6120   10.1380 C   0  0  0  0  0  0  0  0  0  0  0  0
  -39.3930  135.5710   11.5150 C   0  0  0  0  0  0  0  0  0  0  0  0
  -38.4890  134.7030   12.1020 C   0  0  0  0  0  0  0  0  0  0  0  0
  -37.6970  133.8750   11.3250 C   0  0  0  0  0  0  0  0  0  0  0  0
  -40.2900  136.5820    9.5640 O   0  0  0  0  0  0  0  0  0  0  0  0
  -40.3430  136.7730    8.1430 C   0  0  0  0  0  0  0  0  0  0  0  0
  -41.1260  138.0450    7.8880 C   0  0  0  0  0  0  0  0  0  0  0  0
  -41.5310  138.1700    6.4250 C   0  0  0  0  0  0  0  0  0  0  0  0
  -42.2810  139.4740    6.1320 C   0  0  0  0  0  0  0  0  0  0  0  0
  -41.4750  140.6940    6.5450 C   0  0  0  0  0  0  0  0  0  0  0  0
  -41.0560  140.5930    7.9980 C   0  0  0  0  0  0  0  0  0  0  0  0
  -40.3210  139.2810    8.2800 C   0  0  0  0  0  0  0  0  0  0  0  0
  -35.9435  132.6083   10.7848 H   0  0  0  0  0  0  0  0  0  0  0  0
  -36.5594  133.7841    8.3067 H   0  0  0  0  0  0  0  0  0  0  0  0
  -38.4263  132.1385    7.9556 H   0  0  0  0  0  0  0  0  0  0  0  0
  -37.6794  131.1192    9.2828 H   0  0  0  0  0  0  0  0  0  0  0  0
  -36.6579  131.6817    6.5058 H   0  0  0  0  0  0  0  0  0  0  0  0
  -37.0301  130.0858    7.3978 H   0  0  0  0  0  0  0  0  0  0  0  0
  -35.0617  130.8852    8.7919 H   0  0  0  0  0  0  0  0  0  0  0  0
  -34.8605  130.0076    7.3712 H   0  0  0  0  0  0  0  0  0  0  0  0
  -38.8505  134.7514    8.2568 H   0  0  0  0  0  0  0  0  0  0  0  0
  -40.0228  136.2222   12.1390 H   0  0  0  0  0  0  0  0  0  0  0  0
  -38.3988  134.6706   13.1978 H   0  0  0  0  0  0  0  0  0  0  0  0
  -36.9946  133.1814   11.8103 H   0  0  0  0  0  0  0  0  0  0  0  0
  -40.8470  135.9190    7.6670 H   0  0  0  0  0  0  0  0  0  0  0  0
  -39.3295  136.8487    7.7223 H   0  0  0  0  0  0  0  0  0  0  0  0
  -42.0309  137.9840    8.5105 H   0  0  0  0  0  0  0  0  0  0  0  0
  -42.1827  137.3226    6.1659 H   0  0  0  0  0  0  0  0  0  0  0  0
  -40.6105  138.1718    5.8228 H   0  0  0  0  0  0  0  0  0  0  0  0
  -42.4865  139.5317    5.0529 H   0  0  0  0  0  0  0  0  0  0  0  0
  -43.2151  139.4689    6.7129 H   0  0  0  0  0  0  0  0  0  0  0  0
  -40.5765  140.7636    5.9142 H   0  0  0  0  0  0  0  0  0  0  0  0
  -42.1004  141.5901    6.4189 H   0  0  0  0  0  0  0  0  0  0  0  0
  -40.3893  141.4347    8.2370 H   0  0  0  0  0  0  0  0  0  0  0  0
  -41.9620  140.6217    8.6211 H   0  0  0  0  0  0  0  0  0  0  0  0
  -40.1008  139.2280    9.3564 H   0  0  0  0  0  0  0  0  0  0  0  0
  -39.4052  139.2817    7.6706 H   0  0  0  0  0  0  0  0  0  0  0  0
 16 15  1  0
 16 17  1  0
 15 14  1  0
 17 18  1  0
  4  5  1  0
  4  3  1  0
 14 13  1  0
 14 19  1  0
 18 19  1  0
 13 12  1  0
  3  2  1  0
  2  1  1  0
  2  6  1  0
  7  6  2  0
  7  8  1  0
 12  8  1  0
  6 11  1  0
  8  9  2  0
 11 10  2  0
  9 10  1  0
  1 20  1  0
  2 21  1  0
  3 22  1  0
  3 23  1  0
  4 24  1  0
  4 25  1  0
  5 26  1  0
  5 27  1  0
  7 28  1  0
  9 29  1  0
 10 30  1  0
 11 31  1  0
 13 32  1  0
 13 33  1  0
 14 34  1  0
 15 35  1  0
 15 36  1  0
 16 37  1  0
 16 38  1  0
 17 39  1  0
 17 40  1  0
 18 41  1  0
 18 42  1  0
 19 43  1  0
 19 44  1  0
A    1
O
A    2
C2
A    3
C1
A    4
C
A    5
N
A    6
C3
A    7
C15
A    8
C7
A    9
C6
A   10
C5
A   11
C4
A   12
O1
A   13
C8
A   14
C9
A   15
C14
A   16
C13
A   17
C12
A   18
C11
A   19
C10
M  END
