4RZT_40J_A_501
     RDKit          3D

 42 43  0  0  0  0  0  0  0  0999 V2000
  -66.4830  -22.1190  186.2160 O   0  0  0  0  0  0  0  0  0  0  0  0
  -67.5760  -21.8410  185.2490 C   0  0  0  0  0  0  0  0  0  0  0  0
  -68.9500  -21.4680  185.8910 C   0  0  0  0  0  0  0  0  0  0  0  0
  -69.8290  -22.6230  185.9170 O   0  0  0  0  0  0  0  0  0  0  0  0
  -69.4660  -20.4040  184.9250 C   0  0  0  0  0  0  0  0  0  0  0  0
  -70.5880  -19.5430  185.5210 C   0  0  0  0  0  0  0  0  0  0  0  0
  -70.4880  -17.8090  184.9190 Cl  0  0  0  0  0  0  0  0  0  0  0  0
  -68.2700  -19.6280  184.7310 O   0  0  0  0  0  0  0  0  0  0  0  0
  -67.2590  -20.6260  184.3830 C   0  0  0  0  0  0  0  0  0  0  0  0
  -67.4960  -21.0010  182.9520 C   0  0  0  0  0  0  0  0  0  0  0  0
  -66.2470  -22.0700  182.3760 Cl  0  0  0  0  0  0  0  0  0  0  0  0
  -65.8730  -20.2650  184.5210 O   0  0  0  0  0  0  0  0  0  0  0  0
  -65.6320  -18.7970  184.5590 C   0  0  0  0  0  0  0  0  0  0  0  0
  -66.4680  -17.8450  185.3730 O   0  0  0  0  0  0  0  0  0  0  0  0
  -66.0030  -17.3290  186.6650 C   0  0  0  0  0  0  0  0  0  0  0  0
  -66.7630  -16.0250  186.9470 C   0  0  0  0  0  0  0  0  0  0  0  0
  -68.1640  -16.3300  186.9950 O   0  0  0  0  0  0  0  0  0  0  0  0
  -64.4800  -17.1470  186.7620 C   0  0  0  0  0  0  0  0  0  0  0  0
  -63.8220  -15.6000  185.9800 Cl  0  0  0  0  0  0  0  0  0  0  0  0
  -63.8430  -18.3840  186.1930 C   0  0  0  0  0  0  0  0  0  0  0  0
  -62.4710  -18.1740  186.1100 O   0  0  0  0  0  0  0  0  0  0  0  0
  -64.1690  -18.5720  184.7810 C   0  0  0  0  0  0  0  0  0  0  0  0
  -63.5040  -19.7460  184.3470 O   0  0  0  0  0  0  0  0  0  0  0  0
  -66.8290  -22.0310  187.1394 H   0  0  0  0  0  0  0  0  0  0  0  0
  -67.6473  -22.7894  184.6964 H   0  0  0  0  0  0  0  0  0  0  0  0
  -68.8852  -21.1247  186.9340 H   0  0  0  0  0  0  0  0  0  0  0  0
  -70.0187  -22.8723  186.8561 H   0  0  0  0  0  0  0  0  0  0  0  0
  -69.9173  -20.8197  184.0121 H   0  0  0  0  0  0  0  0  0  0  0  0
  -70.4997  -19.5476  186.6174 H   0  0  0  0  0  0  0  0  0  0  0  0
  -71.5542  -19.9650  185.2075 H   0  0  0  0  0  0  0  0  0  0  0  0
  -67.5019  -20.0892  182.3367 H   0  0  0  0  0  0  0  0  0  0  0  0
  -68.4637  -21.5190  182.8795 H   0  0  0  0  0  0  0  0  0  0  0  0
  -66.0184  -18.4943  183.5746 H   0  0  0  0  0  0  0  0  0  0  0  0
  -66.2213  -18.0802  187.4383 H   0  0  0  0  0  0  0  0  0  0  0  0
  -66.4391  -15.6051  187.9107 H   0  0  0  0  0  0  0  0  0  0  0  0
  -66.5596  -15.2859  186.1581 H   0  0  0  0  0  0  0  0  0  0  0  0
  -68.4557  -16.3935  187.9389 H   0  0  0  0  0  0  0  0  0  0  0  0
  -64.2192  -17.0156  187.8225 H   0  0  0  0  0  0  0  0  0  0  0  0
  -64.1775  -19.2159  186.8302 H   0  0  0  0  0  0  0  0  0  0  0  0
  -62.0903  -18.1157  187.0220 H   0  0  0  0  0  0  0  0  0  0  0  0
  -63.8651  -17.6663  184.2357 H   0  0  0  0  0  0  0  0  0  0  0  0
  -63.2083  -20.2680  185.1345 H   0  0  0  0  0  0  0  0  0  0  0  0
 11 10  1  0
 10  9  1  0
  9 12  1  0
  9  8  1  0
  9  2  1  0
 12 13  1  0
  8  5  1  0
 23 22  1  0
 13 22  1  0
 13 14  1  0
  7  6  1  0
 22 20  1  0
  5  6  1  0
  5  3  1  0
  2  3  1  0
  2  1  1  0
 14 15  1  0
  3  4  1  0
 19 18  1  0
 21 20  1  0
 20 18  1  0
 15 18  1  0
 15 16  1  0
 16 17  1  0
  1 24  1  0
  2 25  1  0
  3 26  1  0
  4 27  1  0
  5 28  1  0
  6 29  1  0
  6 30  1  0
 10 31  1  0
 10 32  1  0
 13 33  1  0
 15 34  1  0
 16 35  1  0
 16 36  1  0
 17 37  1  0
 18 38  1  0
 20 39  1  0
 21 40  1  0
 22 41  1  0
 23 42  1  0
A    1
OAQ
A    2
CAH
A    3
CAG
A    4
OAR
A    5
CAK
A    6
CAN
A    7
CL1
A    8
OAJ
A    9
CAI
A   10
CAM
A   11
CL2
A   12
OAL
A   13
CAE
A   14
OAF
A   15
CAA
A   16
CAO
A   17
OAS
A   18
CAB
A   19
CL3
A   20
CAC
A   21
OAT
A   22
CAD
A   23
OAP
M  END
