1WOK_CNQ_A_1
     RDKit          3D

 30 32  0  0  0  0  0  0  0  0999 V2000
   12.0690   -4.7890   46.7380 C   0  0  0  0  0  0  0  0  0  0  0  0
   10.8480   -4.1000   46.9430 C   0  0  0  0  0  0  0  0  0  0  0  0
   10.3020   -3.2880   45.9170 C   0  0  0  0  0  0  0  0  0  0  0  0
   10.9960   -3.1530   44.6310 C   0  0  0  0  0  0  0  0  0  0  0  0
   12.2440   -3.8600   44.4230 C   0  0  0  0  0  0  0  0  0  0  0  0
   12.7620   -4.6730   45.4930 C   0  0  0  0  0  0  0  0  0  0  0  0
    9.1070   -2.6100   46.1120 N   0  0  0  0  0  0  0  0  0  0  0  0
    8.5560   -1.8210   45.1440 C   0  0  0  0  0  0  0  0  0  0  0  0
    9.1960   -1.6670   43.8870 C   0  0  0  0  0  0  0  0  0  0  0  0
   10.4000   -2.3360   43.6600 N   0  0  0  0  0  0  0  0  0  0  0  0
   13.0090   -3.7840   43.1510 C   0  0  0  0  0  0  0  0  0  0  0  0
   12.9910   -2.5780   42.5520 N   0  0  0  0  0  0  0  0  0  0  0  0
   13.6160   -4.6940   42.6060 O   0  0  0  0  0  0  0  0  0  0  0  0
    8.6760   -0.8300   42.7570 C   0  0  0  0  0  0  0  0  0  0  0  0
    7.2890   -0.8570   42.4700 C   0  0  0  0  0  0  0  0  0  0  0  0
    6.7440   -0.0860   41.4130 C   0  0  0  0  0  0  0  0  0  0  0  0
    7.6130    0.7180   40.6380 C   0  0  0  0  0  0  0  0  0  0  0  0
    8.9990    0.7620   40.9040 C   0  0  0  0  0  0  0  0  0  0  0  0
    9.5220   -0.0190   41.9690 C   0  0  0  0  0  0  0  0  0  0  0  0
    6.9770    1.6500   39.3560 Cl  0  0  0  0  0  0  0  0  0  0  0  0
   12.4855   -5.4158   47.5403 H   0  0  0  0  0  0  0  0  0  0  0  0
   10.3207   -4.1956   47.9036 H   0  0  0  0  0  0  0  0  0  0  0  0
   13.7085   -5.2148   45.3496 H   0  0  0  0  0  0  0  0  0  0  0  0
    7.6073   -1.2999   45.3401 H   0  0  0  0  0  0  0  0  0  0  0  0
   12.9782   -1.7201   43.1218 H   0  0  0  0  0  0  0  0  0  0  0  0
   12.9900   -2.5135   41.5240 H   0  0  0  0  0  0  0  0  0  0  0  0
    6.6234   -1.4873   43.0781 H   0  0  0  0  0  0  0  0  0  0  0  0
    5.6653   -0.1121   41.1990 H   0  0  0  0  0  0  0  0  0  0  0  0
    9.6642    1.3920   40.2952 H   0  0  0  0  0  0  0  0  0  0  0  0
   10.6007    0.0083   42.1829 H   0  0  0  0  0  0  0  0  0  0  0  0
  1  2  2  0
  1  6  1  0
  2  3  1  0
  3  4  2  0
  3  7  1  0
  4  5  1  0
  4 10  1  0
  5  6  2  0
  5 11  1  0
  7  8  2  0
  8  9  1  0
  9 10  2  0
  9 14  1  0
 11 12  1  0
 11 13  2  0
 14 15  2  0
 14 19  1  0
 15 16  1  0
 16 17  2  0
 17 18  1  0
 17 20  1  0
 18 19  2  0
  1 21  1  0
  2 22  1  0
  6 23  1  0
  8 24  1  0
 12 25  1  0
 12 26  1  0
 15 27  1  0
 16 28  1  0
 18 29  1  0
 19 30  1  0
A    1
C1
A    2
C2
A    3
C3
A    4
C4
A    5
C5
A    6
C6
A    7
N7
A    8
C8
A    9
C9
A   10
N10
A   11
C11
A   12
N12
A   13
O13
A   14
C14
A   15
C15
A   16
C16
A   17
C17
A   18
C18
A   19
C19
A   20
CL24
M  END
