4TMF_JS2_A_401
     RDKit          3D

 56 58  0  0  0  0  0  0  0  0999 V2000
    6.4510   -4.6980    2.9280 C   0  0  0  0  0  0  0  0  0  0  0  0
    4.7720   -3.2710    2.0240 C   0  0  0  0  0  0  0  0  0  0  0  0
    4.1260   -5.0760    3.3030 C   0  0  0  0  0  0  0  0  0  0  0  0
    0.0230    4.0120   -0.6210 O   0  0  0  0  0  0  0  0  0  0  0  0
    0.7130    3.1060    0.3060 C   0  0  0  0  0  0  0  0  0  0  0  0
    0.6140    1.6890   -0.1600 C   0  0  0  0  0  0  0  0  0  0  0  0
   -0.3980    1.6060   -1.1430 O   0  0  0  0  0  0  0  0  0  0  0  0
    1.9710    1.4350   -0.8420 C   0  0  0  0  0  0  0  0  0  0  0  0
    1.7430    1.4680   -2.1990 O   0  0  0  0  0  0  0  0  0  0  0  0
    2.8120    2.5710   -0.6600 O   0  0  0  0  0  0  0  0  0  0  0  0
    2.2580    3.3560    0.3910 C   0  0  0  0  0  0  0  0  0  0  0  0
    2.7940    2.8610    1.7300 C   0  0  0  0  0  0  0  0  0  0  0  0
    4.2420    2.9840    1.6590 O   0  0  0  0  0  0  0  0  0  0  0  0
    5.1510    4.0580    2.5290 P   0  0  0  0  0  0  0  0  0  0  0  0
    4.9060    3.7880    4.1950 O   0  0  0  0  0  0  0  0  0  0  0  0
    4.8910    5.4490    2.0360 O   0  0  0  0  0  0  0  0  0  0  0  0
    6.6950    3.5430    2.3000 O   0  0  0  0  0  0  0  0  0  0  0  0
    7.2720    2.6310    3.5010 P   0  0  0  0  0  0  0  0  0  0  0  0
    7.9160    3.6570    4.4540 O   0  0  0  0  0  0  0  0  0  0  0  0
    8.2890    1.6830    2.9740 O   0  0  0  0  0  0  0  0  0  0  0  0
    5.9120    1.9240    4.2810 O   0  0  0  0  0  0  0  0  0  0  0  0
    5.6610    0.5290    4.0530 C   0  0  0  0  0  0  0  0  0  0  0  0
    4.9940    0.3570    2.6780 C   0  0  0  0  0  0  0  0  0  0  0  0
    5.9210   -0.4270    1.6850 C   0  0  0  0  0  0  0  0  0  0  0  0
    5.1340   -1.2910    0.6520 C   0  0  0  0  0  0  0  0  0  0  0  0
    4.2300   -2.2900    1.3440 N   0  0  0  0  0  0  0  0  0  0  0  0
    6.0750   -3.5860    2.1750 N   0  0  0  0  0  0  0  0  0  0  0  0
    5.4960   -5.4260    3.4760 N   0  0  0  0  0  0  0  0  0  0  0  0
    3.2770   -5.7770    3.8280 O   0  0  0  0  0  0  0  0  0  0  0  0
    3.7860   -4.0060    2.5770 C   0  0  0  0  0  0  0  0  0  0  0  0
    2.5970   -3.4730    2.2440 N   0  0  0  0  0  0  0  0  0  0  0  0
    2.9060   -2.4080    1.4960 C   0  0  0  0  0  0  0  0  0  0  0  0
    2.0180   -1.5790    0.9590 N   0  0  0  0  0  0  0  0  0  0  0  0
    7.5109   -4.9604    3.0612 H   0  0  0  0  0  0  0  0  0  0  0  0
   -0.4891    4.6844   -0.1054 H   0  0  0  0  0  0  0  0  0  0  0  0
    0.2237    3.2925    1.2733 H   0  0  0  0  0  0  0  0  0  0  0  0
    0.3874    0.9798    0.6497 H   0  0  0  0  0  0  0  0  0  0  0  0
   -1.2813    1.5336   -0.7019 H   0  0  0  0  0  0  0  0  0  0  0  0
    2.4029    0.5026   -0.4493 H   0  0  0  0  0  0  0  0  0  0  0  0
    0.7776    1.6077   -2.3681 H   0  0  0  0  0  0  0  0  0  0  0  0
    2.5106    4.4229    0.3026 H   0  0  0  0  0  0  0  0  0  0  0  0
    2.3988    3.4781    2.5504 H   0  0  0  0  0  0  0  0  0  0  0  0
    2.4893    1.8220    1.9239 H   0  0  0  0  0  0  0  0  0  0  0  0
    5.4713    4.4110    4.7169 H   0  0  0  0  0  0  0  0  0  0  0  0
    7.7471    3.3879    5.3916 H   0  0  0  0  0  0  0  0  0  0  0  0
    4.9940    0.1416    4.8372 H   0  0  0  0  0  0  0  0  0  0  0  0
    6.6095   -0.0275    4.0775 H   0  0  0  0  0  0  0  0  0  0  0  0
    4.7792    1.3506    2.2579 H   0  0  0  0  0  0  0  0  0  0  0  0
    4.0667   -0.2191    2.8132 H   0  0  0  0  0  0  0  0  0  0  0  0
    6.5743   -1.0916    2.2693 H   0  0  0  0  0  0  0  0  0  0  0  0
    6.4911    0.3211    1.1145 H   0  0  0  0  0  0  0  0  0  0  0  0
    5.8512   -1.8349    0.0197 H   0  0  0  0  0  0  0  0  0  0  0  0
    4.5088   -0.6206    0.0439 H   0  0  0  0  0  0  0  0  0  0  0  0
    5.7438   -6.2554    4.0342 H   0  0  0  0  0  0  0  0  0  0  0  0
    1.4101   -1.0115    1.5666 H   0  0  0  0  0  0  0  0  0  0  0  0
    1.9373   -1.5037   -0.0651 H   0  0  0  0  0  0  0  0  0  0  0  0
  9  8  1  0
  7  6  1  0
  8 10  1  0
  8  6  1  0
 10 11  1  0
  4  5  1  0
  6  5  1  0
  5 11  1  0
 11 12  1  0
 25 26  1  0
 25 24  1  0
 33 32  1  0
 26 32  1  0
 26  2  1  0
 32 31  2  0
 13 12  1  0
 13 14  1  0
 24 23  1  0
  2 27  1  0
  2 30  2  0
 16 14  2  0
 27  1  2  0
 31 30  1  0
 17 14  1  0
 17 18  1  0
 14 15  1  0
 30  3  1  0
 23 22  1  0
  1 28  1  0
 20 18  2  0
  3 28  1  0
  3 29  2  0
 18 21  1  0
 18 19  1  0
 22 21  1  0
  1 34  1  0
  4 35  1  0
  5 36  1  0
  6 37  1  0
  7 38  1  0
  8 39  1  0
  9 40  1  0
 11 41  1  0
 12 42  1  0
 12 43  1  0
 15 44  1  0
 19 45  1  0
 22 46  1  0
 22 47  1  0
 23 48  1  0
 23 49  1  0
 24 50  1  0
 24 51  1  0
 25 52  1  0
 25 53  1  0
 28 54  1  0
 33 55  1  0
 33 56  1  0
A    1
C2
A    2
C4
A    3
C6
A    4
O3'
A    5
C3'
A    6
C2'
A    7
O2'
A    8
C1'
A    9
O1'
A   10
O4'
A   11
C4'
A   12
C5'
A   13
O5'
A   14
PBG
A   15
OAI
A   16
OAD
A   17
OAV
A   18
PBF
A   19
OAH
A   20
OAC
A   21
OAS
A   22
CAM
A   23
CAK
A   24
CAL
A   25
CAN
A   26
N9
A   27
N3
A   28
N1
A   29
O6
A   30
C5
A   31
N7
A   32
C8
A   33
NAA
M  END
