4TN2_33J_A_900
     RDKit          3D

 49 52  0  0  0  0  0  0  0  0999 V2000
   35.0430  -72.4480  -12.7390 C   0  0  0  0  0  0  0  0  0  0  0  0
   34.0300  -71.4180  -12.3830 C   0  0  0  0  0  0  0  0  0  0  0  0
   32.7110  -69.6740  -11.0610 C   0  0  0  0  0  0  0  0  0  0  0  0
   35.9690  -72.6960  -11.7760 O   0  0  0  0  0  0  0  0  0  0  0  0
   35.0880  -72.9910  -13.8460 O   0  0  0  0  0  0  0  0  0  0  0  0
   30.6070  -71.8620  -14.5320 O   0  0  0  0  0  0  0  0  0  0  0  0
   35.0280  -68.6520  -16.4390 C   0  0  0  0  0  0  0  0  0  0  0  0
   35.4710  -67.1880  -16.3790 C   0  0  0  0  0  0  0  0  0  0  0  0
   34.3100  -66.2610  -16.7870 C   0  0  0  0  0  0  0  0  0  0  0  0
   33.1340  -66.3940  -15.8160 C   0  0  0  0  0  0  0  0  0  0  0  0
   32.6940  -67.8550  -15.6450 C   0  0  0  0  0  0  0  0  0  0  0  0
   32.1730  -68.7330  -10.0780 C   0  0  0  0  0  0  0  0  0  0  0  0
   32.5620  -68.7380   -8.7120 C   0  0  0  0  0  0  0  0  0  0  0  0
   32.0030  -67.8220   -7.7920 C   0  0  0  0  0  0  0  0  0  0  0  0
   31.0790  -66.8450   -8.2380 C   0  0  0  0  0  0  0  0  0  0  0  0
   30.6910  -66.7960   -9.5970 C   0  0  0  0  0  0  0  0  0  0  0  0
   31.2530  -67.7240  -10.5070 C   0  0  0  0  0  0  0  0  0  0  0  0
   34.0090  -70.8000  -10.7290 S   0  0  0  0  0  0  0  0  0  0  0  0
   32.3120  -69.7970  -12.3570 C   0  0  0  0  0  0  0  0  0  0  0  0
   33.0460  -70.7650  -13.1080 C   0  0  0  0  0  0  0  0  0  0  0  0
   32.6820  -70.9550  -14.4860 N   0  0  0  0  0  0  0  0  0  0  0  0
   31.7520  -71.7610  -14.9640 C   0  0  0  0  0  0  0  0  0  0  0  0
   32.3180  -72.3870  -16.2310 C   0  0  0  0  0  0  0  0  0  0  0  0
   33.4740  -71.4320  -16.5920 C   0  0  0  0  0  0  0  0  0  0  0  0
   33.0870  -70.2470  -15.6990 C   0  0  0  0  0  0  0  0  0  0  0  0
   33.8300  -68.9090  -15.4890 C   0  0  0  0  0  0  0  0  0  0  0  0
   35.7194  -72.6292  -10.8203 H   0  0  0  0  0  0  0  0  0  0  0  0
   34.7289  -68.8955  -17.4692 H   0  0  0  0  0  0  0  0  0  0  0  0
   35.8691  -69.2861  -16.1220 H   0  0  0  0  0  0  0  0  0  0  0  0
   36.3157  -67.0360  -17.0670 H   0  0  0  0  0  0  0  0  0  0  0  0
   35.7756  -66.9482  -15.3496 H   0  0  0  0  0  0  0  0  0  0  0  0
   34.6633  -65.2193  -16.7835 H   0  0  0  0  0  0  0  0  0  0  0  0
   33.9685  -66.5489  -17.7922 H   0  0  0  0  0  0  0  0  0  0  0  0
   33.4358  -65.9966  -14.8357 H   0  0  0  0  0  0  0  0  0  0  0  0
   32.2855  -65.8290  -16.2294 H   0  0  0  0  0  0  0  0  0  0  0  0
   32.0610  -67.9105  -14.7471 H   0  0  0  0  0  0  0  0  0  0  0  0
   32.1811  -68.1163  -16.5824 H   0  0  0  0  0  0  0  0  0  0  0  0
   33.3099  -69.4660   -8.3646 H   0  0  0  0  0  0  0  0  0  0  0  0
   32.2854  -67.8677   -6.7298 H   0  0  0  0  0  0  0  0  0  0  0  0
   30.6612  -66.1207   -7.5233 H   0  0  0  0  0  0  0  0  0  0  0  0
   29.9628  -66.0474   -9.9424 H   0  0  0  0  0  0  0  0  0  0  0  0
   30.9756  -67.6680  -11.5700 H   0  0  0  0  0  0  0  0  0  0  0  0
   31.4941  -69.2016  -12.7888 H   0  0  0  0  0  0  0  0  0  0  0  0
   31.5631  -72.4165  -17.0306 H   0  0  0  0  0  0  0  0  0  0  0  0
   32.6388  -73.4306  -16.0972 H   0  0  0  0  0  0  0  0  0  0  0  0
   34.4550  -71.8500  -16.3219 H   0  0  0  0  0  0  0  0  0  0  0  0
   33.5849  -71.2038  -17.6623 H   0  0  0  0  0  0  0  0  0  0  0  0
   32.3829  -69.6436  -16.2907 H   0  0  0  0  0  0  0  0  0  0  0  0
   34.3339  -68.8818  -14.5116 H   0  0  0  0  0  0  0  0  0  0  0  0
  9  8  1  0
  9 10  1  0
 24 23  1  0
 24 25  1  0
  7  8  1  0
  7 26  1  0
 23 22  1  0
 10 11  1  0
 25 26  1  0
 25 21  1  0
 11 26  1  0
 22  6  2  0
 22 21  1  0
 21 20  1  0
  5  1  2  0
 20  2  2  0
 20 19  1  0
  1  2  1  0
  1  4  1  0
  2 18  1  0
 19  3  2  0
  3 18  1  0
  3 12  1  0
 17 12  1  0
 17 16  2  0
 12 13  2  0
 16 15  1  0
 13 14  1  0
 15 14  2  0
  4 27  1  0
  7 28  1  0
  7 29  1  0
  8 30  1  0
  8 31  1  0
  9 32  1  0
  9 33  1  0
 10 34  1  0
 10 35  1  0
 11 36  1  0
 11 37  1  0
 13 38  1  0
 14 39  1  0
 15 40  1  0
 16 41  1  0
 17 42  1  0
 19 43  1  0
 23 44  1  0
 23 45  1  0
 24 46  1  0
 24 47  1  0
 25 48  1  0
 26 49  1  0
A    1
C1
A    2
C2
A    3
C3
A    4
O1
A    5
O2
A    6
O3
A    7
C11
A    8
C12
A    9
C13
A   10
C14
A   11
C15
A   12
C16
A   13
C17
A   14
C18
A   15
C19
A   16
C20
A   17
C21
A   18
S1
A   19
C4
A   20
C5
A   21
N1
A   22
C6
A   23
C7
A   24
C8
A   25
C9
A   26
C10
M  END
