4TN6_PFO_A_401
     RDKit          3D

 53 57  0  0  0  0  0  0  0  0999 V2000
  -22.4760   -6.3810   37.4090 N   0  0  0  0  0  0  0  0  0  0  0  0
  -19.2040    2.6590   40.8220 C   0  0  0  0  0  0  0  0  0  0  0  0
  -19.5270   -1.2560   38.9540 N   0  0  0  0  0  0  0  0  0  0  0  0
  -20.5450   -0.6800   39.7000 C   0  0  0  0  0  0  0  0  0  0  0  0
  -20.2480    0.4950   40.5460 C   0  0  0  0  0  0  0  0  0  0  0  0
  -20.0630   -2.3150   38.4130 C   0  0  0  0  0  0  0  0  0  0  0  0
  -22.8310   -6.0200   38.7910 C   0  0  0  0  0  0  0  0  0  0  0  0
  -23.4670    0.2980   40.1080 C   0  0  0  0  0  0  0  0  0  0  0  0
  -24.7570    0.5280   40.5430 C   0  0  0  0  0  0  0  0  0  0  0  0
  -21.7150   -1.4070   39.5500 C   0  0  0  0  0  0  0  0  0  0  0  0
  -25.6100   -0.4570   40.8690 N   0  0  0  0  0  0  0  0  0  0  0  0
  -21.1360   -9.1810   34.4330 C   0  0  0  0  0  0  0  0  0  0  0  0
  -22.5710   -8.2100   35.7640 C   0  0  0  0  0  0  0  0  0  0  0  0
  -23.0590   -1.0300   40.0410 C   0  0  0  0  0  0  0  0  0  0  0  0
  -20.7180    0.5730   41.8610 C   0  0  0  0  0  0  0  0  0  0  0  0
  -20.4590    1.6880   42.6400 C   0  0  0  0  0  0  0  0  0  0  0  0
  -19.7200    2.7080   42.0920 C   0  0  0  0  0  0  0  0  0  0  0  0
  -19.4840    1.5480   40.0420 C   0  0  0  0  0  0  0  0  0  0  0  0
  -21.3830   -2.4760   38.7370 N   0  0  0  0  0  0  0  0  0  0  0  0
  -22.2300   -3.6250   38.3370 C   0  0  0  0  0  0  0  0  0  0  0  0
  -21.9980   -4.0060   36.8750 C   0  0  0  0  0  0  0  0  0  0  0  0
  -22.8040   -5.2560   36.5120 C   0  0  0  0  0  0  0  0  0  0  0  0
  -22.0200   -4.8170   39.2740 C   0  0  0  0  0  0  0  0  0  0  0  0
  -23.1700   -7.6020   37.0000 C   0  0  0  0  0  0  0  0  0  0  0  0
  -21.3520   -8.9690   35.7320 C   0  0  0  0  0  0  0  0  0  0  0  0
  -22.1120   -8.6290   33.6960 O   0  0  0  0  0  0  0  0  0  0  0  0
  -23.0430   -8.0240   34.5700 N   0  0  0  0  0  0  0  0  0  0  0  0
  -25.1300   -1.7220   40.7350 C   0  0  0  0  0  0  0  0  0  0  0  0
  -23.8690   -2.0490   40.3670 N   0  0  0  0  0  0  0  0  0  0  0  0
  -26.0080   -2.7170   40.8240 N   0  0  0  0  0  0  0  0  0  0  0  0
  -19.5510    3.8430   42.8150 F   0  0  0  0  0  0  0  0  0  0  0  0
  -18.5841    3.4801   40.4327 H   0  0  0  0  0  0  0  0  0  0  0  0
  -19.5101   -3.0084   37.7623 H   0  0  0  0  0  0  0  0  0  0  0  0
  -23.9017   -5.7712   38.8331 H   0  0  0  0  0  0  0  0  0  0  0  0
  -22.6059   -6.8765   39.4435 H   0  0  0  0  0  0  0  0  0  0  0  0
  -22.7957    1.1234   39.8285 H   0  0  0  0  0  0  0  0  0  0  0  0
  -25.1031    1.5688   40.6267 H   0  0  0  0  0  0  0  0  0  0  0  0
  -20.2769   -9.7320   34.0228 H   0  0  0  0  0  0  0  0  0  0  0  0
  -21.2999   -0.2607   42.2810 H   0  0  0  0  0  0  0  0  0  0  0  0
  -20.8354    1.7553   43.6714 H   0  0  0  0  0  0  0  0  0  0  0  0
  -19.0991    1.4959   39.0129 H   0  0  0  0  0  0  0  0  0  0  0  0
  -23.2817   -3.3158   38.4281 H   0  0  0  0  0  0  0  0  0  0  0  0
  -20.9279   -4.2073   36.7189 H   0  0  0  0  0  0  0  0  0  0  0  0
  -22.3248   -3.1736   36.2344 H   0  0  0  0  0  0  0  0  0  0  0  0
  -23.8768   -5.0290   36.5986 H   0  0  0  0  0  0  0  0  0  0  0  0
  -22.5512   -5.5466   35.4816 H   0  0  0  0  0  0  0  0  0  0  0  0
  -20.9525   -5.0819   39.2907 H   0  0  0  0  0  0  0  0  0  0  0  0
  -22.3554   -4.5415   40.2847 H   0  0  0  0  0  0  0  0  0  0  0  0
  -24.2242   -7.3599   36.8001 H   0  0  0  0  0  0  0  0  0  0  0  0
  -23.0741   -8.3335   37.8159 H   0  0  0  0  0  0  0  0  0  0  0  0
  -20.7380   -9.2993   36.5828 H   0  0  0  0  0  0  0  0  0  0  0  0
  -26.3085   -3.0575   41.7485 H   0  0  0  0  0  0  0  0  0  0  0  0
  -26.3875   -3.1470   39.9685 H   0  0  0  0  0  0  0  0  0  0  0  0
 26 12  1  0
 26 27  1  0
 12 25  2  0
 27 13  2  0
 25 13  1  0
 13 24  1  0
 22 21  1  0
 22  1  1  0
 21 20  1  0
 24  1  1  0
  1  7  1  0
 20 19  1  0
 20 23  1  0
  6 19  1  0
  6  3  2  0
 19 10  1  0
  7 23  1  0
  3  4  1  0
 10  4  2  0
 10 14  1  0
  4  5  1  0
 14  8  2  0
 14 29  1  0
 18  5  1  0
 18  2  2  0
  8  9  1  0
 29 28  2  0
  9 11  2  0
  5 15  2  0
 28 30  1  0
 28 11  1  0
  2 17  1  0
 15 16  1  0
 17 16  2  0
 17 31  1  0
  2 32  1  0
  6 33  1  0
  7 34  1  0
  7 35  1  0
  8 36  1  0
  9 37  1  0
 12 38  1  0
 15 39  1  0
 16 40  1  0
 18 41  1  0
 20 42  1  0
 21 43  1  0
 21 44  1  0
 22 45  1  0
 22 46  1  0
 23 47  1  0
 23 48  1  0
 24 49  1  0
 24 50  1  0
 25 51  1  0
 30 52  1  0
 30 53  1  0
A    1
N3
A    2
C4
A    3
N2
A    4
C7
A    5
C6
A    6
C9
A    7
C13
A    8
C20
A    9
C21
A   10
C8
A   11
N5
A   12
C18
A   13
C16
A   14
C19
A   15
C1
A   16
C2
A   17
C3
A   18
C5
A   19
N1
A   20
C10
A   21
C11
A   22
C12
A   23
C14
A   24
C15
A   25
C17
A   26
O1
A   27
N4
A   28
C22
A   29
N6
A   30
N7
A   31
F1
M  END
