4TOR_IW8_A_1402
     RDKit          3D

 62 65  0  0  0  0  0  0  0  0999 V2000
  -73.7610  129.8290    0.7960 C   0  0  0  0  0  0  0  0  0  0  0  0
  -73.4640  130.6180   -0.2520 C   0  0  0  0  0  0  0  0  0  0  0  0
  -72.8450  131.7560   -0.1810 C   0  0  0  0  0  0  0  0  0  0  0  0
  -72.4800  132.2040    0.9750 C   0  0  0  0  0  0  0  0  0  0  0  0
  -72.7160  131.5430    2.0420 C   0  0  0  0  0  0  0  0  0  0  0  0
  -73.3790  130.3390    1.9260 C   0  0  0  0  0  0  0  0  0  0  0  0
  -71.7810  133.4490    1.1650 C   0  0  0  0  0  0  0  0  0  0  0  0
  -71.6610  133.3660    2.6330 C   0  0  0  0  0  0  0  0  0  0  0  0
  -72.2910  132.1170    3.0540 N   0  0  0  0  0  0  0  0  0  0  0  0
  -73.3360  130.1320   -2.0450 Br  0  0  0  0  0  0  0  0  0  0  0  0
  -74.6650  128.2640    0.6630 S   0  0  0  0  0  0  0  0  0  0  0  0
  -75.3450  128.0130    2.0990 N   0  0  0  0  0  0  0  0  0  0  0  0
  -73.9100  127.1590    0.2710 O   0  0  0  0  0  0  0  0  0  0  0  0
  -75.7080  128.6410   -0.1120 O   0  0  0  0  0  0  0  0  0  0  0  0
  -72.2880  131.8680    4.2220 C   0  0  0  0  0  0  0  0  0  0  0  0
  -72.7670  130.9030    4.6480 O   0  0  0  0  0  0  0  0  0  0  0  0
  -71.7050  132.7150    5.3540 C   0  0  0  0  0  0  0  0  0  0  0  0
  -74.7560  127.0480    2.9750 C   0  0  0  0  0  0  0  0  0  0  0  0
  -75.8930  126.2230    3.4980 C   0  0  0  0  0  0  0  0  0  0  0  0
  -76.9590  127.1440    4.1680 C   0  0  0  0  0  0  0  0  0  0  0  0
  -77.4970  127.8650    2.8550 C   0  0  0  0  0  0  0  0  0  0  0  0
  -76.4960  128.8150    2.3110 C   0  0  0  0  0  0  0  0  0  0  0  0
  -78.1080  126.1700    4.5480 C   0  0  0  0  0  0  0  0  0  0  0  0
  -78.8180  126.5890    5.6850 N   0  0  0  0  0  0  0  0  0  0  0  0
  -78.4030  125.1760    3.9530 O   0  0  0  0  0  0  0  0  0  0  0  0
  -78.5620  127.7400    6.4490 C   0  0  0  0  0  0  0  0  0  0  0  0
  -79.9390  125.7420    6.1540 C   0  0  0  0  0  0  0  0  0  0  0  0
  -81.1880  126.0490    5.4590 C   0  0  0  0  0  0  0  0  0  0  0  0
  -77.5140  128.0880    7.1320 C   0  0  0  0  0  0  0  0  0  0  0  0
  -77.5210  129.2170    7.7590 C   0  0  0  0  0  0  0  0  0  0  0  0
  -78.4740  130.1280    7.8420 C   0  0  0  0  0  0  0  0  0  0  0  0
  -79.5410  129.7700    7.1550 C   0  0  0  0  0  0  0  0  0  0  0  0
  -79.5320  128.5570    6.4690 C   0  0  0  0  0  0  0  0  0  0  0  0
  -76.2980  129.5260    8.4810 C   0  0  0  0  0  0  0  0  0  0  0  0
  -72.6334  132.3325   -1.0936 H   0  0  0  0  0  0  0  0  0  0  0  0
  -73.5968  129.7778    2.8466 H   0  0  0  0  0  0  0  0  0  0  0  0
  -71.4457  134.2132    0.4484 H   0  0  0  0  0  0  0  0  0  0  0  0
  -71.1845  134.1084    3.2901 H   0  0  0  0  0  0  0  0  0  0  0  0
  -72.0005  132.2857    6.3227 H   0  0  0  0  0  0  0  0  0  0  0  0
  -70.6078  132.7250    5.2768 H   0  0  0  0  0  0  0  0  0  0  0  0
  -72.0874  133.7435    5.2768 H   0  0  0  0  0  0  0  0  0  0  0  0
  -74.2347  127.5504    3.8032 H   0  0  0  0  0  0  0  0  0  0  0  0
  -74.0126  126.4278    2.4527 H   0  0  0  0  0  0  0  0  0  0  0  0
  -75.5116  125.5073    4.2412 H   0  0  0  0  0  0  0  0  0  0  0  0
  -76.3594  125.6811    2.6620 H   0  0  0  0  0  0  0  0  0  0  0  0
  -76.6320  127.7779    5.0054 H   0  0  0  0  0  0  0  0  0  0  0  0
  -77.7182  127.1029    2.0932 H   0  0  0  0  0  0  0  0  0  0  0  0
  -78.4040  128.4297    3.1168 H   0  0  0  0  0  0  0  0  0  0  0  0
  -76.8466  129.2542    1.3654 H   0  0  0  0  0  0  0  0  0  0  0  0
  -76.3044  129.6623    2.9859 H   0  0  0  0  0  0  0  0  0  0  0  0
  -80.0826  125.9085    7.2318 H   0  0  0  0  0  0  0  0  0  0  0  0
  -79.6827  124.6933    5.9429 H   0  0  0  0  0  0  0  0  0  0  0  0
  -81.9800  126.2437    6.1971 H   0  0  0  0  0  0  0  0  0  0  0  0
  -81.0475  126.9393    4.8285 H   0  0  0  0  0  0  0  0  0  0  0  0
  -81.4763  125.1950    4.8285 H   0  0  0  0  0  0  0  0  0  0  0  0
  -76.6330  127.4308    7.1759 H   0  0  0  0  0  0  0  0  0  0  0  0
  -78.3884  131.0653    8.4114 H   0  0  0  0  0  0  0  0  0  0  0  0
  -80.4273  130.4208    7.1237 H   0  0  0  0  0  0  0  0  0  0  0  0
  -80.4350  128.2875    5.9016 H   0  0  0  0  0  0  0  0  0  0  0  0
  -76.4890  129.4778    9.5632 H   0  0  0  0  0  0  0  0  0  0  0  0
  -75.5197  128.7963    8.2131 H   0  0  0  0  0  0  0  0  0  0  0  0
  -75.9597  130.5378    8.2131 H   0  0  0  0  0  0  0  0  0  0  0  0
 34 30  1  0
 31 30  1  0
 31 32  2  0
 30 29  2  0
 28 27  1  0
 29 26  1  0
 32 33  1  0
 33 26  2  0
 26 24  1  0
 27 24  1  0
 24 23  1  0
 17 15  1  0
 16 15  2  0
 23 20  1  0
 23 25  2  0
 15  9  1  0
 20 19  1  0
 20 21  1  0
 19 18  1  0
  9  8  1  0
  9  5  1  0
 18 12  1  0
 21 22  1  0
  8  7  2  0
 22 12  1  0
 12 11  1  0
  5  6  2  0
  5  4  1  0
  6  1  1  0
  7  4  1  0
  4  3  2  0
  1 11  1  0
  1  2  2  0
 11 13  2  0
 11 14  2  0
  3  2  1  0
  2 10  1  0
  3 35  1  0
  6 36  1  0
  7 37  1  0
  8 38  1  0
 17 39  1  0
 17 40  1  0
 17 41  1  0
 18 42  1  0
 18 43  1  0
 19 44  1  0
 19 45  1  0
 20 46  1  0
 21 47  1  0
 21 48  1  0
 22 49  1  0
 22 50  1  0
 27 51  1  0
 27 52  1  0
 28 53  1  0
 28 54  1  0
 28 55  1  0
 29 56  1  0
 31 57  1  0
 32 58  1  0
 33 59  1  0
 34 60  1  0
 34 61  1  0
 34 62  1  0
A    1
C01
A    2
C02
A    3
C03
A    4
C04
A    5
C05
A    6
C06
A    7
C07
A    8
C08
A    9
N01
A   10
BR
A   11
S
A   12
N02
A   13
O01
A   14
O02
A   15
C09
A   16
O03
A   17
C10
A   18
C11
A   19
C12
A   20
C13
A   21
C14
A   22
C15
A   23
C16
A   24
N
A   25
O
A   26
C17
A   27
C18
A   28
C19
A   29
C20
A   30
C21
A   31
C22
A   32
C23
A   33
C24
A   34
C
M  END
