4TOS_355_A_1402
     RDKit          3D

 75 80  0  0  0  0  0  0  0  0999 V2000
  -15.2860   20.2300   -2.0880 C   0  0  0  0  0  0  0  0  0  0  0  0
  -14.3600   19.5800   -3.0840 C   0  0  0  0  0  0  0  0  0  0  0  0
  -13.1190   19.1840   -2.6220 C   0  0  0  0  0  0  0  0  0  0  0  0
  -12.1740   18.5820   -3.4130 C   0  0  0  0  0  0  0  0  0  0  0  0
  -12.4970   18.3740   -4.7480 C   0  0  0  0  0  0  0  0  0  0  0  0
  -13.7440   18.7570   -5.2520 C   0  0  0  0  0  0  0  0  0  0  0  0
  -13.9030   18.4880   -6.5970 N   0  0  0  0  0  0  0  0  0  0  0  0
  -15.0760   18.8280   -7.2130 C   0  0  0  0  0  0  0  0  0  0  0  0
  -15.1670   18.5250   -8.6980 C   0  0  0  0  0  0  0  0  0  0  0  0
  -16.2750   19.1860   -9.3290 N   0  0  0  0  0  0  0  0  0  0  0  0
  -16.1440   20.4610   -9.9620 C   0  0  0  0  0  0  0  0  0  0  0  0
  -14.9380   21.0830   -9.9580 O   0  0  0  0  0  0  0  0  0  0  0  0
  -17.2320   21.0630  -10.5540 N   0  0  0  0  0  0  0  0  0  0  0  0
  -17.0820   22.3560  -11.2100 C   0  0  0  0  0  0  0  0  0  0  0  0
  -16.4610   22.0920  -12.6260 C   0  0  0  0  0  0  0  0  0  0  0  0
  -16.8640   20.8010  -13.2940 C   0  0  0  0  0  0  0  0  0  0  0  0
  -16.1480   20.6300  -14.6360 C   0  0  0  0  0  0  0  0  0  0  0  0
  -16.4840   21.7720  -15.5280 C   0  0  0  0  0  0  0  0  0  0  0  0
  -15.8560   22.9220  -14.8570 C   0  0  0  0  0  0  0  0  0  0  0  0
  -16.6760   23.2380  -13.5940 C   0  0  0  0  0  0  0  0  0  0  0  0
  -15.9330   21.5320  -16.9000 C   0  0  0  0  0  0  0  0  0  0  0  0
  -14.8350   21.8760  -17.1660 O   0  0  0  0  0  0  0  0  0  0  0  0
  -16.6750   20.8730  -17.9300 N   0  0  0  0  0  0  0  0  0  0  0  0
  -16.0130   20.6870  -19.1970 C   0  0  0  0  0  0  0  0  0  0  0  0
  -16.8850   21.1400  -20.3420 C   0  0  0  0  0  0  0  0  0  0  0  0
  -18.1960   20.7700  -20.3910 C   0  0  0  0  0  0  0  0  0  0  0  0
  -18.9950   21.1850  -21.4420 C   0  0  0  0  0  0  0  0  0  0  0  0
  -18.4580   21.9710  -22.4210 C   0  0  0  0  0  0  0  0  0  0  0  0
  -17.1400   22.3410  -22.3620 C   0  0  0  0  0  0  0  0  0  0  0  0
  -16.3350   21.9230  -21.3260 C   0  0  0  0  0  0  0  0  0  0  0  0
  -18.4400   20.4220  -10.5470 C   0  0  0  0  0  0  0  0  0  0  0  0
  -19.5250   21.0010  -11.1300 O   0  0  0  0  0  0  0  0  0  0  0  0
  -18.5920   19.1010   -9.9040 C   0  0  0  0  0  0  0  0  0  0  0  0
  -17.5630   18.5340   -9.3450 C   0  0  0  0  0  0  0  0  0  0  0  0
  -17.6830   17.2030   -8.7020 C   0  0  0  0  0  0  0  0  0  0  0  0
  -18.9290   16.6040   -8.7190 C   0  0  0  0  0  0  0  0  0  0  0  0
  -20.0510   17.2050   -9.3180 C   0  0  0  0  0  0  0  0  0  0  0  0
  -19.9270   18.4550   -9.9240 C   0  0  0  0  0  0  0  0  0  0  0  0
  -16.0930   19.4440   -6.4940 C   0  0  0  0  0  0  0  0  0  0  0  0
  -15.8850   19.7110   -5.0650 C   0  0  0  0  0  0  0  0  0  0  0  0
  -16.9630   20.2970   -4.4640 O   0  0  0  0  0  0  0  0  0  0  0  0
  -14.7050   19.3760   -4.4330 N   0  0  0  0  0  0  0  0  0  0  0  0
  -14.9504   19.9944   -1.0673 H   0  0  0  0  0  0  0  0  0  0  0  0
  -15.2757   21.3201   -2.2349 H   0  0  0  0  0  0  0  0  0  0  0  0
  -16.3077   19.8499   -2.2349 H   0  0  0  0  0  0  0  0  0  0  0  0
  -12.8764   19.3610   -1.5638 H   0  0  0  0  0  0  0  0  0  0  0  0
  -11.1988   18.2760   -3.0063 H   0  0  0  0  0  0  0  0  0  0  0  0
  -11.7625   17.9020   -5.4172 H   0  0  0  0  0  0  0  0  0  0  0  0
  -14.2367   18.8558   -9.1829 H   0  0  0  0  0  0  0  0  0  0  0  0
  -15.3184   17.4411   -8.8085 H   0  0  0  0  0  0  0  0  0  0  0  0
  -18.0636   22.8413  -11.3141 H   0  0  0  0  0  0  0  0  0  0  0  0
  -16.4342   23.0197  -10.6185 H   0  0  0  0  0  0  0  0  0  0  0  0
  -15.3909   22.0007  -12.3882 H   0  0  0  0  0  0  0  0  0  0  0  0
  -16.6017   19.9589  -12.6367 H   0  0  0  0  0  0  0  0  0  0  0  0
  -17.9485   20.8248  -13.4764 H   0  0  0  0  0  0  0  0  0  0  0  0
  -15.0609   20.6020  -14.4703 H   0  0  0  0  0  0  0  0  0  0  0  0
  -16.4722   19.6902  -15.1067 H   0  0  0  0  0  0  0  0  0  0  0  0
  -17.5630   21.9272  -15.6755 H   0  0  0  0  0  0  0  0  0  0  0  0
  -14.8214   22.6729  -14.5783 H   0  0  0  0  0  0  0  0  0  0  0  0
  -15.8353   23.7931  -15.5284 H   0  0  0  0  0  0  0  0  0  0  0  0
  -16.3301   24.1809  -13.1455 H   0  0  0  0  0  0  0  0  0  0  0  0
  -17.7428   23.3505  -13.8374 H   0  0  0  0  0  0  0  0  0  0  0  0
  -17.6391   20.5460  -17.7735 H   0  0  0  0  0  0  0  0  0  0  0  0
  -15.0808   21.2709  -19.2035 H   0  0  0  0  0  0  0  0  0  0  0  0
  -15.8012   19.6151  -19.3244 H   0  0  0  0  0  0  0  0  0  0  0  0
  -18.6194   20.1408  -19.5942 H   0  0  0  0  0  0  0  0  0  0  0  0
  -20.0522   20.8847  -21.4883 H   0  0  0  0  0  0  0  0  0  0  0  0
  -19.0853   22.3081  -23.2594 H   0  0  0  0  0  0  0  0  0  0  0  0
  -16.7196   22.9802  -23.1524 H   0  0  0  0  0  0  0  0  0  0  0  0
  -15.2739   22.2104  -21.2878 H   0  0  0  0  0  0  0  0  0  0  0  0
  -16.8176   16.7132   -8.2316 H   0  0  0  0  0  0  0  0  0  0  0  0
  -19.0477   15.6183   -8.2453 H   0  0  0  0  0  0  0  0  0  0  0  0
  -21.0233   16.6906   -9.3085 H   0  0  0  0  0  0  0  0  0  0  0  0
  -20.7892   18.9447  -10.4002 H   0  0  0  0  0  0  0  0  0  0  0  0
  -17.0357   19.7262   -6.9857 H   0  0  0  0  0  0  0  0  0  0  0  0
  1  2  1  0
  2  3  2  0
  3  4  1  0
  4  5  2  0
  5  6  1  0
  6  7  2  0
  7  8  1  0
  8  9  1  0
  9 10  1  0
 10 11  1  0
 11 12  2  0
 11 13  1  0
 13 14  1  0
 14 15  1  0
 15 16  1  0
 16 17  1  0
 17 18  1  0
 18 19  1  0
 19 20  1  0
 15 20  1  0
 18 21  1  0
 21 22  2  0
 21 23  1  0
 23 24  1  0
 24 25  1  0
 25 26  2  0
 26 27  1  0
 27 28  2  0
 28 29  1  0
 29 30  2  0
 25 30  1  0
 13 31  1  0
 31 32  2  0
 31 33  1  0
 33 34  2  0
 10 34  1  0
 34 35  1  0
 35 36  2  0
 36 37  1  0
 37 38  2  0
 33 38  1  0
  8 39  2  0
 39 40  1  0
 40 41  2  0
 40 42  1  0
  2 42  1  0
  6 42  1  0
  1 43  1  0
  1 44  1  0
  1 45  1  0
  3 46  1  0
  4 47  1  0
  5 48  1  0
  9 49  1  0
  9 50  1  0
 14 51  1  0
 14 52  1  0
 15 53  1  0
 16 54  1  0
 16 55  1  0
 17 56  1  0
 17 57  1  0
 18 58  1  0
 19 59  1  0
 19 60  1  0
 20 61  1  0
 20 62  1  0
 23 63  1  0
 24 64  1  0
 24 65  1  0
 26 66  1  0
 27 67  1  0
 28 68  1  0
 29 69  1  0
 30 70  1  0
 35 71  1  0
 36 72  1  0
 37 73  1  0
 38 74  1  0
 39 75  1  0
A    1
C1
A    2
C2
A    3
C3
A    4
C4
A    5
C5
A    6
C6
A    7
N1
A    8
C7
A    9
C8
A   10
N2
A   11
C9
A   12
O1
A   13
N3
A   14
C10
A   15
C11
A   16
C12
A   17
C13
A   18
C14
A   19
C15
A   20
C16
A   21
C17
A   22
O2
A   23
N4
A   24
C18
A   25
C19
A   26
C20
A   27
C21
A   28
C22
A   29
C23
A   30
C24
A   31
C25
A   32
O3
A   33
C26
A   34
C27
A   35
C28
A   36
C29
A   37
C30
A   38
C31
A   39
C32
A   40
C33
A   41
O4
A   42
N5
M  END
