4TPP_35D_A_1011
     RDKit          3D

 61 66  0  0  0  0  0  0  0  0999 V2000
    7.3240   94.3140   42.6070 C   0  0  0  0  0  0  0  0  0  0  0  0
    7.8570   93.1660   43.3460 C   0  0  0  0  0  0  0  0  0  0  0  0
    7.2400   92.6870   44.2470 O   0  0  0  0  0  0  0  0  0  0  0  0
    9.1350   92.6160   42.9760 N   0  0  0  0  0  0  0  0  0  0  0  0
    9.7210   91.4850   43.6680 C   0  0  0  0  0  0  0  0  0  0  0  0
   10.1600   90.4270   42.7300 C   0  0  0  0  0  0  0  0  0  0  0  0
   11.0080   90.9840   41.6490 C   0  0  0  0  0  0  0  0  0  0  0  0
   10.3420   92.1120   40.9410 C   0  0  0  0  0  0  0  0  0  0  0  0
    9.9170   93.1620   41.8970 C   0  0  0  0  0  0  0  0  0  0  0  0
   11.5140   89.9310   40.6450 C   0  0  0  0  0  0  0  0  0  0  0  0
   10.9380   89.9010   39.3970 N   0  0  0  0  0  0  0  0  0  0  0  0
   11.3760   88.9480   38.4550 C   0  0  0  0  0  0  0  0  0  0  0  0
   10.8010   88.8820   37.1290 C   0  0  0  0  0  0  0  0  0  0  0  0
   11.2540   87.9290   36.2210 C   0  0  0  0  0  0  0  0  0  0  0  0
   12.2770   87.0220   36.5900 C   0  0  0  0  0  0  0  0  0  0  0  0
   12.8470   87.0840   37.9000 C   0  0  0  0  0  0  0  0  0  0  0  0
   12.3930   88.0450   38.8190 C   0  0  0  0  0  0  0  0  0  0  0  0
   12.9830   88.0820   40.1240 N   0  0  0  0  0  0  0  0  0  0  0  0
   12.5760   88.9830   41.0290 C   0  0  0  0  0  0  0  0  0  0  0  0
   13.1740   89.0250   42.3240 O   0  0  0  0  0  0  0  0  0  0  0  0
   13.8040   87.7870   42.7030 C   0  0  0  0  0  0  0  0  0  0  0  0
   15.1560   87.6620   42.1580 C   0  0  0  0  0  0  0  0  0  0  0  0
   15.7130   87.9780   43.4670 N   0  0  0  0  0  0  0  0  0  0  0  0
   14.3750   87.9310   44.0460 C   0  0  0  0  0  0  0  0  0  0  0  0
   16.7150   88.1760   44.4800 C   0  0  0  0  0  0  0  0  0  0  0  0
   16.3890   88.1980   45.8590 C   0  0  0  0  0  0  0  0  0  0  0  0
   17.4080   88.3960   46.7800 C   0  0  0  0  0  0  0  0  0  0  0  0
   18.7350   88.5700   46.3210 C   0  0  0  0  0  0  0  0  0  0  0  0
   19.8210   88.7780   47.2310 C   0  0  0  0  0  0  0  0  0  0  0  0
   21.1310   88.9480   46.7260 C   0  0  0  0  0  0  0  0  0  0  0  0
   21.3770   88.9140   45.3340 C   0  0  0  0  0  0  0  0  0  0  0  0
   20.3210   88.7100   44.4520 C   0  0  0  0  0  0  0  0  0  0  0  0
   18.9850   88.5380   44.9700 C   0  0  0  0  0  0  0  0  0  0  0  0
   17.9540   88.3410   44.0760 N   0  0  0  0  0  0  0  0  0  0  0  0
    6.9705   95.0755   43.3177 H   0  0  0  0  0  0  0  0  0  0  0  0
    8.1154   94.7423   41.9743 H   0  0  0  0  0  0  0  0  0  0  0  0
    6.4861   93.9858   41.9743 H   0  0  0  0  0  0  0  0  0  0  0  0
    8.9728   91.0625   44.3548 H   0  0  0  0  0  0  0  0  0  0  0  0
   10.6060   91.8428   44.2146 H   0  0  0  0  0  0  0  0  0  0  0  0
    9.2733   89.9544   42.2824 H   0  0  0  0  0  0  0  0  0  0  0  0
   10.7525   89.6893   43.2911 H   0  0  0  0  0  0  0  0  0  0  0  0
   11.8994   91.3734   42.1627 H   0  0  0  0  0  0  0  0  0  0  0  0
   11.0460   92.5482   40.2171 H   0  0  0  0  0  0  0  0  0  0  0  0
    9.4503   91.7251   40.4260 H   0  0  0  0  0  0  0  0  0  0  0  0
   10.8117   93.6466   42.3150 H   0  0  0  0  0  0  0  0  0  0  0  0
    9.2927   93.8871   41.3543 H   0  0  0  0  0  0  0  0  0  0  0  0
   10.0061   89.5847   36.8384 H   0  0  0  0  0  0  0  0  0  0  0  0
   10.8157   87.8803   35.2133 H   0  0  0  0  0  0  0  0  0  0  0  0
   12.6328   86.2706   35.8697 H   0  0  0  0  0  0  0  0  0  0  0  0
   13.6409   86.3793   38.1882 H   0  0  0  0  0  0  0  0  0  0  0  0
   13.0440   87.0299   42.4600 H   0  0  0  0  0  0  0  0  0  0  0  0
   15.4030   86.6528   41.7966 H   0  0  0  0  0  0  0  0  0  0  0  0
   15.4546   88.2408   41.2715 H   0  0  0  0  0  0  0  0  0  0  0  0
   14.0768   88.8539   44.5650 H   0  0  0  0  0  0  0  0  0  0  0  0
   14.1337   87.2047   44.8361 H   0  0  0  0  0  0  0  0  0  0  0  0
   15.3497   88.0610   46.1924 H   0  0  0  0  0  0  0  0  0  0  0  0
   17.1860   88.4175   47.8572 H   0  0  0  0  0  0  0  0  0  0  0  0
   19.6375   88.8054   48.3152 H   0  0  0  0  0  0  0  0  0  0  0  0
   21.9668   89.1083   47.4230 H   0  0  0  0  0  0  0  0  0  0  0  0
   22.3991   89.0483   44.9503 H   0  0  0  0  0  0  0  0  0  0  0  0
   20.5028   88.6800   43.3676 H   0  0  0  0  0  0  0  0  0  0  0  0
 14 15  1  0
 14 13  2  0
 15 16  2  0
 13 12  1  0
 16 17  1  0
 12 17  1  0
 12 11  2  0
 17 18  2  0
 11 10  1  0
 18 19  1  0
 10 19  2  0
 10  7  1  0
  8  7  1  0
  8  9  1  0
 19 20  1  0
  7  6  1  0
  9  4  1  0
 22 21  1  0
 22 23  1  0
 20 21  1  0
  1  2  1  0
 21 24  1  0
  6  5  1  0
  4  2  1  0
  4  5  1  0
  2  3  2  0
 23 24  1  0
 23 25  1  0
 34 25  1  0
 34 33  2  0
 32 33  1  0
 32 31  2  0
 25 26  2  0
 33 28  1  0
 31 30  1  0
 26 27  1  0
 28 27  2  0
 28 29  1  0
 30 29  2  0
  1 35  1  0
  1 36  1  0
  1 37  1  0
  5 38  1  0
  5 39  1  0
  6 40  1  0
  6 41  1  0
  7 42  1  0
  8 43  1  0
  8 44  1  0
  9 45  1  0
  9 46  1  0
 13 47  1  0
 14 48  1  0
 15 49  1  0
 16 50  1  0
 21 51  1  0
 22 52  1  0
 22 53  1  0
 24 54  1  0
 24 55  1  0
 26 56  1  0
 27 57  1  0
 29 58  1  0
 30 59  1  0
 31 60  1  0
 32 61  1  0
A    1
C01
A    2
C02
A    3
O03
A    4
N04
A    5
C05
A    6
C06
A    7
C07
A    8
C08
A    9
C09
A   10
C10
A   11
N11
A   12
C12
A   13
C13
A   14
C14
A   15
C15
A   16
C16
A   17
C17
A   18
N18
A   19
C19
A   20
O20
A   21
C21
A   22
C22
A   23
N23
A   24
C24
A   25
C25
A   26
C26
A   27
C27
A   28
C28
A   29
C29
A   30
C30
A   31
C31
A   32
C32
A   33
C33
A   34
N34
M  END
