4TPW_33R_A_302
     RDKit          3D

 41 43  0  0  0  0  0  0  0  0999 V2000
   -1.8850    2.0190    3.8160 C   0  0  0  0  0  0  0  0  0  0  0  0
    0.4630    2.1630    3.3270 C   0  0  0  0  0  0  0  0  0  0  0  0
   -0.3000    2.1490    5.6150 C   0  0  0  0  0  0  0  0  0  0  0  0
   -1.6090    2.0570    5.1830 C   0  0  0  0  0  0  0  0  0  0  0  0
   -5.5180    1.6460   -2.7960 C   0  0  0  0  0  0  0  0  0  0  0  0
    2.4130    2.3060    5.2090 Cl  0  0  0  0  0  0  0  0  0  0  0  0
    0.0160    2.1970    7.2920 Cl  0  0  0  0  0  0  0  0  0  0  0  0
   -6.1210    0.4710   -4.8090 C   0  0  0  0  0  0  0  0  0  0  0  0
   -7.2220    1.2780   -4.9420 C   0  0  0  0  0  0  0  0  0  0  0  0
   -7.4910    2.2880   -3.9950 C   0  0  0  0  0  0  0  0  0  0  0  0
   -8.7020    3.1280   -4.2080 N   0  0  0  0  0  0  0  0  0  0  0  0
   -8.6340    4.3310   -4.1940 O   0  0  0  0  0  0  0  0  0  0  0  0
   -9.7620    2.5950   -4.4180 O   0  0  0  0  0  0  0  0  0  0  0  0
   -6.6310    2.4660   -2.9220 C   0  0  0  0  0  0  0  0  0  0  0  0
   -6.8320    3.4900   -1.8900 C   0  0  0  0  0  0  0  0  0  0  0  0
   -7.5340    3.0750   -0.5930 C   0  0  0  0  0  0  0  0  0  0  0  0
   -6.8160    2.6940    0.4910 N   0  0  0  0  0  0  0  0  0  0  0  0
   -5.4870    2.8490    0.6130 N   0  0  0  0  0  0  0  0  0  0  0  0
   -4.8710    2.3730    1.8180 C   0  0  0  0  0  0  0  0  0  0  0  0
   -3.5790    2.4850    2.1580 N   0  0  0  0  0  0  0  0  0  0  0  0
   -3.2370    1.9420    3.3470 C   0  0  0  0  0  0  0  0  0  0  0  0
   -0.8420    2.0740    2.8960 C   0  0  0  0  0  0  0  0  0  0  0  0
    0.7480    2.1940    4.6850 C   0  0  0  0  0  0  0  0  0  0  0  0
   -4.2630    1.3500    4.0650 C   0  0  0  0  0  0  0  0  0  0  0  0
   -5.6680    1.5470    3.0760 S   0  0  0  0  0  0  0  0  0  0  0  0
   -9.0310    2.7580   -0.5970 C   0  0  0  0  0  0  0  0  0  0  0  0
   -9.7570    3.0910   -1.5770 O   0  0  0  0  0  0  0  0  0  0  0  0
   -9.5450    2.1430    0.4280 O   0  0  0  0  0  0  0  0  0  0  0  0
   -5.2640    0.6450   -3.7330 C   0  0  0  0  0  0  0  0  0  0  0  0
    1.2813    2.2096    2.5933 H   0  0  0  0  0  0  0  0  0  0  0  0
   -2.4301    2.0139    5.9137 H   0  0  0  0  0  0  0  0  0  0  0  0
   -4.8301    1.7871   -1.9493 H   0  0  0  0  0  0  0  0  0  0  0  0
   -5.9184   -0.3124   -5.5542 H   0  0  0  0  0  0  0  0  0  0  0  0
   -7.9016    1.1362   -5.7952 H   0  0  0  0  0  0  0  0  0  0  0  0
   -5.8396    3.8772   -1.6155 H   0  0  0  0  0  0  0  0  0  0  0  0
   -7.5163    4.2163   -2.3528 H   0  0  0  0  0  0  0  0  0  0  0  0
   -4.9308    3.2933   -0.1314 H   0  0  0  0  0  0  0  0  0  0  0  0
   -1.0613    2.0462    1.8184 H   0  0  0  0  0  0  0  0  0  0  0  0
   -4.1983    0.8617    5.0485 H   0  0  0  0  0  0  0  0  0  0  0  0
   -9.3074    2.4273    1.3461 H   0  0  0  0  0  0  0  0  0  0  0  0
   -4.3847   -0.0059   -3.6186 H   0  0  0  0  0  0  0  0  0  0  0  0
  9  8  2  0
  9 10  1  0
  8 29  1  0
 13 11  1  0
 11 12  2  0
 11 10  1  0
 10 14  2  0
 29  5  2  0
 14  5  1  0
 14 15  1  0
 15 16  1  0
 27 26  2  0
 26 16  1  0
 26 28  1  0
 16 17  2  0
 17 18  1  0
 18 19  1  0
 19 20  2  0
 19 25  1  0
 20 21  1  0
 22  2  2  0
 22  1  1  0
 25 24  1  0
  2 23  1  0
 21  1  1  0
 21 24  2  0
  1  4  2  0
 23  6  1  0
 23  3  2  0
  4  3  1  0
  3  7  1  0
  2 30  1  0
  4 31  1  0
  5 32  1  0
  8 33  1  0
  9 34  1  0
 15 35  1  0
 15 36  1  0
 18 37  1  0
 22 38  1  0
 24 39  1  0
 28 40  1  0
 29 41  1  0
M  CHG  2  11   1  13  -1
A    1
C15
A    2
C17
A    3
C20
A    4
C22
A    5
C28
A    6
CL19
A    7
CL21
A    8
C01
A    9
C02
A   10
C03
A   11
N04
A   12
O05
A   13
O06
A   14
C07
A   15
C08
A   16
C09
A   17
N10
A   18
N11
A   19
C12
A   20
N13
A   21
C14
A   22
C16
A   23
C18
A   24
C23
A   25
S24
A   26
C25
A   27
O26
A   28
O27
A   29
C29
M  END
