4TQP_48R_A_201
     RDKit          3D

 43 45  0  0  0  0  0  0  0  0999 V2000
   26.0430   43.7790   29.9870 O   0  0  0  0  0  0  0  0  0  0  0  0
   26.3670   43.9920   31.1270 C   0  0  0  0  0  0  0  0  0  0  0  0
   27.2450   43.2320   31.7690 N   0  0  0  0  0  0  0  0  0  0  0  0
   28.3720   42.5310   30.8770 S   0  0  0  0  0  0  0  0  0  0  0  0
   27.7770   41.9280   29.7270 O   0  0  0  0  0  0  0  0  0  0  0  0
   29.4820   43.6690   30.3970 C   0  0  0  0  0  0  0  0  0  0  0  0
   29.0400   41.5120   31.6280 O   0  0  0  0  0  0  0  0  0  0  0  0
   25.7850   45.1750   31.8240 C   0  0  0  0  0  0  0  0  0  0  0  0
   26.8160   46.2880   31.7210 C   0  0  0  0  0  0  0  0  0  0  0  0
   25.4870   44.7930   33.2610 C   0  0  0  0  0  0  0  0  0  0  0  0
   24.0860   44.6560   33.4980 O   0  0  0  0  0  0  0  0  0  0  0  0
   23.7810   44.5130   34.7010 N   0  0  0  0  0  0  0  0  0  0  0  0
   22.7170   43.8020   35.1690 C   0  0  0  0  0  0  0  0  0  0  0  0
   22.4860   43.6890   36.6320 C   0  0  0  0  0  0  0  0  0  0  0  0
   21.3460   42.9300   36.7120 C   0  0  0  0  0  0  0  0  0  0  0  0
   20.8080   42.6040   37.9420 C   0  0  0  0  0  0  0  0  0  0  0  0
   21.4600   43.0700   39.0760 C   0  0  0  0  0  0  0  0  0  0  0  0
   22.6170   43.8420   38.9880 C   0  0  0  0  0  0  0  0  0  0  0  0
   23.1550   44.1650   37.7460 C   0  0  0  0  0  0  0  0  0  0  0  0
   20.8520   42.5630   35.3620 C   0  0  0  0  0  0  0  0  0  0  0  0
   21.6690   43.0830   34.3790 C   0  0  0  0  0  0  0  0  0  0  0  0
   19.7360   41.8050   35.0510 C   0  0  0  0  0  0  0  0  0  0  0  0
   19.4590   41.5880   33.7030 C   0  0  0  0  0  0  0  0  0  0  0  0
   20.2880   42.1170   32.7110 C   0  0  0  0  0  0  0  0  0  0  0  0
   21.4150   42.8730   33.0330 C   0  0  0  0  0  0  0  0  0  0  0  0
   27.2028   43.1003   32.7897 H   0  0  0  0  0  0  0  0  0  0  0  0
   29.9364   44.1349   31.2838 H   0  0  0  0  0  0  0  0  0  0  0  0
   30.2654   43.1859   29.7946 H   0  0  0  0  0  0  0  0  0  0  0  0
   28.9795   44.4401   29.7946 H   0  0  0  0  0  0  0  0  0  0  0  0
   24.8393   45.5148   31.3765 H   0  0  0  0  0  0  0  0  0  0  0  0
   27.1123   46.6079   32.7309 H   0  0  0  0  0  0  0  0  0  0  0  0
   27.6996   45.9203   31.1788 H   0  0  0  0  0  0  0  0  0  0  0  0
   26.3818   47.1410   31.1788 H   0  0  0  0  0  0  0  0  0  0  0  0
   25.9802   43.8353   33.4835 H   0  0  0  0  0  0  0  0  0  0  0  0
   25.8649   45.5956   33.9114 H   0  0  0  0  0  0  0  0  0  0  0  0
   19.8945   41.9962   38.0203 H   0  0  0  0  0  0  0  0  0  0  0  0
   21.0534   42.8238   40.0680 H   0  0  0  0  0  0  0  0  0  0  0  0
   23.1078   44.1981   39.9058 H   0  0  0  0  0  0  0  0  0  0  0  0
   24.0690   44.7702   37.6540 H   0  0  0  0  0  0  0  0  0  0  0  0
   19.0915   41.3892   35.8395 H   0  0  0  0  0  0  0  0  0  0  0  0
   18.5785   40.9940   33.4169 H   0  0  0  0  0  0  0  0  0  0  0  0
   20.0469   41.9335   31.6535 H   0  0  0  0  0  0  0  0  0  0  0  0
   22.0729   43.2842   32.2532 H   0  0  0  0  0  0  0  0  0  0  0  0
  5  4  2  0
  1  2  2  0
  6  4  1  0
  4  7  2  0
  4  3  1  0
  2  3  1  0
  2  8  1  0
  9  8  1  0
  8 10  1  0
 24 25  1  0
 24 23  2  0
 25 21  2  0
 10 11  1  0
 11 12  1  0
 23 22  1  0
 21 13  1  0
 21 20  1  0
 12 13  2  0
 22 20  2  0
 13 14  1  0
 20 15  1  0
 14 15  2  0
 14 19  1  0
 15 16  1  0
 19 18  2  0
 16 17  2  0
 18 17  1  0
  3 26  1  0
  6 27  1  0
  6 28  1  0
  6 29  1  0
  8 30  1  0
  9 31  1  0
  9 32  1  0
  9 33  1  0
 10 34  1  0
 10 35  1  0
 16 36  1  0
 17 37  1  0
 18 38  1  0
 19 39  1  0
 22 40  1  0
 23 41  1  0
 24 42  1  0
 25 43  1  0
A    1
O21
A    2
C19
A    3
N20
A    4
S22
A    5
O23
A    6
C24
A    7
O25
A    8
C17
A    9
C18
A   10
C16
A   11
O15
A   12
N14
A   13
C07
A   14
C08
A   15
C09
A   16
C10
A   17
C11
A   18
C12
A   19
C13
A   20
C02
A   21
C03
A   22
C01
A   23
C06
A   24
C05
A   25
C04
M  END
