2H7L_665_A_401
     RDKit          3D

 43 45  0  0  0  0  0  0  0  0999 V2000
    4.5050   30.9890   58.3890 C   0  0  0  0  0  0  0  0  0  0  0  0
    5.3290   32.2090   58.7070 C   0  0  0  0  0  0  0  0  0  0  0  0
    6.9000   32.1060   58.5910 C   0  0  0  0  0  0  0  0  0  0  0  0
    7.4920   30.8950   59.2870 C   0  0  0  0  0  0  0  0  0  0  0  0
    6.8090   29.6420   58.6100 C   0  0  0  0  0  0  0  0  0  0  0  0
    5.2130   29.6220   58.6460 C   0  0  0  0  0  0  0  0  0  0  0  0
    8.5640   33.6690   58.3550 C   0  0  0  0  0  0  0  0  0  0  0  0
    9.5830   34.1380   59.2030 C   0  0  0  0  0  0  0  0  0  0  0  0
    9.1150   34.3540   60.5390 C   0  0  0  0  0  0  0  0  0  0  0  0
    7.5810   33.9810   60.5610 C   0  0  0  0  0  0  0  0  0  0  0  0
    7.3350   33.5400   58.9960 N   0  0  0  0  0  0  0  0  0  0  0  0
    9.7270   33.4530   61.5390 C   0  0  0  0  0  0  0  0  0  0  0  0
   10.9850   34.0740   62.0520 N   0  0  0  0  0  0  0  0  0  0  0  0
    9.2590   32.3990   61.8130 O   0  0  0  0  0  0  0  0  0  0  0  0
    8.8200   33.4300   57.1690 O   0  0  0  0  0  0  0  0  0  0  0  0
   12.7930   29.6530   64.1410 Br  0  0  0  0  0  0  0  0  0  0  0  0
   11.9490   31.8060   62.7390 C   0  0  0  0  0  0  0  0  0  0  0  0
   13.0250   31.3890   63.5000 C   0  0  0  0  0  0  0  0  0  0  0  0
   14.1640   32.2170   63.7490 C   0  0  0  0  0  0  0  0  0  0  0  0
   14.1870   33.5570   63.1830 C   0  0  0  0  0  0  0  0  0  0  0  0
   13.0550   33.9950   62.3870 C   0  0  0  0  0  0  0  0  0  0  0  0
   11.9060   33.0810   62.1550 C   0  0  0  0  0  0  0  0  0  0  0  0
    3.5955   31.0224   59.0068 H   0  0  0  0  0  0  0  0  0  0  0  0
    4.3045   31.0299   57.3082 H   0  0  0  0  0  0  0  0  0  0  0  0
    5.0043   33.0077   58.0239 H   0  0  0  0  0  0  0  0  0  0  0  0
    5.1483   32.3854   59.7776 H   0  0  0  0  0  0  0  0  0  0  0  0
    7.3068   31.8670   57.5973 H   0  0  0  0  0  0  0  0  0  0  0  0
    8.5820   30.8634   59.1424 H   0  0  0  0  0  0  0  0  0  0  0  0
    7.3128   30.9203   60.3720 H   0  0  0  0  0  0  0  0  0  0  0  0
    7.1240   29.6131   57.5565 H   0  0  0  0  0  0  0  0  0  0  0  0
    7.1338   28.7695   59.1958 H   0  0  0  0  0  0  0  0  0  0  0  0
    4.9034   29.2642   59.6390 H   0  0  0  0  0  0  0  0  0  0  0  0
    4.9061   28.9687   57.8159 H   0  0  0  0  0  0  0  0  0  0  0  0
   10.3942   33.3955   59.2270 H   0  0  0  0  0  0  0  0  0  0  0  0
    9.9359   35.1019   58.8076 H   0  0  0  0  0  0  0  0  0  0  0  0
    9.3566   35.3967   60.7930 H   0  0  0  0  0  0  0  0  0  0  0  0
    7.3788   33.1483   61.2507 H   0  0  0  0  0  0  0  0  0  0  0  0
    6.9248   34.7923   60.9092 H   0  0  0  0  0  0  0  0  0  0  0  0
   11.1272   35.0675   62.2838 H   0  0  0  0  0  0  0  0  0  0  0  0
   11.1032   31.1193   62.5871 H   0  0  0  0  0  0  0  0  0  0  0  0
   15.0046   31.8487   64.3554 H   0  0  0  0  0  0  0  0  0  0  0  0
   15.0444   34.2244   63.3547 H   0  0  0  0  0  0  0  0  0  0  0  0
   13.0474   35.0063   61.9542 H   0  0  0  0  0  0  0  0  0  0  0  0
  1  2  1  0
  1  6  1  0
  2  3  1  0
  3  4  1  0
  3 11  1  0
  4  5  1  0
  5  6  1  0
  7  8  1  0
  7 11  1  0
  7 15  2  0
  8  9  1  0
  9 10  1  0
  9 12  1  0
 10 11  1  0
 12 13  1  0
 12 14  2  0
 13 22  1  0
 16 18  1  0
 17 18  2  0
 17 22  1  0
 18 19  1  0
 19 20  2  0
 20 21  1  0
 21 22  2  0
  1 23  1  0
  1 24  1  0
  2 25  1  0
  2 26  1  0
  3 27  1  0
  4 28  1  0
  4 29  1  0
  5 30  1  0
  5 31  1  0
  6 32  1  0
  6 33  1  0
  8 34  1  0
  8 35  1  0
  9 36  1  0
 10 37  1  0
 10 38  1  0
 13 39  1  0
 17 40  1  0
 19 41  1  0
 20 42  1  0
 21 43  1  0
A    1
C1
A    2
C2
A    3
C3
A    4
C4
A    5
C5
A    6
C6
A    7
C7
A    8
C8
A    9
C9
A   10
C10
A   11
N11
A   12
C12
A   13
N13
A   14
O14
A   15
O15
A   16
BR1
A   17
C17
A   18
C18
A   19
C19
A   20
C20
A   21
C21
A   22
C22
M  END
