4TSO_HXG_A_201
     RDKit          3D

 71 70  0  0  0  0  0  0  0  0999 V2000
  -88.0180   78.5530   51.9420 C   0  0  0  0  0  0  0  0  0  0  0  0
  -86.5750   78.0970   51.9470 C   0  0  0  0  0  0  0  0  0  0  0  0
  -85.6860   79.3180   51.7450 C   0  0  0  0  0  0  0  0  0  0  0  0
  -84.2590   78.8950   51.3370 C   0  0  0  0  0  0  0  0  0  0  0  0
  -83.1980   79.5200   52.2740 C   0  0  0  0  0  0  0  0  0  0  0  0
  -81.9860   80.1100   51.5200 C   0  0  0  0  0  0  0  0  0  0  0  0
  -82.1260   80.5510   50.3810 O   0  0  0  0  0  0  0  0  0  0  0  0
  -80.7820   80.1500   52.2060 O   0  0  0  0  0  0  0  0  0  0  0  0
  -80.9040   80.5790   53.5910 C   0  0  0  0  0  0  0  0  0  0  0  0
  -79.6290   81.2370   54.1700 C   0  0  0  0  0  0  0  0  0  0  0  0
  -80.0600   82.1490   55.1920 O   0  0  0  0  0  0  0  0  0  0  0  0
  -80.4010   81.5980   56.4080 C   0  0  0  0  0  0  0  0  0  0  0  0
  -80.8930   80.4820   56.5550 O   0  0  0  0  0  0  0  0  0  0  0  0
  -80.0200   82.4400   57.6060 C   0  0  0  0  0  0  0  0  0  0  0  0
  -81.0090   82.2290   58.7500 C   0  0  0  0  0  0  0  0  0  0  0  0
  -82.4230   82.0340   58.2050 C   0  0  0  0  0  0  0  0  0  0  0  0
  -83.3010   82.3370   59.4060 C   0  0  0  0  0  0  0  0  0  0  0  0
  -84.6930   81.7980   59.0480 C   0  0  0  0  0  0  0  0  0  0  0  0
  -78.6660   80.2220   54.7780 C   0  0  0  0  0  0  0  0  0  0  0  0
  -77.4810   80.2870   53.9790 O   0  0  0  0  0  0  0  0  0  0  0  0
  -75.9350   80.4020   54.5900 P   0  0  0  0  0  0  0  0  0  0  0  0
  -75.4460   78.9210   54.9300 O   0  0  0  0  0  0  0  0  0  0  0  0
  -75.8350   81.3120   55.7730 O   0  0  0  0  0  0  0  0  0  0  0  0
  -75.0820   80.8790   53.2700 O   0  0  0  0  0  0  0  0  0  0  0  0
  -74.4120   79.8800   52.5610 C   0  0  0  0  0  0  0  0  0  0  0  0
  -73.3370   80.5710   51.7470 C   0  0  0  0  0  0  0  0  0  0  0  0
  -72.1190   80.7450   52.6010 N   0  0  0  0  0  0  0  0  0  0  0  0
  -71.6420   79.4500   53.1510 C   0  0  0  0  0  0  0  0  0  0  0  0
  -72.3730   81.6920   53.7160 C   0  0  0  0  0  0  0  0  0  0  0  0
  -71.0340   81.2830   51.7540 C   0  0  0  0  0  0  0  0  0  0  0  0
  -88.3709   78.6645   52.9779 H   0  0  0  0  0  0  0  0  0  0  0  0
  -88.0954   79.5194   51.4222 H   0  0  0  0  0  0  0  0  0  0  0  0
  -88.6366   77.8066   51.4222 H   0  0  0  0  0  0  0  0  0  0  0  0
  -86.4096   77.3776   51.1315 H   0  0  0  0  0  0  0  0  0  0  0  0
  -86.3356   77.6082   52.9029 H   0  0  0  0  0  0  0  0  0  0  0  0
  -85.6384   79.8888   52.6841 H   0  0  0  0  0  0  0  0  0  0  0  0
  -86.1136   79.9367   50.9423 H   0  0  0  0  0  0  0  0  0  0  0  0
  -84.1816   77.7989   51.3886 H   0  0  0  0  0  0  0  0  0  0  0  0
  -84.0708   79.2505   50.3132 H   0  0  0  0  0  0  0  0  0  0  0  0
  -83.6745   80.3251   52.8525 H   0  0  0  0  0  0  0  0  0  0  0  0
  -82.8185   78.7137   52.9188 H   0  0  0  0  0  0  0  0  0  0  0  0
  -81.7263   81.3069   53.6547 H   0  0  0  0  0  0  0  0  0  0  0  0
  -81.0876   79.6722   54.1859 H   0  0  0  0  0  0  0  0  0  0  0  0
  -79.0846   81.7400   53.3572 H   0  0  0  0  0  0  0  0  0  0  0  0
  -79.0124   82.1544   57.9424 H   0  0  0  0  0  0  0  0  0  0  0  0
  -80.0383   83.5002   57.3135 H   0  0  0  0  0  0  0  0  0  0  0  0
  -80.7154   81.3368   59.3226 H   0  0  0  0  0  0  0  0  0  0  0  0
  -80.9970   83.1168   59.3993 H   0  0  0  0  0  0  0  0  0  0  0  0
  -82.6278   82.7323   57.3801 H   0  0  0  0  0  0  0  0  0  0  0  0
  -82.5911   81.0294   57.7895 H   0  0  0  0  0  0  0  0  0  0  0  0
  -82.9127   81.8315   60.3025 H   0  0  0  0  0  0  0  0  0  0  0  0
  -83.3271   83.4138   59.6291 H   0  0  0  0  0  0  0  0  0  0  0  0
  -85.2510   81.5819   59.9710 H   0  0  0  0  0  0  0  0  0  0  0  0
  -85.2370   82.5505   58.4582 H   0  0  0  0  0  0  0  0  0  0  0  0
  -84.5884   80.8754   58.4582 H   0  0  0  0  0  0  0  0  0  0  0  0
  -79.0993   79.2116   54.7402 H   0  0  0  0  0  0  0  0  0  0  0  0
  -78.4561   80.4435   55.8348 H   0  0  0  0  0  0  0  0  0  0  0  0
  -75.8936   80.7790   56.6052 H   0  0  0  0  0  0  0  0  0  0  0  0
  -75.1116   79.3530   51.8955 H   0  0  0  0  0  0  0  0  0  0  0  0
  -73.9752   79.1356   53.2430 H   0  0  0  0  0  0  0  0  0  0  0  0
  -73.0876   79.9578   50.8685 H   0  0  0  0  0  0  0  0  0  0  0  0
  -73.6988   81.5533   51.4090 H   0  0  0  0  0  0  0  0  0  0  0  0
  -71.6570   79.4907   54.2501 H   0  0  0  0  0  0  0  0  0  0  0  0
  -72.3007   78.6398   52.8050 H   0  0  0  0  0  0  0  0  0  0  0  0
  -70.6151   79.2607   52.8050 H   0  0  0  0  0  0  0  0  0  0  0  0
  -72.2340   81.1736   54.6762 H   0  0  0  0  0  0  0  0  0  0  0  0
  -71.6691   82.5346   53.6489 H   0  0  0  0  0  0  0  0  0  0  0  0
  -73.4041   82.0693   53.6489 H   0  0  0  0  0  0  0  0  0  0  0  0
  -70.2323   81.6805   52.3937 H   0  0  0  0  0  0  0  0  0  0  0  0
  -70.6321   80.4798   51.1189 H   0  0  0  0  0  0  0  0  0  0  0  0
  -71.4301   82.0891   51.1189 H   0  0  0  0  0  0  0  0  0  0  0  0
  7  6  2  0
  4  3  1  0
  4  5  1  0
  6  8  1  0
  6  5  1  0
  3  2  1  0
 26 25  1  0
 26 27  1  0
 30 27  1  0
  1  2  1  0
  8  9  1  0
 25 24  1  0
 27 28  1  0
 27 29  1  0
 24 21  1  0
  9 10  1  0
 20 21  1  0
 20 19  1  0
 10 19  1  0
 10 11  1  0
 21 22  2  0
 21 23  1  0
 11 12  1  0
 12 13  2  0
 12 14  1  0
 14 15  1  0
 16 15  1  0
 16 17  1  0
 18 17  1  0
  1 31  1  0
  1 32  1  0
  1 33  1  0
  2 34  1  0
  2 35  1  0
  3 36  1  0
  3 37  1  0
  4 38  1  0
  4 39  1  0
  5 40  1  0
  5 41  1  0
  9 42  1  0
  9 43  1  0
 10 44  1  0
 14 45  1  0
 14 46  1  0
 15 47  1  0
 15 48  1  0
 16 49  1  0
 16 50  1  0
 17 51  1  0
 17 52  1  0
 18 53  1  0
 18 54  1  0
 18 55  1  0
 19 56  1  0
 19 57  1  0
 23 58  1  0
 25 59  1  0
 25 60  1  0
 26 61  1  0
 26 62  1  0
 28 63  1  0
 28 64  1  0
 28 65  1  0
 29 66  1  0
 29 67  1  0
 29 68  1  0
 30 69  1  0
 30 70  1  0
 30 71  1  0
M  CHG  1  27   1
A    1
CAA
A    2
CAJ
A    3
CAL
A    4
CAN
A    5
CAQ
A    6
CAZ
A    7
OAF
A    8
OAV
A    9
CAT
A   10
CBB
A   11
OAY
A   12
CBA
A   13
OAG
A   14
CAR
A   15
CAO
A   16
CAM
A   17
CAK
A   18
CAB
A   19
CAU
A   20
OAX
A   21
PBD
A   22
OAI
A   23
OAH
A   24
OAW
A   25
CAP
A   26
CAS
A   27
NBC
A   28
CAD
A   29
CAE
A   30
CAC
M  END
