4TVK_TJH_A_605
     RDKit          3D

 54 58  0  0  0  0  0  0  0  0999 V2000
  -53.4660   33.0230  -42.2130 O   0  0  0  0  0  0  0  0  0  0  0  0
  -53.6140   33.0990  -43.4560 C   0  0  0  0  0  0  0  0  0  0  0  0
  -52.9820   34.0950  -44.2310 C   0  0  0  0  0  0  0  0  0  0  0  0
  -52.1850   35.0210  -43.6230 C   0  0  0  0  0  0  0  0  0  0  0  0
  -51.5580   36.0270  -44.3910 C   0  0  0  0  0  0  0  0  0  0  0  0
  -51.6970   36.1370  -45.7670 C   0  0  0  0  0  0  0  0  0  0  0  0
  -52.4820   35.2000  -46.3840 C   0  0  0  0  0  0  0  0  0  0  0  0
  -52.6790   35.2000  -47.7320 O   0  0  0  0  0  0  0  0  0  0  0  0
  -53.1100   34.2050  -45.6400 C   0  0  0  0  0  0  0  0  0  0  0  0
  -53.8790   33.3180  -46.3530 C   0  0  0  0  0  0  0  0  0  0  0  0
  -53.9830   33.4340  -47.5790 O   0  0  0  0  0  0  0  0  0  0  0  0
  -54.5280   32.3110  -45.6360 C   0  0  0  0  0  0  0  0  0  0  0  0
  -54.4090   32.1960  -44.2200 C   0  0  0  0  0  0  0  0  0  0  0  0
  -55.0590   31.2140  -43.5860 N   0  0  0  0  0  0  0  0  0  0  0  0
  -55.5630   30.0390  -44.2960 C   0  0  0  0  0  0  0  0  0  0  0  0
  -54.3370   29.1350  -44.4780 C   0  0  0  0  0  0  0  0  0  0  0  0
  -53.8870   28.4400  -43.2350 N   0  0  0  0  0  0  0  0  0  0  0  0
  -52.5980   28.2330  -42.8440 C   0  0  0  0  0  0  0  0  0  0  0  0
  -52.2580   28.4690  -41.4930 C   0  0  0  0  0  0  0  0  0  0  0  0
  -53.2290   28.9300  -40.5340 C   0  0  0  0  0  0  0  0  0  0  0  0
  -52.8470   28.7300  -39.0800 C   0  0  0  0  0  0  0  0  0  0  0  0
  -51.4900   29.3010  -38.9810 C   0  0  0  0  0  0  0  0  0  0  0  0
  -50.4830   28.4580  -39.7230 C   0  0  0  0  0  0  0  0  0  0  0  0
  -50.9370   28.2580  -41.0960 C   0  0  0  0  0  0  0  0  0  0  0  0
  -50.0560   27.8170  -41.9810 N   0  0  0  0  0  0  0  0  0  0  0  0
  -50.3670   27.5620  -43.2830 C   0  0  0  0  0  0  0  0  0  0  0  0
  -51.6500   27.7440  -43.7490 C   0  0  0  0  0  0  0  0  0  0  0  0
  -51.9030   27.4320  -45.1060 C   0  0  0  0  0  0  0  0  0  0  0  0
  -50.9310   26.9680  -45.9950 C   0  0  0  0  0  0  0  0  0  0  0  0
  -49.6550   26.8040  -45.5230 C   0  0  0  0  0  0  0  0  0  0  0  0
  -48.4670   26.3330  -46.5610 Cl  0  0  0  0  0  0  0  0  0  0  0  0
  -49.3630   27.0880  -44.1640 C   0  0  0  0  0  0  0  0  0  0  0  0
  -52.0308   34.9839  -42.5345 H   0  0  0  0  0  0  0  0  0  0  0  0
  -50.9262   36.7620  -43.8707 H   0  0  0  0  0  0  0  0  0  0  0  0
  -51.2008   36.9379  -46.3347 H   0  0  0  0  0  0  0  0  0  0  0  0
  -52.7506   34.3426  -48.2218 H   0  0  0  0  0  0  0  0  0  0  0  0
  -55.1497   31.5846  -46.1799 H   0  0  0  0  0  0  0  0  0  0  0  0
  -55.2088   31.2873  -42.5696 H   0  0  0  0  0  0  0  0  0  0  0  0
  -55.9811   30.3260  -45.2721 H   0  0  0  0  0  0  0  0  0  0  0  0
  -56.3714   29.5361  -43.7450 H   0  0  0  0  0  0  0  0  0  0  0  0
  -54.5833   28.3698  -45.2289 H   0  0  0  0  0  0  0  0  0  0  0  0
  -53.5091   29.7907  -44.7857 H   0  0  0  0  0  0  0  0  0  0  0  0
  -54.6241   28.0815  -42.6113 H   0  0  0  0  0  0  0  0  0  0  0  0
  -53.3862   30.0061  -40.6995 H   0  0  0  0  0  0  0  0  0  0  0  0
  -54.1317   28.3233  -40.6983 H   0  0  0  0  0  0  0  0  0  0  0  0
  -53.5440   29.2630  -38.4166 H   0  0  0  0  0  0  0  0  0  0  0  0
  -52.8830   27.6734  -38.7762 H   0  0  0  0  0  0  0  0  0  0  0  0
  -51.2005   29.3543  -37.9211 H   0  0  0  0  0  0  0  0  0  0  0  0
  -51.5024   30.3037  -39.4330 H   0  0  0  0  0  0  0  0  0  0  0  0
  -50.3817   27.4829  -39.2241 H   0  0  0  0  0  0  0  0  0  0  0  0
  -49.5087   28.9686  -39.7285 H   0  0  0  0  0  0  0  0  0  0  0  0
  -52.9278   27.5630  -45.4836 H   0  0  0  0  0  0  0  0  0  0  0  0
  -51.1819   26.7412  -47.0417 H   0  0  0  0  0  0  0  0  0  0  0  0
  -48.3403   26.9378  -43.7878 H   0  0  0  0  0  0  0  0  0  0  0  0
  8  7  1  0
 11 10  2  0
 31 30  1  0
  7  6  1  0
  7  9  2  0
 10  9  1  0
 10 12  1  0
 29 30  2  0
 29 28  1  0
  6  5  2  0
  9  3  1  0
 12 13  2  0
 30 32  1  0
 28 27  2  0
 16 15  1  0
 16 17  1  0
  5  4  1  0
 15 14  1  0
  3  4  2  0
  3  2  1  0
 13 14  1  0
 13  2  1  0
 32 26  2  0
 27 26  1  0
 27 18  1  0
  2  1  2  0
 26 25  1  0
 17 18  1  0
 18 19  2  0
 25 24  2  0
 19 24  1  0
 19 20  1  0
 24 23  1  0
 20 21  1  0
 23 22  1  0
 21 22  1  0
  4 33  1  0
  5 34  1  0
  6 35  1  0
  8 36  1  0
 12 37  1  0
 14 38  1  0
 15 39  1  0
 15 40  1  0
 16 41  1  0
 16 42  1  0
 17 43  1  0
 20 44  1  0
 20 45  1  0
 21 46  1  0
 21 47  1  0
 22 48  1  0
 22 49  1  0
 23 50  1  0
 23 51  1  0
 28 52  1  0
 29 53  1  0
 32 54  1  0
A    1
OAB
A    2
CBB
A    3
CBE
A    4
CAH
A    5
CAE
A    6
CAF
A    7
CAV
A    8
OAC
A    9
CBF
A   10
CBA
A   11
OAA
A   12
CAJ
A   13
CAX
A   14
NAS
A   15
CAN
A   16
CAO
A   17
NAT
A   18
CAZ
A   19
CAY
A   20
CAQ
A   21
CAM
A   22
CAL
A   23
CAP
A   24
CAW
A   25
NAR
A   26
CBC
A   27
CBD
A   28
CAI
A   29
CAG
A   30
CAU
A   31
CL
A   32
CAK
M  END
