4TWD_377_A_401
     RDKit          3D

 34 36  0  0  0  0  0  0  0  0999 V2000
 -125.2200  -42.2530  -68.8140 C   0  0  0  0  0  0  0  0  0  0  0  0
 -124.4700  -44.5040  -69.4830 C   0  0  0  0  0  0  0  0  0  0  0  0
 -125.2570  -46.4300  -68.2960 N   0  0  0  0  0  0  0  0  0  0  0  0
 -127.1790  -43.8700  -70.1100 C   0  0  0  0  0  0  0  0  0  0  0  0
 -126.3400  -42.8870  -68.0430 C   0  0  0  0  0  0  0  0  0  0  0  0
 -125.6360  -45.1140  -68.7490 C   0  0  0  0  0  0  0  0  0  0  0  0
 -124.8590  -43.1450  -69.9700 C   0  0  0  0  0  0  0  0  0  0  0  0
 -127.5300  -43.0300  -68.9270 C   0  0  0  0  0  0  0  0  0  0  0  0
 -126.8240  -45.2480  -69.6680 C   0  0  0  0  0  0  0  0  0  0  0  0
 -125.9690  -44.2540  -67.5540 C   0  0  0  0  0  0  0  0  0  0  0  0
 -126.0340  -43.2910  -70.8780 C   0  0  0  0  0  0  0  0  0  0  0  0
 -128.3720  -43.8640  -70.9750 C   0  0  0  0  0  0  0  0  0  0  0  0
 -126.6990  -41.9880  -66.9140 C   0  0  0  0  0  0  0  0  0  0  0  0
 -124.3459  -42.1260  -68.1584 H   0  0  0  0  0  0  0  0  0  0  0  0
 -125.5354  -41.2676  -69.1876 H   0  0  0  0  0  0  0  0  0  0  0  0
 -124.2000  -45.1394  -70.3394 H   0  0  0  0  0  0  0  0  0  0  0  0
 -123.6061  -44.4235  -68.8069 H   0  0  0  0  0  0  0  0  0  0  0  0
 -125.2512  -46.4502  -67.2662 H   0  0  0  0  0  0  0  0  0  0  0  0
 -125.9327  -47.1225  -68.6492 H   0  0  0  0  0  0  0  0  0  0  0  0
 -124.0132  -42.6889  -70.5054 H   0  0  0  0  0  0  0  0  0  0  0  0
 -127.8542  -42.0356  -69.2677 H   0  0  0  0  0  0  0  0  0  0  0  0
 -128.3447  -43.5118  -68.3666 H   0  0  0  0  0  0  0  0  0  0  0  0
 -127.6692  -45.7039  -69.1315 H   0  0  0  0  0  0  0  0  0  0  0  0
 -126.5889  -45.8919  -70.5283 H   0  0  0  0  0  0  0  0  0  0  0  0
 -126.8140  -44.6937  -67.0039 H   0  0  0  0  0  0  0  0  0  0  0  0
 -125.1018  -44.1916  -66.8801 H   0  0  0  0  0  0  0  0  0  0  0  0
 -125.7741  -43.9601  -71.7115 H   0  0  0  0  0  0  0  0  0  0  0  0
 -126.3171  -42.3061  -71.2778 H   0  0  0  0  0  0  0  0  0  0  0  0
 -129.2776  -43.8594  -70.3506 H   0  0  0  0  0  0  0  0  0  0  0  0
 -128.3600  -42.9659  -71.6100 H   0  0  0  0  0  0  0  0  0  0  0  0
 -128.3690  -44.7622  -71.6100 H   0  0  0  0  0  0  0  0  0  0  0  0
 -126.4955  -42.4975  -65.9606 H   0  0  0  0  0  0  0  0  0  0  0  0
 -126.0994  -41.0677  -66.9732 H   0  0  0  0  0  0  0  0  0  0  0  0
 -127.7676  -41.7338  -66.9732 H   0  0  0  0  0  0  0  0  0  0  0  0
 12  4  1  0
 11  4  1  0
 11  7  1  0
  4  9  1  0
  4  8  1  0
  7  2  1  0
  7  1  1  0
  9  6  1  0
  2  6  1  0
  8  5  1  0
  1  5  1  0
  6  3  1  0
  6 10  1  0
  5 10  1  0
  5 13  1  0
  1 14  1  0
  1 15  1  0
  2 16  1  0
  2 17  1  0
  3 18  1  0
  3 19  1  0
  7 20  1  0
  8 21  1  0
  8 22  1  0
  9 23  1  0
  9 24  1  0
 10 25  1  0
 10 26  1  0
 11 27  1  0
 11 28  1  0
 12 29  1  0
 12 30  1  0
 12 31  1  0
 13 32  1  0
 13 33  1  0
 13 34  1  0
A    1
C10
A    2
C11
A    3
N01
A    4
C02
A    5
C03
A    6
C04
A    7
C05
A    8
C06
A    9
C07
A   10
C08
A   11
C09
A   12
C12
A   13
C13
M  END
