4AG8_AXI_A_2000
     RDKit          3D

 46 49  0  0  0  0  0  0  0  0999 V2000
   24.8310   23.4700   35.7940 O   0  0  0  0  0  0  0  0  0  0  0  0
   25.4990   22.8060   36.6100 C   0  0  0  0  0  0  0  0  0  0  0  0
   26.4150   21.9160   36.1840 N   0  0  0  0  0  0  0  0  0  0  0  0
   26.7820   21.7270   34.7830 C   0  0  0  0  0  0  0  0  0  0  0  0
   25.2920   23.0320   38.0660 C   0  0  0  0  0  0  0  0  0  0  0  0
   26.4560   22.9970   38.8890 C   0  0  0  0  0  0  0  0  0  0  0  0
   26.4090   23.2000   40.2910 C   0  0  0  0  0  0  0  0  0  0  0  0
   25.1560   23.4620   40.8850 C   0  0  0  0  0  0  0  0  0  0  0  0
   24.0180   23.2980   38.6740 C   0  0  0  0  0  0  0  0  0  0  0  0
   23.9820   23.4920   40.0940 C   0  0  0  0  0  0  0  0  0  0  0  0
   22.5100   23.3470   37.7880 S   0  0  0  0  0  0  0  0  0  0  0  0
   21.4890   24.5480   38.5260 C   0  0  0  0  0  0  0  0  0  0  0  0
   20.1230   24.2590   38.7960 C   0  0  0  0  0  0  0  0  0  0  0  0
   19.2570   25.2390   39.3920 C   0  0  0  0  0  0  0  0  0  0  0  0
   22.0200   25.8320   38.8650 C   0  0  0  0  0  0  0  0  0  0  0  0
   21.1780   26.7750   39.4500 C   0  0  0  0  0  0  0  0  0  0  0  0
   21.4300   28.0760   39.8550 N   0  0  0  0  0  0  0  0  0  0  0  0
   20.3390   28.5970   40.3060 N   0  0  0  0  0  0  0  0  0  0  0  0
   19.3710   27.7550   40.2740 C   0  0  0  0  0  0  0  0  0  0  0  0
   19.8440   26.5040   39.7110 C   0  0  0  0  0  0  0  0  0  0  0  0
   18.0180   28.1340   40.7130 C   0  0  0  0  0  0  0  0  0  0  0  0
   16.8850   27.3250   40.8080 C   0  0  0  0  0  0  0  0  0  0  0  0
   15.5470   27.8250   41.2730 C   0  0  0  0  0  0  0  0  0  0  0  0
   14.5760   26.8900   41.3370 N   0  0  0  0  0  0  0  0  0  0  0  0
   13.3190   27.2230   41.7450 C   0  0  0  0  0  0  0  0  0  0  0  0
   13.0020   28.5450   42.1030 C   0  0  0  0  0  0  0  0  0  0  0  0
   14.0040   29.5300   42.0410 C   0  0  0  0  0  0  0  0  0  0  0  0
   15.3120   29.1790   41.6160 C   0  0  0  0  0  0  0  0  0  0  0  0
   26.8861   21.3323   36.8898 H   0  0  0  0  0  0  0  0  0  0  0  0
   27.7585   21.2241   34.7244 H   0  0  0  0  0  0  0  0  0  0  0  0
   26.0207   21.1088   34.2847 H   0  0  0  0  0  0  0  0  0  0  0  0
   26.8431   22.7058   34.2847 H   0  0  0  0  0  0  0  0  0  0  0  0
   27.4305   22.8045   38.4164 H   0  0  0  0  0  0  0  0  0  0  0  0
   27.3243   23.1546   40.8995 H   0  0  0  0  0  0  0  0  0  0  0  0
   25.0910   23.6438   41.9679 H   0  0  0  0  0  0  0  0  0  0  0  0
   23.0132   23.6695   40.5838 H   0  0  0  0  0  0  0  0  0  0  0  0
   19.7215   23.2664   38.5439 H   0  0  0  0  0  0  0  0  0  0  0  0
   18.1964   25.0271   39.5927 H   0  0  0  0  0  0  0  0  0  0  0  0
   23.0754   26.0708   38.6671 H   0  0  0  0  0  0  0  0  0  0  0  0
   20.2557   29.5650   40.6480 H   0  0  0  0  0  0  0  0  0  0  0  0
   17.8832   29.1867   41.0024 H   0  0  0  0  0  0  0  0  0  0  0  0
   16.9765   26.2653   40.5276 H   0  0  0  0  0  0  0  0  0  0  0  0
   12.5415   26.4464   41.7949 H   0  0  0  0  0  0  0  0  0  0  0  0
   11.9837   28.8056   42.4273 H   0  0  0  0  0  0  0  0  0  0  0  0
   13.7748   30.5688   42.3209 H   0  0  0  0  0  0  0  0  0  0  0  0
   16.1131   29.9303   41.5553 H   0  0  0  0  0  0  0  0  0  0  0  0
  1  2  2  0
  2  3  1  0
  2  5  1  0
  3  4  1  0
  5  6  2  0
  5  9  1  0
  6  7  1  0
  7  8  2  0
  8 10  1  0
  9 10  2  0
  9 11  1  0
 11 12  1  0
 12 13  1  0
 12 15  2  0
 13 14  2  0
 14 20  1  0
 15 16  1  0
 16 17  2  0
 16 20  1  0
 17 18  1  0
 18 19  1  0
 19 20  2  0
 19 21  1  0
 21 22  2  0
 22 23  1  0
 23 24  2  0
 23 28  1  0
 24 25  1  0
 25 26  2  0
 26 27  1  0
 27 28  2  0
  3 29  1  0
  4 30  1  0
  4 31  1  0
  4 32  1  0
  6 33  1  0
  7 34  1  0
  8 35  1  0
 10 36  1  0
 13 37  1  0
 14 38  1  0
 15 39  1  0
 18 40  1  0
 21 41  1  0
 22 42  1  0
 25 43  1  0
 26 44  1  0
 27 45  1  0
 28 46  1  0
A    1
O81
A    2
C80
A    3
N82
A    4
C88
A    5
C23
A    6
C22
A    7
C21
A    8
C20
A    9
C18
A   10
C19
A   11
S24
A   12
C07
A   13
C08
A   14
C09
A   15
C12
A   16
C11
A   17
N15
A   18
N14
A   19
C13
A   20
C10
A   21
C16
A   22
C17
A   23
C02
A   24
N03
A   25
C04
A   26
C05
A   27
C06
A   28
C01
M  END
