4TWT_38A_E_103
     RDKit          3D

 30 30  0  0  0  0  0  0  0  0999 V2000
  -11.5590   69.6470  231.2600 C   0  0  0  0  0  0  0  0  0  0  0  0
  -11.3940   70.9010  230.4390 C   0  0  0  0  0  0  0  0  0  0  0  0
  -10.1410   71.5040  230.3540 C   0  0  0  0  0  0  0  0  0  0  0  0
   -8.9810   70.8540  231.0540 C   0  0  0  0  0  0  0  0  0  0  0  0
  -12.4930   71.4930  229.8110 C   0  0  0  0  0  0  0  0  0  0  0  0
  -13.8580   70.8550  229.8910 C   0  0  0  0  0  0  0  0  0  0  0  0
  -12.3410   72.6770  229.1050 C   0  0  0  0  0  0  0  0  0  0  0  0
  -13.5960   73.2740  228.5000 C   0  0  0  0  0  0  0  0  0  0  0  0
  -11.0810   73.2830  229.0320 C   0  0  0  0  0  0  0  0  0  0  0  0
  -10.9280   74.5550  228.2440 C   0  0  0  0  0  0  0  0  0  0  0  0
   -9.9700   72.7080  229.6640 C   0  0  0  0  0  0  0  0  0  0  0  0
   -8.6010   73.4100  229.6310 C   0  0  0  0  0  0  0  0  0  0  0  0
  -11.5255   69.9019  232.3295 H   0  0  0  0  0  0  0  0  0  0  0  0
  -12.5264   69.1793  231.0247 H   0  0  0  0  0  0  0  0  0  0  0  0
  -10.7455   68.9450  231.0247 H   0  0  0  0  0  0  0  0  0  0  0  0
   -9.1194   70.9316  232.1425 H   0  0  0  0  0  0  0  0  0  0  0  0
   -8.9263   69.7938  230.7660 H   0  0  0  0  0  0  0  0  0  0  0  0
   -8.0482   71.3608  230.7660 H   0  0  0  0  0  0  0  0  0  0  0  0
  -14.1399   70.7232  230.9461 H   0  0  0  0  0  0  0  0  0  0  0  0
  -14.5949   71.5020  229.3926 H   0  0  0  0  0  0  0  0  0  0  0  0
  -13.8343   69.8747  229.3926 H   0  0  0  0  0  0  0  0  0  0  0  0
  -14.2734   73.5962  229.3045 H   0  0  0  0  0  0  0  0  0  0  0  0
  -13.3269   74.1406  227.8782 H   0  0  0  0  0  0  0  0  0  0  0  0
  -14.0985   72.5185  227.8782 H   0  0  0  0  0  0  0  0  0  0  0  0
  -10.8258   75.4045  228.9353 H   0  0  0  0  0  0  0  0  0  0  0  0
  -10.0314   74.4881  227.6102 H   0  0  0  0  0  0  0  0  0  0  0  0
  -11.8149   74.7026  227.6102 H   0  0  0  0  0  0  0  0  0  0  0  0
   -8.2550   73.5874  230.6600 H   0  0  0  0  0  0  0  0  0  0  0  0
   -7.8749   72.7730  229.1047 H   0  0  0  0  0  0  0  0  0  0  0  0
   -8.6945   74.3714  229.1047 H   0  0  0  0  0  0  0  0  0  0  0  0
 10  9  1  0
  8  7  1  0
  9  7  2  0
  9 11  1  0
  7  5  1  0
 12 11  1  0
 11  3  2  0
  5  6  1  0
  5  2  2  0
  3  2  1  0
  3  4  1  0
  2  1  1  0
  1 13  1  0
  1 14  1  0
  1 15  1  0
  4 16  1  0
  4 17  1  0
  4 18  1  0
  6 19  1  0
  6 20  1  0
  6 21  1  0
  8 22  1  0
  8 23  1  0
  8 24  1  0
 10 25  1  0
 10 26  1  0
 10 27  1  0
 12 28  1  0
 12 29  1  0
 12 30  1  0
A    1
CAK
A    2
CAC
A    3
CAB
A    4
CAG
A    5
CAD
A    6
CAI
A    7
CAE
A    8
CAL
A    9
CAF
A   10
CAH
A   11
CAA
A   12
CAJ
M  END
