4TX6_38B_A_401
     RDKit          3D

 30 32  0  0  0  0  0  0  0  0999 V2000
   15.6110   41.2980   75.4350 C   0  0  0  0  0  0  0  0  0  0  0  0
   15.3440   39.8130   75.1550 C   0  0  0  0  0  0  0  0  0  0  0  0
   15.4800   39.3490   73.9000 N   0  0  0  0  0  0  0  0  0  0  0  0
   15.0540   38.9650   76.2300 N   0  0  0  0  0  0  0  0  0  0  0  0
   14.8240   37.5690   76.0710 C   0  0  0  0  0  0  0  0  0  0  0  0
   14.5920   36.8240   77.0520 O   0  0  0  0  0  0  0  0  0  0  0  0
   14.9270   37.0860   74.7490 C   0  0  0  0  0  0  0  0  0  0  0  0
   15.2530   38.0230   73.7010 C   0  0  0  0  0  0  0  0  0  0  0  0
   15.2570   37.3460   72.5560 O   0  0  0  0  0  0  0  0  0  0  0  0
   14.9700   35.9280   72.8400 N   0  0  0  0  0  0  0  0  0  0  0  0
   14.7920   35.7920   74.1630 C   0  0  0  0  0  0  0  0  0  0  0  0
   14.4670   34.6350   74.8470 C   0  0  0  0  0  0  0  0  0  0  0  0
   15.3420   34.1990   75.8530 C   0  0  0  0  0  0  0  0  0  0  0  0
   15.0370   33.0540   76.5790 C   0  0  0  0  0  0  0  0  0  0  0  0
   13.8600   32.3550   76.3150 C   0  0  0  0  0  0  0  0  0  0  0  0
   12.9720   32.7730   75.3030 C   0  0  0  0  0  0  0  0  0  0  0  0
   13.2670   33.9250   74.5600 C   0  0  0  0  0  0  0  0  0  0  0  0
   12.3810   34.3500   73.5940 O   0  0  0  0  0  0  0  0  0  0  0  0
   10.9450   34.0920   73.8380 C   0  0  0  0  0  0  0  0  0  0  0  0
   15.6413   41.4666   76.5216 H   0  0  0  0  0  0  0  0  0  0  0  0
   16.5755   41.5870   74.9921 H   0  0  0  0  0  0  0  0  0  0  0  0
   14.8076   41.9049   74.9921 H   0  0  0  0  0  0  0  0  0  0  0  0
   15.0049   39.3681   77.1766 H   0  0  0  0  0  0  0  0  0  0  0  0
   16.2639   34.7600   76.0659 H   0  0  0  0  0  0  0  0  0  0  0  0
   15.7239   32.6994   77.3616 H   0  0  0  0  0  0  0  0  0  0  0  0
   13.6196   31.4601   76.9077 H   0  0  0  0  0  0  0  0  0  0  0  0
   12.0555   32.2003   75.0980 H   0  0  0  0  0  0  0  0  0  0  0  0
   10.7574   34.0583   74.9214 H   0  0  0  0  0  0  0  0  0  0  0  0
   10.3460   34.8969   73.3870 H   0  0  0  0  0  0  0  0  0  0  0  0
   10.6637   33.1289   73.3870 H   0  0  0  0  0  0  0  0  0  0  0  0
  9 10  1  0
  9  8  1  0
 10 11  2  0
 18 19  1  0
 18 17  1  0
  8  3  1  0
  8  7  2  0
  3  2  2  0
 11  7  1  0
 11 12  1  0
 17 12  1  0
 17 16  2  0
  7  5  1  0
 12 13  2  0
  2  1  1  0
  2  4  1  0
 16 15  1  0
 13 14  1  0
  5  4  1  0
  5  6  2  0
 15 14  2  0
  1 20  1  0
  1 21  1  0
  1 22  1  0
  4 23  1  0
 13 24  1  0
 14 25  1  0
 15 26  1  0
 16 27  1  0
 19 28  1  0
 19 29  1  0
 19 30  1  0
A    1
CAA
A    2
CAB
A    3
NAC
A    4
NAF
A    5
CAG
A    6
OAK
A    7
CAH
A    8
CAD
A    9
OAE
A   10
NAJ
A   11
CAI
A   12
CAL
A   13
CAM
A   14
CAN
A   15
CAQ
A   16
CAP
A   17
CAO
A   18
OAR
A   19
CAS
M  END
