4TY6_39D_A_301
     RDKit          3D

 64 67  0  0  0  0  0  0  0  0999 V2000
   39.0220  -16.4390   27.8590 C   0  0  0  0  0  0  0  0  0  0  0  0
   38.2340  -17.5600   28.5660 C   0  0  0  0  0  0  0  0  0  0  0  0
   39.1690  -18.6170   29.1360 C   0  0  0  0  0  0  0  0  0  0  0  0
   38.0840  -15.3340   27.3360 C   0  0  0  0  0  0  0  0  0  0  0  0
   37.2080  -14.7530   28.4410 C   0  0  0  0  0  0  0  0  0  0  0  0
   36.4210  -15.8830   29.0870 C   0  0  0  0  0  0  0  0  0  0  0  0
   37.3430  -16.9660   29.6630 C   0  0  0  0  0  0  0  0  0  0  0  0
   36.2910  -13.6380   27.9290 C   0  0  0  0  0  0  0  0  0  0  0  0
   41.4320  -20.7600   28.9200 C   0  0  0  0  0  0  0  0  0  0  0  0
   39.9430  -20.9140   28.9150 C   0  0  0  0  0  0  0  0  0  0  0  0
   47.0600  -20.8330   30.6920 C   0  0  0  0  0  0  0  0  0  0  0  0
   40.2460  -23.4010   28.5920 C   0  0  0  0  0  0  0  0  0  0  0  0
   40.0220  -23.9040   29.8670 C   0  0  0  0  0  0  0  0  0  0  0  0
   40.7590  -24.9770   30.3470 C   0  0  0  0  0  0  0  0  0  0  0  0
   41.7310  -25.5590   29.5590 C   0  0  0  0  0  0  0  0  0  0  0  0
   41.9760  -25.0590   28.2940 C   0  0  0  0  0  0  0  0  0  0  0  0
   41.2350  -23.9870   27.8140 C   0  0  0  0  0  0  0  0  0  0  0  0
   42.2290  -21.0200   29.9430 N   0  0  0  0  0  0  0  0  0  0  0  0
   43.5090  -20.8470   29.4510 C   0  0  0  0  0  0  0  0  0  0  0  0
   43.4500  -20.4850   28.1350 C   0  0  0  0  0  0  0  0  0  0  0  0
   42.1290  -20.4180   27.8140 N   0  0  0  0  0  0  0  0  0  0  0  0
   39.2590  -19.7350   28.4120 N   0  0  0  0  0  0  0  0  0  0  0  0
   39.5270  -22.1610   28.1150 C   0  0  0  0  0  0  0  0  0  0  0  0
   39.7520  -18.4660   30.2140 O   0  0  0  0  0  0  0  0  0  0  0  0
   37.0100  -12.4680   27.4140 N   0  0  0  0  0  0  0  0  0  0  0  0
   44.6840  -21.0560   30.3130 C   0  0  0  0  0  0  0  0  0  0  0  0
   45.9240  -20.5300   29.9580 C   0  0  0  0  0  0  0  0  0  0  0  0
   46.9840  -21.6320   31.8310 C   0  0  0  0  0  0  0  0  0  0  0  0
   45.7340  -22.1270   32.2070 C   0  0  0  0  0  0  0  0  0  0  0  0
   44.6050  -21.8520   31.4530 C   0  0  0  0  0  0  0  0  0  0  0  0
   48.2820  -21.9580   32.5610 C   0  0  0  0  0  0  0  0  0  0  0  0
   49.3750  -21.5590   32.0880 O   0  0  0  0  0  0  0  0  0  0  0  0
   48.2210  -22.6690   33.6790 N   0  0  0  0  0  0  0  0  0  0  0  0
   39.5743  -16.8702   27.0110 H   0  0  0  0  0  0  0  0  0  0  0  0
   39.7127  -15.9896   28.5877 H   0  0  0  0  0  0  0  0  0  0  0  0
   37.5928  -18.0549   27.8218 H   0  0  0  0  0  0  0  0  0  0  0  0
   38.6936  -14.5261   26.9052 H   0  0  0  0  0  0  0  0  0  0  0  0
   37.4222  -15.7819   26.5800 H   0  0  0  0  0  0  0  0  0  0  0  0
   37.8534  -14.2812   29.1965 H   0  0  0  0  0  0  0  0  0  0  0  0
   35.8071  -15.4691   29.9005 H   0  0  0  0  0  0  0  0  0  0  0  0
   35.7925  -16.3469   28.3126 H   0  0  0  0  0  0  0  0  0  0  0  0
   36.7293  -17.7663   30.1022 H   0  0  0  0  0  0  0  0  0  0  0  0
   37.9850  -16.5111   30.4318 H   0  0  0  0  0  0  0  0  0  0  0  0
   35.6464  -13.3112   28.7583 H   0  0  0  0  0  0  0  0  0  0  0  0
   35.7176  -14.0563   27.0886 H   0  0  0  0  0  0  0  0  0  0  0  0
   39.6349  -21.0404   29.9634 H   0  0  0  0  0  0  0  0  0  0  0  0
   48.0349  -20.4373   30.3710 H   0  0  0  0  0  0  0  0  0  0  0  0
   39.2509  -23.4461   30.5040 H   0  0  0  0  0  0  0  0  0  0  0  0
   40.5680  -25.3649   31.3585 H   0  0  0  0  0  0  0  0  0  0  0  0
   42.3079  -26.4165   29.9358 H   0  0  0  0  0  0  0  0  0  0  0  0
   42.7587  -25.5106   27.6668 H   0  0  0  0  0  0  0  0  0  0  0  0
   41.4343  -23.5975   26.8048 H   0  0  0  0  0  0  0  0  0  0  0  0
   44.3013  -20.2869   27.4672 H   0  0  0  0  0  0  0  0  0  0  0  0
   41.7345  -20.1557   26.8994 H   0  0  0  0  0  0  0  0  0  0  0  0
   38.8334  -19.7624   27.4745 H   0  0  0  0  0  0  0  0  0  0  0  0
   39.7645  -21.9982   27.0534 H   0  0  0  0  0  0  0  0  0  0  0  0
   38.4476  -22.3152   28.2603 H   0  0  0  0  0  0  0  0  0  0  0  0
   37.3568  -11.9036   28.2027 H   0  0  0  0  0  0  0  0  0  0  0  0
   37.8056  -12.7797   26.8388 H   0  0  0  0  0  0  0  0  0  0  0  0
   46.0026  -19.8661   29.0845 H   0  0  0  0  0  0  0  0  0  0  0  0
   45.6445  -22.7433   33.1137 H   0  0  0  0  0  0  0  0  0  0  0  0
   43.6335  -22.2677   31.7586 H   0  0  0  0  0  0  0  0  0  0  0  0
   48.2616  -22.1959   34.5930 H   0  0  0  0  0  0  0  0  0  0  0  0
   48.1330  -23.6942   33.6332 H   0  0  0  0  0  0  0  0  0  0  0  0
  4  1  1  0
  4  5  1  0
 25  8  1  0
 21 20  1  0
 21  9  1  0
 17 16  2  0
 17 12  1  0
  1  2  1  0
  8  5  1  0
 23 12  1  0
 23 10  1  0
 20 19  2  0
 16 15  1  0
 22 10  1  0
 22  3  1  0
  5  6  1  0
  2  3  1  0
  2  7  1  0
 12 13  2  0
 10  9  1  0
  9 18  2  0
  6  7  1  0
  3 24  2  0
 19 18  1  0
 19 26  1  0
 15 14  2  0
 13 14  1  0
 27 26  1  0
 27 11  2  0
 26 30  2  0
 11 28  1  0
 30 29  1  0
 28 29  2  0
 28 31  1  0
 32 31  2  0
 31 33  1  0
  1 34  1  0
  1 35  1  0
  2 36  1  0
  4 37  1  0
  4 38  1  0
  5 39  1  0
  6 40  1  0
  6 41  1  0
  7 42  1  0
  7 43  1  0
  8 44  1  0
  8 45  1  0
 10 46  1  0
 11 47  1  0
 13 48  1  0
 14 49  1  0
 15 50  1  0
 16 51  1  0
 17 52  1  0
 20 53  1  0
 21 54  1  0
 22 55  1  0
 23 56  1  0
 23 57  1  0
 25 58  1  0
 25 59  1  0
 27 60  1  0
 29 61  1  0
 30 62  1  0
 33 63  1  0
 33 64  1  0
A    1
C18
A    2
C17
A    3
C15
A    4
C19
A    5
C20
A    6
C21
A    7
C22
A    8
C23
A    9
C11
A   10
C12
A   11
C27
A   12
C1
A   13
C2
A   14
C3
A   15
C4
A   16
C5
A   17
C6
A   18
N7
A   19
C8
A   20
C9
A   21
N10
A   22
N13
A   23
C14
A   24
O16
A   25
N24
A   26
C25
A   27
C26
A   28
C28
A   29
C29
A   30
C30
A   31
C31
A   32
O32
A   33
N33
M  END
