4TYA_3AE_A_601
     RDKit          3D

 18 18  0  0  0  0  0  0  0  0999 V2000
   -0.2300   21.5770   45.6060 O   0  0  0  0  0  0  0  0  0  0  0  0
    0.4370   21.0140   42.8820 C   0  0  0  0  0  0  0  0  0  0  0  0
    1.3770   21.4600   43.8100 C   0  0  0  0  0  0  0  0  0  0  0  0
    2.8380   20.9420   39.1130 F   0  0  0  0  0  0  0  0  0  0  0  0
    3.5240   19.0860   39.9450 F   0  0  0  0  0  0  0  0  0  0  0  0
    1.5270   22.8040   45.7750 O   0  0  0  0  0  0  0  0  0  0  0  0
    0.8680   21.9640   45.1300 C   0  0  0  0  0  0  0  0  0  0  0  0
    3.0990   20.9190   42.2220 C   0  0  0  0  0  0  0  0  0  0  0  0
    2.1530   20.4690   41.2920 C   0  0  0  0  0  0  0  0  0  0  0  0
    2.7310   21.4150   43.4810 C   0  0  0  0  0  0  0  0  0  0  0  0
    1.4880   19.3120   39.3700 F   0  0  0  0  0  0  0  0  0  0  0  0
    2.5140   19.9440   39.9240 C   0  0  0  0  0  0  0  0  0  0  0  0
    0.8190   20.5210   41.6440 C   0  0  0  0  0  0  0  0  0  0  0  0
   -0.6320   21.0542   43.1380 H   0  0  0  0  0  0  0  0  0  0  0  0
    1.5149   22.7885   46.7648 H   0  0  0  0  0  0  0  0  0  0  0  0
    4.1657   20.8821   41.9559 H   0  0  0  0  0  0  0  0  0  0  0  0
    3.4942   21.7611   44.1936 H   0  0  0  0  0  0  0  0  0  0  0  0
    0.0536   20.1686   40.9369 H   0  0  0  0  0  0  0  0  0  0  0  0
  4 12  1  0
 11 12  1  0
  5 12  1  0
 12  9  1  0
  9 13  1  0
  9  8  2  0
 13  2  2  0
  8 10  1  0
  2  3  1  0
 10  3  2  0
  3  7  1  0
  7  1  2  0
  7  6  1  0
  2 14  1  0
  6 15  1  0
  8 16  1  0
 10 17  1  0
 13 18  1  0
A    1
O01
A    2
C01
A    3
C02
A    4
F01
A    5
F02
A    6
O
A    7
C03
A    8
C04
A    9
C05
A   10
C06
A   11
F
A   12
C07
A   13
C
M  END
