2H7M_641_A_501
     RDKit          3D

 43 45  0  0  0  0  0  0  0  0999 V2000
    4.4120   31.1940   58.6100 C   0  0  0  0  0  0  0  0  0  0  0  0
    5.3060   32.3810   58.9270 C   0  0  0  0  0  0  0  0  0  0  0  0
    6.8670   32.2150   58.6840 C   0  0  0  0  0  0  0  0  0  0  0  0
    7.4530   30.9460   59.3080 C   0  0  0  0  0  0  0  0  0  0  0  0
    6.6790   29.7380   58.6230 C   0  0  0  0  0  0  0  0  0  0  0  0
    5.0800   29.7800   58.7870 C   0  0  0  0  0  0  0  0  0  0  0  0
    8.6060   33.8010   58.4930 C   0  0  0  0  0  0  0  0  0  0  0  0
    9.6270   34.2050   59.3570 C   0  0  0  0  0  0  0  0  0  0  0  0
    9.1800   34.3370   60.7040 C   0  0  0  0  0  0  0  0  0  0  0  0
    7.6400   33.9780   60.7160 C   0  0  0  0  0  0  0  0  0  0  0  0
    7.3700   33.6280   59.1310 N   0  0  0  0  0  0  0  0  0  0  0  0
    9.7990   33.3500   61.6090 C   0  0  0  0  0  0  0  0  0  0  0  0
   11.0920   33.9120   62.1760 N   0  0  0  0  0  0  0  0  0  0  0  0
    9.3090   32.2760   61.8080 O   0  0  0  0  0  0  0  0  0  0  0  0
    8.8710   33.6450   57.2990 O   0  0  0  0  0  0  0  0  0  0  0  0
   11.8440   33.4640   62.5360 C   0  0  0  0  0  0  0  0  0  0  0  0
   13.0400   34.2460   62.5820 C   0  0  0  0  0  0  0  0  0  0  0  0
   14.2700   33.6480   63.1220 C   0  0  0  0  0  0  0  0  0  0  0  0
   15.7300   34.5850   63.1860 Cl  0  0  0  0  0  0  0  0  0  0  0  0
   14.2640   32.2560   63.6080 C   0  0  0  0  0  0  0  0  0  0  0  0
   13.0240   31.5040   63.5390 C   0  0  0  0  0  0  0  0  0  0  0  0
   11.8660   32.1140   63.0160 C   0  0  0  0  0  0  0  0  0  0  0  0
   12.8760   29.8620   64.0740 Cl  0  0  0  0  0  0  0  0  0  0  0  0
    4.0839   31.2859   57.5641 H   0  0  0  0  0  0  0  0  0  0  0  0
    3.5872   31.2329   59.3368 H   0  0  0  0  0  0  0  0  0  0  0  0
    4.9649   33.2238   58.3079 H   0  0  0  0  0  0  0  0  0  0  0  0
    5.2070   32.5214   60.0135 H   0  0  0  0  0  0  0  0  0  0  0  0
    7.2041   31.9991   57.6594 H   0  0  0  0  0  0  0  0  0  0  0  0
    8.5312   30.8784   59.1007 H   0  0  0  0  0  0  0  0  0  0  0  0
    7.3353   30.9377   60.4017 H   0  0  0  0  0  0  0  0  0  0  0  0
    6.9128   29.7477   57.5482 H   0  0  0  0  0  0  0  0  0  0  0  0
    7.0181   28.8246   59.1336 H   0  0  0  0  0  0  0  0  0  0  0  0
    4.8340   29.4139   59.7947 H   0  0  0  0  0  0  0  0  0  0  0  0
    4.6791   29.1556   57.9750 H   0  0  0  0  0  0  0  0  0  0  0  0
   10.4335   33.4577   59.3243 H   0  0  0  0  0  0  0  0  0  0  0  0
    9.9778   35.1924   59.0223 H   0  0  0  0  0  0  0  0  0  0  0  0
    9.4279   35.3554   61.0377 H   0  0  0  0  0  0  0  0  0  0  0  0
    7.4352   33.1096   61.3594 H   0  0  0  0  0  0  0  0  0  0  0  0
    6.9971   34.7770   61.1138 H   0  0  0  0  0  0  0  0  0  0  0  0
   11.1607   34.9397   62.1672 H   0  0  0  0  0  0  0  0  0  0  0  0
   13.0400   35.2838   62.2174 H   0  0  0  0  0  0  0  0  0  0  0  0
   15.1781   31.7977   64.0136 H   0  0  0  0  0  0  0  0  0  0  0  0
   10.9367   31.5269   62.9744 H   0  0  0  0  0  0  0  0  0  0  0  0
  1  6  1  0
  1  2  1  0
  2  3  1  0
  3 11  1  0
  3  4  1  0
  4  5  1  0
  5  6  1  0
  7 11  1  0
  7 15  2  0
  7  8  1  0
  8  9  1  0
  9 12  1  0
  9 10  1  0
 10 11  1  0
 12 13  1  0
 12 14  2  0
 13 16  1  0
 16 22  1  0
 16 17  2  0
 17 18  1  0
 18 20  2  0
 18 19  1  0
 20 21  1  0
 21 22  2  0
 21 23  1  0
  1 24  1  0
  1 25  1  0
  2 26  1  0
  2 27  1  0
  3 28  1  0
  4 29  1  0
  4 30  1  0
  5 31  1  0
  5 32  1  0
  6 33  1  0
  6 34  1  0
  8 35  1  0
  8 36  1  0
  9 37  1  0
 10 38  1  0
 10 39  1  0
 13 40  1  0
 17 41  1  0
 20 42  1  0
 22 43  1  0
A    1
C1
A    2
C2
A    3
C3
A    4
C4
A    5
C5
A    6
C6
A    7
C7
A    8
C8
A    9
C9
A   10
C10
A   11
N11
A   12
C12
A   13
N13
A   14
O14
A   15
O15
A   16
C15
A   17
C20
A   18
C19
A   19
CL2
A   20
C18
A   21
C17
A   22
C16
A   23
CL1
M  END
