2H7P_468_A_501
     RDKit          3D

 46 48  0  0  0  0  0  0  0  0999 V2000
   44.5680   53.5240   58.7020 C   0  0  0  0  0  0  0  0  0  0  0  0
   43.6170   52.3640   59.0080 C   0  0  0  0  0  0  0  0  0  0  0  0
   42.0550   52.5660   58.7520 C   0  0  0  0  0  0  0  0  0  0  0  0
   41.5320   53.8470   59.4110 C   0  0  0  0  0  0  0  0  0  0  0  0
   42.3210   55.0490   58.7100 C   0  0  0  0  0  0  0  0  0  0  0  0
   43.9390   54.9730   58.7890 C   0  0  0  0  0  0  0  0  0  0  0  0
   40.2950   50.9190   58.5750 C   0  0  0  0  0  0  0  0  0  0  0  0
   39.2980   50.4780   59.4560 C   0  0  0  0  0  0  0  0  0  0  0  0
   39.7380   50.3890   60.8070 C   0  0  0  0  0  0  0  0  0  0  0  0
   41.2780   50.8040   60.8030 C   0  0  0  0  0  0  0  0  0  0  0  0
   41.5350   51.1480   59.2060 N   0  0  0  0  0  0  0  0  0  0  0  0
   39.0400   51.4430   61.5890 C   0  0  0  0  0  0  0  0  0  0  0  0
   38.0180   50.8250   62.4830 N   0  0  0  0  0  0  0  0  0  0  0  0
   39.2690   52.5920   61.3930 O   0  0  0  0  0  0  0  0  0  0  0  0
   40.0080   51.0560   57.3830 O   0  0  0  0  0  0  0  0  0  0  0  0
   37.2360   51.4270   62.9640 C   0  0  0  0  0  0  0  0  0  0  0  0
   37.2890   52.7310   63.5630 C   0  0  0  0  0  0  0  0  0  0  0  0
   36.0570   53.3800   64.1820 C   0  0  0  0  0  0  0  0  0  0  0  0
   34.7730   52.6950   64.1920 C   0  0  0  0  0  0  0  0  0  0  0  0
   34.6390   51.3920   63.6210 C   0  0  0  0  0  0  0  0  0  0  0  0
   35.9270   50.6900   62.9570 C   0  0  0  0  0  0  0  0  0  0  0  0
   35.7830   49.3140   62.3470 C   0  0  0  0  0  0  0  0  0  0  0  0
   33.0360   50.6430   63.6860 Cl  0  0  0  0  0  0  0  0  0  0  0  0
   44.9529   53.3842   57.6811 H   0  0  0  0  0  0  0  0  0  0  0  0
   45.3429   53.4880   59.4819 H   0  0  0  0  0  0  0  0  0  0  0  0
   43.9383   51.5109   58.3925 H   0  0  0  0  0  0  0  0  0  0  0  0
   43.6947   52.2352   60.0977 H   0  0  0  0  0  0  0  0  0  0  0  0
   41.6984   52.7859   57.7349 H   0  0  0  0  0  0  0  0  0  0  0  0
   40.4497   53.9498   59.2437 H   0  0  0  0  0  0  0  0  0  0  0  0
   41.6914   53.8374   60.4993 H   0  0  0  0  0  0  0  0  0  0  0  0
   42.0355   55.0659   57.6478 H   0  0  0  0  0  0  0  0  0  0  0  0
   42.0373   55.9558   59.2644 H   0  0  0  0  0  0  0  0  0  0  0  0
   44.2510   55.4190   59.7449 H   0  0  0  0  0  0  0  0  0  0  0  0
   44.3058   55.5103   57.9020 H   0  0  0  0  0  0  0  0  0  0  0  0
   38.4546   51.1826   59.4094 H   0  0  0  0  0  0  0  0  0  0  0  0
   39.0100   49.4644   59.1402 H   0  0  0  0  0  0  0  0  0  0  0  0
   39.5563   49.3860   61.2205 H   0  0  0  0  0  0  0  0  0  0  0  0
   41.4563   51.6859   61.4359 H   0  0  0  0  0  0  0  0  0  0  0  0
   41.9480   50.0292   61.2040 H   0  0  0  0  0  0  0  0  0  0  0  0
   38.0467   49.8095   62.6530 H   0  0  0  0  0  0  0  0  0  0  0  0
   38.2444   53.2760   63.5754 H   0  0  0  0  0  0  0  0  0  0  0  0
   36.1395   54.3820   64.6283 H   0  0  0  0  0  0  0  0  0  0  0  0
   33.8976   53.1848   64.6433 H   0  0  0  0  0  0  0  0  0  0  0  0
   35.7045   48.5642   63.1480 H   0  0  0  0  0  0  0  0  0  0  0  0
   34.8766   49.2819   61.7246 H   0  0  0  0  0  0  0  0  0  0  0  0
   36.6631   49.0949   61.7246 H   0  0  0  0  0  0  0  0  0  0  0  0
  1  6  1  0
  1  2  1  0
  2  3  1  0
  3 11  1  0
  3  4  1  0
  4  5  1  0
  5  6  1  0
  7 11  1  0
  7 15  2  0
  7  8  1  0
  8  9  1  0
  9 12  1  0
  9 10  1  0
 10 11  1  0
 12 13  1  0
 12 14  2  0
 13 16  1  0
 16 21  1  0
 16 17  2  0
 17 18  1  0
 18 19  2  0
 19 20  1  0
 20 21  2  0
 20 23  1  0
 21 22  1  0
  1 24  1  0
  1 25  1  0
  2 26  1  0
  2 27  1  0
  3 28  1  0
  4 29  1  0
  4 30  1  0
  5 31  1  0
  5 32  1  0
  6 33  1  0
  6 34  1  0
  8 35  1  0
  8 36  1  0
  9 37  1  0
 10 38  1  0
 10 39  1  0
 13 40  1  0
 17 41  1  0
 18 42  1  0
 19 43  1  0
 22 44  1  0
 22 45  1  0
 22 46  1  0
A    1
C1
A    2
C2
A    3
C3
A    4
C4
A    5
C5
A    6
C6
A    7
C7
A    8
C8
A    9
C9
A   10
C10
A   11
N11
A   12
C12
A   13
N13
A   14
O14
A   15
O15
A   16
C15
A   17
C20
A   18
C19
A   19
C18
A   20
C17
A   21
C16
A   22
C23
A   23
CL1
M  END
