2H7I_566_A_401
     RDKit          3D

 43 45  0  0  0  0  0  0  0  0999 V2000
   44.1920   53.6380  -82.0640 C   0  0  0  0  0  0  0  0  0  0  0  0
   43.4600   52.3480  -81.6320 C   0  0  0  0  0  0  0  0  0  0  0  0
   41.9390   52.3930  -81.9000 C   0  0  0  0  0  0  0  0  0  0  0  0
   41.2750   53.6480  -81.2930 C   0  0  0  0  0  0  0  0  0  0  0  0
   41.9630   54.9420  -81.7860 C   0  0  0  0  0  0  0  0  0  0  0  0
   43.5000   54.9330  -81.5760 C   0  0  0  0  0  0  0  0  0  0  0  0
   40.2220   50.6950  -82.0960 C   0  0  0  0  0  0  0  0  0  0  0  0
   39.2160   50.1280  -81.1230 C   0  0  0  0  0  0  0  0  0  0  0  0
   39.7830   50.2600  -79.7740 C   0  0  0  0  0  0  0  0  0  0  0  0
   41.2600   50.9350  -79.8150 C   0  0  0  0  0  0  0  0  0  0  0  0
   41.3220   51.1150  -81.4570 N   0  0  0  0  0  0  0  0  0  0  0  0
   36.3870   52.1870  -77.5570 C   0  0  0  0  0  0  0  0  0  0  0  0
   35.1840   52.6100  -76.9600 C   0  0  0  0  0  0  0  0  0  0  0  0
   34.0650   51.7510  -76.9400 C   0  0  0  0  0  0  0  0  0  0  0  0
   34.1470   50.4670  -77.5170 C   0  0  0  0  0  0  0  0  0  0  0  0
   35.3470   50.0380  -78.1170 C   0  0  0  0  0  0  0  0  0  0  0  0
   36.4750   50.8910  -78.1410 C   0  0  0  0  0  0  0  0  0  0  0  0
   38.7790   51.1170  -79.0110 C   0  0  0  0  0  0  0  0  0  0  0  0
   37.6290   50.4100  -78.7680 N   0  0  0  0  0  0  0  0  0  0  0  0
   39.0100   52.2930  -78.7240 O   0  0  0  0  0  0  0  0  0  0  0  0
   40.0340   50.7380  -83.2950 O   0  0  0  0  0  0  0  0  0  0  0  0
   45.2126   53.6130  -81.6545 H   0  0  0  0  0  0  0  0  0  0  0  0
   44.1843   53.6616  -83.1637 H   0  0  0  0  0  0  0  0  0  0  0  0
   43.8880   51.5004  -82.1873 H   0  0  0  0  0  0  0  0  0  0  0  0
   43.5977   52.2419  -80.5458 H   0  0  0  0  0  0  0  0  0  0  0  0
   41.7646   52.4881  -82.9819 H   0  0  0  0  0  0  0  0  0  0  0  0
   40.2155   53.6709  -81.5879 H   0  0  0  0  0  0  0  0  0  0  0  0
   41.3735   53.5978  -80.1986 H   0  0  0  0  0  0  0  0  0  0  0  0
   41.7573   55.0603  -82.8601 H   0  0  0  0  0  0  0  0  0  0  0  0
   41.5563   55.7752  -81.1941 H   0  0  0  0  0  0  0  0  0  0  0  0
   43.7034   55.0505  -80.5014 H   0  0  0  0  0  0  0  0  0  0  0  0
   43.9090   55.7591  -82.1761 H   0  0  0  0  0  0  0  0  0  0  0  0
   38.2718   50.6883  -81.1899 H   0  0  0  0  0  0  0  0  0  0  0  0
   39.0063   49.0731  -81.3535 H   0  0  0  0  0  0  0  0  0  0  0  0
   39.9315   49.2847  -79.2874 H   0  0  0  0  0  0  0  0  0  0  0  0
   41.3034   51.8953  -79.2803 H   0  0  0  0  0  0  0  0  0  0  0  0
   42.0802   50.3768  -79.3400 H   0  0  0  0  0  0  0  0  0  0  0  0
   37.2589   52.8575  -77.5723 H   0  0  0  0  0  0  0  0  0  0  0  0
   35.1166   53.6110  -76.5089 H   0  0  0  0  0  0  0  0  0  0  0  0
   33.1262   52.0837  -76.4731 H   0  0  0  0  0  0  0  0  0  0  0  0
   33.2728   49.7996  -77.4985 H   0  0  0  0  0  0  0  0  0  0  0  0
   35.4071   49.0366  -78.5682 H   0  0  0  0  0  0  0  0  0  0  0  0
   37.6138   49.4278  -79.0779 H   0  0  0  0  0  0  0  0  0  0  0  0
  1  2  1  0
  1  6  1  0
  2  3  1  0
  3  4  1  0
  3 11  1  0
  4  5  1  0
  5  6  1  0
  7  8  1  0
  7 11  1  0
  7 21  2  0
  8  9  1  0
  9 10  1  0
  9 18  1  0
 10 11  1  0
 12 13  2  0
 12 17  1  0
 13 14  1  0
 14 15  2  0
 15 16  1  0
 16 17  2  0
 17 19  1  0
 18 19  1  0
 18 20  2  0
  1 22  1  0
  1 23  1  0
  2 24  1  0
  2 25  1  0
  3 26  1  0
  4 27  1  0
  4 28  1  0
  5 29  1  0
  5 30  1  0
  6 31  1  0
  6 32  1  0
  8 33  1  0
  8 34  1  0
  9 35  1  0
 10 36  1  0
 10 37  1  0
 12 38  1  0
 13 39  1  0
 14 40  1  0
 15 41  1  0
 16 42  1  0
 19 43  1  0
A    1
C1
A    2
C2
A    3
C3
A    4
C4
A    5
C5
A    6
C6
A    7
C15
A    8
C16
A    9
C17
A   10
C18
A   11
N19
A   12
C24
A   13
C25
A   14
C26
A   15
C27
A   16
C28
A   17
C29
A   18
C33
A   19
N35
A   20
O37
A   21
O38
M  END
