4U2Y_RZM_A_701
     RDKit          3D

 45 46  0  0  0  0  0  0  0  0999 V2000
   27.3770  -29.4670  278.9870 O   0  0  0  0  0  0  0  0  0  0  0  0
   27.2450  -30.7450  279.6140 C   0  0  0  0  0  0  0  0  0  0  0  0
   25.8170  -31.0760  280.0380 C   0  0  0  0  0  0  0  0  0  0  0  0
   23.8070  -30.1220  280.4210 C   0  0  0  0  0  0  0  0  0  0  0  0
   23.0010  -30.3880  281.5160 C   0  0  0  0  0  0  0  0  0  0  0  0
   22.4760  -29.0960  281.9220 O   0  0  0  0  0  0  0  0  0  0  0  0
   23.6710  -31.2280  279.2710 C   0  0  0  0  0  0  0  0  0  0  0  0
   22.5290  -30.8150  278.3730 O   0  0  0  0  0  0  0  0  0  0  0  0
   24.7930  -31.1390  278.7190 C   0  0  0  0  0  0  0  0  0  0  0  0
   25.1430  -32.2780  277.8500 O   0  0  0  0  0  0  0  0  0  0  0  0
   24.7000  -32.0300  276.5420 C   0  0  0  0  0  0  0  0  0  0  0  0
   24.3670  -33.3570  275.9370 C   0  0  0  0  0  0  0  0  0  0  0  0
   23.3400  -33.9690  276.7540 O   0  0  0  0  0  0  0  0  0  0  0  0
   25.5910  -34.1920  275.8300 C   0  0  0  0  0  0  0  0  0  0  0  0
   25.3160  -35.5290  275.3250 O   0  0  0  0  0  0  0  0  0  0  0  0
   26.5740  -33.5070  274.9590 C   0  0  0  0  0  0  0  0  0  0  0  0
   27.7510  -34.3480  274.7720 O   0  0  0  0  0  0  0  0  0  0  0  0
   26.9350  -32.2140  275.6360 C   0  0  0  0  0  0  0  0  0  0  0  0
   28.0290  -31.4480  274.9630 C   0  0  0  0  0  0  0  0  0  0  0  0
   27.5060  -30.7740  273.8310 O   0  0  0  0  0  0  0  0  0  0  0  0
   25.7540  -31.3280  275.7860 O   0  0  0  0  0  0  0  0  0  0  0  0
   25.2970  -30.1390  280.7830 N   0  0  0  0  0  0  0  0  0  0  0  0
   27.4495  -28.7648  279.6811 H   0  0  0  0  0  0  0  0  0  0  0  0
   27.5846  -31.5157  278.9063 H   0  0  0  0  0  0  0  0  0  0  0  0
   27.8540  -30.7181  280.5296 H   0  0  0  0  0  0  0  0  0  0  0  0
   25.8977  -32.0359  280.5691 H   0  0  0  0  0  0  0  0  0  0  0  0
   23.4693  -29.1323  280.0796 H   0  0  0  0  0  0  0  0  0  0  0  0
   22.1820  -31.0672  281.2368 H   0  0  0  0  0  0  0  0  0  0  0  0
   23.5572  -30.8803  282.3273 H   0  0  0  0  0  0  0  0  0  0  0  0
   22.4549  -29.0442  282.9104 H   0  0  0  0  0  0  0  0  0  0  0  0
   23.4483  -32.2581  279.5862 H   0  0  0  0  0  0  0  0  0  0  0  0
   21.7576  -30.5360  278.9273 H   0  0  0  0  0  0  0  0  0  0  0  0
   24.8409  -30.2788  278.0351 H   0  0  0  0  0  0  0  0  0  0  0  0
   23.8107  -31.3828  276.5252 H   0  0  0  0  0  0  0  0  0  0  0  0
   23.9817  -33.2454  274.9127 H   0  0  0  0  0  0  0  0  0  0  0  0
   23.5583  -33.8389  277.7108 H   0  0  0  0  0  0  0  0  0  0  0  0
   26.0010  -34.3163  276.8431 H   0  0  0  0  0  0  0  0  0  0  0  0
   25.1884  -36.1494  276.0859 H   0  0  0  0  0  0  0  0  0  0  0  0
   26.1538  -33.3108  273.9615 H   0  0  0  0  0  0  0  0  0  0  0  0
   28.1146  -34.6078  275.6554 H   0  0  0  0  0  0  0  0  0  0  0  0
   27.3109  -32.5218  276.6229 H   0  0  0  0  0  0  0  0  0  0  0  0
   28.8199  -32.1424  274.6433 H   0  0  0  0  0  0  0  0  0  0  0  0
   28.4485  -30.7133  275.6660 H   0  0  0  0  0  0  0  0  0  0  0  0
   26.9273  -30.0282  274.1292 H   0  0  0  0  0  0  0  0  0  0  0  0
   25.4241  -30.3584  281.7813 H   0  0  0  0  0  0  0  0  0  0  0  0
 20 19  1  0
 17 16  1  0
 16 18  1  0
 16 14  1  0
 19 18  1  0
 15 14  1  0
 18 21  1  0
 21 11  1  0
 14 12  1  0
 12 11  1  0
 12 13  1  0
 11 10  1  0
 10  9  1  0
  8  7  1  0
  9  7  1  0
  9  3  1  0
  1  2  1  0
  7  4  1  0
  2  3  1  0
  3 22  1  0
  4 22  1  0
  4  5  1  0
  5  6  1  0
  1 23  1  0
  2 24  1  0
  2 25  1  0
  3 26  1  0
  4 27  1  0
  5 28  1  0
  5 29  1  0
  6 30  1  0
  7 31  1  0
  8 32  1  0
  9 33  1  0
 11 34  1  0
 12 35  1  0
 13 36  1  0
 14 37  1  0
 15 38  1  0
 16 39  1  0
 17 40  1  0
 18 41  1  0
 19 42  1  0
 19 43  1  0
 20 44  1  0
 22 45  1  0
A    1
O6'
A    2
C6'
A    3
C5'
A    4
C2'
A    5
C1'
A    6
O1'
A    7
C3'
A    8
O3'
A    9
C4'
A   10
O4'
A   11
C1
A   12
C2
A   13
O2
A   14
C3
A   15
O3
A   16
C4
A   17
O4
A   18
C5
A   19
C6
A   20
O6
A   21
O5
A   22
N5'
M  END
