4U31_MVP_A_701
     RDKit          3D

 52 53  0  0  0  0  0  0  0  0999 V2000
   24.7550  -32.7280  283.9610 P   0  0  0  0  0  0  0  0  0  0  0  0
   25.2410  -35.3980  275.7760 O   0  0  0  0  0  0  0  0  0  0  0  0
   25.5920  -34.1960  276.4340 C   0  0  0  0  0  0  0  0  0  0  0  0
   24.3980  -33.3540  276.5970 C   0  0  0  0  0  0  0  0  0  0  0  0
   24.7280  -31.9930  277.1820 C   0  0  0  0  0  0  0  0  0  0  0  0
   25.8040  -31.3440  276.4480 O   0  0  0  0  0  0  0  0  0  0  0  0
   26.9880  -32.1900  276.3530 C   0  0  0  0  0  0  0  0  0  0  0  0
   26.6380  -33.4900  275.6570 C   0  0  0  0  0  0  0  0  0  0  0  0
   27.7630  -34.3190  275.4610 O   0  0  0  0  0  0  0  0  0  0  0  0
   28.1070  -31.3660  275.7250 C   0  0  0  0  0  0  0  0  0  0  0  0
   27.7550  -30.8010  274.4820 O   0  0  0  0  0  0  0  0  0  0  0  0
   25.0530  -32.2030  278.5480 O   0  0  0  0  0  0  0  0  0  0  0  0
   24.9870  -31.0290  279.3680 C   0  0  0  0  0  0  0  0  0  0  0  0
   23.6130  -30.8050  279.8890 C   0  0  0  0  0  0  0  0  0  0  0  0
   23.6350  -29.9090  281.0140 C   0  0  0  0  0  0  0  0  0  0  0  0
   24.4290  -30.5560  282.1150 C   0  0  0  0  0  0  0  0  0  0  0  0
   23.8650  -31.9030  282.5870 C   0  0  0  0  0  0  0  0  0  0  0  0
   23.9710  -33.9370  284.3850 O   0  0  0  0  0  0  0  0  0  0  0  0
   24.8090  -31.7020  285.1420 O   0  0  0  0  0  0  0  0  0  0  0  0
   26.2070  -33.0880  283.5690 O   0  0  0  0  0  0  0  0  0  0  0  0
   25.8230  -30.7090  281.7030 O   0  0  0  0  0  0  0  0  0  0  0  0
   26.0270  -31.3260  280.4380 C   0  0  0  0  0  0  0  0  0  0  0  0
   27.4390  -30.9000  280.0550 C   0  0  0  0  0  0  0  0  0  0  0  0
   27.6030  -29.5350  279.7900 O   0  0  0  0  0  0  0  0  0  0  0  0
   22.3200  -29.5940  281.5100 O   0  0  0  0  0  0  0  0  0  0  0  0
   22.8260  -30.1630  278.9130 O   0  0  0  0  0  0  0  0  0  0  0  0
   23.4680  -34.0070  277.4600 O   0  0  0  0  0  0  0  0  0  0  0  0
   25.0374  -36.0952  276.4488 H   0  0  0  0  0  0  0  0  0  0  0  0
   25.9948  -34.4226  277.4322 H   0  0  0  0  0  0  0  0  0  0  0  0
   23.9679  -33.2019  275.5961 H   0  0  0  0  0  0  0  0  0  0  0  0
   23.8703  -31.3092  277.0994 H   0  0  0  0  0  0  0  0  0  0  0  0
   27.3648  -32.5103  277.3356 H   0  0  0  0  0  0  0  0  0  0  0  0
   26.2556  -33.2455  274.6550 H   0  0  0  0  0  0  0  0  0  0  0  0
   28.1305  -34.5898  276.3395 H   0  0  0  0  0  0  0  0  0  0  0  0
   28.9800  -32.0187  275.5769 H   0  0  0  0  0  0  0  0  0  0  0  0
   28.3225  -30.5337  276.4112 H   0  0  0  0  0  0  0  0  0  0  0  0
   27.2375  -29.9704  274.6317 H   0  0  0  0  0  0  0  0  0  0  0  0
   25.1996  -30.0865  278.8421 H   0  0  0  0  0  0  0  0  0  0  0  0
   23.2088  -31.7898  280.1662 H   0  0  0  0  0  0  0  0  0  0  0  0
   24.0884  -28.9639  280.6805 H   0  0  0  0  0  0  0  0  0  0  0  0
   24.3577  -29.8801  282.9799 H   0  0  0  0  0  0  0  0  0  0  0  0
   22.8283  -31.7348  282.9140 H   0  0  0  0  0  0  0  0  0  0  0  0
   23.9692  -32.5794  281.7258 H   0  0  0  0  0  0  0  0  0  0  0  0
   23.9421  -33.9816  285.3736 H   0  0  0  0  0  0  0  0  0  0  0  0
   24.7834  -32.1889  286.0036 H   0  0  0  0  0  0  0  0  0  0  0  0
   25.9074  -32.4167  280.5162 H   0  0  0  0  0  0  0  0  0  0  0  0
   27.7289  -31.4582  279.1526 H   0  0  0  0  0  0  0  0  0  0  0  0
   28.0691  -31.1169  280.9302 H   0  0  0  0  0  0  0  0  0  0  0  0
   27.6627  -29.0379  280.6441 H   0  0  0  0  0  0  0  0  0  0  0  0
   22.3313  -29.5967  282.4999 H   0  0  0  0  0  0  0  0  0  0  0  0
   22.1405  -29.6038  279.3574 H   0  0  0  0  0  0  0  0  0  0  0  0
   23.7149  -33.8336  278.4029 H   0  0  0  0  0  0  0  0  0  0  0  0
 11 10  1  0
  9  8  1  0
  8  7  1  0
  8  3  1  0
 10  7  1  0
  2  3  1  0
  7  6  1  0
  3  4  1  0
  6  5  1  0
  4  5  1  0
  4 27  1  0
  5 12  1  0
 12 13  1  0
 26 14  1  0
 13 14  1  0
 13 22  1  0
 24 23  1  0
 14 15  1  0
 23 22  1  0
 22 21  1  0
 15 25  1  0
 15 16  1  0
 21 16  1  0
 16 17  1  0
 17  1  1  0
 20  1  2  0
  1 18  1  0
  1 19  1  0
  2 28  1  0
  3 29  1  0
  4 30  1  0
  5 31  1  0
  7 32  1  0
  8 33  1  0
  9 34  1  0
 10 35  1  0
 10 36  1  0
 11 37  1  0
 13 38  1  0
 14 39  1  0
 15 40  1  0
 16 41  1  0
 17 42  1  0
 17 43  1  0
 18 44  1  0
 19 45  1  0
 22 46  1  0
 23 47  1  0
 23 48  1  0
 24 49  1  0
 25 50  1  0
 26 51  1  0
 27 52  1  0
A    1
P
A    2
O3
A    3
C3
A    4
C2
A    5
C1
A    6
O5
A    7
C5
A    8
C4
A    9
O4
A   10
C6
A   11
O6
A   12
O4'
A   13
C4'
A   14
C3'
A   15
C2'
A   16
C1'
A   17
C
A   18
OP2
A   19
OP3
A   20
OP1
A   21
O5'
A   22
C5'
A   23
C6'
A   24
O6'
A   25
O2'
A   26
O3'
A   27
O2
M  END
