4U45_3DC_A_403
     RDKit          3D

 32 35  0  0  0  0  0  0  0  0999 V2000
  -21.3570    8.8040  -16.1800 C   0  0  0  0  0  0  0  0  0  0  0  0
  -22.2480    7.7620  -15.9890 C   0  0  0  0  0  0  0  0  0  0  0  0
  -22.5140    6.9180  -17.0620 C   0  0  0  0  0  0  0  0  0  0  0  0
  -26.2420    2.3540  -16.6190 C   0  0  0  0  0  0  0  0  0  0  0  0
  -24.3230    5.4610  -16.0290 C   0  0  0  0  0  0  0  0  0  0  0  0
  -25.0510    4.2440  -16.1960 C   0  0  0  0  0  0  0  0  0  0  0  0
  -25.1760    3.1890  -17.0880 C   0  0  0  0  0  0  0  0  0  0  0  0
  -26.7480    2.8740  -15.4430 C   0  0  0  0  0  0  0  0  0  0  0  0
  -20.7300    9.0410  -17.3350 N   0  0  0  0  0  0  0  0  0  0  0  0
  -21.8810    7.1570  -18.2760 C   0  0  0  0  0  0  0  0  0  0  0  0
  -21.0000    8.2190  -18.3540 C   0  0  0  0  0  0  0  0  0  0  0  0
  -23.3740    5.7980  -16.9580 N   0  0  0  0  0  0  0  0  0  0  0  0
  -26.0410    4.0280  -15.1730 N   0  0  0  0  0  0  0  0  0  0  0  0
  -26.2800    4.8860  -14.1200 N   0  0  0  0  0  0  0  0  0  0  0  0
  -25.5060    5.9740  -14.1390 C   0  0  0  0  0  0  0  0  0  0  0  0
  -24.5570    6.2960  -15.0200 N   0  0  0  0  0  0  0  0  0  0  0  0
  -26.7640    1.1740  -17.2520 C   0  0  0  0  0  0  0  0  0  0  0  0
  -27.8020    0.3710  -16.8070 C   0  0  0  0  0  0  0  0  0  0  0  0
  -27.9500   -0.6180  -17.6920 N   0  0  0  0  0  0  0  0  0  0  0  0
  -27.0620   -0.5310  -18.7040 N   0  0  0  0  0  0  0  0  0  0  0  0
  -26.3440    0.5550  -18.4440 C   0  0  0  0  0  0  0  0  0  0  0  0
  -21.1539    9.4749  -15.3323 H   0  0  0  0  0  0  0  0  0  0  0  0
  -22.7330    7.6056  -15.0141 H   0  0  0  0  0  0  0  0  0  0  0  0
  -24.5683    3.0237  -17.9899 H   0  0  0  0  0  0  0  0  0  0  0  0
  -27.5610    2.4484  -14.8365 H   0  0  0  0  0  0  0  0  0  0  0  0
  -22.0758    6.5187  -19.1504 H   0  0  0  0  0  0  0  0  0  0  0  0
  -20.4904    8.3986  -19.3121 H   0  0  0  0  0  0  0  0  0  0  0  0
  -23.2667    5.1121  -17.7189 H   0  0  0  0  0  0  0  0  0  0  0  0
  -25.6717    6.6959  -13.3257 H   0  0  0  0  0  0  0  0  0  0  0  0
  -28.3951    0.5207  -15.8928 H   0  0  0  0  0  0  0  0  0  0  0  0
  -28.6593   -1.3605  -17.6114 H   0  0  0  0  0  0  0  0  0  0  0  0
  -25.5253    0.9239  -19.0793 H   0  0  0  0  0  0  0  0  0  0  0  0
 20 21  2  0
 20 19  1  0
 21 17  1  0
 11 10  2  0
 11  9  1  0
 10  3  1  0
 19 18  1  0
  9  1  2  0
 17 18  2  0
 17  4  1  0
  7  4  1  0
  7  6  2  0
  3 12  1  0
  3  2  2  0
 12  5  1  0
  4  8  2  0
  6  5  1  0
  6 13  1  0
  1  2  1  0
  5 16  2  0
  8 13  1  0
 13 14  1  0
 16 15  1  0
 15 14  2  0
  1 22  1  0
  2 23  1  0
  7 24  1  0
  8 25  1  0
 10 26  1  0
 11 27  1  0
 12 28  1  0
 15 29  1  0
 18 30  1  0
 19 31  1  0
 21 32  1  0
A    1
C4
A    2
C5
A    3
C6
A    4
C11
A    5
C8
A    6
C9
A    7
C10
A    8
C12
A    9
N3
A   10
C1
A   11
C2
A   12
N7
A   13
N13
A   14
N14
A   15
C15
A   16
N16
A   17
C17
A   18
C18
A   19
N19
A   20
N21
A   21
C22
M  END
