4NQ5_3C7_A_303
     RDKit          3D

 24 25  0  0  0  0  0  0  0  0999 V2000
   12.5070   10.2790   25.4290 C   0  0  0  0  0  0  0  0  0  0  0  0
   11.1260    9.1870   28.5560 O   0  0  0  0  0  0  0  0  0  0  0  0
   11.9330    9.0860   27.6060 C   0  0  0  0  0  0  0  0  0  0  0  0
   13.1140    8.6910   27.6980 O   0  0  0  0  0  0  0  0  0  0  0  0
   11.4280    9.4670   26.1940 C   0  0  0  0  0  0  0  0  0  0  0  0
   10.1440   10.2380   26.2560 N   0  0  0  0  0  0  0  0  0  0  0  0
    9.3320   10.1660   25.0020 C   0  0  0  0  0  0  0  0  0  0  0  0
    8.0120    9.4350   25.1800 C   0  0  0  0  0  0  0  0  0  0  0  0
    8.6150    7.7230   25.0770 S   0  0  0  0  0  0  0  0  0  0  0  0
   12.0500   11.9590   25.7990 S   0  0  0  0  0  0  0  0  0  0  0  0
   10.4880   11.6610   26.5990 C   0  0  0  0  0  0  0  0  0  0  0  0
    9.2090   12.5160   26.2360 C   0  0  0  0  0  0  0  0  0  0  0  0
    8.8320   11.8340   24.6360 S   0  0  0  0  0  0  0  0  0  0  0  0
   13.5165   10.0496   25.8009 H   0  0  0  0  0  0  0  0  0  0  0  0
   12.5425   10.0591   24.3518 H   0  0  0  0  0  0  0  0  0  0  0  0
   11.4528    9.1461   29.4896 H   0  0  0  0  0  0  0  0  0  0  0  0
   11.2329    8.5316   25.6490 H   0  0  0  0  0  0  0  0  0  0  0  0
    9.9452    9.6563   24.2443 H   0  0  0  0  0  0  0  0  0  0  0  0
    7.2993    9.6699   24.3757 H   0  0  0  0  0  0  0  0  0  0  0  0
    7.4537    9.6846   26.0944 H   0  0  0  0  0  0  0  0  0  0  0  0
    8.7908    7.2239   26.3407 H   0  0  0  0  0  0  0  0  0  0  0  0
   10.6734   11.9362   27.6477 H   0  0  0  0  0  0  0  0  0  0  0  0
    8.3910   12.3530   26.9531 H   0  0  0  0  0  0  0  0  0  0  0  0
    9.3577   13.6058   26.2537 H   0  0  0  0  0  0  0  0  0  0  0  0
  4  3  2  0
  3  5  1  0
  3  2  1  0
  9  8  1  0
  5  1  1  0
  5  6  1  0
  1 10  1  0
  6  7  1  0
  6 11  1  0
  8  7  1  0
  7 13  1  0
 10 11  1  0
 11 12  1  0
 13 12  1  0
  1 14  1  0
  1 15  1  0
  2 16  1  0
  5 17  1  0
  7 18  1  0
  8 19  1  0
  8 20  1  0
  9 21  1  0
 11 22  1  0
 12 23  1  0
 12 24  1  0
A    1
C12
A    2
O11
A    3
C09
A    4
O10
A    5
C08
A    6
N07
A    7
C03
A    8
C02
A    9
S01
A   10
S13
A   11
C06
A   12
C05
A   13
S04
M  END
