4U54_3C5_A_501
     RDKit          3D

 29 30  0  0  0  0  0  0  0  0999 V2000
   -0.1950  124.2660  -12.0830 C   0  0  0  0  0  0  0  0  0  0  0  0
   -4.3290  129.9320  -13.8540 C   0  0  0  0  0  0  0  0  0  0  0  0
   -3.6530  129.2190  -12.7730 N   0  0  0  0  0  0  0  0  0  0  0  0
   -2.3880  128.6600  -13.2370 C   0  0  0  0  0  0  0  0  0  0  0  0
   -1.7210  127.7630  -12.1890 C   0  0  0  0  0  0  0  0  0  0  0  0
   -1.2750  126.4970  -12.5660 C   0  0  0  0  0  0  0  0  0  0  0  0
   -0.6560  125.6610  -11.6460 C   0  0  0  0  0  0  0  0  0  0  0  0
   -0.4810  126.0960  -10.3340 C   0  0  0  0  0  0  0  0  0  0  0  0
   -0.9230  127.3610   -9.9510 C   0  0  0  0  0  0  0  0  0  0  0  0
   -1.5420  128.2010  -10.8750 C   0  0  0  0  0  0  0  0  0  0  0  0
    0.9890  123.7020  -11.6120 C   0  0  0  0  0  0  0  0  0  0  0  0
    1.3690  122.4870  -11.9940 N   0  0  0  0  0  0  0  0  0  0  0  0
    0.6420  121.7680  -12.8320 C   0  0  0  0  0  0  0  0  0  0  0  0
   -0.5530  122.2560  -13.3410 C   0  0  0  0  0  0  0  0  0  0  0  0
   -0.9860  123.5260  -12.9630 C   0  0  0  0  0  0  0  0  0  0  0  0
   -5.0267  130.6679  -13.4278 H   0  0  0  0  0  0  0  0  0  0  0  0
   -3.5829  130.4504  -14.4741 H   0  0  0  0  0  0  0  0  0  0  0  0
   -4.8864  129.2146  -14.4741 H   0  0  0  0  0  0  0  0  0  0  0  0
   -3.4700  129.8733  -11.9988 H   0  0  0  0  0  0  0  0  0  0  0  0
   -2.5770  128.0640  -14.1420 H   0  0  0  0  0  0  0  0  0  0  0  0
   -1.7068  129.4996  -13.4393 H   0  0  0  0  0  0  0  0  0  0  0  0
   -1.4149  126.1569  -13.6027 H   0  0  0  0  0  0  0  0  0  0  0  0
    0.0072  125.4394   -9.5987 H   0  0  0  0  0  0  0  0  0  0  0  0
   -0.7825  127.6984   -8.9135 H   0  0  0  0  0  0  0  0  0  0  0  0
   -1.8867  129.2006  -10.5718 H   0  0  0  0  0  0  0  0  0  0  0  0
    1.6192  124.2714  -10.9129 H   0  0  0  0  0  0  0  0  0  0  0  0
    0.9897  120.7679  -13.1302 H   0  0  0  0  0  0  0  0  0  0  0  0
   -1.1518  121.6477  -14.0348 H   0  0  0  0  0  0  0  0  0  0  0  0
   -1.9306  123.9360  -13.3499 H   0  0  0  0  0  0  0  0  0  0  0  0
  2  3  1  0
 14 15  2  0
 14 13  1  0
  4  3  1  0
  4  5  1  0
 15  1  1  0
 13 12  2  0
  6  5  2  0
  6  7  1  0
  5 10  1  0
  1  7  1  0
  1 11  2  0
 12 11  1  0
  7  8  2  0
 10  9  2  0
  8  9  1  0
  2 16  1  0
  2 17  1  0
  2 18  1  0
  3 19  1  0
  4 20  1  0
  4 21  1  0
  6 22  1  0
  8 23  1  0
  9 24  1  0
 10 25  1  0
 11 26  1  0
 13 27  1  0
 14 28  1  0
 15 29  1  0
A    1
C10
A    2
C01
A    3
N02
A    4
C03
A    5
C04
A    6
C09
A    7
C08
A    8
C07
A    9
C06
A   10
C05
A   11
C15
A   12
N14
A   13
C13
A   14
C12
A   15
C11
M  END
