4U58_3C6_A_501
     RDKit          3D

 46 47  0  0  0  0  0  0  0  0999 V2000
    0.6220   31.2290   13.2400 C   0  0  0  0  0  0  0  0  0  0  0  0
    0.0690   29.9960   13.5680 C   0  0  0  0  0  0  0  0  0  0  0  0
   -1.1920   29.7070   13.0620 C   0  0  0  0  0  0  0  0  0  0  0  0
   -1.8480   30.5630   12.2970 N   0  0  0  0  0  0  0  0  0  0  0  0
   -1.3390   31.7330   11.9720 C   0  0  0  0  0  0  0  0  0  0  0  0
   -0.0930   32.1120   12.4410 C   0  0  0  0  0  0  0  0  0  0  0  0
    0.5060   33.4630   12.0730 C   0  0  0  0  0  0  0  0  0  0  0  0
    0.1640   34.0870   10.8760 C   0  0  0  0  0  0  0  0  0  0  0  0
    0.7270   35.3150   10.5510 C   0  0  0  0  0  0  0  0  0  0  0  0
    1.4020   34.0650   12.9420 C   0  0  0  0  0  0  0  0  0  0  0  0
    1.9600   35.2950   12.6150 C   0  0  0  0  0  0  0  0  0  0  0  0
    1.6190   35.9220   11.4310 C   0  0  0  0  0  0  0  0  0  0  0  0
    2.2680   37.2610   11.0900 C   0  0  0  0  0  0  0  0  0  0  0  0
    2.2420   37.6740    9.9810 O   0  0  0  0  0  0  0  0  0  0  0  0
    2.9470   38.0080   12.1250 N   0  0  0  0  0  0  0  0  0  0  0  0
    3.5780   39.2640   11.7970 C   0  0  0  0  0  0  0  0  0  0  0  0
    5.0840   39.0350   11.6480 C   0  0  0  0  0  0  0  0  0  0  0  0
    5.7320   39.7850   10.9950 O   0  0  0  0  0  0  0  0  0  0  0  0
    5.7260   37.8970   12.2850 N   0  0  0  0  0  0  0  0  0  0  0  0
    3.3110   40.2580   12.9150 C   0  0  0  0  0  0  0  0  0  0  0  0
    1.8180   40.5600   13.0470 C   0  0  0  0  0  0  0  0  0  0  0  0
    1.2740   41.4360   11.9210 C   0  0  0  0  0  0  0  0  0  0  0  0
    0.8290   42.8130   12.4190 C   0  0  0  0  0  0  0  0  0  0  0  0
    0.8820   43.7760   11.3270 N   0  0  0  0  0  0  0  0  0  0  0  0
    1.6204   31.5036   13.6113 H   0  0  0  0  0  0  0  0  0  0  0  0
    0.6087   29.2780   14.2030 H   0  0  0  0  0  0  0  0  0  0  0  0
   -1.6573   28.7401   13.3042 H   0  0  0  0  0  0  0  0  0  0  0  0
   -1.9083   32.4145   11.3228 H   0  0  0  0  0  0  0  0  0  0  0  0
   -0.5501   33.6089   10.1894 H   0  0  0  0  0  0  0  0  0  0  0  0
    0.4687   35.8062    9.6012 H   0  0  0  0  0  0  0  0  0  0  0  0
    1.6706   33.5709   13.8874 H   0  0  0  0  0  0  0  0  0  0  0  0
    2.6758   35.7716   13.3009 H   0  0  0  0  0  0  0  0  0  0  0  0
    2.9802   37.6467   13.0890 H   0  0  0  0  0  0  0  0  0  0  0  0
    3.1740   39.6622   10.8545 H   0  0  0  0  0  0  0  0  0  0  0  0
    5.7614   37.8343   13.3125 H   0  0  0  0  0  0  0  0  0  0  0  0
    6.1455   37.1534   11.7089 H   0  0  0  0  0  0  0  0  0  0  0  0
    3.6763   39.8369   13.8633 H   0  0  0  0  0  0  0  0  0  0  0  0
    3.8346   41.1958   12.6774 H   0  0  0  0  0  0  0  0  0  0  0  0
    1.6502   41.0773   14.0032 H   0  0  0  0  0  0  0  0  0  0  0  0
    1.2866   39.5982   12.9954 H   0  0  0  0  0  0  0  0  0  0  0  0
    0.4111   40.9293   11.4642 H   0  0  0  0  0  0  0  0  0  0  0  0
    2.0835   41.5876   11.1918 H   0  0  0  0  0  0  0  0  0  0  0  0
    1.4977   43.1419   13.2281 H   0  0  0  0  0  0  0  0  0  0  0  0
   -0.2031   42.7466   12.7936 H   0  0  0  0  0  0  0  0  0  0  0  0
    0.9345   44.7297   11.7125 H   0  0  0  0  0  0  0  0  0  0  0  0
    1.7142   43.5933   10.7482 H   0  0  0  0  0  0  0  0  0  0  0  0
 14 13  2  0
  9  8  2  0
  9 12  1  0
  8  7  1  0
 18 17  2  0
 13 12  1  0
 13 15  1  0
 24 23  1  0
 12 11  2  0
 17 16  1  0
 17 19  1  0
 16 15  1  0
 16 20  1  0
 22 23  1  0
 22 21  1  0
  5  4  2  0
  5  6  1  0
  7  6  1  0
  7 10  2  0
  4  3  1  0
  6  1  2  0
 11 10  1  0
 20 21  1  0
  3  2  2  0
  1  2  1  0
  1 25  1  0
  2 26  1  0
  3 27  1  0
  5 28  1  0
  8 29  1  0
  9 30  1  0
 10 31  1  0
 11 32  1  0
 15 33  1  0
 16 34  1  0
 19 35  1  0
 19 36  1  0
 20 37  1  0
 20 38  1  0
 21 39  1  0
 21 40  1  0
 22 41  1  0
 22 42  1  0
 23 43  1  0
 23 44  1  0
 24 45  1  0
 24 46  1  0
A    1
CAA
A    2
CAB
A    3
CAC
A    4
NAD
A    5
CAE
A    6
CAF
A    7
CAG
A    8
CAH
A    9
CAI
A   10
CAL
A   11
CAK
A   12
CAJ
A   13
CAM
A   14
OAX
A   15
N
A   16
CA
A   17
C
A   18
O
A   19
NAW
A   20
CB
A   21
CG
A   22
CD
A   23
CE
A   24
NZ
M  END
