4U5J_RXT_A_601
     RDKit          3D

 41 44  0  0  0  0  0  0  0  0999 V2000
   -9.9220   26.9370    7.9160 C   0  0  0  0  0  0  0  0  0  0  0  0
  -10.2330   28.5000    7.8030 C   0  0  0  0  0  0  0  0  0  0  0  0
  -11.2460   28.6150    6.9090 C   0  0  0  0  0  0  0  0  0  0  0  0
  -11.9880   27.1340    6.7970 C   0  0  0  0  0  0  0  0  0  0  0  0
  -11.0620   26.1780    7.1160 C   0  0  0  0  0  0  0  0  0  0  0  0
  -10.4760   25.4700    5.8710 C   0  0  0  0  0  0  0  0  0  0  0  0
  -11.5650   24.6940    5.1580 C   0  0  0  0  0  0  0  0  0  0  0  0
  -11.4280   23.2100    5.4960 C   0  0  0  0  0  0  0  0  0  0  0  0
  -12.5950   22.7910    6.1840 N   0  0  0  0  0  0  0  0  0  0  0  0
   -9.8050   26.3380    4.9580 N   0  0  0  0  0  0  0  0  0  0  0  0
   -8.4850   26.5440    4.9920 C   0  0  0  0  0  0  0  0  0  0  0  0
  -10.3460   27.0060    3.9620 N   0  0  0  0  0  0  0  0  0  0  0  0
   -9.4100   27.7040    3.3000 C   0  0  0  0  0  0  0  0  0  0  0  0
   -8.1570   27.4300    3.9270 C   0  0  0  0  0  0  0  0  0  0  0  0
   -6.7910   27.9610    3.6250 C   0  0  0  0  0  0  0  0  0  0  0  0
   -6.6240   29.0140    2.8050 N   0  0  0  0  0  0  0  0  0  0  0  0
   -5.4140   29.5000    2.5700 C   0  0  0  0  0  0  0  0  0  0  0  0
   -4.3250   28.9760    3.1280 N   0  0  0  0  0  0  0  0  0  0  0  0
   -4.4000   27.8950    3.9890 C   0  0  0  0  0  0  0  0  0  0  0  0
   -5.6420   27.3540    4.2710 C   0  0  0  0  0  0  0  0  0  0  0  0
   -5.4050   26.2520    5.1970 C   0  0  0  0  0  0  0  0  0  0  0  0
   -4.0180   26.2290    5.3960 C   0  0  0  0  0  0  0  0  0  0  0  0
   -3.4550   27.1960    4.6820 N   0  0  0  0  0  0  0  0  0  0  0  0
   -9.9296   26.6257    8.9710 H   0  0  0  0  0  0  0  0  0  0  0  0
   -8.9300   26.7033    7.5021 H   0  0  0  0  0  0  0  0  0  0  0  0
   -9.3447   29.0418    7.4461 H   0  0  0  0  0  0  0  0  0  0  0  0
  -10.5057   28.9285    8.7787 H   0  0  0  0  0  0  0  0  0  0  0  0
  -10.8478   28.9101    5.9270 H   0  0  0  0  0  0  0  0  0  0  0  0
  -11.9633   29.3826    7.2350 H   0  0  0  0  0  0  0  0  0  0  0  0
  -12.8337   27.0849    7.4987 H   0  0  0  0  0  0  0  0  0  0  0  0
  -12.3727   26.9725    5.7792 H   0  0  0  0  0  0  0  0  0  0  0  0
  -11.5298   25.3781    7.7088 H   0  0  0  0  0  0  0  0  0  0  0  0
   -9.7014   24.7863    6.2485 H   0  0  0  0  0  0  0  0  0  0  0  0
  -11.4658   24.8346    4.0715 H   0  0  0  0  0  0  0  0  0  0  0  0
  -12.5510   25.0575    5.4829 H   0  0  0  0  0  0  0  0  0  0  0  0
   -7.7787   26.1073    5.7134 H   0  0  0  0  0  0  0  0  0  0  0  0
   -9.5771   28.3638    2.4359 H   0  0  0  0  0  0  0  0  0  0  0  0
   -5.3063   30.3613    1.8943 H   0  0  0  0  0  0  0  0  0  0  0  0
   -6.1547   25.5823    5.6436 H   0  0  0  0  0  0  0  0  0  0  0  0
   -3.4800   25.5204    6.0428 H   0  0  0  0  0  0  0  0  0  0  0  0
   -2.4441   27.3917    4.6548 H   0  0  0  0  0  0  0  0  0  0  0  0
 17 16  2  0
 17 18  1  0
 16 15  1  0
 18 19  2  0
 13 14  1  0
 13 12  2  0
 15 14  1  0
 15 20  2  0
 14 11  2  0
 12 10  1  0
 19 20  1  0
 19 23  1  0
 20 21  1  0
 23 22  1  0
 10 11  1  0
 10  6  1  0
  7  8  1  0
  7  6  1  0
 21 22  2  0
  8  9  3  0
  6  5  1  0
  4  3  1  0
  4  5  1  0
  3  2  1  0
  5  1  1  0
  2  1  1  0
  1 24  1  0
  1 25  1  0
  2 26  1  0
  2 27  1  0
  3 28  1  0
  3 29  1  0
  4 30  1  0
  4 31  1  0
  5 32  1  0
  6 33  1  0
  7 34  1  0
  7 35  1  0
 11 36  1  0
 13 37  1  0
 17 38  1  0
 21 39  1  0
 22 40  1  0
 23 41  1  0
A    1
CAK
A    2
CAH
A    3
CAI
A    4
CAL
A    5
CAU
A    6
CAV
A    7
CAJ
A    8
CAB
A    9
NAA
A   10
NAW
A   11
CAG
A   12
NAO
A   13
CAF
A   14
CAQ
A   15
CAR
A   16
NAM
A   17
CAE
A   18
NAP
A   19
CAT
A   20
CAS
A   21
CAD
A   22
CAC
A   23
NAN
M  END
