4U5L_3D6_A_501
     RDKit          3D

 47 48  0  0  0  0  0  0  0  0999 V2000
    2.2370   37.7880   11.4050 C   0  0  0  0  0  0  0  0  0  0  0  0
    1.3280   34.4980   13.1450 C   0  0  0  0  0  0  0  0  0  0  0  0
   -0.0130   32.4690   12.3490 C   0  0  0  0  0  0  0  0  0  0  0  0
    0.1580   30.2220   13.1320 C   0  0  0  0  0  0  0  0  0  0  0  0
   -1.2770   32.1810   11.8380 C   0  0  0  0  0  0  0  0  0  0  0  0
    0.3770   34.4880   10.9270 C   0  0  0  0  0  0  0  0  0  0  0  0
    0.9110   35.7430   10.7120 C   0  0  0  0  0  0  0  0  0  0  0  0
    3.2580   40.3310    7.9050 N   0  0  0  0  0  0  0  0  0  0  0  0
    3.4260   39.7190    9.2210 C   0  0  0  0  0  0  0  0  0  0  0  0
    3.5650   38.1820    9.3440 C   0  0  0  0  0  0  0  0  0  0  0  0
    2.5030   37.4750    8.4770 C   0  0  0  0  0  0  0  0  0  0  0  0
    2.9900   36.8480    7.1600 C   0  0  0  0  0  0  0  0  0  0  0  0
    1.9700   37.0190    6.0210 C   0  0  0  0  0  0  0  0  0  0  0  0
    1.9430   38.4500    5.4430 C   0  0  0  0  0  0  0  0  0  0  0  0
    0.9850   38.6300    4.3500 N   0  0  0  0  0  0  0  0  0  0  0  0
    3.5440   37.7100   10.7440 N   0  0  0  0  0  0  0  0  0  0  0  0
    1.6570   36.3910   11.6980 C   0  0  0  0  0  0  0  0  0  0  0  0
    1.8630   35.7660   12.9270 C   0  0  0  0  0  0  0  0  0  0  0  0
    0.5810   33.8650   12.1520 C   0  0  0  0  0  0  0  0  0  0  0  0
    0.7360   31.4830   12.9960 C   0  0  0  0  0  0  0  0  0  0  0  0
   -1.1150   30.0000   12.6120 C   0  0  0  0  0  0  0  0  0  0  0  0
   -1.7790   30.9690   11.9940 N   0  0  0  0  0  0  0  0  0  0  0  0
    3.4570   40.4270   10.1810 O   0  0  0  0  0  0  0  0  0  0  0  0
    2.3505   38.3322   12.3542 H   0  0  0  0  0  0  0  0  0  0  0  0
    1.5438   38.3100   10.7290 H   0  0  0  0  0  0  0  0  0  0  0  0
    1.4961   33.9926   14.1074 H   0  0  0  0  0  0  0  0  0  0  0  0
    0.7000   29.4128   13.6433 H   0  0  0  0  0  0  0  0  0  0  0  0
   -1.8517   32.9559   11.3095 H   0  0  0  0  0  0  0  0  0  0  0  0
   -0.2031   33.9873   10.1378 H   0  0  0  0  0  0  0  0  0  0  0  0
    0.7455   36.2416    9.7456 H   0  0  0  0  0  0  0  0  0  0  0  0
    2.9861   41.3215    7.8286 H   0  0  0  0  0  0  0  0  0  0  0  0
    3.4115   39.7719    7.0537 H   0  0  0  0  0  0  0  0  0  0  0  0
    4.5598   37.9121    8.9599 H   0  0  0  0  0  0  0  0  0  0  0  0
    1.7299   38.2165    8.2269 H   0  0  0  0  0  0  0  0  0  0  0  0
    2.1502   36.6294    9.0857 H   0  0  0  0  0  0  0  0  0  0  0  0
    3.1629   35.7738    7.3220 H   0  0  0  0  0  0  0  0  0  0  0  0
    3.9157   37.3630    6.8636 H   0  0  0  0  0  0  0  0  0  0  0  0
    0.9689   36.7789    6.4084 H   0  0  0  0  0  0  0  0  0  0  0  0
    2.2698   36.3420    5.2075 H   0  0  0  0  0  0  0  0  0  0  0  0
    2.9480   38.6903    5.0659 H   0  0  0  0  0  0  0  0  0  0  0  0
    1.6271   39.1179    6.2580 H   0  0  0  0  0  0  0  0  0  0  0  0
    0.0481   38.8060    4.7401 H   0  0  0  0  0  0  0  0  0  0  0  0
    1.2719   39.4318    3.7706 H   0  0  0  0  0  0  0  0  0  0  0  0
    3.8489   36.7262   10.7541 H   0  0  0  0  0  0  0  0  0  0  0  0
    2.4417   36.2684   13.7161 H   0  0  0  0  0  0  0  0  0  0  0  0
    1.7437   31.6939   13.3834 H   0  0  0  0  0  0  0  0  0  0  0  0
   -1.5768   29.0070   12.7150 H   0  0  0  0  0  0  0  0  0  0  0  0
 15 14  1  0
 14 13  1  0
 13 12  1  0
 12 11  1  0
  8  9  1  0
 11 10  1  0
  9 10  1  0
  9 23  2  0
 10 16  1  0
  7  6  2  0
  7 17  1  0
 16  1  1  0
  6 19  1  0
  1 17  1  0
 17 18  2  0
  5 22  2  0
  5  3  1  0
 22 21  1  0
 19  3  1  0
 19  2  2  0
  3 20  2  0
 21  4  2  0
 18  2  1  0
 20  4  1  0
  1 24  1  0
  1 25  1  0
  2 26  1  0
  4 27  1  0
  5 28  1  0
  6 29  1  0
  7 30  1  0
  8 31  1  0
  8 32  1  0
 10 33  1  0
 11 34  1  0
 11 35  1  0
 12 36  1  0
 12 37  1  0
 13 38  1  0
 13 39  1  0
 14 40  1  0
 14 41  1  0
 15 42  1  0
 15 43  1  0
 16 44  1  0
 18 45  1  0
 20 46  1  0
 21 47  1  0
A    1
C10
A    2
C13
A    3
C15
A    4
C17
A    5
C20
A    6
C21
A    7
C22
A    8
N01
A    9
C02
A   10
C03
A   11
C04
A   12
C05
A   13
C06
A   14
C07
A   15
N08
A   16
N09
A   17
C11
A   18
C12
A   19
C14
A   20
C16
A   21
C18
A   22
N19
A   23
O23
M  END
