4U5V_RH2_A_501
     RDKit          3D

 44 45  0  0  0  0  0  0  0  0999 V2000
    4.3780   39.0960   11.3880 N   0  0  0  0  0  0  0  0  0  0  0  0
    4.5850   38.3490   10.2960 C   0  0  0  0  0  0  0  0  0  0  0  0
    3.5180   37.2670    9.9080 C   0  0  0  0  0  0  0  0  0  0  0  0
    3.5490   36.8600    8.3610 C   0  0  0  0  0  0  0  0  0  0  0  0
    2.3540   37.5020    7.6290 C   0  0  0  0  0  0  0  0  0  0  0  0
    2.3980   37.4620    6.0720 C   0  0  0  0  0  0  0  0  0  0  0  0
    1.3740   38.5930    5.7250 C   0  0  0  0  0  0  0  0  0  0  0  0
    0.8560   38.6320    4.3160 N   0  0  0  0  0  0  0  0  0  0  0  0
    2.1920   37.7220   10.4450 N   0  0  0  0  0  0  0  0  0  0  0  0
    1.8560   37.0710   11.7170 C   0  0  0  0  0  0  0  0  0  0  0  0
    1.2230   35.7480   11.3450 C   0  0  0  0  0  0  0  0  0  0  0  0
    0.5270   35.3980   10.0810 C   0  0  0  0  0  0  0  0  0  0  0  0
   -0.3240   34.1850   10.3120 C   0  0  0  0  0  0  0  0  0  0  0  0
    0.1760   33.4940   11.5360 C   0  0  0  0  0  0  0  0  0  0  0  0
   -0.3150   32.2950   12.0090 C   0  0  0  0  0  0  0  0  0  0  0  0
    0.4420   31.6070   12.9570 C   0  0  0  0  0  0  0  0  0  0  0  0
   -0.0120   30.4050   13.4780 C   0  0  0  0  0  0  0  0  0  0  0  0
   -1.2470   29.9060   13.0600 C   0  0  0  0  0  0  0  0  0  0  0  0
   -2.0300   30.6130   12.1090 N   0  0  0  0  0  0  0  0  0  0  0  0
   -1.5560   31.8250   11.5630 C   0  0  0  0  0  0  0  0  0  0  0  0
    1.2970   34.4250   12.2890 S   0  0  0  0  0  0  0  0  0  0  0  0
    5.6050   38.4730    9.6360 O   0  0  0  0  0  0  0  0  0  0  0  0
    4.4926   38.6823   12.3243 H   0  0  0  0  0  0  0  0  0  0  0  0
    4.1042   40.0842   11.2916 H   0  0  0  0  0  0  0  0  0  0  0  0
    3.7576   36.3029   10.3803 H   0  0  0  0  0  0  0  0  0  0  0  0
    3.4880   35.7655    8.2699 H   0  0  0  0  0  0  0  0  0  0  0  0
    4.4864   37.2174    7.9098 H   0  0  0  0  0  0  0  0  0  0  0  0
    2.2999   38.5569    7.9361 H   0  0  0  0  0  0  0  0  0  0  0  0
    1.4775   36.9015    7.9139 H   0  0  0  0  0  0  0  0  0  0  0  0
    2.0722   36.4864    5.6820 H   0  0  0  0  0  0  0  0  0  0  0  0
    3.3994   37.6036    5.6393 H   0  0  0  0  0  0  0  0  0  0  0  0
    1.8634   39.5574    5.9259 H   0  0  0  0  0  0  0  0  0  0  0  0
    0.4926   38.3829    6.3487 H   0  0  0  0  0  0  0  0  0  0  0  0
   -0.1710   38.7093    4.3298 H   0  0  0  0  0  0  0  0  0  0  0  0
    1.2550   39.4453    3.8259 H   0  0  0  0  0  0  0  0  0  0  0  0
    2.2258   38.7408   10.5926 H   0  0  0  0  0  0  0  0  0  0  0  0
    2.7642   36.9068   12.3155 H   0  0  0  0  0  0  0  0  0  0  0  0
    1.1776   37.6896   12.3230 H   0  0  0  0  0  0  0  0  0  0  0  0
    0.6205   35.9408    9.1288 H   0  0  0  0  0  0  0  0  0  0  0  0
   -1.1697   33.8611    9.6876 H   0  0  0  0  0  0  0  0  0  0  0  0
    1.4044   32.0202   13.2932 H   0  0  0  0  0  0  0  0  0  0  0  0
    0.5931   29.8517   14.2113 H   0  0  0  0  0  0  0  0  0  0  0  0
   -1.6175   28.9555   13.4714 H   0  0  0  0  0  0  0  0  0  0  0  0
   -2.1403   32.3801   10.8144 H   0  0  0  0  0  0  0  0  0  0  0  0
  8  7  1  0
  7  6  1  0
  6  5  1  0
  5  4  1  0
  4  3  1  0
 22  2  2  0
  3  2  1  0
  3  9  1  0
 12 13  1  0
 12 11  2  0
  2  1  1  0
 13 14  2  0
  9 10  1  0
 11 10  1  0
 11 21  1  0
 14 15  1  0
 14 21  1  0
 20 15  1  0
 20 19  2  0
 15 16  2  0
 19 18  1  0
 16 17  1  0
 18 17  2  0
  1 23  1  0
  1 24  1  0
  3 25  1  0
  4 26  1  0
  4 27  1  0
  5 28  1  0
  5 29  1  0
  6 30  1  0
  6 31  1  0
  7 32  1  0
  7 33  1  0
  8 34  1  0
  8 35  1  0
  9 36  1  0
 10 37  1  0
 10 38  1  0
 12 39  1  0
 13 40  1  0
 16 41  1  0
 17 42  1  0
 18 43  1  0
 20 44  1  0
A    1
N01
A    2
C02
A    3
C03
A    4
C04
A    5
C05
A    6
C06
A    7
C07
A    8
N08
A    9
N09
A   10
C10
A   11
C11
A   12
C12
A   13
C13
A   14
C14
A   15
C15
A   16
C16
A   17
C17
A   18
C18
A   19
N19
A   20
C20
A   21
S21
A   22
O22
M  END
