4U6R_3E4_A_1001
     RDKit          3D

 74 79  0  0  0  0  0  0  0  0999 V2000
   -5.8090  -25.0130   -1.3470 C   0  0  0  0  0  0  0  0  0  0  0  0
   -6.0270  -26.3520   -1.9840 C   0  0  0  0  0  0  0  0  0  0  0  0
   -5.8250  -26.2620   -3.4490 C   0  0  0  0  0  0  0  0  0  0  0  0
   -5.8460  -27.5850   -3.9960 N   0  0  0  0  0  0  0  0  0  0  0  0
   -4.4990  -25.6340   -3.7900 C   0  0  0  0  0  0  0  0  0  0  0  0
   -4.2310  -24.3560   -3.0500 C   0  0  0  0  0  0  0  0  0  0  0  0
   -4.4170  -24.5260   -1.5680 C   0  0  0  0  0  0  0  0  0  0  0  0
   -4.2350  -23.2890   -0.8490 N   0  0  0  0  0  0  0  0  0  0  0  0
   -3.0750  -22.7990   -0.5950 C   0  0  0  0  0  0  0  0  0  0  0  0
   -2.0490  -23.5780   -0.5640 N   0  0  0  0  0  0  0  0  0  0  0  0
   -2.9510  -21.5190   -0.3670 N   0  0  0  0  0  0  0  0  0  0  0  0
   -1.8020  -20.9870   -0.1180 C   0  0  0  0  0  0  0  0  0  0  0  0
   -0.7070  -21.7950   -0.0750 C   0  0  0  0  0  0  0  0  0  0  0  0
   -0.8610  -23.1290   -0.3210 C   0  0  0  0  0  0  0  0  0  0  0  0
    0.1590  -24.0500   -0.2680 C   0  0  0  0  0  0  0  0  0  0  0  0
   -0.2250  -25.3510   -0.1510 C   0  0  0  0  0  0  0  0  0  0  0  0
    0.7090  -26.3290   -0.0710 C   0  0  0  0  0  0  0  0  0  0  0  0
    2.0040  -25.9490   -0.0900 C   0  0  0  0  0  0  0  0  0  0  0  0
    2.3530  -24.7040   -0.1800 N   0  0  0  0  0  0  0  0  0  0  0  0
    1.4900  -23.7330   -0.2620 C   0  0  0  0  0  0  0  0  0  0  0  0
    1.8780  -22.4560   -0.3680 O   0  0  0  0  0  0  0  0  0  0  0  0
    3.0820  -22.0140   -0.0530 C   0  0  0  0  0  0  0  0  0  0  0  0
    4.0670  -21.8960   -0.9860 C   0  0  0  0  0  0  0  0  0  0  0  0
    3.8770  -22.3310   -2.4000 C   0  0  0  0  0  0  0  0  0  0  0  0
    5.2910  -21.4320   -0.6350 C   0  0  0  0  0  0  0  0  0  0  0  0
    3.3200  -21.5910    1.2020 C   0  0  0  0  0  0  0  0  0  0  0  0
    2.3310  -21.6780    2.1300 C   0  0  0  0  0  0  0  0  0  0  0  0
    2.5390  -21.2870    3.4220 C   0  0  0  0  0  0  0  0  0  0  0  0
    3.7520  -20.7830    3.7820 C   0  0  0  0  0  0  0  0  0  0  0  0
    4.7520  -20.6930    2.8490 C   0  0  0  0  0  0  0  0  0  0  0  0
    4.5380  -21.1020    1.5620 C   0  0  0  0  0  0  0  0  0  0  0  0
    5.5370  -21.0210    0.6330 C   0  0  0  0  0  0  0  0  0  0  0  0
    6.7070  -20.5460    0.9210 N   0  0  0  0  0  0  0  0  0  0  0  0
    7.1740  -19.1170    0.3540 S   0  0  0  0  0  0  0  0  0  0  0  0
    6.3990  -18.6530   -0.7860 O   0  0  0  0  0  0  0  0  0  0  0  0
    8.5580  -19.2170    0.0800 O   0  0  0  0  0  0  0  0  0  0  0  0
    6.9240  -17.8440    1.3730 C   0  0  0  0  0  0  0  0  0  0  0  0
    5.9650  -16.9700    0.9380 C   0  0  0  0  0  0  0  0  0  0  0  0
    5.6800  -15.8730    1.7120 C   0  0  0  0  0  0  0  0  0  0  0  0
    6.3310  -15.6600    2.9020 C   0  0  0  0  0  0  0  0  0  0  0  0
    7.2830  -16.5280    3.3320 C   0  0  0  0  0  0  0  0  0  0  0  0
    7.5720  -17.6060    2.5660 C   0  0  0  0  0  0  0  0  0  0  0  0
    8.7560  -18.6210    3.1830 Cl  0  0  0  0  0  0  0  0  0  0  0  0
   -6.5145  -24.2902   -1.7827 H   0  0  0  0  0  0  0  0  0  0  0  0
   -5.9728  -25.1138   -0.2640 H   0  0  0  0  0  0  0  0  0  0  0  0
   -7.0539  -26.6887   -1.7790 H   0  0  0  0  0  0  0  0  0  0  0  0
   -5.3054  -27.0694   -1.5661 H   0  0  0  0  0  0  0  0  0  0  0  0
   -6.6276  -25.6370   -3.8676 H   0  0  0  0  0  0  0  0  0  0  0  0
   -5.8569  -28.2732   -3.2297 H   0  0  0  0  0  0  0  0  0  0  0  0
   -6.6890  -27.7034   -4.5759 H   0  0  0  0  0  0  0  0  0  0  0  0
   -3.7015  -26.3511   -3.5455 H   0  0  0  0  0  0  0  0  0  0  0  0
   -4.5254  -25.3867   -4.8615 H   0  0  0  0  0  0  0  0  0  0  0  0
   -3.1957  -24.0402   -3.2461 H   0  0  0  0  0  0  0  0  0  0  0  0
   -4.9460  -23.5978   -3.4021 H   0  0  0  0  0  0  0  0  0  0  0  0
   -3.6640  -25.2356   -1.1944 H   0  0  0  0  0  0  0  0  0  0  0  0
   -5.0689  -22.7778   -0.5261 H   0  0  0  0  0  0  0  0  0  0  0  0
   -1.7093  -19.9048    0.0557 H   0  0  0  0  0  0  0  0  0  0  0  0
    0.2855  -21.3797    0.1542 H   0  0  0  0  0  0  0  0  0  0  0  0
   -1.2941  -25.6081   -0.1214 H   0  0  0  0  0  0  0  0  0  0  0  0
    0.4239  -27.3886    0.0062 H   0  0  0  0  0  0  0  0  0  0  0  0
    2.7869  -26.7192   -0.0272 H   0  0  0  0  0  0  0  0  0  0  0  0
    3.4368  -23.3389   -2.4175 H   0  0  0  0  0  0  0  0  0  0  0  0
    3.2040  -21.6280   -2.9126 H   0  0  0  0  0  0  0  0  0  0  0  0
    4.8501  -22.3469   -2.9126 H   0  0  0  0  0  0  0  0  0  0  0  0
    6.0929  -21.3885   -1.3867 H   0  0  0  0  0  0  0  0  0  0  0  0
    1.3463  -22.0700    1.8356 H   0  0  0  0  0  0  0  0  0  0  0  0
    1.7336  -21.3784    4.1656 H   0  0  0  0  0  0  0  0  0  0  0  0
    3.9281  -20.4501    4.8155 H   0  0  0  0  0  0  0  0  0  0  0  0
    5.7335  -20.2889    3.1376 H   0  0  0  0  0  0  0  0  0  0  0  0
    7.3447  -21.0899    1.5197 H   0  0  0  0  0  0  0  0  0  0  0  0
    5.4348  -17.1427   -0.0102 H   0  0  0  0  0  0  0  0  0  0  0  0
    4.9191  -15.1541    1.3741 H   0  0  0  0  0  0  0  0  0  0  0  0
    6.0796  -14.7796    3.5117 H   0  0  0  0  0  0  0  0  0  0  0  0
    7.8085  -16.3585    4.2834 H   0  0  0  0  0  0  0  0  0  0  0  0
  4  3  1  0
  5  3  1  0
  5  6  1  0
  3  2  1  0
  6  7  1  0
 24 23  1  0
  2  1  1  0
  7  1  1  0
  7  8  1  0
 23 25  2  0
 23 22  1  0
  8  9  1  0
 35 34  2  0
 25 32  1  0
  9 10  2  0
  9 11  1  0
 10 14  1  0
 21 20  1  0
 21 22  1  0
 11 12  2  0
 14 15  1  0
 14 13  2  0
 15 20  1  0
 15 16  2  0
 20 19  2  0
 19 18  1  0
 16 17  1  0
 12 13  1  0
 18 17  2  0
 22 26  2  0
 36 34  2  0
 34 33  1  0
 34 37  1  0
 32 33  1  0
 32 31  2  0
 38 37  2  0
 38 39  1  0
 26 31  1  0
 26 27  1  0
 37 42  1  0
 31 30  1  0
 39 40  2  0
 27 28  2  0
 42 43  1  0
 42 41  2  0
 30 29  2  0
 40 41  1  0
 28 29  1  0
  1 44  1  0
  1 45  1  0
  2 46  1  0
  2 47  1  0
  3 48  1  0
  4 49  1  0
  4 50  1  0
  5 51  1  0
  5 52  1  0
  6 53  1  0
  6 54  1  0
  7 55  1  0
  8 56  1  0
 12 57  1  0
 13 58  1  0
 16 59  1  0
 17 60  1  0
 18 61  1  0
 24 62  1  0
 24 63  1  0
 24 64  1  0
 25 65  1  0
 27 66  1  0
 28 67  1  0
 29 68  1  0
 30 69  1  0
 33 70  1  0
 38 71  1  0
 39 72  1  0
 40 73  1  0
 41 74  1  0
A    1
C21
A    2
C22
A    3
C23
A    4
N6
A    5
C24
A    6
C25
A    7
C20
A    8
N4
A    9
C12
A   10
N2
A   11
N3
A   12
C15
A   13
C13
A   14
C11
A   15
C14
A   16
C16
A   17
C17
A   18
C18
A   19
N5
A   20
C19
A   21
O1
A   22
C4
A   23
C5
A   24
C26
A   25
C6
A   26
C3
A   27
C10
A   28
C9
A   29
C8
A   30
C7
A   31
C2
A   32
C1
A   33
N1
A   34
S1
A   35
O2
A   36
O3
A   37
C27
A   38
C32
A   39
C31
A   40
C30
A   41
C29
A   42
C28
A   43
CL1
M  END
