4U71_Q03_A_404
     RDKit          3D

 28 28  0  0  0  0  0  0  0  0999 V2000
    2.5960   -3.3340   12.7750 O   0  0  0  0  0  0  0  0  0  0  0  0
    1.2630   -2.6880   12.8350 P   0  0  0  0  0  0  0  0  0  0  0  0
    1.3750   -1.2780   13.6390 O   0  0  0  0  0  0  0  0  0  0  0  0
    0.5620   -2.4180   11.4360 O   0  0  0  0  0  0  0  0  0  0  0  0
    0.1920   -3.6720   13.9460 C   0  0  0  0  0  0  0  0  0  0  0  0
   -0.8500   -2.8140   14.4610 N   0  0  0  0  0  0  0  0  0  0  0  0
   -0.2440   -5.0340   13.3540 C   0  0  0  0  0  0  0  0  0  0  0  0
   -1.5950   -4.9630   12.6780 C   0  0  0  0  0  0  0  0  0  0  0  0
   -1.9170   -6.2640   12.0050 C   0  0  0  0  0  0  0  0  0  0  0  0
   -1.4160   -7.5060   12.6880 C   0  0  0  0  0  0  0  0  0  0  0  0
   -0.1040   -7.4430   13.3600 C   0  0  0  0  0  0  0  0  0  0  0  0
   -0.1220   -6.1940   14.1990 C   0  0  0  0  0  0  0  0  0  0  0  0
    2.9267   -3.4943   13.6943 H   0  0  0  0  0  0  0  0  0  0  0  0
    1.3612   -1.4518   14.6135 H   0  0  0  0  0  0  0  0  0  0  0  0
    0.7671   -4.0183   14.8174 H   0  0  0  0  0  0  0  0  0  0  0  0
   -0.8304   -2.8301   15.4907 H   0  0  0  0  0  0  0  0  0  0  0  0
   -0.6967   -1.8508   14.1297 H   0  0  0  0  0  0  0  0  0  0  0  0
    0.5270   -5.2119   12.5899 H   0  0  0  0  0  0  0  0  0  0  0  0
   -1.5812   -4.1605   11.9258 H   0  0  0  0  0  0  0  0  0  0  0  0
   -2.3622   -4.7578   13.4391 H   0  0  0  0  0  0  0  0  0  0  0  0
   -3.0117   -6.3409   11.9293 H   0  0  0  0  0  0  0  0  0  0  0  0
   -1.3975   -6.2308   11.0360 H   0  0  0  0  0  0  0  0  0  0  0  0
   -2.1604   -7.7846   13.4484 H   0  0  0  0  0  0  0  0  0  0  0  0
   -1.2738   -8.2307   11.8728 H   0  0  0  0  0  0  0  0  0  0  0  0
    0.0412   -8.3281   13.9968 H   0  0  0  0  0  0  0  0  0  0  0  0
    0.7195   -7.4245   12.6309 H   0  0  0  0  0  0  0  0  0  0  0  0
    0.8131   -6.1285   14.7747 H   0  0  0  0  0  0  0  0  0  0  0  0
   -0.9809   -6.2326   14.8851 H   0  0  0  0  0  0  0  0  0  0  0  0
  4  2  2  0
  9  8  1  0
  9 10  1  0
  8  7  1  0
 10 11  1  0
  1  2  1  0
  2  3  1  0
  2  5  1  0
  7  5  1  0
  7 12  1  0
 11 12  1  0
  5  6  1  0
  1 13  1  0
  3 14  1  0
  5 15  1  0
  6 16  1  0
  6 17  1  0
  7 18  1  0
  8 19  1  0
  8 20  1  0
  9 21  1  0
  9 22  1  0
 10 23  1  0
 10 24  1  0
 11 25  1  0
 11 26  1  0
 12 27  1  0
 12 28  1  0
A    1
O2
A    2
P
A    3
O
A    4
O1
A    5
C
A    6
N
A    7
C1
A    8
C6
A    9
C5
A   10
C4
A   11
C3
A   12
C2
M  END
