4U6E_Q02_A_403
     RDKit          3D

 22 22  0  0  0  0  0  0  0  0999 V2000
  -20.3360  -15.6720  -11.3220 O   0  0  0  0  0  0  0  0  0  0  0  0
  -21.7060  -15.1050  -11.2160 P   0  0  0  0  0  0  0  0  0  0  0  0
  -22.3530  -14.8960  -12.6660 O   0  0  0  0  0  0  0  0  0  0  0  0
  -21.7000  -13.7300  -10.3720 O   0  0  0  0  0  0  0  0  0  0  0  0
  -22.7050  -16.2140  -10.1590 C   0  0  0  0  0  0  0  0  0  0  0  0
  -23.9700  -15.5790   -9.8250 N   0  0  0  0  0  0  0  0  0  0  0  0
  -22.9870  -17.5750  -10.6920 C   0  0  0  0  0  0  0  0  0  0  0  0
  -22.3670  -18.0770  -11.8350 C   0  0  0  0  0  0  0  0  0  0  0  0
  -22.6540  -19.3690  -12.2780 C   0  0  0  0  0  0  0  0  0  0  0  0
  -23.5590  -20.1690  -11.5810 C   0  0  0  0  0  0  0  0  0  0  0  0
  -24.1770  -19.6680  -10.4380 C   0  0  0  0  0  0  0  0  0  0  0  0
  -23.8910  -18.3720   -9.9940 C   0  0  0  0  0  0  0  0  0  0  0  0
  -19.9704  -15.8233  -10.4145 H   0  0  0  0  0  0  0  0  0  0  0  0
  -21.7009  -13.9370   -9.4039 H   0  0  0  0  0  0  0  0  0  0  0  0
  -22.0654  -16.3744   -9.2785 H   0  0  0  0  0  0  0  0  0  0  0  0
  -24.0693  -15.5291   -8.8010 H   0  0  0  0  0  0  0  0  0  0  0  0
  -23.9910  -14.6275  -10.2187 H   0  0  0  0  0  0  0  0  0  0  0  0
  -21.6499  -17.4535  -12.3891 H   0  0  0  0  0  0  0  0  0  0  0  0
  -22.1635  -19.7586  -13.1822 H   0  0  0  0  0  0  0  0  0  0  0  0
  -23.7829  -21.1874  -11.9312 H   0  0  0  0  0  0  0  0  0  0  0  0
  -24.8920  -20.2927   -9.8826 H   0  0  0  0  0  0  0  0  0  0  0  0
  -24.3820  -17.9814   -9.0905 H   0  0  0  0  0  0  0  0  0  0  0  0
  3  2  2  0
  9  8  1  0
  9 10  2  0
  8  7  2  0
 10 11  1  0
  1  2  1  0
  2  4  1  0
  2  5  1  0
  7  5  1  0
  7 12  1  0
 11 12  2  0
  5  6  1  0
  1 13  1  0
  4 14  1  0
  5 15  1  0
  6 16  1  0
  6 17  1  0
  8 18  1  0
  9 19  1  0
 10 20  1  0
 11 21  1  0
 12 22  1  0
A    1
O
A    2
P
A    3
O1
A    4
O2
A    5
C
A    6
N
A    7
C1
A    8
C6
A    9
C5
A   10
C4
A   11
C3
A   12
C2
M  END
