1ZOE_K25_A_501
     RDKit          3D

 23 24  0  0  0  0  0  0  0  0999 V2000
   21.5230    8.7540   19.1040 C   0  0  0  0  0  0  0  0  0  0  0  0
   21.2850    8.2590   20.4050 C   0  0  0  0  0  0  0  0  0  0  0  0
   21.9770    7.1270   20.8560 C   0  0  0  0  0  0  0  0  0  0  0  0
   22.4150    8.1090   18.2350 C   0  0  0  0  0  0  0  0  0  0  0  0
   23.7040    5.4130   20.1850 N   0  0  0  0  0  0  0  0  0  0  0  0
   23.1510    6.9840   18.7000 C   0  0  0  0  0  0  0  0  0  0  0  0
   22.8900    6.5180   19.9860 C   0  0  0  0  0  0  0  0  0  0  0  0
   24.3470    5.1960   19.0140 C   0  0  0  0  0  0  0  0  0  0  0  0
   24.1090    6.2160   18.1670 N   0  0  0  0  0  0  0  0  0  0  0  0
   25.2790    4.1620   18.9040 N   0  0  0  0  0  0  0  0  0  0  0  0
   25.4880    3.2670   20.0070 C   0  0  0  0  0  0  0  0  0  0  0  0
   25.9890    3.9590   17.6710 C   0  0  0  0  0  0  0  0  0  0  0  0
   20.4670   10.2030   18.4730 Br  0  0  0  0  0  0  0  0  0  0  0  0
   19.9810    9.0580   21.5580 Br  0  0  0  0  0  0  0  0  0  0  0  0
   21.8520    6.4120   22.6210 Br  0  0  0  0  0  0  0  0  0  0  0  0
   22.9250    8.8690   16.5740 Br  0  0  0  0  0  0  0  0  0  0  0  0
   23.8002    4.8658   21.0523 H   0  0  0  0  0  0  0  0  0  0  0  0
   25.3602    3.8143   20.9526 H   0  0  0  0  0  0  0  0  0  0  0  0
   24.7574    2.4463   19.9567 H   0  0  0  0  0  0  0  0  0  0  0  0
   26.5066    2.8547   19.9567 H   0  0  0  0  0  0  0  0  0  0  0  0
   27.0256    3.6626   17.8893 H   0  0  0  0  0  0  0  0  0  0  0  0
   25.4955    3.1660   17.0900 H   0  0  0  0  0  0  0  0  0  0  0  0
   25.9893    4.8930   17.0900 H   0  0  0  0  0  0  0  0  0  0  0  0
  1  2  2  0
  1  4  1  0
  1 13  1  0
  2  3  1  0
  2 14  1  0
  3  7  2  0
  3 15  1  0
  4  6  2  0
  4 16  1  0
  5  7  1  0
  5  8  1  0
  6  7  1  0
  6  9  1  0
  8  9  2  0
  8 10  1  0
 10 11  1  0
 10 12  1  0
  5 17  1  0
 11 18  1  0
 11 19  1  0
 11 20  1  0
 12 21  1  0
 12 22  1  0
 12 23  1  0
A    1
C2
A    2
C3
A    3
C4
A    4
C5
A    5
N6
A    6
C7
A    7
C8
A    8
C13
A    9
N14
A   10
N15
A   11
C16
A   12
C17
A   13
BR1
A   14
BR9
A   15
BR10
A   16
BR11
M  END
