4U81_3EY_A_502
     RDKit          3D

 46 49  0  0  0  0  0  0  0  0999 V2000
   26.3940   30.2750  -15.7300 O   0  0  0  0  0  0  0  0  0  0  0  0
   32.4210   30.4560  -14.1120 C   0  0  0  0  0  0  0  0  0  0  0  0
   34.7670   30.8440  -14.5370 C   0  0  0  0  0  0  0  0  0  0  0  0
   36.0600   32.1740  -13.3470 C   0  0  0  0  0  0  0  0  0  0  0  0
   34.8180   31.6740  -13.4760 N   0  0  0  0  0  0  0  0  0  0  0  0
   36.1040   30.8460  -15.0770 C   0  0  0  0  0  0  0  0  0  0  0  0
   31.0540   29.8830  -14.3990 C   0  0  0  0  0  0  0  0  0  0  0  0
   36.8580   31.6710  -14.3070 N   0  0  0  0  0  0  0  0  0  0  0  0
   34.1970   28.2490  -16.2930 C   0  0  0  0  0  0  0  0  0  0  0  0
   35.3430   27.8900  -15.5940 C   0  0  0  0  0  0  0  0  0  0  0  0
   36.0850   26.7850  -15.9760 C   0  0  0  0  0  0  0  0  0  0  0  0
   35.7030   26.0210  -17.0770 C   0  0  0  0  0  0  0  0  0  0  0  0
   33.4440   29.3410  -15.9550 N   0  0  0  0  0  0  0  0  0  0  0  0
   34.5490   26.3600  -17.7920 C   0  0  0  0  0  0  0  0  0  0  0  0
   33.8010   27.4840  -17.3900 C   0  0  0  0  0  0  0  0  0  0  0  0
   36.5630   24.8480  -17.4140 C   0  0  0  0  0  0  0  0  0  0  0  0
   30.1170   29.9380  -13.4680 N   0  0  0  0  0  0  0  0  0  0  0  0
   32.6840   27.8570  -18.0540 F   0  0  0  0  0  0  0  0  0  0  0  0
   36.7660   24.6320  -18.9070 C   0  0  0  0  0  0  0  0  0  0  0  0
   35.7580   23.7770  -18.1470 C   0  0  0  0  0  0  0  0  0  0  0  0
   33.5640   30.1910  -14.8820 C   0  0  0  0  0  0  0  0  0  0  0  0
   33.7220   31.9290  -12.7500 C   0  0  0  0  0  0  0  0  0  0  0  0
   32.5070   31.3360  -13.0470 C   0  0  0  0  0  0  0  0  0  0  0  0
   30.7680   29.4580  -15.5120 O   0  0  0  0  0  0  0  0  0  0  0  0
   28.8770   29.4660  -13.7940 O   0  0  0  0  0  0  0  0  0  0  0  0
   27.7340   30.3390  -13.7140 C   0  0  0  0  0  0  0  0  0  0  0  0
   27.4530   30.9710  -15.0750 C   0  0  0  0  0  0  0  0  0  0  0  0
   25.7909   29.8786  -15.0524 H   0  0  0  0  0  0  0  0  0  0  0  0
   36.3764   32.8878  -12.5722 H   0  0  0  0  0  0  0  0  0  0  0  0
   36.4504   30.2808  -15.9548 H   0  0  0  0  0  0  0  0  0  0  0  0
   35.6638   28.4892  -14.7291 H   0  0  0  0  0  0  0  0  0  0  0  0
   36.9837   26.5079  -15.4054 H   0  0  0  0  0  0  0  0  0  0  0  0
   32.6721   29.5580  -16.6016 H   0  0  0  0  0  0  0  0  0  0  0  0
   34.2305   25.7576  -18.6555 H   0  0  0  0  0  0  0  0  0  0  0  0
   37.2419   24.8883  -16.5494 H   0  0  0  0  0  0  0  0  0  0  0  0
   30.3142   30.3219  -12.5328 H   0  0  0  0  0  0  0  0  0  0  0  0
   37.7003   24.1831  -19.2753 H   0  0  0  0  0  0  0  0  0  0  0  0
   36.7233   25.2757  -19.7980 H   0  0  0  0  0  0  0  0  0  0  0  0
   34.6800   23.9172  -18.3148 H   0  0  0  0  0  0  0  0  0  0  0  0
   35.5962   22.6971  -18.0141 H   0  0  0  0  0  0  0  0  0  0  0  0
   33.7886   32.6241  -11.9000 H   0  0  0  0  0  0  0  0  0  0  0  0
   31.6169   31.5623  -12.4415 H   0  0  0  0  0  0  0  0  0  0  0  0
   27.9347   31.1331  -12.9798 H   0  0  0  0  0  0  0  0  0  0  0  0
   26.8567   29.7520  -13.4043 H   0  0  0  0  0  0  0  0  0  0  0  0
   28.3604   30.9189  -15.6946 H   0  0  0  0  0  0  0  0  0  0  0  0
   27.1581   32.0208  -14.9302 H   0  0  0  0  0  0  0  0  0  0  0  0
 19 20  1  0
 19 16  1  0
 20 16  1  0
 18 15  1  0
 14 15  2  0
 14 12  1  0
 16 12  1  0
 15  9  1  0
 12 11  2  0
  9 13  1  0
  9 10  2  0
 11 10  1  0
 13 21  1  0
  1 27  1  0
 24  7  2  0
  6  3  2  0
  6  8  1  0
 27 26  1  0
 21  3  1  0
 21  2  2  0
  3  5  1  0
  7  2  1  0
  7 17  1  0
  8  4  2  0
  2 23  1  0
 25 26  1  0
 25 17  1  0
  5  4  1  0
  5 22  1  0
 23 22  2  0
  1 28  1  0
  4 29  1  0
  6 30  1  0
 10 31  1  0
 11 32  1  0
 13 33  1  0
 14 34  1  0
 16 35  1  0
 17 36  1  0
 19 37  1  0
 19 38  1  0
 20 39  1  0
 20 40  1  0
 22 41  1  0
 23 42  1  0
 26 43  1  0
 26 44  1  0
 27 45  1  0
 27 46  1  0
A    1
O3
A    2
C4
A    3
C5
A    4
C6
A    5
N1
A    6
C7
A    7
C8
A    8
N2
A    9
C9
A   10
C10
A   11
C11
A   12
C12
A   13
N3
A   14
C13
A   15
C14
A   16
C15
A   17
N4
A   18
F1
A   19
C17
A   20
C16
A   21
C3
A   22
C2
A   23
C1
A   24
O1
A   25
O2
A   26
C18
A   27
C19
M  END
