4U8W_G10_A_201
     RDKit          3D

 75 78  0  0  0  0  0  0  0  0999 V2000
    8.1200   14.3640   14.0400 N   0  0  0  0  0  0  0  0  0  0  0  0
    8.6160   15.5270   14.4980 C   0  0  0  0  0  0  0  0  0  0  0  0
    9.9580   15.7910   14.2760 C   0  0  0  0  0  0  0  0  0  0  0  0
   10.4380   16.9770   14.7700 C   0  0  0  0  0  0  0  0  0  0  0  0
    9.7590   17.8810   15.5280 C   0  0  0  0  0  0  0  0  0  0  0  0
    8.4360   17.5950   15.8000 C   0  0  0  0  0  0  0  0  0  0  0  0
    7.8820   16.4070   15.2720 C   0  0  0  0  0  0  0  0  0  0  0  0
   10.6360   19.2810   16.1110 S   0  0  0  0  0  0  0  0  0  0  0  0
   11.7290   19.5890   15.1730 O   0  0  0  0  0  0  0  0  0  0  0  0
    9.6700   20.3680   16.3650 O   0  0  0  0  0  0  0  0  0  0  0  0
   11.3090   18.9140   17.5620 N   0  0  0  0  0  0  0  0  0  0  0  0
   10.3870   18.6230   18.6110 C   0  0  0  0  0  0  0  0  0  0  0  0
   10.6960   19.3110   19.9550 C   0  0  0  0  0  0  0  0  0  0  0  0
   10.5800   20.8280   19.7950 C   0  0  0  0  0  0  0  0  0  0  0  0
    9.7310   18.8150   21.0340 C   0  0  0  0  0  0  0  0  0  0  0  0
   12.5780   18.2440   17.5410 C   0  0  0  0  0  0  0  0  0  0  0  0
   13.7160   19.1140   18.0820 C   0  0  0  0  0  0  0  0  0  0  0  0
   14.8340   18.2810   18.4180 O   0  0  0  0  0  0  0  0  0  0  0  0
   14.1420   20.2460   17.1460 C   0  0  0  0  0  0  0  0  0  0  0  0
   15.0230   21.1710   17.8500 N   0  0  0  0  0  0  0  0  0  0  0  0
   14.7090   22.4150   18.2090 C   0  0  0  0  0  0  0  0  0  0  0  0
   13.6230   22.9950   18.0240 O   0  0  0  0  0  0  0  0  0  0  0  0
   15.7350   23.0140   18.8630 O   0  0  0  0  0  0  0  0  0  0  0  0
   15.5470   24.4120   19.1320 C   0  0  0  0  0  0  0  0  0  0  0  0
   16.1420   24.6350   20.5260 C   0  0  0  0  0  0  0  0  0  0  0  0
   17.5590   24.6860   20.3330 O   0  0  0  0  0  0  0  0  0  0  0  0
   17.8340   25.1790   19.0210 C   0  0  0  0  0  0  0  0  0  0  0  0
   18.6480   24.2230   18.3390 O   0  0  0  0  0  0  0  0  0  0  0  0
   18.0170   23.7510   17.1640 C   0  0  0  0  0  0  0  0  0  0  0  0
   16.8660   24.6830   16.9190 C   0  0  0  0  0  0  0  0  0  0  0  0
   16.5170   25.2510   18.2830 C   0  0  0  0  0  0  0  0  0  0  0  0
   14.8670   19.6860   15.9250 C   0  0  0  0  0  0  0  0  0  0  0  0
   16.6380   21.1150   14.8070 C   0  0  0  0  0  0  0  0  0  0  0  0
   17.0340   22.1650   13.9850 C   0  0  0  0  0  0  0  0  0  0  0  0
   16.0780   22.9240   13.3080 C   0  0  0  0  0  0  0  0  0  0  0  0
   14.7660   22.5390   13.4270 C   0  0  0  0  0  0  0  0  0  0  0  0
   14.3360   21.5190   14.2620 C   0  0  0  0  0  0  0  0  0  0  0  0
   15.2950   20.8020   14.9700 C   0  0  0  0  0  0  0  0  0  0  0  0
   15.8160   24.1230   16.3170 F   0  0  0  0  0  0  0  0  0  0  0  0
   17.3350   25.6280   16.1030 F   0  0  0  0  0  0  0  0  0  0  0  0
    7.8109   13.6392   14.7033 H   0  0  0  0  0  0  0  0  0  0  0  0
    8.0492   14.1981   13.0259 H   0  0  0  0  0  0  0  0  0  0  0  0
   10.6044   15.0864   13.7322 H   0  0  0  0  0  0  0  0  0  0  0  0
   11.4823   17.2238   14.5280 H   0  0  0  0  0  0  0  0  0  0  0  0
    7.8275   18.2758   16.4133 H   0  0  0  0  0  0  0  0  0  0  0  0
    6.8282   16.1737   15.4845 H   0  0  0  0  0  0  0  0  0  0  0  0
    9.3863   18.9432   18.2852 H   0  0  0  0  0  0  0  0  0  0  0  0
   10.4593   17.5408   18.7943 H   0  0  0  0  0  0  0  0  0  0  0  0
   11.7222   19.0609   20.2622 H   0  0  0  0  0  0  0  0  0  0  0  0
   10.5439   21.2997   20.7881 H   0  0  0  0  0  0  0  0  0  0  0  0
   11.4519   21.2060   19.2409 H   0  0  0  0  0  0  0  0  0  0  0  0
    9.6608   21.0690   19.2409 H   0  0  0  0  0  0  0  0  0  0  0  0
   10.1502   19.0305   22.0279 H   0  0  0  0  0  0  0  0  0  0  0  0
    8.7640   19.3278   20.9249 H   0  0  0  0  0  0  0  0  0  0  0  0
    9.5851   17.7302   20.9249 H   0  0  0  0  0  0  0  0  0  0  0  0
   12.5063   17.3356   18.1572 H   0  0  0  0  0  0  0  0  0  0  0  0
   12.8110   18.0076   16.4923 H   0  0  0  0  0  0  0  0  0  0  0  0
   13.3289   19.6166   18.9806 H   0  0  0  0  0  0  0  0  0  0  0  0
   14.9159   18.2200   19.4027 H   0  0  0  0  0  0  0  0  0  0  0  0
   13.2392   20.7793   16.8135 H   0  0  0  0  0  0  0  0  0  0  0  0
   15.9665   20.8344   18.0896 H   0  0  0  0  0  0  0  0  0  0  0  0
   14.4897   24.6717   18.9751 H   0  0  0  0  0  0  0  0  0  0  0  0
   15.7778   25.5812   20.9526 H   0  0  0  0  0  0  0  0  0  0  0  0
   15.8538   23.8363   21.2253 H   0  0  0  0  0  0  0  0  0  0  0  0
   18.3343   26.1575   19.0686 H   0  0  0  0  0  0  0  0  0  0  0  0
   17.6538   22.7230   17.3101 H   0  0  0  0  0  0  0  0  0  0  0  0
   18.7110   23.7297   16.3108 H   0  0  0  0  0  0  0  0  0  0  0  0
   16.0399   26.2317   18.1392 H   0  0  0  0  0  0  0  0  0  0  0  0
   14.1933   18.9983   15.3929 H   0  0  0  0  0  0  0  0  0  0  0  0
   15.7694   19.1596   16.2692 H   0  0  0  0  0  0  0  0  0  0  0  0
   17.4001   20.5238   15.3358 H   0  0  0  0  0  0  0  0  0  0  0  0
   18.1028   22.3977   13.8683 H   0  0  0  0  0  0  0  0  0  0  0  0
   16.3649   23.7966   12.7028 H   0  0  0  0  0  0  0  0  0  0  0  0
   14.0130   23.0697   12.8259 H   0  0  0  0  0  0  0  0  0  0  0  0
   13.2662   21.2833   14.3618 H   0  0  0  0  0  0  0  0  0  0  0  0
 35 36  2  0
 35 34  1  0
 36 37  1  0
 34 33  2  0
  1  2  1  0
 37 38  2  0
  3  2  2  0
  3  4  1  0
  2  7  1  0
  4  5  2  0
 33 38  1  0
 38 32  1  0
  9  8  2  0
  7  6  2  0
  5  6  1  0
  5  8  1  0
 32 19  1  0
 40 30  1  0
  8 10  2  0
  8 11  1  0
 39 30  1  0
 30 29  1  0
 30 31  1  0
 19 20  1  0
 19 17  1  0
 29 28  1  0
 16 11  1  0
 16 17  1  0
 11 12  1  0
 20 21  1  0
 22 21  2  0
 17 18  1  0
 21 23  1  0
 31 27  1  0
 31 24  1  0
 28 27  1  0
 12 13  1  0
 23 24  1  0
 27 26  1  0
 24 25  1  0
 14 13  1  0
 13 15  1  0
 26 25  1  0
  1 41  1  0
  1 42  1  0
  3 43  1  0
  4 44  1  0
  6 45  1  0
  7 46  1  0
 12 47  1  0
 12 48  1  0
 13 49  1  0
 14 50  1  0
 14 51  1  0
 14 52  1  0
 15 53  1  0
 15 54  1  0
 15 55  1  0
 16 56  1  0
 16 57  1  0
 17 58  1  0
 18 59  1  0
 19 60  1  0
 20 61  1  0
 24 62  1  0
 25 63  1  0
 25 64  1  0
 27 65  1  0
 29 66  1  0
 29 67  1  0
 31 68  1  0
 32 69  1  0
 32 70  1  0
 33 71  1  0
 34 72  1  0
 35 73  1  0
 36 74  1  0
 37 75  1  0
A    1
N1
A    2
C2
A    3
C3
A    4
C4
A    5
C5
A    6
C6
A    7
C7
A    8
S8
A    9
O9
A   10
O10
A   11
N11
A   12
C12
A   13
C13
A   14
C14
A   15
C15
A   16
C16
A   17
C17
A   18
O18
A   19
C19
A   20
N20
A   21
C21
A   22
O22
A   23
O23
A   24
C24
A   25
C25
A   26
O26
A   27
C27
A   28
O28
A   29
C29
A   30
C30
A   31
C31
A   32
C32
A   33
C33
A   34
C34
A   35
C35
A   36
C36
A   37
C37
A   38
C38
A   39
F39
A   40
F40
M  END
