4U8Z_3FE_A_302
     RDKit          3D

 38 41  0  0  0  0  0  0  0  0999 V2000
   15.2550  -35.9050   19.6080 N   0  0  0  0  0  0  0  0  0  0  0  0
   18.2840  -35.2270   14.4240 C   0  0  0  0  0  0  0  0  0  0  0  0
   15.0860  -33.5100   19.2180 N   0  0  0  0  0  0  0  0  0  0  0  0
   17.4110  -35.3890   16.7350 C   0  0  0  0  0  0  0  0  0  0  0  0
   18.9430  -33.5200   16.0710 C   0  0  0  0  0  0  0  0  0  0  0  0
   16.0690  -35.9660   18.5000 C   0  0  0  0  0  0  0  0  0  0  0  0
   15.6410  -32.4860   15.8320 C   0  0  0  0  0  0  0  0  0  0  0  0
   17.5240  -36.7580   16.9890 C   0  0  0  0  0  0  0  0  0  0  0  0
   19.2750  -35.6870   11.2080 N   0  0  0  0  0  0  0  0  0  0  0  0
   15.5380  -31.1570   17.9710 C   0  0  0  0  0  0  0  0  0  0  0  0
   19.6910  -32.8420   15.0860 C   0  0  0  0  0  0  0  0  0  0  0  0
   19.7530  -33.3400   13.7940 C   0  0  0  0  0  0  0  0  0  0  0  0
   19.0680  -34.5400   13.4730 C   0  0  0  0  0  0  0  0  0  0  0  0
   18.2180  -34.7110   15.7370 C   0  0  0  0  0  0  0  0  0  0  0  0
   16.7120  -37.0940   18.0570 N   0  0  0  0  0  0  0  0  0  0  0  0
   16.4680  -34.8610   17.6820 C   0  0  0  0  0  0  0  0  0  0  0  0
   15.8890  -33.6000   18.0870 C   0  0  0  0  0  0  0  0  0  0  0  0
   14.8160  -34.6530   19.9100 C   0  0  0  0  0  0  0  0  0  0  0  0
   16.0620  -32.4220   17.2800 N   0  0  0  0  0  0  0  0  0  0  0  0
   16.3100  -31.2420   15.1510 C   0  0  0  0  0  0  0  0  0  0  0  0
   15.8430  -30.0750   15.8070 O   0  0  0  0  0  0  0  0  0  0  0  0
   16.1210  -29.9610   17.1940 C   0  0  0  0  0  0  0  0  0  0  0  0
   19.2110  -35.1340   12.2100 C   0  0  0  0  0  0  0  0  0  0  0  0
   17.7379  -36.1416   14.1496 H   0  0  0  0  0  0  0  0  0  0  0  0
   18.9157  -33.1332   17.1004 H   0  0  0  0  0  0  0  0  0  0  0  0
   14.5458  -32.4295   15.7464 H   0  0  0  0  0  0  0  0  0  0  0  0
   15.9493  -33.4289   15.3566 H   0  0  0  0  0  0  0  0  0  0  0  0
   18.1592  -37.4589   16.4276 H   0  0  0  0  0  0  0  0  0  0  0  0
   15.8731  -31.1295   19.0184 H   0  0  0  0  0  0  0  0  0  0  0  0
   14.4383  -31.1317   17.9739 H   0  0  0  0  0  0  0  0  0  0  0  0
   20.2262  -31.9162   15.3437 H   0  0  0  0  0  0  0  0  0  0  0  0
   20.3295  -32.8083   13.0227 H   0  0  0  0  0  0  0  0  0  0  0  0
   16.6071  -38.0381   18.4552 H   0  0  0  0  0  0  0  0  0  0  0  0
   14.1796  -34.5532   20.8017 H   0  0  0  0  0  0  0  0  0  0  0  0
   16.0344  -31.2067   14.0867 H   0  0  0  0  0  0  0  0  0  0  0  0
   17.4053  -31.3093   15.2278 H   0  0  0  0  0  0  0  0  0  0  0  0
   17.2106  -29.9320   17.3418 H   0  0  0  0  0  0  0  0  0  0  0  0
   15.6577  -29.0372   17.5708 H   0  0  0  0  0  0  0  0  0  0  0  0
  9 23  3  0
 23 13  1  0
 13 12  1  0
 13  2  2  0
 12 11  2  0
  2 14  1  0
 11  5  1  0
 20 21  1  0
 20  7  1  0
 14  5  2  0
 14  4  1  0
 21 22  1  0
  7 19  1  0
  4  8  2  0
  4 16  1  0
  8 15  1  0
 22 10  1  0
 19 10  1  0
 19 17  1  0
 16 17  2  0
 16  6  1  0
 15  6  1  0
 17  3  1  0
  6  1  2  0
  3 18  2  0
  1 18  1  0
  2 24  1  0
  5 25  1  0
  7 26  1  0
  7 27  1  0
  8 28  1  0
 10 29  1  0
 10 30  1  0
 11 31  1  0
 12 32  1  0
 15 33  1  0
 18 34  1  0
 20 35  1  0
 20 36  1  0
 22 37  1  0
 22 38  1  0
A    1
N3
A    2
C4
A    3
N2
A    4
C7
A    5
C6
A    6
C9
A    7
C13
A    8
C8
A    9
N5
A   10
C16
A   11
C1
A   12
C2
A   13
C3
A   14
C5
A   15
N1
A   16
C10
A   17
C11
A   18
C12
A   19
N4
A   20
C14
A   21
O1
A   22
C15
A   23
C17
M  END
