4U91_3F7_E_501
     RDKit          3D

 28 30  0  0  0  0  0  0  0  0999 V2000
   40.5920   50.2790  209.4490 O   0  0  0  0  0  0  0  0  0  0  0  0
   40.2510   50.4020  210.6230 C   0  0  0  0  0  0  0  0  0  0  0  0
   39.0230   50.7170  211.0310 C   0  0  0  0  0  0  0  0  0  0  0  0
   39.0480   50.7630  212.3610 C   0  0  0  0  0  0  0  0  0  0  0  0
   40.2940   50.4720  212.7280 C   0  0  0  0  0  0  0  0  0  0  0  0
   40.6780   50.4180  213.8930 O   0  0  0  0  0  0  0  0  0  0  0  0
   41.0560   50.2440  211.6630 N   0  0  0  0  0  0  0  0  0  0  0  0
   42.3480   49.9300  211.6420 C   0  0  0  0  0  0  0  0  0  0  0  0
   42.9650   49.4790  212.7980 C   0  0  0  0  0  0  0  0  0  0  0  0
   44.3140   49.1470  212.7890 C   0  0  0  0  0  0  0  0  0  0  0  0
   43.0920   50.0430  210.4760 C   0  0  0  0  0  0  0  0  0  0  0  0
   44.4430   49.7110  210.4680 C   0  0  0  0  0  0  0  0  0  0  0  0
   45.0600   49.2590  211.6270 C   0  0  0  0  0  0  0  0  0  0  0  0
   46.3540   48.9440  211.6360 N   0  0  0  0  0  0  0  0  0  0  0  0
   47.1320   48.7260  212.6950 C   0  0  0  0  0  0  0  0  0  0  0  0
   46.7670   48.7810  213.8660 O   0  0  0  0  0  0  0  0  0  0  0  0
   48.3740   48.4380  212.3150 C   0  0  0  0  0  0  0  0  0  0  0  0
   48.3840   48.4790  210.9850 C   0  0  0  0  0  0  0  0  0  0  0  0
   47.1510   48.7890  210.5890 C   0  0  0  0  0  0  0  0  0  0  0  0
   46.8010   48.9050  209.4170 O   0  0  0  0  0  0  0  0  0  0  0  0
   38.1502   50.9044  210.3882 H   0  0  0  0  0  0  0  0  0  0  0  0
   38.2039   50.9960  213.0268 H   0  0  0  0  0  0  0  0  0  0  0  0
   42.3839   49.3834  213.7271 H   0  0  0  0  0  0  0  0  0  0  0  0
   44.7941   48.7920  213.7128 H   0  0  0  0  0  0  0  0  0  0  0  0
   42.6106   50.3972  209.5525 H   0  0  0  0  0  0  0  0  0  0  0  0
   45.0250   49.8070  209.5395 H   0  0  0  0  0  0  0  0  0  0  0  0
   49.2263   48.2104  212.9720 H   0  0  0  0  0  0  0  0  0  0  0  0
   49.2502   48.2916  210.3335 H   0  0  0  0  0  0  0  0  0  0  0  0
 20 19  2  0
  1  2  2  0
 11 12  2  0
 11  8  1  0
 12 13  1  0
 19 18  1  0
 19 14  1  0
  2  3  1  0
  2  7  1  0
 18 17  2  0
  3  4  2  0
  8  7  1  0
  8  9  2  0
 13 14  1  0
 13 10  2  0
  7  5  1  0
 14 15  1  0
 17 15  1  0
  4  5  1  0
 15 16  2  0
  5  6  2  0
  9 10  1  0
  3 21  1  0
  4 22  1  0
  9 23  1  0
 10 24  1  0
 11 25  1  0
 12 26  1  0
 17 27  1  0
 18 28  1  0
A    1
OAA
A    2
CAO
A    3
CAI
A    4
CAJ
A    5
CAP
A    6
OAB
A    7
NAS
A    8
CAM
A    9
CAF
A   10
CAH
A   11
CAE
A   12
CAG
A   13
CAN
A   14
NAT
A   15
CAQ
A   16
OAC
A   17
CAK
A   18
CAL
A   19
CAR
A   20
OAD
M  END
