4UC1_Z0P_B_208
     RDKit          3D

112111  0  0  0  0  0  0  0  0999 V2000
   -6.0040   56.5920   34.1300 O   0  0  0  0  0  0  0  0  0  0  0  0
   -6.7510   56.3510   35.3430 C   0  0  0  0  0  0  0  0  0  0  0  0
   -5.4830   53.3660   35.2650 O   0  0  0  0  0  0  0  0  0  0  0  0
   -7.3060   54.9460   35.3230 C   0  0  0  0  0  0  0  0  0  0  0  0
   -8.6130   54.9780   34.8020 O   0  0  0  0  0  0  0  0  0  0  0  0
   -6.3990   54.0820   34.4520 C   0  0  0  0  0  0  0  0  0  0  0  0
   -9.9400   53.2430   34.0730 O   0  0  0  0  0  0  0  0  0  0  0  0
   -4.8360   52.2940   34.5800 C   0  0  0  0  0  0  0  0  0  0  0  0
   -4.3020   52.4960   33.5180 O   0  0  0  0  0  0  0  0  0  0  0  0
   -4.8100   50.8770   35.1460 C   0  0  0  0  0  0  0  0  0  0  0  0
   -4.6230   49.8910   33.9670 C   0  0  0  0  0  0  0  0  0  0  0  0
   -3.2260   49.1920   34.0750 C   0  0  0  0  0  0  0  0  0  0  0  0
   -3.1730   47.9830   33.1010 C   0  0  0  0  0  0  0  0  0  0  0  0
   -2.7090   46.6910   33.8550 C   0  0  0  0  0  0  0  0  0  0  0  0
   -1.1540   46.5930   33.8460 C   0  0  0  0  0  0  0  0  0  0  0  0
   -0.6650   45.1010   34.1000 C   0  0  0  0  0  0  0  0  0  0  0  0
    0.9210   45.0460   34.1580 C   0  0  0  0  0  0  0  0  0  0  0  0
    1.4760   44.3790   32.8980 C   0  0  0  0  0  0  0  0  0  0  0  0
    2.2710   43.1360   33.2820 C   0  0  0  0  0  0  0  0  0  0  0  0
    2.9620   42.4930   32.0280 C   0  0  0  0  0  0  0  0  0  0  0  0
    1.9110   42.0230   31.0070 C   0  0  0  0  0  0  0  0  0  0  0  0
    2.4680   40.8780   30.0800 C   0  0  0  0  0  0  0  0  0  0  0  0
    3.6260   41.3680   29.2280 C   0  0  0  0  0  0  0  0  0  0  0  0
    3.6070   40.6490   27.8600 C   0  0  0  0  0  0  0  0  0  0  0  0
   -9.4350   53.8320   35.0230 C   0  0  0  0  0  0  0  0  0  0  0  0
   -9.7270   53.3000   36.4470 C   0  0  0  0  0  0  0  0  0  0  0  0
   -9.3270   51.7830   36.4670 C   0  0  0  0  0  0  0  0  0  0  0  0
  -10.4900   50.9090   35.9190 C   0  0  0  0  0  0  0  0  0  0  0  0
   -9.9150   49.9850   34.8460 C   0  0  0  0  0  0  0  0  0  0  0  0
   -8.7930   49.1170   35.4350 C   0  0  0  0  0  0  0  0  0  0  0  0
   -7.9450   48.5650   34.3210 C   0  0  0  0  0  0  0  0  0  0  0  0
   -8.2940   47.0770   34.0490 C   0  0  0  0  0  0  0  0  0  0  0  0
   -7.0380   46.2380   34.1090 C   0  0  0  0  0  0  0  0  0  0  0  0
   -7.3410   44.7700   33.7220 C   0  0  0  0  0  0  0  0  0  0  0  0
   -6.2740   43.8360   34.3400 C   0  0  0  0  0  0  0  0  0  0  0  0
   -5.3790   43.2010   33.2170 C   0  0  0  0  0  0  0  0  0  0  0  0
   -4.2070   42.3710   33.8280 C   0  0  0  0  0  0  0  0  0  0  0  0
   -3.9280   41.1430   32.9350 C   0  0  0  0  0  0  0  0  0  0  0  0
   -2.5610   41.3260   32.2090 C   0  0  0  0  0  0  0  0  0  0  0  0
   -2.5860   40.5270   30.8760 C   0  0  0  0  0  0  0  0  0  0  0  0
   -1.8540   39.1820   31.0360 C   0  0  0  0  0  0  0  0  0  0  0  0
   -2.7210   38.0400   30.5150 C   0  0  0  0  0  0  0  0  0  0  0  0
   -5.0876   56.8877   34.3600 H   0  0  0  0  0  0  0  0  0  0  0  0
   -6.0873   56.4705   36.2120 H   0  0  0  0  0  0  0  0  0  0  0  0
   -7.5796   57.0712   35.4121 H   0  0  0  0  0  0  0  0  0  0  0  0
   -7.3423   54.5233   36.3379 H   0  0  0  0  0  0  0  0  0  0  0  0
   -5.8417   54.7259   33.7557 H   0  0  0  0  0  0  0  0  0  0  0  0
   -7.0154   53.3670   33.8873 H   0  0  0  0  0  0  0  0  0  0  0  0
   -3.9748   50.7738   35.8543 H   0  0  0  0  0  0  0  0  0  0  0  0
   -5.7488   50.6618   35.6773 H   0  0  0  0  0  0  0  0  0  0  0  0
   -5.4158   49.1291   33.9991 H   0  0  0  0  0  0  0  0  0  0  0  0
   -4.6789   50.4451   33.0184 H   0  0  0  0  0  0  0  0  0  0  0  0
   -2.4357   49.9101   33.8109 H   0  0  0  0  0  0  0  0  0  0  0  0
   -3.0724   48.8387   35.1053 H   0  0  0  0  0  0  0  0  0  0  0  0
   -4.1743   47.8151   32.6776 H   0  0  0  0  0  0  0  0  0  0  0  0
   -2.4540   48.2040   32.2984 H   0  0  0  0  0  0  0  0  0  0  0  0
   -3.0648   46.7296   34.8952 H   0  0  0  0  0  0  0  0  0  0  0  0
   -3.1275   45.8092   33.3479 H   0  0  0  0  0  0  0  0  0  0  0  0
   -0.7798   46.9307   32.8683 H   0  0  0  0  0  0  0  0  0  0  0  0
   -0.7625   47.2280   34.6544 H   0  0  0  0  0  0  0  0  0  0  0  0
   -1.0762   44.7415   35.0548 H   0  0  0  0  0  0  0  0  0  0  0  0
   -1.0163   44.4629   33.2757 H   0  0  0  0  0  0  0  0  0  0  0  0
    1.3171   46.0696   34.2311 H   0  0  0  0  0  0  0  0  0  0  0  0
    1.2266   44.4598   35.0372 H   0  0  0  0  0  0  0  0  0  0  0  0
    0.6431   44.0913   32.2395 H   0  0  0  0  0  0  0  0  0  0  0  0
    2.1356   45.0852   32.3725 H   0  0  0  0  0  0  0  0  0  0  0  0
    3.0438   43.4162   34.0130 H   0  0  0  0  0  0  0  0  0  0  0  0
    1.5775   42.3990   33.7132 H   0  0  0  0  0  0  0  0  0  0  0  0
    3.6166   43.2395   31.5544 H   0  0  0  0  0  0  0  0  0  0  0  0
    3.5492   41.6227   32.3561 H   0  0  0  0  0  0  0  0  0  0  0  0
    1.0314   41.6460   31.5493 H   0  0  0  0  0  0  0  0  0  0  0  0
    1.6454   42.8798   30.3704 H   0  0  0  0  0  0  0  0  0  0  0  0
    2.8142   40.0448   30.7093 H   0  0  0  0  0  0  0  0  0  0  0  0
    1.6593   40.5514   29.4097 H   0  0  0  0  0  0  0  0  0  0  0  0
    3.5319   42.4528   29.0722 H   0  0  0  0  0  0  0  0  0  0  0  0
    4.5740   41.1493   29.7413 H   0  0  0  0  0  0  0  0  0  0  0  0
    3.5782   39.5608   28.0181 H   0  0  0  0  0  0  0  0  0  0  0  0
    2.7168   40.9610   27.2941 H   0  0  0  0  0  0  0  0  0  0  0  0
    4.5124   40.9135   27.2941 H   0  0  0  0  0  0  0  0  0  0  0  0
   -9.1322   53.8563   37.1864 H   0  0  0  0  0  0  0  0  0  0  0  0
  -10.7898   53.4268   36.7007 H   0  0  0  0  0  0  0  0  0  0  0  0
   -8.4356   51.6349   35.8398 H   0  0  0  0  0  0  0  0  0  0  0  0
   -9.1135   51.4838   37.5038 H   0  0  0  0  0  0  0  0  0  0  0  0
  -10.9247   50.3112   36.7337 H   0  0  0  0  0  0  0  0  0  0  0  0
  -11.2812   51.5446   35.4947 H   0  0  0  0  0  0  0  0  0  0  0  0
  -10.7139   49.3337   34.4620 H   0  0  0  0  0  0  0  0  0  0  0  0
   -9.5029   50.5971   34.0303 H   0  0  0  0  0  0  0  0  0  0  0  0
   -8.1682   49.7292   36.1020 H   0  0  0  0  0  0  0  0  0  0  0  0
   -9.2345   48.2859   36.0046 H   0  0  0  0  0  0  0  0  0  0  0  0
   -8.1242   49.1505   33.4071 H   0  0  0  0  0  0  0  0  0  0  0  0
   -6.8875   48.6311   34.6165 H   0  0  0  0  0  0  0  0  0  0  0  0
   -9.0059   46.7238   34.8096 H   0  0  0  0  0  0  0  0  0  0  0  0
   -8.7445   46.9861   33.0496 H   0  0  0  0  0  0  0  0  0  0  0  0
   -6.2951   46.6497   33.4099 H   0  0  0  0  0  0  0  0  0  0  0  0
   -6.6476   46.2591   35.1372 H   0  0  0  0  0  0  0  0  0  0  0  0
   -8.3352   44.4900   34.1005 H   0  0  0  0  0  0  0  0  0  0  0  0
   -7.3209   44.6709   32.6267 H   0  0  0  0  0  0  0  0  0  0  0  0
   -6.1583   43.6434   35.4168 H   0  0  0  0  0  0  0  0  0  0  0  0
   -5.5553   43.3252   32.1384 H   0  0  0  0  0  0  0  0  0  0  0  0
   -3.3041   42.9969   33.8838 H   0  0  0  0  0  0  0  0  0  0  0  0
   -4.4825   42.0353   34.8386 H   0  0  0  0  0  0  0  0  0  0  0  0
   -3.8935   40.2372   33.5581 H   0  0  0  0  0  0  0  0  0  0  0  0
   -4.7290   41.0446   32.1875 H   0  0  0  0  0  0  0  0  0  0  0  0
   -2.3958   42.3926   31.9968 H   0  0  0  0  0  0  0  0  0  0  0  0
   -1.7471   40.9555   32.8495 H   0  0  0  0  0  0  0  0  0  0  0  0
   -3.6305   40.3379   30.5875 H   0  0  0  0  0  0  0  0  0  0  0  0
   -2.0773   41.1171   30.0995 H   0  0  0  0  0  0  0  0  0  0  0  0
   -0.9130   39.2114   30.4671 H   0  0  0  0  0  0  0  0  0  0  0  0
   -1.6453   39.0138   32.1028 H   0  0  0  0  0  0  0  0  0  0  0  0
   -3.1435   37.4834   31.3645 H   0  0  0  0  0  0  0  0  0  0  0  0
   -3.5376   38.4497   29.9024 H   0  0  0  0  0  0  0  0  0  0  0  0
   -2.1070   37.3635   29.9024 H   0  0  0  0  0  0  0  0  0  0  0  0
  2  1  1  0
  4  2  1  0
  8  3  1  0
  3  6  1  0
  5  4  1  0
  6  4  1  0
 25  5  1  0
 25  7  2  0
 10  8  1  0
  8  9  2  0
 11 10  1  0
 12 11  1  0
 13 12  1  0
 13 14  1  0
 15 14  1  0
 15 16  1  0
 16 17  1  0
 18 17  1  0
 18 19  1  0
 19 20  1  0
 20 21  1  0
 21 22  1  0
 22 23  1  0
 23 24  1  0
 26 25  1  0
 27 26  1  0
 28 27  1  0
 29 28  1  0
 30 29  1  0
 31 30  1  0
 32 31  1  0
 33 32  1  0
 34 33  1  0
 35 34  1  0
 36 35  2  0
 36 37  1  0
 38 37  1  0
 38 39  1  0
 40 39  1  0
 40 41  1  0
 41 42  1  0
  1 43  1  0
  2 44  1  0
  2 45  1  0
  4 46  1  0
  6 47  1  0
  6 48  1  0
 10 49  1  0
 10 50  1  0
 11 51  1  0
 11 52  1  0
 12 53  1  0
 12 54  1  0
 13 55  1  0
 13 56  1  0
 14 57  1  0
 14 58  1  0
 15 59  1  0
 15 60  1  0
 16 61  1  0
 16 62  1  0
 17 63  1  0
 17 64  1  0
 18 65  1  0
 18 66  1  0
 19 67  1  0
 19 68  1  0
 20 69  1  0
 20 70  1  0
 21 71  1  0
 21 72  1  0
 22 73  1  0
 22 74  1  0
 23 75  1  0
 23 76  1  0
 24 77  1  0
 24 78  1  0
 24 79  1  0
 26 80  1  0
 26 81  1  0
 27 82  1  0
 27 83  1  0
 28 84  1  0
 28 85  1  0
 29 86  1  0
 29 87  1  0
 30 88  1  0
 30 89  1  0
 31 90  1  0
 31 91  1  0
 32 92  1  0
 32 93  1  0
 33 94  1  0
 33 95  1  0
 34 96  1  0
 34 97  1  0
 35 98  1  0
 36 99  1  0
 37100  1  0
 37101  1  0
 38102  1  0
 38103  1  0
 39104  1  0
 39105  1  0
 40106  1  0
 40107  1  0
 41108  1  0
 41109  1  0
 42110  1  0
 42111  1  0
 42112  1  0
A    1
O1
A    2
C1
A    3
O2
A    4
C2
A    5
O3
A    6
C3
A    7
O4
A    8
C4
A    9
O5
A   10
C5
A   11
C6
A   12
C7
A   13
C8
A   14
C9
A   15
C10
A   16
C11
A   17
C12
A   18
C13
A   19
C14
A   20
C15
A   21
C16
A   22
C17
A   23
C18
A   24
C19
A   25
C20
A   26
C21
A   27
C22
A   28
C23
A   29
C24
A   30
C25
A   31
C26
A   32
C27
A   33
C28
A   34
C29
A   35
C30
A   36
C31
A   37
C32
A   38
C33
A   39
C34
A   40
C35
A   41
C36
A   42
C37
M  END
