4UCC_ZKW_A_301
     RDKit          3D

 28 29  0  0  0  0  0  0  0  0999 V2000
  -21.8460   17.8660  -15.8120 O   0  0  0  0  0  0  0  0  0  0  0  0
  -21.1860   17.6730  -16.8650 C   0  0  0  0  0  0  0  0  0  0  0  0
  -20.0030   17.2470  -16.9130 O   0  0  0  0  0  0  0  0  0  0  0  0
  -21.9210   17.9610  -18.1760 C   0  0  0  0  0  0  0  0  0  0  0  0
  -23.2270   18.3740  -18.3010 C   0  0  0  0  0  0  0  0  0  0  0  0
  -23.4450   18.5340  -19.6660 C   0  0  0  0  0  0  0  0  0  0  0  0
  -24.7460   19.0260  -20.3230 C   0  0  0  0  0  0  0  0  0  0  0  0
  -24.9320   18.7240  -21.5260 O   0  0  0  0  0  0  0  0  0  0  0  0
  -25.5260   19.6990  -19.6070 O   0  0  0  0  0  0  0  0  0  0  0  0
  -22.3440   18.2310  -20.3790 N   0  0  0  0  0  0  0  0  0  0  0  0
  -21.4150   17.8810  -19.4400 N   0  0  0  0  0  0  0  0  0  0  0  0
  -20.0950   17.4430  -19.9030 C   0  0  0  0  0  0  0  0  0  0  0  0
  -20.0090   15.9660  -20.2150 C   0  0  0  0  0  0  0  0  0  0  0  0
  -21.1430   15.1500  -20.1880 C   0  0  0  0  0  0  0  0  0  0  0  0
  -18.8020   15.3570  -20.5390 C   0  0  0  0  0  0  0  0  0  0  0  0
  -17.3630   16.3140  -20.6650 Cl  0  0  0  0  0  0  0  0  0  0  0  0
  -18.6990   14.0080  -20.7990 C   0  0  0  0  0  0  0  0  0  0  0  0
  -19.8500   13.2450  -20.7780 C   0  0  0  0  0  0  0  0  0  0  0  0
  -19.7540   11.5520  -21.1820 Cl  0  0  0  0  0  0  0  0  0  0  0  0
  -21.0730   13.8000  -20.4800 C   0  0  0  0  0  0  0  0  0  0  0  0
  -21.4168   17.7405  -14.9288 H   0  0  0  0  0  0  0  0  0  0  0  0
  -23.9500   18.5430  -17.4894 H   0  0  0  0  0  0  0  0  0  0  0  0
  -25.4367   17.9046  -21.7583 H   0  0  0  0  0  0  0  0  0  0  0  0
  -19.8454   18.0040  -20.8157 H   0  0  0  0  0  0  0  0  0  0  0  0
  -19.3905   17.6350  -19.0803 H   0  0  0  0  0  0  0  0  0  0  0  0
  -22.1159   15.5925  -19.9279 H   0  0  0  0  0  0  0  0  0  0  0  0
  -17.7234   13.5496  -21.0181 H   0  0  0  0  0  0  0  0  0  0  0  0
  -21.9813   13.1795  -20.4741 H   0  0  0  0  0  0  0  0  0  0  0  0
  1  2  1  0
  2  3  2  0
  2  4  1  0
  4  5  2  0
  4 11  1  0
  5  6  1  0
  6  7  1  0
  6 10  2  0
  7  8  1  0
  7  9  2  0
 10 11  1  0
 11 12  1  0
 12 13  1  0
 13 14  2  0
 13 15  1  0
 14 20  1  0
 15 16  1  0
 15 17  2  0
 17 18  1  0
 18 19  1  0
 18 20  2  0
  1 21  1  0
  5 22  1  0
  8 23  1  0
 12 24  1  0
 12 25  1  0
 14 26  1  0
 17 27  1  0
 20 28  1  0
A    1
O3
A    2
C11
A    3
O2
A    4
C7
A    5
C8
A    6
C9
A    7
C10
A    8
O1
A    9
O
A   10
N1
A   11
N
A   12
C6
A   13
C2
A   14
C1
A   15
C3
A   16
CL1
A   17
C4
A   18
C5
A   19
CL
A   20
C
M  END
