4UCE_MZS_A_301
     RDKit          3D

 28 29  0  0  0  0  0  0  0  0999 V2000
  -15.8530   14.6120  -20.6030 F   0  0  0  0  0  0  0  0  0  0  0  0
  -17.1440   14.5540  -20.2010 C   0  0  0  0  0  0  0  0  0  0  0  0
  -17.7380   15.7040  -19.7650 C   0  0  0  0  0  0  0  0  0  0  0  0
  -17.8080   13.3630  -20.2920 C   0  0  0  0  0  0  0  0  0  0  0  0
  -19.1520   13.3390  -19.9640 C   0  0  0  0  0  0  0  0  0  0  0  0
  -19.8010   14.4840  -19.5120 C   0  0  0  0  0  0  0  0  0  0  0  0
  -19.0660   15.6550  -19.3930 C   0  0  0  0  0  0  0  0  0  0  0  0
  -21.2680   14.4550  -19.1500 C   0  0  0  0  0  0  0  0  0  0  0  0
  -22.0130   15.6100  -19.6650 N   0  0  0  0  0  0  0  0  0  0  0  0
  -21.9350   16.7940  -18.9740 N   0  0  0  0  0  0  0  0  0  0  0  0
  -22.7780   17.6150  -19.6250 C   0  0  0  0  0  0  0  0  0  0  0  0
  -23.1790   19.0040  -19.1220 C   0  0  0  0  0  0  0  0  0  0  0  0
  -23.4050   19.8580  -20.0100 O   0  0  0  0  0  0  0  0  0  0  0  0
  -23.2960   19.1840  -17.8830 O   0  0  0  0  0  0  0  0  0  0  0  0
  -23.3490   16.9880  -20.7280 C   0  0  0  0  0  0  0  0  0  0  0  0
  -22.8700   15.7000  -20.7220 C   0  0  0  0  0  0  0  0  0  0  0  0
  -23.3280   14.5690  -21.6650 C   0  0  0  0  0  0  0  0  0  0  0  0
  -23.3730   13.3900  -21.2340 O   0  0  0  0  0  0  0  0  0  0  0  0
  -23.6770   14.9250  -22.8120 O   0  0  0  0  0  0  0  0  0  0  0  0
  -17.1720   16.6457  -19.7117 H   0  0  0  0  0  0  0  0  0  0  0  0
  -17.2887   12.4493  -20.6168 H   0  0  0  0  0  0  0  0  0  0  0  0
  -19.7164   12.4000  -20.0621 H   0  0  0  0  0  0  0  0  0  0  0  0
  -19.5500   16.5593  -18.9955 H   0  0  0  0  0  0  0  0  0  0  0  0
  -21.7126   13.5386  -19.5653 H   0  0  0  0  0  0  0  0  0  0  0  0
  -21.3348   14.4856  -18.0525 H   0  0  0  0  0  0  0  0  0  0  0  0
  -22.8817   18.5466  -17.2489 H   0  0  0  0  0  0  0  0  0  0  0  0
  -24.0427   17.4328  -21.4566 H   0  0  0  0  0  0  0  0  0  0  0  0
  -23.3795   13.2194  -20.2588 H   0  0  0  0  0  0  0  0  0  0  0  0
  1  2  1  0
  2  3  2  0
  2  4  1  0
  3  7  1  0
  4  5  2  0
  5  6  1  0
  6  7  2  0
  6  8  1  0
  8  9  1  0
  9 10  1  0
  9 16  1  0
 10 11  2  0
 11 12  1  0
 11 15  1  0
 12 13  2  0
 12 14  1  0
 15 16  2  0
 16 17  1  0
 17 18  1  0
 17 19  2  0
  3 20  1  0
  4 21  1  0
  5 22  1  0
  7 23  1  0
  8 24  1  0
  8 25  1  0
 14 26  1  0
 15 27  1  0
 18 28  1  0
A    1
F
A    2
C2
A    3
C1
A    4
C3
A    5
C4
A    6
C5
A    7
C
A    8
C6
A    9
N
A   10
N1
A   11
C9
A   12
C10
A   13
O1
A   14
O
A   15
C8
A   16
C7
A   17
C11
A   18
O2
A   19
O3
M  END
