4UCO_D41_A_1318
     RDKit          3D

 41 43  0  0  0  0  0  0  0  0999 V2000
  112.1760   85.9380   28.5990 O   0  0  0  0  0  0  0  0  0  0  0  0
  111.6810   87.0460   28.8500 C   0  0  0  0  0  0  0  0  0  0  0  0
  111.7880   87.6090   30.0520 N   0  0  0  0  0  0  0  0  0  0  0  0
  110.9240   87.7780   27.7810 C   0  0  0  0  0  0  0  0  0  0  0  0
  110.8070   89.1440   27.8220 C   0  0  0  0  0  0  0  0  0  0  0  0
  110.3120   87.0760   26.6010 C   0  0  0  0  0  0  0  0  0  0  0  0
  110.4050   85.7440   26.5170 N   0  0  0  0  0  0  0  0  0  0  0  0
  109.6350   87.7190   25.6560 N   0  0  0  0  0  0  0  0  0  0  0  0
  109.5220   89.0770   25.7500 C   0  0  0  0  0  0  0  0  0  0  0  0
  108.8280   89.6620   24.7300 N   0  0  0  0  0  0  0  0  0  0  0  0
  108.6930   90.9840   24.8160 C   0  0  0  0  0  0  0  0  0  0  0  0
  107.8840   91.6220   23.6530 C   0  0  0  0  0  0  0  0  0  0  0  0
  107.8080   93.1510   23.7510 C   0  0  0  0  0  0  0  0  0  0  0  0
  106.4490   91.0710   23.6180 C   0  0  0  0  0  0  0  0  0  0  0  0
  108.5400   91.2760   22.3110 C   0  0  0  0  0  0  0  0  0  0  0  0
  110.0750   89.8250   26.8210 C   0  0  0  0  0  0  0  0  0  0  0  0
  109.8500   91.2430   26.7680 C   0  0  0  0  0  0  0  0  0  0  0  0
  109.1660   91.8080   25.7550 N   0  0  0  0  0  0  0  0  0  0  0  0
  110.3360   92.2470   27.7240 C   0  0  0  0  0  0  0  0  0  0  0  0
  110.0330   93.5580   27.4480 N   0  0  0  0  0  0  0  0  0  0  0  0
  110.5670   94.3630   28.4000 C   0  0  0  0  0  0  0  0  0  0  0  0
  111.2080   93.5840   29.3150 C   0  0  0  0  0  0  0  0  0  0  0  0
  111.1030   92.2520   28.8780 C   0  0  0  0  0  0  0  0  0  0  0  0
  111.6790   87.0357   30.9008 H   0  0  0  0  0  0  0  0  0  0  0  0
  111.9797   88.6178   30.1330 H   0  0  0  0  0  0  0  0  0  0  0  0
  111.2834   89.7114   28.6351 H   0  0  0  0  0  0  0  0  0  0  0  0
  110.4447   85.1754   27.3749 H   0  0  0  0  0  0  0  0  0  0  0  0
  110.4369   85.2871   25.5944 H   0  0  0  0  0  0  0  0  0  0  0  0
  107.7931   93.4503   24.8094 H   0  0  0  0  0  0  0  0  0  0  0  0
  108.6852   93.5941   23.2569 H   0  0  0  0  0  0  0  0  0  0  0  0
  106.8912   93.5050   23.2569 H   0  0  0  0  0  0  0  0  0  0  0  0
  106.0848   90.9311   24.6465 H   0  0  0  0  0  0  0  0  0  0  0  0
  105.7959   91.7823   23.0912 H   0  0  0  0  0  0  0  0  0  0  0  0
  106.4398   90.1054   23.0912 H   0  0  0  0  0  0  0  0  0  0  0  0
  109.4997   90.7698   22.4917 H   0  0  0  0  0  0  0  0  0  0  0  0
  107.8764   90.6106   21.7393 H   0  0  0  0  0  0  0  0  0  0  0  0
  108.7144   92.1994   21.7393 H   0  0  0  0  0  0  0  0  0  0  0  0
  109.4828   93.8812   26.6394 H   0  0  0  0  0  0  0  0  0  0  0  0
  110.4946   95.4602   28.4283 H   0  0  0  0  0  0  0  0  0  0  0  0
  111.7142   93.9326   30.2272 H   0  0  0  0  0  0  0  0  0  0  0  0
  111.5493   91.3722   29.3645 H   0  0  0  0  0  0  0  0  0  0  0  0
  1  2  2  0
  2  3  1  0
  2  4  1  0
  4  5  2  0
  4  6  1  0
  5 16  1  0
  6  7  1  0
  6  8  2  0
  8  9  1  0
  9 10  1  0
  9 16  2  0
 10 11  2  0
 11 12  1  0
 11 18  1  0
 12 13  1  0
 12 14  1  0
 12 15  1  0
 16 17  1  0
 17 18  2  0
 17 19  1  0
 19 20  1  0
 19 23  2  0
 20 21  1  0
 21 22  2  0
 22 23  1  0
  3 24  1  0
  3 25  1  0
  5 26  1  0
  7 27  1  0
  7 28  1  0
 13 29  1  0
 13 30  1  0
 13 31  1  0
 14 32  1  0
 14 33  1  0
 14 34  1  0
 15 35  1  0
 15 36  1  0
 15 37  1  0
 20 38  1  0
 21 39  1  0
 22 40  1  0
 23 41  1  0
A    1
O
A    2
C13
A    3
N2
A    4
C12
A    5
C11
A    6
C14
A    7
N3
A    8
N4
A    9
C15
A   10
N5
A   11
C4
A   12
C1
A   13
C3
A   14
C2
A   15
C
A   16
C10
A   17
C5
A   18
N
A   19
C6
A   20
N1
A   21
C9
A   22
C8
A   23
C7
M  END
