4UCR_JCF_A_1319
     RDKit          3D

 25 26  0  0  0  0  0  0  0  0999 V2000
   17.3440   94.6070   14.9730 O   0  0  0  0  0  0  0  0  0  0  0  0
   18.5110   94.9750   15.1550 C   0  0  0  0  0  0  0  0  0  0  0  0
   19.1110   94.8600   16.3280 N   0  0  0  0  0  0  0  0  0  0  0  0
   19.2780   95.6120   14.0190 C   0  0  0  0  0  0  0  0  0  0  0  0
   20.6460   95.7470   14.0570 C   0  0  0  0  0  0  0  0  0  0  0  0
   18.5520   96.1030   12.9310 C   0  0  0  0  0  0  0  0  0  0  0  0
   19.1930   96.7450   11.8980 C   0  0  0  0  0  0  0  0  0  0  0  0
   18.4840   97.1600   10.8220 O   0  0  0  0  0  0  0  0  0  0  0  0
   20.6060   96.9100   11.9220 C   0  0  0  0  0  0  0  0  0  0  0  0
   21.3360   96.4130   13.0260 C   0  0  0  0  0  0  0  0  0  0  0  0
   22.7390   96.5610   12.9880 C   0  0  0  0  0  0  0  0  0  0  0  0
   23.3320   97.1720   11.9240 C   0  0  0  0  0  0  0  0  0  0  0  0
   21.2200   97.5130   10.8440 N   0  0  0  0  0  0  0  0  0  0  0  0
   22.5440   97.6350   10.8540 C   0  0  0  0  0  0  0  0  0  0  0  0
   23.1700   98.3610    9.7000 C   0  0  0  0  0  0  0  0  0  0  0  0
   18.5676   94.9641   17.1968 H   0  0  0  0  0  0  0  0  0  0  0  0
   20.1216   94.6663   16.3727 H   0  0  0  0  0  0  0  0  0  0  0  0
   21.2090   95.3289   14.9045 H   0  0  0  0  0  0  0  0  0  0  0  0
   17.4599   95.9750   12.9007 H   0  0  0  0  0  0  0  0  0  0  0  0
   17.6366   97.6560   10.9489 H   0  0  0  0  0  0  0  0  0  0  0  0
   23.3543   96.1829   13.8178 H   0  0  0  0  0  0  0  0  0  0  0  0
   24.4239   97.3029   11.9016 H   0  0  0  0  0  0  0  0  0  0  0  0
   23.8439   99.1426   10.0806 H   0  0  0  0  0  0  0  0  0  0  0  0
   23.7427   97.6498    9.0866 H   0  0  0  0  0  0  0  0  0  0  0  0
   22.3823   98.8229    9.0866 H   0  0  0  0  0  0  0  0  0  0  0  0
  1  2  2  0
  2  3  1  0
  2  4  1  0
  4  5  2  0
  4  6  1  0
  5 10  1  0
  6  7  2  0
  7  8  1  0
  7  9  1  0
  9 10  2  0
  9 13  1  0
 10 11  1  0
 11 12  2  0
 12 14  1  0
 13 14  2  0
 14 15  1  0
  3 16  1  0
  3 17  1  0
  5 18  1  0
  6 19  1  0
  8 20  1  0
 11 21  1  0
 12 22  1  0
 15 23  1  0
 15 24  1  0
 15 25  1  0
A    1
O1
A    2
C10
A    3
N1
A    4
C6
A    5
C5
A    6
C7
A    7
C8
A    8
O
A    9
C9
A   10
C4
A   11
C3
A   12
C2
A   13
N
A   14
C1
A   15
C
M  END
