4UDW_N6L_H_1249
     RDKit          3D

 51 53  0  0  0  0  0  0  0  0999 V2000
  125.4440  -14.0490  163.9950 C   0  0  0  0  0  0  0  0  0  0  0  0
  131.0460  -15.8180  163.9040 N   0  0  0  0  0  0  0  0  0  0  0  0
  128.8740  -15.3430  162.1720 O   0  0  0  0  0  0  0  0  0  0  0  0
  125.4320  -15.4460  162.9250 Cl  0  0  0  0  0  0  0  0  0  0  0  0
  126.3400  -13.0390  163.7840 C   0  0  0  0  0  0  0  0  0  0  0  0
  129.3390  -15.5610  165.3200 O   0  0  0  0  0  0  0  0  0  0  0  0
  125.2880  -10.5270  166.7070 Cl  0  0  0  0  0  0  0  0  0  0  0  0
  127.3250  -13.0050  162.6550 C   0  0  0  0  0  0  0  0  0  0  0  0
  128.6980  -13.2740  163.0550 N   0  0  0  0  0  0  0  0  0  0  0  0
  126.2650  -11.9620  164.6410 C   0  0  0  0  0  0  0  0  0  0  0  0
  129.1590  -18.2780  165.4930 N   0  0  0  0  0  0  0  0  0  0  0  0
  125.3340  -11.9310  165.6510 C   0  0  0  0  0  0  0  0  0  0  0  0
  124.4390  -12.9560  165.8800 C   0  0  0  0  0  0  0  0  0  0  0  0
  124.4960  -14.0180  165.0080 C   0  0  0  0  0  0  0  0  0  0  0  0
  129.3780  -14.4040  162.8000 C   0  0  0  0  0  0  0  0  0  0  0  0
  132.1540  -16.5050  163.2300 C   0  0  0  0  0  0  0  0  0  0  0  0
  130.7900  -14.4770  163.3120 C   0  0  0  0  0  0  0  0  0  0  0  0
  131.8250  -14.3550  162.1940 C   0  0  0  0  0  0  0  0  0  0  0  0
  132.8980  -15.3900  162.5100 C   0  0  0  0  0  0  0  0  0  0  0  0
  130.2550  -16.2750  164.8850 C   0  0  0  0  0  0  0  0  0  0  0  0
  130.4800  -17.6630  165.4670 C   0  0  0  0  0  0  0  0  0  0  0  0
  131.0560  -17.5730  166.8830 C   0  0  0  0  0  0  0  0  0  0  0  0
  135.0390  -15.9950  167.0680 C   0  0  0  0  0  0  0  0  0  0  0  0
  134.0000  -15.3280  167.7200 C   0  0  0  0  0  0  0  0  0  0  0  0
  132.7070  -15.8370  167.6620 C   0  0  0  0  0  0  0  0  0  0  0  0
  132.4480  -17.0120  166.9450 C   0  0  0  0  0  0  0  0  0  0  0  0
  133.4840  -17.6820  166.3030 C   0  0  0  0  0  0  0  0  0  0  0  0
  134.7660  -17.1660  166.3740 C   0  0  0  0  0  0  0  0  0  0  0  0
  127.0269  -13.7611  161.9138 H   0  0  0  0  0  0  0  0  0  0  0  0
  127.3076  -11.9824  162.2501 H   0  0  0  0  0  0  0  0  0  0  0  0
  129.1900  -12.5355  163.5779 H   0  0  0  0  0  0  0  0  0  0  0  0
  126.9585  -11.1176  164.5148 H   0  0  0  0  0  0  0  0  0  0  0  0
  128.8635  -18.4156  166.4701 H   0  0  0  0  0  0  0  0  0  0  0  0
  128.4850  -17.6641  165.0137 H   0  0  0  0  0  0  0  0  0  0  0  0
  123.7208  -12.9254  166.7126 H   0  0  0  0  0  0  0  0  0  0  0  0
  123.7842  -14.8498  165.1144 H   0  0  0  0  0  0  0  0  0  0  0  0
  132.8081  -17.0021  163.9615 H   0  0  0  0  0  0  0  0  0  0  0  0
  131.8082  -17.2931  162.5449 H   0  0  0  0  0  0  0  0  0  0  0  0
  130.8859  -13.6512  164.0323 H   0  0  0  0  0  0  0  0  0  0  0  0
  131.3628  -14.5674  161.2187 H   0  0  0  0  0  0  0  0  0  0  0  0
  132.2444  -13.3396  162.1383 H   0  0  0  0  0  0  0  0  0  0  0  0
  133.6745  -14.9589  163.1590 H   0  0  0  0  0  0  0  0  0  0  0  0
  133.4126  -15.7474  161.6059 H   0  0  0  0  0  0  0  0  0  0  0  0
  131.1995  -18.2454  164.8727 H   0  0  0  0  0  0  0  0  0  0  0  0
  130.3970  -16.9288  167.4836 H   0  0  0  0  0  0  0  0  0  0  0  0
  131.1114  -18.6017  167.2686 H   0  0  0  0  0  0  0  0  0  0  0  0
  136.0637  -15.5966  167.1039 H   0  0  0  0  0  0  0  0  0  0  0  0
  134.2036  -14.4022  168.2781 H   0  0  0  0  0  0  0  0  0  0  0  0
  131.8875  -15.3166  168.1794 H   0  0  0  0  0  0  0  0  0  0  0  0
  133.2869  -18.6099  165.7461 H   0  0  0  0  0  0  0  0  0  0  0  0
  135.5874  -17.6956  165.8691 H   0  0  0  0  0  0  0  0  0  0  0  0
  1  4  1  0
  1  5  2  0
  1 14  1  0
  2 16  1  0
  2 17  1  0
  2 20  1  0
  3 15  2  0
  5  8  1  0
  5 10  1  0
  6 20  2  0
  7 12  1  0
  8  9  1  0
  9 15  1  0
 10 12  2  0
 11 21  1  0
 12 13  1  0
 13 14  2  0
 15 17  1  0
 16 19  1  0
 17 18  1  0
 18 19  1  0
 20 21  1  0
 21 22  1  0
 22 26  1  0
 23 24  2  0
 23 28  1  0
 24 25  1  0
 25 26  2  0
 26 27  1  0
 27 28  2  0
  8 29  1  0
  8 30  1  0
  9 31  1  0
 10 32  1  0
 11 33  1  0
 11 34  1  0
 13 35  1  0
 14 36  1  0
 16 37  1  0
 16 38  1  0
 17 39  1  0
 18 40  1  0
 18 41  1  0
 19 42  1  0
 19 43  1  0
 21 44  1  0
 22 45  1  0
 22 46  1  0
 23 47  1  0
 24 48  1  0
 25 49  1  0
 27 50  1  0
 28 51  1  0
A    1
C
A    2
N
A    3
O
A    4
CL
A    5
C1
A    6
O1
A    7
CL1
A    8
C2
A    9
N2
A   10
C3
A   11
N3
A   12
C4
A   13
C5
A   14
C6
A   15
C7
A   16
C8
A   17
C9
A   18
C10
A   19
C11
A   20
C12
A   21
C13
A   22
C14
A   23
C15
A   24
C16
A   25
C17
A   26
C18
A   27
C19
A   28
C20
M  END
