4UFD_S49_H_1251
     RDKit          3D

 72 75  0  0  0  0  0  0  0  0999 V2000
   14.9350  -15.2980   21.3710 C   0  0  0  0  0  0  0  0  0  0  0  0
   15.6010  -16.6010   22.1940 S   0  0  0  0  0  0  0  0  0  0  0  0
   13.9310  -15.7110   20.3170 C   0  0  0  0  0  0  0  0  0  0  0  0
   14.3520  -16.1100   19.0500 C   0  0  0  0  0  0  0  0  0  0  0  0
   13.4130  -16.4900   18.0910 C   0  0  0  0  0  0  0  0  0  0  0  0
   12.0560  -16.4650   18.3960 C   0  0  0  0  0  0  0  0  0  0  0  0
   11.6380  -16.0590   19.6600 C   0  0  0  0  0  0  0  0  0  0  0  0
   12.5720  -15.6780   20.6190 C   0  0  0  0  0  0  0  0  0  0  0  0
   16.4820  -17.3380   21.3400 O   0  0  0  0  0  0  0  0  0  0  0  0
   14.5240  -17.3680   22.7490 O   0  0  0  0  0  0  0  0  0  0  0  0
   18.5840  -13.7780   21.7470 N   0  0  0  0  0  0  0  0  0  0  0  0
   18.5100  -12.4580   21.1150 C   0  0  0  0  0  0  0  0  0  0  0  0
   17.2190  -12.2760   20.3710 C   0  0  0  0  0  0  0  0  0  0  0  0
   16.7460  -13.1930   19.7120 O   0  0  0  0  0  0  0  0  0  0  0  0
   19.6630  -12.4160   20.1220 C   0  0  0  0  0  0  0  0  0  0  0  0
   20.5040  -13.6510   20.3680 C   0  0  0  0  0  0  0  0  0  0  0  0
   19.6600  -14.6080   21.1940 C   0  0  0  0  0  0  0  0  0  0  0  0
   16.4370  -16.0370   23.4480 N   0  0  0  0  0  0  0  0  0  0  0  0
   17.7640  -15.4560   23.3260 C   0  0  0  0  0  0  0  0  0  0  0  0
   17.6920  -14.0980   22.6830 C   0  0  0  0  0  0  0  0  0  0  0  0
   16.8280  -13.3070   23.0510 O   0  0  0  0  0  0  0  0  0  0  0  0
   18.3530  -15.3500   24.7380 C   0  0  0  0  0  0  0  0  0  0  0  0
   19.7600  -14.7830   24.7630 C   0  0  0  0  0  0  0  0  0  0  0  0
   19.9740  -13.5190   25.3010 C   0  0  0  0  0  0  0  0  0  0  0  0
   20.8420  -15.5100   24.2660 C   0  0  0  0  0  0  0  0  0  0  0  0
   21.2540  -12.9800   25.3350 C   0  0  0  0  0  0  0  0  0  0  0  0
   22.1250  -14.9660   24.3080 C   0  0  0  0  0  0  0  0  0  0  0  0
   22.3380  -13.7000   24.8400 C   0  0  0  0  0  0  0  0  0  0  0  0
   16.6100  -11.0980   20.4800 N   0  0  0  0  0  0  0  0  0  0  0  0
   15.3510  -10.7700   19.8290 C   0  0  0  0  0  0  0  0  0  0  0  0
   14.2450  -10.7760   20.8570 C   0  0  0  0  0  0  0  0  0  0  0  0
   13.9140   -9.6190   21.5460 C   0  0  0  0  0  0  0  0  0  0  0  0
   12.9020   -9.6430   22.4940 C   0  0  0  0  0  0  0  0  0  0  0  0
   12.2200  -10.8150   22.7650 C   0  0  0  0  0  0  0  0  0  0  0  0
   11.1280  -10.8130   23.7910 C   0  0  0  0  0  0  0  0  0  0  0  0
   10.5020  -11.8840   24.0710 N   0  0  0  0  0  0  0  0  0  0  0  0
   10.8290   -9.7310   24.3740 N   0  0  0  0  0  0  0  0  0  0  0  0
   12.5510  -11.9750   22.0750 C   0  0  0  0  0  0  0  0  0  0  0  0
   13.5610  -11.9500   21.1270 C   0  0  0  0  0  0  0  0  0  0  0  0
   14.4301  -14.6456   22.0986 H   0  0  0  0  0  0  0  0  0  0  0  0
   15.7577  -14.7812   20.8552 H   0  0  0  0  0  0  0  0  0  0  0  0
   15.4245  -16.1253   18.8061 H   0  0  0  0  0  0  0  0  0  0  0  0
   13.7459  -16.8098   17.0925 H   0  0  0  0  0  0  0  0  0  0  0  0
   11.3153  -16.7653   17.6402 H   0  0  0  0  0  0  0  0  0  0  0  0
   10.5651  -16.0392   19.9020 H   0  0  0  0  0  0  0  0  0  0  0  0
   12.2370  -15.3512   21.6145 H   0  0  0  0  0  0  0  0  0  0  0  0
   18.5651  -11.6627   21.8730 H   0  0  0  0  0  0  0  0  0  0  0  0
   19.2754  -12.4217   19.0926 H   0  0  0  0  0  0  0  0  0  0  0  0
   20.2605  -11.5017   20.2525 H   0  0  0  0  0  0  0  0  0  0  0  0
   20.7770  -14.1186   19.4105 H   0  0  0  0  0  0  0  0  0  0  0  0
   21.4340  -13.3931   20.8958 H   0  0  0  0  0  0  0  0  0  0  0  0
   20.2588  -15.0544   22.0015 H   0  0  0  0  0  0  0  0  0  0  0  0
   19.2723  -15.4438   20.5931 H   0  0  0  0  0  0  0  0  0  0  0  0
   15.8478  -15.3082   23.8754 H   0  0  0  0  0  0  0  0  0  0  0  0
   18.4005  -16.0876   22.6889 H   0  0  0  0  0  0  0  0  0  0  0  0
   18.3744  -16.3556   25.1833 H   0  0  0  0  0  0  0  0  0  0  0  0
   17.7138  -14.6575   25.3053 H   0  0  0  0  0  0  0  0  0  0  0  0
   19.1264  -12.9434   25.7014 H   0  0  0  0  0  0  0  0  0  0  0  0
   20.6829  -16.5121   23.8411 H   0  0  0  0  0  0  0  0  0  0  0  0
   21.4123  -11.9763   25.7564 H   0  0  0  0  0  0  0  0  0  0  0  0
   22.9755  -15.5436   23.9169 H   0  0  0  0  0  0  0  0  0  0  0  0
   23.3508  -13.2719   24.8697 H   0  0  0  0  0  0  0  0  0  0  0  0
   17.0572  -10.3743   21.0606 H   0  0  0  0  0  0  0  0  0  0  0  0
   15.4224   -9.7724   19.3711 H   0  0  0  0  0  0  0  0  0  0  0  0
   15.1339  -11.5134   19.0478 H   0  0  0  0  0  0  0  0  0  0  0  0
   14.4538   -8.6828   21.3408 H   0  0  0  0  0  0  0  0  0  0  0  0
   12.6396   -8.7218   23.0350 H   0  0  0  0  0  0  0  0  0  0  0  0
    9.7528  -11.8729   24.7777 H   0  0  0  0  0  0  0  0  0  0  0  0
   10.8168   -9.6867   25.4030 H   0  0  0  0  0  0  0  0  0  0  0  0
   10.5978   -8.8942   23.8198 H   0  0  0  0  0  0  0  0  0  0  0  0
   12.0120  -12.9115   22.2812 H   0  0  0  0  0  0  0  0  0  0  0  0
   13.8220  -12.8703   20.5840 H   0  0  0  0  0  0  0  0  0  0  0  0
  1  2  1  0
  1  3  1  0
  2  9  2  0
  2 10  2  0
  2 18  1  0
  3  4  2  0
  3  8  1  0
  4  5  1  0
  5  6  2  0
  6  7  1  0
  7  8  2  0
 23 24  2  0
 23 25  1  0
 23 22  1  0
 24 26  1  0
 26 28  2  0
 28 27  1  0
 27 25  2  0
 18 19  1  0
 19 22  1  0
 19 20  1  0
 20 21  2  0
 20 11  1  0
 11 12  1  0
 11 17  1  0
 12 13  1  0
 12 15  1  0
 13 14  2  0
 13 29  1  0
 15 16  1  0
 16 17  1  0
 29 30  1  0
 30 31  1  0
 31 32  2  0
 31 39  1  0
 32 33  1  0
 33 34  2  0
 34 35  1  0
 34 38  1  0
 35 37  1  0
 35 36  2  3
 38 39  2  0
  1 40  1  0
  1 41  1  0
  4 42  1  0
  5 43  1  0
  6 44  1  0
  7 45  1  0
  8 46  1  0
 12 47  1  0
 15 48  1  0
 15 49  1  0
 16 50  1  0
 16 51  1  0
 17 52  1  0
 17 53  1  0
 18 54  1  0
 19 55  1  0
 22 56  1  0
 22 57  1  0
 24 58  1  0
 25 59  1  0
 26 60  1  0
 27 61  1  0
 28 62  1  0
 29 63  1  0
 30 64  1  0
 30 65  1  0
 32 66  1  0
 33 67  1  0
 36 68  1  0
 37 69  1  0
 37 70  1  0
 38 71  1  0
 39 72  1  0
A    1
C7
A    2
S8
A    3
C4
A    4
C5
A    5
C6
A    6
C1
A    7
C2
A    8
C3
A    9
O12
A   10
O13
A   11
N21
A   12
C22
A   13
C26
A   14
O30
A   15
C23
A   16
C24
A   17
C25
A   18
N9
A   19
C10
A   20
C11
A   21
O31
A   22
C14
A   23
C15
A   24
C16
A   25
C20
A   26
C17
A   27
C19
A   28
C18
A   29
N27
A   30
C28
A   31
C29
A   32
C33
A   33
C34
A   34
C35
A   35
C37
A   36
N39
A   37
N38
A   38
C36
A   39
C32
M  END
