4UFF_6V2_H_1248
     RDKit          3D

 68 70  0  0  0  0  0  0  0  0999 V2000
   60.7020  -10.8340  164.3840 O   0  0  0  0  0  0  0  0  0  0  0  0
   59.7630  -10.0050  165.0800 S   0  0  0  0  0  0  0  0  0  0  0  0
   58.6490  -10.6100  165.7420 O   0  0  0  0  0  0  0  0  0  0  0  0
   59.1070   -8.7900  163.9520 C   0  0  0  0  0  0  0  0  0  0  0  0
   58.0140   -9.3510  163.0820 C   0  0  0  0  0  0  0  0  0  0  0  0
   58.3140  -10.2000  162.0310 C   0  0  0  0  0  0  0  0  0  0  0  0
   57.3070  -10.7210  161.2360 C   0  0  0  0  0  0  0  0  0  0  0  0
   55.9910  -10.3990  161.4850 C   0  0  0  0  0  0  0  0  0  0  0  0
   55.6820   -9.5540  162.5290 C   0  0  0  0  0  0  0  0  0  0  0  0
   56.6880   -9.0320  163.3230 C   0  0  0  0  0  0  0  0  0  0  0  0
   60.5930   -9.2020  166.2150 N   0  0  0  0  0  0  0  0  0  0  0  0
   61.9660   -8.7180  166.1090 C   0  0  0  0  0  0  0  0  0  0  0  0
   62.5450   -8.5320  167.5200 C   0  0  0  0  0  0  0  0  0  0  0  0
   63.9180   -7.9080  167.5240 C   0  0  0  0  0  0  0  0  0  0  0  0
   64.1090   -6.6210  167.9980 C   0  0  0  0  0  0  0  0  0  0  0  0
   65.3630   -6.0370  167.9760 C   0  0  0  0  0  0  0  0  0  0  0  0
   66.4450   -6.7360  167.4870 C   0  0  0  0  0  0  0  0  0  0  0  0
   66.2720   -8.0210  167.0240 C   0  0  0  0  0  0  0  0  0  0  0  0
   65.0170   -8.6050  167.0420 C   0  0  0  0  0  0  0  0  0  0  0  0
   61.8500   -7.3590  165.4160 C   0  0  0  0  0  0  0  0  0  0  0  0
   60.9670   -6.5860  165.7500 O   0  0  0  0  0  0  0  0  0  0  0  0
   62.7460   -7.0130  164.4670 N   0  0  0  0  0  0  0  0  0  0  0  0
   63.8230   -7.8800  164.0040 C   0  0  0  0  0  0  0  0  0  0  0  0
   62.6620   -5.6950  163.8590 C   0  0  0  0  0  0  0  0  0  0  0  0
   61.3770   -5.5420  163.0660 C   0  0  0  0  0  0  0  0  0  0  0  0
   60.9090   -6.4780  162.4230 O   0  0  0  0  0  0  0  0  0  0  0  0
   60.7940   -4.3500  163.1280 N   0  0  0  0  0  0  0  0  0  0  0  0
   59.5260   -4.1090  162.4550 C   0  0  0  0  0  0  0  0  0  0  0  0
   58.3500   -4.0740  163.4010 C   0  0  0  0  0  0  0  0  0  0  0  0
   57.8550   -2.8670  163.8620 C   0  0  0  0  0  0  0  0  0  0  0  0
   56.8270   -2.8240  164.7850 C   0  0  0  0  0  0  0  0  0  0  0  0
   56.2550   -3.9940  165.2690 C   0  0  0  0  0  0  0  0  0  0  0  0
   55.1600   -3.9370  166.2600 C   0  0  0  0  0  0  0  0  0  0  0  0
   54.8170   -2.8600  166.8730 N   0  0  0  0  0  0  0  0  0  0  0  0
   54.4880   -5.0640  166.5210 N   0  0  0  0  0  0  0  0  0  0  0  0
   56.7420   -5.2110  164.7950 C   0  0  0  0  0  0  0  0  0  0  0  0
   57.7740   -5.2440  163.8730 C   0  0  0  0  0  0  0  0  0  0  0  0
   58.7001   -7.9500  164.5340 H   0  0  0  0  0  0  0  0  0  0  0  0
   59.9264   -8.4631  163.2949 H   0  0  0  0  0  0  0  0  0  0  0  0
   59.3620  -10.4633  161.8253 H   0  0  0  0  0  0  0  0  0  0  0  0
   57.5587  -11.3940  160.4031 H   0  0  0  0  0  0  0  0  0  0  0  0
   55.1912  -10.8140  160.8541 H   0  0  0  0  0  0  0  0  0  0  0  0
   54.6326   -9.2937  162.7317 H   0  0  0  0  0  0  0  0  0  0  0  0
   56.4321   -8.3574  164.1533 H   0  0  0  0  0  0  0  0  0  0  0  0
   60.0289   -8.3640  166.4161 H   0  0  0  0  0  0  0  0  0  0  0  0
   62.6198   -9.4108  165.5590 H   0  0  0  0  0  0  0  0  0  0  0  0
   61.8655   -7.8845  168.0936 H   0  0  0  0  0  0  0  0  0  0  0  0
   62.6405   -9.5323  167.9674 H   0  0  0  0  0  0  0  0  0  0  0  0
   63.2534   -6.0562  168.3968 H   0  0  0  0  0  0  0  0  0  0  0  0
   65.4967   -5.0113  168.3501 H   0  0  0  0  0  0  0  0  0  0  0  0
   67.4412   -6.2701  167.4666 H   0  0  0  0  0  0  0  0  0  0  0  0
   67.1338   -8.5855  166.6385 H   0  0  0  0  0  0  0  0  0  0  0  0
   64.8895   -9.6324  166.6703 H   0  0  0  0  0  0  0  0  0  0  0  0
   64.3504   -8.3045  164.8710 H   0  0  0  0  0  0  0  0  0  0  0  0
   63.4024   -8.6944  163.3959 H   0  0  0  0  0  0  0  0  0  0  0  0
   64.5288   -7.2952  163.3959 H   0  0  0  0  0  0  0  0  0  0  0  0
   62.6892   -4.9315  164.6504 H   0  0  0  0  0  0  0  0  0  0  0  0
   63.5134   -5.5706  163.1736 H   0  0  0  0  0  0  0  0  0  0  0  0
   61.2434   -3.5892  163.6572 H   0  0  0  0  0  0  0  0  0  0  0  0
   59.5847   -3.1421  161.9337 H   0  0  0  0  0  0  0  0  0  0  0  0
   59.3611   -4.9438  161.7579 H   0  0  0  0  0  0  0  0  0  0  0  0
   58.2864   -1.9268  163.4880 H   0  0  0  0  0  0  0  0  0  0  0  0
   56.4571   -1.8511  165.1409 H   0  0  0  0  0  0  0  0  0  0  0  0
   54.0451   -2.8790  167.5547 H   0  0  0  0  0  0  0  0  0  0  0  0
   54.3184   -5.3484  167.4963 H   0  0  0  0  0  0  0  0  0  0  0  0
   54.1402   -5.6473  165.7466 H   0  0  0  0  0  0  0  0  0  0  0  0
   56.3028   -6.1525  165.1564 H   0  0  0  0  0  0  0  0  0  0  0  0
   58.1433   -6.2140  163.5088 H   0  0  0  0  0  0  0  0  0  0  0  0
  1  2  2  0
  2  3  2  0
  2  4  1  0
  2 11  1  0
  4  5  1  0
  5  6  2  0
  5 10  1  0
  6  7  1  0
  7  8  2  0
  8  9  1  0
  9 10  2  0
 11 12  1  0
 12 13  1  0
 12 20  1  0
 13 14  1  0
 14 15  2  0
 14 19  1  0
 15 16  1  0
 16 17  2  0
 17 18  1  0
 18 19  2  0
 20 21  2  0
 20 22  1  0
 22 23  1  0
 22 24  1  0
 24 25  1  0
 25 26  2  0
 25 27  1  0
 27 28  1  0
 28 29  1  0
 29 30  2  0
 29 37  1  0
 30 31  1  0
 31 32  2  0
 32 33  1  0
 32 36  1  0
 33 34  2  3
 33 35  1  0
 36 37  2  0
  4 38  1  0
  4 39  1  0
  6 40  1  0
  7 41  1  0
  8 42  1  0
  9 43  1  0
 10 44  1  0
 11 45  1  0
 12 46  1  0
 13 47  1  0
 13 48  1  0
 15 49  1  0
 16 50  1  0
 17 51  1  0
 18 52  1  0
 19 53  1  0
 23 54  1  0
 23 55  1  0
 23 56  1  0
 24 57  1  0
 24 58  1  0
 27 59  1  0
 28 60  1  0
 28 61  1  0
 30 62  1  0
 31 63  1  0
 34 64  1  0
 35 65  1  0
 35 66  1  0
 36 67  1  0
 37 68  1  0
A    1
O3
A    2
S
A    3
O2
A    4
C20
A    5
C21
A    6
C26
A    7
C25
A    8
C24
A    9
C23
A   10
C22
A   11
N4
A   12
C12
A   13
C13
A   14
C14
A   15
C19
A   16
C18
A   17
C17
A   18
C16
A   19
C15
A   20
C11
A   21
O1
A   22
N
A   23
C
A   24
C1
A   25
C2
A   26
O
A   27
N1
A   28
C3
A   29
C4
A   30
C9
A   31
C8
A   32
C7
A   33
C10
A   34
N3
A   35
N2
A   36
C6
A   37
C5
M  END
