4CU7_GIF_A_1985
     RDKit          3D

 23 23  0  0  0  0  0  0  0  0999 V2000
   97.7760   12.9180    8.2260 C   0  0  0  0  0  0  0  0  0  0  0  0
   98.1620   11.5050    8.2510 N   0  0  0  0  0  0  0  0  0  0  0  0
   99.1260    9.2300    4.6450 O   0  0  0  0  0  0  0  0  0  0  0  0
   97.1350   13.2520    6.8730 C   0  0  0  0  0  0  0  0  0  0  0  0
   99.2670   13.4340    5.6210 O   0  0  0  0  0  0  0  0  0  0  0  0
   97.9920   12.7470    5.6820 C   0  0  0  0  0  0  0  0  0  0  0  0
   96.9120   14.6650    6.7860 O   0  0  0  0  0  0  0  0  0  0  0  0
   98.1890   11.2460    5.7880 C   0  0  0  0  0  0  0  0  0  0  0  0
   98.9110   10.9610    7.1120 C   0  0  0  0  0  0  0  0  0  0  0  0
   98.9400   10.6710    4.5760 C   0  0  0  0  0  0  0  0  0  0  0  0
   97.0536   13.1145    9.0319 H   0  0  0  0  0  0  0  0  0  0  0  0
   98.6691   13.5435    8.3717 H   0  0  0  0  0  0  0  0  0  0  0  0
   98.7413   11.3633    9.0908 H   0  0  0  0  0  0  0  0  0  0  0  0
   99.1625    8.9470    5.5930 H   0  0  0  0  0  0  0  0  0  0  0  0
   96.1702   12.7275    6.8093 H   0  0  0  0  0  0  0  0  0  0  0  0
   99.5918   13.6090    6.5397 H   0  0  0  0  0  0  0  0  0  0  0  0
   97.4552   12.9698    4.7481 H   0  0  0  0  0  0  0  0  0  0  0  0
   96.8518   15.0463    7.6976 H   0  0  0  0  0  0  0  0  0  0  0  0
   97.2122   10.7402    5.7827 H   0  0  0  0  0  0  0  0  0  0  0  0
   99.9084   11.4240    7.0840 H   0  0  0  0  0  0  0  0  0  0  0  0
   98.9935    9.8712    7.2370 H   0  0  0  0  0  0  0  0  0  0  0  0
   99.9294   11.1484    4.5197 H   0  0  0  0  0  0  0  0  0  0  0  0
   98.3284   10.8783    3.6855 H   0  0  0  0  0  0  0  0  0  0  0  0
  1  2  1  0
  1  4  1  0
  2  9  1  0
  3 10  1  0
  4  6  1  0
  4  7  1  0
  5  6  1  0
  6  8  1  0
  8  9  1  0
  8 10  1  0
  1 11  1  0
  1 12  1  0
  2 13  1  0
  3 14  1  0
  4 15  1  0
  5 16  1  0
  6 17  1  0
  7 18  1  0
  8 19  1  0
  9 20  1  0
  9 21  1  0
 10 22  1  0
 10 23  1  0
A    1
C
A    2
N
A    3
O
A    4
C1
A    5
O1
A    6
C2
A    7
O2
A    8
C3
A    9
C4
A   10
C5
M  END
