4UFK_LDU_A_1001
     RDKit          3D

 20 20  0  0  0  0  0  0  0  0999 V2000
   78.5400   87.5190   20.6000 O   0  0  0  0  0  0  0  0  0  0  0  0
   78.9420   88.8540   20.3480 C   0  0  0  0  0  0  0  0  0  0  0  0
   77.7740   89.8070   20.5600 C   0  0  0  0  0  0  0  0  0  0  0  0
   77.1250   89.5860   21.8130 O   0  0  0  0  0  0  0  0  0  0  0  0
   76.8690   89.4770   19.3880 C   0  0  0  0  0  0  0  0  0  0  0  0
   77.8170   89.1570   18.2860 N   0  0  0  0  0  0  0  0  0  0  0  0
   79.1780   89.0940   18.8550 C   0  0  0  0  0  0  0  0  0  0  0  0
   79.9930   88.0010   18.1950 C   0  0  0  0  0  0  0  0  0  0  0  0
   80.4390   88.4160   16.9140 O   0  0  0  0  0  0  0  0  0  0  0  0
   78.4942   87.3670   21.5772 H   0  0  0  0  0  0  0  0  0  0  0  0
   79.8197   89.0100   20.9924 H   0  0  0  0  0  0  0  0  0  0  0  0
   78.0745   90.8645   20.5966 H   0  0  0  0  0  0  0  0  0  0  0  0
   77.7502   89.7989   22.5505 H   0  0  0  0  0  0  0  0  0  0  0  0
   76.2295   88.6121   19.6182 H   0  0  0  0  0  0  0  0  0  0  0  0
   76.1844   90.2998   19.1345 H   0  0  0  0  0  0  0  0  0  0  0  0
   77.5714   88.2487   17.8670 H   0  0  0  0  0  0  0  0  0  0  0  0
   79.7663   90.0080   18.6861 H   0  0  0  0  0  0  0  0  0  0  0  0
   80.8652   87.7702   18.8243 H   0  0  0  0  0  0  0  0  0  0  0  0
   79.3611   87.1082   18.0787 H   0  0  0  0  0  0  0  0  0  0  0  0
   81.1598   89.0867   17.0169 H   0  0  0  0  0  0  0  0  0  0  0  0
  1  2  1  0
  2  3  1  0
  2  7  1  0
  3  4  1  0
  3  5  1  0
  5  6  1  0
  6  7  1  0
  7  8  1  0
  8  9  1  0
  1 10  1  0
  2 11  1  0
  3 12  1  0
  4 13  1  0
  5 14  1  0
  5 15  1  0
  6 16  1  0
  7 17  1  0
  8 18  1  0
  8 19  1  0
  9 20  1  0
A    1
O2
A    2
C4
A    3
C3
A    4
O1
A    5
C2
A    6
N
A    7
C5
A    8
C6
A    9
O
M  END
