4UFY_M3W_A_2165
     RDKit          3D

 33 35  0  0  0  0  0  0  0  0999 V2000
  -39.8470  -12.2390   10.0320 C   0  0  0  0  0  0  0  0  0  0  0  0
  -39.9010  -11.9470    8.6630 C   0  0  0  0  0  0  0  0  0  0  0  0
  -39.2080  -10.8610    8.1260 C   0  0  0  0  0  0  0  0  0  0  0  0
  -39.2960  -10.5840    6.7480 C   0  0  0  0  0  0  0  0  0  0  0  0
  -38.4420  -10.0670    8.9850 C   0  0  0  0  0  0  0  0  0  0  0  0
  -38.3720  -10.3720   10.3450 C   0  0  0  0  0  0  0  0  0  0  0  0
  -39.0670  -11.4720   10.9050 C   0  0  0  0  0  0  0  0  0  0  0  0
  -39.0510  -11.7760   12.3010 C   0  0  0  0  0  0  0  0  0  0  0  0
  -39.8590  -12.7490   12.8160 N   0  0  0  0  0  0  0  0  0  0  0  0
  -39.8890  -13.0190   14.1510 C   0  0  0  0  0  0  0  0  0  0  0  0
  -40.7520  -14.0340   14.6100 C   0  0  0  0  0  0  0  0  0  0  0  0
  -41.5670  -14.7710   13.7070 C   0  0  0  0  0  0  0  0  0  0  0  0
  -40.8160  -14.3270   15.9790 C   0  0  0  0  0  0  0  0  0  0  0  0
  -40.0180  -13.6120   16.8730 C   0  0  0  0  0  0  0  0  0  0  0  0
  -39.1490  -12.6000   16.4180 C   0  0  0  0  0  0  0  0  0  0  0  0
  -39.0930  -12.2880   15.0690 C   0  0  0  0  0  0  0  0  0  0  0  0
  -38.2440  -11.3050   14.5880 C   0  0  0  0  0  0  0  0  0  0  0  0
  -37.4930  -10.6580   15.3160 O   0  0  0  0  0  0  0  0  0  0  0  0
  -38.2510  -11.0350   13.2050 N   0  0  0  0  0  0  0  0  0  0  0  0
  -40.4275  -13.0855   10.4276 H   0  0  0  0  0  0  0  0  0  0  0  0
  -40.5011  -12.5859    7.9984 H   0  0  0  0  0  0  0  0  0  0  0  0
  -39.6262   -9.5447    6.6033 H   0  0  0  0  0  0  0  0  0  0  0  0
  -38.3093  -10.7235    6.2822 H   0  0  0  0  0  0  0  0  0  0  0  0
  -40.0213  -11.2674    6.2822 H   0  0  0  0  0  0  0  0  0  0  0  0
  -37.8934   -9.2002    8.5880 H   0  0  0  0  0  0  0  0  0  0  0  0
  -37.7582   -9.7387   11.0024 H   0  0  0  0  0  0  0  0  0  0  0  0
  -42.2655  -15.4026   14.2754 H   0  0  0  0  0  0  0  0  0  0  0  0
  -42.1353  -14.0740   13.0736 H   0  0  0  0  0  0  0  0  0  0  0  0
  -40.9305  -15.4063   13.0736 H   0  0  0  0  0  0  0  0  0  0  0  0
  -41.4903  -15.1148   16.3461 H   0  0  0  0  0  0  0  0  0  0  0  0
  -40.0679  -13.8414   17.9477 H   0  0  0  0  0  0  0  0  0  0  0  0
  -38.5147  -12.0573   17.1343 H   0  0  0  0  0  0  0  0  0  0  0  0
  -37.6569  -10.2765   12.8408 H   0  0  0  0  0  0  0  0  0  0  0  0
  1  2  2  0
  1  7  1  0
  2  3  1  0
  3  4  1  0
  3  5  2  0
  5  6  1  0
  6  7  2  0
  7  8  1  0
  8  9  2  0
  8 19  1  0
  9 10  1  0
 10 11  2  0
 10 16  1  0
 11 12  1  0
 11 13  1  0
 13 14  2  0
 14 15  1  0
 15 16  2  0
 16 17  1  0
 17 18  2  0
 17 19  1  0
  1 20  1  0
  2 21  1  0
  4 22  1  0
  4 23  1  0
  4 24  1  0
  5 25  1  0
  6 26  1  0
 12 27  1  0
 12 28  1  0
 12 29  1  0
 13 30  1  0
 14 31  1  0
 15 32  1  0
 19 33  1  0
A    1
CAD
A    2
CAC
A    3
CAB
A    4
CAA
A    5
CAG
A    6
CAF
A    7
CAE
A    8
CAH
A    9
NAI
A   10
CAJ
A   11
CAO
A   12
CAP
A   13
CAN
A   14
CAM
A   15
CAL
A   16
CAK
A   17
CAQ
A   18
OAR
A   19
NAS
M  END
