4UFZ_IA7_A_1318
     RDKit          3D

 38 40  0  0  0  0  0  0  0  0999 V2000
  114.5310   88.3180   29.2710 N   0  0  0  0  0  0  0  0  0  0  0  0
  113.9740   89.0710   28.6260 C   0  0  0  0  0  0  0  0  0  0  0  0
  113.2980   89.9910   27.7570 C   0  0  0  0  0  0  0  0  0  0  0  0
  113.2530   91.3610   28.0980 C   0  0  0  0  0  0  0  0  0  0  0  0
  113.8110   91.8110   29.2690 N   0  0  0  0  0  0  0  0  0  0  0  0
  112.7620   89.5190   26.5290 C   0  0  0  0  0  0  0  0  0  0  0  0
  112.8190   88.2120   26.2030 N   0  0  0  0  0  0  0  0  0  0  0  0
  112.1590   90.3260   25.6660 N   0  0  0  0  0  0  0  0  0  0  0  0
  112.0800   91.6550   25.9570 C   0  0  0  0  0  0  0  0  0  0  0  0
  111.4410   92.3850   24.9990 N   0  0  0  0  0  0  0  0  0  0  0  0
  111.3370   93.6910   25.2180 C   0  0  0  0  0  0  0  0  0  0  0  0
  110.6130   94.5030   24.1360 C   0  0  0  0  0  0  0  0  0  0  0  0
  109.6200   93.7010   23.2880 C   0  0  0  0  0  0  0  0  0  0  0  0
  111.6950   95.0660   23.2100 C   0  0  0  0  0  0  0  0  0  0  0  0
  109.8400   95.6790   24.7530 C   0  0  0  0  0  0  0  0  0  0  0  0
  112.6170   92.2970   27.1860 C   0  0  0  0  0  0  0  0  0  0  0  0
  112.4130   93.7250   27.2280 C   0  0  0  0  0  0  0  0  0  0  0  0
  111.7930   94.3920   26.2450 N   0  0  0  0  0  0  0  0  0  0  0  0
  112.9000   94.5930   28.3210 C   0  0  0  0  0  0  0  0  0  0  0  0
  111.7100   95.5680   29.1150 S   0  0  0  0  0  0  0  0  0  0  0  0
  112.9480   96.2500   30.0850 C   0  0  0  0  0  0  0  0  0  0  0  0
  114.1390   95.7350   29.7470 C   0  0  0  0  0  0  0  0  0  0  0  0
  114.1320   94.8030   28.7320 N   0  0  0  0  0  0  0  0  0  0  0  0
  113.4281   91.5022   30.1740 H   0  0  0  0  0  0  0  0  0  0  0  0
  114.6125   92.4574   29.2425 H   0  0  0  0  0  0  0  0  0  0  0  0
  112.8502   87.4973   26.9440 H   0  0  0  0  0  0  0  0  0  0  0  0
  112.8314   87.9282   25.2129 H   0  0  0  0  0  0  0  0  0  0  0  0
  108.9359   93.1485   23.9489 H   0  0  0  0  0  0  0  0  0  0  0  0
  109.0413   94.3881   22.6532 H   0  0  0  0  0  0  0  0  0  0  0  0
  110.1700   92.9907   22.6532 H   0  0  0  0  0  0  0  0  0  0  0  0
  112.5104   95.4903   23.8143 H   0  0  0  0  0  0  0  0  0  0  0  0
  112.0905   94.2593   22.5753 H   0  0  0  0  0  0  0  0  0  0  0  0
  111.2613   95.8528   22.5753 H   0  0  0  0  0  0  0  0  0  0  0  0
  109.8843   95.6116   25.8500 H   0  0  0  0  0  0  0  0  0  0  0  0
  110.2917   96.6269   24.4253 H   0  0  0  0  0  0  0  0  0  0  0  0
  108.7907   95.6403   24.4253 H   0  0  0  0  0  0  0  0  0  0  0  0
  112.7883   97.0021   30.8717 H   0  0  0  0  0  0  0  0  0  0  0  0
  115.0683   96.0390   30.2510 H   0  0  0  0  0  0  0  0  0  0  0  0
  1  2  3  0
  2  3  1  0
  3  4  2  0
  3  6  1  0
  4  5  1  0
  4 16  1  0
  6  7  1  0
  6  8  2  0
  8  9  1  0
  9 10  1  0
  9 16  2  0
 10 11  2  0
 11 12  1  0
 11 18  1  0
 12 13  1  0
 12 14  1  0
 12 15  1  0
 16 17  1  0
 17 18  2  0
 17 19  1  0
 19 20  1  0
 19 23  2  0
 20 21  1  0
 21 22  2  0
 22 23  1  0
  5 24  1  0
  5 25  1  0
  7 26  1  0
  7 27  1  0
 13 28  1  0
 13 29  1  0
 13 30  1  0
 14 31  1  0
 14 32  1  0
 14 33  1  0
 15 34  1  0
 15 35  1  0
 15 36  1  0
 21 37  1  0
 22 38  1  0
A    1
N4
A    2
C11
A    3
C8
A    4
C7
A    5
N5
A    6
C9
A    7
N3
A    8
N1
A    9
C10
A   10
N2
A   11
C4
A   12
C1
A   13
C3
A   14
C2
A   15
C
A   16
C6
A   17
C5
A   18
N
A   19
C12
A   20
S
A   21
C14
A   22
C13
A   23
N6
M  END
