4JSH_Q15_A_803
     RDKit          3D

 49 51  0  0  0  0  0  0  0  0999 V2000
   15.4270   -0.6840   23.8190 N   0  0  0  0  0  0  0  0  0  0  0  0
   14.5630    0.2500   23.3730 C   0  0  0  0  0  0  0  0  0  0  0  0
   14.8310    0.9780   22.2270 C   0  0  0  0  0  0  0  0  0  0  0  0
   13.9240    1.9380   21.7810 C   0  0  0  0  0  0  0  0  0  0  0  0
   14.2070    2.7220   20.5210 C   0  0  0  0  0  0  0  0  0  0  0  0
   13.4130    0.4620   24.0480 N   0  0  0  0  0  0  0  0  0  0  0  0
   12.5180    1.3970   23.6310 C   0  0  0  0  0  0  0  0  0  0  0  0
   12.7530    2.1580   22.4800 C   0  0  0  0  0  0  0  0  0  0  0  0
   11.2400    1.5840   24.4340 C   0  0  0  0  0  0  0  0  0  0  0  0
   11.0780    2.9410   24.8310 O   0  0  0  0  0  0  0  0  0  0  0  0
    9.8410    3.5340   24.8500 C   0  0  0  0  0  0  0  0  0  0  0  0
    8.6950    2.8790   25.3180 C   0  0  0  0  0  0  0  0  0  0  0  0
    7.4580    3.5110   25.3520 C   0  0  0  0  0  0  0  0  0  0  0  0
    7.3670    4.8140   24.9000 C   0  0  0  0  0  0  0  0  0  0  0  0
    8.5110    5.4710   24.4460 C   0  0  0  0  0  0  0  0  0  0  0  0
    9.7550    4.8420   24.4140 C   0  0  0  0  0  0  0  0  0  0  0  0
    6.3290    2.8410   25.7670 O   0  0  0  0  0  0  0  0  0  0  0  0
    5.6230    3.0320   27.0050 C   0  0  0  0  0  0  0  0  0  0  0  0
    4.9210    1.7180   27.3720 C   0  0  0  0  0  0  0  0  0  0  0  0
    4.1660    1.8650   28.6950 C   0  0  0  0  0  0  0  0  0  0  0  0
    4.2030    0.5780   29.5230 C   0  0  0  0  0  0  0  0  0  0  0  0
    5.5570    0.0910   29.7670 N   0  0  0  0  0  0  0  0  0  0  0  0
    6.5790    0.2500   28.7570 C   0  0  0  0  0  0  0  0  0  0  0  0
    5.9470    0.5620   27.3950 C   0  0  0  0  0  0  0  0  0  0  0  0
   15.5567   -0.8242   24.8311 H   0  0  0  0  0  0  0  0  0  0  0  0
   15.9574   -1.2574   23.1476 H   0  0  0  0  0  0  0  0  0  0  0  0
   15.7609    0.7989   21.6673 H   0  0  0  0  0  0  0  0  0  0  0  0
   14.5694    3.7259   20.7874 H   0  0  0  0  0  0  0  0  0  0  0  0
   14.9736    2.2005   19.9291 H   0  0  0  0  0  0  0  0  0  0  0  0
   13.2841    2.8104   19.9291 H   0  0  0  0  0  0  0  0  0  0  0  0
   12.0254    2.9103   22.1415 H   0  0  0  0  0  0  0  0  0  0  0  0
   10.3805    1.2855   23.8159 H   0  0  0  0  0  0  0  0  0  0  0  0
   11.3012    0.9605   25.3382 H   0  0  0  0  0  0  0  0  0  0  0  0
    8.7761    1.8390   25.6671 H   0  0  0  0  0  0  0  0  0  0  0  0
    6.3961    5.3311   24.8982 H   0  0  0  0  0  0  0  0  0  0  0  0
    8.4294    6.5133   24.1041 H   0  0  0  0  0  0  0  0  0  0  0  0
   10.6463    5.3744   24.0504 H   0  0  0  0  0  0  0  0  0  0  0  0
    6.3331    3.3077   27.7986 H   0  0  0  0  0  0  0  0  0  0  0  0
    4.8822    3.8378   26.8963 H   0  0  0  0  0  0  0  0  0  0  0  0
    4.1701    1.4733   26.6064 H   0  0  0  0  0  0  0  0  0  0  0  0
    4.6265    2.6759   29.2784 H   0  0  0  0  0  0  0  0  0  0  0  0
    3.1144    2.0892   28.4628 H   0  0  0  0  0  0  0  0  0  0  0  0
    3.7210    0.7719   30.4926 H   0  0  0  0  0  0  0  0  0  0  0  0
    3.6753   -0.1967   28.9474 H   0  0  0  0  0  0  0  0  0  0  0  0
    5.4797   -0.9189   29.9544 H   0  0  0  0  0  0  0  0  0  0  0  0
    7.1604   -0.6807   28.6812 H   0  0  0  0  0  0  0  0  0  0  0  0
    7.2345    1.0855   29.0438 H   0  0  0  0  0  0  0  0  0  0  0  0
    5.4370   -0.3474   27.0446 H   0  0  0  0  0  0  0  0  0  0  0  0
    6.7768    0.8896   26.7515 H   0  0  0  0  0  0  0  0  0  0  0  0
  5  4  1  0
  4  3  1  0
  4  8  2  0
  3  2  2  0
  8  7  1  0
  2  1  1  0
  2  6  1  0
  7  6  2  0
  7  9  1  0
 16 15  2  0
 16 11  1  0
  9 10  1  0
 15 14  1  0
 10 11  1  0
 11 12  2  0
 14 13  2  0
 12 13  1  0
 13 17  1  0
 17 18  1  0
 18 19  1  0
 19 24  1  0
 19 20  1  0
 24 23  1  0
 20 21  1  0
 23 22  1  0
 21 22  1  0
  1 25  1  0
  1 26  1  0
  3 27  1  0
  5 28  1  0
  5 29  1  0
  5 30  1  0
  8 31  1  0
  9 32  1  0
  9 33  1  0
 12 34  1  0
 14 35  1  0
 15 36  1  0
 16 37  1  0
 18 38  1  0
 18 39  1  0
 19 40  1  0
 20 41  1  0
 20 42  1  0
 21 43  1  0
 21 44  1  0
 22 45  1  0
 23 46  1  0
 23 47  1  0
 24 48  1  0
 24 49  1  0
A    1
N02
A    2
C02
A    3
C03
A    4
C04
A    5
C07
A    6
N01
A    7
C06
A    8
C05
A    9
C08
A   10
O09
A   11
C11
A   12
C16
A   13
C15
A   14
C14
A   15
C13
A   16
C12
A   17
O28
A   18
C27
A   19
C24
A   20
C23
A   21
C22
A   22
N21
A   23
C26
A   24
C25
M  END
