4UGL_S90_A_904
     RDKit          3D

 52 54  0  0  0  0  0  0  0  0999 V2000
    4.7080   17.5040   20.4460 F   0  0  0  0  0  0  0  0  0  0  0  0
    5.5920   16.8080   21.1860 C   0  0  0  0  0  0  0  0  0  0  0  0
    6.7990   16.4140   20.6350 C   0  0  0  0  0  0  0  0  0  0  0  0
    7.7290   15.6750   21.3510 C   0  0  0  0  0  0  0  0  0  0  0  0
    8.9120   15.4000   20.6310 N   0  0  0  0  0  0  0  0  0  0  0  0
    9.4040   16.5160   19.7950 C   0  0  0  0  0  0  0  0  0  0  0  0
    9.3880   16.1040   18.3350 C   0  0  0  0  0  0  0  0  0  0  0  0
   10.7050   16.1100   19.0940 C   0  0  0  0  0  0  0  0  0  0  0  0
    9.7540   14.1980   20.6530 C   0  0  0  0  0  0  0  0  0  0  0  0
    8.9480   12.9270   20.8890 C   0  0  0  0  0  0  0  0  0  0  0  0
    9.8370   11.9560   21.5560 N   0  0  0  0  0  0  0  0  0  0  0  0
   10.3130   12.5110   22.8370 C   0  0  0  0  0  0  0  0  0  0  0  0
    5.3080   16.4780   22.4980 C   0  0  0  0  0  0  0  0  0  0  0  0
    6.2260   15.7640   23.2540 C   0  0  0  0  0  0  0  0  0  0  0  0
    7.4540   15.3610   22.6940 C   0  0  0  0  0  0  0  0  0  0  0  0
    5.8260   15.4810   24.6860 C   0  0  0  0  0  0  0  0  0  0  0  0
    5.7720   16.7810   25.4890 C   0  0  0  0  0  0  0  0  0  0  0  0
    4.4380   17.5120   25.5570 C   0  0  0  0  0  0  0  0  0  0  0  0
    3.5160   17.1650   26.4800 N   0  0  0  0  0  0  0  0  0  0  0  0
    2.3340   17.8110   26.5930 C   0  0  0  0  0  0  0  0  0  0  0  0
    1.4530   17.4070   27.5380 N   0  0  0  0  0  0  0  0  0  0  0  0
    2.0270   18.8790   25.7580 C   0  0  0  0  0  0  0  0  0  0  0  0
    2.9580   19.2680   24.8080 C   0  0  0  0  0  0  0  0  0  0  0  0
    2.6750   20.4160   23.8820 C   0  0  0  0  0  0  0  0  0  0  0  0
    4.1650   18.5890   24.7160 C   0  0  0  0  0  0  0  0  0  0  0  0
    7.0279   16.6958   19.5966 H   0  0  0  0  0  0  0  0  0  0  0  0
    9.0625   17.3880   20.3720 H   0  0  0  0  0  0  0  0  0  0  0  0
    8.9296   15.1486   18.0399 H   0  0  0  0  0  0  0  0  0  0  0  0
    9.0289   16.5667   17.4039 H   0  0  0  0  0  0  0  0  0  0  0  0
   11.4685   16.8686   18.8668 H   0  0  0  0  0  0  0  0  0  0  0  0
   11.4977   15.3721   19.2868 H   0  0  0  0  0  0  0  0  0  0  0  0
   10.2728   14.1127   19.6868 H   0  0  0  0  0  0  0  0  0  0  0  0
   10.4654   14.3027   21.4854 H   0  0  0  0  0  0  0  0  0  0  0  0
    8.0815   13.1453   21.5305 H   0  0  0  0  0  0  0  0  0  0  0  0
    8.5761   12.5214   19.9366 H   0  0  0  0  0  0  0  0  0  0  0  0
    9.3188   11.0836   21.7330 H   0  0  0  0  0  0  0  0  0  0  0  0
    9.8450   11.9653   23.6695 H   0  0  0  0  0  0  0  0  0  0  0  0
   11.4063   12.4061   22.8984 H   0  0  0  0  0  0  0  0  0  0  0  0
   10.0428   13.5755   22.8984 H   0  0  0  0  0  0  0  0  0  0  0  0
    4.3500   16.7829   22.9444 H   0  0  0  0  0  0  0  0  0  0  0  0
    8.1879   14.8082   23.2988 H   0  0  0  0  0  0  0  0  0  0  0  0
    4.8342   15.0054   24.6984 H   0  0  0  0  0  0  0  0  0  0  0  0
    6.5711   14.8110   25.1398 H   0  0  0  0  0  0  0  0  0  0  0  0
    6.0701   16.5432   26.5208 H   0  0  0  0  0  0  0  0  0  0  0  0
    6.4410   17.4694   24.9519 H   0  0  0  0  0  0  0  0  0  0  0  0
    1.6839   17.5129   28.5362 H   0  0  0  0  0  0  0  0  0  0  0  0
    0.5518   16.9937   27.2589 H   0  0  0  0  0  0  0  0  0  0  0  0
    1.0650   19.4045   25.8494 H   0  0  0  0  0  0  0  0  0  0  0  0
    2.4529   21.3171   24.4724 H   0  0  0  0  0  0  0  0  0  0  0  0
    3.5545   20.6008   23.2477 H   0  0  0  0  0  0  0  0  0  0  0  0
    1.8104   20.1709   23.2477 H   0  0  0  0  0  0  0  0  0  0  0  0
    4.9125   18.9037   23.9729 H   0  0  0  0  0  0  0  0  0  0  0  0
  1  2  1  0
  2  3  2  0
  2 13  1  0
  3  4  1  0
  4  5  1  0
  4 15  2  0
  5  6  1  0
  5  9  1  0
  6  7  1  0
  6  8  1  0
  7  8  1  0
  9 10  1  0
 10 11  1  0
 11 12  1  0
 13 14  2  0
 14 15  1  0
 14 16  1  0
 16 17  1  0
 17 18  1  0
 18 19  2  0
 18 25  1  0
 19 20  1  0
 20 21  1  0
 20 22  2  0
 22 23  1  0
 23 24  1  0
 23 25  2  0
  3 26  1  0
  6 27  1  0
  7 28  1  0
  7 29  1  0
  8 30  1  0
  8 31  1  0
  9 32  1  0
  9 33  1  0
 10 34  1  0
 10 35  1  0
 11 36  1  0
 12 37  1  0
 12 38  1  0
 12 39  1  0
 13 40  1  0
 15 41  1  0
 16 42  1  0
 16 43  1  0
 17 44  1  0
 17 45  1  0
 21 46  1  0
 21 47  1  0
 22 48  1  0
 24 49  1  0
 24 50  1  0
 24 51  1  0
 25 52  1  0
A    1
F13
A    2
C13
A    3
C14
A    4
C15
A    5
N17
A    6
C21
A    7
C23
A    8
C22
A    9
C17
A   10
C18
A   11
N18
A   12
C19
A   13
C12
A   14
C11
A   15
C16
A   16
C09
A   17
C08
A   18
C06
A   19
N01
A   20
C02
A   21
N02
A   22
C03
A   23
C04
A   24
C07
A   25
C05
M  END
