4UGU_PQW_A_904
     RDKit          3D

 63 67  0  0  0  0  0  0  0  0999 V2000
    1.6810   19.5120   24.7530 S   0  0  0  0  0  0  0  0  0  0  0  0
    2.4220   20.7520   23.7920 C   0  0  0  0  0  0  0  0  0  0  0  0
    3.8110   20.6580   23.9840 C   0  0  0  0  0  0  0  0  0  0  0  0
    4.2910   19.6450   24.8440 C   0  0  0  0  0  0  0  0  0  0  0  0
    3.1830   18.9200   25.3450 C   0  0  0  0  0  0  0  0  0  0  0  0
    3.0300   17.7310   26.2160 C   0  0  0  0  0  0  0  0  0  0  0  0
    3.9380   16.7900   26.0230 N   0  0  0  0  0  0  0  0  0  0  0  0
    2.0930   17.5600   27.0880 N   0  0  0  0  0  0  0  0  0  0  0  0
    7.9680   13.4640   21.6870 N   0  0  0  0  0  0  0  0  0  0  0  0
    4.6480   16.5620   24.8790 C   0  0  0  0  0  0  0  0  0  0  0  0
    5.9590   16.1490   25.0320 C   0  0  0  0  0  0  0  0  0  0  0  0
    6.7420   15.8360   23.9210 C   0  0  0  0  0  0  0  0  0  0  0  0
    6.1780   15.9550   22.6580 C   0  0  0  0  0  0  0  0  0  0  0  0
    4.8540   16.3560   22.4800 C   0  0  0  0  0  0  0  0  0  0  0  0
    4.0870   16.6460   23.5980 C   0  0  0  0  0  0  0  0  0  0  0  0
    6.9390   15.6590   21.5680 O   0  0  0  0  0  0  0  0  0  0  0  0
    8.3540   15.7800   21.6550 C   0  0  0  0  0  0  0  0  0  0  0  0
    8.9920   14.4580   22.0130 C   0  0  0  0  0  0  0  0  0  0  0  0
   15.3970   14.2910   15.4200 S   0  0  0  0  0  0  0  0  0  0  0  0
   15.0910   15.9510   15.8070 C   0  0  0  0  0  0  0  0  0  0  0  0
   13.7320   16.1680   15.6240 C   0  0  0  0  0  0  0  0  0  0  0  0
   12.9750   15.0690   15.2000 C   0  0  0  0  0  0  0  0  0  0  0  0
   13.7490   13.9290   15.0260 C   0  0  0  0  0  0  0  0  0  0  0  0
   13.4420   12.5200   14.6350 C   0  0  0  0  0  0  0  0  0  0  0  0
   12.8160   11.7340   15.5180 N   0  0  0  0  0  0  0  0  0  0  0  0
   13.7620   12.0700   13.5000 N   0  0  0  0  0  0  0  0  0  0  0  0
   10.1920   14.2350   21.0930 C   0  0  0  0  0  0  0  0  0  0  0  0
   12.8870   11.9700   16.8590 C   0  0  0  0  0  0  0  0  0  0  0  0
   14.1180   12.1440   17.4960 C   0  0  0  0  0  0  0  0  0  0  0  0
   14.1950   12.3900   18.8620 C   0  0  0  0  0  0  0  0  0  0  0  0
   13.0320   12.4390   19.6170 C   0  0  0  0  0  0  0  0  0  0  0  0
   11.7950   12.2700   19.0040 C   0  0  0  0  0  0  0  0  0  0  0  0
   11.7270   12.0210   17.6300 C   0  0  0  0  0  0  0  0  0  0  0  0
   10.6700   12.2790   19.7880 O   0  0  0  0  0  0  0  0  0  0  0  0
    9.7230   13.3020   20.0040 C   0  0  0  0  0  0  0  0  0  0  0  0
    8.5950   12.5730   20.6950 C   0  0  0  0  0  0  0  0  0  0  0  0
    1.9007   21.4779   23.1507 H   0  0  0  0  0  0  0  0  0  0  0  0
    4.5020   21.3506   23.4811 H   0  0  0  0  0  0  0  0  0  0  0  0
    5.3471   19.4522   25.0838 H   0  0  0  0  0  0  0  0  0  0  0  0
    2.3119   17.5999   28.0937 H   0  0  0  0  0  0  0  0  0  0  0  0
    1.1268   17.3837   26.7778 H   0  0  0  0  0  0  0  0  0  0  0  0
    7.6981   12.9345   22.5282 H   0  0  0  0  0  0  0  0  0  0  0  0
    6.3890   16.0664   26.0411 H   0  0  0  0  0  0  0  0  0  0  0  0
    7.7831   15.5023   24.0428 H   0  0  0  0  0  0  0  0  0  0  0  0
    4.4258   16.4407   21.4703 H   0  0  0  0  0  0  0  0  0  0  0  0
    3.0346   16.9430   23.4788 H   0  0  0  0  0  0  0  0  0  0  0  0
    8.7461   16.1169   20.6841 H   0  0  0  0  0  0  0  0  0  0  0  0
    8.5945   16.5088   22.4430 H   0  0  0  0  0  0  0  0  0  0  0  0
    9.3242   14.4086   23.0605 H   0  0  0  0  0  0  0  0  0  0  0  0
   15.8332   16.6933   16.1357 H   0  0  0  0  0  0  0  0  0  0  0  0
   13.2738   17.1519   15.8028 H   0  0  0  0  0  0  0  0  0  0  0  0
   11.8897   15.1045   15.0245 H   0  0  0  0  0  0  0  0  0  0  0  0
   12.2675   10.9317   15.1769 H   0  0  0  0  0  0  0  0  0  0  0  0
   13.5406   11.0953   13.2513 H   0  0  0  0  0  0  0  0  0  0  0  0
   10.5225   15.1905   20.6597 H   0  0  0  0  0  0  0  0  0  0  0  0
   11.0445   13.8105   21.6435 H   0  0  0  0  0  0  0  0  0  0  0  0
   15.0441   12.0852   16.9054 H   0  0  0  0  0  0  0  0  0  0  0  0
   15.1727   12.5450   19.3417 H   0  0  0  0  0  0  0  0  0  0  0  0
   13.0883   12.6117   20.7019 H   0  0  0  0  0  0  0  0  0  0  0  0
   10.7485   11.8638   17.1527 H   0  0  0  0  0  0  0  0  0  0  0  0
    9.5084   13.8394   19.0685 H   0  0  0  0  0  0  0  0  0  0  0  0
    8.9914   11.6811   21.2023 H   0  0  0  0  0  0  0  0  0  0  0  0
    7.8449   12.2687   19.9502 H   0  0  0  0  0  0  0  0  0  0  0  0
  1  2  1  0
  1  5  1  0
  2  3  2  0
  3  4  1  0
  4  5  2  0
  5  6  1  0
  6  7  2  0
  6  8  1  0
  7 10  1  0
  9 18  1  0
  9 36  1  0
 10 11  2  0
 10 15  1  0
 11 12  1  0
 12 13  2  0
 13 14  1  0
 13 16  1  0
 14 15  2  0
 16 17  1  0
 17 18  1  0
 18 27  1  0
 19 20  1  0
 19 23  1  0
 20 21  2  0
 21 22  1  0
 22 23  2  0
 23 24  1  0
 24 25  1  0
 24 26  2  3
 25 28  1  0
 27 35  1  0
 28 29  2  0
 28 33  1  0
 29 30  1  0
 30 31  2  0
 31 32  1  0
 32 33  2  0
 32 34  1  0
 34 35  1  0
 35 36  1  0
  2 37  1  0
  3 38  1  0
  4 39  1  0
  8 40  1  0
  8 41  1  0
  9 42  1  0
 11 43  1  0
 12 44  1  0
 14 45  1  0
 15 46  1  0
 17 47  1  0
 17 48  1  0
 18 49  1  0
 20 50  1  0
 21 51  1  0
 22 52  1  0
 25 53  1  0
 26 54  1  0
 27 55  1  0
 27 56  1  0
 29 57  1  0
 30 58  1  0
 31 59  1  0
 33 60  1  0
 35 61  1  0
 36 62  1  0
 36 63  1  0
A    1
S01
A    2
C02
A    3
C03
A    4
C04
A    5
C05
A    6
C06
A    7
N07
A    8
N08
A    9
N1'
A   10
C11
A   11
C12
A   12
C13
A   13
C14
A   14
C15
A   15
C16
A   16
O17
A   17
C18
A   18
C2'
A   19
S21
A   20
C22
A   21
C23
A   22
C24
A   23
C25
A   24
C26
A   25
N27
A   26
N28
A   27
C3'
A   28
C31
A   29
C32
A   30
C33
A   31
C34
A   32
C35
A   33
C36
A   34
O37
A   35
C4'
A   36
C5'
M  END
