4UH2_S84_A_800
     RDKit          3D

 51 52  0  0  0  0  0  0  0  0999 V2000
    8.2300   -2.9740   26.6810 F   0  0  0  0  0  0  0  0  0  0  0  0
    7.2390   -2.0960   26.7240 C   0  0  0  0  0  0  0  0  0  0  0  0
    6.1000   -2.7090   26.4500 F   0  0  0  0  0  0  0  0  0  0  0  0
    7.1800   -1.5890   27.9440 F   0  0  0  0  0  0  0  0  0  0  0  0
    7.4730   -0.9990   25.7170 C   0  0  0  0  0  0  0  0  0  0  0  0
    6.4430   -0.1400   25.3260 C   0  0  0  0  0  0  0  0  0  0  0  0
    6.6780    0.8720   24.3910 C   0  0  0  0  0  0  0  0  0  0  0  0
    5.6450    1.7410   23.9950 N   0  0  0  0  0  0  0  0  0  0  0  0
    4.8340    1.4420   22.8210 C   0  0  0  0  0  0  0  0  0  0  0  0
    5.3830    2.9500   24.7690 C   0  0  0  0  0  0  0  0  0  0  0  0
    6.3260    4.0160   24.2110 C   0  0  0  0  0  0  0  0  0  0  0  0
    5.6050    4.8730   23.2540 N   0  0  0  0  0  0  0  0  0  0  0  0
    4.5820    5.6410   23.9810 C   0  0  0  0  0  0  0  0  0  0  0  0
    8.7410   -0.8340   25.1740 C   0  0  0  0  0  0  0  0  0  0  0  0
    8.9750    0.1790   24.2530 C   0  0  0  0  0  0  0  0  0  0  0  0
    7.9530    1.0290   23.8550 C   0  0  0  0  0  0  0  0  0  0  0  0
   10.3500    0.3350   23.6730 C   0  0  0  0  0  0  0  0  0  0  0  0
   11.1200    1.5080   24.2700 C   0  0  0  0  0  0  0  0  0  0  0  0
   12.4210    1.3590   23.5320 C   0  0  0  0  0  0  0  0  0  0  0  0
   13.2940    0.4070   23.9230 N   0  0  0  0  0  0  0  0  0  0  0  0
   14.4580    0.2220   23.2640 C   0  0  0  0  0  0  0  0  0  0  0  0
   15.3140   -0.7330   23.6980 N   0  0  0  0  0  0  0  0  0  0  0  0
   14.7660    0.9960   22.1470 C   0  0  0  0  0  0  0  0  0  0  0  0
   13.8630    1.9640   21.7260 C   0  0  0  0  0  0  0  0  0  0  0  0
   14.1540    2.8210   20.5230 C   0  0  0  0  0  0  0  0  0  0  0  0
   12.6790    2.1390   22.4180 C   0  0  0  0  0  0  0  0  0  0  0  0
    5.4385   -0.2611   25.7576 H   0  0  0  0  0  0  0  0  0  0  0  0
    3.8464    1.0779   23.1406 H   0  0  0  0  0  0  0  0  0  0  0  0
    4.7111    2.3539   22.2183 H   0  0  0  0  0  0  0  0  0  0  0  0
    5.3325    0.6685   22.2183 H   0  0  0  0  0  0  0  0  0  0  0  0
    4.3357    3.2634   24.6466 H   0  0  0  0  0  0  0  0  0  0  0  0
    5.5492    2.7858   25.8439 H   0  0  0  0  0  0  0  0  0  0  0  0
    6.7080    4.6334   25.0373 H   0  0  0  0  0  0  0  0  0  0  0  0
    7.1641    3.5238   23.6958 H   0  0  0  0  0  0  0  0  0  0  0  0
    6.2669    5.5198   22.8019 H   0  0  0  0  0  0  0  0  0  0  0  0
    4.7369    5.5247   25.0638 H   0  0  0  0  0  0  0  0  0  0  0  0
    4.6614    6.7045   23.7113 H   0  0  0  0  0  0  0  0  0  0  0  0
    3.5829    5.2680   23.7113 H   0  0  0  0  0  0  0  0  0  0  0  0
    9.5594   -1.5053   25.4733 H   0  0  0  0  0  0  0  0  0  0  0  0
    8.1494    1.8230   23.1195 H   0  0  0  0  0  0  0  0  0  0  0  0
   10.9168   -0.5886   23.8619 H   0  0  0  0  0  0  0  0  0  0  0  0
   10.2324    0.5325   22.5973 H   0  0  0  0  0  0  0  0  0  0  0  0
   10.6337    2.4703   24.0524 H   0  0  0  0  0  0  0  0  0  0  0  0
   11.2028    1.5014   25.3669 H   0  0  0  0  0  0  0  0  0  0  0  0
   15.4488   -0.8833   24.7080 H   0  0  0  0  0  0  0  0  0  0  0  0
   15.8304   -1.3092   23.0181 H   0  0  0  0  0  0  0  0  0  0  0  0
   15.7114    0.8426   21.6059 H   0  0  0  0  0  0  0  0  0  0  0  0
   14.4913    3.8145   20.8535 H   0  0  0  0  0  0  0  0  0  0  0  0
   14.9421    2.3486   19.9182 H   0  0  0  0  0  0  0  0  0  0  0  0
   13.2412    2.9261   19.9182 H   0  0  0  0  0  0  0  0  0  0  0  0
   11.9484    2.8915   22.0862 H   0  0  0  0  0  0  0  0  0  0  0  0
  1  2  1  0
  2  3  1  0
  2  4  1  0
  2  5  1  0
  5  6  2  0
  5 14  1  0
  6  7  1  0
  7  8  1  0
  7 16  2  0
  8  9  1  0
  8 10  1  0
 10 11  1  0
 11 12  1  0
 12 13  1  0
 14 15  2  0
 15 16  1  0
 15 17  1  0
 17 18  1  0
 18 19  1  0
 19 20  2  0
 19 26  1  0
 20 21  1  0
 21 22  1  0
 21 23  2  0
 23 24  1  0
 24 25  1  0
 24 26  2  0
  6 27  1  0
  9 28  1  0
  9 29  1  0
  9 30  1  0
 10 31  1  0
 10 32  1  0
 11 33  1  0
 11 34  1  0
 12 35  1  0
 13 36  1  0
 13 37  1  0
 13 38  1  0
 14 39  1  0
 16 40  1  0
 17 41  1  0
 17 42  1  0
 18 43  1  0
 18 44  1  0
 22 45  1  0
 22 46  1  0
 23 47  1  0
 25 48  1  0
 25 49  1  0
 25 50  1  0
 26 51  1  0
A    1
F20
A    2
C17
A    3
F18
A    4
F19
A    5
C13
A    6
C14
A    7
C15
A    8
N22
A    9
C21
A   10
C23
A   11
C24
A   12
N25
A   13
C26
A   14
C12
A   15
C11
A   16
C16
A   17
C09
A   18
C08
A   19
C06
A   20
N01
A   21
C02
A   22
N02
A   23
C03
A   24
C04
A   25
C07
A   26
C05
M  END
