4UGY_EXI_A_904
     RDKit          3D

 47 48  0  0  0  0  0  0  0  0999 V2000
    3.2850   17.0160   25.9550 N   0  0  0  0  0  0  0  0  0  0  0  0
    2.2480   17.8370   26.2930 C   0  0  0  0  0  0  0  0  0  0  0  0
    1.4790   17.5760   27.3810 N   0  0  0  0  0  0  0  0  0  0  0  0
    2.2180   18.8070   25.4420 C   0  0  0  0  0  0  0  0  0  0  0  0
    2.7550   19.3080   24.3930 C   0  0  0  0  0  0  0  0  0  0  0  0
    3.8130   18.4600   24.0430 C   0  0  0  0  0  0  0  0  0  0  0  0
    4.0590   17.3250   24.8630 C   0  0  0  0  0  0  0  0  0  0  0  0
    2.4300   20.5520   23.6010 C   0  0  0  0  0  0  0  0  0  0  0  0
    5.2180   16.3830   24.5380 C   0  0  0  0  0  0  0  0  0  0  0  0
    6.4390   16.8500   25.3470 C   0  0  0  0  0  0  0  0  0  0  0  0
    9.7010   15.1210   24.4140 N   0  0  0  0  0  0  0  0  0  0  0  0
    8.7040   16.0340   24.4900 C   0  0  0  0  0  0  0  0  0  0  0  0
    7.5580   15.8030   25.2670 C   0  0  0  0  0  0  0  0  0  0  0  0
    7.4480   14.5910   25.9620 C   0  0  0  0  0  0  0  0  0  0  0  0
    8.4920   13.6600   25.8660 C   0  0  0  0  0  0  0  0  0  0  0  0
    9.6140   13.9560   25.0830 C   0  0  0  0  0  0  0  0  0  0  0  0
    7.2780   12.1340   27.4630 C   0  0  0  0  0  0  0  0  0  0  0  0
    8.4090   12.4280   26.5530 N   0  0  0  0  0  0  0  0  0  0  0  0
    9.4690   11.4270   26.3590 C   0  0  0  0  0  0  0  0  0  0  0  0
    8.8700   10.2360   25.6020 C   0  0  0  0  0  0  0  0  0  0  0  0
    8.3220   10.6190   24.2650 N   0  0  0  0  0  0  0  0  0  0  0  0
    9.3570   10.8990   23.2480 C   0  0  0  0  0  0  0  0  0  0  0  0
    1.8642   17.7067   28.3273 H   0  0  0  0  0  0  0  0  0  0  0  0
    0.5104   17.2472   27.2602 H   0  0  0  0  0  0  0  0  0  0  0  0
    1.3965   19.4757   25.7387 H   0  0  0  0  0  0  0  0  0  0  0  0
    4.4354   18.6660   23.1597 H   0  0  0  0  0  0  0  0  0  0  0  0
    2.2136   21.3803   24.2917 H   0  0  0  0  0  0  0  0  0  0  0  0
    3.2888   20.8180   22.9672 H   0  0  0  0  0  0  0  0  0  0  0  0
    1.5509   20.3639   22.9672 H   0  0  0  0  0  0  0  0  0  0  0  0
    4.9539   15.3528   24.8190 H   0  0  0  0  0  0  0  0  0  0  0  0
    5.4392   16.4008   23.4606 H   0  0  0  0  0  0  0  0  0  0  0  0
    6.8034   17.8037   24.9374 H   0  0  0  0  0  0  0  0  0  0  0  0
    6.1445   16.9817   26.3986 H   0  0  0  0  0  0  0  0  0  0  0  0
    8.7940   16.9770   23.9308 H   0  0  0  0  0  0  0  0  0  0  0  0
    6.5586   14.3740   26.5718 H   0  0  0  0  0  0  0  0  0  0  0  0
   10.4351   13.2273   25.0135 H   0  0  0  0  0  0  0  0  0  0  0  0
    7.6147   12.2215   28.5065 H   0  0  0  0  0  0  0  0  0  0  0  0
    6.4637   12.8503   27.2792 H   0  0  0  0  0  0  0  0  0  0  0  0
    6.9156   11.1118   27.2792 H   0  0  0  0  0  0  0  0  0  0  0  0
   10.2917   11.8643   25.7742 H   0  0  0  0  0  0  0  0  0  0  0  0
    9.8647   11.0991   27.3316 H   0  0  0  0  0  0  0  0  0  0  0  0
    9.6558    9.4800   25.4569 H   0  0  0  0  0  0  0  0  0  0  0  0
    8.0360    9.8454   26.2035 H   0  0  0  0  0  0  0  0  0  0  0  0
    7.7329    9.8463   23.9232 H   0  0  0  0  0  0  0  0  0  0  0  0
   10.3027   11.1549   23.7481 H   0  0  0  0  0  0  0  0  0  0  0  0
    9.5039   10.0083   22.6194 H   0  0  0  0  0  0  0  0  0  0  0  0
    9.0348   11.7423   22.6194 H   0  0  0  0  0  0  0  0  0  0  0  0
  1  2  2  0
  1  7  1  0
  2  3  1  0
  2  4  1  0
  4  5  2  0
  5  6  1  0
  5  8  1  0
  6  7  2  0
  7  9  1  0
  9 10  1  0
 10 13  1  0
 11 12  2  0
 11 16  1  0
 12 13  1  0
 13 14  2  0
 14 15  1  0
 15 16  2  0
 15 18  1  0
 17 18  1  0
 18 19  1  0
 19 20  1  0
 20 21  1  0
 21 22  1  0
  3 23  1  0
  3 24  1  0
  4 25  1  0
  6 26  1  0
  8 27  1  0
  8 28  1  0
  8 29  1  0
  9 30  1  0
  9 31  1  0
 10 32  1  0
 10 33  1  0
 12 34  1  0
 14 35  1  0
 16 36  1  0
 17 37  1  0
 17 38  1  0
 17 39  1  0
 19 40  1  0
 19 41  1  0
 20 42  1  0
 20 43  1  0
 21 44  1  0
 22 45  1  0
 22 46  1  0
 22 47  1  0
A    1
N01
A    2
C02
A    3
N02
A    4
C03
A    5
C04
A    6
C05
A    7
C06
A    8
C07
A    9
C08
A   10
C09
A   11
N11
A   12
C12
A   13
C13
A   14
C14
A   15
C15
A   16
C16
A   17
C17
A   18
N17
A   19
C18
A   20
C19
A   21
N20
A   22
C21
M  END
