4G7G_VFV_A_502
     RDKit          3D

 64 69  0  0  0  0  0  0  0  0999 V2000
  -34.4040  -17.6270   41.6700 C   0  0  0  0  0  0  0  0  0  0  0  0
  -35.4970  -16.8280   41.3550 C   0  0  0  0  0  0  0  0  0  0  0  0
  -36.2780  -16.2810   42.3670 C   0  0  0  0  0  0  0  0  0  0  0  0
  -37.3560  -15.4870   42.0320 F   0  0  0  0  0  0  0  0  0  0  0  0
  -35.9610  -16.5300   43.7040 C   0  0  0  0  0  0  0  0  0  0  0  0
  -34.8660  -17.3370   44.0180 C   0  0  0  0  0  0  0  0  0  0  0  0
  -34.0890  -17.8990   43.0000 C   0  0  0  0  0  0  0  0  0  0  0  0
  -32.9730  -18.6940   43.2790 C   0  0  0  0  0  0  0  0  0  0  0  0
  -32.9430  -19.5460   44.3780 C   0  0  0  0  0  0  0  0  0  0  0  0
  -31.7970  -20.3030   44.6160 C   0  0  0  0  0  0  0  0  0  0  0  0
  -31.7650  -21.0980   45.6450 F   0  0  0  0  0  0  0  0  0  0  0  0
  -31.8510  -18.6060   42.4370 C   0  0  0  0  0  0  0  0  0  0  0  0
  -30.7100  -19.3770   42.6830 C   0  0  0  0  0  0  0  0  0  0  0  0
  -30.6840  -20.2420   43.7760 C   0  0  0  0  0  0  0  0  0  0  0  0
  -29.5410  -21.0180   44.0930 C   0  0  0  0  0  0  0  0  0  0  0  0
  -28.2420  -20.2010   43.8770 C   0  0  0  0  0  0  0  0  0  0  0  0
  -28.0690  -19.0050   44.6990 N   0  0  0  0  0  0  0  0  0  0  0  0
  -27.7670  -18.9610   45.9960 C   0  0  0  0  0  0  0  0  0  0  0  0
  -27.6720  -17.6800   46.3400 C   0  0  0  0  0  0  0  0  0  0  0  0
  -27.8970  -16.9460   45.2600 N   0  0  0  0  0  0  0  0  0  0  0  0
  -28.1470  -17.7610   44.2340 C   0  0  0  0  0  0  0  0  0  0  0  0
  -29.2880  -22.2180   43.2730 N   0  0  0  0  0  0  0  0  0  0  0  0
  -28.6060  -23.2550   43.8340 C   0  0  0  0  0  0  0  0  0  0  0  0
  -28.1950  -23.1980   44.9960 O   0  0  0  0  0  0  0  0  0  0  0  0
  -28.1860  -24.2950   42.9820 C   0  0  0  0  0  0  0  0  0  0  0  0
  -26.9140  -24.8170   43.2170 C   0  0  0  0  0  0  0  0  0  0  0  0
  -26.3810  -25.8190   42.4040 C   0  0  0  0  0  0  0  0  0  0  0  0
  -28.9140  -24.7770   41.8910 C   0  0  0  0  0  0  0  0  0  0  0  0
  -28.3780  -25.7830   41.0700 C   0  0  0  0  0  0  0  0  0  0  0  0
  -27.1140  -26.3270   41.3330 C   0  0  0  0  0  0  0  0  0  0  0  0
  -26.5470  -27.2670   40.5520 C   0  0  0  0  0  0  0  0  0  0  0  0
  -25.1300  -27.4020   40.4060 O   0  0  0  0  0  0  0  0  0  0  0  0
  -27.1410  -28.1520   39.7450 N   0  0  0  0  0  0  0  0  0  0  0  0
  -26.1600  -28.8440   39.1450 N   0  0  0  0  0  0  0  0  0  0  0  0
  -24.9620  -28.3810   39.5490 C   0  0  0  0  0  0  0  0  0  0  0  0
  -23.7430  -28.8060   39.1670 C   0  0  0  0  0  0  0  0  0  0  0  0
  -22.6250  -28.4800   39.9460 C   0  0  0  0  0  0  0  0  0  0  0  0
  -21.3400  -28.8960   39.5890 C   0  0  0  0  0  0  0  0  0  0  0  0
  -21.1690  -29.6480   38.4250 C   0  0  0  0  0  0  0  0  0  0  0  0
  -22.2710  -29.9710   37.6330 C   0  0  0  0  0  0  0  0  0  0  0  0
  -23.5570  -29.5520   37.9990 C   0  0  0  0  0  0  0  0  0  0  0  0
  -33.7839  -18.0472   40.8645 H   0  0  0  0  0  0  0  0  0  0  0  0
  -35.7448  -16.6279   40.3021 H   0  0  0  0  0  0  0  0  0  0  0  0
  -36.5720  -16.0918   44.5069 H   0  0  0  0  0  0  0  0  0  0  0  0
  -34.6132  -17.5317   45.0707 H   0  0  0  0  0  0  0  0  0  0  0  0
  -33.8110  -19.6213   45.0495 H   0  0  0  0  0  0  0  0  0  0  0  0
  -31.8704  -17.9231   41.5748 H   0  0  0  0  0  0  0  0  0  0  0  0
  -29.8376  -19.3011   42.0173 H   0  0  0  0  0  0  0  0  0  0  0  0
  -29.7700  -21.3122   45.1279 H   0  0  0  0  0  0  0  0  0  0  0  0
  -27.3918  -20.8690   44.0791 H   0  0  0  0  0  0  0  0  0  0  0  0
  -28.3040  -19.8317   42.8427 H   0  0  0  0  0  0  0  0  0  0  0  0
  -27.6227  -19.8258   46.6604 H   0  0  0  0  0  0  0  0  0  0  0  0
  -27.4460  -17.2965   47.3459 H   0  0  0  0  0  0  0  0  0  0  0  0
  -28.3744  -17.4615   43.2003 H   0  0  0  0  0  0  0  0  0  0  0  0
  -29.6193  -22.2704   42.2991 H   0  0  0  0  0  0  0  0  0  0  0  0
  -26.3197  -24.4319   44.0587 H   0  0  0  0  0  0  0  0  0  0  0  0
  -25.3741  -26.2108   42.6105 H   0  0  0  0  0  0  0  0  0  0  0  0
  -29.9113  -24.3668   41.6741 H   0  0  0  0  0  0  0  0  0  0  0  0
  -28.9581  -26.1483   40.2097 H   0  0  0  0  0  0  0  0  0  0  0  0
  -22.7622  -27.8829   40.8596 H   0  0  0  0  0  0  0  0  0  0  0  0
  -20.4749  -28.6347   40.2162 H   0  0  0  0  0  0  0  0  0  0  0  0
  -20.1641  -29.9862   38.1322 H   0  0  0  0  0  0  0  0  0  0  0  0
  -22.1293  -30.5591   36.7142 H   0  0  0  0  0  0  0  0  0  0  0  0
  -24.4201  -29.8099   37.3677 H   0  0  0  0  0  0  0  0  0  0  0  0
 40 41  2  0
 40 39  1  0
 41 36  1  0
 39 38  2  0
 34 35  2  0
 34 33  1  0
 36 35  1  0
 36 37  2  0
 35 32  1  0
 38 37  1  0
 33 31  2  0
 32 31  1  0
 31 30  1  0
 29 30  2  0
 29 28  1  0
 30 27  1  0
  2  1  2  0
  2  3  1  0
  1  7  1  0
 28 25  2  0
  4  3  1  0
  3  5  2  0
 27 26  2  0
 12 13  2  0
 12  8  1  0
 13 14  1  0
 25 26  1  0
 25 23  1  0
  7  8  1  0
  7  6  2  0
 22 23  1  0
 22 15  1  0
  8  9  2  0
  5  6  1  0
 14 15  1  0
 14 10  2  0
 23 24  2  0
 16 15  1  0
 16 17  1  0
 21 17  1  0
 21 20  2  0
  9 10  1  0
 10 11  1  0
 17 18  1  0
 20 19  1  0
 18 19  2  0
  1 42  1  0
  2 43  1  0
  5 44  1  0
  6 45  1  0
  9 46  1  0
 12 47  1  0
 13 48  1  0
 15 49  1  0
 16 50  1  0
 16 51  1  0
 18 52  1  0
 19 53  1  0
 21 54  1  0
 22 55  1  0
 26 56  1  0
 27 57  1  0
 28 58  1  0
 29 59  1  0
 37 60  1  0
 38 61  1  0
 39 62  1  0
 40 63  1  0
 41 64  1  0
A    1
CAO
A    2
CAK
A    3
CBD
A    4
FAB
A    5
CAJ
A    6
CAN
A    7
CBG
A    8
CBJ
A    9
CAV
A   10
CBE
A   11
FAC
A   12
CAR
A   13
CAS
A   14
CBK
A   15
CBN
A   16
CAW
A   17
NBO
A   18
CAT
A   19
CAG
A   20
NAX
A   21
CAU
A   22
NBA
A   23
CBC
A   24
OAA
A   25
CBF
A   26
CAM
A   27
CAQ
A   28
CAL
A   29
CAP
A   30
CBI
A   31
CBM
A   32
OBB
A   33
NAZ
A   34
NAY
A   35
CBL
A   36
CBH
A   37
CAI
A   38
CAF
A   39
CAD
A   40
CAE
A   41
CAH
M  END
