4UI3_06R_A_2115
     RDKit          3D

 30 32  0  0  0  0  0  0  0  0999 V2000
  -39.3940   -9.0720    6.2270 F   0  0  0  0  0  0  0  0  0  0  0  0
  -39.0670  -10.4430    6.4290 C   0  0  0  0  0  0  0  0  0  0  0  0
  -39.9530  -11.1790    5.6740 F   0  0  0  0  0  0  0  0  0  0  0  0
  -37.7580  -10.7510    5.8600 F   0  0  0  0  0  0  0  0  0  0  0  0
  -39.0790  -10.7610    7.8490 C   0  0  0  0  0  0  0  0  0  0  0  0
  -39.7660  -11.8670    8.3780 C   0  0  0  0  0  0  0  0  0  0  0  0
  -39.7730  -12.1570    9.7680 C   0  0  0  0  0  0  0  0  0  0  0  0
  -39.0520  -11.3610   10.6840 C   0  0  0  0  0  0  0  0  0  0  0  0
  -38.3580  -10.2560   10.1480 C   0  0  0  0  0  0  0  0  0  0  0  0
  -38.3810   -9.9610    8.7730 C   0  0  0  0  0  0  0  0  0  0  0  0
  -39.0730  -11.6590   12.0970 C   0  0  0  0  0  0  0  0  0  0  0  0
  -39.9120  -12.6260   12.5680 N   0  0  0  0  0  0  0  0  0  0  0  0
  -39.9710  -12.9170   13.8950 C   0  0  0  0  0  0  0  0  0  0  0  0
  -40.8620  -13.9300   14.2840 C   0  0  0  0  0  0  0  0  0  0  0  0
  -40.9800  -14.2450   15.6500 C   0  0  0  0  0  0  0  0  0  0  0  0
  -40.2030  -13.5390   16.5830 C   0  0  0  0  0  0  0  0  0  0  0  0
  -39.2830  -12.5470   16.1940 C   0  0  0  0  0  0  0  0  0  0  0  0
  -39.1680  -12.2200   14.8560 C   0  0  0  0  0  0  0  0  0  0  0  0
  -38.2990  -11.2130   14.4210 C   0  0  0  0  0  0  0  0  0  0  0  0
  -37.5490  -10.5740   15.1730 O   0  0  0  0  0  0  0  0  0  0  0  0
  -38.2670  -10.9390   13.0440 N   0  0  0  0  0  0  0  0  0  0  0  0
  -40.3160  -12.5293    7.6933 H   0  0  0  0  0  0  0  0  0  0  0  0
  -40.3505  -13.0172   10.1375 H   0  0  0  0  0  0  0  0  0  0  0  0
  -37.7827   -9.6068   10.8244 H   0  0  0  0  0  0  0  0  0  0  0  0
  -37.8365   -9.0775    8.4084 H   0  0  0  0  0  0  0  0  0  0  0  0
  -41.4582  -14.4687   13.5327 H   0  0  0  0  0  0  0  0  0  0  0  0
  -41.6712  -15.0333   15.9828 H   0  0  0  0  0  0  0  0  0  0  0  0
  -40.3171  -13.7687   17.6527 H   0  0  0  0  0  0  0  0  0  0  0  0
  -38.6627  -12.0379   16.9463 H   0  0  0  0  0  0  0  0  0  0  0  0
  -37.6431  -10.1949   12.7004 H   0  0  0  0  0  0  0  0  0  0  0  0
  1  2  1  0
  2  3  1  0
  2  4  1  0
  2  5  1  0
  5  6  2  0
  5 10  1  0
  6  7  1  0
  7  8  2  0
  8  9  1  0
  8 11  1  0
  9 10  2  0
 11 12  2  0
 11 21  1  0
 12 13  1  0
 13 14  2  0
 13 18  1  0
 14 15  1  0
 15 16  2  0
 16 17  1  0
 17 18  2  0
 18 19  1  0
 19 20  2  0
 19 21  1  0
  6 22  1  0
  7 23  1  0
  9 24  1  0
 10 25  1  0
 14 26  1  0
 15 27  1  0
 16 28  1  0
 17 29  1  0
 21 30  1  0
A    1
FAA
A    2
CAB
A    3
FAC
A    4
FAD
A    5
CAE
A    6
CAF
A    7
CAG
A    8
CAH
A    9
CAI
A   10
CAJ
A   11
CAK
A   12
NAL
A   13
CAM
A   14
CAN
A   15
CAO
A   16
CAP
A   17
CAQ
A   18
CAR
A   19
CAS
A   20
OAT
A   21
NAU
M  END
