4UI6_ECZ_A_2113
     RDKit          3D

 34 36  0  0  0  0  0  0  0  0999 V2000
  -42.0050  -15.9820   13.8990 C   0  0  0  0  0  0  0  0  0  0  0  0
  -41.3540  -14.7500   13.4580 O   0  0  0  0  0  0  0  0  0  0  0  0
  -40.6760  -14.0880   14.4750 C   0  0  0  0  0  0  0  0  0  0  0  0
  -39.8370  -13.0700   14.0410 C   0  0  0  0  0  0  0  0  0  0  0  0
  -39.7820  -12.8090   12.7000 N   0  0  0  0  0  0  0  0  0  0  0  0
  -40.7790  -14.3930   15.8510 C   0  0  0  0  0  0  0  0  0  0  0  0
  -40.0250  -13.6330   16.7810 C   0  0  0  0  0  0  0  0  0  0  0  0
  -39.1910  -12.6000   16.3160 C   0  0  0  0  0  0  0  0  0  0  0  0
  -39.1070  -12.3060   14.9710 C   0  0  0  0  0  0  0  0  0  0  0  0
  -38.2390  -11.3180   14.4780 C   0  0  0  0  0  0  0  0  0  0  0  0
  -37.4960  -10.6270   15.1820 O   0  0  0  0  0  0  0  0  0  0  0  0
  -38.2310  -11.0870   13.1120 N   0  0  0  0  0  0  0  0  0  0  0  0
  -39.0050  -11.8250   12.2170 C   0  0  0  0  0  0  0  0  0  0  0  0
  -38.9870  -11.5220   10.8250 C   0  0  0  0  0  0  0  0  0  0  0  0
  -38.4610  -10.3080   10.3290 C   0  0  0  0  0  0  0  0  0  0  0  0
  -38.4910  -10.0130    8.9490 C   0  0  0  0  0  0  0  0  0  0  0  0
  -39.0720  -10.9010    8.0470 C   0  0  0  0  0  0  0  0  0  0  0  0
  -39.1090  -10.5930    6.6320 C   0  0  0  0  0  0  0  0  0  0  0  0
  -39.5560   -9.3020    6.4120 F   0  0  0  0  0  0  0  0  0  0  0  0
  -39.9250  -11.3670    5.9590 F   0  0  0  0  0  0  0  0  0  0  0  0
  -37.8690  -10.8210    6.0970 F   0  0  0  0  0  0  0  0  0  0  0  0
  -39.6230  -12.0810    8.5330 C   0  0  0  0  0  0  0  0  0  0  0  0
  -39.5980  -12.3920    9.9130 C   0  0  0  0  0  0  0  0  0  0  0  0
  -42.0221  -16.0144   14.9984 H   0  0  0  0  0  0  0  0  0  0  0  0
  -43.0355  -16.0098   13.5153 H   0  0  0  0  0  0  0  0  0  0  0  0
  -41.4473  -16.8490   13.5153 H   0  0  0  0  0  0  0  0  0  0  0  0
  -41.4337  -15.2071   16.1953 H   0  0  0  0  0  0  0  0  0  0  0  0
  -40.0918  -13.8495   17.8574 H   0  0  0  0  0  0  0  0  0  0  0  0
  -38.5969  -12.0179   17.0359 H   0  0  0  0  0  0  0  0  0  0  0  0
  -37.6279  -10.3386   12.7418 H   0  0  0  0  0  0  0  0  0  0  0  0
  -38.0216   -9.5819   11.0288 H   0  0  0  0  0  0  0  0  0  0  0  0
  -38.0516   -9.0734    8.5827 H   0  0  0  0  0  0  0  0  0  0  0  0
  -40.0882  -12.7877    7.8300 H   0  0  0  0  0  0  0  0  0  0  0  0
  -40.0613  -13.3229   10.2720 H   0  0  0  0  0  0  0  0  0  0  0  0
  1  2  1  0
  2  3  1  0
  3  4  2  0
  3  6  1  0
  4  5  1  0
  4  9  1  0
  5 13  2  0
  6  7  2  0
  7  8  1  0
  8  9  2  0
  9 10  1  0
 10 11  2  0
 10 12  1  0
 12 13  1  0
 13 14  1  0
 14 15  2  0
 14 23  1  0
 15 16  1  0
 16 17  2  0
 17 18  1  0
 17 22  1  0
 18 19  1  0
 18 20  1  0
 18 21  1  0
 22 23  2  0
  1 24  1  0
  1 25  1  0
  1 26  1  0
  6 27  1  0
  7 28  1  0
  8 29  1  0
 12 30  1  0
 15 31  1  0
 16 32  1  0
 22 33  1  0
 23 34  1  0
A    1
CAA
A    2
OAB
A    3
CAC
A    4
CAH
A    5
NAI
A    6
CAD
A    7
CAE
A    8
CAF
A    9
CAG
A   10
CAL
A   11
OAM
A   12
NAK
A   13
CAJ
A   14
CAN
A   15
CAO
A   16
CAP
A   17
CAQ
A   18
CAT
A   19
FAV
A   20
FAW
A   21
FAU
A   22
CAR
A   23
CAS
M  END
