4UI7_VT3_A_2116
     RDKit          3D

 31 33  0  0  0  0  0  0  0  0999 V2000
  -38.1250  -10.4700   10.1990 C   0  0  0  0  0  0  0  0  0  0  0  0
  -38.0680  -10.2050    8.8280 C   0  0  0  0  0  0  0  0  0  0  0  0
  -38.6070  -11.1160    7.9250 C   0  0  0  0  0  0  0  0  0  0  0  0
  -38.5710  -10.8660    6.5460 C   0  0  0  0  0  0  0  0  0  0  0  0
  -39.2160  -12.2710    8.4130 C   0  0  0  0  0  0  0  0  0  0  0  0
  -39.2430  -12.5630    9.7870 C   0  0  0  0  0  0  0  0  0  0  0  0
  -38.6790  -11.6730   10.7020 C   0  0  0  0  0  0  0  0  0  0  0  0
  -38.7440  -11.9330   12.0970 C   0  0  0  0  0  0  0  0  0  0  0  0
  -39.5170  -12.9380   12.6060 N   0  0  0  0  0  0  0  0  0  0  0  0
  -39.5780  -13.1680   13.9290 C   0  0  0  0  0  0  0  0  0  0  0  0
  -40.4010  -14.1750   14.3980 C   0  0  0  0  0  0  0  0  0  0  0  0
  -41.0690  -14.9160   13.4430 O   0  0  0  0  0  0  0  0  0  0  0  0
  -40.5200  -14.4060   15.7750 C   0  0  0  0  0  0  0  0  0  0  0  0
  -39.7950  -13.6210   16.6740 C   0  0  0  0  0  0  0  0  0  0  0  0
  -38.9570  -12.5840   16.2050 C   0  0  0  0  0  0  0  0  0  0  0  0
  -38.8480  -12.3730   14.8410 C   0  0  0  0  0  0  0  0  0  0  0  0
  -37.9770  -11.3960   14.3310 C   0  0  0  0  0  0  0  0  0  0  0  0
  -37.2340  -10.7370   15.0480 O   0  0  0  0  0  0  0  0  0  0  0  0
  -37.9350  -11.1760   12.9710 N   0  0  0  0  0  0  0  0  0  0  0  0
  -37.7296   -9.7255   10.9056 H   0  0  0  0  0  0  0  0  0  0  0  0
  -37.5985   -9.2792    8.4640 H   0  0  0  0  0  0  0  0  0  0  0  0
  -38.4162   -9.7909    6.3722 H   0  0  0  0  0  0  0  0  0  0  0  0
  -37.7453  -11.4335    6.0919 H   0  0  0  0  0  0  0  0  0  0  0  0
  -39.5233  -11.1775    6.0919 H   0  0  0  0  0  0  0  0  0  0  0  0
  -39.6864  -12.9701    7.7059 H   0  0  0  0  0  0  0  0  0  0  0  0
  -39.7091  -13.4940   10.1419 H   0  0  0  0  0  0  0  0  0  0  0  0
  -41.7054  -15.6219   13.7201 H   0  0  0  0  0  0  0  0  0  0  0  0
  -41.1818  -15.2024   16.1462 H   0  0  0  0  0  0  0  0  0  0  0  0
  -39.8767  -13.8110   17.7544 H   0  0  0  0  0  0  0  0  0  0  0  0
  -38.3995  -11.9537   16.9134 H   0  0  0  0  0  0  0  0  0  0  0  0
  -37.3081  -10.4533   12.5895 H   0  0  0  0  0  0  0  0  0  0  0  0
  1  2  2  0
  1  7  1  0
  2  3  1  0
  3  4  1  0
  3  5  2  0
  5  6  1  0
  6  7  2  0
  7  8  1  0
  8  9  2  0
  8 19  1  0
  9 10  1  0
 10 11  2  0
 10 16  1  0
 11 12  1  0
 11 13  1  0
 13 14  2  0
 14 15  1  0
 15 16  2  0
 16 17  1  0
 17 18  2  0
 17 19  1  0
  1 20  1  0
  2 21  1  0
  4 22  1  0
  4 23  1  0
  4 24  1  0
  5 25  1  0
  6 26  1  0
 12 27  1  0
 13 28  1  0
 14 29  1  0
 15 30  1  0
 19 31  1  0
A    1
CAD
A    2
CAC
A    3
CAB
A    4
CAA
A    5
CAG
A    6
CAF
A    7
CAE
A    8
CAH
A    9
NAI
A   10
CAJ
A   11
CAO
A   12
OAP
A   13
CAN
A   14
CAM
A   15
CAL
A   16
CAK
A   17
CAQ
A   18
OAR
A   19
NAS
M  END
