4UIA_FH9_A_1313
     RDKit          3D

 69 69  0  0  0  0  0  0  0  0999 V2000
   69.0940   41.4490   43.7730 C   0  0  0  0  0  0  0  0  0  0  0  0
   69.9210   42.6440   44.3030 C   0  0  0  0  0  0  0  0  0  0  0  0
   69.1830   43.4340   45.4110 C   0  0  0  0  0  0  0  0  0  0  0  0
   68.6880   42.5220   46.5580 C   0  0  0  0  0  0  0  0  0  0  0  0
   67.8330   41.3400   46.0440 C   0  0  0  0  0  0  0  0  0  0  0  0
   68.5640   40.5580   44.9240 C   0  0  0  0  0  0  0  0  0  0  0  0
   67.9600   39.1890   44.4990 C   0  0  0  0  0  0  0  0  0  0  0  0
   66.5080   39.1100   43.9220 C   0  0  0  0  0  0  0  0  0  0  0  0
   66.2850   39.9770   42.6640 C   0  0  0  0  0  0  0  0  0  0  0  0
   66.8320   39.6720   41.6040 O   0  0  0  0  0  0  0  0  0  0  0  0
   65.4060   40.9770   42.7910 N   0  0  0  0  0  0  0  0  0  0  0  0
   65.0260   41.8620   41.6760 C   0  0  0  0  0  0  0  0  0  0  0  0
   64.9940   43.3300   42.1420 C   0  0  0  0  0  0  0  0  0  0  0  0
   65.0260   44.3760   41.0010 C   0  0  0  0  0  0  0  0  0  0  0  0
   63.8010   44.3480   40.0750 C   0  0  0  0  0  0  0  0  0  0  0  0
   66.3490   44.4190   40.2250 C   0  0  0  0  0  0  0  0  0  0  0  0
   65.4940   39.3560   44.9690 N   0  0  0  0  0  0  0  0  0  0  0  0
   64.3340   38.6940   45.0290 C   0  0  0  0  0  0  0  0  0  0  0  0
   64.0520   37.7910   44.2340 O   0  0  0  0  0  0  0  0  0  0  0  0
   63.5160   39.0550   46.0240 N   0  0  0  0  0  0  0  0  0  0  0  0
   62.1990   38.4370   46.2790 C   0  0  0  0  0  0  0  0  0  0  0  0
   61.2070   38.7860   45.1590 C   0  0  0  0  0  0  0  0  0  0  0  0
   61.1860   39.9680   44.7480 O   0  0  0  0  0  0  0  0  0  0  0  0
   60.5030   37.8490   44.7300 O   0  0  0  0  0  0  0  0  0  0  0  0
   61.6480   38.9090   47.6260 C   0  0  0  0  0  0  0  0  0  0  0  0
   60.8570   37.8010   48.3250 C   0  0  0  0  0  0  0  0  0  0  0  0
   59.8570   38.3980   49.3150 C   0  0  0  0  0  0  0  0  0  0  0  0
   58.9420   37.3190   49.8890 C   0  0  0  0  0  0  0  0  0  0  0  0
   57.7580   37.1610   49.0300 N   0  0  0  0  0  0  0  0  0  0  0  0
   68.2386   41.8351   43.1993 H   0  0  0  0  0  0  0  0  0  0  0  0
   69.7506   40.8338   43.1401 H   0  0  0  0  0  0  0  0  0  0  0  0
   70.8678   42.2629   44.7132 H   0  0  0  0  0  0  0  0  0  0  0  0
   70.0910   43.3310   43.4609 H   0  0  0  0  0  0  0  0  0  0  0  0
   69.8715   44.1836   45.8282 H   0  0  0  0  0  0  0  0  0  0  0  0
   68.3006   43.9059   44.9542 H   0  0  0  0  0  0  0  0  0  0  0  0
   69.5617   42.1201   47.0919 H   0  0  0  0  0  0  0  0  0  0  0  0
   68.0553   43.1303   47.2210 H   0  0  0  0  0  0  0  0  0  0  0  0
   67.6267   40.6570   46.8812 H   0  0  0  0  0  0  0  0  0  0  0  0
   66.8974   41.7440   45.6299 H   0  0  0  0  0  0  0  0  0  0  0  0
   69.4714   40.2079   45.4379 H   0  0  0  0  0  0  0  0  0  0  0  0
   68.6283   38.7741   43.7301 H   0  0  0  0  0  0  0  0  0  0  0  0
   67.8787   38.6462   45.4523 H   0  0  0  0  0  0  0  0  0  0  0  0
   66.3781   38.0749   43.5731 H   0  0  0  0  0  0  0  0  0  0  0  0
   64.9740   41.1361   43.7124 H   0  0  0  0  0  0  0  0  0  0  0  0
   65.7593   41.7558   40.8629 H   0  0  0  0  0  0  0  0  0  0  0  0
   64.0241   41.5785   41.3211 H   0  0  0  0  0  0  0  0  0  0  0  0
   64.0721   43.4846   42.7218 H   0  0  0  0  0  0  0  0  0  0  0  0
   65.9097   43.4872   42.7309 H   0  0  0  0  0  0  0  0  0  0  0  0
   64.9627   45.3349   41.5363 H   0  0  0  0  0  0  0  0  0  0  0  0
   62.8834   44.3270   40.6813 H   0  0  0  0  0  0  0  0  0  0  0  0
   63.8006   45.2464   39.4402 H   0  0  0  0  0  0  0  0  0  0  0  0
   63.8416   43.4505   39.4402 H   0  0  0  0  0  0  0  0  0  0  0  0
   67.1894   44.4463   40.9342 H   0  0  0  0  0  0  0  0  0  0  0  0
   66.4322   43.5231   39.5922 H   0  0  0  0  0  0  0  0  0  0  0  0
   66.3739   45.3184   39.5922 H   0  0  0  0  0  0  0  0  0  0  0  0
   65.6900   40.0700   45.6850 H   0  0  0  0  0  0  0  0  0  0  0  0
   63.8239   39.8114   46.6517 H   0  0  0  0  0  0  0  0  0  0  0  0
   62.3296   37.3451   46.3033 H   0  0  0  0  0  0  0  0  0  0  0  0
   61.1727   40.7170   45.3953 H   0  0  0  0  0  0  0  0  0  0  0  0
   62.4872   39.2105   48.2701 H   0  0  0  0  0  0  0  0  0  0  0  0
   60.9706   39.7566   47.4451 H   0  0  0  0  0  0  0  0  0  0  0  0
   60.3126   37.2141   47.5706 H   0  0  0  0  0  0  0  0  0  0  0  0
   61.5587   37.1561   48.8743 H   0  0  0  0  0  0  0  0  0  0  0  0
   60.4081   38.8769   50.1378 H   0  0  0  0  0  0  0  0  0  0  0  0
   59.2374   39.1358   48.7842 H   0  0  0  0  0  0  0  0  0  0  0  0
   59.4878   36.3652   49.9376 H   0  0  0  0  0  0  0  0  0  0  0  0
   58.6213   37.6143   50.8989 H   0  0  0  0  0  0  0  0  0  0  0  0
   56.9197   37.0491   49.6180 H   0  0  0  0  0  0  0  0  0  0  0  0
   57.6515   37.9952   48.4353 H   0  0  0  0  0  0  0  0  0  0  0  0
  1  2  1  0
  1  6  1  0
  2  3  1  0
  3  4  1  0
  4  5  1  0
  5  6  1  0
  6  7  1  0
  7  8  1  0
  8  9  1  0
  8 17  1  0
  9 10  2  0
  9 11  1  0
 11 12  1  0
 12 13  1  0
 13 14  1  0
 14 15  1  0
 14 16  1  0
 17 18  1  0
 18 19  2  0
 18 20  1  0
 20 21  1  0
 21 22  1  0
 21 25  1  0
 22 23  1  0
 22 24  2  0
 25 26  1  0
 26 27  1  0
 27 28  1  0
 28 29  1  0
  1 30  1  0
  1 31  1  0
  2 32  1  0
  2 33  1  0
  3 34  1  0
  3 35  1  0
  4 36  1  0
  4 37  1  0
  5 38  1  0
  5 39  1  0
  6 40  1  0
  7 41  1  0
  7 42  1  0
  8 43  1  0
 11 44  1  0
 12 45  1  0
 12 46  1  0
 13 47  1  0
 13 48  1  0
 14 49  1  0
 15 50  1  0
 15 51  1  0
 15 52  1  0
 16 53  1  0
 16 54  1  0
 16 55  1  0
 17 56  1  0
 20 57  1  0
 21 58  1  0
 23 59  1  0
 25 60  1  0
 25 61  1  0
 26 62  1  0
 26 63  1  0
 27 64  1  0
 27 65  1  0
 28 66  1  0
 28 67  1  0
 29 68  1  0
 29 69  1  0
A    1
C23
A    2
C24
A    3
C25
A    4
C28
A    5
C29
A    6
C22
A    7
C21
A    8
C14
A    9
C15
A   10
O16
A   11
N17
A   12
C18
A   13
C19
A   14
C20
A   15
C26
A   16
C27
A   17
N13
A   18
C11
A   19
O12
A   20
N10
A   21
C6
A   22
C7
A   23
O8
A   24
O9
A   25
C5
A   26
C4
A   27
C3
A   28
C2
A   29
N1
M  END
