4UIV_XZB_A_1124
     RDKit          3D

 52 55  0  0  0  0  0  0  0  0999 V2000
   -1.4670   10.3450    9.3720 C   0  0  0  0  0  0  0  0  0  0  0  0
   -0.6790   11.2610   10.2340 N   0  0  0  0  0  0  0  0  0  0  0  0
    0.5390   11.6900    9.8260 C   0  0  0  0  0  0  0  0  0  0  0  0
    1.3190   12.5410   10.5580 C   0  0  0  0  0  0  0  0  0  0  0  0
    2.6650   12.9400   10.0380 C   0  0  0  0  0  0  0  0  0  0  0  0
    3.4870   11.9960    9.4060 C   0  0  0  0  0  0  0  0  0  0  0  0
    4.7370   12.3660    8.9150 C   0  0  0  0  0  0  0  0  0  0  0  0
    5.1520   13.6860    9.0020 C   0  0  0  0  0  0  0  0  0  0  0  0
    4.3320   14.6470    9.5990 C   0  0  0  0  0  0  0  0  0  0  0  0
    3.0990   14.2680   10.1200 C   0  0  0  0  0  0  0  0  0  0  0  0
    4.7800   16.0730    9.7090 C   0  0  0  0  0  0  0  0  0  0  0  0
    4.6910   16.5780   10.9510 F   0  0  0  0  0  0  0  0  0  0  0  0
    4.0270   16.8630    9.0090 F   0  0  0  0  0  0  0  0  0  0  0  0
    6.0320   16.2230    9.2370 F   0  0  0  0  0  0  0  0  0  0  0  0
    0.7790   13.0050   11.7900 C   0  0  0  0  0  0  0  0  0  0  0  0
    1.5620   14.0650   12.9290 S   0  0  0  0  0  0  0  0  0  0  0  0
    0.2080   14.0050   14.0060 C   0  0  0  0  0  0  0  0  0  0  0  0
   -0.7760   13.1590   13.5290 C   0  0  0  0  0  0  0  0  0  0  0  0
   -0.4810   12.5620   12.2810 C   0  0  0  0  0  0  0  0  0  0  0  0
   -1.2490   11.6510   11.4460 C   0  0  0  0  0  0  0  0  0  0  0  0
   -2.3620   11.2640   11.7580 O   0  0  0  0  0  0  0  0  0  0  0  0
    0.1160   14.7880   15.2740 C   0  0  0  0  0  0  0  0  0  0  0  0
    1.0960   15.1060   15.9660 N   0  0  0  0  0  0  0  0  0  0  0  0
   -1.0830   15.2030   15.4880 N   0  0  0  0  0  0  0  0  0  0  0  0
   -1.6090   16.0450   16.5550 C   0  0  0  0  0  0  0  0  0  0  0  0
   -2.3110   17.2270   15.9310 C   0  0  0  0  0  0  0  0  0  0  0  0
   -2.7760   18.2370   16.9660 C   0  0  0  0  0  0  0  0  0  0  0  0
   -3.9480   17.4630   18.0350 S   0  0  0  0  0  0  0  0  0  0  0  0
   -4.2280   18.3370   19.1380 O   0  0  0  0  0  0  0  0  0  0  0  0
   -5.0580   16.9960   17.2550 O   0  0  0  0  0  0  0  0  0  0  0  0
   -3.0270   16.0750   18.6160 C   0  0  0  0  0  0  0  0  0  0  0  0
   -2.5430   15.2460   17.4320 C   0  0  0  0  0  0  0  0  0  0  0  0
   -2.0545    9.6621   10.0033 H   0  0  0  0  0  0  0  0  0  0  0  0
   -2.1461   10.9327    8.7369 H   0  0  0  0  0  0  0  0  0  0  0  0
   -0.7844    9.7613    8.7369 H   0  0  0  0  0  0  0  0  0  0  0  0
    0.9198   11.3358    8.8567 H   0  0  0  0  0  0  0  0  0  0  0  0
    3.1427   10.9570    9.2973 H   0  0  0  0  0  0  0  0  0  0  0  0
    5.3944   11.6114    8.4585 H   0  0  0  0  0  0  0  0  0  0  0  0
    6.1327   13.9785    8.5986 H   0  0  0  0  0  0  0  0  0  0  0  0
    2.4578   15.0208   10.6019 H   0  0  0  0  0  0  0  0  0  0  0  0
   -1.7112   12.9661   14.0750 H   0  0  0  0  0  0  0  0  0  0  0  0
    1.0296   15.0844   16.9936 H   0  0  0  0  0  0  0  0  0  0  0  0
    1.9757   15.3915   15.5127 H   0  0  0  0  0  0  0  0  0  0  0  0
   -0.7917   16.4114   17.1936 H   0  0  0  0  0  0  0  0  0  0  0  0
   -1.6165   17.7251   15.2385 H   0  0  0  0  0  0  0  0  0  0  0  0
   -3.2015   16.8498   15.4069 H   0  0  0  0  0  0  0  0  0  0  0  0
   -1.9145   18.5863   17.5540 H   0  0  0  0  0  0  0  0  0  0  0  0
   -3.2418   19.0976   16.4635 H   0  0  0  0  0  0  0  0  0  0  0  0
   -2.1600   16.4277   19.1939 H   0  0  0  0  0  0  0  0  0  0  0  0
   -3.6705   15.4537   19.2563 H   0  0  0  0  0  0  0  0  0  0  0  0
   -3.4117   14.9287   16.8364 H   0  0  0  0  0  0  0  0  0  0  0  0
   -1.9983   14.3714   17.8171 H   0  0  0  0  0  0  0  0  0  0  0  0
  1  2  1  0
  2  3  1  0
  2 20  1  0
  3  4  2  0
  4  5  1  0
  4 15  1  0
  5  6  2  0
  5 10  1  0
  6  7  1  0
  7  8  2  0
  8  9  1  0
  9 10  2  0
  9 11  1  0
 11 12  1  0
 11 13  1  0
 11 14  1  0
 15 16  1  0
 15 19  2  0
 16 17  1  0
 17 18  2  0
 17 22  1  0
 18 19  1  0
 19 20  1  0
 20 21  2  0
 22 23  1  0
 22 24  2  0
 24 25  1  0
 25 26  1  0
 25 32  1  0
 26 27  1  0
 27 28  1  0
 28 29  2  0
 28 30  2  0
 28 31  1  0
 31 32  1  0
  1 33  1  0
  1 34  1  0
  1 35  1  0
  3 36  1  0
  6 37  1  0
  7 38  1  0
  8 39  1  0
 10 40  1  0
 18 41  1  0
 23 42  1  0
 23 43  1  0
 25 44  1  0
 26 45  1  0
 26 46  1  0
 27 47  1  0
 27 48  1  0
 31 49  1  0
 31 50  1  0
 32 51  1  0
 32 52  1  0
A    1
C01
A    2
N05
A    3
C06
A    4
C08
A    5
C09
A    6
C10
A    7
C12
A    8
C14
A    9
C16
A   10
C17
A   11
C19
A   12
F20
A   13
F21
A   14
F22
A   15
C23
A   16
S24
A   17
C25
A   18
C26
A   19
C28
A   20
C29
A   21
O30
A   22
C31
A   23
N32
A   24
N34
A   25
C36
A   26
C38
A   27
C41
A   28
S44
A   29
O45
A   30
O46
A   31
C47
A   32
C50
M  END
