4UIW_H1B_A_1124
     RDKit          3D

 55 58  0  0  0  0  0  0  0  0999 V2000
   -2.7760   11.7730    8.3110 C   0  0  0  0  0  0  0  0  0  0  0  0
   -1.7550   10.9550    9.0700 C   0  0  0  0  0  0  0  0  0  0  0  0
   -1.0070   11.8680    9.9400 N   0  0  0  0  0  0  0  0  0  0  0  0
    0.2130   12.3480    9.5360 C   0  0  0  0  0  0  0  0  0  0  0  0
    0.9720   13.2050   10.2590 C   0  0  0  0  0  0  0  0  0  0  0  0
    2.2970   13.6510    9.7170 C   0  0  0  0  0  0  0  0  0  0  0  0
    3.1390   12.7430    9.0790 C   0  0  0  0  0  0  0  0  0  0  0  0
    4.3670   13.1530    8.5790 C   0  0  0  0  0  0  0  0  0  0  0  0
    4.7560   14.4710    8.6970 C   0  0  0  0  0  0  0  0  0  0  0  0
    3.9250   15.3960    9.3150 C   0  0  0  0  0  0  0  0  0  0  0  0
    2.7010   14.9790    9.8320 C   0  0  0  0  0  0  0  0  0  0  0  0
    4.3350   16.8310    9.4280 C   0  0  0  0  0  0  0  0  0  0  0  0
    5.5980   17.0390    9.0310 F   0  0  0  0  0  0  0  0  0  0  0  0
    4.1970   17.3130   10.6720 F   0  0  0  0  0  0  0  0  0  0  0  0
    3.5640   17.6020    8.7100 F   0  0  0  0  0  0  0  0  0  0  0  0
    0.4080   13.6360   11.5150 C   0  0  0  0  0  0  0  0  0  0  0  0
    1.1400   14.7290   12.6540 S   0  0  0  0  0  0  0  0  0  0  0  0
   -0.2180   14.6090   13.7110 C   0  0  0  0  0  0  0  0  0  0  0  0
   -1.1610   13.7560   13.2250 C   0  0  0  0  0  0  0  0  0  0  0  0
   -0.8490   13.1640   11.9860 C   0  0  0  0  0  0  0  0  0  0  0  0
   -1.5950   12.2360   11.1510 C   0  0  0  0  0  0  0  0  0  0  0  0
   -2.6980   11.8050   11.4980 O   0  0  0  0  0  0  0  0  0  0  0  0
   -0.3840   15.3600   14.9370 C   0  0  0  0  0  0  0  0  0  0  0  0
    0.7040   15.6840   15.6570 N   0  0  0  0  0  0  0  0  0  0  0  0
   -1.5550   15.8060   15.1510 N   0  0  0  0  0  0  0  0  0  0  0  0
   -2.0230   16.6330   16.2420 C   0  0  0  0  0  0  0  0  0  0  0  0
   -2.8000   17.7960   15.6730 C   0  0  0  0  0  0  0  0  0  0  0  0
   -3.2670   18.7400   16.7610 C   0  0  0  0  0  0  0  0  0  0  0  0
   -4.4550   17.9490   17.7990 S   0  0  0  0  0  0  0  0  0  0  0  0
   -5.5510   17.4910   16.9940 O   0  0  0  0  0  0  0  0  0  0  0  0
   -4.7500   18.8030   18.9120 O   0  0  0  0  0  0  0  0  0  0  0  0
   -3.5340   16.5540   18.3680 C   0  0  0  0  0  0  0  0  0  0  0  0
   -2.8640   15.8150   17.2060 C   0  0  0  0  0  0  0  0  0  0  0  0
   -3.4297   12.2967    9.0241 H   0  0  0  0  0  0  0  0  0  0  0  0
   -2.2589   12.5095    7.6785 H   0  0  0  0  0  0  0  0  0  0  0  0
   -3.3820   11.1077    7.6785 H   0  0  0  0  0  0  0  0  0  0  0  0
   -2.2635   10.1918    9.6774 H   0  0  0  0  0  0  0  0  0  0  0  0
   -1.0746   10.4455    8.3718 H   0  0  0  0  0  0  0  0  0  0  0  0
    0.5997   12.0150    8.5615 H   0  0  0  0  0  0  0  0  0  0  0  0
    2.8283   11.6934    8.9707 H   0  0  0  0  0  0  0  0  0  0  0  0
    5.0308   12.4261    8.0881 H   0  0  0  0  0  0  0  0  0  0  0  0
    5.7303   14.7913    8.2992 H   0  0  0  0  0  0  0  0  0  0  0  0
    2.0468   15.7055   10.3361 H   0  0  0  0  0  0  0  0  0  0  0  0
   -2.0981   13.5446   13.7609 H   0  0  0  0  0  0  0  0  0  0  0  0
    0.6629   15.6718   16.6861 H   0  0  0  0  0  0  0  0  0  0  0  0
    1.5787   15.9445   15.1796 H   0  0  0  0  0  0  0  0  0  0  0  0
   -1.1671   17.0237   16.8119 H   0  0  0  0  0  0  0  0  0  0  0  0
   -2.1550   18.3483   14.9738 H   0  0  0  0  0  0  0  0  0  0  0  0
   -3.6872   17.3983   15.1584 H   0  0  0  0  0  0  0  0  0  0  0  0
   -2.4032   19.0474   17.3687 H   0  0  0  0  0  0  0  0  0  0  0  0
   -3.7337   19.6191   16.2926 H   0  0  0  0  0  0  0  0  0  0  0  0
   -2.7584   16.8985   19.0678 H   0  0  0  0  0  0  0  0  0  0  0  0
   -4.2281   15.8604   18.8651 H   0  0  0  0  0  0  0  0  0  0  0  0
   -3.6604   15.3330   16.6200 H   0  0  0  0  0  0  0  0  0  0  0  0
   -2.1500   15.1299   17.6863 H   0  0  0  0  0  0  0  0  0  0  0  0
  1  2  1  0
  2  3  1  0
  3  4  1  0
  3 21  1  0
  4  5  2  0
  5  6  1  0
  5 16  1  0
  6  7  2  0
  6 11  1  0
  7  8  1  0
  8  9  2  0
  9 10  1  0
 10 11  2  0
 10 12  1  0
 12 13  1  0
 12 14  1  0
 12 15  1  0
 16 17  1  0
 16 20  2  0
 17 18  1  0
 18 19  2  0
 18 23  1  0
 19 20  1  0
 20 21  1  0
 21 22  2  0
 23 24  1  0
 23 25  2  0
 25 26  1  0
 26 27  1  0
 26 33  1  0
 27 28  1  0
 28 29  1  0
 29 30  2  0
 29 31  2  0
 29 32  1  0
 32 33  1  0
  1 34  1  0
  1 35  1  0
  1 36  1  0
  2 37  1  0
  2 38  1  0
  4 39  1  0
  7 40  1  0
  8 41  1  0
  9 42  1  0
 11 43  1  0
 19 44  1  0
 24 45  1  0
 24 46  1  0
 26 47  1  0
 27 48  1  0
 27 49  1  0
 28 50  1  0
 28 51  1  0
 32 52  1  0
 32 53  1  0
 33 54  1  0
 33 55  1  0
A    1
C01
A    2
C05
A    3
N08
A    4
C09
A    5
C11
A    6
C12
A    7
C13
A    8
C15
A    9
C17
A   10
C19
A   11
C20
A   12
C22
A   13
F23
A   14
F24
A   15
F25
A   16
C26
A   17
S27
A   18
C28
A   19
C29
A   20
C31
A   21
C32
A   22
O33
A   23
C34
A   24
N35
A   25
N37
A   26
C39
A   27
C41
A   28
C44
A   29
S47
A   30
O48
A   31
O49
A   32
C50
A   33
C53
M  END
