4UIY_5V2_A_1172
     RDKit          3D

 52 55  0  0  0  0  0  0  0  0999 V2000
   24.5560   47.6670    2.0950 C   0  0  0  0  0  0  0  0  0  0  0  0
   24.9060   48.7100    1.1290 N   0  0  0  0  0  0  0  0  0  0  0  0
   26.1580   49.2090    1.0820 C   0  0  0  0  0  0  0  0  0  0  0  0
   26.5270   50.1520    0.1930 C   0  0  0  0  0  0  0  0  0  0  0  0
   27.8920   50.7320    0.2200 C   0  0  0  0  0  0  0  0  0  0  0  0
   28.5850   50.8400    1.4230 C   0  0  0  0  0  0  0  0  0  0  0  0
   29.8350   51.4350    1.4630 C   0  0  0  0  0  0  0  0  0  0  0  0
   30.3800   51.9620    0.3130 C   0  0  0  0  0  0  0  0  0  0  0  0
   29.6830   51.8990   -0.8850 C   0  0  0  0  0  0  0  0  0  0  0  0
   28.4400   51.2810   -0.9250 C   0  0  0  0  0  0  0  0  0  0  0  0
   30.2320   52.5060   -2.1270 C   0  0  0  0  0  0  0  0  0  0  0  0
   29.4780   53.5510   -2.5310 F   0  0  0  0  0  0  0  0  0  0  0  0
   30.2930   51.6630   -3.1090 F   0  0  0  0  0  0  0  0  0  0  0  0
   31.4880   52.9680   -1.9680 F   0  0  0  0  0  0  0  0  0  0  0  0
   25.4930   50.6400   -0.7300 C   0  0  0  0  0  0  0  0  0  0  0  0
   25.6640   51.8170   -1.9870 S   0  0  0  0  0  0  0  0  0  0  0  0
   24.0210   51.6700   -2.4200 C   0  0  0  0  0  0  0  0  0  0  0  0
   23.3970   50.7590   -1.6570 C   0  0  0  0  0  0  0  0  0  0  0  0
   24.2090   50.1230   -0.6980 C   0  0  0  0  0  0  0  0  0  0  0  0
   23.9190   49.1130    0.2470 C   0  0  0  0  0  0  0  0  0  0  0  0
   22.7380   48.6460    0.3060 O   0  0  0  0  0  0  0  0  0  0  0  0
   23.4390   52.4820   -3.5100 C   0  0  0  0  0  0  0  0  0  0  0  0
   23.9120   53.5910   -3.7180 N   0  0  0  0  0  0  0  0  0  0  0  0
   22.3300   51.9210   -4.0840 N   0  0  0  0  0  0  0  0  0  0  0  0
   21.5820   52.4600   -5.1870 C   0  0  0  0  0  0  0  0  0  0  0  0
   21.6880   51.4890   -6.3380 C   0  0  0  0  0  0  0  0  0  0  0  0
   21.0050   52.0530   -7.5530 C   0  0  0  0  0  0  0  0  0  0  0  0
   19.2780   52.1150   -7.2510 S   0  0  0  0  0  0  0  0  0  0  0  0
   18.6270   52.7320   -8.3710 O   0  0  0  0  0  0  0  0  0  0  0  0
   18.8240   50.8150   -6.8480 O   0  0  0  0  0  0  0  0  0  0  0  0
   19.2040   53.2070   -5.8670 C   0  0  0  0  0  0  0  0  0  0  0  0
   20.1360   52.6890   -4.7720 C   0  0  0  0  0  0  0  0  0  0  0  0
   24.6860   48.0545    3.1162 H   0  0  0  0  0  0  0  0  0  0  0  0
   23.5080   47.3672    1.9473 H   0  0  0  0  0  0  0  0  0  0  0  0
   25.2110   46.7957    1.9473 H   0  0  0  0  0  0  0  0  0  0  0  0
   26.9055   48.8323    1.7957 H   0  0  0  0  0  0  0  0  0  0  0  0
   28.1363   50.4498    2.3484 H   0  0  0  0  0  0  0  0  0  0  0  0
   30.3911   51.4866    2.4107 H   0  0  0  0  0  0  0  0  0  0  0  0
   31.3726   52.4351    0.3446 H   0  0  0  0  0  0  0  0  0  0  0  0
   27.8872   51.2277   -1.8745 H   0  0  0  0  0  0  0  0  0  0  0  0
   22.3282   50.5259   -1.7724 H   0  0  0  0  0  0  0  0  0  0  0  0
   23.5290   54.1815   -4.4700 H   0  0  0  0  0  0  0  0  0  0  0  0
   22.0006   51.0289   -3.6884 H   0  0  0  0  0  0  0  0  0  0  0  0
   21.9860   53.4345   -5.4987 H   0  0  0  0  0  0  0  0  0  0  0  0
   22.7490   51.3102   -6.5669 H   0  0  0  0  0  0  0  0  0  0  0  0
   21.2016   50.5431   -6.0576 H   0  0  0  0  0  0  0  0  0  0  0  0
   21.3823   53.0668   -7.7523 H   0  0  0  0  0  0  0  0  0  0  0  0
   21.2096   51.4167   -8.4267 H   0  0  0  0  0  0  0  0  0  0  0  0
   19.5213   54.2142   -6.1749 H   0  0  0  0  0  0  0  0  0  0  0  0
   18.1733   53.2532   -5.4856 H   0  0  0  0  0  0  0  0  0  0  0  0
   19.7328   51.7314   -4.4107 H   0  0  0  0  0  0  0  0  0  0  0  0
   20.1662   53.4788   -4.0069 H   0  0  0  0  0  0  0  0  0  0  0  0
  1  2  1  0
  2  3  1  0
  2 20  1  0
  3  4  2  0
  4  5  1  0
  4 15  1  0
  5  6  2  0
  5 10  1  0
  6  7  1  0
  7  8  2  0
  8  9  1  0
  9 10  2  0
  9 11  1  0
 11 12  1  0
 11 13  1  0
 11 14  1  0
 15 16  1  0
 15 19  2  0
 16 17  1  0
 17 18  2  0
 17 22  1  0
 18 19  1  0
 19 20  1  0
 20 21  2  0
 22 23  2  3
 22 24  1  0
 24 25  1  0
 25 26  1  0
 25 32  1  0
 26 27  1  0
 27 28  1  0
 28 29  2  0
 28 30  2  0
 28 31  1  0
 31 32  1  0
  1 33  1  0
  1 34  1  0
  1 35  1  0
  3 36  1  0
  6 37  1  0
  7 38  1  0
  8 39  1  0
 10 40  1  0
 18 41  1  0
 23 42  1  0
 24 43  1  0
 25 44  1  0
 26 45  1  0
 26 46  1  0
 27 47  1  0
 27 48  1  0
 31 49  1  0
 31 50  1  0
 32 51  1  0
 32 52  1  0
A    1
C01
A    2
N05
A    3
C06
A    4
C08
A    5
C09
A    6
C10
A    7
C12
A    8
C14
A    9
C16
A   10
C17
A   11
C19
A   12
F20
A   13
F21
A   14
F22
A   15
C23
A   16
S24
A   17
C25
A   18
C26
A   19
C28
A   20
C29
A   21
O30
A   22
C31
A   23
N32
A   24
N34
A   25
C36
A   26
C38
A   27
C41
A   28
S44
A   29
O45
A   30
O46
A   31
C47
A   32
C50
M  END
