4UJ2_NVV_A_1351
     RDKit          3D

 41 44  0  0  0  0  0  0  0  0999 V2000
   28.4580    9.4760   -2.4320 C   0  0  0  0  0  0  0  0  0  0  0  0
   29.8420    9.6730   -2.3930 C   0  0  0  0  0  0  0  0  0  0  0  0
   30.5070    9.5860   -1.2210 N   0  0  0  0  0  0  0  0  0  0  0  0
   31.8950    9.7940   -1.1980 C   0  0  0  0  0  0  0  0  0  0  0  0
   32.5830   10.0670   -2.3060 N   0  0  0  0  0  0  0  0  0  0  0  0
   31.9300   10.1740   -3.5210 C   0  0  0  0  0  0  0  0  0  0  0  0
   32.5960   10.4170   -4.5270 O   0  0  0  0  0  0  0  0  0  0  0  0
   30.5420    9.9790   -3.5690 C   0  0  0  0  0  0  0  0  0  0  0  0
   29.8410   10.0750   -4.7770 C   0  0  0  0  0  0  0  0  0  0  0  0
   28.4600    9.8680   -4.8050 C   0  0  0  0  0  0  0  0  0  0  0  0
   27.7470    9.5790   -3.6310 C   0  0  0  0  0  0  0  0  0  0  0  0
   26.3510    9.3050   -3.6970 C   0  0  0  0  0  0  0  0  0  0  0  0
   26.2270    7.7550   -3.7320 C   0  0  0  0  0  0  0  0  0  0  0  0
   24.9840    7.4240   -2.9820 N   0  0  0  0  0  0  0  0  0  0  0  0
   24.3200    8.7210   -2.7680 C   0  0  0  0  0  0  0  0  0  0  0  0
   25.0010   11.0940   -2.5790 C   0  0  0  0  0  0  0  0  0  0  0  0
   25.4920    9.6390   -2.4820 C   0  0  0  0  0  0  0  0  0  0  0  0
   25.2300   11.7570   -3.5850 O   0  0  0  0  0  0  0  0  0  0  0  0
   24.2140   11.6100   -1.5360 C   0  0  0  0  0  0  0  0  0  0  0  0
   23.6990   12.9110   -1.6230 C   0  0  0  0  0  0  0  0  0  0  0  0
   22.9090   13.4400   -0.6030 C   0  0  0  0  0  0  0  0  0  0  0  0
   22.6230   12.6570    0.5230 C   0  0  0  0  0  0  0  0  0  0  0  0
   23.1300   11.3610    0.6110 C   0  0  0  0  0  0  0  0  0  0  0  0
   23.9190   10.8350   -0.4190 C   0  0  0  0  0  0  0  0  0  0  0  0
   22.6990   10.1690    2.2470 I   0  0  0  0  0  0  0  0  0  0  0  0
   27.9197    9.2359   -1.5032 H   0  0  0  0  0  0  0  0  0  0  0  0
   32.4295    9.7299   -0.2388 H   0  0  0  0  0  0  0  0  0  0  0  0
   33.6034   10.1987   -2.2578 H   0  0  0  0  0  0  0  0  0  0  0  0
   30.3790   10.3140   -5.7062 H   0  0  0  0  0  0  0  0  0  0  0  0
   27.9225    9.9325   -5.7625 H   0  0  0  0  0  0  0  0  0  0  0  0
   26.0020    9.9107   -4.5463 H   0  0  0  0  0  0  0  0  0  0  0  0
   26.1519    7.4012   -4.7709 H   0  0  0  0  0  0  0  0  0  0  0  0
   27.1076    7.2708   -3.2847 H   0  0  0  0  0  0  0  0  0  0  0  0
   25.2109    6.9791   -2.0812 H   0  0  0  0  0  0  0  0  0  0  0  0
   23.6289    8.6788   -1.9132 H   0  0  0  0  0  0  0  0  0  0  0  0
   23.7025    9.0460   -3.6184 H   0  0  0  0  0  0  0  0  0  0  0  0
   25.9849    9.5262   -1.5051 H   0  0  0  0  0  0  0  0  0  0  0  0
   23.9214   13.5236   -2.5091 H   0  0  0  0  0  0  0  0  0  0  0  0
   22.5137   14.4635   -0.6818 H   0  0  0  0  0  0  0  0  0  0  0  0
   22.0010   13.0629    1.3344 H   0  0  0  0  0  0  0  0  0  0  0  0
   24.3060    9.8080   -0.3450 H   0  0  0  0  0  0  0  0  0  0  0  0
 21 22  1  0
 21 20  2  0
 22 23  2  0
 20 19  1  0
 10  9  2  0
 10 11  1  0
  9  8  1  0
  4  3  2  0
  4  5  1  0
 24 23  1  0
 24 19  2  0
  1 11  2  0
  1  2  1  0
 15 17  1  0
 15 14  1  0
 13 12  1  0
 13 14  1  0
 16 19  1  0
 16 17  1  0
 16 18  2  0
 23 25  1  0
 11 12  1  0
  6  8  1  0
  6  5  1  0
  6  7  2  0
  2  8  2  0
  2  3  1  0
 17 12  1  0
  1 26  1  0
  4 27  1  0
  5 28  1  0
  9 29  1  0
 10 30  1  0
 12 31  1  0
 13 32  1  0
 13 33  1  0
 14 34  1  0
 15 35  1  0
 15 36  1  0
 17 37  1  0
 20 38  1  0
 21 39  1  0
 22 40  1  0
 24 41  1  0
A    1
CAK
A    2
CAV
A    3
NAO
A    4
CAI
A    5
NAP
A    6
CAU
A    7
OAB
A    8
CAW
A    9
CAH
A   10
CAG
A   11
CAT
A   12
CAY
A   13
CAM
A   14
NAN
A   15
CAL
A   16
CAQ
A   17
CAX
A   18
OAA
A   19
CAS
A   20
CAF
A   21
CAD
A   22
CAE
A   23
CAR
A   24
CAJ
A   25
ILA
M  END
