4UJ9_S3N_A_1351
     RDKit          3D

 44 47  0  0  0  0  0  0  0  0999 V2000
   20.7560   12.9120    1.4360 F   0  0  0  0  0  0  0  0  0  0  0  0
   21.9700   13.3680    1.3890 C   0  0  0  0  0  0  0  0  0  0  0  0
   22.4060   13.1520    2.5970 F   0  0  0  0  0  0  0  0  0  0  0  0
   22.0250   14.6600    1.2660 F   0  0  0  0  0  0  0  0  0  0  0  0
   22.7750   12.7090    0.3290 C   0  0  0  0  0  0  0  0  0  0  0  0
   23.0950   13.4300   -0.8230 C   0  0  0  0  0  0  0  0  0  0  0  0
   23.8670   12.8260   -1.8240 C   0  0  0  0  0  0  0  0  0  0  0  0
   24.3320   11.5160   -1.6400 C   0  0  0  0  0  0  0  0  0  0  0  0
   24.0150   10.7940   -0.5050 C   0  0  0  0  0  0  0  0  0  0  0  0
   23.2240   11.4070    0.4950 C   0  0  0  0  0  0  0  0  0  0  0  0
   25.1910   10.8150   -2.6790 C   0  0  0  0  0  0  0  0  0  0  0  0
   25.5350   11.4170   -3.7050 O   0  0  0  0  0  0  0  0  0  0  0  0
   25.6540    9.4060   -2.4940 C   0  0  0  0  0  0  0  0  0  0  0  0
   24.5330    8.4010   -2.6370 C   0  0  0  0  0  0  0  0  0  0  0  0
   25.2070    7.1810   -3.0690 N   0  0  0  0  0  0  0  0  0  0  0  0
   26.4930    7.6010   -3.6950 C   0  0  0  0  0  0  0  0  0  0  0  0
   26.5350    9.1280   -3.6570 C   0  0  0  0  0  0  0  0  0  0  0  0
   28.0010    9.3740   -3.6670 C   0  0  0  0  0  0  0  0  0  0  0  0
   28.7140    9.3500   -2.4650 C   0  0  0  0  0  0  0  0  0  0  0  0
   30.1230    9.5470   -2.4190 C   0  0  0  0  0  0  0  0  0  0  0  0
   30.8090    9.7800   -3.5840 C   0  0  0  0  0  0  0  0  0  0  0  0
   30.0870    9.8190   -4.8330 C   0  0  0  0  0  0  0  0  0  0  0  0
   28.6970    9.6260   -4.8720 C   0  0  0  0  0  0  0  0  0  0  0  0
   32.2980    9.9800   -3.5630 C   0  0  0  0  0  0  0  0  0  0  0  0
   32.9170   10.1460   -4.5960 O   0  0  0  0  0  0  0  0  0  0  0  0
   32.9340    9.9370   -2.3040 N   0  0  0  0  0  0  0  0  0  0  0  0
   32.2040    9.7160   -1.0940 C   0  0  0  0  0  0  0  0  0  0  0  0
   30.7740    9.5340   -1.1170 N   0  0  0  0  0  0  0  0  0  0  0  0
   22.7434   14.4653   -0.9439 H   0  0  0  0  0  0  0  0  0  0  0  0
   24.1064   13.3749   -2.7467 H   0  0  0  0  0  0  0  0  0  0  0  0
   24.3715    9.7607   -0.3813 H   0  0  0  0  0  0  0  0  0  0  0  0
   22.9642   10.8495    1.4070 H   0  0  0  0  0  0  0  0  0  0  0  0
   26.1099    9.3154   -1.4970 H   0  0  0  0  0  0  0  0  0  0  0  0
   24.0216    8.2459   -1.6755 H   0  0  0  0  0  0  0  0  0  0  0  0
   23.7570    8.7295   -3.3440 H   0  0  0  0  0  0  0  0  0  0  0  0
   25.3889    6.5703   -2.2598 H   0  0  0  0  0  0  0  0  0  0  0  0
   27.3407    7.1863   -3.1298 H   0  0  0  0  0  0  0  0  0  0  0  0
   26.5627    7.2335   -4.7295 H   0  0  0  0  0  0  0  0  0  0  0  0
   26.1544    9.8012   -4.4393 H   0  0  0  0  0  0  0  0  0  0  0  0
   28.1695    9.1734   -1.5257 H   0  0  0  0  0  0  0  0  0  0  0  0
   30.6345   10.0029   -5.7692 H   0  0  0  0  0  0  0  0  0  0  0  0
   28.1556    9.6703   -5.8285 H   0  0  0  0  0  0  0  0  0  0  0  0
   33.9544   10.0687   -2.2549 H   0  0  0  0  0  0  0  0  0  0  0  0
   32.7403    9.6845   -0.1341 H   0  0  0  0  0  0  0  0  0  0  0  0
  1  2  1  0
  2  3  1  0
  2  4  1  0
  2  5  1  0
  5  6  2  0
  5 10  1  0
  6  7  1  0
  7  8  2  0
  8  9  1  0
  8 11  1  0
  9 10  2  0
 11 12  2  0
 11 13  1  0
 13 14  1  0
 13 17  1  0
 14 15  1  0
 15 16  1  0
 16 17  1  0
 17 18  1  0
 18 19  2  0
 18 23  1  0
 19 20  1  0
 20 21  2  0
 20 28  1  0
 21 22  1  0
 21 24  1  0
 22 23  2  0
 24 25  2  0
 24 26  1  0
 26 27  1  0
 27 28  2  0
  6 29  1  0
  7 30  1  0
  9 31  1  0
 10 32  1  0
 13 33  1  0
 14 34  1  0
 14 35  1  0
 15 36  1  0
 16 37  1  0
 16 38  1  0
 17 39  1  0
 19 40  1  0
 22 41  1  0
 23 42  1  0
 26 43  1  0
 27 44  1  0
A    1
F01
A    2
C02
A    3
F03
A    4
F04
A    5
C05
A    6
C06
A    7
C07
A    8
C08
A    9
C09
A   10
C10
A   11
C11
A   12
O12
A   13
C13
A   14
C14
A   15
N15
A   16
C16
A   17
C17
A   18
C18
A   19
C19
A   20
C20
A   21
C21
A   22
C22
A   23
C23
A   24
C24
A   25
O25
A   26
N26
A   27
C27
A   28
N28
M  END
