4UJA_4L7_A_1351
     RDKit          3D

 38 41  0  0  0  0  0  0  0  0999 V2000
  -25.1360   10.9650    2.6720 C   0  0  0  0  0  0  0  0  0  0  0  0
  -25.6440    9.5380    2.5840 C   0  0  0  0  0  0  0  0  0  0  0  0
  -24.4950    8.5130    2.6660 C   0  0  0  0  0  0  0  0  0  0  0  0
  -26.3590    7.5680    3.7160 C   0  0  0  0  0  0  0  0  0  0  0  0
  -22.1210   14.3580   -0.7520 Br  0  0  0  0  0  0  0  0  0  0  0  0
  -23.1970   11.6900   -0.4750 C   0  0  0  0  0  0  0  0  0  0  0  0
  -23.9650   10.8590    0.3780 C   0  0  0  0  0  0  0  0  0  0  0  0
  -24.3210   11.4670    1.5640 C   0  0  0  0  0  0  0  0  0  0  0  0
  -22.9820   12.9050    0.0660 C   0  0  0  0  0  0  0  0  0  0  0  0
  -25.3920   11.6590    3.6400 O   0  0  0  0  0  0  0  0  0  0  0  0
  -25.0510    7.2520    3.1220 N   0  0  0  0  0  0  0  0  0  0  0  0
  -32.9220   10.1390    4.6570 O   0  0  0  0  0  0  0  0  0  0  0  0
  -32.2390    9.9970    3.6470 C   0  0  0  0  0  0  0  0  0  0  0  0
  -32.7980    9.8230    2.4120 N   0  0  0  0  0  0  0  0  0  0  0  0
  -32.0730    9.5410    1.3020 C   0  0  0  0  0  0  0  0  0  0  0  0
  -30.7690    9.3920    1.2760 N   0  0  0  0  0  0  0  0  0  0  0  0
  -30.0990    9.5710    2.4960 C   0  0  0  0  0  0  0  0  0  0  0  0
  -28.7140    9.3890    2.5200 C   0  0  0  0  0  0  0  0  0  0  0  0
  -30.7760    9.8890    3.6790 C   0  0  0  0  0  0  0  0  0  0  0  0
  -30.0590   10.0590    4.8640 C   0  0  0  0  0  0  0  0  0  0  0  0
  -28.6910    9.8580    4.8730 C   0  0  0  0  0  0  0  0  0  0  0  0
  -28.0070    9.5030    3.7150 C   0  0  0  0  0  0  0  0  0  0  0  0
  -26.5480    9.0970    3.7790 C   0  0  0  0  0  0  0  0  0  0  0  0
  -23.6760   13.0830    1.6380 S   0  0  0  0  0  0  0  0  0  0  0  0
  -26.1902    9.5452    1.6292 H   0  0  0  0  0  0  0  0  0  0  0  0
  -24.0392    8.3829    1.6734 H   0  0  0  0  0  0  0  0  0  0  0  0
  -23.7194    8.8631    3.3630 H   0  0  0  0  0  0  0  0  0  0  0  0
  -27.1562    7.1265    3.0999 H   0  0  0  0  0  0  0  0  0  0  0  0
  -26.4053    7.1539    4.7340 H   0  0  0  0  0  0  0  0  0  0  0  0
  -22.8212   11.3800   -1.4612 H   0  0  0  0  0  0  0  0  0  0  0  0
  -24.2498    9.8285    0.1194 H   0  0  0  0  0  0  0  0  0  0  0  0
  -25.1665    6.6055    2.3285 H   0  0  0  0  0  0  0  0  0  0  0  0
  -33.8202    9.9104    2.3203 H   0  0  0  0  0  0  0  0  0  0  0  0
  -32.6175    9.4287    0.3529 H   0  0  0  0  0  0  0  0  0  0  0  0
  -28.1779    9.1540    1.5887 H   0  0  0  0  0  0  0  0  0  0  0  0
  -30.5801   10.3518    5.7874 H   0  0  0  0  0  0  0  0  0  0  0  0
  -28.1334    9.9811    5.8132 H   0  0  0  0  0  0  0  0  0  0  0  0
  -26.2581    9.5869    4.7203 H   0  0  0  0  0  0  0  0  0  0  0  0
  5  9  1  0
  6  9  2  0
  6  7  1  0
  9 24  1  0
  7  8  2  0
 16 15  2  0
 16 17  1  0
 15 14  1  0
  8 24  1  0
  8  1  1  0
 18 17  1  0
 18 22  2  0
 14 13  1  0
 17 19  2  0
  3  2  1  0
  3 11  1  0
  2  1  1  0
  2 23  1  0
  1 10  2  0
 11  4  1  0
  4 23  1  0
 22 23  1  0
 22 21  1  0
 19 13  1  0
 19 20  1  0
 13 12  2  0
 21 20  2  0
  2 25  1  0
  3 26  1  0
  3 27  1  0
  4 28  1  0
  4 29  1  0
  6 30  1  0
  7 31  1  0
 11 32  1  0
 14 33  1  0
 15 34  1  0
 18 35  1  0
 20 36  1  0
 21 37  1  0
 23 38  1  0
A    1
C4
A    2
C5
A    3
C6
A    4
C7
A    5
BR
A    6
C1
A    7
C2
A    8
C3
A    9
C
A   10
O
A   11
N
A   12
O1
A   13
C15
A   14
N1
A   15
C16
A   16
N2
A   17
C11
A   18
C10
A   19
C12
A   20
C13
A   21
C14
A   22
C9
A   23
C8
A   24
S
M  END
