4UJB_8BQ_A_1351
     RDKit          3D

 41 44  0  0  0  0  0  0  0  0999 V2000
  -23.3420   10.8370   -1.7070 F   0  0  0  0  0  0  0  0  0  0  0  0
  -23.4940   11.5220   -0.6120 C   0  0  0  0  0  0  0  0  0  0  0  0
  -22.9880   12.7420   -0.5110 C   0  0  0  0  0  0  0  0  0  0  0  0
  -23.1690   13.4880    0.6890 C   0  0  0  0  0  0  0  0  0  0  0  0
  -23.8720   12.9050    1.7500 C   0  0  0  0  0  0  0  0  0  0  0  0
  -24.3880   11.6220    1.6270 C   0  0  0  0  0  0  0  0  0  0  0  0
  -24.2180   10.9190    0.4740 C   0  0  0  0  0  0  0  0  0  0  0  0
  -25.1700   10.9690    2.7570 C   0  0  0  0  0  0  0  0  0  0  0  0
  -25.4760   11.6320    3.7780 O   0  0  0  0  0  0  0  0  0  0  0  0
  -25.6390    9.5170    2.5790 C   0  0  0  0  0  0  0  0  0  0  0  0
  -24.4980    8.4170    2.6920 C   0  0  0  0  0  0  0  0  0  0  0  0
  -25.0990    7.3530    3.1610 N   0  0  0  0  0  0  0  0  0  0  0  0
  -26.5110    7.8130    3.7330 C   0  0  0  0  0  0  0  0  0  0  0  0
  -26.5090    9.1800    3.7480 C   0  0  0  0  0  0  0  0  0  0  0  0
  -28.0530    9.4390    3.7460 C   0  0  0  0  0  0  0  0  0  0  0  0
  -28.7090    9.3850    2.5460 C   0  0  0  0  0  0  0  0  0  0  0  0
  -30.1160    9.5770    2.4900 C   0  0  0  0  0  0  0  0  0  0  0  0
  -30.8150    9.8340    3.6540 C   0  0  0  0  0  0  0  0  0  0  0  0
  -30.1190    9.8980    4.9090 C   0  0  0  0  0  0  0  0  0  0  0  0
  -28.7630    9.7110    4.9610 C   0  0  0  0  0  0  0  0  0  0  0  0
  -32.3140   10.0410    3.5800 C   0  0  0  0  0  0  0  0  0  0  0  0
  -32.9770   10.2600    4.5960 O   0  0  0  0  0  0  0  0  0  0  0  0
  -32.9430    9.9730    2.3370 N   0  0  0  0  0  0  0  0  0  0  0  0
  -32.2000    9.7100    1.1320 C   0  0  0  0  0  0  0  0  0  0  0  0
  -30.7740    9.5070    1.1970 N   0  0  0  0  0  0  0  0  0  0  0  0
  -22.4291   13.1782   -1.3521 H   0  0  0  0  0  0  0  0  0  0  0  0
  -22.7628   14.5061    0.7805 H   0  0  0  0  0  0  0  0  0  0  0  0
  -24.0162   13.4659    2.6852 H   0  0  0  0  0  0  0  0  0  0  0  0
  -24.6289    9.9035    0.3744 H   0  0  0  0  0  0  0  0  0  0  0  0
  -26.0953    9.4885    1.5785 H   0  0  0  0  0  0  0  0  0  0  0  0
  -24.0609    8.2103    1.7040 H   0  0  0  0  0  0  0  0  0  0  0  0
  -23.6713    8.7440    3.3397 H   0  0  0  0  0  0  0  0  0  0  0  0
  -25.2327    6.6639    2.4073 H   0  0  0  0  0  0  0  0  0  0  0  0
  -27.3197    7.4433    3.0855 H   0  0  0  0  0  0  0  0  0  0  0  0
  -26.6764    7.4092    4.7427 H   0  0  0  0  0  0  0  0  0  0  0  0
  -26.0954    9.8005    4.5566 H   0  0  0  0  0  0  0  0  0  0  0  0
  -28.1451    9.1923    1.6214 H   0  0  0  0  0  0  0  0  0  0  0  0
  -30.6787   10.0985    5.8345 H   0  0  0  0  0  0  0  0  0  0  0  0
  -28.2275    9.7687    5.9201 H   0  0  0  0  0  0  0  0  0  0  0  0
  -33.9617   10.1141    2.2798 H   0  0  0  0  0  0  0  0  0  0  0  0
  -32.7194    9.6640    0.1635 H   0  0  0  0  0  0  0  0  0  0  0  0
  1  2  1  0
  2  3  2  0
  2  7  1  0
  3  4  1  0
  4  5  2  0
  5  6  1  0
  6  7  2  0
  6  8  1  0
  8  9  2  0
  8 10  1  0
 10 11  1  0
 10 14  1  0
 11 12  1  0
 12 13  1  0
 13 14  1  0
 14 15  1  0
 15 16  2  0
 15 20  1  0
 16 17  1  0
 17 18  2  0
 17 25  1  0
 18 19  1  0
 18 21  1  0
 19 20  2  0
 21 22  2  0
 21 23  1  0
 23 24  1  0
 24 25  2  0
  3 26  1  0
  4 27  1  0
  5 28  1  0
  7 29  1  0
 10 30  1  0
 11 31  1  0
 11 32  1  0
 12 33  1  0
 13 34  1  0
 13 35  1  0
 14 36  1  0
 16 37  1  0
 19 38  1  0
 20 39  1  0
 23 40  1  0
 24 41  1  0
A    1
F01
A    2
C02
A    3
C03
A    4
C04
A    5
C05
A    6
C06
A    7
C07
A    8
C08
A    9
O09
A   10
C10
A   11
C11
A   12
N12
A   13
C13
A   14
C14
A   15
C15
A   16
C16
A   17
C17
A   18
C18
A   19
C19
A   20
C20
A   21
C21
A   22
O22
A   23
N23
A   24
C24
A   25
N25
M  END
