4UMT_47W_A_1335
     RDKit          3D

 56 59  0  0  0  0  0  0  0  0999 V2000
   36.8120   20.0690   23.4470 C   0  0  0  0  0  0  0  0  0  0  0  0
   36.6350   21.4770   23.2560 O   0  0  0  0  0  0  0  0  0  0  0  0
   35.7430   21.8990   22.2990 C   0  0  0  0  0  0  0  0  0  0  0  0
   35.0260   21.0630   21.4570 C   0  0  0  0  0  0  0  0  0  0  0  0
   34.1420   21.5850   20.5170 C   0  0  0  0  0  0  0  0  0  0  0  0
   33.4550   20.7110   19.7050 O   0  0  0  0  0  0  0  0  0  0  0  0
   32.6060   21.2040   18.6250 C   0  0  0  0  0  0  0  0  0  0  0  0
   32.0420   20.0130   17.9580 C   0  0  0  0  0  0  0  0  0  0  0  0
   31.5800   19.0460   17.4190 C   0  0  0  0  0  0  0  0  0  0  0  0
   31.0340   17.8850   16.7730 C   0  0  0  0  0  0  0  0  0  0  0  0
   29.6590   17.6740   16.7260 C   0  0  0  0  0  0  0  0  0  0  0  0
   29.1430   16.5540   16.1030 C   0  0  0  0  0  0  0  0  0  0  0  0
   29.9950   15.6120   15.5080 C   0  0  0  0  0  0  0  0  0  0  0  0
   29.5210   14.4630   14.8660 C   0  0  0  0  0  0  0  0  0  0  0  0
   30.4170   13.5820   14.3060 C   0  0  0  0  0  0  0  0  0  0  0  0
   31.7410   13.7650   14.3410 N   0  0  0  0  0  0  0  0  0  0  0  0
   32.2120   14.8590   14.9530 C   0  0  0  0  0  0  0  0  0  0  0  0
   31.3860   15.8160   15.5520 C   0  0  0  0  0  0  0  0  0  0  0  0
   31.8850   16.9530   16.1850 C   0  0  0  0  0  0  0  0  0  0  0  0
   33.9770   22.9570   20.4210 C   0  0  0  0  0  0  0  0  0  0  0  0
   34.6870   23.8030   21.2570 C   0  0  0  0  0  0  0  0  0  0  0  0
   35.5780   23.2920   22.2080 C   0  0  0  0  0  0  0  0  0  0  0  0
   36.3480   24.2420   23.1050 C   0  0  0  0  0  0  0  0  0  0  0  0
   36.0970   24.0990   24.5850 N   0  0  0  0  0  0  0  0  0  0  0  0
   34.7050   24.5130   24.9410 C   0  0  0  0  0  0  0  0  0  0  0  0
   34.4790   24.3530   26.4390 C   0  0  0  0  0  0  0  0  0  0  0  0
   35.4460   25.1940   27.1910 N   0  0  0  0  0  0  0  0  0  0  0  0
   36.8520   24.8280   26.8640 C   0  0  0  0  0  0  0  0  0  0  0  0
   37.0950   24.9130   25.3590 C   0  0  0  0  0  0  0  0  0  0  0  0
   36.8401   19.8457   24.5237 H   0  0  0  0  0  0  0  0  0  0  0  0
   35.9748   19.5278   22.9820 H   0  0  0  0  0  0  0  0  0  0  0  0
   37.7571   19.7518   22.9820 H   0  0  0  0  0  0  0  0  0  0  0  0
   35.1573   19.9735   21.5327 H   0  0  0  0  0  0  0  0  0  0  0  0
   31.7982   21.8298   19.0322 H   0  0  0  0  0  0  0  0  0  0  0  0
   33.1798   21.8214   17.9182 H   0  0  0  0  0  0  0  0  0  0  0  0
   28.9784   18.4042   17.1882 H   0  0  0  0  0  0  0  0  0  0  0  0
   28.0543   16.3997   16.0733 H   0  0  0  0  0  0  0  0  0  0  0  0
   28.4404   14.2655   14.8094 H   0  0  0  0  0  0  0  0  0  0  0  0
   30.0255   12.6841   13.8055 H   0  0  0  0  0  0  0  0  0  0  0  0
   33.3007   15.0125   14.9863 H   0  0  0  0  0  0  0  0  0  0  0  0
   32.9721   17.1172   16.2207 H   0  0  0  0  0  0  0  0  0  0  0  0
   33.2807   23.3755   19.6794 H   0  0  0  0  0  0  0  0  0  0  0  0
   34.5488   24.8910   21.1724 H   0  0  0  0  0  0  0  0  0  0  0  0
   37.4211   24.0777   22.9277 H   0  0  0  0  0  0  0  0  0  0  0  0
   35.9988   25.2508   22.8398 H   0  0  0  0  0  0  0  0  0  0  0  0
   36.2061   23.1054   24.8333 H   0  0  0  0  0  0  0  0  0  0  0  0
   34.5556   25.5662   24.6608 H   0  0  0  0  0  0  0  0  0  0  0  0
   33.9900   23.8768   24.3987 H   0  0  0  0  0  0  0  0  0  0  0  0
   33.4540   24.6649   26.6882 H   0  0  0  0  0  0  0  0  0  0  0  0
   34.6255   23.2986   26.7159 H   0  0  0  0  0  0  0  0  0  0  0  0
   35.2914   26.1826   26.9467 H   0  0  0  0  0  0  0  0  0  0  0  0
   35.2962   25.0391   28.1982 H   0  0  0  0  0  0  0  0  0  0  0  0
   37.5345   25.5195   27.3797 H   0  0  0  0  0  0  0  0  0  0  0  0
   37.0347   23.7948   27.1942 H   0  0  0  0  0  0  0  0  0  0  0  0
   38.1059   24.5388   25.1400 H   0  0  0  0  0  0  0  0  0  0  0  0
   36.9877   25.9646   25.0545 H   0  0  0  0  0  0  0  0  0  0  0  0
  1  2  1  0
  2  3  1  0
  3  4  2  0
  3 22  1  0
  4  5  1  0
  5  6  1  0
  5 20  2  0
  6  7  1  0
  7  8  1  0
  8  9  3  0
  9 10  1  0
 10 11  2  0
 10 19  1  0
 11 12  1  0
 12 13  2  0
 13 14  1  0
 13 18  1  0
 14 15  2  0
 15 16  1  0
 16 17  2  0
 17 18  1  0
 18 19  2  0
 20 21  1  0
 21 22  2  0
 22 23  1  0
 23 24  1  0
 24 25  1  0
 24 29  1  0
 25 26  1  0
 26 27  1  0
 27 28  1  0
 28 29  1  0
  1 30  1  0
  1 31  1  0
  1 32  1  0
  4 33  1  0
  7 34  1  0
  7 35  1  0
 11 36  1  0
 12 37  1  0
 14 38  1  0
 15 39  1  0
 17 40  1  0
 19 41  1  0
 20 42  1  0
 21 43  1  0
 23 44  1  0
 23 45  1  0
 24 46  1  0
 25 47  1  0
 25 48  1  0
 26 49  1  0
 26 50  1  0
 27 51  1  0
 27 52  1  0
 28 53  1  0
 28 54  1  0
 29 55  1  0
 29 56  1  0
M  CHG  2  24   1  27   1
A    1
C1
A    2
O2
A    3
C3
A    4
C4
A    5
C5
A    6
O6
A    7
C7
A    8
C8
A    9
C9
A   10
C10
A   11
C11
A   12
C12
A   13
C13
A   14
C14
A   15
C15
A   16
N16
A   17
C17
A   18
C18
A   19
C19
A   20
C20
A   21
C21
A   22
C22
A   23
C23
A   24
N24
A   25
C26
A   26
C27
A   27
N28
A   28
C31
A   29
C32
M  END
