4UMZ_XJO_A_1408
     RDKit          3D

 72 73  0  0  0  0  0  0  0  0999 V2000
   54.5810   16.9660   56.9550 O   0  0  0  0  0  0  0  0  0  0  0  0
   53.8740   16.2540   57.6790 C   0  0  0  0  0  0  0  0  0  0  0  0
   52.8130   16.7710   58.5880 C   0  0  0  0  0  0  0  0  0  0  0  0
   54.1410   14.7750   57.7980 C   0  0  0  0  0  0  0  0  0  0  0  0
   52.8960   13.9880   57.3450 C   0  0  0  0  0  0  0  0  0  0  0  0
   54.7280   14.6510   59.2380 C   0  0  0  0  0  0  0  0  0  0  0  0
   54.2590   13.6300   60.2840 C   0  0  0  0  0  0  0  0  0  0  0  0
   52.8290   13.0890   60.1360 C   0  0  0  0  0  0  0  0  0  0  0  0
   54.5230   14.1640   61.7180 C   0  0  0  0  0  0  0  0  0  0  0  0
   53.4610   15.0390   62.4100 C   0  0  0  0  0  0  0  0  0  0  0  0
   53.5350   14.9480   63.9440 C   0  0  0  0  0  0  0  0  0  0  0  0
   53.4860   16.4850   62.0440 C   0  0  0  0  0  0  0  0  0  0  0  0
   54.5110   17.1300   62.1450 O   0  0  0  0  0  0  0  0  0  0  0  0
   52.2050   17.0440   61.6000 O   0  0  0  0  0  0  0  0  0  0  0  0
   52.0710   18.4320   61.2520 C   0  0  0  0  0  0  0  0  0  0  0  0
   51.2010   19.1060   62.3240 C   0  0  0  0  0  0  0  0  0  0  0  0
   50.0600   19.9540   61.8160 C   0  0  0  0  0  0  0  0  0  0  0  0
   51.5190   18.5180   59.8210 C   0  0  0  0  0  0  0  0  0  0  0  0
   50.1820   17.7640   59.6810 C   0  0  0  0  0  0  0  0  0  0  0  0
   52.5950   18.0690   58.8280 C   0  0  0  0  0  0  0  0  0  0  0  0
   54.4180   13.0490   62.5740 O   0  0  0  0  0  0  0  0  0  0  0  0
   55.5100   12.1640   62.8800 C   0  0  0  0  0  0  0  0  0  0  0  0
   56.6000   12.6510   63.1540 O   0  0  0  0  0  0  0  0  0  0  0  0
   55.1450   10.6850   62.8860 C   0  0  0  0  0  0  0  0  0  0  0  0
   56.0300    9.6330   63.4620 C   0  0  0  0  0  0  0  0  0  0  0  0
   57.3900    9.9400   64.0440 C   0  0  0  0  0  0  0  0  0  0  0  0
   57.2890   10.7760   65.2300 N   0  0  0  0  0  0  0  0  0  0  0  0
   56.9260    9.9500   66.3640 C   0  0  0  0  0  0  0  0  0  0  0  0
   58.5200   11.5330   65.4660 C   0  0  0  0  0  0  0  0  0  0  0  0
   55.5900    8.3210   63.4020 C   0  0  0  0  0  0  0  0  0  0  0  0
   54.3520    7.9940   62.8400 C   0  0  0  0  0  0  0  0  0  0  0  0
   53.5100    8.9690   62.3190 C   0  0  0  0  0  0  0  0  0  0  0  0
   53.9030   10.2940   62.3470 C   0  0  0  0  0  0  0  0  0  0  0  0
   52.1673   16.0385   59.0944 H   0  0  0  0  0  0  0  0  0  0  0  0
   54.8778   14.3020   57.1321 H   0  0  0  0  0  0  0  0  0  0  0  0
   52.3421   13.6378   58.2285 H   0  0  0  0  0  0  0  0  0  0  0  0
   52.2487   14.6414   56.7416 H   0  0  0  0  0  0  0  0  0  0  0  0
   53.2085   13.1230   56.7416 H   0  0  0  0  0  0  0  0  0  0  0  0
   55.8036   14.4636   59.1036 H   0  0  0  0  0  0  0  0  0  0  0  0
   54.3621   15.5857   59.6879 H   0  0  0  0  0  0  0  0  0  0  0  0
   54.8756   12.7407   60.0867 H   0  0  0  0  0  0  0  0  0  0  0  0
   52.3942   12.9245   61.1329 H   0  0  0  0  0  0  0  0  0  0  0  0
   52.2166   13.8176   59.5845 H   0  0  0  0  0  0  0  0  0  0  0  0
   52.8522   12.1375   59.5845 H   0  0  0  0  0  0  0  0  0  0  0  0
   55.4565   14.7305   61.5850 H   0  0  0  0  0  0  0  0  0  0  0  0
   52.5200   14.6123   62.0327 H   0  0  0  0  0  0  0  0  0  0  0  0
   52.9002   15.7286   64.3887 H   0  0  0  0  0  0  0  0  0  0  0  0
   53.1820   13.9585   64.2701 H   0  0  0  0  0  0  0  0  0  0  0  0
   54.5757   15.0918   64.2701 H   0  0  0  0  0  0  0  0  0  0  0  0
   53.0283   18.9738   61.2424 H   0  0  0  0  0  0  0  0  0  0  0  0
   50.7751   18.3143   62.9579 H   0  0  0  0  0  0  0  0  0  0  0  0
   51.8703   19.7985   62.8555 H   0  0  0  0  0  0  0  0  0  0  0  0
   49.5028   20.3681   62.6692 H   0  0  0  0  0  0  0  0  0  0  0  0
   50.4587   20.7767   61.2043 H   0  0  0  0  0  0  0  0  0  0  0  0
   49.3872   19.3350   61.2043 H   0  0  0  0  0  0  0  0  0  0  0  0
   51.2764   19.5638   59.5811 H   0  0  0  0  0  0  0  0  0  0  0  0
   49.7819   17.5384   60.6805 H   0  0  0  0  0  0  0  0  0  0  0  0
   49.4638   18.3901   59.1313 H   0  0  0  0  0  0  0  0  0  0  0  0
   50.3462   16.8254   59.1313 H   0  0  0  0  0  0  0  0  0  0  0  0
   53.1979   18.8253   58.3040 H   0  0  0  0  0  0  0  0  0  0  0  0
   57.8841    8.9951   64.3144 H   0  0  0  0  0  0  0  0  0  0  0  0
   57.9727   10.4857   63.2872 H   0  0  0  0  0  0  0  0  0  0  0  0
   57.1607   10.4840   67.2966 H   0  0  0  0  0  0  0  0  0  0  0  0
   55.8486    9.7309   66.3281 H   0  0  0  0  0  0  0  0  0  0  0  0
   57.4931    9.0082   66.3281 H   0  0  0  0  0  0  0  0  0  0  0  0
   58.6859   11.6350   66.5486 H   0  0  0  0  0  0  0  0  0  0  0  0
   59.3699   11.0013   65.0133 H   0  0  0  0  0  0  0  0  0  0  0  0
   58.4290   12.5314   65.0133 H   0  0  0  0  0  0  0  0  0  0  0  0
   56.2274    7.5200   63.8046 H   0  0  0  0  0  0  0  0  0  0  0  0
   54.0373    6.9404   62.8096 H   0  0  0  0  0  0  0  0  0  0  0  0
   52.5379    8.6885   61.8875 H   0  0  0  0  0  0  0  0  0  0  0  0
   53.2297   11.0620   61.9385 H   0  0  0  0  0  0  0  0  0  0  0  0
  1  2  2  0
  2  3  1  0
  2  4  1  0
  3 20  2  0
  4  5  1  0
  4  6  1  0
  6  7  1  0
  7  8  1  0
  7  9  1  0
  9 10  1  0
  9 21  1  0
 10 11  1  0
 10 12  1  0
 12 13  2  0
 12 14  1  0
 14 15  1  0
 15 16  1  0
 15 18  1  0
 16 17  1  0
 18 19  1  0
 18 20  1  0
 21 22  1  0
 22 23  2  0
 22 24  1  0
 24 25  2  0
 24 33  1  0
 25 26  1  0
 25 30  1  0
 26 27  1  0
 27 28  1  0
 27 29  1  0
 30 31  2  0
 31 32  1  0
 32 33  2  0
  3 34  1  0
  4 35  1  0
  5 36  1  0
  5 37  1  0
  5 38  1  0
  6 39  1  0
  6 40  1  0
  7 41  1  0
  8 42  1  0
  8 43  1  0
  8 44  1  0
  9 45  1  0
 10 46  1  0
 11 47  1  0
 11 48  1  0
 11 49  1  0
 15 50  1  0
 16 51  1  0
 16 52  1  0
 17 53  1  0
 17 54  1  0
 17 55  1  0
 18 56  1  0
 19 57  1  0
 19 58  1  0
 19 59  1  0
 20 60  1  0
 26 61  1  0
 26 62  1  0
 28 63  1  0
 28 64  1  0
 28 65  1  0
 29 66  1  0
 29 67  1  0
 29 68  1  0
 30 69  1  0
 31 70  1  0
 32 71  1  0
 33 72  1  0
A    1
O4
A    2
C26
A    3
C
A    4
C24
A    5
C25
A    6
C23
A    7
C21
A    8
C22
A    9
C10
A   10
C8
A   11
C9
A   12
C7
A   13
O1
A   14
O
A   15
C4
A   16
C5
A   17
C6
A   18
C2
A   19
C3
A   20
C1
A   21
O2
A   22
C11
A   23
O3
A   24
C12
A   25
C17
A   26
C18
A   27
N
A   28
C20
A   29
C19
A   30
C16
A   31
C15
A   32
C14
A   33
C13
M  END
