4UNP_TXW_A_1211
     RDKit          3D

 29 30  0  0  0  0  0  0  0  0999 V2000
   41.8050   32.3730   55.9920 C   0  0  0  0  0  0  0  0  0  0  0  0
   43.0690   31.8060   57.9360 C   0  0  0  0  0  0  0  0  0  0  0  0
   42.4600   31.4280   56.7420 C   0  0  0  0  0  0  0  0  0  0  0  0
   41.7690   33.6670   56.4540 C   0  0  0  0  0  0  0  0  0  0  0  0
   43.0030   33.1410   58.3270 C   0  0  0  0  0  0  0  0  0  0  0  0
   43.7330   30.7810   58.6950 C   0  0  0  0  0  0  0  0  0  0  0  0
   43.7630   29.4990   58.2620 C   0  0  0  0  0  0  0  0  0  0  0  0
   43.1190   29.1040   57.0140 C   0  0  0  0  0  0  0  0  0  0  0  0
   43.6760   33.6680   59.5620 C   0  0  0  0  0  0  0  0  0  0  0  0
   43.2760   35.7710   55.4730 C   0  0  0  0  0  0  0  0  0  0  0  0
   41.0470   34.7410   55.6760 C   0  0  0  0  0  0  0  0  0  0  0  0
   41.9350   35.5970   54.8220 C   0  0  0  0  0  0  0  0  0  0  0  0
   42.3560   34.0450   57.5890 N   0  0  0  0  0  0  0  0  0  0  0  0
   42.4890   30.1060   56.3320 N   0  0  0  0  0  0  0  0  0  0  0  0
   43.1280   27.9490   56.5600 O   0  0  0  0  0  0  0  0  0  0  0  0
   41.3200   32.1008   55.0429 H   0  0  0  0  0  0  0  0  0  0  0  0
   44.2248   31.0432   59.6434 H   0  0  0  0  0  0  0  0  0  0  0  0
   44.2837   28.7393   58.8635 H   0  0  0  0  0  0  0  0  0  0  0  0
   43.1689   33.2709   60.4537 H   0  0  0  0  0  0  0  0  0  0  0  0
   44.7297   33.3524   59.5684 H   0  0  0  0  0  0  0  0  0  0  0  0
   43.6223   34.7667   59.5684 H   0  0  0  0  0  0  0  0  0  0  0  0
   43.1575   35.7556   56.5665 H   0  0  0  0  0  0  0  0  0  0  0  0
   43.9423   34.9518   55.1648 H   0  0  0  0  0  0  0  0  0  0  0  0
   43.7111   36.7331   55.1648 H   0  0  0  0  0  0  0  0  0  0  0  0
   40.3086   34.2536   55.0224 H   0  0  0  0  0  0  0  0  0  0  0  0
   40.5897   35.4105   56.4194 H   0  0  0  0  0  0  0  0  0  0  0  0
   41.4669   36.5832   54.6868 H   0  0  0  0  0  0  0  0  0  0  0  0
   42.0724   35.1073   53.8466 H   0  0  0  0  0  0  0  0  0  0  0  0
   42.0044   29.8623   55.4564 H   0  0  0  0  0  0  0  0  0  0  0  0
  1  3  2  0
  1  4  1  0
  2  3  1  0
  2  5  2  0
  2  6  1  0
  3 14  1  0
  4 11  1  0
  4 13  2  0
  5  9  1  0
  5 13  1  0
  6  7  2  0
  7  8  1  0
  8 14  1  0
  8 15  2  0
 10 12  1  0
 11 12  1  0
  1 16  1  0
  6 17  1  0
  7 18  1  0
  9 19  1  0
  9 20  1  0
  9 21  1  0
 10 22  1  0
 10 23  1  0
 10 24  1  0
 11 25  1  0
 11 26  1  0
 12 27  1  0
 12 28  1  0
 14 29  1  0
A    1
C5
A    2
C7
A    3
C6
A    4
C4
A    5
C13
A    6
C8
A    7
C9
A    8
C10
A    9
C15
A   10
C1
A   11
C3
A   12
C2
A   13
N14
A   14
N12
A   15
O11
M  END
