4UNQ_H6D_A_1210
     RDKit          3D

 32 33  0  0  0  0  0  0  0  0999 V2000
   22.8900   37.7350   -5.8130 C   0  0  0  0  0  0  0  0  0  0  0  0
   23.4600   37.7550   -7.4870 S   0  0  0  0  0  0  0  0  0  0  0  0
   24.8860   38.1960   -7.4170 O   0  0  0  0  0  0  0  0  0  0  0  0
   23.4530   36.0090   -7.7900 C   0  0  0  0  0  0  0  0  0  0  0  0
   24.6710   35.3130   -7.6000 C   0  0  0  0  0  0  0  0  0  0  0  0
   24.7220   33.9650   -7.8210 C   0  0  0  0  0  0  0  0  0  0  0  0
   23.5430   33.3270   -8.2160 N   0  0  0  0  0  0  0  0  0  0  0  0
   22.3160   33.9530   -8.4070 C   0  0  0  0  0  0  0  0  0  0  0  0
   21.3340   33.3190   -8.7540 O   0  0  0  0  0  0  0  0  0  0  0  0
   22.3160   35.3650   -8.1700 C   0  0  0  0  0  0  0  0  0  0  0  0
   21.0730   36.0290   -8.3380 C   0  0  0  0  0  0  0  0  0  0  0  0
   20.0740   36.5690   -8.4330 N   0  0  0  0  0  0  0  0  0  0  0  0
   25.9140   33.1140   -7.5760 C   0  0  0  0  0  0  0  0  0  0  0  0
   26.0310   31.8370   -8.1370 C   0  0  0  0  0  0  0  0  0  0  0  0
   27.1390   31.0330   -7.8530 C   0  0  0  0  0  0  0  0  0  0  0  0
   28.1300   31.4720   -6.9960 C   0  0  0  0  0  0  0  0  0  0  0  0
   28.0130   32.7280   -6.4420 C   0  0  0  0  0  0  0  0  0  0  0  0
   26.9120   33.5490   -6.7150 C   0  0  0  0  0  0  0  0  0  0  0  0
   28.9950   33.1810   -5.5660 O   0  0  0  0  0  0  0  0  0  0  0  0
   29.8440   34.0810   -5.9400 C   0  0  0  0  0  0  0  0  0  0  0  0
   30.5950   34.3920   -4.8940 F   0  0  0  0  0  0  0  0  0  0  0  0
   29.3040   35.1690   -6.4300 F   0  0  0  0  0  0  0  0  0  0  0  0
   30.6230   33.7050   -6.9230 F   0  0  0  0  0  0  0  0  0  0  0  0
   23.7529   37.7653   -5.1315 H   0  0  0  0  0  0  0  0  0  0  0  0
   22.2498   38.6112   -5.6332 H   0  0  0  0  0  0  0  0  0  0  0  0
   22.3128   36.8160   -5.6332 H   0  0  0  0  0  0  0  0  0  0  0  0
   25.5721   35.8544   -7.2761 H   0  0  0  0  0  0  0  0  0  0  0  0
   23.5864   32.3109   -8.3788 H   0  0  0  0  0  0  0  0  0  0  0  0
   25.2437   31.4624   -8.8077 H   0  0  0  0  0  0  0  0  0  0  0  0
   27.2228   30.0393   -8.3173 H   0  0  0  0  0  0  0  0  0  0  0  0
   28.9937   30.8325   -6.7612 H   0  0  0  0  0  0  0  0  0  0  0  0
   26.8378   34.5412   -6.2459 H   0  0  0  0  0  0  0  0  0  0  0  0
  1  2  1  0
  2  3  2  0
  2  4  1  0
  4  5  1  0
  4 10  2  0
  5  6  2  0
  6  7  1  0
  6 13  1  0
  7  8  1  0
  8  9  2  0
  8 10  1  0
 10 11  1  0
 11 12  3  0
 13 14  2  0
 13 18  1  0
 14 15  1  0
 15 16  2  0
 16 17  1  0
 17 18  2  0
 17 19  1  0
 19 20  1  0
 20 21  1  0
 20 22  1  0
 20 23  1  0
  1 24  1  0
  1 25  1  0
  1 26  1  0
  5 27  1  0
  7 28  1  0
 14 29  1  0
 15 30  1  0
 16 31  1  0
 18 32  1  0
A    1
C1
A    2
S2
A    3
O3
A    4
C4
A    5
C5
A    6
C6
A    7
N7
A    8
C8
A    9
O9
A   10
C10
A   11
C11
A   12
N12
A   13
C13
A   14
C14
A   15
C15
A   16
C16
A   17
C17
A   18
C18
A   19
O19
A   20
C20
A   21
F21
A   22
F22
A   23
F23
M  END
