4UNR_QZE_A_1211
     RDKit          3D

 47 51  0  0  0  0  0  0  0  0999 V2000
   53.8870   35.9040    8.0300 C   0  0  0  0  0  0  0  0  0  0  0  0
   48.0670   30.7890    7.6690 C   0  0  0  0  0  0  0  0  0  0  0  0
   47.0370   31.2470    6.8890 C   0  0  0  0  0  0  0  0  0  0  0  0
   49.1680   31.5860    7.8810 C   0  0  0  0  0  0  0  0  0  0  0  0
   52.3470   37.8020    6.2120 C   0  0  0  0  0  0  0  0  0  0  0  0
   50.5950   38.0690    7.7790 C   0  0  0  0  0  0  0  0  0  0  0  0
   52.3300   39.1610    5.9430 C   0  0  0  0  0  0  0  0  0  0  0  0
   50.5690   39.4310    7.5170 C   0  0  0  0  0  0  0  0  0  0  0  0
   45.2360   33.9930    5.7810 C   0  0  0  0  0  0  0  0  0  0  0  0
   45.4160   32.2010    4.3570 C   0  0  0  0  0  0  0  0  0  0  0  0
   47.1170   32.4930    6.3230 C   0  0  0  0  0  0  0  0  0  0  0  0
   45.9790   32.9010    5.5200 C   0  0  0  0  0  0  0  0  0  0  0  0
   51.4890   37.2380    7.1270 C   0  0  0  0  0  0  0  0  0  0  0  0
   49.2490   32.8380    7.3240 C   0  0  0  0  0  0  0  0  0  0  0  0
   51.4460   39.9780    6.6020 C   0  0  0  0  0  0  0  0  0  0  0  0
   48.2160   33.3010    6.5360 C   0  0  0  0  0  0  0  0  0  0  0  0
   52.6430   35.2450    7.8520 C   0  0  0  0  0  0  0  0  0  0  0  0
   51.4980   35.8070    7.4150 C   0  0  0  0  0  0  0  0  0  0  0  0
   50.4020   33.6840    7.5320 C   0  0  0  0  0  0  0  0  0  0  0  0
   50.3400   34.9900    7.2530 C   0  0  0  0  0  0  0  0  0  0  0  0
   52.6960   33.8000    8.1610 C   0  0  0  0  0  0  0  0  0  0  0  0
   51.4540   41.4280    6.2770 C   0  0  0  0  0  0  0  0  0  0  0  0
   48.3170   34.6540    5.9110 C   0  0  0  0  0  0  0  0  0  0  0  0
   49.0880   35.6250    6.7620 C   0  0  0  0  0  0  0  0  0  0  0  0
   54.8660   36.5170    8.1290 N   0  0  0  0  0  0  0  0  0  0  0  0
   44.2440   34.2290    5.0260 N   0  0  0  0  0  0  0  0  0  0  0  0
   44.2400   33.1740    4.1060 N   0  0  0  0  0  0  0  0  0  0  0  0
   51.5520   33.1150    7.9860 N   0  0  0  0  0  0  0  0  0  0  0  0
   53.7210   33.2690    8.5670 O   0  0  0  0  0  0  0  0  0  0  0  0
   51.9460   41.8990    5.2540 O   0  0  0  0  0  0  0  0  0  0  0  0
   50.8610   42.1450    7.2660 O   0  0  0  0  0  0  0  0  0  0  0  0
   48.0134   29.7887    8.1234 H   0  0  0  0  0  0  0  0  0  0  0  0
   46.1509   30.6180    6.7181 H   0  0  0  0  0  0  0  0  0  0  0  0
   49.9944   31.2151    8.5051 H   0  0  0  0  0  0  0  0  0  0  0  0
   53.0640   37.1586    5.6810 H   0  0  0  0  0  0  0  0  0  0  0  0
   49.8960   37.6441    8.5145 H   0  0  0  0  0  0  0  0  0  0  0  0
   53.0241   39.5845    5.2022 H   0  0  0  0  0  0  0  0  0  0  0  0
   49.8479   40.0766    8.0396 H   0  0  0  0  0  0  0  0  0  0  0  0
   45.4810   34.6590    6.6215 H   0  0  0  0  0  0  0  0  0  0  0  0
   45.7287   31.2845    3.8353 H   0  0  0  0  0  0  0  0  0  0  0  0
   48.8235   34.5569    4.9394 H   0  0  0  0  0  0  0  0  0  0  0  0
   47.2959   35.0468    5.7971 H   0  0  0  0  0  0  0  0  0  0  0  0
   48.4709   35.9255    7.6215 H   0  0  0  0  0  0  0  0  0  0  0  0
   49.3443   36.5085    6.1589 H   0  0  0  0  0  0  0  0  0  0  0  0
   43.5875   35.0209    5.0784 H   0  0  0  0  0  0  0  0  0  0  0  0
   51.5458   32.1089    8.2067 H   0  0  0  0  0  0  0  0  0  0  0  0
   51.0428   41.9252    8.2140 H   0  0  0  0  0  0  0  0  0  0  0  0
  1 17  1  0
  1 25  3  0
  2  3  2  0
  2  4  1  0
  3 11  1  0
  4 14  2  0
  5  7  2  0
  5 13  1  0
  6  8  1  0
  6 13  2  0
  7 15  1  0
  8 15  2  0
  9 12  2  0
  9 26  1  0
 10 12  1  0
 10 27  2  0
 11 12  1  0
 11 16  2  0
 13 18  1  0
 14 16  1  0
 14 19  1  0
 15 22  1  0
 16 23  1  0
 17 18  2  0
 17 21  1  0
 18 20  1  0
 19 20  2  0
 19 28  1  0
 20 24  1  0
 21 28  1  0
 21 29  2  0
 22 30  2  0
 22 31  1  0
 23 24  1  0
 26 27  1  0
  2 32  1  0
  3 33  1  0
  4 34  1  0
  5 35  1  0
  6 36  1  0
  7 37  1  0
  8 38  1  0
  9 39  1  0
 10 40  1  0
 23 41  1  0
 23 42  1  0
 24 43  1  0
 24 44  1  0
 26 45  1  0
 28 46  1  0
 31 47  1  0
A    1
C14
A    2
C1
A    3
C2
A    4
C6
A    5
C17
A    6
C21
A    7
C18
A    8
C20
A    9
C31
A   10
C28
A   11
C3
A   12
C27
A   13
C16
A   14
C5
A   15
C19
A   16
C4
A   17
C10
A   18
C9
A   19
C7
A   20
C8
A   21
C11
A   22
C22
A   23
C26
A   24
C25
A   25
N15
A   26
N30
A   27
N29
A   28
N13
A   29
O12
A   30
O23
A   31
O24
M  END
