4UNS_QZ3_A_1210
     RDKit          3D

 45 47  0  0  0  0  0  0  0  0999 V2000
    4.1110   20.8670   -8.0070 C   0  0  0  0  0  0  0  0  0  0  0  0
    7.3750   19.1320   -7.8400 C   0  0  0  0  0  0  0  0  0  0  0  0
    6.3850   20.2820   -6.0440 C   0  0  0  0  0  0  0  0  0  0  0  0
    8.5690   19.7720   -7.5720 C   0  0  0  0  0  0  0  0  0  0  0  0
    7.5730   20.9300   -5.7740 C   0  0  0  0  0  0  0  0  0  0  0  0
    3.2800   15.4250   -7.8080 C   0  0  0  0  0  0  0  0  0  0  0  0
    6.2630   19.3780   -7.0750 C   0  0  0  0  0  0  0  0  0  0  0  0
    4.7710   17.2500   -7.3750 C   0  0  0  0  0  0  0  0  0  0  0  0
    3.5620   16.7640   -7.8200 C   0  0  0  0  0  0  0  0  0  0  0  0
    8.6800   20.6800   -6.5410 C   0  0  0  0  0  0  0  0  0  0  0  0
    4.2290   14.5670   -7.3350 C   0  0  0  0  0  0  0  0  0  0  0  0
    5.6730   16.3080   -6.9060 C   0  0  0  0  0  0  0  0  0  0  0  0
    4.0100   19.4720   -7.8970 C   0  0  0  0  0  0  0  0  0  0  0  0
    5.0060   18.6880   -7.4270 C   0  0  0  0  0  0  0  0  0  0  0  0
    2.7140   18.9490   -8.3560 C   0  0  0  0  0  0  0  0  0  0  0  0
    7.0360   16.6600   -6.3760 C   0  0  0  0  0  0  0  0  0  0  0  0
    4.0970   12.5200   -5.9500 C   0  0  0  0  0  0  0  0  0  0  0  0
    9.2830   23.6920   -5.1250 C   0  0  0  0  0  0  0  0  0  0  0  0
    3.9140   13.0940   -7.3290 C   0  0  0  0  0  0  0  0  0  0  0  0
    4.2010   22.0160   -8.1040 N   0  0  0  0  0  0  0  0  0  0  0  0
    5.4090   14.9920   -6.8850 N   0  0  0  0  0  0  0  0  0  0  0  0
    2.5640   17.5940   -8.2960 N   0  0  0  0  0  0  0  0  0  0  0  0
    9.9760   21.2920   -6.3840 N   0  0  0  0  0  0  0  0  0  0  0  0
    1.8630   19.7250   -8.7820 O   0  0  0  0  0  0  0  0  0  0  0  0
   11.7350   22.9530   -5.5000 O   0  0  0  0  0  0  0  0  0  0  0  0
   10.3710   21.6420   -3.8390 O   0  0  0  0  0  0  0  0  0  0  0  0
   10.4620   22.3660   -5.1080 S   0  0  0  0  0  0  0  0  0  0  0  0
    7.3149   18.4182   -8.6748 H   0  0  0  0  0  0  0  0  0  0  0  0
    5.5076   20.4945   -5.4155 H   0  0  0  0  0  0  0  0  0  0  0  0
    9.4494   19.5527   -8.1940 H   0  0  0  0  0  0  0  0  0  0  0  0
    7.6311   21.6477   -4.9424 H   0  0  0  0  0  0  0  0  0  0  0  0
    2.3117   15.0498   -8.1709 H   0  0  0  0  0  0  0  0  0  0  0  0
    7.0144   16.6544   -5.2762 H   0  0  0  0  0  0  0  0  0  0  0  0
    7.7697   15.9219   -6.7321 H   0  0  0  0  0  0  0  0  0  0  0  0
    7.3206   17.6611   -6.7321 H   0  0  0  0  0  0  0  0  0  0  0  0
    3.8529   13.2856   -5.1988 H   0  0  0  0  0  0  0  0  0  0  0  0
    3.4302   11.6546   -5.8216 H   0  0  0  0  0  0  0  0  0  0  0  0
    5.1416   12.2002   -5.8216 H   0  0  0  0  0  0  0  0  0  0  0  0
    9.0328   23.9734   -4.0915 H   0  0  0  0  0  0  0  0  0  0  0  0
    9.7139   24.5591   -5.6470 H   0  0  0  0  0  0  0  0  0  0  0  0
    8.3715   23.3655   -5.6470 H   0  0  0  0  0  0  0  0  0  0  0  0
    2.8715   12.9457   -7.6471 H   0  0  0  0  0  0  0  0  0  0  0  0
    4.5988   12.5816   -8.0207 H   0  0  0  0  0  0  0  0  0  0  0  0
    1.6786   17.1760   -8.6157 H   0  0  0  0  0  0  0  0  0  0  0  0
   10.6836   21.0705   -7.0990 H   0  0  0  0  0  0  0  0  0  0  0  0
  1 13  1  0
  1 20  3  0
  2  4  2  0
  2  7  1  0
  3  5  1  0
  3  7  2  0
  4 10  1  0
  5 10  2  0
  6  9  2  0
  6 11  1  0
  7 14  1  0
  8  9  1  0
  8 12  2  0
  8 14  1  0
  9 22  1  0
 10 23  1  0
 11 19  1  0
 11 21  2  0
 12 16  1  0
 12 21  1  0
 13 14  2  0
 13 15  1  0
 15 22  1  0
 15 24  2  0
 17 19  1  0
 18 27  1  0
 23 27  1  0
 25 27  2  0
 26 27  2  0
  2 28  1  0
  3 29  1  0
  4 30  1  0
  5 31  1  0
  6 32  1  0
 16 33  1  0
 16 34  1  0
 16 35  1  0
 17 36  1  0
 17 37  1  0
 17 38  1  0
 18 39  1  0
 18 40  1  0
 18 41  1  0
 19 42  1  0
 19 43  1  0
 22 44  1  0
 23 45  1  0
A    1
C15
A    2
C18
A    3
C22
A    4
C19
A    5
C21
A    6
C4
A    7
C17
A    8
C6
A    9
C5
A   10
C20
A   11
C3
A   12
C7
A   13
C11
A   14
C10
A   15
C12
A   16
C9
A   17
C1
A   18
C27
A   19
C2
A   20
N16
A   21
N8
A   22
N14
A   23
N23
A   24
O13
A   25
O25
A   26
O26
A   27
S24
M  END
