4UGQ_7LN_A_904
     RDKit          3D

 65 68  0  0  0  0  0  0  0  0999 V2000
   14.6300   14.1490   15.7300 N   0  0  0  0  0  0  0  0  0  0  0  0
   13.5720   13.6240   15.2790 C   0  0  0  0  0  0  0  0  0  0  0  0
   13.4530   13.2800   13.8320 C   0  0  0  0  0  0  0  0  0  0  0  0
   14.0150   14.4480   12.6870 S   0  0  0  0  0  0  0  0  0  0  0  0
   13.5980   13.5080   11.2880 C   0  0  0  0  0  0  0  0  0  0  0  0
   13.0310   12.3180   11.7570 C   0  0  0  0  0  0  0  0  0  0  0  0
   12.9420   12.1790   13.1500 C   0  0  0  0  0  0  0  0  0  0  0  0
   12.5110   13.3700   16.0550 N   0  0  0  0  0  0  0  0  0  0  0  0
   12.5200   12.8930   17.3260 C   0  0  0  0  0  0  0  0  0  0  0  0
   11.4730   13.2640   18.1750 C   0  0  0  0  0  0  0  0  0  0  0  0
   13.5130   12.0300   17.7880 C   0  0  0  0  0  0  0  0  0  0  0  0
   13.4570   11.5650   19.1000 C   0  0  0  0  0  0  0  0  0  0  0  0
   12.4110   11.9480   19.9420 C   0  0  0  0  0  0  0  0  0  0  0  0
   11.4090   12.8030   19.4870 C   0  0  0  0  0  0  0  0  0  0  0  0
   10.2690   13.2090   20.4090 C   0  0  0  0  0  0  0  0  0  0  0  0
   10.4470   12.5440   21.6650 O   0  0  0  0  0  0  0  0  0  0  0  0
    9.2660   12.3230   22.4480 C   0  0  0  0  0  0  0  0  0  0  0  0
    9.4240   11.0520   23.2930 C   0  0  0  0  0  0  0  0  0  0  0  0
    8.2750   10.7940   24.1970 N   0  0  0  0  0  0  0  0  0  0  0  0
    9.0870   13.4840   23.3970 C   0  0  0  0  0  0  0  0  0  0  0  0
    8.2060   14.4500   22.8440 O   0  0  0  0  0  0  0  0  0  0  0  0
    8.0040   15.4470   23.8320 C   0  0  0  0  0  0  0  0  0  0  0  0
    6.5650   15.8960   23.7670 C   0  0  0  0  0  0  0  0  0  0  0  0
    5.9600   16.1020   22.5310 C   0  0  0  0  0  0  0  0  0  0  0  0
    4.6300   16.5330   22.4790 C   0  0  0  0  0  0  0  0  0  0  0  0
    3.9350   16.7190   23.6650 C   0  0  0  0  0  0  0  0  0  0  0  0
    5.8690   16.1180   24.9530 C   0  0  0  0  0  0  0  0  0  0  0  0
    4.5430   16.5360   24.9130 C   0  0  0  0  0  0  0  0  0  0  0  0
    3.8680   16.7030   26.0960 N   0  0  0  0  0  0  0  0  0  0  0  0
    3.0090   17.6920   26.3230 C   0  0  0  0  0  0  0  0  0  0  0  0
    2.0440   17.5680   27.1590 N   0  0  0  0  0  0  0  0  0  0  0  0
    3.2140   18.9220   25.5190 C   0  0  0  0  0  0  0  0  0  0  0  0
    1.7490   19.5910   24.9320 S   0  0  0  0  0  0  0  0  0  0  0  0
    2.5500   20.8770   24.0710 C   0  0  0  0  0  0  0  0  0  0  0  0
    3.9320   20.7190   24.2700 C   0  0  0  0  0  0  0  0  0  0  0  0
    4.3350   19.6440   25.0670 C   0  0  0  0  0  0  0  0  0  0  0  0
   14.7028   14.3830   16.7304 H   0  0  0  0  0  0  0  0  0  0  0  0
   13.7501   13.7929   10.2365 H   0  0  0  0  0  0  0  0  0  0  0  0
   12.6748   11.5349   11.0715 H   0  0  0  0  0  0  0  0  0  0  0  0
   12.5151   11.2965   13.6490 H   0  0  0  0  0  0  0  0  0  0  0  0
   11.5860   13.5571   15.6423 H   0  0  0  0  0  0  0  0  0  0  0  0
   10.6848   13.9329   17.7991 H   0  0  0  0  0  0  0  0  0  0  0  0
   14.3324   11.7194   17.1231 H   0  0  0  0  0  0  0  0  0  0  0  0
   14.2419   10.8917   19.4751 H   0  0  0  0  0  0  0  0  0  0  0  0
   12.3776   11.5710   20.9749 H   0  0  0  0  0  0  0  0  0  0  0  0
   10.2828   14.2985   20.5599 H   0  0  0  0  0  0  0  0  0  0  0  0
    9.3034   12.9264   19.9644 H   0  0  0  0  0  0  0  0  0  0  0  0
    8.4038   12.2221   21.7724 H   0  0  0  0  0  0  0  0  0  0  0  0
    9.5318   10.1936   22.6136 H   0  0  0  0  0  0  0  0  0  0  0  0
   10.3099   11.1951   23.9292 H   0  0  0  0  0  0  0  0  0  0  0  0
    8.5862   10.8639   25.1764 H   0  0  0  0  0  0  0  0  0  0  0  0
    7.5365   11.4901   24.0209 H   0  0  0  0  0  0  0  0  0  0  0  0
    8.6694   13.1147   24.3453 H   0  0  0  0  0  0  0  0  0  0  0  0
   10.0660   13.9548   23.5701 H   0  0  0  0  0  0  0  0  0  0  0  0
    8.2193   15.0324   24.8279 H   0  0  0  0  0  0  0  0  0  0  0  0
    8.6749   16.2998   23.6516 H   0  0  0  0  0  0  0  0  0  0  0  0
    6.5229   15.9274   21.6022 H   0  0  0  0  0  0  0  0  0  0  0  0
    4.1423   16.7217   21.5113 H   0  0  0  0  0  0  0  0  0  0  0  0
    2.8773   17.0184   23.6240 H   0  0  0  0  0  0  0  0  0  0  0  0
    6.3679   15.9628   25.9210 H   0  0  0  0  0  0  0  0  0  0  0  0
    2.2332   17.5923   28.1712 H   0  0  0  0  0  0  0  0  0  0  0  0
    1.0800   17.4441   26.8181 H   0  0  0  0  0  0  0  0  0  0  0  0
    2.0633   21.6671   23.4804 H   0  0  0  0  0  0  0  0  0  0  0  0
    4.6617   21.4083   23.8201 H   0  0  0  0  0  0  0  0  0  0  0  0
    5.3797   19.3971   25.3071 H   0  0  0  0  0  0  0  0  0  0  0  0
  1  2  2  3
  2  3  1  0
  2  8  1  0
  3  4  1  0
  3  7  2  0
  4  5  1  0
  5  6  2  0
  6  7  1  0
  8  9  1  0
  9 10  2  0
  9 11  1  0
 10 14  1  0
 11 12  2  0
 12 13  1  0
 13 14  2  0
 14 15  1  0
 15 16  1  0
 16 17  1  0
 17 18  1  0
 17 20  1  0
 18 19  1  0
 20 21  1  0
 21 22  1  0
 22 23  1  0
 23 24  2  0
 23 27  1  0
 24 25  1  0
 25 26  2  0
 26 28  1  0
 27 28  2  0
 28 29  1  0
 29 30  2  0
 30 31  1  0
 30 32  1  0
 32 33  1  0
 32 36  2  0
 33 34  1  0
 34 35  2  0
 35 36  1  0
  1 37  1  0
  5 38  1  0
  6 39  1  0
  7 40  1  0
  8 41  1  0
 10 42  1  0
 11 43  1  0
 12 44  1  0
 13 45  1  0
 15 46  1  0
 15 47  1  0
 17 48  1  0
 18 49  1  0
 18 50  1  0
 19 51  1  0
 19 52  1  0
 20 53  1  0
 20 54  1  0
 22 55  1  0
 22 56  1  0
 24 57  1  0
 25 58  1  0
 26 59  1  0
 27 60  1  0
 31 61  1  0
 31 62  1  0
 34 63  1  0
 35 64  1  0
 36 65  1  0
A    1
N26
A    2
C26
A    3
C25
A    4
S21
A    5
C22
A    6
C23
A    7
C24
A    8
N27
A    9
C31
A   10
C36
A   11
C32
A   12
C33
A   13
C34
A   14
C35
A   15
C37
A   16
O38
A   17
C20
A   18
C21
A   19
N22
A   20
C19
A   21
O18
A   22
C17
A   23
C15
A   24
C14
A   25
C13
A   26
C12
A   27
C16
A   28
C11
A   29
N07
A   30
C06
A   31
N06
A   32
C05
A   33
S01
A   34
C02
A   35
C03
A   36
C04
M  END
