4UGR_6E5_A_904
     RDKit          3D

 69 73  0  0  0  0  0  0  0  0999 V2000
   15.2530   18.9130   15.9800 S   0  0  0  0  0  0  0  0  0  0  0  0
   15.3640   20.6220   15.6710 C   0  0  0  0  0  0  0  0  0  0  0  0
   15.9190   21.2050   16.8330 C   0  0  0  0  0  0  0  0  0  0  0  0
   16.2260   20.3340   17.8980 C   0  0  0  0  0  0  0  0  0  0  0  0
   15.9190   19.0080   17.5940 C   0  0  0  0  0  0  0  0  0  0  0  0
   16.0620   17.7290   18.3560 C   0  0  0  0  0  0  0  0  0  0  0  0
   15.4270   17.5760   19.5050 N   0  0  0  0  0  0  0  0  0  0  0  0
   16.8020   16.8110   17.9310 N   0  0  0  0  0  0  0  0  0  0  0  0
   10.5020   12.5290   21.8460 N   0  0  0  0  0  0  0  0  0  0  0  0
   15.5130   16.4880   20.3210 C   0  0  0  0  0  0  0  0  0  0  0  0
   16.6250   16.2610   21.1430 C   0  0  0  0  0  0  0  0  0  0  0  0
   16.6630   15.1600   21.9990 C   0  0  0  0  0  0  0  0  0  0  0  0
   15.5830   14.2840   22.0420 C   0  0  0  0  0  0  0  0  0  0  0  0
   14.4690   14.5120   21.2310 C   0  0  0  0  0  0  0  0  0  0  0  0
   14.4380   15.6120   20.3790 C   0  0  0  0  0  0  0  0  0  0  0  0
   13.2780   13.5860   21.2360 C   0  0  0  0  0  0  0  0  0  0  0  0
   12.2020   14.2290   20.5370 O   0  0  0  0  0  0  0  0  0  0  0  0
   11.4420   13.3560   19.6970 C   0  0  0  0  0  0  0  0  0  0  0  0
   10.2100   12.8370   20.4310 C   0  0  0  0  0  0  0  0  0  0  0  0
    1.7010   19.5930   24.6960 S   0  0  0  0  0  0  0  0  0  0  0  0
    2.4460   20.8850   23.8010 C   0  0  0  0  0  0  0  0  0  0  0  0
    3.8420   20.7600   23.9900 C   0  0  0  0  0  0  0  0  0  0  0  0
    4.2800   19.7070   24.8040 C   0  0  0  0  0  0  0  0  0  0  0  0
    3.1970   18.9550   25.2700 C   0  0  0  0  0  0  0  0  0  0  0  0
    3.0920   17.7120   26.0920 C   0  0  0  0  0  0  0  0  0  0  0  0
    3.9710   16.7280   25.8380 N   0  0  0  0  0  0  0  0  0  0  0  0
    2.2270   17.5890   27.0220 N   0  0  0  0  0  0  0  0  0  0  0  0
    9.1130   13.8860   20.4730 C   0  0  0  0  0  0  0  0  0  0  0  0
    5.9570   16.0600   24.7290 C   0  0  0  0  0  0  0  0  0  0  0  0
    4.6570   16.5470   24.6670 C   0  0  0  0  0  0  0  0  0  0  0  0
    4.1010   16.7740   23.4040 C   0  0  0  0  0  0  0  0  0  0  0  0
    4.8610   16.5510   22.2420 C   0  0  0  0  0  0  0  0  0  0  0  0
    6.1710   16.0650   22.3270 C   0  0  0  0  0  0  0  0  0  0  0  0
    6.7130   15.8050   23.5940 C   0  0  0  0  0  0  0  0  0  0  0  0
    8.1200   15.2710   23.7880 C   0  0  0  0  0  0  0  0  0  0  0  0
    8.7430   15.0190   22.5250 O   0  0  0  0  0  0  0  0  0  0  0  0
    8.4630   13.7800   21.8560 C   0  0  0  0  0  0  0  0  0  0  0  0
    9.2070   12.6530   22.5550 C   0  0  0  0  0  0  0  0  0  0  0  0
   15.0617   21.1456   14.7521 H   0  0  0  0  0  0  0  0  0  0  0  0
   16.1027   22.2873   16.9029 H   0  0  0  0  0  0  0  0  0  0  0  0
   16.6568   20.6615   18.8557 H   0  0  0  0  0  0  0  0  0  0  0  0
   14.8142   18.3456   19.8100 H   0  0  0  0  0  0  0  0  0  0  0  0
   16.8929   15.9344   18.4641 H   0  0  0  0  0  0  0  0  0  0  0  0
   10.8717   11.5720   21.9369 H   0  0  0  0  0  0  0  0  0  0  0  0
   17.4759   16.9575   21.1130 H   0  0  0  0  0  0  0  0  0  0  0  0
   17.5422   14.9854   22.6366 H   0  0  0  0  0  0  0  0  0  0  0  0
   15.6064   13.4132   22.7137 H   0  0  0  0  0  0  0  0  0  0  0  0
   13.5551   15.7884   19.7470 H   0  0  0  0  0  0  0  0  0  0  0  0
   13.5380   12.6435   20.7319 H   0  0  0  0  0  0  0  0  0  0  0  0
   12.9771   13.3625   22.2702 H   0  0  0  0  0  0  0  0  0  0  0  0
   11.1223   13.9064   18.7998 H   0  0  0  0  0  0  0  0  0  0  0  0
   12.0723   12.4995   19.4157 H   0  0  0  0  0  0  0  0  0  0  0  0
    9.9004   11.9371   19.8794 H   0  0  0  0  0  0  0  0  0  0  0  0
    1.9308   21.6514   23.2033 H   0  0  0  0  0  0  0  0  0  0  0  0
    4.5511   21.4572   23.5197 H   0  0  0  0  0  0  0  0  0  0  0  0
    5.3333   19.4999   25.0440 H   0  0  0  0  0  0  0  0  0  0  0  0
    4.1444   16.0485   26.5924 H   0  0  0  0  0  0  0  0  0  0  0  0
    2.1808   16.7184   27.5705 H   0  0  0  0  0  0  0  0  0  0  0  0
    9.5408   14.8893   20.3300 H   0  0  0  0  0  0  0  0  0  0  0  0
    8.3756   13.7229   19.6732 H   0  0  0  0  0  0  0  0  0  0  0  0
    6.4038   15.8694   25.7159 H   0  0  0  0  0  0  0  0  0  0  0  0
    3.0633   17.1290   23.3190 H   0  0  0  0  0  0  0  0  0  0  0  0
    4.4214   16.7607   21.2557 H   0  0  0  0  0  0  0  0  0  0  0  0
    6.7641   15.8903   21.4172 H   0  0  0  0  0  0  0  0  0  0  0  0
    8.7144   16.0121   24.3425 H   0  0  0  0  0  0  0  0  0  0  0  0
    8.0661   14.3274   24.3507 H   0  0  0  0  0  0  0  0  0  0  0  0
    7.3792   13.5932   21.8337 H   0  0  0  0  0  0  0  0  0  0  0  0
    8.6381   11.7144   22.4820 H   0  0  0  0  0  0  0  0  0  0  0  0
    9.3481   12.8617   23.6258 H   0  0  0  0  0  0  0  0  0  0  0  0
  1  2  1  0
  1  5  1  0
  2  3  2  0
  3  4  1  0
  4  5  2  0
  5  6  1  0
  6  7  1  0
  6  8  2  3
  7 10  1  0
  9 19  1  0
  9 38  1  0
 10 11  2  0
 10 15  1  0
 11 12  1  0
 12 13  2  0
 13 14  1  0
 14 15  2  0
 14 16  1  0
 16 17  1  0
 17 18  1  0
 18 19  1  0
 19 28  1  0
 20 21  1  0
 20 24  1  0
 21 22  2  0
 22 23  1  0
 23 24  2  0
 24 25  1  0
 25 26  1  0
 25 27  2  3
 26 30  1  0
 28 37  1  0
 29 30  2  0
 29 34  1  0
 30 31  1  0
 31 32  2  0
 32 33  1  0
 33 34  2  0
 34 35  1  0
 35 36  1  0
 36 37  1  0
 37 38  1  0
  2 39  1  0
  3 40  1  0
  4 41  1  0
  7 42  1  0
  8 43  1  0
  9 44  1  0
 11 45  1  0
 12 46  1  0
 13 47  1  0
 15 48  1  0
 16 49  1  0
 16 50  1  0
 18 51  1  0
 18 52  1  0
 19 53  1  0
 21 54  1  0
 22 55  1  0
 23 56  1  0
 26 57  1  0
 27 58  1  0
 28 59  1  0
 28 60  1  0
 29 61  1  0
 31 62  1  0
 32 63  1  0
 33 64  1  0
 35 65  1  0
 35 66  1  0
 37 67  1  0
 38 68  1  0
 38 69  1  0
A    1
S01
A    2
C02
A    3
C03
A    4
C04
A    5
C05
A    6
C06
A    7
N07
A    8
N08
A    9
N1'
A   10
C11
A   11
C12
A   12
C13
A   13
C14
A   14
C15
A   15
C16
A   16
C17
A   17
O18
A   18
C19
A   19
C2'
A   20
S21
A   21
C22
A   22
C23
A   23
C24
A   24
C25
A   25
C26
A   26
N27
A   27
N28
A   28
C3'
A   29
C30
A   30
C31
A   31
C32
A   32
C33
A   33
C34
A   34
C35
A   35
C37
A   36
O38
A   37
C4'
A   38
C5'
M  END
