4UQH_25S_A_1485
     RDKit          3D

 73 78  0  0  0  0  0  0  0  0999 V2000
   -4.0340   50.6900   -5.4540 O   0  0  0  0  0  0  0  0  0  0  0  0
   -4.7860   51.6510   -5.7280 C   0  0  0  0  0  0  0  0  0  0  0  0
   -6.1260   51.6640   -5.5640 N   0  0  0  0  0  0  0  0  0  0  0  0
   -6.8280   50.5610   -5.2320 C   0  0  0  0  0  0  0  0  0  0  0  0
   -8.0950   50.4230   -5.8030 C   0  0  0  0  0  0  0  0  0  0  0  0
   -8.8510   49.2580   -5.6170 C   0  0  0  0  0  0  0  0  0  0  0  0
   -8.3980   48.2180   -4.8730 N   0  0  0  0  0  0  0  0  0  0  0  0
   -7.1530   48.3160   -4.3270 C   0  0  0  0  0  0  0  0  0  0  0  0
   -6.3360   49.4720   -4.4960 C   0  0  0  0  0  0  0  0  0  0  0  0
   -4.1990   52.9210   -6.3510 C   0  0  0  0  0  0  0  0  0  0  0  0
   -4.0970   52.8520   -7.8740 C   0  0  0  0  0  0  0  0  0  0  0  0
   -5.4540   52.5960   -8.4440 C   0  0  0  0  0  0  0  0  0  0  0  0
   -6.0460   51.2960   -8.7970 C   0  0  0  0  0  0  0  0  0  0  0  0
   -5.5640   50.0140   -8.7630 C   0  0  0  0  0  0  0  0  0  0  0  0
   -6.4240   49.0040   -9.2010 C   0  0  0  0  0  0  0  0  0  0  0  0
   -7.7210   49.2720   -9.6490 C   0  0  0  0  0  0  0  0  0  0  0  0
   -8.2420   50.5570   -9.6910 C   0  0  0  0  0  0  0  0  0  0  0  0
   -7.4130   51.5990   -9.2820 C   0  0  0  0  0  0  0  0  0  0  0  0
   -7.5630   52.9410   -9.2040 N   0  0  0  0  0  0  0  0  0  0  0  0
   -6.4450   53.5470   -8.7110 C   0  0  0  0  0  0  0  0  0  0  0  0
   -4.9010   54.1410   -6.0160 N   0  0  0  0  0  0  0  0  0  0  0  0
   -4.8070   54.6550   -4.8050 C   0  0  0  0  0  0  0  0  0  0  0  0
   -4.2060   54.0470   -3.9560 O   0  0  0  0  0  0  0  0  0  0  0  0
   -5.3980   55.9720   -4.4280 C   0  0  0  0  0  0  0  0  0  0  0  0
   -5.9040   56.9610   -5.3990 C   0  0  0  0  0  0  0  0  0  0  0  0
   -5.8820   56.7060   -6.7010 F   0  0  0  0  0  0  0  0  0  0  0  0
   -6.4450   58.1520   -4.9590 C   0  0  0  0  0  0  0  0  0  0  0  0
   -6.5060   58.4290   -3.5940 C   0  0  0  0  0  0  0  0  0  0  0  0
   -6.0020   57.5180   -2.6700 C   0  0  0  0  0  0  0  0  0  0  0  0
   -5.4600   56.3090   -3.0800 C   0  0  0  0  0  0  0  0  0  0  0  0
   -7.0250   59.6260   -3.1400 N   0  0  0  0  0  0  0  0  0  0  0  0
   -8.2440   60.1290   -3.7590 C   0  0  0  0  0  0  0  0  0  0  0  0
   -8.0950   61.6340   -3.6720 C   0  0  0  0  0  0  0  0  0  0  0  0
   -8.3360   61.8160   -2.2470 N   0  0  0  0  0  0  0  0  0  0  0  0
   -7.5570   61.0530   -1.2680 C   0  0  0  0  0  0  0  0  0  0  0  0
   -6.4050   60.3630   -2.0320 C   0  0  0  0  0  0  0  0  0  0  0  0
   -9.3900   62.6520   -1.8790 C   0  0  0  0  0  0  0  0  0  0  0  0
  -10.6130   62.2770   -2.4380 C   0  0  0  0  0  0  0  0  0  0  0  0
  -11.7710   62.9870   -2.2070 C   0  0  0  0  0  0  0  0  0  0  0  0
  -11.7010   64.0880   -1.3970 C   0  0  0  0  0  0  0  0  0  0  0  0
  -12.8390   64.7450   -1.1940 F   0  0  0  0  0  0  0  0  0  0  0  0
  -10.4200   64.5280   -0.7830 C   0  0  0  0  0  0  0  0  0  0  0  0
  -10.4210   65.6350    0.0050 F   0  0  0  0  0  0  0  0  0  0  0  0
   -9.2670   63.7790   -1.0530 C   0  0  0  0  0  0  0  0  0  0  0  0
   -6.6322   52.5510   -5.6976 H   0  0  0  0  0  0  0  0  0  0  0  0
   -8.5067   51.2433   -6.4094 H   0  0  0  0  0  0  0  0  0  0  0  0
   -9.8420   49.1845   -6.0886 H   0  0  0  0  0  0  0  0  0  0  0  0
   -6.7651   47.4737   -3.7353 H   0  0  0  0  0  0  0  0  0  0  0  0
   -5.3295   49.5101   -4.0537 H   0  0  0  0  0  0  0  0  0  0  0  0
   -3.1954   52.9600   -5.9023 H   0  0  0  0  0  0  0  0  0  0  0  0
   -3.7090   53.8059   -8.2607 H   0  0  0  0  0  0  0  0  0  0  0  0
   -3.4144   52.0393   -8.1631 H   0  0  0  0  0  0  0  0  0  0  0  0
   -4.5473   49.7904   -8.4074 H   0  0  0  0  0  0  0  0  0  0  0  0
   -6.0688   47.9629   -9.1932 H   0  0  0  0  0  0  0  0  0  0  0  0
   -8.3512   48.4335   -9.9802 H   0  0  0  0  0  0  0  0  0  0  0  0
   -9.2700   50.7458  -10.0340 H   0  0  0  0  0  0  0  0  0  0  0  0
   -8.4174   53.4440   -9.4829 H   0  0  0  0  0  0  0  0  0  0  0  0
   -6.3377   54.6293   -8.5467 H   0  0  0  0  0  0  0  0  0  0  0  0
   -5.4780   54.6112   -6.7280 H   0  0  0  0  0  0  0  0  0  0  0  0
   -6.8284   58.8833   -5.6859 H   0  0  0  0  0  0  0  0  0  0  0  0
   -6.0341   57.7609   -1.5976 H   0  0  0  0  0  0  0  0  0  0  0  0
   -5.0733   55.6059   -2.3276 H   0  0  0  0  0  0  0  0  0  0  0  0
   -8.3160   59.8017   -4.8067 H   0  0  0  0  0  0  0  0  0  0  0  0
   -9.1560   59.7613   -3.2660 H   0  0  0  0  0  0  0  0  0  0  0  0
   -7.0871   61.9643   -3.9634 H   0  0  0  0  0  0  0  0  0  0  0  0
   -8.7561   62.2097   -4.3365 H   0  0  0  0  0  0  0  0  0  0  0  0
   -7.1487   61.7295   -0.5027 H   0  0  0  0  0  0  0  0  0  0  0  0
   -8.1897   60.3081   -0.7633 H   0  0  0  0  0  0  0  0  0  0  0  0
   -5.8689   59.6699   -1.3670 H   0  0  0  0  0  0  0  0  0  0  0  0
   -5.6749   61.0982   -2.4014 H   0  0  0  0  0  0  0  0  0  0  0  0
  -10.6534   61.3869   -3.0830 H   0  0  0  0  0  0  0  0  0  0  0  0
  -12.7243   62.6779   -2.6605 H   0  0  0  0  0  0  0  0  0  0  0  0
   -8.2934   64.0665   -0.6294 H   0  0  0  0  0  0  0  0  0  0  0  0
  1  2  2  0
  2  3  1  0
  2 10  1  0
  3  4  1  0
  4  5  2  0
  4  9  1  0
  5  6  1  0
  6  7  2  0
  7  8  1  0
  8  9  2  0
 10 11  1  0
 10 21  1  0
 11 12  1  0
 12 13  1  0
 12 20  2  0
 13 14  2  0
 13 18  1  0
 14 15  1  0
 15 16  2  0
 16 17  1  0
 17 18  2  0
 18 19  1  0
 19 20  1  0
 21 22  1  0
 22 23  2  0
 22 24  1  0
 24 25  2  0
 24 30  1  0
 25 26  1  0
 25 27  1  0
 27 28  2  0
 28 29  1  0
 28 31  1  0
 29 30  2  0
 31 32  1  0
 31 36  1  0
 32 33  1  0
 33 34  1  0
 34 35  1  0
 34 37  1  0
 35 36  1  0
 37 38  2  0
 37 44  1  0
 38 39  1  0
 39 40  2  0
 40 41  1  0
 40 42  1  0
 42 43  1  0
 42 44  2  0
  3 45  1  0
  5 46  1  0
  6 47  1  0
  8 48  1  0
  9 49  1  0
 10 50  1  0
 11 51  1  0
 11 52  1  0
 14 53  1  0
 15 54  1  0
 16 55  1  0
 17 56  1  0
 19 57  1  0
 20 58  1  0
 21 59  1  0
 27 60  1  0
 29 61  1  0
 30 62  1  0
 32 63  1  0
 32 64  1  0
 33 65  1  0
 33 66  1  0
 35 67  1  0
 35 68  1  0
 36 69  1  0
 36 70  1  0
 38 71  1  0
 39 72  1  0
 44 73  1  0
A    1
O1
A    2
C5
A    3
N1
A    4
C4
A    5
C3
A    6
C2
A    7
N
A    8
C1
A    9
C
A   10
C6
A   11
C24
A   12
C25
A   13
C28
A   14
C29
A   15
C30
A   16
C31
A   17
C32
A   18
C27
A   19
N5
A   20
C26
A   21
N2
A   22
C7
A   23
O
A   24
C8
A   25
C23
A   26
F2
A   27
C22
A   28
C11
A   29
C10
A   30
C9
A   31
N3
A   32
C21
A   33
C20
A   34
N4
A   35
C13
A   36
C12
A   37
C14
A   38
C19
A   39
C18
A   40
C17
A   41
F1
A   42
C16
A   43
F
A   44
C15
M  END
