1ED5_NRG_A_1705
     RDKit          3D

 28 27  0  0  0  0  0  0  0  0999 V2000
    8.1580   15.4810   35.4060 N   0  0  0  0  0  0  0  0  0  0  0  0
    8.6980   16.0350   34.1460 C   0  0  0  0  0  0  0  0  0  0  0  0
    8.6540   14.9350   33.0440 C   0  0  0  0  0  0  0  0  0  0  0  0
    9.3880   13.6470   33.4600 C   0  0  0  0  0  0  0  0  0  0  0  0
    8.9130   12.4630   32.5890 C   0  0  0  0  0  0  0  0  0  0  0  0
    7.4470   12.3980   32.4340 N   0  0  0  0  0  0  0  0  0  0  0  0
    6.8170   11.8030   31.4430 C   0  0  0  0  0  0  0  0  0  0  0  0
    7.5240   11.2430   30.4410 N   0  0  0  0  0  0  0  0  0  0  0  0
    5.4880   11.7570   31.4720 N   0  0  0  0  0  0  0  0  0  0  0  0
    7.9110   17.2600   33.6910 C   0  0  0  0  0  0  0  0  0  0  0  0
    8.2730   17.8170   32.6440 O   0  0  0  0  0  0  0  0  0  0  0  0
    6.9490   17.6290   34.3900 O   0  0  0  0  0  0  0  0  0  0  0  0
    6.9990   10.7060   29.2010 N   0  0  0  0  0  0  0  0  0  0  0  0
    7.7710   10.4000   28.3190 O   0  0  0  0  0  0  0  0  0  0  0  0
    5.7830   10.6420   29.0010 O   0  0  0  0  0  0  0  0  0  0  0  0
    8.6102   15.9450   36.2067 H   0  0  0  0  0  0  0  0  0  0  0  0
    7.1416   15.6431   35.4445 H   0  0  0  0  0  0  0  0  0  0  0  0
    9.7365   16.3523   34.3214 H   0  0  0  0  0  0  0  0  0  0  0  0
    7.6026   14.6888   32.8344 H   0  0  0  0  0  0  0  0  0  0  0  0
    9.1633   15.3351   32.1549 H   0  0  0  0  0  0  0  0  0  0  0  0
   10.4710   13.7857   33.3267 H   0  0  0  0  0  0  0  0  0  0  0  0
    9.1666   13.4303   34.5155 H   0  0  0  0  0  0  0  0  0  0  0  0
    9.3647   12.5616   31.5909 H   0  0  0  0  0  0  0  0  0  0  0  0
    9.2260   11.5399   33.0989 H   0  0  0  0  0  0  0  0  0  0  0  0
    6.8721   12.8534   33.1572 H   0  0  0  0  0  0  0  0  0  0  0  0
    8.5446   11.1912   30.5700 H   0  0  0  0  0  0  0  0  0  0  0  0
    4.9718   11.2971   30.7085 H   0  0  0  0  0  0  0  0  0  0  0  0
    7.0159   17.6033   35.3774 H   0  0  0  0  0  0  0  0  0  0  0  0
  1  2  1  0
  2  3  1  0
  2 10  1  0
  3  4  1  0
  4  5  1  0
  5  6  1  0
  6  7  1  0
  7  8  1  0
  7  9  2  3
  8 13  1  0
 10 11  2  0
 10 12  1  0
 13 14  1  0
 13 15  2  0
  1 16  1  0
  1 17  1  0
  2 18  1  0
  3 19  1  0
  3 20  1  0
  4 21  1  0
  4 22  1  0
  5 23  1  0
  5 24  1  0
  6 25  1  0
  8 26  1  0
  9 27  1  0
 12 28  1  0
M  CHG  2  13   1  14  -1
A    1
N
A    2
CA
A    3
CB
A    4
CG
A    5
CD
A    6
NE
A    7
CZ
A    8
NH1
A    9
NH2
A   10
C
A   11
OA1
A   12
OA2
A   13
N1
A   14
O2
A   15
O3
M  END
