4URK_A82_A_2092
     RDKit          3D

 54 57  0  0  0  0  0  0  0  0999 V2000
   41.5330   16.3210   33.5580 C   0  0  0  0  0  0  0  0  0  0  0  0
   41.2280   15.2610   32.8100 C   0  0  0  0  0  0  0  0  0  0  0  0
   42.1820   14.6350   32.0500 N   0  0  0  0  0  0  0  0  0  0  0  0
   43.5040   15.0830   32.0510 C   0  0  0  0  0  0  0  0  0  0  0  0
   44.4220   14.4990   31.3560 N   0  0  0  0  0  0  0  0  0  0  0  0
   44.1300   13.4110   30.5850 C   0  0  0  0  0  0  0  0  0  0  0  0
   42.8890   12.9090   30.5120 C   0  0  0  0  0  0  0  0  0  0  0  0
   41.8060   13.5360   31.2910 C   0  0  0  0  0  0  0  0  0  0  0  0
   40.6870   13.0440   31.2110 O   0  0  0  0  0  0  0  0  0  0  0  0
   45.1570   12.8400   29.8690 N   0  0  0  0  0  0  0  0  0  0  0  0
   44.8760   12.1650   28.6110 C   0  0  0  0  0  0  0  0  0  0  0  0
   46.0750   11.3380   28.2230 C   0  0  0  0  0  0  0  0  0  0  0  0
   47.2300   12.1690   28.1760 O   0  0  0  0  0  0  0  0  0  0  0  0
   47.5480   12.6160   29.4870 C   0  0  0  0  0  0  0  0  0  0  0  0
   46.4400   13.5350   29.9240 C   0  0  0  0  0  0  0  0  0  0  0  0
   43.8690   16.2760   32.8820 C   0  0  0  0  0  0  0  0  0  0  0  0
   42.8730   16.8260   33.5900 C   0  0  0  0  0  0  0  0  0  0  0  0
   45.2980   16.7560   32.9050 C   0  0  0  0  0  0  0  0  0  0  0  0
   45.6560   17.4770   31.6320 C   0  0  0  0  0  0  0  0  0  0  0  0
   40.5220   17.0200   34.3860 C   0  0  0  0  0  0  0  0  0  0  0  0
   45.5260   17.7050   33.9810 N   0  0  0  0  0  0  0  0  0  0  0  0
   46.1940   17.1890   35.1140 C   0  0  0  0  0  0  0  0  0  0  0  0
   47.8340   17.4510   36.8690 C   0  0  0  0  0  0  0  0  0  0  0  0
   47.1860   17.9280   35.7480 C   0  0  0  0  0  0  0  0  0  0  0  0
   47.4800   16.2250   37.3890 C   0  0  0  0  0  0  0  0  0  0  0  0
   45.8500   15.9670   35.6710 C   0  0  0  0  0  0  0  0  0  0  0  0
   46.4880   15.4790   36.7910 C   0  0  0  0  0  0  0  0  0  0  0  0
   47.6270   19.2430   35.2410 C   0  0  0  0  0  0  0  0  0  0  0  0
   46.5430   20.0600   35.1510 O   0  0  0  0  0  0  0  0  0  0  0  0
   48.7900   19.5180   34.9690 O   0  0  0  0  0  0  0  0  0  0  0  0
   40.1952   14.8826   32.8023 H   0  0  0  0  0  0  0  0  0  0  0  0
   42.6806   12.0362   29.8758 H   0  0  0  0  0  0  0  0  0  0  0  0
   43.9994   11.5113   28.7303 H   0  0  0  0  0  0  0  0  0  0  0  0
   44.6662   12.9082   27.8277 H   0  0  0  0  0  0  0  0  0  0  0  0
   46.2267   10.5411   28.9660 H   0  0  0  0  0  0  0  0  0  0  0  0
   45.9059   10.8892   27.2331 H   0  0  0  0  0  0  0  0  0  0  0  0
   47.6178   11.7577   30.1714 H   0  0  0  0  0  0  0  0  0  0  0  0
   48.5160   13.1384   29.4976 H   0  0  0  0  0  0  0  0  0  0  0  0
   46.4086   14.4091   29.2569 H   0  0  0  0  0  0  0  0  0  0  0  0
   46.6289   13.8584   30.9583 H   0  0  0  0  0  0  0  0  0  0  0  0
   43.0932   17.6999   34.2207 H   0  0  0  0  0  0  0  0  0  0  0  0
   45.9120   15.8530   33.0379 H   0  0  0  0  0  0  0  0  0  0  0  0
   46.1330   18.4376   31.8764 H   0  0  0  0  0  0  0  0  0  0  0  0
   46.3527   16.8605   31.0450 H   0  0  0  0  0  0  0  0  0  0  0  0
   44.7438   17.6594   31.0450 H   0  0  0  0  0  0  0  0  0  0  0  0
   40.7485   16.8634   35.4510 H   0  0  0  0  0  0  0  0  0  0  0  0
   40.5443   18.0965   34.1608 H   0  0  0  0  0  0  0  0  0  0  0  0
   39.5228   16.6189   34.1608 H   0  0  0  0  0  0  0  0  0  0  0  0
   45.2214   18.6872   33.9219 H   0  0  0  0  0  0  0  0  0  0  0  0
   48.6280   18.0456   37.3444 H   0  0  0  0  0  0  0  0  0  0  0  0
   47.9909   15.8408   38.2842 H   0  0  0  0  0  0  0  0  0  0  0  0
   45.0486   15.3726   35.2080 H   0  0  0  0  0  0  0  0  0  0  0  0
   46.2068   14.4995   37.2051 H   0  0  0  0  0  0  0  0  0  0  0  0
   46.1033   20.3914   35.9737 H   0  0  0  0  0  0  0  0  0  0  0  0
  1  2  2  0
  1 17  1  0
  1 20  1  0
  2  3  1  0
  3  4  1  0
  3  8  1  0
  4  5  2  0
  4 16  1  0
  5  6  1  0
  6  7  2  0
  6 10  1  0
  7  8  1  0
  8  9  2  0
 10 11  1  0
 10 15  1  0
 11 12  1  0
 12 13  1  0
 13 14  1  0
 14 15  1  0
 16 17  2  0
 16 18  1  0
 18 19  1  0
 18 21  1  0
 21 22  1  0
 22 24  1  0
 22 26  2  0
 23 24  2  0
 23 25  1  0
 24 28  1  0
 25 27  2  0
 26 27  1  0
 28 29  1  0
 28 30  2  0
  2 31  1  0
  7 32  1  0
 11 33  1  0
 11 34  1  0
 12 35  1  0
 12 36  1  0
 14 37  1  0
 14 38  1  0
 15 39  1  0
 15 40  1  0
 17 41  1  0
 18 42  1  0
 19 43  1  0
 19 44  1  0
 19 45  1  0
 20 46  1  0
 20 47  1  0
 20 48  1  0
 21 49  1  0
 23 50  1  0
 25 51  1  0
 26 52  1  0
 27 53  1  0
 29 54  1  0
A    1
C1
A    2
C2
A    3
N3
A    4
C4
A    5
N5
A    6
C6
A    7
C7
A    8
C8
A    9
O9
A   10
N10
A   11
C11
A   12
C12
A   13
O13
A   14
C14
A   15
C15
A   16
C16
A   17
C17
A   18
C18
A   19
C19
A   20
C20
A   21
N21
A   22
C22
A   23
C23
A   24
C24
A   25
C25
A   26
C26
A   27
C27
A   28
C28
A   29
O29
A   30
O30
M  END
