4URL_XAM_A_2000
     RDKit          3D

124129  0  0  0  0  0  0  0  0999 V2000
   24.5240  -17.9320    1.7460 C   0  0  0  0  0  0  0  0  0  0  0  0
   23.1520  -18.5530    2.0230 C   0  0  0  0  0  0  0  0  0  0  0  0
   23.1580  -19.6300    3.0870 C   0  0  0  0  0  0  0  0  0  0  0  0
   25.3340  -18.7200    0.7150 C   0  0  0  0  0  0  0  0  0  0  0  0
   16.1380   -9.8250   -5.4990 Cl  0  0  0  0  0  0  0  0  0  0  0  0
   15.3650   -8.4090   -6.1030 C   0  0  0  0  0  0  0  0  0  0  0  0
   14.7400   -7.4120   -5.2620 C   0  0  0  0  0  0  0  0  0  0  0  0
   14.7080   -7.4960   -3.5390 Cl  0  0  0  0  0  0  0  0  0  0  0  0
   14.2360   -6.4480   -6.1350 C   0  0  0  0  0  0  0  0  0  0  0  0
   13.5530   -5.1500   -5.8380 C   0  0  0  0  0  0  0  0  0  0  0  0
   14.5160   -6.8320   -7.4270 N   0  0  0  0  0  0  0  0  0  0  0  0
   15.2210   -8.0110   -7.4270 C   0  0  0  0  0  0  0  0  0  0  0  0
   15.7040   -8.6550   -8.6660 C   0  0  0  0  0  0  0  0  0  0  0  0
   15.4300   -8.1790   -9.7610 O   0  0  0  0  0  0  0  0  0  0  0  0
   16.4330   -9.7690   -8.4890 N   0  0  0  0  0  0  0  0  0  0  0  0
   17.3640  -10.3830   -9.4850 C   0  0  0  0  0  0  0  0  0  0  0  0
   18.8250   -9.8600   -9.2550 C   0  0  0  0  0  0  0  0  0  0  0  0
   17.1930  -11.9900   -9.4940 C   0  0  0  0  0  0  0  0  0  0  0  0
   17.8180  -12.7150   -8.2780 C   0  0  0  0  0  0  0  0  0  0  0  0
   15.7800  -12.2030   -9.3860 O   0  0  0  0  0  0  0  0  0  0  0  0
   17.8210  -12.6330  -10.8380 C   0  0  0  0  0  0  0  0  0  0  0  0
   16.9710  -12.2000  -11.8940 O   0  0  0  0  0  0  0  0  0  0  0  0
   17.9150  -14.1540  -10.8490 C   0  0  0  0  0  0  0  0  0  0  0  0
   18.7980  -14.6710  -11.9590 C   0  0  0  0  0  0  0  0  0  0  0  0
   18.5190  -14.6250   -9.6270 O   0  0  0  0  0  0  0  0  0  0  0  0
   17.8860  -14.2220   -8.4200 C   0  0  0  0  0  0  0  0  0  0  0  0
   18.5550  -14.7710   -7.3000 O   0  0  0  0  0  0  0  0  0  0  0  0
   18.4410  -16.2020   -7.1000 C   0  0  0  0  0  0  0  0  0  0  0  0
   17.0670  -16.4420   -6.4890 C   0  0  0  0  0  0  0  0  0  0  0  0
   16.9310  -17.8670   -5.9490 C   0  0  0  0  0  0  0  0  0  0  0  0
   18.0590  -18.1860   -5.0090 C   0  0  0  0  0  0  0  0  0  0  0  0
   17.8650  -18.4310   -3.7240 C   0  0  0  0  0  0  0  0  0  0  0  0
   19.4090  -18.1070   -5.7220 C   0  0  0  0  0  0  0  0  0  0  0  0
   19.6290  -16.6370   -6.1880 C   0  0  0  0  0  0  0  0  0  0  0  0
   21.0030  -16.4300   -6.7880 C   0  0  0  0  0  0  0  0  0  0  0  0
   22.0320  -17.2670   -6.6680 C   0  0  0  0  0  0  0  0  0  0  0  0
   21.9750  -18.5830   -5.9410 C   0  0  0  0  0  0  0  0  0  0  0  0
   22.0980  -19.7370   -6.9420 C   0  0  0  0  0  0  0  0  0  0  0  0
   20.7060  -18.6180   -5.0480 C   0  0  0  0  0  0  0  0  0  0  0  0
   20.5280  -20.0070   -4.3780 C   0  0  0  0  0  0  0  0  0  0  0  0
   19.7300  -20.9270   -4.9560 O   0  0  0  0  0  0  0  0  0  0  0  0
   21.1090  -20.3650   -3.1800 C   0  0  0  0  0  0  0  0  0  0  0  0
   21.9430  -19.5100   -2.3250 C   0  0  0  0  0  0  0  0  0  0  0  0
   22.2830  -18.3380   -2.4840 O   0  0  0  0  0  0  0  0  0  0  0  0
   20.9720  -21.6660   -2.5360 C   0  0  0  0  0  0  0  0  0  0  0  0
   20.4450  -22.6770   -2.9650 O   0  0  0  0  0  0  0  0  0  0  0  0
   21.6990  -21.6140   -1.1760 C   0  0  0  0  0  0  0  0  0  0  0  0
   20.8010  -21.8660    0.0600 C   0  0  0  0  0  0  0  0  0  0  0  0
   19.3490  -21.4400   -0.1660 C   0  0  0  0  0  0  0  0  0  0  0  0
   20.8830  -23.3130    0.5130 C   0  0  0  0  0  0  0  0  0  0  0  0
   22.3140  -20.2870   -1.1800 N   0  0  0  0  0  0  0  0  0  0  0  0
   23.2900  -19.8820   -0.0970 C   0  0  0  0  0  0  0  0  0  0  0  0
   24.5490  -19.1390   -0.5210 C   0  0  0  0  0  0  0  0  0  0  0  0
   25.3030  -20.0600   -1.3060 O   0  0  0  0  0  0  0  0  0  0  0  0
   26.0890  -19.4710   -2.3420 C   0  0  0  0  0  0  0  0  0  0  0  0
   22.5460  -19.0920    0.8290 O   0  0  0  0  0  0  0  0  0  0  0  0
   25.2780  -17.8570    2.9770 O   0  0  0  0  0  0  0  0  0  0  0  0
   26.1670  -16.8300    3.3010 C   0  0  0  0  0  0  0  0  0  0  0  0
   26.4880  -16.6530    4.4570 O   0  0  0  0  0  0  0  0  0  0  0  0
   26.5920  -16.1170    2.2590 N   0  0  0  0  0  0  0  0  0  0  0  0
   25.9780  -19.8650    1.3180 O   0  0  0  0  0  0  0  0  0  0  0  0
   27.3190  -19.9970    1.1620 C   0  0  0  0  0  0  0  0  0  0  0  0
   27.9950  -19.2230    0.5360 O   0  0  0  0  0  0  0  0  0  0  0  0
   27.8150  -21.2170    1.8580 C   0  0  0  0  0  0  0  0  0  0  0  0
   24.3449  -16.9287    1.3320 H   0  0  0  0  0  0  0  0  0  0  0  0
   22.5560  -17.7097    2.4020 H   0  0  0  0  0  0  0  0  0  0  0  0
   23.1554  -19.1620    4.0825 H   0  0  0  0  0  0  0  0  0  0  0  0
   22.2634  -20.2603    2.9758 H   0  0  0  0  0  0  0  0  0  0  0  0
   24.0596  -20.2503    2.9758 H   0  0  0  0  0  0  0  0  0  0  0  0
   26.0993  -18.0151    0.3580 H   0  0  0  0  0  0  0  0  0  0  0  0
   13.4815   -5.0141   -4.7488 H   0  0  0  0  0  0  0  0  0  0  0  0
   14.1326   -4.3227   -6.2735 H   0  0  0  0  0  0  0  0  0  0  0  0
   12.5429   -5.1591   -6.2735 H   0  0  0  0  0  0  0  0  0  0  0  0
   14.2374   -6.3111   -8.2708 H   0  0  0  0  0  0  0  0  0  0  0  0
   16.3421  -10.2458   -7.5806 H   0  0  0  0  0  0  0  0  0  0  0  0
   17.1072  -10.0661  -10.5066 H   0  0  0  0  0  0  0  0  0  0  0  0
   19.0233   -9.7890   -8.1754 H   0  0  0  0  0  0  0  0  0  0  0  0
   19.5408  -10.5577   -9.7142 H   0  0  0  0  0  0  0  0  0  0  0  0
   18.9354   -8.8665   -9.7142 H   0  0  0  0  0  0  0  0  0  0  0  0
   18.8409  -12.3353   -8.1385 H   0  0  0  0  0  0  0  0  0  0  0  0
   17.1651  -12.5081   -7.4172 H   0  0  0  0  0  0  0  0  0  0  0  0
   15.5242  -12.2416   -8.4304 H   0  0  0  0  0  0  0  0  0  0  0  0
   18.8648  -12.2985  -10.9306 H   0  0  0  0  0  0  0  0  0  0  0  0
   16.1567  -11.7852  -11.5132 H   0  0  0  0  0  0  0  0  0  0  0  0
   16.8839  -14.5142  -10.9796 H   0  0  0  0  0  0  0  0  0  0  0  0
   19.6705  -15.1819  -11.5257 H   0  0  0  0  0  0  0  0  0  0  0  0
   18.2296  -15.3790  -12.5801 H   0  0  0  0  0  0  0  0  0  0  0  0
   19.1372  -13.8289  -12.5801 H   0  0  0  0  0  0  0  0  0  0  0  0
   16.8551  -14.6035   -8.4622 H   0  0  0  0  0  0  0  0  0  0  0  0
   18.5082  -16.8000   -8.0208 H   0  0  0  0  0  0  0  0  0  0  0  0
   16.9146  -15.7314   -5.6632 H   0  0  0  0  0  0  0  0  0  0  0  0
   16.3113  -16.2989   -7.2754 H   0  0  0  0  0  0  0  0  0  0  0  0
   16.9499  -18.5757   -6.7901 H   0  0  0  0  0  0  0  0  0  0  0  0
   15.9798  -17.9501   -5.4028 H   0  0  0  0  0  0  0  0  0  0  0  0
   16.8430  -18.4643   -3.3186 H   0  0  0  0  0  0  0  0  0  0  0  0
   18.7257  -18.6015   -3.0605 H   0  0  0  0  0  0  0  0  0  0  0  0
   19.2820  -18.8523   -6.5210 H   0  0  0  0  0  0  0  0  0  0  0  0
   19.6228  -15.9636   -5.3182 H   0  0  0  0  0  0  0  0  0  0  0  0
   21.1652  -15.5119   -7.3717 H   0  0  0  0  0  0  0  0  0  0  0  0
   22.9867  -16.9770   -7.1310 H   0  0  0  0  0  0  0  0  0  0  0  0
   22.8279  -18.7039   -5.2569 H   0  0  0  0  0  0  0  0  0  0  0  0
   22.1992  -20.6866   -6.3962 H   0  0  0  0  0  0  0  0  0  0  0  0
   21.1984  -19.7715   -7.5741 H   0  0  0  0  0  0  0  0  0  0  0  0
   22.9846  -19.5811   -7.5741 H   0  0  0  0  0  0  0  0  0  0  0  0
   20.8901  -17.8768   -4.2564 H   0  0  0  0  0  0  0  0  0  0  0  0
   20.0913  -23.3556   -2.3369 H   0  0  0  0  0  0  0  0  0  0  0  0
   22.4260  -22.4335   -1.0770 H   0  0  0  0  0  0  0  0  0  0  0  0
   21.1933  -21.2288    0.8663 H   0  0  0  0  0  0  0  0  0  0  0  0
   18.8540  -21.2948    0.8056 H   0  0  0  0  0  0  0  0  0  0  0  0
   19.3274  -20.4977   -0.7330 H   0  0  0  0  0  0  0  0  0  0  0  0
   18.8217  -22.2213   -0.7330 H   0  0  0  0  0  0  0  0  0  0  0  0
   20.8853  -23.3535    1.6123 H   0  0  0  0  0  0  0  0  0  0  0  0
   20.0148  -23.8677    0.1275 H   0  0  0  0  0  0  0  0  0  0  0  0
   21.8083  -23.7660    0.1275 H   0  0  0  0  0  0  0  0  0  0  0  0
   23.6989  -20.8147    0.3188 H   0  0  0  0  0  0  0  0  0  0  0  0
   24.3188  -18.2282   -1.0932 H   0  0  0  0  0  0  0  0  0  0  0  0
   26.8932  -18.8684   -1.8946 H   0  0  0  0  0  0  0  0  0  0  0  0
   26.5283  -20.2641   -2.9649 H   0  0  0  0  0  0  0  0  0  0  0  0
   25.4511  -18.8266   -2.9649 H   0  0  0  0  0  0  0  0  0  0  0  0
   27.1135  -15.2421    2.4120 H   0  0  0  0  0  0  0  0  0  0  0  0
   26.3991  -16.4407    1.3004 H   0  0  0  0  0  0  0  0  0  0  0  0
   27.7546  -21.0684    2.9462 H   0  0  0  0  0  0  0  0  0  0  0  0
   27.1963  -22.0800    1.5709 H   0  0  0  0  0  0  0  0  0  0  0  0
   28.8604  -21.4035    1.5709 H   0  0  0  0  0  0  0  0  0  0  0  0
 59 58  2  0
 58 57  1  0
 58 60  1  0
 57  1  1  0
  3  2  1  0
 63 62  2  0
  1  2  1  0
  1  4  1  0
  2 56  1  0
 64 62  1  0
 62 61  1  0
  4 61  1  0
  4 53  1  0
  8  7  1  0
 56 52  1  0
 10  9  1  0
 53 52  1  0
 53 54  1  0
 52 51  1  0
  7  9  2  0
  7  6  1  0
  9 11  1  0
  5  6  1  0
 54 55  1  0
  6 12  2  0
 44 43  2  0
 51 43  1  0
 51 47  1  0
 49 48  1  0
 11 12  1  0
 48 47  1  0
 48 50  1  0
 43 42  1  0
 12 13  1  0
 47 45  1  0
 13 15  1  0
 13 14  2  0
 15 16  1  0
 42 45  2  0
 42 40  1  0
 32 31  2  3
 17 16  1  0
 45 46  1  0
 39 37  1  0
 39 40  1  0
 39 33  1  0
 34 35  1  0
 34 33  1  0
 34 28  1  0
 35 36  2  0
 19 18  1  0
 19 26  1  0
 36 37  1  0
 37 38  1  0
 40 41  2  0
 16 18  1  0
 27 28  1  0
 27 26  1  0
 31 33  1  0
 31 30  1  0
 28 29  1  0
 29 30  1  0
 18 20  1  0
 18 21  1  0
 26 25  1  0
 25 23  1  0
 21 23  1  0
 21 22  1  0
 23 24  1  0
  1 65  1  0
  2 66  1  0
  3 67  1  0
  3 68  1  0
  3 69  1  0
  4 70  1  0
 10 71  1  0
 10 72  1  0
 10 73  1  0
 11 74  1  0
 15 75  1  0
 16 76  1  0
 17 77  1  0
 17 78  1  0
 17 79  1  0
 19 80  1  0
 19 81  1  0
 20 82  1  0
 21 83  1  0
 22 84  1  0
 23 85  1  0
 24 86  1  0
 24 87  1  0
 24 88  1  0
 26 89  1  0
 28 90  1  0
 29 91  1  0
 29 92  1  0
 30 93  1  0
 30 94  1  0
 32 95  1  0
 32 96  1  0
 33 97  1  0
 34 98  1  0
 35 99  1  0
 36100  1  0
 37101  1  0
 38102  1  0
 38103  1  0
 38104  1  0
 39105  1  0
 46106  1  0
 47107  1  0
 48108  1  0
 49109  1  0
 49110  1  0
 49111  1  0
 50112  1  0
 50113  1  0
 50114  1  0
 52115  1  0
 53116  1  0
 55117  1  0
 55118  1  0
 55119  1  0
 60120  1  0
 60121  1  0
 64122  1  0
 64123  1  0
 64124  1  0
A    1
C4
A    2
C5
A    3
C6
A    4
C3
A    5
CLW
A    6
CAS
A    7
CAT
A    8
CLX
A    9
CAU
A   10
CAY
A   11
NAV
A   12
CAR
A   13
CAP
A   14
OAQ
A   15
NAO
A   16
CAM
A   17
CAN
A   18
CCE
A   19
CCF
A   20
OCK
A   21
CCD
A   22
OCJ
A   23
CCC
A   24
CCI
A   25
OCH
A   26
CCG
A   27
OAL
A   28
CAC
A   29
CAB
A   30
CAA
A   31
CAF
A   32
CAK
A   33
CAE
A   34
CAD
A   35
CAG
A   36
CAH
A   37
CAI
A   38
CBC
A   39
CAJ
A   40
CAZ
A   41
OBB
A   42
CBA
A   43
CBD
A   44
OBH
A   45
CBG
A   46
OBI
A   47
CBF
A   48
CBJ
A   49
CBL
A   50
CBK
A   51
NBE
A   52
C1
A   53
C2
A   54
O2
A   55
CCL
A   56
O5
A   57
O4
A   58
CBZ
A   59
OCB
A   60
NCA
A   61
O3
A   62
CBW
A   63
OBY
A   64
CBX
M  END
