4URX_FK1_S_2046
     RDKit          3D

 16 17  0  0  0  0  0  0  0  0999 V2000
   45.2310   40.2240   74.4860 C   0  0  0  0  0  0  0  0  0  0  0  0
   43.6970   37.0320   75.5790 N   0  0  0  0  0  0  0  0  0  0  0  0
   44.8930   42.0860   74.2700 Br  0  0  0  0  0  0  0  0  0  0  0  0
   46.4900   39.7230   74.1660 C   0  0  0  0  0  0  0  0  0  0  0  0
   46.7430   38.3700   74.3220 C   0  0  0  0  0  0  0  0  0  0  0  0
   45.7510   37.5110   74.8020 C   0  0  0  0  0  0  0  0  0  0  0  0
   45.6730   36.1060   75.0910 C   0  0  0  0  0  0  0  0  0  0  0  0
   44.4210   35.8650   75.5520 C   0  0  0  0  0  0  0  0  0  0  0  0
   44.4890   38.0560   75.1100 C   0  0  0  0  0  0  0  0  0  0  0  0
   44.2090   39.4080   74.9510 C   0  0  0  0  0  0  0  0  0  0  0  0
   42.7220   37.1256   75.8977 H   0  0  0  0  0  0  0  0  0  0  0  0
   47.2765   40.3954   73.7928 H   0  0  0  0  0  0  0  0  0  0  0  0
   47.7343   37.9680   74.0656 H   0  0  0  0  0  0  0  0  0  0  0  0
   46.4767   35.3660   74.9626 H   0  0  0  0  0  0  0  0  0  0  0  0
   44.0408   34.8796   75.8593 H   0  0  0  0  0  0  0  0  0  0  0  0
   43.2147   39.8161   75.1849 H   0  0  0  0  0  0  0  0  0  0  0  0
  1  3  1  0
  1  4  2  0
  1 10  1  0
  2  8  1  0
  2  9  1  0
  4  5  1  0
  5  6  2  0
  6  7  1  0
  6  9  1  0
  7  8  2  0
  9 10  2  0
  2 11  1  0
  4 12  1  0
  5 13  1  0
  7 14  1  0
  8 15  1  0
 10 16  1  0
A    1
C
A    2
N
A    3
BR
A    4
C1
A    5
C2
A    6
C3
A    7
C4
A    8
C5
A    9
C6
A   10
C7
M  END
