3GDN_HBX_A_530
     RDKit          3D

 14 14  0  0  0  0  0  0  0  0999 V2000
   59.7010   -1.6020  -25.5780 C   0  0  0  0  0  0  0  0  0  0  0  0
   59.3200   -2.7730  -25.6010 O   0  0  0  0  0  0  0  0  0  0  0  0
   59.1140   -0.5780  -26.5270 C   0  0  0  0  0  0  0  0  0  0  0  0
   59.5750    0.7700  -26.4760 C   0  0  0  0  0  0  0  0  0  0  0  0
   59.0300    1.7420  -27.3610 C   0  0  0  0  0  0  0  0  0  0  0  0
   58.0250    1.3710  -28.2990 C   0  0  0  0  0  0  0  0  0  0  0  0
   57.5630    0.0230  -28.3530 C   0  0  0  0  0  0  0  0  0  0  0  0
   58.1050   -0.9520  -27.4690 C   0  0  0  0  0  0  0  0  0  0  0  0
   60.4764   -1.2964  -24.8601 H   0  0  0  0  0  0  0  0  0  0  0  0
   60.3518    1.0587  -25.7527 H   0  0  0  0  0  0  0  0  0  0  0  0
   59.3858    2.7821  -27.3204 H   0  0  0  0  0  0  0  0  0  0  0  0
   57.6050    2.1242  -28.9819 H   0  0  0  0  0  0  0  0  0  0  0  0
   56.7872   -0.2635  -29.0783 H   0  0  0  0  0  0  0  0  0  0  0  0
   57.7483   -1.9917  -27.5103 H   0  0  0  0  0  0  0  0  0  0  0  0
  3  1  1  0
  1  2  2  0
  8  3  2  0
  4  3  1  0
  5  4  2  0
  6  5  1  0
  6  7  2  0
  7  8  1  0
  1  9  1  0
  4 10  1  0
  5 11  1  0
  6 12  1  0
  7 13  1  0
  8 14  1  0
A    1
C1'
A    2
O1'
A    3
C1
A    4
C2
A    5
C3
A    6
C4
A    7
C5
A    8
C6
M  END
