4USD_R09_A_500
     RDKit          3D

 60 64  0  0  0  0  0  0  0  0999 V2000
   33.7760   -1.7280  -14.1240 C   0  0  0  0  0  0  0  0  0  0  0  0
   33.3940   -2.9510  -14.6910 C   0  0  0  0  0  0  0  0  0  0  0  0
   34.3360   -3.7330  -15.3330 C   0  0  0  0  0  0  0  0  0  0  0  0
   33.9520   -4.9530  -15.8850 C   0  0  0  0  0  0  0  0  0  0  0  0
   35.1350   -5.8820  -16.6760 S   0  0  0  0  0  0  0  0  0  0  0  0
   34.5390   -7.2830  -16.9070 O   0  0  0  0  0  0  0  0  0  0  0  0
   35.4930   -5.1410  -17.9750 O   0  0  0  0  0  0  0  0  0  0  0  0
   36.6330   -5.9490  -15.7180 C   0  0  0  0  0  0  0  0  0  0  0  0
   32.6320   -5.4120  -15.8240 C   0  0  0  0  0  0  0  0  0  0  0  0
   31.6890   -4.6330  -15.1890 C   0  0  0  0  0  0  0  0  0  0  0  0
   32.0860   -3.4220  -14.6390 C   0  0  0  0  0  0  0  0  0  0  0  0
   31.1900   -2.7290  -14.0100 C   0  0  0  0  0  0  0  0  0  0  0  0
   30.0730   -2.2720  -14.5260 N   0  0  0  0  0  0  0  0  0  0  0  0
   29.6080   -2.4070  -15.9620 C   0  0  0  0  0  0  0  0  0  0  0  0
   31.3220   -2.4580  -12.7300 N   0  0  0  0  0  0  0  0  0  0  0  0
   30.2520   -1.7640  -12.4060 C   0  0  0  0  0  0  0  0  0  0  0  0
   30.0760   -1.3370  -11.1470 C   0  0  0  0  0  0  0  0  0  0  0  0
   28.8540   -0.8720  -10.6400 C   0  0  0  0  0  0  0  0  0  0  0  0
   28.7340   -0.4570   -9.3120 C   0  0  0  0  0  0  0  0  0  0  0  0
   29.8340   -0.5260   -8.4550 N   0  0  0  0  0  0  0  0  0  0  0  0
   31.0630   -1.0010   -8.9460 C   0  0  0  0  0  0  0  0  0  0  0  0
   31.1750   -1.4070  -10.2720 C   0  0  0  0  0  0  0  0  0  0  0  0
   29.4860   -1.6610  -13.5050 C   0  0  0  0  0  0  0  0  0  0  0  0
   28.3270   -1.0340  -13.6750 C   0  0  0  0  0  0  0  0  0  0  0  0
   28.3060    0.3570  -13.5790 C   0  0  0  0  0  0  0  0  0  0  0  0
   27.1260    1.0520  -13.7690 C   0  0  0  0  0  0  0  0  0  0  0  0
   27.0920    2.4390  -13.6410 C   0  0  0  0  0  0  0  0  0  0  0  0
   25.9030    3.1190  -13.8430 C   0  0  0  0  0  0  0  0  0  0  0  0
   24.7520    2.3950  -14.1680 C   0  0  0  0  0  0  0  0  0  0  0  0
   23.5690    3.0480  -14.3370 O   0  0  0  0  0  0  0  0  0  0  0  0
   22.5640    2.6110  -15.2540 C   0  0  0  0  0  0  0  0  0  0  0  0
   24.7930    1.0150  -14.2650 C   0  0  0  0  0  0  0  0  0  0  0  0
   25.9780    0.3400  -14.0860 C   0  0  0  0  0  0  0  0  0  0  0  0
   25.9810   -1.0490  -14.2020 C   0  0  0  0  0  0  0  0  0  0  0  0
   27.1680   -1.7490  -14.0000 C   0  0  0  0  0  0  0  0  0  0  0  0
   33.7508   -1.8085  -13.0272 H   0  0  0  0  0  0  0  0  0  0  0  0
   34.7958   -1.4754  -14.4498 H   0  0  0  0  0  0  0  0  0  0  0  0
   33.0812   -0.9399  -14.4498 H   0  0  0  0  0  0  0  0  0  0  0  0
   35.3800   -3.3947  -15.4073 H   0  0  0  0  0  0  0  0  0  0  0  0
   36.3839   -5.9379  -14.6466 H   0  0  0  0  0  0  0  0  0  0  0  0
   37.1805   -6.8725  -15.9576 H   0  0  0  0  0  0  0  0  0  0  0  0
   37.2607   -5.0780  -15.9576 H   0  0  0  0  0  0  0  0  0  0  0  0
   32.3521   -6.3759  -16.2741 H   0  0  0  0  0  0  0  0  0  0  0  0
   30.6424   -4.9644  -15.1194 H   0  0  0  0  0  0  0  0  0  0  0  0
   28.5517   -2.7137  -15.9781 H   0  0  0  0  0  0  0  0  0  0  0  0
   29.7170   -1.4401  -16.4751 H   0  0  0  0  0  0  0  0  0  0  0  0
   30.2178   -3.1652  -16.4751 H   0  0  0  0  0  0  0  0  0  0  0  0
   27.9747   -0.8335  -11.2998 H   0  0  0  0  0  0  0  0  0  0  0  0
   27.7715   -0.0752   -8.9407 H   0  0  0  0  0  0  0  0  0  0  0  0
   31.9374   -1.0517   -8.2806 H   0  0  0  0  0  0  0  0  0  0  0  0
   32.1381   -1.7887  -10.6419 H   0  0  0  0  0  0  0  0  0  0  0  0
   29.2327    0.9040  -13.3510 H   0  0  0  0  0  0  0  0  0  0  0  0
   28.0066    2.9918  -13.3804 H   0  0  0  0  0  0  0  0  0  0  0  0
   25.8645    4.2143  -13.7490 H   0  0  0  0  0  0  0  0  0  0  0  0
   21.6958    2.2335  -14.6939 H   0  0  0  0  0  0  0  0  0  0  0  0
   22.2531    3.4552  -15.8870 H   0  0  0  0  0  0  0  0  0  0  0  0
   22.9694    1.8079  -15.8870 H   0  0  0  0  0  0  0  0  0  0  0  0
   23.8726    0.4548  -14.4865 H   0  0  0  0  0  0  0  0  0  0  0  0
   25.0545   -1.5873  -14.4508 H   0  0  0  0  0  0  0  0  0  0  0  0
   27.1944   -2.8446  -14.0942 H   0  0  0  0  0  0  0  0  0  0  0  0
  1  2  1  0
  2  3  2  0
  2 11  1  0
  3  4  1  0
  4  5  1  0
  4  9  2  0
  5  6  2  0
  5  7  2  0
  5  8  1  0
  9 10  1  0
 10 11  2  0
 11 12  1  0
 12 13  1  0
 12 15  2  0
 13 14  1  0
 13 23  1  0
 15 16  1  0
 16 17  1  0
 16 23  2  0
 17 18  2  0
 17 22  1  0
 18 19  1  0
 19 20  2  0
 20 21  1  0
 21 22  2  0
 23 24  1  0
 24 25  2  0
 24 35  1  0
 25 26  1  0
 26 27  2  0
 26 33  1  0
 27 28  1  0
 28 29  2  0
 29 30  1  0
 29 32  1  0
 30 31  1  0
 32 33  2  0
 33 34  1  0
 34 35  2  0
  1 36  1  0
  1 37  1  0
  1 38  1  0
  3 39  1  0
  8 40  1  0
  8 41  1  0
  8 42  1  0
  9 43  1  0
 10 44  1  0
 14 45  1  0
 14 46  1  0
 14 47  1  0
 18 48  1  0
 19 49  1  0
 21 50  1  0
 22 51  1  0
 25 52  1  0
 27 53  1  0
 28 54  1  0
 31 55  1  0
 31 56  1  0
 31 57  1  0
 32 58  1  0
 34 59  1  0
 35 60  1  0
A    1
CAB
A    2
CAW
A    3
CAQ
A    4
CBA
A    5
SBI
A    6
OAE
A    7
OAF
A    8
CAD
A    9
CAL
A   10
CAN
A   11
CBB
A   12
CBD
A   13
NBH
A   14
CAC
A   15
NAU
A   16
CBC
A   17
CAY
A   18
CAI
A   19
CAG
A   20
NAT
A   21
CAH
A   22
CAJ
A   23
CBE
A   24
CAZ
A   25
CAS
A   26
CBG
A   27
CAO
A   28
CAK
A   29
CAX
A   30
OAV
A   31
CAA
A   32
CAR
A   33
CBF
A   34
CAP
A   35
CAM
M  END
