4UTW_RFW_A_1222
     RDKit          3D

 33 32  0  0  0  0  0  0  0  0999 V2000
    0.1420    3.9170  -43.0110 P   0  0  0  0  0  0  0  0  0  0  0  0
   -0.0910   -2.6740  -40.3520 C   0  0  0  0  0  0  0  0  0  0  0  0
   -1.1410   -2.3780  -39.7760 O   0  0  0  0  0  0  0  0  0  0  0  0
    0.5590   -1.5630  -41.1240 C   0  0  0  0  0  0  0  0  0  0  0  0
    1.6620   -1.8420  -42.0300 N   0  0  0  0  0  0  0  0  0  0  0  0
    0.8360   -0.3780  -40.1990 C   0  0  0  0  0  0  0  0  0  0  0  0
    2.2480   -0.3220  -39.8720 O   0  0  0  0  0  0  0  0  0  0  0  0
    0.4010    0.9230  -40.8980 C   0  0  0  0  0  0  0  0  0  0  0  0
    0.7210    2.0280  -40.0400 O   0  0  0  0  0  0  0  0  0  0  0  0
   -1.0940    0.9520  -41.2710 C   0  0  0  0  0  0  0  0  0  0  0  0
   -1.3590   -0.0460  -42.2530 O   0  0  0  0  0  0  0  0  0  0  0  0
   -1.5730    2.2460  -41.9150 C   0  0  0  0  0  0  0  0  0  0  0  0
   -0.6950    2.5610  -42.9880 O   0  0  0  0  0  0  0  0  0  0  0  0
    2.6680   -2.6950  -41.9760 C   0  0  0  0  0  0  0  0  0  0  0  0
    2.9910   -3.4280  -41.0510 O   0  0  0  0  0  0  0  0  0  0  0  0
    3.3760   -2.7280  -43.2920 C   0  0  0  0  0  0  0  0  0  0  0  0
    0.7140    3.9780  -41.5890 O   0  0  0  0  0  0  0  0  0  0  0  0
    1.2520    3.7800  -44.0470 O   0  0  0  0  0  0  0  0  0  0  0  0
   -0.9710    4.8590  -43.3050 O   0  0  0  0  0  0  0  0  0  0  0  0
    0.3401   -3.6848  -40.3031 H   0  0  0  0  0  0  0  0  0  0  0  0
   -0.2080   -1.3256  -41.8759 H   0  0  0  0  0  0  0  0  0  0  0  0
    1.6573   -1.2603  -42.8800 H   0  0  0  0  0  0  0  0  0  0  0  0
    0.2657   -0.4993  -39.2662 H   0  0  0  0  0  0  0  0  0  0  0  0
    2.3590   -0.3176  -38.8883 H   0  0  0  0  0  0  0  0  0  0  0  0
    0.9474    0.9891  -41.8504 H   0  0  0  0  0  0  0  0  0  0  0  0
    0.6394    1.7461  -39.0945 H   0  0  0  0  0  0  0  0  0  0  0  0
   -1.6119    0.8079  -40.3113 H   0  0  0  0  0  0  0  0  0  0  0  0
   -1.5854   -0.8988  -41.8041 H   0  0  0  0  0  0  0  0  0  0  0  0
   -2.5960    2.1149  -42.2974 H   0  0  0  0  0  0  0  0  0  0  0  0
   -1.5753    3.0600  -41.1751 H   0  0  0  0  0  0  0  0  0  0  0  0
    4.4618   -2.7786  -43.1231 H   0  0  0  0  0  0  0  0  0  0  0  0
    3.0518   -3.6120  -43.8607 H   0  0  0  0  0  0  0  0  0  0  0  0
    3.1354   -1.8177  -43.8607 H   0  0  0  0  0  0  0  0  0  0  0  0
  1 13  1  0
  1 17  1  0
  1 18  1  0
  1 19  2  0
  2  3  2  0
  2  4  1  0
  4  5  1  0
  4  6  1  0
  5 14  1  0
  6  7  1  0
  6  8  1  0
  8  9  1  0
  8 10  1  0
 10 11  1  0
 10 12  1  0
 12 13  1  0
 14 15  2  0
 14 16  1  0
  2 20  1  0
  4 21  1  0
  5 22  1  0
  6 23  1  0
  7 24  1  0
  8 25  1  0
  9 26  1  0
 10 27  1  0
 11 28  1  0
 12 29  1  0
 12 30  1  0
 16 31  1  0
 16 32  1  0
 16 33  1  0
M  CHG  2  17  -1  18  -1
A    1
P
A    2
C1
A    3
O1
A    4
C2
A    5
N2
A    6
C3
A    7
O3
A    8
C4
A    9
O4
A   10
C5
A   11
O5
A   12
C6
A   13
O6
A   14
C7
A   15
O7
A   16
C8
A   17
O1P
A   18
O2P
A   19
O3P
M  END
