4UUB_SU8_D_1004
     RDKit          3D

 25 24  0  0  0  0  0  0  0  0999 V2000
  -31.2540  -24.6050   -4.8010 C   0  0  0  0  0  0  0  0  0  0  0  0
  -31.0160  -25.8870   -5.5390 C   0  0  0  0  0  0  0  0  0  0  0  0
  -32.0200  -25.8080   -6.6990 C   0  0  0  0  0  0  0  0  0  0  0  0
  -31.2230  -23.5190   -5.3600 O   0  0  0  0  0  0  0  0  0  0  0  0
  -31.5710  -26.7980   -7.7510 C   0  0  0  0  0  0  0  0  0  0  0  0
  -30.8890  -26.3320   -8.6800 O   0  0  0  0  0  0  0  0  0  0  0  0
  -31.9090  -27.9870   -7.6060 O   0  0  0  0  0  0  0  0  0  0  0  0
  -29.5080  -26.1360   -5.8460 C   0  0  0  0  0  0  0  0  0  0  0  0
  -28.5570  -25.0020   -5.3960 C   0  0  0  0  0  0  0  0  0  0  0  0
  -28.4540  -24.0100   -6.5720 C   0  0  0  0  0  0  0  0  0  0  0  0
  -27.2870  -24.4480   -7.4890 C   0  0  0  0  0  0  0  0  0  0  0  0
  -31.4633  -24.6427   -3.7217 H   0  0  0  0  0  0  0  0  0  0  0  0
  -31.2073  -26.8098   -4.9717 H   0  0  0  0  0  0  0  0  0  0  0  0
  -33.0277  -26.0682   -6.3430 H   0  0  0  0  0  0  0  0  0  0  0  0
  -32.0570  -24.7897   -7.1132 H   0  0  0  0  0  0  0  0  0  0  0  0
  -30.0884  -25.7850   -8.4802 H   0  0  0  0  0  0  0  0  0  0  0  0
  -29.2032  -27.0610   -5.3346 H   0  0  0  0  0  0  0  0  0  0  0  0
  -29.4213  -26.1957   -6.9410 H   0  0  0  0  0  0  0  0  0  0  0  0
  -28.9653  -24.4958   -4.5089 H   0  0  0  0  0  0  0  0  0  0  0  0
  -27.5671  -25.4010   -5.1299 H   0  0  0  0  0  0  0  0  0  0  0  0
  -29.3945  -24.0132   -7.1425 H   0  0  0  0  0  0  0  0  0  0  0  0
  -28.2708  -22.9945   -6.1911 H   0  0  0  0  0  0  0  0  0  0  0  0
  -26.4351  -24.7677   -6.8709 H   0  0  0  0  0  0  0  0  0  0  0  0
  -27.6138  -25.2847   -8.1240 H   0  0  0  0  0  0  0  0  0  0  0  0
  -26.9826  -23.6029   -8.1240 H   0  0  0  0  0  0  0  0  0  0  0  0
  2  1  1  0
  4  1  2  0
  3  2  1  0
  8  2  1  0
  5  3  1  0
  7  5  2  0
  5  6  1  0
  8  9  1  0
 10  9  1  0
 11 10  1  0
  1 12  1  0
  2 13  1  0
  3 14  1  0
  3 15  1  0
  6 16  1  0
  8 17  1  0
  8 18  1  0
  9 19  1  0
  9 20  1  0
 10 21  1  0
 10 22  1  0
 11 23  1  0
 11 24  1  0
 11 25  1  0
A    1
CAJ
A    2
CAK
A    3
CAL
A    4
OAM
A    5
CAN
A    6
OAO
A    7
OAP
A    8
CAQ
A    9
CAR
A   10
CAS
A   11
CAT
M  END
