4UUH_T40_A_3000
     RDKit          3D

 48 51  0  0  0  0  0  0  0  0999 V2000
    5.0190   -2.5380   -2.6420 O   0  0  0  0  0  0  0  0  0  0  0  0
    4.7100   -3.2190   -3.6130 C   0  0  0  0  0  0  0  0  0  0  0  0
    5.6940   -3.8160   -4.5360 C   0  0  0  0  0  0  0  0  0  0  0  0
    7.0590   -3.6980   -4.2690 C   0  0  0  0  0  0  0  0  0  0  0  0
    3.3880   -3.4850   -3.8940 N   0  0  0  0  0  0  0  0  0  0  0  0
    2.9280   -4.2690   -4.9540 C   0  0  0  0  0  0  0  0  0  0  0  0
    3.8330   -4.8110   -5.8180 C   0  0  0  0  0  0  0  0  0  0  0  0
    5.2620   -4.5870   -5.6380 C   0  0  0  0  0  0  0  0  0  0  0  0
    6.2100   -5.2110   -6.4790 C   0  0  0  0  0  0  0  0  0  0  0  0
    5.8190   -5.8900   -7.7660 C   0  0  0  0  0  0  0  0  0  0  0  0
    7.5590   -5.1240   -6.1360 C   0  0  0  0  0  0  0  0  0  0  0  0
    7.9810   -4.3740   -5.0510 C   0  0  0  0  0  0  0  0  0  0  0  0
    1.4670   -4.4270   -5.0850 C   0  0  0  0  0  0  0  0  0  0  0  0
    0.6140   -4.1960   -3.9980 C   0  0  0  0  0  0  0  0  0  0  0  0
   -0.7630   -4.2990   -4.1440 C   0  0  0  0  0  0  0  0  0  0  0  0
   -1.3320   -4.6080   -5.3780 C   0  0  0  0  0  0  0  0  0  0  0  0
   -0.4810   -4.8640   -6.4490 C   0  0  0  0  0  0  0  0  0  0  0  0
    0.8950   -4.7770   -6.3110 C   0  0  0  0  0  0  0  0  0  0  0  0
   -2.8170   -4.4230   -5.6130 C   0  0  0  0  0  0  0  0  0  0  0  0
   -3.6640   -5.6300   -5.5630 N   0  0  0  0  0  0  0  0  0  0  0  0
   -4.6900   -5.5890   -6.6160 C   0  0  0  0  0  0  0  0  0  0  0  0
   -5.6010   -6.7950   -6.5880 C   0  0  0  0  0  0  0  0  0  0  0  0
   -4.8080   -8.0320   -6.6800 N   0  0  0  0  0  0  0  0  0  0  0  0
   -3.7930   -8.0950   -5.6250 C   0  0  0  0  0  0  0  0  0  0  0  0
   -2.8950   -6.8760   -5.6830 C   0  0  0  0  0  0  0  0  0  0  0  0
    7.4030   -3.0671   -3.4362 H   0  0  0  0  0  0  0  0  0  0  0  0
    2.6801   -3.0713   -3.2706 H   0  0  0  0  0  0  0  0  0  0  0  0
    3.4806   -5.4243   -6.6605 H   0  0  0  0  0  0  0  0  0  0  0  0
    5.2818   -6.8229   -7.5399 H   0  0  0  0  0  0  0  0  0  0  0  0
    5.1666   -5.2232   -8.3488 H   0  0  0  0  0  0  0  0  0  0  0  0
    6.7232   -6.1196   -8.3488 H   0  0  0  0  0  0  0  0  0  0  0  0
    8.3038   -5.6627   -6.7403 H   0  0  0  0  0  0  0  0  0  0  0  0
    9.0525   -4.3149   -4.8093 H   0  0  0  0  0  0  0  0  0  0  0  0
    1.0394   -3.9303   -3.0190 H   0  0  0  0  0  0  0  0  0  0  0  0
   -1.4142   -4.1343   -3.2729 H   0  0  0  0  0  0  0  0  0  0  0  0
   -0.9089   -5.1407   -7.4238 H   0  0  0  0  0  0  0  0  0  0  0  0
    1.5433   -4.9855   -7.1748 H   0  0  0  0  0  0  0  0  0  0  0  0
   -3.1887   -3.7262   -4.8473 H   0  0  0  0  0  0  0  0  0  0  0  0
   -2.8970   -4.0638   -6.6496 H   0  0  0  0  0  0  0  0  0  0  0  0
   -5.2997   -4.6838   -6.4786 H   0  0  0  0  0  0  0  0  0  0  0  0
   -4.1715   -5.5859   -7.5861 H   0  0  0  0  0  0  0  0  0  0  0  0
   -6.1715   -6.7980   -5.6475 H   0  0  0  0  0  0  0  0  0  0  0  0
   -6.2898   -6.7451   -7.4442 H   0  0  0  0  0  0  0  0  0  0  0  0
   -5.4379   -8.8417   -6.5880 H   0  0  0  0  0  0  0  0  0  0  0  0
   -4.2908   -8.1322   -4.6448 H   0  0  0  0  0  0  0  0  0  0  0  0
   -3.1806   -8.9968   -5.7722 H   0  0  0  0  0  0  0  0  0  0  0  0
   -2.3589   -6.8732   -6.6435 H   0  0  0  0  0  0  0  0  0  0  0  0
   -2.1909   -6.9276   -4.8395 H   0  0  0  0  0  0  0  0  0  0  0  0
  1  2  2  0
  2  3  1  0
  2  5  1  0
  3  4  2  0
  3  8  1  0
  4 12  1  0
  5  6  1  0
  6  7  2  0
  6 13  1  0
  7  8  1  0
  8  9  2  0
  9 10  1  0
  9 11  1  0
 11 12  2  0
 13 14  2  0
 13 18  1  0
 14 15  1  0
 15 16  2  0
 16 17  1  0
 16 19  1  0
 17 18  2  0
 19 20  1  0
 20 21  1  0
 20 25  1  0
 21 22  1  0
 22 23  1  0
 23 24  1  0
 24 25  1  0
  4 26  1  0
  5 27  1  0
  7 28  1  0
 10 29  1  0
 10 30  1  0
 10 31  1  0
 11 32  1  0
 12 33  1  0
 14 34  1  0
 15 35  1  0
 17 36  1  0
 18 37  1  0
 19 38  1  0
 19 39  1  0
 21 40  1  0
 21 41  1  0
 22 42  1  0
 22 43  1  0
 23 44  1  0
 24 45  1  0
 24 46  1  0
 25 47  1  0
 25 48  1  0
A    1
O
A    2
C6
A    3
C5
A    4
C
A    5
N
A    6
C7
A    7
C8
A    8
C4
A    9
C3
A   10
C20
A   11
C2
A   12
C1
A   13
C9
A   14
C14
A   15
C13
A   16
C12
A   17
C11
A   18
C10
A   19
C15
A   20
N1
A   21
C19
A   22
C18
A   23
N2
A   24
C17
A   25
C16
M  END
