4UVD_HRW_A_1272
     RDKit          3D

 46 48  0  0  0  0  0  0  0  0999 V2000
   52.9550   57.8860    2.3420 F   0  0  0  0  0  0  0  0  0  0  0  0
   53.0650   57.6150    3.6330 C   0  0  0  0  0  0  0  0  0  0  0  0
   51.8840   57.0910    4.0060 F   0  0  0  0  0  0  0  0  0  0  0  0
   53.9460   56.6410    3.7850 F   0  0  0  0  0  0  0  0  0  0  0  0
   53.4140   58.8170    4.4430 C   0  0  0  0  0  0  0  0  0  0  0  0
   53.3760   60.0860    3.8840 C   0  0  0  0  0  0  0  0  0  0  0  0
   53.6820   61.1920    4.6510 C   0  0  0  0  0  0  0  0  0  0  0  0
   54.0270   61.0360    5.9840 C   0  0  0  0  0  0  0  0  0  0  0  0
   53.7710   58.6690    5.7760 C   0  0  0  0  0  0  0  0  0  0  0  0
   54.0930   59.7750    6.5580 C   0  0  0  0  0  0  0  0  0  0  0  0
   54.4390   59.5990    8.0200 C   0  0  0  0  0  0  0  0  0  0  0  0
   53.6950   58.4550    8.5990 C   0  0  0  0  0  0  0  0  0  0  0  0
   52.4500   58.1080    8.2020 C   0  0  0  0  0  0  0  0  0  0  0  0
   51.8900   57.0070    8.7820 N   0  0  0  0  0  0  0  0  0  0  0  0
   54.2460   57.3260    9.7920 S   0  0  0  0  0  0  0  0  0  0  0  0
   52.7260   56.4980    9.6370 C   0  0  0  0  0  0  0  0  0  0  0  0
   52.3790   55.3680   10.3410 N   0  0  0  0  0  0  0  0  0  0  0  0
   53.1350   54.8340   11.3500 C   0  0  0  0  0  0  0  0  0  0  0  0
   54.1350   55.3620   11.8330 O   0  0  0  0  0  0  0  0  0  0  0  0
   52.5830   53.5110   11.8330 C   0  0  0  0  0  0  0  0  0  0  0  0
   53.7400   52.7380   12.9750 S   0  0  0  0  0  0  0  0  0  0  0  0
   54.9580   52.1160   11.8800 C   0  0  0  0  0  0  0  0  0  0  0  0
   54.7880   52.3990   10.5820 N   0  0  0  0  0  0  0  0  0  0  0  0
   55.7390   51.9300    9.7550 C   0  0  0  0  0  0  0  0  0  0  0  0
   55.5670   52.2370    8.2980 C   0  0  0  0  0  0  0  0  0  0  0  0
   56.8230   51.2140   10.2350 C   0  0  0  0  0  0  0  0  0  0  0  0
   55.9790   51.4510   12.4450 N   0  0  0  0  0  0  0  0  0  0  0  0
   56.9180   50.9940   11.5950 C   0  0  0  0  0  0  0  0  0  0  0  0
   58.0400   50.2050   12.1960 C   0  0  0  0  0  0  0  0  0  0  0  0
   53.1012   60.2112    2.8263 H   0  0  0  0  0  0  0  0  0  0  0  0
   53.6520   62.1968    4.2043 H   0  0  0  0  0  0  0  0  0  0  0  0
   54.2513   61.9231    6.5945 H   0  0  0  0  0  0  0  0  0  0  0  0
   53.8000   57.6635    6.2210 H   0  0  0  0  0  0  0  0  0  0  0  0
   55.5190   59.4134    8.1160 H   0  0  0  0  0  0  0  0  0  0  0  0
   54.1600   60.5142    8.5628 H   0  0  0  0  0  0  0  0  0  0  0  0
   51.9096   58.6904    7.4412 H   0  0  0  0  0  0  0  0  0  0  0  0
   50.9513   56.6371    8.5746 H   0  0  0  0  0  0  0  0  0  0  0  0
   51.6250   53.6819   12.3458 H   0  0  0  0  0  0  0  0  0  0  0  0
   52.4318   52.8470   10.9691 H   0  0  0  0  0  0  0  0  0  0  0  0
   55.0322   53.1916    8.1851 H   0  0  0  0  0  0  0  0  0  0  0  0
   56.5548   52.3114    7.8198 H   0  0  0  0  0  0  0  0  0  0  0  0
   54.9877   51.4334    7.8198 H   0  0  0  0  0  0  0  0  0  0  0  0
   57.5912   50.8291    9.5482 H   0  0  0  0  0  0  0  0  0  0  0  0
   57.9743   50.2512   13.2931 H   0  0  0  0  0  0  0  0  0  0  0  0
   57.9683   49.1574   11.8682 H   0  0  0  0  0  0  0  0  0  0  0  0
   59.0016   50.6268   11.8682 H   0  0  0  0  0  0  0  0  0  0  0  0
  1  2  1  0
  2  3  1  0
  2  4  1  0
  2  5  1  0
  5  6  2  0
  5  9  1  0
  6  7  1  0
  7  8  2  0
  8 10  1  0
  9 10  2  0
 10 11  1  0
 11 12  1  0
 12 13  2  0
 12 15  1  0
 13 14  1  0
 14 16  1  0
 15 16  1  0
 16 17  2  0
 17 18  1  0
 18 19  2  0
 18 20  1  0
 20 21  1  0
 21 22  1  0
 22 23  2  0
 22 27  1  0
 23 24  1  0
 24 25  1  0
 24 26  2  0
 26 28  1  0
 27 28  2  0
 28 29  1  0
  6 30  1  0
  7 31  1  0
  8 32  1  0
  9 33  1  0
 11 34  1  0
 11 35  1  0
 13 36  1  0
 14 37  1  0
 20 38  1  0
 20 39  1  0
 25 40  1  0
 25 41  1  0
 25 42  1  0
 26 43  1  0
 29 44  1  0
 29 45  1  0
 29 46  1  0
A    1
F2
A    2
C17
A    3
F
A    4
F1
A    5
C15
A    6
C14
A    7
C13
A    8
C12
A    9
C16
A   10
C11
A   11
C10
A   12
C9
A   13
C8
A   14
N3
A   15
S1
A   16
C7
A   17
N2
A   18
C6
A   19
O
A   20
C5
A   21
S
A   22
C4
A   23
N
A   24
C3
A   25
C18
A   26
C2
A   27
N1
A   28
C1
A   29
C
M  END
