4UVO_5WW_A_2166
     RDKit          3D

 34 36  0  0  0  0  0  0  0  0999 V2000
    7.9310  -11.2650    5.9600 C   0  0  0  0  0  0  0  0  0  0  0  0
    6.7470  -10.6430    6.5980 O   0  0  0  0  0  0  0  0  0  0  0  0
    6.7750  -10.9380    7.9490 C   0  0  0  0  0  0  0  0  0  0  0  0
    6.1730  -12.0990    8.4330 C   0  0  0  0  0  0  0  0  0  0  0  0
    6.1900  -12.4340    9.7960 C   0  0  0  0  0  0  0  0  0  0  0  0
    7.4100  -10.1160    8.8730 C   0  0  0  0  0  0  0  0  0  0  0  0
    7.4270  -10.4400   10.2430 C   0  0  0  0  0  0  0  0  0  0  0  0
    6.8670  -11.6430   10.7380 C   0  0  0  0  0  0  0  0  0  0  0  0
    6.8260  -11.9200   12.1260 C   0  0  0  0  0  0  0  0  0  0  0  0
    5.9780  -12.9120   12.6610 C   0  0  0  0  0  0  0  0  0  0  0  0
    5.8760  -13.1110   14.0440 C   0  0  0  0  0  0  0  0  0  0  0  0
    5.0400  -14.1260   14.5680 C   0  0  0  0  0  0  0  0  0  0  0  0
    4.3070  -14.9950   13.7990 N   0  0  0  0  0  0  0  0  0  0  0  0
    4.9500  -14.2630   15.9600 C   0  0  0  0  0  0  0  0  0  0  0  0
    5.6830  -13.3920   16.7830 C   0  0  0  0  0  0  0  0  0  0  0  0
    6.5110  -12.3960   16.2640 C   0  0  0  0  0  0  0  0  0  0  0  0
    6.6020  -12.2500   14.9040 C   0  0  0  0  0  0  0  0  0  0  0  0
    7.4530  -11.2670   14.4000 C   0  0  0  0  0  0  0  0  0  0  0  0
    8.1680  -10.5690   15.1300 O   0  0  0  0  0  0  0  0  0  0  0  0
    7.5300  -11.0940   13.0220 N   0  0  0  0  0  0  0  0  0  0  0  0
    8.6193  -11.6266    6.7382 H   0  0  0  0  0  0  0  0  0  0  0  0
    7.6086  -12.1102    5.3341 H   0  0  0  0  0  0  0  0  0  0  0  0
    8.4440  -10.5200    5.3341 H   0  0  0  0  0  0  0  0  0  0  0  0
    5.6692  -12.7732    7.7247 H   0  0  0  0  0  0  0  0  0  0  0  0
    5.6607  -13.3371   10.1339 H   0  0  0  0  0  0  0  0  0  0  0  0
    7.9073   -9.1974    8.5281 H   0  0  0  0  0  0  0  0  0  0  0  0
    7.8897   -9.7368   10.9511 H   0  0  0  0  0  0  0  0  0  0  0  0
    5.3859  -13.5409   11.9799 H   0  0  0  0  0  0  0  0  0  0  0  0
    3.7097  -15.7031   14.2493 H   0  0  0  0  0  0  0  0  0  0  0  0
    4.3542  -14.9390   12.7716 H   0  0  0  0  0  0  0  0  0  0  0  0
    4.3131  -15.0431   16.4026 H   0  0  0  0  0  0  0  0  0  0  0  0
    5.6014  -13.4989   17.8748 H   0  0  0  0  0  0  0  0  0  0  0  0
    7.0819  -11.7381   16.9358 H   0  0  0  0  0  0  0  0  0  0  0  0
    8.1202  -10.3383   12.6459 H   0  0  0  0  0  0  0  0  0  0  0  0
  1  2  1  0
  2  3  1  0
  3  4  2  0
  3  6  1  0
  4  5  1  0
  5  8  2  0
  6  7  2  0
  7  8  1  0
  8  9  1  0
  9 10  2  0
  9 20  1  0
 10 11  1  0
 11 12  2  0
 11 17  1  0
 12 13  1  0
 12 14  1  0
 14 15  2  0
 15 16  1  0
 16 17  2  0
 17 18  1  0
 18 19  2  0
 18 20  1  0
  1 21  1  0
  1 22  1  0
  1 23  1  0
  4 24  1  0
  5 25  1  0
  6 26  1  0
  7 27  1  0
 10 28  1  0
 13 29  1  0
 13 30  1  0
 14 31  1  0
 15 32  1  0
 16 33  1  0
 20 34  1  0
A    1
CAT
A    2
OAR
A    3
CAP
A    4
CAQ
A    5
CAM
A    6
CAO
A    7
CAN
A    8
CAL
A    9
CAI
A   10
CAH
A   11
CAE
A   12
CAD
A   13
NAS
A   14
CAC
A   15
CAB
A   16
CAA
A   17
CAF
A   18
CAG
A   19
OAK
A   20
NAJ
M  END
