4UVR_J5Y_A_1477
     RDKit          3D

 76 81  0  0  0  0  0  0  0  0999 V2000
   -7.9780   63.9930   -0.8190 C   0  0  0  0  0  0  0  0  0  0  0  0
   -5.5610   56.7660   -6.9790 F   0  0  0  0  0  0  0  0  0  0  0  0
   -8.4500   61.7530   -2.8820 N   0  0  0  0  0  0  0  0  0  0  0  0
   -3.8700   54.1700   -4.3080 O   0  0  0  0  0  0  0  0  0  0  0  0
  -13.4120   62.6600   -3.2150 Cl  0  0  0  0  0  0  0  0  0  0  0  0
   -9.3040   63.6480   -1.4180 C   0  0  0  0  0  0  0  0  0  0  0  0
   -6.6900   59.7680   -3.5560 N   0  0  0  0  0  0  0  0  0  0  0  0
   -4.0570   50.6670   -5.6590 O   0  0  0  0  0  0  0  0  0  0  0  0
  -10.4120   64.3630   -1.0190 C   0  0  0  0  0  0  0  0  0  0  0  0
   -4.9150   54.0380   -6.2040 N   0  0  0  0  0  0  0  0  0  0  0  0
  -11.6620   64.0640   -1.5510 C   0  0  0  0  0  0  0  0  0  0  0  0
   -7.5270   53.1010   -9.2750 N   0  0  0  0  0  0  0  0  0  0  0  0
  -11.8120   63.0650   -2.4950 C   0  0  0  0  0  0  0  0  0  0  0  0
   -6.1260   51.5800   -5.7820 N   0  0  0  0  0  0  0  0  0  0  0  0
  -10.7370   62.3260   -2.9370 C   0  0  0  0  0  0  0  0  0  0  0  0
   -8.3760   48.1720   -5.0710 N   0  0  0  0  0  0  0  0  0  0  0  0
   -9.4780   62.5840   -2.4510 C   0  0  0  0  0  0  0  0  0  0  0  0
   -8.3490   61.3000   -4.2450 C   0  0  0  0  0  0  0  0  0  0  0  0
   -6.9200   60.8470   -4.5030 C   0  0  0  0  0  0  0  0  0  0  0  0
   -7.0030   59.9400   -2.1430 C   0  0  0  0  0  0  0  0  0  0  0  0
   -7.5380   61.3010   -1.8570 C   0  0  0  0  0  0  0  0  0  0  0  0
   -6.2010   58.5160   -3.9520 C   0  0  0  0  0  0  0  0  0  0  0  0
   -5.8510   57.5670   -2.9870 C   0  0  0  0  0  0  0  0  0  0  0  0
   -5.3670   56.3140   -3.3690 C   0  0  0  0  0  0  0  0  0  0  0  0
   -5.2750   55.9420   -4.7060 C   0  0  0  0  0  0  0  0  0  0  0  0
   -4.6950   54.6210   -5.0640 C   0  0  0  0  0  0  0  0  0  0  0  0
   -4.1620   52.8650   -6.5890 C   0  0  0  0  0  0  0  0  0  0  0  0
   -4.0270   52.8210   -8.1260 C   0  0  0  0  0  0  0  0  0  0  0  0
   -5.4130   52.6460   -8.6590 C   0  0  0  0  0  0  0  0  0  0  0  0
   -6.3500   53.6430   -8.8420 C   0  0  0  0  0  0  0  0  0  0  0  0
   -7.4610   51.7750   -9.3940 C   0  0  0  0  0  0  0  0  0  0  0  0
   -8.3650   50.7890   -9.7830 C   0  0  0  0  0  0  0  0  0  0  0  0
   -7.9540   49.4540   -9.7990 C   0  0  0  0  0  0  0  0  0  0  0  0
   -6.6640   49.1100   -9.4170 C   0  0  0  0  0  0  0  0  0  0  0  0
   -5.7310   50.0730   -9.0030 C   0  0  0  0  0  0  0  0  0  0  0  0
   -6.1030   51.3910   -9.0050 C   0  0  0  0  0  0  0  0  0  0  0  0
   -4.7840   51.6020   -5.9600 C   0  0  0  0  0  0  0  0  0  0  0  0
   -6.8100   50.4660   -5.4580 C   0  0  0  0  0  0  0  0  0  0  0  0
   -6.2780   49.3140   -4.8730 C   0  0  0  0  0  0  0  0  0  0  0  0
   -7.0990   48.1860   -4.6930 C   0  0  0  0  0  0  0  0  0  0  0  0
   -8.8810   49.2720   -5.6350 C   0  0  0  0  0  0  0  0  0  0  0  0
   -8.1300   50.4100   -5.8470 C   0  0  0  0  0  0  0  0  0  0  0  0
   -5.6480   56.9710   -5.7060 C   0  0  0  0  0  0  0  0  0  0  0  0
   -6.0950   58.2010   -5.3060 C   0  0  0  0  0  0  0  0  0  0  0  0
   -8.0549   63.9730    0.2781 H   0  0  0  0  0  0  0  0  0  0  0  0
   -7.2257   63.2607   -1.1472 H   0  0  0  0  0  0  0  0  0  0  0  0
   -7.6780   64.9991   -1.1472 H   0  0  0  0  0  0  0  0  0  0  0  0
  -10.3081   65.1706   -0.2794 H   0  0  0  0  0  0  0  0  0  0  0  0
   -5.6326   54.4149   -6.8396 H   0  0  0  0  0  0  0  0  0  0  0  0
  -12.5435   64.6303   -1.2160 H   0  0  0  0  0  0  0  0  0  0  0  0
   -8.3698   53.6543   -9.4856 H   0  0  0  0  0  0  0  0  0  0  0  0
   -6.6498   52.4589   -5.9003 H   0  0  0  0  0  0  0  0  0  0  0  0
  -10.8865   61.5285   -3.6798 H   0  0  0  0  0  0  0  0  0  0  0  0
   -9.0391   60.4590   -4.4078 H   0  0  0  0  0  0  0  0  0  0  0  0
   -8.6133   62.1171   -4.9324 H   0  0  0  0  0  0  0  0  0  0  0  0
   -6.2150   61.6728   -4.3268 H   0  0  0  0  0  0  0  0  0  0  0  0
   -6.7712   60.5221   -5.5433 H   0  0  0  0  0  0  0  0  0  0  0  0
   -7.7558   59.1929   -1.8515 H   0  0  0  0  0  0  0  0  0  0  0  0
   -6.0740   59.8098   -1.5685 H   0  0  0  0  0  0  0  0  0  0  0  0
   -6.6967   62.0069   -1.7945 H   0  0  0  0  0  0  0  0  0  0  0  0
   -8.0916   61.2546   -0.9076 H   0  0  0  0  0  0  0  0  0  0  0  0
   -5.9576   57.8090   -1.9192 H   0  0  0  0  0  0  0  0  0  0  0  0
   -5.0502   55.6026   -2.5921 H   0  0  0  0  0  0  0  0  0  0  0  0
   -3.1361   52.9097   -6.1946 H   0  0  0  0  0  0  0  0  0  0  0  0
   -3.5906   53.7597   -8.4980 H   0  0  0  0  0  0  0  0  0  0  0  0
   -3.3662   52.0028   -8.4482 H   0  0  0  0  0  0  0  0  0  0  0  0
   -6.1750   54.7146   -8.6655 H   0  0  0  0  0  0  0  0  0  0  0  0
   -9.3909   51.0586  -10.0743 H   0  0  0  0  0  0  0  0  0  0  0  0
   -8.6571   48.6698  -10.1164 H   0  0  0  0  0  0  0  0  0  0  0  0
   -6.3648   48.0517   -9.4396 H   0  0  0  0  0  0  0  0  0  0  0  0
   -4.7214   49.7753   -8.6834 H   0  0  0  0  0  0  0  0  0  0  0  0
   -5.2251   49.2893   -4.5556 H   0  0  0  0  0  0  0  0  0  0  0  0
   -6.6725   47.2865   -4.2250 H   0  0  0  0  0  0  0  0  0  0  0  0
   -9.9371   49.2709   -5.9427 H   0  0  0  0  0  0  0  0  0  0  0  0
   -8.5910   51.2828   -6.3324 H   0  0  0  0  0  0  0  0  0  0  0  0
   -6.3740   58.9500   -6.0617 H   0  0  0  0  0  0  0  0  0  0  0  0
  1  6  1  0
  2 43  1  0
  3 17  1  0
  3 18  1  0
  3 21  1  0
  4 26  2  0
  5 13  1  0
  6  9  2  0
  6 17  1  0
  7 19  1  0
  7 20  1  0
  7 22  1  0
  8 37  2  0
  9 11  1  0
 10 26  1  0
 10 27  1  0
 11 13  2  0
 12 30  1  0
 12 31  1  0
 13 15  1  0
 14 37  1  0
 14 38  1  0
 15 17  2  0
 16 40  2  0
 16 41  1  0
 18 19  1  0
 20 21  1  0
 22 23  2  0
 22 44  1  0
 23 24  1  0
 24 25  2  0
 25 26  1  0
 25 43  1  0
 27 28  1  0
 27 37  1  0
 28 29  1  0
 29 30  2  0
 29 36  1  0
 31 32  2  0
 31 36  1  0
 32 33  1  0
 33 34  2  0
 34 35  1  0
 35 36  2  0
 38 39  2  0
 38 42  1  0
 39 40  1  0
 41 42  2  0
 43 44  2  0
  1 45  1  0
  1 46  1  0
  1 47  1  0
  9 48  1  0
 10 49  1  0
 11 50  1  0
 12 51  1  0
 14 52  1  0
 15 53  1  0
 18 54  1  0
 18 55  1  0
 19 56  1  0
 19 57  1  0
 20 58  1  0
 20 59  1  0
 21 60  1  0
 21 61  1  0
 23 62  1  0
 24 63  1  0
 27 64  1  0
 28 65  1  0
 28 66  1  0
 30 67  1  0
 32 68  1  0
 33 69  1  0
 34 70  1  0
 35 71  1  0
 39 72  1  0
 40 73  1  0
 41 74  1  0
 42 75  1  0
 44 76  1  0
A    1
C
A    2
F
A    3
N
A    4
O
A    5
CL
A    6
C1
A    7
N1
A    8
O1
A    9
C2
A   10
N2
A   11
C3
A   12
N3
A   13
C4
A   14
N4
A   15
C5
A   16
N5
A   17
C6
A   18
C7
A   19
C8
A   20
C9
A   21
C10
A   22
C11
A   23
C12
A   24
C13
A   25
C14
A   26
C15
A   27
C16
A   28
C17
A   29
C18
A   30
C19
A   31
C20
A   32
C21
A   33
C22
A   34
C23
A   35
C24
A   36
C25
A   37
C26
A   38
C27
A   39
C28
A   40
C29
A   41
C30
A   42
C31
A   43
C32
A   44
C33
M  END
