4UVV_W8L_A_2162
     RDKit          3D

 31 33  0  0  0  0  0  0  0  0999 V2000
  -39.6630  -12.6910   12.5620 C   0  0  0  0  0  0  0  0  0  0  0  0
  -39.7640  -12.8850   13.9440 C   0  0  0  0  0  0  0  0  0  0  0  0
  -40.6190  -13.8840   14.4450 C   0  0  0  0  0  0  0  0  0  0  0  0
  -41.3940  -14.7250   13.5780 C   0  0  0  0  0  0  0  0  0  0  0  0
  -40.7180  -14.0360   15.8350 C   0  0  0  0  0  0  0  0  0  0  0  0
  -39.9950  -13.2150   16.7170 C   0  0  0  0  0  0  0  0  0  0  0  0
  -39.1420  -12.2290   16.2140 C   0  0  0  0  0  0  0  0  0  0  0  0
  -39.0260  -12.0720   14.8330 C   0  0  0  0  0  0  0  0  0  0  0  0
  -38.1360  -11.1050   14.2930 C   0  0  0  0  0  0  0  0  0  0  0  0
  -37.4130  -10.3980   14.9850 O   0  0  0  0  0  0  0  0  0  0  0  0
  -38.0730  -10.9390   12.9300 N   0  0  0  0  0  0  0  0  0  0  0  0
  -38.8280  -11.7260   12.0330 C   0  0  0  0  0  0  0  0  0  0  0  0
  -38.7420  -11.4740   10.6180 C   0  0  0  0  0  0  0  0  0  0  0  0
  -38.3670  -10.1850   10.2030 C   0  0  0  0  0  0  0  0  0  0  0  0
  -38.2920   -9.8600    8.8410 C   0  0  0  0  0  0  0  0  0  0  0  0
  -38.6070  -10.8180    7.8740 C   0  0  0  0  0  0  0  0  0  0  0  0
  -38.5000  -10.4770    6.1330 Cl  0  0  0  0  0  0  0  0  0  0  0  0
  -39.0180  -12.0910    8.2730 C   0  0  0  0  0  0  0  0  0  0  0  0
  -39.0940  -12.4110    9.6280 C   0  0  0  0  0  0  0  0  0  0  0  0
  -40.2598  -13.3188   11.8839 H   0  0  0  0  0  0  0  0  0  0  0  0
  -42.0166  -15.4006   14.1829 H   0  0  0  0  0  0  0  0  0  0  0  0
  -42.0402  -14.1009   12.9433 H   0  0  0  0  0  0  0  0  0  0  0  0
  -40.7192  -15.3181   12.9433 H   0  0  0  0  0  0  0  0  0  0  0  0
  -41.3768  -14.8158   16.2447 H   0  0  0  0  0  0  0  0  0  0  0  0
  -40.1005  -13.3485   17.8038 H   0  0  0  0  0  0  0  0  0  0  0  0
  -38.5697  -11.5853   16.8981 H   0  0  0  0  0  0  0  0  0  0  0  0
  -37.4509  -10.2123   12.5481 H   0  0  0  0  0  0  0  0  0  0  0  0
  -38.1290   -9.4203   10.9570 H   0  0  0  0  0  0  0  0  0  0  0  0
  -37.9848   -8.8495    8.5335 H   0  0  0  0  0  0  0  0  0  0  0  0
  -39.2827  -12.8440    7.5161 H   0  0  0  0  0  0  0  0  0  0  0  0
  -39.4348  -13.4127    9.9286 H   0  0  0  0  0  0  0  0  0  0  0  0
  1  2  1  0
  1 12  2  0
  2  3  2  0
  2  8  1  0
  3  4  1  0
  3  5  1  0
  5  6  2  0
  6  7  1  0
  7  8  2  0
  8  9  1  0
  9 10  2  0
  9 11  1  0
 11 12  1  0
 12 13  1  0
 13 14  2  0
 13 19  1  0
 14 15  1  0
 15 16  2  0
 16 17  1  0
 16 18  1  0
 18 19  2  0
  1 20  1  0
  4 21  1  0
  4 22  1  0
  4 23  1  0
  5 24  1  0
  6 25  1  0
  7 26  1  0
 11 27  1  0
 14 28  1  0
 15 29  1  0
 18 30  1  0
 19 31  1  0
A    1
CAH
A    2
CAG
A    3
CAB
A    4
CAA
A    5
CAC
A    6
CAD
A    7
CAE
A    8
CAF
A    9
CAK
A   10
OAL
A   11
NAJ
A   12
CAI
A   13
CAM
A   14
CAN
A   15
CAO
A   16
CAP
A   17
CL
A   18
CAR
A   19
CAS
M  END
