4UVW_NYJ_A_2165
     RDKit          3D

 34 36  0  0  0  0  0  0  0  0999 V2000
  -41.6650  -12.8050   11.2540 C   0  0  0  0  0  0  0  0  0  0  0  0
  -40.8920  -12.1160   12.2460 C   0  0  0  0  0  0  0  0  0  0  0  0
  -41.0610  -12.3460   13.6420 C   0  0  0  0  0  0  0  0  0  0  0  0
  -41.9790  -13.3090   14.1980 C   0  0  0  0  0  0  0  0  0  0  0  0
  -42.8180  -14.1700   13.4250 C   0  0  0  0  0  0  0  0  0  0  0  0
  -42.1080  -13.4560   15.5880 C   0  0  0  0  0  0  0  0  0  0  0  0
  -41.3320  -12.6780   16.4550 C   0  0  0  0  0  0  0  0  0  0  0  0
  -40.4420  -11.7500   15.9320 C   0  0  0  0  0  0  0  0  0  0  0  0
  -40.2850  -11.5770   14.5580 C   0  0  0  0  0  0  0  0  0  0  0  0
  -39.3470  -10.6380   14.0920 C   0  0  0  0  0  0  0  0  0  0  0  0
  -38.6290   -9.9670   14.8500 O   0  0  0  0  0  0  0  0  0  0  0  0
  -39.1890  -10.4350   12.7140 N   0  0  0  0  0  0  0  0  0  0  0  0
  -39.9600  -11.1440   11.7740 C   0  0  0  0  0  0  0  0  0  0  0  0
  -39.7090  -10.8670   10.4050 C   0  0  0  0  0  0  0  0  0  0  0  0
  -39.5840  -11.8790    9.4430 C   0  0  0  0  0  0  0  0  0  0  0  0
  -39.2700  -11.5650    8.1110 C   0  0  0  0  0  0  0  0  0  0  0  0
  -39.1080  -10.2310    7.7130 C   0  0  0  0  0  0  0  0  0  0  0  0
  -39.2040   -9.2320    8.6760 C   0  0  0  0  0  0  0  0  0  0  0  0
  -39.4980   -9.5570    9.9810 C   0  0  0  0  0  0  0  0  0  0  0  0
  -42.3982  -13.4585   11.7492 H   0  0  0  0  0  0  0  0  0  0  0  0
  -42.1925  -12.0720   10.6259 H   0  0  0  0  0  0  0  0  0  0  0  0
  -40.9973  -13.4130   10.6259 H   0  0  0  0  0  0  0  0  0  0  0  0
  -43.4247  -14.7926   14.0990 H   0  0  0  0  0  0  0  0  0  0  0  0
  -43.4808  -13.5632   12.7905 H   0  0  0  0  0  0  0  0  0  0  0  0
  -42.1943  -14.8168   12.7905 H   0  0  0  0  0  0  0  0  0  0  0  0
  -42.8220  -14.1857   15.9976 H   0  0  0  0  0  0  0  0  0  0  0  0
  -41.4268  -12.8012   17.5440 H   0  0  0  0  0  0  0  0  0  0  0  0
  -39.8445  -11.1345   16.6206 H   0  0  0  0  0  0  0  0  0  0  0  0
  -38.4933   -9.7519   12.3821 H   0  0  0  0  0  0  0  0  0  0  0  0
  -39.7333  -12.9291    9.7345 H   0  0  0  0  0  0  0  0  0  0  0  0
  -39.1502  -12.3726    7.3738 H   0  0  0  0  0  0  0  0  0  0  0  0
  -38.9091   -9.9793    6.6608 H   0  0  0  0  0  0  0  0  0  0  0  0
  -39.0448   -8.1806    8.3944 H   0  0  0  0  0  0  0  0  0  0  0  0
  -39.5694   -8.7467   10.7214 H   0  0  0  0  0  0  0  0  0  0  0  0
  1  2  1  0
  2  3  1  0
  2 13  2  0
  3  4  2  0
  3  9  1  0
  4  5  1  0
  4  6  1  0
  6  7  2  0
  7  8  1  0
  8  9  2  0
  9 10  1  0
 10 11  2  0
 10 12  1  0
 12 13  1  0
 13 14  1  0
 14 15  2  0
 14 19  1  0
 15 16  1  0
 16 17  2  0
 17 18  1  0
 18 19  2  0
  1 20  1  0
  1 21  1  0
  1 22  1  0
  5 23  1  0
  5 24  1  0
  5 25  1  0
  6 26  1  0
  7 27  1  0
  8 28  1  0
 12 29  1  0
 15 30  1  0
 16 31  1  0
 17 32  1  0
 18 33  1  0
 19 34  1  0
A    1
CAI
A    2
CAH
A    3
CAG
A    4
CAB
A    5
CAA
A    6
CAC
A    7
CAD
A    8
CAE
A    9
CAF
A   10
CAL
A   11
OAM
A   12
NAK
A   13
CAJ
A   14
CAN
A   15
CAO
A   16
CAP
A   17
CAQ
A   18
CAR
A   19
CAS
M  END
