4UW3_50G_A_1136
     RDKit          3D

 79 82  0  0  0  0  0  0  0  0999 V2000
  -11.8270   -7.9060   13.8460 O   0  0  0  0  0  0  0  0  0  0  0  0
  -12.2740   -8.0150   15.2690 C   0  0  0  0  0  0  0  0  0  0  0  0
  -11.2260   -8.5810   16.0870 C   0  0  0  0  0  0  0  0  0  0  0  0
  -10.0590   -7.6780   16.1400 O   0  0  0  0  0  0  0  0  0  0  0  0
  -11.6880   -8.8950   17.4730 C   0  0  0  0  0  0  0  0  0  0  0  0
  -12.0610   -7.6730   18.1480 O   0  0  0  0  0  0  0  0  0  0  0  0
  -12.8930   -9.8490   17.4350 C   0  0  0  0  0  0  0  0  0  0  0  0
  -13.4520  -10.0880   18.7270 C   0  0  0  0  0  0  0  0  0  0  0  0
  -14.4970  -11.0110   18.5720 O   0  0  0  0  0  0  0  0  0  0  0  0
  -13.9440   -9.1310   16.6180 O   0  0  0  0  0  0  0  0  0  0  0  0
  -13.4800   -8.8560   15.2640 C   0  0  0  0  0  0  0  0  0  0  0  0
  -14.5350   -8.1150   14.6190 N   0  0  0  0  0  0  0  0  0  0  0  0
  -15.3600   -8.5690   13.6190 C   0  0  0  0  0  0  0  0  0  0  0  0
  -14.8600   -6.8860   14.9220 N   0  0  0  0  0  0  0  0  0  0  0  0
  -15.8720   -6.4630   14.1770 N   0  0  0  0  0  0  0  0  0  0  0  0
  -16.2250   -7.4650   13.3340 C   0  0  0  0  0  0  0  0  0  0  0  0
  -17.3550   -7.4110   12.2950 C   0  0  0  0  0  0  0  0  0  0  0  0
  -18.4550   -8.1550   12.8120 O   0  0  0  0  0  0  0  0  0  0  0  0
  -19.5040   -7.4860   13.5330 C   0  0  0  0  0  0  0  0  0  0  0  0
  -20.7940   -7.6390   13.1350 C   0  0  0  0  0  0  0  0  0  0  0  0
  -21.0170   -8.5640   11.9580 C   0  0  0  0  0  0  0  0  0  0  0  0
  -20.1840   -8.1630   10.9070 O   0  0  0  0  0  0  0  0  0  0  0  0
  -21.7680   -7.5300   14.1730 N   0  0  0  0  0  0  0  0  0  0  0  0
  -21.1420   -6.3050   12.4070 C   0  0  0  0  0  0  0  0  0  0  0  0
  -22.5160   -6.0600   12.5250 O   0  0  0  0  0  0  0  0  0  0  0  0
  -22.9180   -4.7000   12.4080 C   0  0  0  0  0  0  0  0  0  0  0  0
  -22.1090   -4.0700   11.2740 C   0  0  0  0  0  0  0  0  0  0  0  0
  -21.1120   -3.0570   11.4090 C   0  0  0  0  0  0  0  0  0  0  0  0
  -22.1680   -4.3620    9.9480 N   0  0  0  0  0  0  0  0  0  0  0  0
  -21.2870   -3.5910    9.2990 N   0  0  0  0  0  0  0  0  0  0  0  0
  -20.6580   -2.8140   10.1340 N   0  0  0  0  0  0  0  0  0  0  0  0
  -19.6470   -1.9000    9.7990 C   0  0  0  0  0  0  0  0  0  0  0  0
  -20.1050   -1.0170    8.7260 O   0  0  0  0  0  0  0  0  0  0  0  0
  -19.0380   -0.0840    8.3100 C   0  0  0  0  0  0  0  0  0  0  0  0
  -19.5610    0.7340    7.1780 C   0  0  0  0  0  0  0  0  0  0  0  0
  -20.5890    1.5960    7.6240 O   0  0  0  0  0  0  0  0  0  0  0  0
  -17.8000   -0.8570    7.9010 C   0  0  0  0  0  0  0  0  0  0  0  0
  -18.1070   -1.6320    6.7150 O   0  0  0  0  0  0  0  0  0  0  0  0
  -17.3660   -1.7810    8.9770 C   0  0  0  0  0  0  0  0  0  0  0  0
  -16.1820   -2.5420    8.5460 O   0  0  0  0  0  0  0  0  0  0  0  0
  -18.4630   -2.6980    9.3060 C   0  0  0  0  0  0  0  0  0  0  0  0
  -18.0860   -3.6720   10.3130 O   0  0  0  0  0  0  0  0  0  0  0  0
  -10.8655   -7.6715   13.8192 H   0  0  0  0  0  0  0  0  0  0  0  0
  -12.4999   -7.0283   15.6996 H   0  0  0  0  0  0  0  0  0  0  0  0
  -10.9342   -9.5293   15.6120 H   0  0  0  0  0  0  0  0  0  0  0  0
   -9.8247   -7.4967   17.0846 H   0  0  0  0  0  0  0  0  0  0  0  0
  -10.8661   -9.3832   18.0171 H   0  0  0  0  0  0  0  0  0  0  0  0
  -12.0189   -7.8109   19.1274 H   0  0  0  0  0  0  0  0  0  0  0  0
  -12.5762  -10.8203   17.0274 H   0  0  0  0  0  0  0  0  0  0  0  0
  -12.6838  -10.5001   19.3979 H   0  0  0  0  0  0  0  0  0  0  0  0
  -13.8255   -9.1511   19.1660 H   0  0  0  0  0  0  0  0  0  0  0  0
  -14.8201  -11.2964   19.4632 H   0  0  0  0  0  0  0  0  0  0  0  0
  -13.2381   -9.8000   14.7538 H   0  0  0  0  0  0  0  0  0  0  0  0
  -15.3566   -9.5607   13.1430 H   0  0  0  0  0  0  0  0  0  0  0  0
  -17.0146   -7.8549   11.3479 H   0  0  0  0  0  0  0  0  0  0  0  0
  -17.6512   -6.3694   12.1018 H   0  0  0  0  0  0  0  0  0  0  0  0
  -19.4476   -7.8336   14.5751 H   0  0  0  0  0  0  0  0  0  0  0  0
  -19.3028   -6.4201   13.3505 H   0  0  0  0  0  0  0  0  0  0  0  0
  -22.0682   -8.5094   11.6385 H   0  0  0  0  0  0  0  0  0  0  0  0
  -20.7840   -9.5997   12.2463 H   0  0  0  0  0  0  0  0  0  0  0  0
  -19.3561   -7.7645   11.2757 H   0  0  0  0  0  0  0  0  0  0  0  0
  -21.3005   -7.5823   15.0893 H   0  0  0  0  0  0  0  0  0  0  0  0
  -22.2596   -6.6287   14.0893 H   0  0  0  0  0  0  0  0  0  0  0  0
  -20.8727   -6.3853   11.3435 H   0  0  0  0  0  0  0  0  0  0  0  0
  -20.5789   -5.4775   12.8633 H   0  0  0  0  0  0  0  0  0  0  0  0
  -22.7187   -4.1684   13.3502 H   0  0  0  0  0  0  0  0  0  0  0  0
  -23.9951   -4.6345   12.1943 H   0  0  0  0  0  0  0  0  0  0  0  0
  -20.7772   -2.5725   12.3381 H   0  0  0  0  0  0  0  0  0  0  0  0
  -19.3814   -1.2869   10.6728 H   0  0  0  0  0  0  0  0  0  0  0  0
  -18.7527    0.5764    9.1421 H   0  0  0  0  0  0  0  0  0  0  0  0
  -19.9610    0.0646    6.4021 H   0  0  0  0  0  0  0  0  0  0  0  0
  -18.7401    1.3411    6.7685 H   0  0  0  0  0  0  0  0  0  0  0  0
  -20.6033    1.6080    8.6138 H   0  0  0  0  0  0  0  0  0  0  0  0
  -16.9874   -0.1419    7.7054 H   0  0  0  0  0  0  0  0  0  0  0  0
  -18.4581   -2.5184    6.9817 H   0  0  0  0  0  0  0  0  0  0  0  0
  -17.1005   -1.1969    9.8705 H   0  0  0  0  0  0  0  0  0  0  0  0
  -15.6867   -2.8604    9.3419 H   0  0  0  0  0  0  0  0  0  0  0  0
  -18.7201   -3.2518    8.3910 H   0  0  0  0  0  0  0  0  0  0  0  0
  -18.2341   -3.2894   11.2140 H   0  0  0  0  0  0  0  0  0  0  0  0
 38 37  1  0
 35 36  1  0
 35 34  1  0
 37 34  1  0
 37 39  1  0
 34 33  1  0
 40 39  1  0
 33 32  1  0
 39 41  1  0
 30 29  2  0
 30 31  1  0
 41 32  1  0
 41 42  1  0
 32 31  1  0
 29 27  1  0
 31 28  1  0
 22 21  1  0
 27 28  2  0
 27 26  1  0
 21 20  1  0
 17 18  1  0
 17 16  1  0
 24 25  1  0
 24 20  1  0
 26 25  1  0
 18 19  1  0
 20 19  1  0
 20 23  1  0
 16 13  2  0
 16 15  1  0
 13 12  1  0
  1  2  1  0
 15 14  2  0
 12 14  1  0
 12 11  1  0
 11  2  1  0
 11 10  1  0
  2  3  1  0
  3  4  1  0
  3  5  1  0
 10  7  1  0
  7  5  1  0
  7  8  1  0
  5  6  1  0
  9  8  1  0
  1 43  1  0
  2 44  1  0
  3 45  1  0
  4 46  1  0
  5 47  1  0
  6 48  1  0
  7 49  1  0
  8 50  1  0
  8 51  1  0
  9 52  1  0
 11 53  1  0
 13 54  1  0
 17 55  1  0
 17 56  1  0
 19 57  1  0
 19 58  1  0
 21 59  1  0
 21 60  1  0
 22 61  1  0
 23 62  1  0
 23 63  1  0
 24 64  1  0
 24 65  1  0
 26 66  1  0
 26 67  1  0
 28 68  1  0
 32 69  1  0
 34 70  1  0
 35 71  1  0
 35 72  1  0
 36 73  1  0
 37 74  1  0
 38 75  1  0
 39 76  1  0
 40 77  1  0
 41 78  1  0
 42 79  1  0
A    1
O40
A    2
C37
A    3
C36
A    4
O41
A    5
C35
A    6
O42
A    7
C34
A    8
C38
A    9
O39
A   10
O33
A   11
C32
A   12
N30
A   13
C29
A   14
N31
A   15
N28
A   16
C27
A   17
C26
A   18
O25
A   19
C22
A   20
C21
A   21
C23
A   22
O43
A   23
N24
A   24
C20
A   25
O19
A   26
C18
A   27
C17
A   28
C14
A   29
N16
A   30
N15
A   31
N13
A   32
C4
A   33
O5
A   34
C6
A   35
C11
A   36
O12
A   37
C7
A   38
O8
A   39
C2
A   40
O9
A   41
C3
A   42
O10
M  END
