4UW4_4S0_B_1136
     RDKit          3D

121126  0  0  0  0  0  0  0  0999 V2000
   -6.3550  -16.2320   15.1220 O   0  0  0  0  0  0  0  0  0  0  0  0
   -5.9540  -14.8930   14.9210 C   0  0  0  0  0  0  0  0  0  0  0  0
   -5.6440  -14.7110   13.4220 C   0  0  0  0  0  0  0  0  0  0  0  0
   -5.7130  -16.0910   12.6970 C   0  0  0  0  0  0  0  0  0  0  0  0
   -6.9000  -16.1940   11.9070 O   0  0  0  0  0  0  0  0  0  0  0  0
   -7.9560  -17.0250   12.4860 C   0  0  0  0  0  0  0  0  0  0  0  0
   -8.9970  -16.0430   13.1540 C   0  0  0  0  0  0  0  0  0  0  0  0
  -10.0840  -15.3200   12.4920 C   0  0  0  0  0  0  0  0  0  0  0  0
   -9.0480  -15.6890   14.4570 N   0  0  0  0  0  0  0  0  0  0  0  0
  -10.0550  -14.8240   14.6090 N   0  0  0  0  0  0  0  0  0  0  0  0
  -10.7050  -14.6050   13.4750 N   0  0  0  0  0  0  0  0  0  0  0  0
  -11.8120  -13.7420   13.2530 C   0  0  0  0  0  0  0  0  0  0  0  0
  -12.9290  -13.7820   14.2900 C   0  0  0  0  0  0  0  0  0  0  0  0
  -12.5770  -14.5750   15.4670 O   0  0  0  0  0  0  0  0  0  0  0  0
  -13.5220  -12.4690   14.7210 C   0  0  0  0  0  0  0  0  0  0  0  0
  -13.8420  -12.4960   16.1550 O   0  0  0  0  0  0  0  0  0  0  0  0
  -11.1990  -12.4290   13.0470 O   0  0  0  0  0  0  0  0  0  0  0  0
  -12.2110  -11.3700   12.9780 C   0  0  0  0  0  0  0  0  0  0  0  0
  -11.5180  -10.1480   12.4240 C   0  0  0  0  0  0  0  0  0  0  0  0
  -10.4340   -9.6620   13.1300 O   0  0  0  0  0  0  0  0  0  0  0  0
  -12.7720  -11.2450   14.3810 C   0  0  0  0  0  0  0  0  0  0  0  0
  -13.6990  -10.1290   14.4130 O   0  0  0  0  0  0  0  0  0  0  0  0
  -13.1860   -9.0310   15.0880 C   0  0  0  0  0  0  0  0  0  0  0  0
  -12.9400   -9.4060   16.4920 O   0  0  0  0  0  0  0  0  0  0  0  0
  -12.4550   -8.2640   17.2500 C   0  0  0  0  0  0  0  0  0  0  0  0
  -12.2070   -8.7330   18.6540 C   0  0  0  0  0  0  0  0  0  0  0  0
  -11.2820   -9.7770   18.5830 O   0  0  0  0  0  0  0  0  0  0  0  0
  -13.4610   -7.1220   17.1980 C   0  0  0  0  0  0  0  0  0  0  0  0
  -14.6660   -7.5410   17.8900 O   0  0  0  0  0  0  0  0  0  0  0  0
  -13.7690   -6.7460   15.7930 C   0  0  0  0  0  0  0  0  0  0  0  0
  -14.8120   -5.7250   15.6810 O   0  0  0  0  0  0  0  0  0  0  0  0
  -14.1760   -7.8880   14.9820 C   0  0  0  0  0  0  0  0  0  0  0  0
  -14.2790   -7.4510   13.5950 O   0  0  0  0  0  0  0  0  0  0  0  0
   -6.6050  -13.7670   12.8400 N   0  0  0  0  0  0  0  0  0  0  0  0
   -4.2110  -14.1220   13.2940 C   0  0  0  0  0  0  0  0  0  0  0  0
   -3.2730  -15.1220   13.7290 O   0  0  0  0  0  0  0  0  0  0  0  0
   -2.2050  -15.3480   12.7900 C   0  0  0  0  0  0  0  0  0  0  0  0
   -1.0630  -14.3550   13.0690 C   0  0  0  0  0  0  0  0  0  0  0  0
   -0.7410  -13.1570   12.3030 C   0  0  0  0  0  0  0  0  0  0  0  0
   -0.1420  -14.4320   14.0790 N   0  0  0  0  0  0  0  0  0  0  0  0
    0.6900  -13.3880   13.9770 N   0  0  0  0  0  0  0  0  0  0  0  0
    0.3570  -12.6220   12.9450 N   0  0  0  0  0  0  0  0  0  0  0  0
    1.0490  -11.4360   12.5690 C   0  0  0  0  0  0  0  0  0  0  0  0
    0.9450  -11.2020   11.0830 C   0  0  0  0  0  0  0  0  0  0  0  0
    1.5260  -12.3470   10.3900 O   0  0  0  0  0  0  0  0  0  0  0  0
    1.6590   -9.9470   10.7130 C   0  0  0  0  0  0  0  0  0  0  0  0
    1.4590   -9.7000    9.2750 O   0  0  0  0  0  0  0  0  0  0  0  0
    0.5050  -10.2970   13.3030 O   0  0  0  0  0  0  0  0  0  0  0  0
    1.2540   -9.0630   12.9790 C   0  0  0  0  0  0  0  0  0  0  0  0
    0.6710   -7.9720   13.7850 C   0  0  0  0  0  0  0  0  0  0  0  0
    0.7970   -8.2810   15.1350 O   0  0  0  0  0  0  0  0  0  0  0  0
    1.1750   -8.7840   11.4920 C   0  0  0  0  0  0  0  0  0  0  0  0
    2.0070   -7.6060   11.1690 O   0  0  0  0  0  0  0  0  0  0  0  0
    1.2700   -6.4860   10.8440 C   0  0  0  0  0  0  0  0  0  0  0  0
    0.4890   -6.7240    9.5940 O   0  0  0  0  0  0  0  0  0  0  0  0
   -0.2070   -5.4920    9.1790 C   0  0  0  0  0  0  0  0  0  0  0  0
   -1.0100   -5.8040    7.9680 C   0  0  0  0  0  0  0  0  0  0  0  0
   -1.8560   -6.9150    8.3240 O   0  0  0  0  0  0  0  0  0  0  0  0
    0.7700   -4.3500    8.9060 C   0  0  0  0  0  0  0  0  0  0  0  0
    1.7000   -4.7010    7.8650 O   0  0  0  0  0  0  0  0  0  0  0  0
    1.5290   -4.0850   10.1780 C   0  0  0  0  0  0  0  0  0  0  0  0
    2.5480   -3.0690    9.9720 O   0  0  0  0  0  0  0  0  0  0  0  0
    2.2070   -5.3010   10.6800 C   0  0  0  0  0  0  0  0  0  0  0  0
    2.7970   -4.9990   11.9590 O   0  0  0  0  0  0  0  0  0  0  0  0
   -6.4106  -16.4176   16.0928 H   0  0  0  0  0  0  0  0  0  0  0  0
   -6.7637  -14.2114   15.2206 H   0  0  0  0  0  0  0  0  0  0  0  0
   -5.0647  -14.6644   15.5266 H   0  0  0  0  0  0  0  0  0  0  0  0
   -4.8349  -16.1985   12.0432 H   0  0  0  0  0  0  0  0  0  0  0  0
   -5.7265  -16.8865   13.4566 H   0  0  0  0  0  0  0  0  0  0  0  0
   -8.4457  -17.6173   11.6990 H   0  0  0  0  0  0  0  0  0  0  0  0
   -7.5441  -17.7261   13.2268 H   0  0  0  0  0  0  0  0  0  0  0  0
  -10.3460  -15.3472   11.4240 H   0  0  0  0  0  0  0  0  0  0  0  0
  -12.3952  -14.0725   12.3809 H   0  0  0  0  0  0  0  0  0  0  0  0
  -13.7302  -14.2760   13.7207 H   0  0  0  0  0  0  0  0  0  0  0  0
  -12.8024  -14.0673   16.2865 H   0  0  0  0  0  0  0  0  0  0  0  0
  -14.4334  -12.3868   14.1106 H   0  0  0  0  0  0  0  0  0  0  0  0
  -13.0063  -12.4255   16.6810 H   0  0  0  0  0  0  0  0  0  0  0  0
  -13.0669  -11.5562   12.3126 H   0  0  0  0  0  0  0  0  0  0  0  0
  -11.1686  -10.3965   11.4110 H   0  0  0  0  0  0  0  0  0  0  0  0
  -12.2710   -9.3478   12.4746 H   0  0  0  0  0  0  0  0  0  0  0  0
  -10.6103   -9.7410   14.1010 H   0  0  0  0  0  0  0  0  0  0  0  0
  -11.9483  -11.0933   15.0941 H   0  0  0  0  0  0  0  0  0  0  0  0
  -12.2323   -8.7058   14.6467 H   0  0  0  0  0  0  0  0  0  0  0  0
  -11.5207   -7.8718   16.8218 H   0  0  0  0  0  0  0  0  0  0  0  0
  -11.8006   -7.9099   19.2601 H   0  0  0  0  0  0  0  0  0  0  0  0
  -13.1424   -9.0711   19.1239 H   0  0  0  0  0  0  0  0  0  0  0  0
  -11.0320  -10.0592   19.4984 H   0  0  0  0  0  0  0  0  0  0  0  0
  -13.0353   -6.2342   17.6885 H   0  0  0  0  0  0  0  0  0  0  0  0
  -14.5196   -7.4901   18.8678 H   0  0  0  0  0  0  0  0  0  0  0  0
  -12.8205   -6.3368   15.4151 H   0  0  0  0  0  0  0  0  0  0  0  0
  -15.0982   -5.4449   16.5864 H   0  0  0  0  0  0  0  0  0  0  0  0
  -15.1451   -8.2577   15.3481 H   0  0  0  0  0  0  0  0  0  0  0  0
  -14.5060   -6.4877   13.5685 H   0  0  0  0  0  0  0  0  0  0  0  0
   -7.1046  -13.2762   13.5953 H   0  0  0  0  0  0  0  0  0  0  0  0
   -6.1031  -13.0811   12.2581 H   0  0  0  0  0  0  0  0  0  0  0  0
   -4.0107  -13.8545   12.2460 H   0  0  0  0  0  0  0  0  0  0  0  0
   -4.1156  -13.2173   13.9124 H   0  0  0  0  0  0  0  0  0  0  0  0
   -1.8318  -16.3770   12.8988 H   0  0  0  0  0  0  0  0  0  0  0  0
   -2.5782  -15.2016   11.7656 H   0  0  0  0  0  0  0  0  0  0  0  0
   -1.2573  -12.7673   11.4133 H   0  0  0  0  0  0  0  0  0  0  0  0
    2.1135  -11.5533   12.8200 H   0  0  0  0  0  0  0  0  0  0  0  0
   -0.1098  -11.0928   10.7906 H   0  0  0  0  0  0  0  0  0  0  0  0
    1.8580  -13.0013   11.0546 H   0  0  0  0  0  0  0  0  0  0  0  0
    2.7274  -10.0729   10.9425 H   0  0  0  0  0  0  0  0  0  0  0  0
    0.8407   -8.9363    9.1542 H   0  0  0  0  0  0  0  0  0  0  0  0
    2.3222   -9.1627   13.2217 H   0  0  0  0  0  0  0  0  0  0  0  0
    1.2026   -7.0329   13.5717 H   0  0  0  0  0  0  0  0  0  0  0  0
   -0.3928   -7.8540   13.5314 H   0  0  0  0  0  0  0  0  0  0  0  0
    0.4848   -7.5153   15.6793 H   0  0  0  0  0  0  0  0  0  0  0  0
    0.1247   -8.5918   11.2277 H   0  0  0  0  0  0  0  0  0  0  0  0
    0.5556   -6.2681   11.6515 H   0  0  0  0  0  0  0  0  0  0  0  0
   -0.8614   -5.1509    9.9947 H   0  0  0  0  0  0  0  0  0  0  0  0
   -1.6211   -4.9355    7.6811 H   0  0  0  0  0  0  0  0  0  0  0  0
   -0.3655   -6.0485    7.1108 H   0  0  0  0  0  0  0  0  0  0  0  0
   -1.9100   -6.9860    9.3100 H   0  0  0  0  0  0  0  0  0  0  0  0
    0.2125   -3.4603    8.5778 H   0  0  0  0  0  0  0  0  0  0  0  0
    2.5448   -5.0198    8.2709 H   0  0  0  0  0  0  0  0  0  0  0  0
    0.7852   -3.7456   10.9139 H   0  0  0  0  0  0  0  0  0  0  0  0
    2.8730   -2.7450   10.8492 H   0  0  0  0  0  0  0  0  0  0  0  0
    2.9630   -5.5868    9.9338 H   0  0  0  0  0  0  0  0  0  0  0  0
    2.1945   -5.3074   12.6814 H   0  0  0  0  0  0  0  0  0  0  0  0
  1  2  1  0
  2  3  1  0
  3  4  1  0
  3 34  1  0
  3 35  1  0
  4  5  1  0
  5  6  1  0
  6  7  1  0
  7  8  2  0
  7  9  1  0
  8 11  1  0
  9 10  2  0
 10 11  1  0
 11 12  1  0
 12 13  1  0
 12 17  1  0
 13 14  1  0
 13 15  1  0
 15 16  1  0
 15 21  1  0
 17 18  1  0
 18 19  1  0
 18 21  1  0
 19 20  1  0
 21 22  1  0
 22 23  1  0
 23 24  1  0
 23 32  1  0
 24 25  1  0
 25 26  1  0
 25 28  1  0
 26 27  1  0
 28 29  1  0
 28 30  1  0
 30 31  1  0
 30 32  1  0
 32 33  1  0
 35 36  1  0
 36 37  1  0
 37 38  1  0
 38 39  2  0
 38 40  1  0
 39 42  1  0
 40 41  2  0
 41 42  1  0
 42 43  1  0
 43 44  1  0
 43 48  1  0
 44 45  1  0
 44 46  1  0
 46 47  1  0
 46 52  1  0
 48 49  1  0
 49 50  1  0
 49 52  1  0
 50 51  1  0
 52 53  1  0
 53 54  1  0
 54 55  1  0
 54 63  1  0
 55 56  1  0
 56 57  1  0
 56 59  1  0
 57 58  1  0
 59 60  1  0
 59 61  1  0
 61 62  1  0
 61 63  1  0
 64 63  1  0
  1 65  1  0
  2 66  1  0
  2 67  1  0
  4 68  1  0
  4 69  1  0
  6 70  1  0
  6 71  1  0
  8 72  1  0
 12 73  1  0
 13 74  1  0
 14 75  1  0
 15 76  1  0
 16 77  1  0
 18 78  1  0
 19 79  1  0
 19 80  1  0
 20 81  1  0
 21 82  1  0
 23 83  1  0
 25 84  1  0
 26 85  1  0
 26 86  1  0
 27 87  1  0
 28 88  1  0
 29 89  1  0
 30 90  1  0
 31 91  1  0
 32 92  1  0
 33 93  1  0
 34 94  1  0
 34 95  1  0
 35 96  1  0
 35 97  1  0
 37 98  1  0
 37 99  1  0
 39100  1  0
 43101  1  0
 44102  1  0
 45103  1  0
 46104  1  0
 47105  1  0
 49106  1  0
 50107  1  0
 50108  1  0
 51109  1  0
 52110  1  0
 54111  1  0
 56112  1  0
 57113  1  0
 57114  1  0
 58115  1  0
 59116  1  0
 60117  1  0
 61118  1  0
 62119  1  0
 63120  1  0
 64121  1  0
A    1
OBC
A    2
CBD
A    3
CBE
A    4
CBH
A    5
OBJ
A    6
CDN
A    7
CDL
A    8
CDM
A    9
NDK
A   10
NDJ
A   11
NDI
A   12
CDB
A   13
CDA
A   14
ODH
A   15
CCZ
A   16
ODG
A   17
ODC
A   18
CDD
A   19
CDE
A   20
ODF
A   21
CCY
A   22
OCS
A   23
CCR
A   24
OCM
A   25
CCN
A   26
CCT
A   27
OCU
A   28
CCO
A   29
OCV
A   30
CCP
A   31
OCW
A   32
CCQ
A   33
OCX
A   34
NBF
A   35
CBG
A   36
OBI
A   37
CCL
A   38
CCJ
A   39
CCK
A   40
NCI
A   41
NCH
A   42
NCG
A   43
CBZ
A   44
CBY
A   45
OCF
A   46
CBX
A   47
OCE
A   48
OCA
A   49
CCB
A   50
CCC
A   51
OCD
A   52
CBW
A   53
OBQ
A   54
CBP
A   55
OBK
A   56
CBL
A   57
CBR
A   58
OBS
A   59
CBM
A   60
OBT
A   61
CBN
A   62
OBU
A   63
CBO
A   64
OBV
M  END
