4UW6_VV7_B_1136
     RDKit          3D

171179  0  0  0  0  0  0  0  0999 V2000
  -36.3810  -24.1380   66.6130 O   0  0  0  0  0  0  0  0  0  0  0  0
  -36.9460  -25.2060   67.4030 C   0  0  0  0  0  0  0  0  0  0  0  0
  -35.8180  -26.1050   67.9510 C   0  0  0  0  0  0  0  0  0  0  0  0
  -35.6330  -27.2120   67.0290 O   0  0  0  0  0  0  0  0  0  0  0  0
  -36.0940  -26.5730   69.4100 C   0  0  0  0  0  0  0  0  0  0  0  0
  -35.6820  -25.5570   70.3640 O   0  0  0  0  0  0  0  0  0  0  0  0
  -37.5810  -26.9070   69.6180 C   0  0  0  0  0  0  0  0  0  0  0  0
  -37.9540  -28.1690   68.8210 C   0  0  0  0  0  0  0  0  0  0  0  0
  -39.1350  -28.7840   69.3500 O   0  0  0  0  0  0  0  0  0  0  0  0
  -38.4360  -25.7560   69.2670 O   0  0  0  0  0  0  0  0  0  0  0  0
  -37.8060  -24.6500   68.5230 C   0  0  0  0  0  0  0  0  0  0  0  0
  -38.8300  -23.7200   67.9950 N   0  0  0  0  0  0  0  0  0  0  0  0
  -39.9000  -24.0630   67.2810 C   0  0  0  0  0  0  0  0  0  0  0  0
  -38.8160  -22.4630   68.1430 N   0  0  0  0  0  0  0  0  0  0  0  0
  -39.7960  -21.9380   67.5950 N   0  0  0  0  0  0  0  0  0  0  0  0
  -40.5040  -22.9120   67.0410 C   0  0  0  0  0  0  0  0  0  0  0  0
  -41.8000  -22.7230   66.2510 C   0  0  0  0  0  0  0  0  0  0  0  0
  -42.8450  -23.4980   66.8430 O   0  0  0  0  0  0  0  0  0  0  0  0
  -43.0010  -23.1300   68.2130 C   0  0  0  0  0  0  0  0  0  0  0  0
  -44.4910  -22.8770   68.4900 C   0  0  0  0  0  0  0  0  0  0  0  0
  -45.3110  -22.1090   67.4490 C   0  0  0  0  0  0  0  0  0  0  0  0
  -46.3090  -22.9820   66.9110 O   0  0  0  0  0  0  0  0  0  0  0  0
  -46.8550  -22.4400   65.7060 C   0  0  0  0  0  0  0  0  0  0  0  0
  -48.2730  -21.9170   65.9490 C   0  0  0  0  0  0  0  0  0  0  0  0
  -48.6810  -20.6920   65.6910 C   0  0  0  0  0  0  0  0  0  0  0  0
  -49.3010  -22.6000   66.4410 N   0  0  0  0  0  0  0  0  0  0  0  0
  -50.2800  -21.8280   66.4840 N   0  0  0  0  0  0  0  0  0  0  0  0
  -49.9640  -20.6990   66.0460 N   0  0  0  0  0  0  0  0  0  0  0  0
  -50.7790  -19.4760   65.9170 C   0  0  0  0  0  0  0  0  0  0  0  0
  -50.6460  -18.7060   67.1200 O   0  0  0  0  0  0  0  0  0  0  0  0
  -51.4650  -17.5180   67.0120 C   0  0  0  0  0  0  0  0  0  0  0  0
  -51.1570  -16.6560   68.2350 C   0  0  0  0  0  0  0  0  0  0  0  0
  -49.7380  -16.5780   68.3890 O   0  0  0  0  0  0  0  0  0  0  0  0
  -52.9430  -17.9040   67.0170 C   0  0  0  0  0  0  0  0  0  0  0  0
  -53.2910  -18.4870   68.2820 O   0  0  0  0  0  0  0  0  0  0  0  0
  -53.1480  -18.9000   66.0800 C   0  0  0  0  0  0  0  0  0  0  0  0
  -54.4320  -19.1870   65.7360 O   0  0  0  0  0  0  0  0  0  0  0  0
  -52.1240  -19.7170   65.6170 C   0  0  0  0  0  0  0  0  0  0  0  0
  -52.4350  -20.7150   64.7440 O   0  0  0  0  0  0  0  0  0  0  0  0
  -45.1540  -23.2500   69.8240 C   0  0  0  0  0  0  0  0  0  0  0  0
  -44.6670  -24.5370   70.2180 O   0  0  0  0  0  0  0  0  0  0  0  0
  -44.1110  -21.5310   69.0400 N   0  0  0  0  0  0  0  0  0  0  0  0
  -43.3280  -21.2840   70.1440 C   0  0  0  0  0  0  0  0  0  0  0  0
  -42.7980  -22.1050   70.9050 O   0  0  0  0  0  0  0  0  0  0  0  0
  -43.1140  -19.9310   70.4180 C   0  0  0  0  0  0  0  0  0  0  0  0
  -43.1080  -18.9480   69.4200 C   0  0  0  0  0  0  0  0  0  0  0  0
  -42.8750  -19.5690   71.7420 C   0  0  0  0  0  0  0  0  0  0  0  0
  -42.6450  -18.2410   72.0790 C   0  0  0  0  0  0  0  0  0  0  0  0
  -42.4220  -17.8920   73.4120 C   0  0  0  0  0  0  0  0  0  0  0  0
  -41.0780  -17.4270   73.5900 O   0  0  0  0  0  0  0  0  0  0  0  0
  -42.6500  -17.2670   71.0840 C   0  0  0  0  0  0  0  0  0  0  0  0
  -42.8750  -17.6080   69.7510 C   0  0  0  0  0  0  0  0  0  0  0  0
  -42.8630  -16.5870   68.7900 C   0  0  0  0  0  0  0  0  0  0  0  0
  -43.1370  -15.4350   69.1380 O   0  0  0  0  0  0  0  0  0  0  0  0
  -42.5040  -16.9660   67.5310 N   0  0  0  0  0  0  0  0  0  0  0  0
  -42.4410  -16.0180   66.3720 C   0  0  0  0  0  0  0  0  0  0  0  0
  -41.3570  -14.9470   66.5640 C   0  0  0  0  0  0  0  0  0  0  0  0
  -41.7400  -14.0400   67.5940 O   0  0  0  0  0  0  0  0  0  0  0  0
  -42.1480  -16.7720   65.1570 O   0  0  0  0  0  0  0  0  0  0  0  0
  -41.6460  -16.0480   64.0050 C   0  0  0  0  0  0  0  0  0  0  0  0
  -40.3240  -16.7210   63.5410 C   0  0  0  0  0  0  0  0  0  0  0  0
  -39.1300  -16.1420   63.4450 C   0  0  0  0  0  0  0  0  0  0  0  0
  -40.2010  -18.0000   63.1970 N   0  0  0  0  0  0  0  0  0  0  0  0
  -38.9800  -18.2030   62.9010 N   0  0  0  0  0  0  0  0  0  0  0  0
  -38.3010  -17.1120   63.0410 N   0  0  0  0  0  0  0  0  0  0  0  0
  -36.8230  -17.0020   62.7690 C   0  0  0  0  0  0  0  0  0  0  0  0
  -36.5630  -17.1640   61.3650 O   0  0  0  0  0  0  0  0  0  0  0  0
  -35.1670  -17.1110   61.1030 C   0  0  0  0  0  0  0  0  0  0  0  0
  -35.0040  -17.1340   59.5810 C   0  0  0  0  0  0  0  0  0  0  0  0
  -35.5660  -15.9380   59.0190 O   0  0  0  0  0  0  0  0  0  0  0  0
  -34.5330  -18.3710   61.7010 C   0  0  0  0  0  0  0  0  0  0  0  0
  -35.1040  -19.4910   61.0420 O   0  0  0  0  0  0  0  0  0  0  0  0
  -34.9060  -18.5060   63.0230 C   0  0  0  0  0  0  0  0  0  0  0  0
  -34.2120  -19.3900   63.8020 O   0  0  0  0  0  0  0  0  0  0  0  0
  -36.0610  -17.9160   63.5190 C   0  0  0  0  0  0  0  0  0  0  0  0
  -36.3960  -18.1500   64.8260 O   0  0  0  0  0  0  0  0  0  0  0  0
  -43.8260  -15.3760   66.2180 C   0  0  0  0  0  0  0  0  0  0  0  0
  -44.7590  -16.3890   66.5990 O   0  0  0  0  0  0  0  0  0  0  0  0
  -46.0980  -16.0530   66.2680 C   0  0  0  0  0  0  0  0  0  0  0  0
  -46.3810  -16.5150   64.8460 C   0  0  0  0  0  0  0  0  0  0  0  0
  -46.4070  -15.7310   63.7880 C   0  0  0  0  0  0  0  0  0  0  0  0
  -46.6410  -17.7580   64.4620 N   0  0  0  0  0  0  0  0  0  0  0  0
  -46.8170  -17.7360   63.2430 N   0  0  0  0  0  0  0  0  0  0  0  0
  -46.6800  -16.5640   62.7920 N   0  0  0  0  0  0  0  0  0  0  0  0
  -46.8290  -16.1080   61.4130 C   0  0  0  0  0  0  0  0  0  0  0  0
  -48.1020  -15.4320   61.4260 O   0  0  0  0  0  0  0  0  0  0  0  0
  -48.4420  -14.9330   60.1340 C   0  0  0  0  0  0  0  0  0  0  0  0
  -49.8120  -14.2650   60.2530 C   0  0  0  0  0  0  0  0  0  0  0  0
  -50.8220  -15.1250   59.7180 O   0  0  0  0  0  0  0  0  0  0  0  0
  -47.3930  -13.9180   59.6870 C   0  0  0  0  0  0  0  0  0  0  0  0
  -47.7360  -13.3930   58.3960 O   0  0  0  0  0  0  0  0  0  0  0  0
  -46.0240  -14.5800   59.6430 C   0  0  0  0  0  0  0  0  0  0  0  0
  -45.0300  -13.6060   59.2930 O   0  0  0  0  0  0  0  0  0  0  0  0
  -45.7270  -15.1360   61.0240 C   0  0  0  0  0  0  0  0  0  0  0  0
  -44.4560  -15.8040   61.0290 O   0  0  0  0  0  0  0  0  0  0  0  0
  -36.0130  -23.4424   67.2136 H   0  0  0  0  0  0  0  0  0  0  0  0
  -37.5973  -25.8196   66.7632 H   0  0  0  0  0  0  0  0  0  0  0  0
  -34.8825  -25.5299   68.0142 H   0  0  0  0  0  0  0  0  0  0  0  0
  -35.4933  -28.0479   67.5408 H   0  0  0  0  0  0  0  0  0  0  0  0
  -35.5039  -27.4857   69.5797 H   0  0  0  0  0  0  0  0  0  0  0  0
  -35.8187  -25.8941   71.2848 H   0  0  0  0  0  0  0  0  0  0  0  0
  -37.7545  -27.1182   70.6835 H   0  0  0  0  0  0  0  0  0  0  0  0
  -37.1215  -28.8860   68.8736 H   0  0  0  0  0  0  0  0  0  0  0  0
  -38.1492  -27.8782   67.7783 H   0  0  0  0  0  0  0  0  0  0  0  0
  -39.1014  -28.7665   70.3393 H   0  0  0  0  0  0  0  0  0  0  0  0
  -37.1627  -24.0810   69.2103 H   0  0  0  0  0  0  0  0  0  0  0  0
  -40.2095  -25.0700   66.9644 H   0  0  0  0  0  0  0  0  0  0  0  0
  -41.6457  -23.0508   65.2124 H   0  0  0  0  0  0  0  0  0  0  0  0
  -42.0829  -21.6601   66.2659 H   0  0  0  0  0  0  0  0  0  0  0  0
  -42.6377  -23.9435   68.8582 H   0  0  0  0  0  0  0  0  0  0  0  0
  -42.4212  -22.2194   68.4242 H   0  0  0  0  0  0  0  0  0  0  0  0
  -44.6501  -21.7612   66.6414 H   0  0  0  0  0  0  0  0  0  0  0  0
  -45.7911  -21.2386   67.9201 H   0  0  0  0  0  0  0  0  0  0  0  0
  -46.8856  -23.2257   64.9368 H   0  0  0  0  0  0  0  0  0  0  0  0
  -46.2204  -21.6064   65.3708 H   0  0  0  0  0  0  0  0  0  0  0  0
  -48.0970  -19.8564   65.2778 H   0  0  0  0  0  0  0  0  0  0  0  0
  -50.3953  -18.9125   65.0537 H   0  0  0  0  0  0  0  0  0  0  0  0
  -51.2525  -16.9766   66.0783 H   0  0  0  0  0  0  0  0  0  0  0  0
  -51.5707  -15.6469   68.0915 H   0  0  0  0  0  0  0  0  0  0  0  0
  -51.6098  -17.1008   69.1334 H   0  0  0  0  0  0  0  0  0  0  0  0
  -49.5108  -16.5655   69.3525 H   0  0  0  0  0  0  0  0  0  0  0  0
  -53.5383  -17.0024   66.8104 H   0  0  0  0  0  0  0  0  0  0  0  0
  -52.9495  -17.9148   69.0142 H   0  0  0  0  0  0  0  0  0  0  0  0
  -52.6654  -18.2549   65.3311 H   0  0  0  0  0  0  0  0  0  0  0  0
  -54.9740  -19.3081   66.5556 H   0  0  0  0  0  0  0  0  0  0  0  0
  -52.1827  -20.4298   66.4528 H   0  0  0  0  0  0  0  0  0  0  0  0
  -52.6884  -21.5280   65.2489 H   0  0  0  0  0  0  0  0  0  0  0  0
  -44.8967  -22.5035   70.5898 H   0  0  0  0  0  0  0  0  0  0  0  0
  -46.2480  -23.2743   69.7122 H   0  0  0  0  0  0  0  0  0  0  0  0
  -44.6457  -24.5934   71.2062 H   0  0  0  0  0  0  0  0  0  0  0  0
  -44.4744  -20.7081   68.5384 H   0  0  0  0  0  0  0  0  0  0  0  0
  -43.2871  -19.2302   68.3720 H   0  0  0  0  0  0  0  0  0  0  0  0
  -42.8684  -20.3403   72.5262 H   0  0  0  0  0  0  0  0  0  0  0  0
  -43.1224  -17.0940   73.6995 H   0  0  0  0  0  0  0  0  0  0  0  0
  -42.5786  -18.7790   74.0434 H   0  0  0  0  0  0  0  0  0  0  0  0
  -40.8781  -17.3578   74.5571 H   0  0  0  0  0  0  0  0  0  0  0  0
  -42.4742  -16.2150   71.3531 H   0  0  0  0  0  0  0  0  0  0  0  0
  -42.2638  -17.9542   67.3678 H   0  0  0  0  0  0  0  0  0  0  0  0
  -40.4103  -15.4336   66.8415 H   0  0  0  0  0  0  0  0  0  0  0  0
  -41.2310  -14.3905   65.6236 H   0  0  0  0  0  0  0  0  0  0  0  0
  -41.5662  -14.4515   68.4775 H   0  0  0  0  0  0  0  0  0  0  0  0
  -41.4532  -15.0004   64.2796 H   0  0  0  0  0  0  0  0  0  0  0  0
  -42.3870  -16.0700   63.1923 H   0  0  0  0  0  0  0  0  0  0  0  0
  -38.8782  -15.0916   63.6530 H   0  0  0  0  0  0  0  0  0  0  0  0
  -36.5120  -15.9957   63.0861 H   0  0  0  0  0  0  0  0  0  0  0  0
  -34.6942  -16.2155   61.5325 H   0  0  0  0  0  0  0  0  0  0  0  0
  -35.5247  -18.0115   59.1701 H   0  0  0  0  0  0  0  0  0  0  0  0
  -33.9348  -17.1892   59.3286 H   0  0  0  0  0  0  0  0  0  0  0  0
  -35.8505  -15.3325   59.7488 H   0  0  0  0  0  0  0  0  0  0  0  0
  -33.4398  -18.3062   61.5971 H   0  0  0  0  0  0  0  0  0  0  0  0
  -35.4336  -20.1375   61.7155 H   0  0  0  0  0  0  0  0  0  0  0  0
  -34.4770  -17.5234   63.2687 H   0  0  0  0  0  0  0  0  0  0  0  0
  -34.3729  -19.1851   64.7571 H   0  0  0  0  0  0  0  0  0  0  0  0
  -36.6587  -18.7462   63.1146 H   0  0  0  0  0  0  0  0  0  0  0  0
  -35.7464  -17.6962   65.4195 H   0  0  0  0  0  0  0  0  0  0  0  0
  -43.9193  -14.4998   66.8764 H   0  0  0  0  0  0  0  0  0  0  0  0
  -44.0015  -15.0241   65.1907 H   0  0  0  0  0  0  0  0  0  0  0  0
  -46.2339  -14.9636   66.3370 H   0  0  0  0  0  0  0  0  0  0  0  0
  -46.7909  -16.5451   66.9663 H   0  0  0  0  0  0  0  0  0  0  0  0
  -46.2418  -14.6445   63.7413 H   0  0  0  0  0  0  0  0  0  0  0  0
  -46.7708  -16.9342   60.6891 H   0  0  0  0  0  0  0  0  0  0  0  0
  -48.4737  -15.7426   59.3900 H   0  0  0  0  0  0  0  0  0  0  0  0
  -49.8057  -13.3180   59.6934 H   0  0  0  0  0  0  0  0  0  0  0  0
  -50.0281  -14.0693   61.3136 H   0  0  0  0  0  0  0  0  0  0  0  0
  -51.3208  -15.5497   60.4602 H   0  0  0  0  0  0  0  0  0  0  0  0
  -47.3633  -13.0866   60.4067 H   0  0  0  0  0  0  0  0  0  0  0  0
  -48.2741  -12.5694   58.5070 H   0  0  0  0  0  0  0  0  0  0  0  0
  -46.0115  -15.3858   58.8943 H   0  0  0  0  0  0  0  0  0  0  0  0
  -44.6388  -13.2227   60.1177 H   0  0  0  0  0  0  0  0  0  0  0  0
  -45.6874  -14.3110   61.7505 H   0  0  0  0  0  0  0  0  0  0  0  0
  -44.1668  -15.9560   61.9635 H   0  0  0  0  0  0  0  0  0  0  0  0
 91 90  1  0
 70 69  1  0
 93 92  1  0
 69 68  1  0
 92 90  1  0
 92 94  1  0
 90 87  1  0
 89 88  1  0
 87 88  1  0
 87 86  1  0
 94 95  1  0
 94 85  1  0
 72 71  1  0
 68 67  1  0
 68 71  1  0
 67 66  1  0
 85 86  1  0
 85 84  1  0
 71 73  1  0
 66 65  1  0
 66 75  1  0
 84 83  1  0
 84 81  1  0
 64 65  1  0
 64 63  2  0
 73 75  1  0
 73 74  1  0
 65 62  1  0
 63 61  1  0
 83 82  2  0
 62 61  2  0
 75 76  1  0
 61 60  1  0
 81 80  2  0
 60 59  1  0
 82 80  1  0
 39 38  1  0
 80 79  1  0
 59 56  1  0
 38 29  1  0
 38 36  1  0
 25 24  2  0
 25 28  1  0
 23 24  1  0
 23 22  1  0
 37 36  1  0
 29 28  1  0
 29 30  1  0
 24 26  1  0
 28 27  1  0
 36 34  1  0
 77 56  1  0
 77 78  1  0
 17 18  1  0
 17 16  1  0
 79 78  1  0
 56 57  1  0
 56 55  1  0
 26 27  2  0
 57 58  1  0
  1  2  1  0
 18 19  1  0
 22 21  1  0
 31 34  1  0
 31 30  1  0
 31 32  1  0
 34 35  1  0
  4  3  1  0
 16 13  2  0
 16 15  1  0
 13 12  1  0
  2  3  1  0
  2 11  1  0
 21 20  1  0
 55 53  1  0
 15 14  2  0
  3  5  1  0
 12 14  1  0
 12 11  1  0
 19 20  1  0
 32 33  1  0
 20 42  1  0
 20 40  1  0
 11 10  1  0
 53 54  2  0
 53 52  1  0
  8  9  1  0
  8  7  1  0
 42 43  1  0
 10  7  1  0
  5  7  1  0
  5  6  1  0
 46 52  2  0
 46 45  1  0
 52 51  1  0
 40 41  1  0
 43 45  1  0
 43 44  2  0
 45 47  2  0
 51 48  2  0
 47 48  1  0
 48 49  1  0
 49 50  1  0
  1 96  1  0
  2 97  1  0
  3 98  1  0
  4 99  1  0
  5100  1  0
  6101  1  0
  7102  1  0
  8103  1  0
  8104  1  0
  9105  1  0
 11106  1  0
 13107  1  0
 17108  1  0
 17109  1  0
 19110  1  0
 19111  1  0
 21112  1  0
 21113  1  0
 23114  1  0
 23115  1  0
 25116  1  0
 29117  1  0
 31118  1  0
 32119  1  0
 32120  1  0
 33121  1  0
 34122  1  0
 35123  1  0
 36124  1  0
 37125  1  0
 38126  1  0
 39127  1  0
 40128  1  0
 40129  1  0
 41130  1  0
 42131  1  0
 46132  1  0
 47133  1  0
 49134  1  0
 49135  1  0
 50136  1  0
 51137  1  0
 55138  1  0
 57139  1  0
 57140  1  0
 58141  1  0
 60142  1  0
 60143  1  0
 62144  1  0
 66145  1  0
 68146  1  0
 69147  1  0
 69148  1  0
 70149  1  0
 71150  1  0
 72151  1  0
 73152  1  0
 74153  1  0
 75154  1  0
 76155  1  0
 77156  1  0
 77157  1  0
 79158  1  0
 79159  1  0
 81160  1  0
 85161  1  0
 87162  1  0
 88163  1  0
 88164  1  0
 89165  1  0
 90166  1  0
 91167  1  0
 92168  1  0
 93169  1  0
 94170  1  0
 95171  1  0
A    1
OAU
A    2
CAC
A    3
CAE
A    4
OAA
A    5
CBZ
A    6
OAD
A    7
CDT
A    8
CAS
A    9
OED
A   10
OAB
A   11
CAW
A   12
NAQ
A   13
CAT
A   14
NEF
A   15
NEE
A   16
CBO
A   17
CEV
A   18
OEU
A   19
CCK
A   20
CCR
A   21
CCS
A   22
OCT
A   23
CCU
A   24
CCW
A   25
CCV
A   26
NCX
A   27
NDJ
A   28
NDK
A   29
CEQ
A   30
OEP
A   31
CEO
A   32
CEB
A   33
ODZ
A   34
CEN
A   35
OEA
A   36
CEC
A   37
ODM
A   38
CEY
A   39
ODL
A   40
CDU
A   41
OAV
A   42
NEM
A   43
CEL
A   44
OEK
A   45
CCH
A   46
CEJ
A   47
CCG
A   48
CCI
A   49
CAY
A   50
OCY
A   51
CCJ
A   52
CEG
A   53
CBH
A   54
OBG
A   55
NEI
A   56
CBQ
A   57
CDF
A   58
ODG
A   59
OAL
A   60
CAN
A   61
CDA
A   62
CCZ
A   63
NAG
A   64
NBS
A   65
NAJ
A   66
C1
A   67
O5
A   68
C5
A   69
C6
A   70
O6
A   71
C4
A   72
O4
A   73
C3
A   74
O3
A   75
C2
A   76
O2
A   77
CBA
A   78
OBL
A   79
CAX
A   80
CDN
A   81
CBJ
A   82
NAZ
A   83
NBB
A   84
NBM
A   85
CBX
A   86
OBW
A   87
CBU
A   88
CAH
A   89
OAI
A   90
CBC
A   91
OBK
A   92
CDE
A   93
ODD
A   94
CDC
A   95
OBT
M  END
