4UWB_JVT_A_1769
     RDKit          3D

 46 49  0  0  0  0  0  0  0  0999 V2000
   86.3720    2.3330    8.8490 O   0  0  0  0  0  0  0  0  0  0  0  0
   86.6290    1.1290    8.7940 C   0  0  0  0  0  0  0  0  0  0  0  0
   87.4840    0.5180    9.8670 C   0  0  0  0  0  0  0  0  0  0  0  0
   88.1310   -0.6530    9.7230 N   0  0  0  0  0  0  0  0  0  0  0  0
   88.8050   -0.8610   10.8910 N   0  0  0  0  0  0  0  0  0  0  0  0
   88.6120    0.1520   11.7740 C   0  0  0  0  0  0  0  0  0  0  0  0
   89.0800    0.3610   13.0650 C   0  0  0  0  0  0  0  0  0  0  0  0
   88.6890    1.5180   13.7340 C   0  0  0  0  0  0  0  0  0  0  0  0
   87.8330    2.4300   13.1330 C   0  0  0  0  0  0  0  0  0  0  0  0
   87.3670    2.2190   11.8430 C   0  0  0  0  0  0  0  0  0  0  0  0
   87.7470    1.0650   11.1480 C   0  0  0  0  0  0  0  0  0  0  0  0
   86.2130    0.2890    7.8260 N   0  0  0  0  0  0  0  0  0  0  0  0
   85.3120    0.5400    6.7660 C   0  0  0  0  0  0  0  0  0  0  0  0
   85.2970   -0.3260    5.6770 C   0  0  0  0  0  0  0  0  0  0  0  0
   84.4180   -0.1150    4.6300 C   0  0  0  0  0  0  0  0  0  0  0  0
   84.4320    1.6220    6.7910 C   0  0  0  0  0  0  0  0  0  0  0  0
   83.5550    1.8390    5.7410 C   0  0  0  0  0  0  0  0  0  0  0  0
   83.5300    0.9720    4.6480 C   0  0  0  0  0  0  0  0  0  0  0  0
   82.6350    1.1750    3.5970 N   0  0  0  0  0  0  0  0  0  0  0  0
   81.5920    2.1970    3.7140 C   0  0  0  0  0  0  0  0  0  0  0  0
   81.0390    2.5500    2.3390 C   0  0  0  0  0  0  0  0  0  0  0  0
   82.1470   -0.0110    2.8890 C   0  0  0  0  0  0  0  0  0  0  0  0
   81.6060    0.3770    1.5280 C   0  0  0  0  0  0  0  0  0  0  0  0
   80.5330    1.3580    1.6570 N   0  0  0  0  0  0  0  0  0  0  0  0
   79.9740    1.7040    0.3280 C   0  0  0  0  0  0  0  0  0  0  0  0
   89.3900   -1.6874   11.0801 H   0  0  0  0  0  0  0  0  0  0  0  0
   89.7443   -0.3708   13.5479 H   0  0  0  0  0  0  0  0  0  0  0  0
   89.0629    1.7112   14.7503 H   0  0  0  0  0  0  0  0  0  0  0  0
   87.5208    3.3290   13.6846 H   0  0  0  0  0  0  0  0  0  0  0  0
   86.7018    2.9555   11.3687 H   0  0  0  0  0  0  0  0  0  0  0  0
   86.6037   -0.6633    7.8634 H   0  0  0  0  0  0  0  0  0  0  0  0
   85.9871   -1.1821    5.6486 H   0  0  0  0  0  0  0  0  0  0  0  0
   84.4148   -0.8062    3.7743 H   0  0  0  0  0  0  0  0  0  0  0  0
   84.4345    2.3080    7.6509 H   0  0  0  0  0  0  0  0  0  0  0  0
   82.8729    2.7016    5.7690 H   0  0  0  0  0  0  0  0  0  0  0  0
   80.7770    1.8128    4.3449 H   0  0  0  0  0  0  0  0  0  0  0  0
   82.0263    3.1004    4.1670 H   0  0  0  0  0  0  0  0  0  0  0  0
   80.2186    3.2734    2.4558 H   0  0  0  0  0  0  0  0  0  0  0  0
   81.8501    2.9825    1.7348 H   0  0  0  0  0  0  0  0  0  0  0  0
   82.9749   -0.7239    2.7610 H   0  0  0  0  0  0  0  0  0  0  0  0
   81.3405   -0.4732    3.4771 H   0  0  0  0  0  0  0  0  0  0  0  0
   82.4193    0.8091    0.9265 H   0  0  0  0  0  0  0  0  0  0  0  0
   81.2042   -0.5226    1.0388 H   0  0  0  0  0  0  0  0  0  0  0  0
   79.0453    2.2788    0.4592 H   0  0  0  0  0  0  0  0  0  0  0  0
   80.7037    2.3086   -0.2306 H   0  0  0  0  0  0  0  0  0  0  0  0
   79.7583    0.7813   -0.2306 H   0  0  0  0  0  0  0  0  0  0  0  0
  1  2  2  0
  2  3  1  0
  2 12  1  0
  3  4  2  0
  3 11  1  0
  4  5  1  0
  5  6  1  0
  6  7  1  0
  6 11  2  0
  7  8  2  0
  8  9  1  0
  9 10  2  0
 10 11  1  0
 12 13  1  0
 13 14  2  0
 13 16  1  0
 14 15  1  0
 15 18  2  0
 16 17  2  0
 17 18  1  0
 18 19  1  0
 19 20  1  0
 19 22  1  0
 20 21  1  0
 21 24  1  0
 22 23  1  0
 23 24  1  0
 24 25  1  0
  5 26  1  0
  7 27  1  0
  8 28  1  0
  9 29  1  0
 10 30  1  0
 12 31  1  0
 14 32  1  0
 15 33  1  0
 16 34  1  0
 17 35  1  0
 20 36  1  0
 20 37  1  0
 21 38  1  0
 21 39  1  0
 22 40  1  0
 22 41  1  0
 23 42  1  0
 23 43  1  0
 25 44  1  0
 25 45  1  0
 25 46  1  0
A    1
O
A    2
C11
A    3
C12
A    4
N4
A    5
N3
A    6
C18
A    7
C17
A    8
C16
A    9
C15
A   10
C14
A   11
C13
A   12
N2
A   13
C8
A   14
C7
A   15
C6
A   16
C9
A   17
C10
A   18
C5
A   19
N1
A   20
C2
A   21
C1
A   22
C3
A   23
C4
A   24
N
A   25
C
M  END
