4UWC_4Y0_A_1773
     RDKit          3D

 41 43  0  0  0  0  0  0  0  0999 V2000
   88.1900   -0.5950   10.6750 N   0  0  0  0  0  0  0  0  0  0  0  0
   86.9120    1.0980   10.1900 C   0  0  0  0  0  0  0  0  0  0  0  0
   86.8720    0.1350    9.1820 C   0  0  0  0  0  0  0  0  0  0  0  0
   87.7880    0.6080   11.1310 C   0  0  0  0  0  0  0  0  0  0  0  0
   87.6460   -0.9120    9.4550 N   0  0  0  0  0  0  0  0  0  0  0  0
   86.1360    0.1240    7.9900 N   0  0  0  0  0  0  0  0  0  0  0  0
   85.3150    1.1380    7.5270 C   0  0  0  0  0  0  0  0  0  0  0  0
   84.4940    0.8570    6.3000 C   0  0  0  0  0  0  0  0  0  0  0  0
   83.3530    1.6330    6.0860 C   0  0  0  0  0  0  0  0  0  0  0  0
   82.5640    1.4300    4.9560 C   0  0  0  0  0  0  0  0  0  0  0  0
   82.9180    0.4330    4.0270 C   0  0  0  0  0  0  0  0  0  0  0  0
   88.1900    1.1590   12.4380 C   0  0  0  0  0  0  0  0  0  0  0  0
   84.8400   -0.1100    5.3600 C   0  0  0  0  0  0  0  0  0  0  0  0
   84.0630   -0.3230    4.2370 C   0  0  0  0  0  0  0  0  0  0  0  0
   81.4300    2.1350    4.6480 O   0  0  0  0  0  0  0  0  0  0  0  0
   82.0720    0.3060    2.9560 O   0  0  0  0  0  0  0  0  0  0  0  0
   88.1720    0.3520   13.5730 C   0  0  0  0  0  0  0  0  0  0  0  0
   88.3440    2.5320   12.6020 C   0  0  0  0  0  0  0  0  0  0  0  0
   81.1530    3.3260    5.3890 C   0  0  0  0  0  0  0  0  0  0  0  0
   88.6230    3.0620   13.8530 C   0  0  0  0  0  0  0  0  0  0  0  0
   88.3910    0.8980   14.8270 C   0  0  0  0  0  0  0  0  0  0  0  0
   85.2570    2.2290    8.0870 O   0  0  0  0  0  0  0  0  0  0  0  0
   82.4160   -0.6230    1.9260 C   0  0  0  0  0  0  0  0  0  0  0  0
   88.6360    2.2460   14.9670 C   0  0  0  0  0  0  0  0  0  0  0  0
   88.8369   -1.2112   11.1876 H   0  0  0  0  0  0  0  0  0  0  0  0
   86.3597    2.0487   10.2253 H   0  0  0  0  0  0  0  0  0  0  0  0
   86.2130   -0.7184    7.4024 H   0  0  0  0  0  0  0  0  0  0  0  0
   83.0755    2.4094    6.8142 H   0  0  0  0  0  0  0  0  0  0  0  0
   85.7463   -0.7142    5.5136 H   0  0  0  0  0  0  0  0  0  0  0  0
   84.3528   -1.0938    3.5076 H   0  0  0  0  0  0  0  0  0  0  0  0
   87.9825   -0.7269   13.4728 H   0  0  0  0  0  0  0  0  0  0  0  0
   88.2439    3.2010   11.7346 H   0  0  0  0  0  0  0  0  0  0  0  0
   81.2037    3.1079    6.4660 H   0  0  0  0  0  0  0  0  0  0  0  0
   81.8959    4.0966    5.1356 H   0  0  0  0  0  0  0  0  0  0  0  0
   80.1463    3.6897    5.1356 H   0  0  0  0  0  0  0  0  0  0  0  0
   88.8347    4.1363   13.9582 H   0  0  0  0  0  0  0  0  0  0  0  0
   88.3691    0.2511   15.7164 H   0  0  0  0  0  0  0  0  0  0  0  0
   82.7638   -1.5623    2.3806 H   0  0  0  0  0  0  0  0  0  0  0  0
   81.5322   -0.8228    1.3023 H   0  0  0  0  0  0  0  0  0  0  0  0
   83.2167   -0.1990    1.3023 H   0  0  0  0  0  0  0  0  0  0  0  0
   88.8410    2.6704   15.9609 H   0  0  0  0  0  0  0  0  0  0  0  0
  1  4  1  0
  1  5  1  0
  2  3  1  0
  2  4  2  0
  3  5  2  0
  3  6  1  0
  4 12  1  0
  6  7  1  0
  7  8  1  0
  7 22  2  0
  8  9  2  0
  8 13  1  0
  9 10  1  0
 10 11  2  0
 10 15  1  0
 11 14  1  0
 11 16  1  0
 12 17  2  0
 12 18  1  0
 13 14  2  0
 15 19  1  0
 16 23  1  0
 17 21  1  0
 18 20  2  0
 20 24  1  0
 21 24  2  0
  1 25  1  0
  2 26  1  0
  6 27  1  0
  9 28  1  0
 13 29  1  0
 14 30  1  0
 17 31  1  0
 18 32  1  0
 19 33  1  0
 19 34  1  0
 19 35  1  0
 20 36  1  0
 21 37  1  0
 23 38  1  0
 23 39  1  0
 23 40  1  0
 24 41  1  0
A    1
N1
A    2
C2
A    3
C3
A    4
C4
A    5
N5
A    6
N6
A    7
C7
A    8
C9
A    9
C10
A   10
C11
A   11
C12
A   12
C13
A   13
C15
A   14
C16
A   15
O17
A   16
O18
A   17
C19
A   18
C20
A   19
C21
A   20
C22
A   21
C23
A   22
O2
A   23
C
A   24
C24
M  END
