4UWH_JXM_A_1876
     RDKit          3D

 53 56  0  0  0  0  0  0  0  0999 V2000
   23.0710  -10.1100  -20.9490 C   0  0  0  0  0  0  0  0  0  0  0  0
   21.8600  -10.6990  -20.5360 C   0  0  0  0  0  0  0  0  0  0  0  0
   24.0210  -10.8650  -21.6800 C   0  0  0  0  0  0  0  0  0  0  0  0
   21.6020  -12.0540  -20.8670 C   0  0  0  0  0  0  0  0  0  0  0  0
   23.7710  -12.2230  -22.0130 C   0  0  0  0  0  0  0  0  0  0  0  0
   22.5540  -12.8340  -21.6100 C   0  0  0  0  0  0  0  0  0  0  0  0
   16.7210  -15.9400  -22.6570 C   0  0  0  0  0  0  0  0  0  0  0  0
   17.4220  -14.7640  -22.5230 C   0  0  0  0  0  0  0  0  0  0  0  0
   17.4300  -17.1920  -23.0780 C   0  0  0  0  0  0  0  0  0  0  0  0
   19.4710  -15.8110  -23.1590 C   0  0  0  0  0  0  0  0  0  0  0  0
   21.0510  -18.1650  -23.3250 C   0  0  0  0  0  0  0  0  0  0  0  0
   19.5760  -18.2670  -23.7080 C   0  0  0  0  0  0  0  0  0  0  0  0
   17.6980  -12.3000  -22.0370 C   0  0  0  0  0  0  0  0  0  0  0  0
   15.3840  -13.2410  -22.3810 C   0  0  0  0  0  0  0  0  0  0  0  0
   17.0860  -11.2850  -21.0890 C   0  0  0  0  0  0  0  0  0  0  0  0
   14.8830  -12.1010  -21.4930 C   0  0  0  0  0  0  0  0  0  0  0  0
   21.6610  -16.8540  -23.8650 C   0  0  0  0  0  0  0  0  0  0  0  0
   21.5590  -14.4070  -23.3010 C   0  0  0  0  0  0  0  0  0  0  0  0
   22.3010  -14.2870  -21.9670 C   0  0  0  0  0  0  0  0  0  0  0  0
   21.7480  -16.8460  -25.3860 C   0  0  0  0  0  0  0  0  0  0  0  0
   18.7870  -14.7590  -22.7710 N   0  0  0  0  0  0  0  0  0  0  0  0
   16.8230  -13.5260  -22.1430 N   0  0  0  0  0  0  0  0  0  0  0  0
   18.8170  -17.0610  -23.3040 N   0  0  0  0  0  0  0  0  0  0  0  0
   20.8520  -15.6990  -23.4310 N   0  0  0  0  0  0  0  0  0  0  0  0
   16.8010  -18.2320  -23.1940 O   0  0  0  0  0  0  0  0  0  0  0  0
   15.7800  -10.9860  -21.5740 O   0  0  0  0  0  0  0  0  0  0  0  0
   21.5730  -14.9000  -20.9150 O   0  0  0  0  0  0  0  0  0  0  0  0
   22.3840  -17.9520  -25.8030 F   0  0  0  0  0  0  0  0  0  0  0  0
   20.5420  -16.8330  -26.0050 F   0  0  0  0  0  0  0  0  0  0  0  0
   22.4570  -15.7690  -25.8180 F   0  0  0  0  0  0  0  0  0  0  0  0
   23.2801   -9.0585  -20.7027 H   0  0  0  0  0  0  0  0  0  0  0  0
   21.1236  -10.1155  -19.9640 H   0  0  0  0  0  0  0  0  0  0  0  0
   24.9641  -10.3937  -21.9937 H   0  0  0  0  0  0  0  0  0  0  0  0
   20.6559  -12.5165  -20.5493 H   0  0  0  0  0  0  0  0  0  0  0  0
   24.5168  -12.7989  -22.5806 H   0  0  0  0  0  0  0  0  0  0  0  0
   15.6399  -15.9617  -22.4552 H   0  0  0  0  0  0  0  0  0  0  0  0
   21.1423  -18.1821  -22.2289 H   0  0  0  0  0  0  0  0  0  0  0  0
   21.5920  -19.0161  -23.7642 H   0  0  0  0  0  0  0  0  0  0  0  0
   19.4991  -18.3871  -24.7987 H   0  0  0  0  0  0  0  0  0  0  0  0
   19.1460  -19.1328  -23.1830 H   0  0  0  0  0  0  0  0  0  0  0  0
   17.8049  -11.8454  -23.0329 H   0  0  0  0  0  0  0  0  0  0  0  0
   18.6818  -12.6001  -21.6471 H   0  0  0  0  0  0  0  0  0  0  0  0
   14.7995  -14.1470  -22.1629 H   0  0  0  0  0  0  0  0  0  0  0  0
   15.2616  -12.9389  -23.4316 H   0  0  0  0  0  0  0  0  0  0  0  0
   17.0236  -11.7068  -20.0750 H   0  0  0  0  0  0  0  0  0  0  0  0
   17.7020  -10.3748  -21.0423 H   0  0  0  0  0  0  0  0  0  0  0  0
   13.8832  -11.7894  -21.8297 H   0  0  0  0  0  0  0  0  0  0  0  0
   14.8338  -12.4499  -20.4510 H   0  0  0  0  0  0  0  0  0  0  0  0
   22.6803  -16.7835  -23.4575 H   0  0  0  0  0  0  0  0  0  0  0  0
   20.8239  -13.5919  -23.3723 H   0  0  0  0  0  0  0  0  0  0  0  0
   22.3032  -14.3458  -24.1087 H   0  0  0  0  0  0  0  0  0  0  0  0
   23.2637  -14.8049  -22.0893 H   0  0  0  0  0  0  0  0  0  0  0  0
   21.9331  -14.5968  -20.0441 H   0  0  0  0  0  0  0  0  0  0  0  0
  1  2  2  0
  1  3  1  0
  2  4  1  0
  3  5  2  0
  4  6  2  0
  5  6  1  0
  6 19  1  0
  7  8  2  0
  7  9  1  0
  8 21  1  0
  8 22  1  0
  9 23  1  0
  9 25  2  0
 10 21  2  0
 10 23  1  0
 10 24  1  0
 11 12  1  0
 11 17  1  0
 12 23  1  0
 13 15  1  0
 13 22  1  0
 14 16  1  0
 14 22  1  0
 15 26  1  0
 16 26  1  0
 17 20  1  0
 17 24  1  0
 18 19  1  0
 18 24  1  0
 19 27  1  0
 20 28  1  0
 20 29  1  0
 20 30  1  0
  1 31  1  0
  2 32  1  0
  3 33  1  0
  4 34  1  0
  5 35  1  0
  7 36  1  0
 11 37  1  0
 11 38  1  0
 12 39  1  0
 12 40  1  0
 13 41  1  0
 13 42  1  0
 14 43  1  0
 14 44  1  0
 15 45  1  0
 15 46  1  0
 16 47  1  0
 16 48  1  0
 17 49  1  0
 18 50  1  0
 18 51  1  0
 19 52  1  0
 27 53  1  0
A    1
C1
A    2
C2
A    3
C3
A    4
C4
A    5
C5
A    6
C6
A    7
C7
A    8
C8
A    9
C9
A   10
C10
A   11
C11
A   12
C12
A   13
C13
A   14
C14
A   15
C15
A   16
C16
A   17
C17
A   18
C18
A   19
C19
A   20
C20
A   21
N21
A   22
N22
A   23
N23
A   24
N24
A   25
O25
A   26
O26
A   27
O27
A   28
F28
A   29
F29
A   30
F30
M  END
