4UX4_E9L_A_2162
     RDKit          3D

 34 36  0  0  0  0  0  0  0  0999 V2000
  -39.0360  -10.4270    6.3270 C   0  0  0  0  0  0  0  0  0  0  0  0
  -39.0120  -10.7140    7.8100 C   0  0  0  0  0  0  0  0  0  0  0  0
  -38.5370   -9.7740    8.7610 C   0  0  0  0  0  0  0  0  0  0  0  0
  -38.5170  -10.0920   10.1150 C   0  0  0  0  0  0  0  0  0  0  0  0
  -38.9600  -11.3390   10.5560 C   0  0  0  0  0  0  0  0  0  0  0  0
  -39.4740  -12.2910    9.5790 C   0  0  0  0  0  0  0  0  0  0  0  0
  -39.4730  -11.9770    8.2660 C   0  0  0  0  0  0  0  0  0  0  0  0
  -39.0060  -11.6470   12.0600 C   0  0  0  0  0  0  0  0  0  0  0  0
  -39.9150  -12.6740   12.5750 C   0  0  0  0  0  0  0  0  0  0  0  0
  -39.9870  -12.9360   14.0640 C   0  0  0  0  0  0  0  0  0  0  0  0
  -39.2090  -12.1600   14.9410 C   0  0  0  0  0  0  0  0  0  0  0  0
  -39.2760  -12.3670   16.3510 C   0  0  0  0  0  0  0  0  0  0  0  0
  -40.1560  -13.3370   16.7960 C   0  0  0  0  0  0  0  0  0  0  0  0
  -40.9080  -14.1050   15.9010 C   0  0  0  0  0  0  0  0  0  0  0  0
  -40.8020  -13.8850   14.5320 N   0  0  0  0  0  0  0  0  0  0  0  0
  -41.6680  -14.7060   13.6470 C   0  0  0  0  0  0  0  0  0  0  0  0
  -38.2700  -11.1140   14.3880 C   0  0  0  0  0  0  0  0  0  0  0  0
  -37.5230  -10.4440   15.1070 O   0  0  0  0  0  0  0  0  0  0  0  0
  -38.2520  -10.8740   12.9500 N   0  0  0  0  0  0  0  0  0  0  0  0
  -39.1267   -9.3428    6.1648 H   0  0  0  0  0  0  0  0  0  0  0  0
  -38.1044  -10.7898    5.8682 H   0  0  0  0  0  0  0  0  0  0  0  0
  -39.8944  -10.9395    5.8682 H   0  0  0  0  0  0  0  0  0  0  0  0
  -38.1826   -8.7882    8.4255 H   0  0  0  0  0  0  0  0  0  0  0  0
  -38.1490   -9.3545   10.8435 H   0  0  0  0  0  0  0  0  0  0  0  0
  -39.8625  -13.2649    9.9115 H   0  0  0  0  0  0  0  0  0  0  0  0
  -39.8365  -12.7143    7.5351 H   0  0  0  0  0  0  0  0  0  0  0  0
  -40.5431  -13.2528   11.8819 H   0  0  0  0  0  0  0  0  0  0  0  0
  -38.6583  -11.7839   17.0499 H   0  0  0  0  0  0  0  0  0  0  0  0
  -40.2668  -13.5081   17.8770 H   0  0  0  0  0  0  0  0  0  0  0  0
  -41.5847  -14.8846   16.2808 H   0  0  0  0  0  0  0  0  0  0  0  0
  -40.0340  -14.5695   14.4815 H   0  0  0  0  0  0  0  0  0  0  0  0
  -42.3301  -15.3337   14.2616 H   0  0  0  0  0  0  0  0  0  0  0  0
  -42.2755  -14.0443   13.0121 H   0  0  0  0  0  0  0  0  0  0  0  0
  -41.0396  -15.3479   13.0121 H   0  0  0  0  0  0  0  0  0  0  0  0
  1  2  1  0
  2  3  2  0
  2  7  1  0
  3  4  1  0
  4  5  2  0
  5  6  1  0
  5  8  1  0
  6  7  2  0
  8  9  1  0
  8 19  2  0
  9 10  2  0
 10 11  1  0
 10 15  1  0
 11 12  2  0
 11 17  1  0
 12 13  1  0
 13 14  2  0
 14 15  1  0
 15 16  1  0
 17 18  2  0
 17 19  1  0
  1 20  1  0
  1 21  1  0
  1 22  1  0
  3 23  1  0
  4 24  1  0
  6 25  1  0
  7 26  1  0
  9 27  1  0
 12 28  1  0
 13 29  1  0
 14 30  1  0
 15 31  1  0
 16 32  1  0
 16 33  1  0
 16 34  1  0
M  CHG  1  15   1
A    1
C01
A    2
C02
A    3
C03
A    4
C04
A    5
C05
A    6
C06
A    7
C07
A    8
C08
A    9
C09
A   10
C10
A   11
C11
A   12
C12
A   13
C13
A   14
C14
A   15
N15
A   16
C16
A   17
C17
A   18
O18
A   19
N19
M  END
