4UX6_YWO_B_1499
     RDKit          3D

 40 41  0  0  0  0  0  0  0  0999 V2000
   19.1080   69.8170   21.1080 C   0  0  0  0  0  0  0  0  0  0  0  0
   20.1800   67.7170   22.0680 N   0  0  0  0  0  0  0  0  0  0  0  0
   21.0980   69.3640   24.1530 O   0  0  0  0  0  0  0  0  0  0  0  0
   19.8730   69.2130   22.1150 C   0  0  0  0  0  0  0  0  0  0  0  0
   22.2090   70.7240   30.3550 N   0  0  0  0  0  0  0  0  0  0  0  0
   19.8200   67.1220   21.0140 O   0  0  0  0  0  0  0  0  0  0  0  0
   20.3700   70.0020   23.1960 C   0  0  0  0  0  0  0  0  0  0  0  0
   24.7000   73.4100   30.6720 N   0  0  0  0  0  0  0  0  0  0  0  0
   20.7820   67.1470   23.0450 O   0  0  0  0  0  0  0  0  0  0  0  0
   20.0930   71.4240   23.2520 C   0  0  0  0  0  0  0  0  0  0  0  0
   24.7520   71.2280   31.3150 O   0  0  0  0  0  0  0  0  0  0  0  0
   19.3390   72.0130   22.2450 C   0  0  0  0  0  0  0  0  0  0  0  0
   18.8430   71.2360   21.1840 C   0  0  0  0  0  0  0  0  0  0  0  0
   21.8010   69.9440   25.1880 C   0  0  0  0  0  0  0  0  0  0  0  0
   21.3020   69.6690   26.4300 C   0  0  0  0  0  0  0  0  0  0  0  0
   21.9860   70.1710   27.6020 C   0  0  0  0  0  0  0  0  0  0  0  0
   23.1840   70.9540   27.4280 C   0  0  0  0  0  0  0  0  0  0  0  0
   23.6870   71.2540   26.1130 C   0  0  0  0  0  0  0  0  0  0  0  0
   22.9940   70.7540   24.9750 C   0  0  0  0  0  0  0  0  0  0  0  0
   19.0570   73.4260   22.2860 C   0  0  0  0  0  0  0  0  0  0  0  0
   23.9500   71.4470   28.6600 C   0  0  0  0  0  0  0  0  0  0  0  0
   23.1030   71.8410   29.8970 C   0  0  0  0  0  0  0  0  0  0  0  0
   24.0450   72.2380   31.0190 C   0  0  0  0  0  0  0  0  0  0  0  0
   18.7149   69.2199   20.2719 H   0  0  0  0  0  0  0  0  0  0  0  0
   22.1897   70.6999   31.3845 H   0  0  0  0  0  0  0  0  0  0  0  0
   21.2556   70.8786   29.9972 H   0  0  0  0  0  0  0  0  0  0  0  0
   25.0521   74.0401   31.4068 H   0  0  0  0  0  0  0  0  0  0  0  0
   24.8344   73.6504   29.6795 H   0  0  0  0  0  0  0  0  0  0  0  0
   20.4767   72.0314   24.0850 H   0  0  0  0  0  0  0  0  0  0  0  0
   18.2425   71.7163   20.3974 H   0  0  0  0  0  0  0  0  0  0  0  0
   20.3860   69.0697   26.5381 H   0  0  0  0  0  0  0  0  0  0  0  0
   21.5983   69.9587   28.6093 H   0  0  0  0  0  0  0  0  0  0  0  0
   24.5954   71.8619   25.9894 H   0  0  0  0  0  0  0  0  0  0  0  0
   23.3505   70.9738   23.9578 H   0  0  0  0  0  0  0  0  0  0  0  0
   18.9910   73.7565   23.3331 H   0  0  0  0  0  0  0  0  0  0  0  0
   19.8632   73.9757   21.7781 H   0  0  0  0  0  0  0  0  0  0  0  0
   18.1016   73.6241   21.7781 H   0  0  0  0  0  0  0  0  0  0  0  0
   24.6365   70.6447   28.9683 H   0  0  0  0  0  0  0  0  0  0  0  0
   24.4428   72.3769   28.3400 H   0  0  0  0  0  0  0  0  0  0  0  0
   22.4505   72.6809   29.6163 H   0  0  0  0  0  0  0  0  0  0  0  0
  1  4  2  0
  1 13  1  0
  2  4  1  0
  2  6  2  0
  2  9  1  0
  3  7  1  0
  3 14  1  0
  4  7  1  0
  5 22  1  0
  7 10  2  0
  8 23  1  0
 10 12  1  0
 11 23  2  0
 12 13  2  0
 12 20  1  0
 14 15  2  0
 14 19  1  0
 15 16  1  0
 16 17  2  0
 17 18  1  0
 17 21  1  0
 18 19  2  0
 21 22  1  0
 22 23  1  0
  1 24  1  0
  5 25  1  0
  5 26  1  0
  8 27  1  0
  8 28  1  0
 10 29  1  0
 13 30  1  0
 15 31  1  0
 16 32  1  0
 18 33  1  0
 19 34  1  0
 20 35  1  0
 20 36  1  0
 20 37  1  0
 21 38  1  0
 21 39  1  0
 22 40  1  0
M  CHG  2   2   1   9  -1
A    1
C1
A    2
N1
A    3
O1
A    4
C2
A    5
N2
A    6
O2
A    7
C3
A    8
N3
A    9
O3
A   10
C4
A   11
O4
A   12
C5
A   13
C6
A   14
C7
A   15
C8
A   16
C9
A   17
C10
A   18
C11
A   19
C12
A   20
C13
A   21
C14
A   22
C15
A   23
C16
M  END
