4CLI_5P8_A_2401
     RDKit          3D

 49 52  0  0  0  0  0  0  0  0999 V2000
   26.3890   48.2230    7.4390 C   0  0  0  0  0  0  0  0  0  0  0  0
   34.4000   46.8120    8.7880 C   0  0  0  0  0  0  0  0  0  0  0  0
   34.8690   46.6270   10.1040 C   0  0  0  0  0  0  0  0  0  0  0  0
   29.9120   45.4530    8.5200 C   0  0  0  0  0  0  0  0  0  0  0  0
   33.6470   44.5010   10.2610 C   0  0  0  0  0  0  0  0  0  0  0  0
   27.8220   45.9680    9.4930 C   0  0  0  0  0  0  0  0  0  0  0  0
   27.8080   48.4060    7.3250 C   0  0  0  0  0  0  0  0  0  0  0  0
   28.8480   46.3680    8.6050 C   0  0  0  0  0  0  0  0  0  0  0  0
   28.8920   47.6360    7.8070 C   0  0  0  0  0  0  0  0  0  0  0  0
   33.5380   45.8350    8.1850 C   0  0  0  0  0  0  0  0  0  0  0  0
   33.1400   44.6400    8.9220 C   0  0  0  0  0  0  0  0  0  0  0  0
   29.9930   44.2340    9.2420 C   0  0  0  0  0  0  0  0  0  0  0  0
   34.4920   45.4820   10.8230 C   0  0  0  0  0  0  0  0  0  0  0  0
   30.0600   48.3890    7.3350 C   0  0  0  0  0  0  0  0  0  0  0  0
   28.9160   43.9330   10.0990 C   0  0  0  0  0  0  0  0  0  0  0  0
   33.0940   46.1240    6.7820 C   0  0  0  0  0  0  0  0  0  0  0  0
   31.5520   48.1510    7.4820 C   0  0  0  0  0  0  0  0  0  0  0  0
   32.2090   43.5390    8.3520 C   0  0  0  0  0  0  0  0  0  0  0  0
   32.9180   42.1720    8.2670 C   0  0  0  0  0  0  0  0  0  0  0  0
   27.6890   50.5690    5.9860 C   0  0  0  0  0  0  0  0  0  0  0  0
   31.8320   47.3710    5.0630 C   0  0  0  0  0  0  0  0  0  0  0  0
   25.2410   48.0740    7.4870 N   0  0  0  0  0  0  0  0  0  0  0  0
   27.8390   44.7890   10.2230 N   0  0  0  0  0  0  0  0  0  0  0  0
   29.7090   49.4810    6.6570 N   0  0  0  0  0  0  0  0  0  0  0  0
   28.3760   49.4780    6.6600 N   0  0  0  0  0  0  0  0  0  0  0  0
   32.1780   47.1950    6.4830 N   0  0  0  0  0  0  0  0  0  0  0  0
   28.9340   42.7370   10.8520 N   0  0  0  0  0  0  0  0  0  0  0  0
   33.5850   45.3670    5.9340 O   0  0  0  0  0  0  0  0  0  0  0  0
   31.0350   43.3250    9.1860 O   0  0  0  0  0  0  0  0  0  0  0  0
   34.9420   45.3170   12.0630 F   0  0  0  0  0  0  0  0  0  0  0  0
   34.6952   47.7074    8.2213 H   0  0  0  0  0  0  0  0  0  0  0  0
   35.5279   47.3770   10.5659 H   0  0  0  0  0  0  0  0  0  0  0  0
   30.7435   45.7004    7.8436 H   0  0  0  0  0  0  0  0  0  0  0  0
   33.3722   43.6173   10.8556 H   0  0  0  0  0  0  0  0  0  0  0  0
   26.9553   46.6348    9.6121 H   0  0  0  0  0  0  0  0  0  0  0  0
   31.7302   47.7479    8.4898 H   0  0  0  0  0  0  0  0  0  0  0  0
   32.0262   49.1257    7.2948 H   0  0  0  0  0  0  0  0  0  0  0  0
   31.9230   43.9033    7.3542 H   0  0  0  0  0  0  0  0  0  0  0  0
   33.1129   41.7963    9.2823 H   0  0  0  0  0  0  0  0  0  0  0  0
   32.2761   41.4589    7.7290 H   0  0  0  0  0  0  0  0  0  0  0  0
   33.8707   42.2859    7.7290 H   0  0  0  0  0  0  0  0  0  0  0  0
   27.2598   51.2505    6.7352 H   0  0  0  0  0  0  0  0  0  0  0  0
   28.4039   51.1193    5.3566 H   0  0  0  0  0  0  0  0  0  0  0  0
   26.8838   50.1621    5.3566 H   0  0  0  0  0  0  0  0  0  0  0  0
   30.8542   47.8684    4.9828 H   0  0  0  0  0  0  0  0  0  0  0  0
   32.5989   47.9886    4.5726 H   0  0  0  0  0  0  0  0  0  0  0  0
   31.7844   46.3875    4.5726 H   0  0  0  0  0  0  0  0  0  0  0  0
   28.9334   42.7764   11.8812 H   0  0  0  0  0  0  0  0  0  0  0  0
   28.9477   41.8261   10.3715 H   0  0  0  0  0  0  0  0  0  0  0  0
 21 26  1  0
 28 16  2  0
 20 25  1  0
 26 16  1  0
 26 17  1  0
 24 25  1  0
 24 14  2  0
 25  7  1  0
 16 10  1  0
  7  1  1  0
  7  9  2  0
 14 17  1  0
 14  9  1  0
  1 22  3  0
  9  8  1  0
 10  2  2  0
 10 11  1  0
 19 18  1  0
 18 11  1  0
 18 29  1  0
  4  8  1  0
  4 12  2  0
  8  6  2  0
  2  3  1  0
 11  5  2  0
 29 12  1  0
 12 15  1  0
  6 23  1  0
 15 23  2  0
 15 27  1  0
  3 13  2  0
  5 13  1  0
 13 30  1  0
  2 31  1  0
  3 32  1  0
  4 33  1  0
  5 34  1  0
  6 35  1  0
 17 36  1  0
 17 37  1  0
 18 38  1  0
 19 39  1  0
 19 40  1  0
 19 41  1  0
 20 42  1  0
 20 43  1  0
 20 44  1  0
 21 45  1  0
 21 46  1  0
 21 47  1  0
 27 48  1  0
 27 49  1  0
A    1
C23
A    2
C12
A    3
C13
A    4
C6
A    5
C15
A    6
C4
A    7
C19
A    8
C5
A    9
C18
A   10
C11
A   11
C10
A   12
C1
A   13
C14
A   14
C22
A   15
C2
A   16
C27
A   17
C28
A   18
C8
A   19
C9
A   20
C25
A   21
C29
A   22
N24
A   23
N3
A   24
N21
A   25
N20
A   26
N26
A   27
N17
A   28
O30
A   29
O7
A   30
F16
M  END
