4UY1_TJM_A_1130
     RDKit          3D

 26 27  0  0  0  0  0  0  0  0999 V2000
    0.0720   -4.5100   -3.6340 C   0  0  0  0  0  0  0  0  0  0  0  0
    0.4990   -3.9360   -2.3460 C   0  0  0  0  0  0  0  0  0  0  0  0
   -0.3070   -3.4180   -1.3600 C   0  0  0  0  0  0  0  0  0  0  0  0
    0.4200   -2.9370   -0.2360 C   0  0  0  0  0  0  0  0  0  0  0  0
    1.7860   -3.0950   -0.3630 C   0  0  0  0  0  0  0  0  0  0  0  0
    2.8280   -2.7160    0.5940 C   0  0  0  0  0  0  0  0  0  0  0  0
    2.1600   -3.8190   -1.8920 S   0  0  0  0  0  0  0  0  0  0  0  0
   -0.3080   -2.3550    0.8660 C   0  0  0  0  0  0  0  0  0  0  0  0
    0.0830   -1.2250    1.6350 C   0  0  0  0  0  0  0  0  0  0  0  0
   -0.9630   -1.0610    2.5220 C   0  0  0  0  0  0  0  0  0  0  0  0
   -1.8540   -2.0550    2.2280 N   0  0  0  0  0  0  0  0  0  0  0  0
   -1.4910   -2.8590    1.2210 N   0  0  0  0  0  0  0  0  0  0  0  0
   -1.2300   -0.1270    3.5650 C   0  0  0  0  0  0  0  0  0  0  0  0
   -2.1280   -0.3330    4.3550 O   0  0  0  0  0  0  0  0  0  0  0  0
   -0.4300    0.9960    3.6120 N   0  0  0  0  0  0  0  0  0  0  0  0
   -0.5754   -5.3803   -3.4510 H   0  0  0  0  0  0  0  0  0  0  0  0
   -0.4843   -3.7531   -4.2063 H   0  0  0  0  0  0  0  0  0  0  0  0
    0.9569   -4.8252   -4.2063 H   0  0  0  0  0  0  0  0  0  0  0  0
   -1.4039   -3.3794   -1.4330 H   0  0  0  0  0  0  0  0  0  0  0  0
    2.4520   -2.8527    1.6187 H   0  0  0  0  0  0  0  0  0  0  0  0
    3.7143   -3.3494    0.4410 H   0  0  0  0  0  0  0  0  0  0  0  0
    3.1003   -1.6613    0.4410 H   0  0  0  0  0  0  0  0  0  0  0  0
    1.0001   -0.6243    1.5450 H   0  0  0  0  0  0  0  0  0  0  0  0
   -1.9967   -3.6626    0.8218 H   0  0  0  0  0  0  0  0  0  0  0  0
   -0.1490    1.3905    4.5210 H   0  0  0  0  0  0  0  0  0  0  0  0
   -0.1137    1.4400    2.7381 H   0  0  0  0  0  0  0  0  0  0  0  0
  1  2  1  0
  2  3  2  0
  2  7  1  0
  3  4  1  0
  4  5  2  0
  4  8  1  0
  5  6  1  0
  5  7  1  0
  8  9  2  0
  8 12  1  0
  9 10  1  0
 10 11  2  0
 10 13  1  0
 11 12  1  0
 13 14  2  0
 13 15  1  0
  1 16  1  0
  1 17  1  0
  1 18  1  0
  3 19  1  0
  6 20  1  0
  6 21  1  0
  6 22  1  0
  9 23  1  0
 12 24  1  0
 15 25  1  0
 15 26  1  0
A    1
C1
A    2
C2
A    3
C3
A    4
C4
A    5
C5
A    6
C6
A    7
S7
A    8
C8
A    9
C9
A   10
C10
A   11
N11
A   12
N12
A   13
C13
A   14
O14
A   15
N15
M  END
