4UYE_9F9_A_1739
     RDKit          3D

 55 58  0  0  0  0  0  0  0  0999 V2000
   10.2030   44.6420   22.1400 C   0  0  0  0  0  0  0  0  0  0  0  0
    9.1160   43.8890   21.5880 O   0  0  0  0  0  0  0  0  0  0  0  0
    9.1220   42.5390   21.7890 C   0  0  0  0  0  0  0  0  0  0  0  0
   10.0840   41.9210   22.5760 C   0  0  0  0  0  0  0  0  0  0  0  0
   10.0400   40.5500   22.7520 C   0  0  0  0  0  0  0  0  0  0  0  0
    9.0500   39.8070   22.1510 C   0  0  0  0  0  0  0  0  0  0  0  0
    8.0920   40.4110   21.3620 C   0  0  0  0  0  0  0  0  0  0  0  0
    8.1070   41.7950   21.1600 C   0  0  0  0  0  0  0  0  0  0  0  0
    6.9940   42.3110   20.2830 C   0  0  0  0  0  0  0  0  0  0  0  0
    6.3110   41.5670   19.5970 O   0  0  0  0  0  0  0  0  0  0  0  0
    6.8050   43.6480   20.2820 N   0  0  0  0  0  0  0  0  0  0  0  0
    5.8630   44.4800   19.6150 C   0  0  0  0  0  0  0  0  0  0  0  0
    5.1660   44.0360   18.4820 C   0  0  0  0  0  0  0  0  0  0  0  0
    4.2530   44.8830   17.8760 C   0  0  0  0  0  0  0  0  0  0  0  0
    3.4230   44.7520   16.7640 N   0  0  0  0  0  0  0  0  0  0  0  0
    3.2630   43.5540   15.9250 C   0  0  0  0  0  0  0  0  0  0  0  0
    2.7180   45.9260   16.5710 C   0  0  0  0  0  0  0  0  0  0  0  0
    1.9200   46.1540   15.6860 O   0  0  0  0  0  0  0  0  0  0  0  0
    3.1290   46.7940   17.5530 N   0  0  0  0  0  0  0  0  0  0  0  0
    2.6280   48.1690   17.7090 C   0  0  0  0  0  0  0  0  0  0  0  0
    4.0810   46.1700   18.3560 C   0  0  0  0  0  0  0  0  0  0  0  0
    4.7650   46.5820   19.4510 C   0  0  0  0  0  0  0  0  0  0  0  0
    5.7070   45.7760   20.1360 C   0  0  0  0  0  0  0  0  0  0  0  0
    6.3730   46.2250   21.2600 N   0  0  0  0  0  0  0  0  0  0  0  0
    5.7910   45.7010   22.4980 C   0  0  0  0  0  0  0  0  0  0  0  0
    6.7330   45.8310   23.6660 C   0  0  0  0  0  0  0  0  0  0  0  0
    7.2380   47.2520   23.8010 C   0  0  0  0  0  0  0  0  0  0  0  0
    7.8120   47.7630   22.4950 C   0  0  0  0  0  0  0  0  0  0  0  0
    6.8340   47.6050   21.3550 C   0  0  0  0  0  0  0  0  0  0  0  0
   10.1527   44.6072   23.2383 H   0  0  0  0  0  0  0  0  0  0  0  0
   11.1568   44.2101   21.8027 H   0  0  0  0  0  0  0  0  0  0  0  0
   10.1339   45.6867   21.8027 H   0  0  0  0  0  0  0  0  0  0  0  0
   10.8746   42.5167   23.0556 H   0  0  0  0  0  0  0  0  0  0  0  0
   10.7984   40.0522   23.3741 H   0  0  0  0  0  0  0  0  0  0  0  0
    9.0217   38.7177   22.3013 H   0  0  0  0  0  0  0  0  0  0  0  0
    7.3104   39.7990   20.8882 H   0  0  0  0  0  0  0  0  0  0  0  0
    7.4689   44.1636   20.8772 H   0  0  0  0  0  0  0  0  0  0  0  0
    5.3422   43.0275   18.0796 H   0  0  0  0  0  0  0  0  0  0  0  0
    3.1448   42.6693   16.5679 H   0  0  0  0  0  0  0  0  0  0  0  0
    2.3720   43.6674   15.2899 H   0  0  0  0  0  0  0  0  0  0  0  0
    4.1525   43.4296   15.2899 H   0  0  0  0  0  0  0  0  0  0  0  0
    2.5408   48.4083   18.7791 H   0  0  0  0  0  0  0  0  0  0  0  0
    3.3282   48.8707   17.2322 H   0  0  0  0  0  0  0  0  0  0  0  0
    1.6405   48.2557   17.2322 H   0  0  0  0  0  0  0  0  0  0  0  0
    4.5784   47.5982   19.8285 H   0  0  0  0  0  0  0  0  0  0  0  0
    4.8700   46.2595   22.7212 H   0  0  0  0  0  0  0  0  0  0  0  0
    5.5826   44.6314   22.3482 H   0  0  0  0  0  0  0  0  0  0  0  0
    6.2038   45.5483   24.5880 H   0  0  0  0  0  0  0  0  0  0  0  0
    7.5942   45.1679   23.4968 H   0  0  0  0  0  0  0  0  0  0  0  0
    6.4028   47.9011   24.1028 H   0  0  0  0  0  0  0  0  0  0  0  0
    8.0364   47.2645   24.5576 H   0  0  0  0  0  0  0  0  0  0  0  0
    8.0594   48.8289   22.6072 H   0  0  0  0  0  0  0  0  0  0  0  0
    8.7099   47.1723   22.2607 H   0  0  0  0  0  0  0  0  0  0  0  0
    7.3282   47.8864   20.4134 H   0  0  0  0  0  0  0  0  0  0  0  0
    5.9668   48.2560   21.5398 H   0  0  0  0  0  0  0  0  0  0  0  0
  1  2  1  0
  2  3  1  0
  3  4  2  0
  3  8  1  0
  4  5  1  0
  5  6  2  0
  6  7  1  0
  7  8  2  0
  8  9  1  0
  9 10  2  0
  9 11  1  0
 11 12  1  0
 12 13  2  0
 12 23  1  0
 13 14  1  0
 14 15  1  0
 14 21  2  0
 15 16  1  0
 15 17  1  0
 17 18  2  0
 17 19  1  0
 19 20  1  0
 19 21  1  0
 21 22  1  0
 22 23  2  0
 23 24  1  0
 24 25  1  0
 24 29  1  0
 25 26  1  0
 26 27  1  0
 27 28  1  0
 28 29  1  0
  1 30  1  0
  1 31  1  0
  1 32  1  0
  4 33  1  0
  5 34  1  0
  6 35  1  0
  7 36  1  0
 11 37  1  0
 13 38  1  0
 16 39  1  0
 16 40  1  0
 16 41  1  0
 20 42  1  0
 20 43  1  0
 20 44  1  0
 22 45  1  0
 25 46  1  0
 25 47  1  0
 26 48  1  0
 26 49  1  0
 27 50  1  0
 27 51  1  0
 28 52  1  0
 28 53  1  0
 29 54  1  0
 29 55  1  0
A    1
C01
A    2
O05
A    3
C06
A    4
C07
A    5
C09
A    6
C11
A    7
C13
A    8
C15
A    9
C16
A   10
O17
A   11
N18
A   12
C20
A   13
C21
A   14
C23
A   15
N24
A   16
C25
A   17
C29
A   18
O30
A   19
N31
A   20
C32
A   21
C36
A   22
C37
A   23
C39
A   24
N40
A   25
C41
A   26
C44
A   27
C47
A   28
C50
A   29
C53
M  END
