4UZD_QMN_A_1389
     RDKit          3D

 59 64  0  0  0  0  0  0  0  0999 V2000
   58.2740  -10.1280   44.4100 C   0  0  0  0  0  0  0  0  0  0  0  0
   58.2770  -11.4630   41.8630 N   0  0  0  0  0  0  0  0  0  0  0  0
   57.4840  -11.9840   42.8500 C   0  0  0  0  0  0  0  0  0  0  0  0
   57.4960  -11.4070   44.1580 C   0  0  0  0  0  0  0  0  0  0  0  0
   56.6470  -12.1780   44.9210 C   0  0  0  0  0  0  0  0  0  0  0  0
   56.1330  -13.1600   44.1370 N   0  0  0  0  0  0  0  0  0  0  0  0
   56.6450  -13.0630   42.8680 C   0  0  0  0  0  0  0  0  0  0  0  0
   59.0910   -9.6710   43.2050 C   0  0  0  0  0  0  0  0  0  0  0  0
   59.1060  -10.3810   42.0390 C   0  0  0  0  0  0  0  0  0  0  0  0
   59.9350  -10.0000   40.8530 C   0  0  0  0  0  0  0  0  0  0  0  0
   60.4040   -8.5500   40.8280 C   0  0  0  0  0  0  0  0  0  0  0  0
   60.8030   -8.0300   42.1960 C   0  0  0  0  0  0  0  0  0  0  0  0
   59.8580   -8.4200   43.3030 C   0  0  0  0  0  0  0  0  0  0  0  0
   59.7800   -7.7060   44.2910 O   0  0  0  0  0  0  0  0  0  0  0  0
   56.2560  -14.0180   41.8430 C   0  0  0  0  0  0  0  0  0  0  0  0
   55.4370  -14.8980   42.0380 O   0  0  0  0  0  0  0  0  0  0  0  0
   56.8930  -13.7780   40.6740 O   0  0  0  0  0  0  0  0  0  0  0  0
   56.6850  -14.7260   39.5790 C   0  0  0  0  0  0  0  0  0  0  0  0
   55.6820  -14.2060   38.6450 C   0  0  0  0  0  0  0  0  0  0  0  0
   57.3420   -9.0420   44.9580 C   0  0  0  0  0  0  0  0  0  0  0  0
   56.9560   -9.0710   46.2930 C   0  0  0  0  0  0  0  0  0  0  0  0
   55.7600   -8.4810   46.6930 C   0  0  0  0  0  0  0  0  0  0  0  0
   54.9860   -7.7760   45.7900 C   0  0  0  0  0  0  0  0  0  0  0  0
   55.4310   -7.6440   44.4890 C   0  0  0  0  0  0  0  0  0  0  0  0
   56.6010   -8.2620   44.0790 C   0  0  0  0  0  0  0  0  0  0  0  0
   58.0480   -6.1040   52.4430 C   0  0  0  0  0  0  0  0  0  0  0  0
   58.9450   -5.7130   51.4420 C   0  0  0  0  0  0  0  0  0  0  0  0
   58.7780   -6.1400   50.1310 C   0  0  0  0  0  0  0  0  0  0  0  0
   56.9710   -6.9370   52.1590 C   0  0  0  0  0  0  0  0  0  0  0  0
   56.7830   -7.3500   50.8410 C   0  0  0  0  0  0  0  0  0  0  0  0
   57.6840   -6.9480   49.8490 C   0  0  0  0  0  0  0  0  0  0  0  0
   57.1670   -7.4150   48.6540 N   0  0  0  0  0  0  0  0  0  0  0  0
   56.0080   -8.0640   48.9890 C   0  0  0  0  0  0  0  0  0  0  0  0
   55.7250   -8.0590   50.2730 N   0  0  0  0  0  0  0  0  0  0  0  0
   55.2550   -8.6540   48.0100 O   0  0  0  0  0  0  0  0  0  0  0  0
   59.0287  -10.3416   45.1812 H   0  0  0  0  0  0  0  0  0  0  0  0
   58.2508  -11.9079   40.9344 H   0  0  0  0  0  0  0  0  0  0  0  0
   56.4230  -12.0239   45.9869 H   0  0  0  0  0  0  0  0  0  0  0  0
   55.4581  -13.8728   44.4490 H   0  0  0  0  0  0  0  0  0  0  0  0
   60.8253  -10.6459   40.8384 H   0  0  0  0  0  0  0  0  0  0  0  0
   59.2862  -10.1262   39.9738 H   0  0  0  0  0  0  0  0  0  0  0  0
   61.2729   -8.4746   40.1577 H   0  0  0  0  0  0  0  0  0  0  0  0
   59.5595   -7.9381   40.4780 H   0  0  0  0  0  0  0  0  0  0  0  0
   61.8005   -8.4254   42.4382 H   0  0  0  0  0  0  0  0  0  0  0  0
   60.7840   -6.9318   42.1354 H   0  0  0  0  0  0  0  0  0  0  0  0
   57.6345  -14.8788   39.0450 H   0  0  0  0  0  0  0  0  0  0  0  0
   56.3299  -15.6813   39.9929 H   0  0  0  0  0  0  0  0  0  0  0  0
   54.8445  -13.7718   39.2107 H   0  0  0  0  0  0  0  0  0  0  0  0
   56.1378  -13.4306   38.0117 H   0  0  0  0  0  0  0  0  0  0  0  0
   55.3110  -15.0254   38.0117 H   0  0  0  0  0  0  0  0  0  0  0  0
   57.5991   -9.5629   47.0377 H   0  0  0  0  0  0  0  0  0  0  0  0
   54.0314   -7.3275   46.1025 H   0  0  0  0  0  0  0  0  0  0  0  0
   54.8515   -7.0432   43.7726 H   0  0  0  0  0  0  0  0  0  0  0  0
   56.9482   -8.1334   43.0432 H   0  0  0  0  0  0  0  0  0  0  0  0
   58.1975   -5.7461   53.4724 H   0  0  0  0  0  0  0  0  0  0  0  0
   59.7924   -5.0596   51.6968 H   0  0  0  0  0  0  0  0  0  0  0  0
   59.4878   -5.8483   49.3430 H   0  0  0  0  0  0  0  0  0  0  0  0
   56.2846   -7.2619   52.9548 H   0  0  0  0  0  0  0  0  0  0  0  0
   54.9133   -8.4796   50.7474 H   0  0  0  0  0  0  0  0  0  0  0  0
  1  4  1  0
  1  8  1  0
  1 20  1  0
  2  3  1  0
  2  9  1  0
  3  4  1  0
  3  7  2  0
  4  5  2  0
  5  6  1  0
  6  7  1  0
  7 15  1  0
  8  9  2  0
  8 13  1  0
  9 10  1  0
 10 11  1  0
 11 12  1  0
 12 13  1  0
 13 14  2  0
 15 16  2  0
 15 17  1  0
 17 18  1  0
 18 19  1  0
 20 21  2  0
 20 25  1  0
 21 22  1  0
 22 23  2  0
 22 35  1  0
 23 24  1  0
 24 25  2  0
 26 27  2  0
 26 29  1  0
 27 28  1  0
 28 31  2  0
 29 30  2  0
 30 31  1  0
 30 34  1  0
 31 32  1  0
 32 33  2  0
 33 34  1  0
 33 35  1  0
  1 36  1  0
  2 37  1  0
  5 38  1  0
  6 39  1  0
 10 40  1  0
 10 41  1  0
 11 42  1  0
 11 43  1  0
 12 44  1  0
 12 45  1  0
 18 46  1  0
 18 47  1  0
 19 48  1  0
 19 49  1  0
 19 50  1  0
 21 51  1  0
 23 52  1  0
 24 53  1  0
 25 54  1  0
 26 55  1  0
 27 56  1  0
 28 57  1  0
 29 58  1  0
 34 59  1  0
A    1
C1
A    2
N2
A    3
C3
A    4
C4
A    5
C5
A    6
N6
A    7
C7
A    8
C8
A    9
C9
A   10
C10
A   11
C11
A   12
C12
A   13
C13
A   14
O14
A   15
C15
A   16
O16
A   17
O17
A   18
C18
A   19
C19
A   20
C20
A   21
C21
A   22
C22
A   23
C23
A   24
C24
A   25
C25
A   26
C26
A   27
C27
A   28
C28
A   29
C29
A   30
C30
A   31
C31
A   32
N32
A   33
C33
A   34
N34
A   35
O35
M  END
