4V24_GYR_A_1450
     RDKit          3D

 64 67  0  0  0  0  0  0  0  0999 V2000
  -27.8050   16.4830  -16.7300 O   0  0  0  0  0  0  0  0  0  0  0  0
  -27.9490   15.0440  -16.6700 S   0  0  0  0  0  0  0  0  0  0  0  0
  -28.7830   14.3710  -17.6280 O   0  0  0  0  0  0  0  0  0  0  0  0
  -28.5230   14.6360  -15.0480 C   0  0  0  0  0  0  0  0  0  0  0  0
  -28.1740   15.4450  -13.9830 C   0  0  0  0  0  0  0  0  0  0  0  0
  -28.6810   15.1600  -12.7290 C   0  0  0  0  0  0  0  0  0  0  0  0
  -29.4960   14.0810  -12.5400 C   0  0  0  0  0  0  0  0  0  0  0  0
  -29.8420   13.2780  -13.6060 C   0  0  0  0  0  0  0  0  0  0  0  0
  -29.3620   13.5510  -14.8720 C   0  0  0  0  0  0  0  0  0  0  0  0
  -26.3020   14.3430  -16.7470 C   0  0  0  0  0  0  0  0  0  0  0  0
  -26.2730   12.8810  -17.0940 C   0  0  0  0  0  0  0  0  0  0  0  0
  -26.2670   12.5070  -18.4310 C   0  0  0  0  0  0  0  0  0  0  0  0
  -25.9740   11.2110  -18.8190 C   0  0  0  0  0  0  0  0  0  0  0  0
  -25.8810   10.8570  -20.2830 C   0  0  0  0  0  0  0  0  0  0  0  0
  -25.6980   10.2610  -17.8330 C   0  0  0  0  0  0  0  0  0  0  0  0
  -25.7100   10.6230  -16.4910 C   0  0  0  0  0  0  0  0  0  0  0  0
  -26.0270   11.9220  -16.1150 C   0  0  0  0  0  0  0  0  0  0  0  0
  -25.3470    9.8040  -15.4280 O   0  0  0  0  0  0  0  0  0  0  0  0
  -24.9490    8.4330  -15.6980 C   0  0  0  0  0  0  0  0  0  0  0  0
  -24.4110    7.7460  -14.4640 C   0  0  0  0  0  0  0  0  0  0  0  0
  -24.6530    6.4030  -14.2440 C   0  0  0  0  0  0  0  0  0  0  0  0
  -24.2850    5.7920  -13.0520 C   0  0  0  0  0  0  0  0  0  0  0  0
  -23.6530    6.5050  -12.0440 C   0  0  0  0  0  0  0  0  0  0  0  0
  -23.3750    7.8400  -12.2800 C   0  0  0  0  0  0  0  0  0  0  0  0
  -23.7480    8.4520  -13.4700 C   0  0  0  0  0  0  0  0  0  0  0  0
  -23.2750    5.8520  -10.7230 C   0  0  0  0  0  0  0  0  0  0  0  0
  -24.4280    5.2330   -9.9000 N   0  0  0  0  0  0  0  0  0  0  0  0
  -25.4300    6.1640   -9.1910 C   0  0  0  0  0  0  0  0  0  0  0  0
  -26.8230    6.0830   -9.7870 C   0  0  0  0  0  0  0  0  0  0  0  0
  -27.4240    4.8060   -9.6020 O   0  0  0  0  0  0  0  0  0  0  0  0
  -25.4420    5.8650   -7.6910 C   0  0  0  0  0  0  0  0  0  0  0  0
  -24.1620    5.1390   -7.4870 C   0  0  0  0  0  0  0  0  0  0  0  0
  -23.9950    4.3300   -8.7640 C   0  0  0  0  0  0  0  0  0  0  0  0
  -27.5023   16.3034  -14.1312 H   0  0  0  0  0  0  0  0  0  0  0  0
  -28.4259   15.8073  -11.8770 H   0  0  0  0  0  0  0  0  0  0  0  0
  -29.8777   13.8517  -11.5342 H   0  0  0  0  0  0  0  0  0  0  0  0
  -30.5046   12.4144  -13.4472 H   0  0  0  0  0  0  0  0  0  0  0  0
  -29.6423   12.9163  -15.7255 H   0  0  0  0  0  0  0  0  0  0  0  0
  -25.7289   14.8905  -17.5097 H   0  0  0  0  0  0  0  0  0  0  0  0
  -25.8691   14.4387  -15.7403 H   0  0  0  0  0  0  0  0  0  0  0  0
  -26.5005   13.2581  -19.1999 H   0  0  0  0  0  0  0  0  0  0  0  0
  -25.6028    9.7979  -20.3872 H   0  0  0  0  0  0  0  0  0  0  0  0
  -26.8549   11.0293  -20.7645 H   0  0  0  0  0  0  0  0  0  0  0  0
  -25.1176   11.4857  -20.7645 H   0  0  0  0  0  0  0  0  0  0  0  0
  -25.4705    9.2235  -18.1193 H   0  0  0  0  0  0  0  0  0  0  0  0
  -26.0834   12.1915  -15.0500 H   0  0  0  0  0  0  0  0  0  0  0  0
  -25.8238    7.8745  -16.0625 H   0  0  0  0  0  0  0  0  0  0  0  0
  -24.1480    8.4540  -16.4516 H   0  0  0  0  0  0  0  0  0  0  0  0
  -25.1457    5.8075  -15.0267 H   0  0  0  0  0  0  0  0  0  0  0  0
  -24.4987    4.7231  -12.9048 H   0  0  0  0  0  0  0  0  0  0  0  0
  -22.8496    8.4267  -11.5120 H   0  0  0  0  0  0  0  0  0  0  0  0
  -23.5137    9.5152  -13.6272 H   0  0  0  0  0  0  0  0  0  0  0  0
  -22.5538    5.0507  -10.9415 H   0  0  0  0  0  0  0  0  0  0  0  0
  -22.8801    6.6678  -10.0996 H   0  0  0  0  0  0  0  0  0  0  0  0
  -25.0953    7.2003   -9.3461 H   0  0  0  0  0  0  0  0  0  0  0  0
  -27.4564    6.8434   -9.3068 H   0  0  0  0  0  0  0  0  0  0  0  0
  -26.7327    6.2551  -10.8697 H   0  0  0  0  0  0  0  0  0  0  0  0
  -27.5117    4.6197   -8.6336 H   0  0  0  0  0  0  0  0  0  0  0  0
  -25.4682    6.7940   -7.1025 H   0  0  0  0  0  0  0  0  0  0  0  0
  -26.3233    5.2904   -7.3696 H   0  0  0  0  0  0  0  0  0  0  0  0
  -23.3278    5.8444   -7.3583 H   0  0  0  0  0  0  0  0  0  0  0  0
  -24.1689    4.5110   -6.5839 H   0  0  0  0  0  0  0  0  0  0  0  0
  -24.6274    3.4306   -8.7303 H   0  0  0  0  0  0  0  0  0  0  0  0
  -22.9545    3.9971   -8.8927 H   0  0  0  0  0  0  0  0  0  0  0  0
  1  2  2  0
  2  3  2  0
  2  4  1  0
  2 10  1  0
  4  5  2  0
  4  9  1  0
  5  6  1  0
  6  7  2  0
  7  8  1  0
  8  9  2  0
 10 11  1  0
 11 12  2  0
 11 17  1  0
 12 13  1  0
 13 14  1  0
 13 15  2  0
 15 16  1  0
 16 17  2  0
 16 18  1  0
 18 19  1  0
 19 20  1  0
 20 21  2  0
 20 25  1  0
 21 22  1  0
 22 23  2  0
 23 24  1  0
 23 26  1  0
 24 25  2  0
 26 27  1  0
 27 28  1  0
 27 33  1  0
 28 29  1  0
 28 31  1  0
 29 30  1  0
 31 32  1  0
 32 33  1  0
  5 34  1  0
  6 35  1  0
  7 36  1  0
  8 37  1  0
  9 38  1  0
 10 39  1  0
 10 40  1  0
 12 41  1  0
 14 42  1  0
 14 43  1  0
 14 44  1  0
 15 45  1  0
 17 46  1  0
 19 47  1  0
 19 48  1  0
 21 49  1  0
 22 50  1  0
 24 51  1  0
 25 52  1  0
 26 53  1  0
 26 54  1  0
 28 55  1  0
 29 56  1  0
 29 57  1  0
 30 58  1  0
 31 59  1  0
 31 60  1  0
 32 61  1  0
 32 62  1  0
 33 63  1  0
 33 64  1  0
A    1
OBG
A    2
SAJ
A    3
OBF
A    4
CAK
A    5
CAR
A    6
CAQ
A    7
CAP
A    8
CAO
A    9
CAN
A   10
CAI
A   11
CAB
A   12
CAA
A   13
CAF
A   14
CAG
A   15
CAE
A   16
CAD
A   17
CAC
A   18
OAH
A   19
CAL
A   20
CAM
A   21
CAS
A   22
CAT
A   23
CAU
A   24
CAV
A   25
CAW
A   26
CAX
A   27
NAY
A   28
CAZ
A   29
CBD
A   30
OBE
A   31
CBA
A   32
CBB
A   33
CBC
M  END
