4W5B_3H5_A_301
     RDKit          3D

 32 34  0  0  0  0  0  0  0  0999 V2000
  -11.0780  -51.3990  -16.3380 C   0  0  0  0  0  0  0  0  0  0  0  0
   -9.8510  -51.9120  -18.1460 C   0  0  0  0  0  0  0  0  0  0  0  0
   -9.2800  -52.4600  -19.3520 C   0  0  0  0  0  0  0  0  0  0  0  0
   -8.0420  -51.9820  -19.8470 C   0  0  0  0  0  0  0  0  0  0  0  0
   -7.3790  -50.9620  -19.1590 C   0  0  0  0  0  0  0  0  0  0  0  0
  -16.5670  -52.8750  -15.1370 C   0  0  0  0  0  0  0  0  0  0  0  0
  -15.7530  -52.0310  -14.1860 C   0  0  0  0  0  0  0  0  0  0  0  0
  -16.2850  -51.4130  -13.1210 N   0  0  0  0  0  0  0  0  0  0  0  0
  -15.2810  -50.7250  -12.4530 N   0  0  0  0  0  0  0  0  0  0  0  0
  -15.4440  -49.9360  -11.2450 C   0  0  0  0  0  0  0  0  0  0  0  0
  -14.1290  -50.9150  -13.1170 C   0  0  0  0  0  0  0  0  0  0  0  0
  -14.3640  -51.7590  -14.2140 C   0  0  0  0  0  0  0  0  0  0  0  0
  -13.3240  -52.1600  -15.2290 C   0  0  0  0  0  0  0  0  0  0  0  0
  -13.4450  -53.1430  -15.9390 O   0  0  0  0  0  0  0  0  0  0  0  0
  -12.1620  -51.2950  -15.3660 N   0  0  0  0  0  0  0  0  0  0  0  0
  -11.0390  -52.1880  -17.4280 N   0  0  0  0  0  0  0  0  0  0  0  0
   -7.9310  -50.4090  -17.9880 C   0  0  0  0  0  0  0  0  0  0  0  0
   -9.1910  -50.9070  -17.4730 C   0  0  0  0  0  0  0  0  0  0  0  0
   -9.9790  -50.5930  -16.3620 N   0  0  0  0  0  0  0  0  0  0  0  0
   -9.8114  -53.2571  -19.8926 H   0  0  0  0  0  0  0  0  0  0  0  0
   -7.6072  -52.4089  -20.7628 H   0  0  0  0  0  0  0  0  0  0  0  0
   -6.4160  -50.5875  -19.5364 H   0  0  0  0  0  0  0  0  0  0  0  0
  -17.2182  -53.5502  -14.5625 H   0  0  0  0  0  0  0  0  0  0  0  0
  -17.1844  -52.2214  -15.7707 H   0  0  0  0  0  0  0  0  0  0  0  0
  -15.8915  -53.4684  -15.7707 H   0  0  0  0  0  0  0  0  0  0  0  0
  -15.3106  -50.5817  -10.3645 H   0  0  0  0  0  0  0  0  0  0  0  0
  -14.6929  -49.1326  -11.2277 H   0  0  0  0  0  0  0  0  0  0  0  0
  -16.4520  -49.4960  -11.2277 H   0  0  0  0  0  0  0  0  0  0  0  0
  -13.1566  -50.4789  -12.8447 H   0  0  0  0  0  0  0  0  0  0  0  0
  -12.0965  -50.5152  -14.6963 H   0  0  0  0  0  0  0  0  0  0  0  0
  -11.7552  -52.8783  -17.6952 H   0  0  0  0  0  0  0  0  0  0  0  0
   -7.4053  -49.5978  -17.4631 H   0  0  0  0  0  0  0  0  0  0  0  0
  4  3  2  0
  4  5  1  0
  3  2  1  0
  5 17  2  0
  2 18  2  0
  2 16  1  0
 17 18  1  0
 18 19  1  0
 16  1  1  0
 19  1  2  0
  1 15  1  0
 14 13  2  0
 15 13  1  0
 13 12  1  0
  6  7  1  0
 12  7  1  0
 12 11  2  0
  7  8  2  0
  8  9  1  0
 11  9  1  0
  9 10  1  0
  3 20  1  0
  4 21  1  0
  5 22  1  0
  6 23  1  0
  6 24  1  0
  6 25  1  0
 10 26  1  0
 10 27  1  0
 10 28  1  0
 11 29  1  0
 15 30  1  0
 16 31  1  0
 17 32  1  0
A    1
C11
A    2
C13
A    3
C14
A    4
C15
A    5
C16
A    6
C01
A    7
C02
A    8
N03
A    9
N04
A   10
C05
A   11
C06
A   12
C07
A   13
C08
A   14
O09
A   15
N10
A   16
N12
A   17
C17
A   18
C18
A   19
N19
M  END
