4W5S_3J1_A_1402
     RDKit          3D

 41 44  0  0  0  0  0  0  0  0999 V2000
   33.8620   46.8140   44.0620 C   0  0  0  0  0  0  0  0  0  0  0  0
   35.1380   47.1110   43.6340 C   0  0  0  0  0  0  0  0  0  0  0  0
   35.7420   47.7370   44.7480 C   0  0  0  0  0  0  0  0  0  0  0  0
   35.9750   46.4750   39.4700 C   0  0  0  0  0  0  0  0  0  0  0  0
   36.5120   45.6220   40.4360 C   0  0  0  0  0  0  0  0  0  0  0  0
   36.2690   45.8400   41.7840 C   0  0  0  0  0  0  0  0  0  0  0  0
   36.2130   46.2810   38.0260 C   0  0  0  0  0  0  0  0  0  0  0  0
   37.3130   44.9650   36.3020 C   0  0  0  0  0  0  0  0  0  0  0  0
   36.6950   45.8820   35.3350 C   0  0  0  0  0  0  0  0  0  0  0  0
   36.9040   45.7320   33.9640 C   0  0  0  0  0  0  0  0  0  0  0  0
   36.3170   46.6310   33.0900 C   0  0  0  0  0  0  0  0  0  0  0  0
   35.5390   47.6730   33.5710 C   0  0  0  0  0  0  0  0  0  0  0  0
   35.3340   47.8590   34.9380 C   0  0  0  0  0  0  0  0  0  0  0  0
   38.0430   44.0340   35.9940 O   0  0  0  0  0  0  0  0  0  0  0  0
   37.0330   45.2380   37.6210 N   0  0  0  0  0  0  0  0  0  0  0  0
   35.9100   46.9340   35.8240 C   0  0  0  0  0  0  0  0  0  0  0  0
   34.4550   48.9820   35.4340 C   0  0  0  0  0  0  0  0  0  0  0  0
   34.5670   50.1390   34.6360 O   0  0  0  0  0  0  0  0  0  0  0  0
   35.6610   47.1180   37.1740 N   0  0  0  0  0  0  0  0  0  0  0  0
   35.1990   47.5480   39.8910 C   0  0  0  0  0  0  0  0  0  0  0  0
   34.9650   47.7690   41.2340 C   0  0  0  0  0  0  0  0  0  0  0  0
   35.5070   46.9320   42.2040 C   0  0  0  0  0  0  0  0  0  0  0  0
   34.9360   47.7620   45.7950 N   0  0  0  0  0  0  0  0  0  0  0  0
   33.7820   47.1890   45.3440 N   0  0  0  0  0  0  0  0  0  0  0  0
   32.6410   47.0350   46.2380 C   0  0  0  0  0  0  0  0  0  0  0  0
   33.0612   46.3556   43.4632 H   0  0  0  0  0  0  0  0  0  0  0  0
   36.7602   48.1532   44.7440 H   0  0  0  0  0  0  0  0  0  0  0  0
   37.1335   44.7693   40.1252 H   0  0  0  0  0  0  0  0  0  0  0  0
   36.6811   45.1450   42.5304 H   0  0  0  0  0  0  0  0  0  0  0  0
   37.5272   44.9099   33.5822 H   0  0  0  0  0  0  0  0  0  0  0  0
   36.4689   46.5178   32.0064 H   0  0  0  0  0  0  0  0  0  0  0  0
   35.0727   48.3690   32.8581 H   0  0  0  0  0  0  0  0  0  0  0  0
   37.4536   44.6375   38.3445 H   0  0  0  0  0  0  0  0  0  0  0  0
   34.7482   49.2326   36.4642 H   0  0  0  0  0  0  0  0  0  0  0  0
   33.4108   48.6393   35.3867 H   0  0  0  0  0  0  0  0  0  0  0  0
   34.6441   50.9356   35.2187 H   0  0  0  0  0  0  0  0  0  0  0  0
   34.7655   48.2302   39.1449 H   0  0  0  0  0  0  0  0  0  0  0  0
   34.3401   48.6204   41.5416 H   0  0  0  0  0  0  0  0  0  0  0  0
   32.9843   47.0813   47.2820 H   0  0  0  0  0  0  0  0  0  0  0  0
   31.9187   47.8438   46.0533 H   0  0  0  0  0  0  0  0  0  0  0  0
   32.1590   46.0636   46.0533 H   0  0  0  0  0  0  0  0  0  0  0  0
 11 12  2  0
 11 10  1  0
 12 13  1  0
 10  9  2  0
 18 17  1  0
 13 17  1  0
 13 16  2  0
  9 16  1  0
  9  8  1  0
 16 19  1  0
 14  8  2  0
  8 15  1  0
 19  7  2  0
 15  7  1  0
  7  4  1  0
  4 20  1  0
  4  5  2  0
 20 21  2  0
  5  6  1  0
 21 22  1  0
  6 22  2  0
 22  2  1  0
  2  1  2  0
  2  3  1  0
  1 24  1  0
  3 23  2  0
 24 23  1  0
 24 25  1  0
  1 26  1  0
  3 27  1  0
  5 28  1  0
  6 29  1  0
 10 30  1  0
 11 31  1  0
 12 32  1  0
 15 33  1  0
 17 34  1  0
 17 35  1  0
 18 36  1  0
 20 37  1  0
 21 38  1  0
 25 39  1  0
 25 40  1  0
 25 41  1  0
A    1
C1
A    2
C2
A    3
C3
A    4
C7
A    5
C8
A    6
C9
A    7
C10
A    8
C11
A    9
C12
A   10
C13
A   11
C14
A   12
C15
A   13
C16
A   14
O
A   15
N2
A   16
C17
A   17
C18
A   18
O1
A   19
N3
A   20
C6
A   21
C5
A   22
C4
A   23
N1
A   24
N
A   25
C
M  END
