4W63_HTB_A_605
     RDKit          3D

 68 72  0  0  0  0  0  0  0  0999 V2000
   61.3340  -28.8510   -5.3540 C   0  0  0  0  0  0  0  0  0  0  0  0
   60.4450  -29.7300   -6.0790 C   0  0  0  0  0  0  0  0  0  0  0  0
   59.0080  -29.2950   -5.9220 C   0  0  0  0  0  0  0  0  0  0  0  0
   58.5790  -29.6110   -4.5250 C   0  0  0  0  0  0  0  0  0  0  0  0
   59.5330  -29.0980   -3.6160 C   0  0  0  0  0  0  0  0  0  0  0  0
   60.8450  -28.7640   -4.0200 C   0  0  0  0  0  0  0  0  0  0  0  0
   61.7150  -28.2990   -3.1210 N   0  0  0  0  0  0  0  0  0  0  0  0
   61.4050  -28.1380   -1.8430 C   0  0  0  0  0  0  0  0  0  0  0  0
   62.3970  -27.6390   -0.9840 C   0  0  0  0  0  0  0  0  0  0  0  0
   62.1600  -27.4580    0.3710 C   0  0  0  0  0  0  0  0  0  0  0  0
   60.9070  -27.7960    0.8390 C   0  0  0  0  0  0  0  0  0  0  0  0
   59.9230  -28.2590   -0.0070 C   0  0  0  0  0  0  0  0  0  0  0  0
   60.1420  -28.4420   -1.3770 C   0  0  0  0  0  0  0  0  0  0  0  0
   59.1990  -28.9290   -2.2890 C   0  0  0  0  0  0  0  0  0  0  0  0
   57.9720  -29.3300   -1.8930 N   0  0  0  0  0  0  0  0  0  0  0  0
   57.7770  -30.1390   -0.6520 C   0  0  0  0  0  0  0  0  0  0  0  0
   57.3230  -31.5740   -0.8650 C   0  0  0  0  0  0  0  0  0  0  0  0
   58.1290  -31.9770   -2.0760 C   0  0  0  0  0  0  0  0  0  0  0  0
   58.7090  -33.3730   -1.9370 C   0  0  0  0  0  0  0  0  0  0  0  0
   58.5870  -34.0270   -3.3270 C   0  0  0  0  0  0  0  0  0  0  0  0
   59.7400  -33.5320   -4.1870 C   0  0  0  0  0  0  0  0  0  0  0  0
   60.7720  -34.6430   -4.5040 C   0  0  0  0  0  0  0  0  0  0  0  0
   61.0370  -34.7410   -5.9600 N   0  0  0  0  0  0  0  0  0  0  0  0
   62.3600  -35.3180   -6.3580 C   0  0  0  0  0  0  0  0  0  0  0  0
   63.2100  -35.9230   -5.2070 C   0  0  0  0  0  0  0  0  0  0  0  0
   62.8970  -37.0950   -4.6030 O   0  0  0  0  0  0  0  0  0  0  0  0
   63.8550  -37.2740   -3.6400 C   0  0  0  0  0  0  0  0  0  0  0  0
   63.9990  -38.2770   -2.7610 C   0  0  0  0  0  0  0  0  0  0  0  0
   65.0510  -38.2360   -1.8780 C   0  0  0  0  0  0  0  0  0  0  0  0
   65.9150  -37.1470   -1.9410 C   0  0  0  0  0  0  0  0  0  0  0  0
   65.7140  -36.1350   -2.8710 C   0  0  0  0  0  0  0  0  0  0  0  0
   64.6950  -36.2200   -3.7040 C   0  0  0  0  0  0  0  0  0  0  0  0
   64.3170  -35.4000   -4.6750 C   0  0  0  0  0  0  0  0  0  0  0  0
   62.3542  -29.2623   -5.3553 H   0  0  0  0  0  0  0  0  0  0  0  0
   61.3677  -27.8566   -5.8230 H   0  0  0  0  0  0  0  0  0  0  0  0
   60.5556  -30.7534   -5.6910 H   0  0  0  0  0  0  0  0  0  0  0  0
   60.7081  -29.6922   -7.1464 H   0  0  0  0  0  0  0  0  0  0  0  0
   58.9237  -28.2132   -6.1026 H   0  0  0  0  0  0  0  0  0  0  0  0
   58.3685  -29.8210   -6.6461 H   0  0  0  0  0  0  0  0  0  0  0  0
   57.5995  -29.1507   -4.3284 H   0  0  0  0  0  0  0  0  0  0  0  0
   58.5009  -30.7012   -4.4011 H   0  0  0  0  0  0  0  0  0  0  0  0
   63.3854  -27.3856   -1.3949 H   0  0  0  0  0  0  0  0  0  0  0  0
   62.9366  -27.0626    1.0423 H   0  0  0  0  0  0  0  0  0  0  0  0
   60.6885  -27.6935    1.9122 H   0  0  0  0  0  0  0  0  0  0  0  0
   58.9317  -28.4927    0.4085 H   0  0  0  0  0  0  0  0  0  0  0  0
   57.1514  -29.0722   -2.4596 H   0  0  0  0  0  0  0  0  0  0  0  0
   58.7345  -30.1642   -0.1111 H   0  0  0  0  0  0  0  0  0  0  0  0
   56.9644  -29.6466   -0.0978 H   0  0  0  0  0  0  0  0  0  0  0  0
   56.2430  -31.6265   -1.0672 H   0  0  0  0  0  0  0  0  0  0  0  0
   57.4771  -32.2241    0.0089 H   0  0  0  0  0  0  0  0  0  0  0  0
   58.9541  -31.2615   -2.2071 H   0  0  0  0  0  0  0  0  0  0  0  0
   57.4567  -31.9746   -2.9466 H   0  0  0  0  0  0  0  0  0  0  0  0
   58.1409  -33.9500   -1.1925 H   0  0  0  0  0  0  0  0  0  0  0  0
   59.7550  -33.3416   -1.5981 H   0  0  0  0  0  0  0  0  0  0  0  0
   57.6296  -33.7443   -3.7890 H   0  0  0  0  0  0  0  0  0  0  0  0
   58.6232  -35.1227   -3.2363 H   0  0  0  0  0  0  0  0  0  0  0  0
   60.2525  -32.7181   -3.6532 H   0  0  0  0  0  0  0  0  0  0  0  0
   59.3172  -33.1899   -5.1431 H   0  0  0  0  0  0  0  0  0  0  0  0
   60.3804  -35.6068   -4.1465 H   0  0  0  0  0  0  0  0  0  0  0  0
   61.7158  -34.3912   -3.9982 H   0  0  0  0  0  0  0  0  0  0  0  0
   60.9780  -33.7912   -6.3540 H   0  0  0  0  0  0  0  0  0  0  0  0
   62.1729  -36.1144   -7.0934 H   0  0  0  0  0  0  0  0  0  0  0  0
   62.9470  -34.4743   -6.7499 H   0  0  0  0  0  0  0  0  0  0  0  0
   63.2883  -39.1165   -2.7473 H   0  0  0  0  0  0  0  0  0  0  0  0
   65.2056  -39.0400   -1.1433 H   0  0  0  0  0  0  0  0  0  0  0  0
   66.7663  -37.0869   -1.2469 H   0  0  0  0  0  0  0  0  0  0  0  0
   66.3964  -35.2732   -2.9122 H   0  0  0  0  0  0  0  0  0  0  0  0
   64.8179  -34.4701   -4.9822 H   0  0  0  0  0  0  0  0  0  0  0  0
 24 23  1  0
 24 25  1  0
  2  3  1  0
  2  1  1  0
 23 22  1  0
  3  4  1  0
  1  6  1  0
 25 33  2  0
 25 26  1  0
 33 32  1  0
 26 27  1  0
  4  5  1  0
 22 21  1  0
 21 20  1  0
  6  5  2  0
  6  7  1  0
 32 27  2  0
 32 31  1  0
 27 28  1  0
  5 14  1  0
 20 19  1  0
  7  8  2  0
 31 30  2  0
 28 29  2  0
 14 15  1  0
 14 13  2  0
 18 19  1  0
 18 17  1  0
 30 29  1  0
 15 16  1  0
  8 13  1  0
  8  9  1  0
 13 12  1  0
  9 10  2  0
 17 16  1  0
 12 11  2  0
 10 11  1  0
  1 34  1  0
  1 35  1  0
  2 36  1  0
  2 37  1  0
  3 38  1  0
  3 39  1  0
  4 40  1  0
  4 41  1  0
  9 42  1  0
 10 43  1  0
 11 44  1  0
 12 45  1  0
 15 46  1  0
 16 47  1  0
 16 48  1  0
 17 49  1  0
 17 50  1  0
 18 51  1  0
 18 52  1  0
 19 53  1  0
 19 54  1  0
 20 55  1  0
 20 56  1  0
 21 57  1  0
 21 58  1  0
 22 59  1  0
 22 60  1  0
 23 61  1  0
 24 62  1  0
 24 63  1  0
 28 64  1  0
 29 65  1  0
 30 66  1  0
 31 67  1  0
 33 68  1  0
A    1
CAS
A    2
CAO
A    3
CAP
A    4
CAT
A    5
CBB
A    6
CBA
A    7
NAV
A    8
CBE
A    9
CAF
A   10
CAB
A   11
CAD
A   12
CAH
A   13
CBG
A   14
CBC
A   15
NAX
A   16
CAR
A   17
CAN
A   18
CAL
A   19
CAJ
A   20
CAK
A   21
CAM
A   22
CAQ
A   23
NAW
A   24
CAU
A   25
CAZ
A   26
OAY
A   27
CBF
A   28
CAG
A   29
CAC
A   30
CAA
A   31
CAE
A   32
CBD
A   33
CAI
M  END
