4W7P_3J7_A_501
     RDKit          3D

 44 47  0  0  0  0  0  0  0  0999 V2000
  -13.8960   42.6560   -9.5370 C   0  0  0  0  0  0  0  0  0  0  0  0
  -14.2120   43.8150   -8.7960 C   0  0  0  0  0  0  0  0  0  0  0  0
  -14.4950   41.2400   -7.7600 C   0  0  0  0  0  0  0  0  0  0  0  0
  -16.2940   41.7080   -2.9540 C   0  0  0  0  0  0  0  0  0  0  0  0
  -17.4690   42.6740   -1.0400 C   0  0  0  0  0  0  0  0  0  0  0  0
  -17.5140   43.9650   -1.6640 C   0  0  0  0  0  0  0  0  0  0  0  0
  -18.2090   44.7960   -0.7440 C   0  0  0  0  0  0  0  0  0  0  0  0
  -15.6450   47.1740   -6.3370 C   0  0  0  0  0  0  0  0  0  0  0  0
  -14.6960   47.9600   -5.3790 C   0  0  0  0  0  0  0  0  0  0  0  0
  -15.1440   49.3880   -5.0490 C   0  0  0  0  0  0  0  0  0  0  0  0
  -14.4570   47.2250   -4.0510 C   0  0  0  0  0  0  0  0  0  0  0  0
  -14.0460   41.4000   -9.0370 N   0  0  0  0  0  0  0  0  0  0  0  0
  -14.8570   42.3230   -6.9200 C   0  0  0  0  0  0  0  0  0  0  0  0
  -14.6880   43.6460   -7.4580 C   0  0  0  0  0  0  0  0  0  0  0  0
  -15.0670   44.7150   -6.5970 C   0  0  0  0  0  0  0  0  0  0  0  0
  -15.5280   44.4530   -5.3600 N   0  0  0  0  0  0  0  0  0  0  0  0
  -15.6680   43.1860   -4.9420 C   0  0  0  0  0  0  0  0  0  0  0  0
  -15.3470   42.1110   -5.6800 N   0  0  0  0  0  0  0  0  0  0  0  0
  -16.2590   42.9950   -3.5900 C   0  0  0  0  0  0  0  0  0  0  0  0
  -16.9050   44.1060   -2.9450 C   0  0  0  0  0  0  0  0  0  0  0  0
  -16.8810   41.5440   -1.6680 C   0  0  0  0  0  0  0  0  0  0  0  0
  -18.5640   44.1300    0.3280 N   0  0  0  0  0  0  0  0  0  0  0  0
  -18.1220   42.8720    0.1560 N   0  0  0  0  0  0  0  0  0  0  0  0
  -14.9880   46.0580   -7.0130 N   0  0  0  0  0  0  0  0  0  0  0  0
  -13.4190   48.1130   -6.0340 N   0  0  0  0  0  0  0  0  0  0  0  0
  -13.5125   42.7734  -10.5613 H   0  0  0  0  0  0  0  0  0  0  0  0
  -14.0957   44.8173   -9.2341 H   0  0  0  0  0  0  0  0  0  0  0  0
  -14.5808   40.2185   -7.3610 H   0  0  0  0  0  0  0  0  0  0  0  0
  -15.8612   40.8370   -3.4678 H   0  0  0  0  0  0  0  0  0  0  0  0
  -18.4219   45.8623   -0.9103 H   0  0  0  0  0  0  0  0  0  0  0  0
  -16.4865   46.7793   -5.7486 H   0  0  0  0  0  0  0  0  0  0  0  0
  -15.9773   47.8766   -7.1154 H   0  0  0  0  0  0  0  0  0  0  0  0
  -15.1843   49.5166   -3.9573 H   0  0  0  0  0  0  0  0  0  0  0  0
  -14.4276   50.1050   -5.4764 H   0  0  0  0  0  0  0  0  0  0  0  0
  -16.1416   49.5673   -5.4764 H   0  0  0  0  0  0  0  0  0  0  0  0
  -14.6771   47.9020   -3.2124 H   0  0  0  0  0  0  0  0  0  0  0  0
  -15.1155   46.3457   -3.9949 H   0  0  0  0  0  0  0  0  0  0  0  0
  -13.4073   46.9011   -3.9949 H   0  0  0  0  0  0  0  0  0  0  0  0
  -16.9297   45.0831   -3.4497 H   0  0  0  0  0  0  0  0  0  0  0  0
  -16.8793   40.5627   -1.1709 H   0  0  0  0  0  0  0  0  0  0  0  0
  -18.2590   42.1264    0.8533 H   0  0  0  0  0  0  0  0  0  0  0  0
  -14.4284   46.2680   -7.8518 H   0  0  0  0  0  0  0  0  0  0  0  0
  -12.6777   48.2018   -5.3245 H   0  0  0  0  0  0  0  0  0  0  0  0
  -13.2340   47.2882   -6.6225 H   0  0  0  0  0  0  0  0  0  0  0  0
  1 12  2  0
  1  2  1  0
  2 14  2  0
  3 13  2  0
  4 21  2  0
  5 23  1  0
  6  5  2  0
  6  7  1  0
  7 22  2  0
  8  9  1  0
  9 10  1  0
  9 11  1  0
 12  3  1  0
 13 18  1  0
 14 13  1  0
 14 15  1  0
 15 16  2  0
 16 17  1  0
 17 19  1  0
 18 17  2  0
 19  4  1  0
 19 20  2  0
 20  6  1  0
 21  5  1  0
 23 22  1  0
 24 15  1  0
 24  8  1  0
 25  9  1  0
  1 26  1  0
  2 27  1  0
  3 28  1  0
  4 29  1  0
  7 30  1  0
  8 31  1  0
  8 32  1  0
 10 33  1  0
 10 34  1  0
 10 35  1  0
 11 36  1  0
 11 37  1  0
 11 38  1  0
 20 39  1  0
 21 40  1  0
 23 41  1  0
 24 42  1  0
 25 43  1  0
 25 44  1  0
A    1
C1
A    2
C2
A    3
C3
A    4
C11
A    5
C12
A    6
C13
A    7
C14
A    8
C15
A    9
C16
A   10
C17
A   11
C18
A   12
N1
A   13
C4
A   14
C5
A   15
C6
A   16
N2
A   17
C7
A   18
N3
A   19
C8
A   20
C9
A   21
C10
A   22
N4
A   23
N5
A   24
N6
A   25
N7
M  END
