4W9O_3JQ_A_201
     RDKit          3D

 71 74  0  0  0  0  0  0  0  0999 V2000
    7.4850    1.0980   11.3810 C   0  0  0  0  0  0  0  0  0  0  0  0
    8.3020   -0.0750   11.4910 O   0  0  0  0  0  0  0  0  0  0  0  0
    9.4180    0.0280   12.2740 C   0  0  0  0  0  0  0  0  0  0  0  0
    9.7810    1.1860   12.9100 C   0  0  0  0  0  0  0  0  0  0  0  0
   10.1540   -1.1350   12.4470 C   0  0  0  0  0  0  0  0  0  0  0  0
    9.6970   -2.2240   11.7770 O   0  0  0  0  0  0  0  0  0  0  0  0
   10.3740   -3.4640   11.9140 C   0  0  0  0  0  0  0  0  0  0  0  0
   11.3110   -1.1180   13.2440 C   0  0  0  0  0  0  0  0  0  0  0  0
   11.6950    0.0530   13.8840 C   0  0  0  0  0  0  0  0  0  0  0  0
   10.9170    1.2180   13.7220 C   0  0  0  0  0  0  0  0  0  0  0  0
   11.1960    2.4130   14.3110 O   0  0  0  0  0  0  0  0  0  0  0  0
   12.2360    2.5010   15.3030 C   0  0  0  0  0  0  0  0  0  0  0  0
   13.6230    2.6190   14.6750 C   0  0  0  0  0  0  0  0  0  0  0  0
   13.7970    3.8900   13.9490 N   0  0  0  0  0  0  0  0  0  0  0  0
   13.8130    3.9080   12.5900 C   0  0  0  0  0  0  0  0  0  0  0  0
   13.5430    2.8570   11.9860 O   0  0  0  0  0  0  0  0  0  0  0  0
   14.0660    5.0740   14.7960 C   0  0  0  0  0  0  0  0  0  0  0  0
   15.5000    5.6040   14.5510 C   0  0  0  0  0  0  0  0  0  0  0  0
   16.0650    6.4320   15.7360 C   0  0  0  0  0  0  0  0  0  0  0  0
   15.1250    7.4650   15.9920 O   0  0  0  0  0  0  0  0  0  0  0  0
   16.2120    5.5540   16.9500 C   0  0  0  0  0  0  0  0  0  0  0  0
   16.9670    6.2880   17.8930 O   0  0  0  0  0  0  0  0  0  0  0  0
   15.5490    6.4470   13.2600 C   0  0  0  0  0  0  0  0  0  0  0  0
   16.7240    6.0930   12.3480 C   0  0  0  0  0  0  0  0  0  0  0  0
   16.5640    4.8080   11.6460 C   0  0  0  0  0  0  0  0  0  0  0  0
   15.2580    4.8140   10.8580 C   0  0  0  0  0  0  0  0  0  0  0  0
   14.0320    5.0840   11.7750 C   0  0  0  0  0  0  0  0  0  0  0  0
   14.2390    6.3290   12.5490 N   0  0  0  0  0  0  0  0  0  0  0  0
   13.6180    7.7310   11.9500 S   0  0  0  0  0  0  0  0  0  0  0  0
   12.6300    7.3780   10.8820 O   0  0  0  0  0  0  0  0  0  0  0  0
   14.6760    8.7170   11.6390 O   0  0  0  0  0  0  0  0  0  0  0  0
   12.7260    8.3610   13.3030 C   0  0  0  0  0  0  0  0  0  0  0  0
   11.4930    7.7960   13.6100 C   0  0  0  0  0  0  0  0  0  0  0  0
   10.7710    8.2430   14.7110 C   0  0  0  0  0  0  0  0  0  0  0  0
    9.2640    7.5450   15.0800 Cl  0  0  0  0  0  0  0  0  0  0  0  0
   11.2530    9.2680   15.5000 C   0  0  0  0  0  0  0  0  0  0  0  0
   12.4850    9.8310   15.1970 C   0  0  0  0  0  0  0  0  0  0  0  0
   13.0930   11.0780   16.1730 Cl  0  0  0  0  0  0  0  0  0  0  0  0
   13.2220    9.3720   14.1090 C   0  0  0  0  0  0  0  0  0  0  0  0
    7.2306    1.4633   12.3869 H   0  0  0  0  0  0  0  0  0  0  0  0
    8.0358    1.8787   10.8359 H   0  0  0  0  0  0  0  0  0  0  0  0
    6.5618    0.8520   10.8359 H   0  0  0  0  0  0  0  0  0  0  0  0
    9.1749    2.0948   12.7805 H   0  0  0  0  0  0  0  0  0  0  0  0
   10.5009   -3.6965   12.9816 H   0  0  0  0  0  0  0  0  0  0  0  0
    9.7846   -4.2586   11.4333 H   0  0  0  0  0  0  0  0  0  0  0  0
   11.3612   -3.3979   11.4333 H   0  0  0  0  0  0  0  0  0  0  0  0
   11.9122   -2.0317   13.3609 H   0  0  0  0  0  0  0  0  0  0  0  0
   12.5981    0.0717   14.5118 H   0  0  0  0  0  0  0  0  0  0  0  0
   12.0541    3.3867   15.9294 H   0  0  0  0  0  0  0  0  0  0  0  0
   12.2128    1.5773   15.8998 H   0  0  0  0  0  0  0  0  0  0  0  0
   13.7655    1.7860   13.9709 H   0  0  0  0  0  0  0  0  0  0  0  0
   14.3656    2.5878   15.4859 H   0  0  0  0  0  0  0  0  0  0  0  0
   13.3415    5.8651   14.5523 H   0  0  0  0  0  0  0  0  0  0  0  0
   13.9707    4.7835   15.8527 H   0  0  0  0  0  0  0  0  0  0  0  0
   16.1394    4.7148   14.4487 H   0  0  0  0  0  0  0  0  0  0  0  0
   17.0554    6.8472   15.4979 H   0  0  0  0  0  0  0  0  0  0  0  0
   15.0198    7.5806   16.9696 H   0  0  0  0  0  0  0  0  0  0  0  0
   15.2223    5.3103   17.3637 H   0  0  0  0  0  0  0  0  0  0  0  0
   16.7100    4.6068   16.6954 H   0  0  0  0  0  0  0  0  0  0  0  0
   16.6968    6.0253   18.8085 H   0  0  0  0  0  0  0  0  0  0  0  0
   15.7195    7.4950   13.5476 H   0  0  0  0  0  0  0  0  0  0  0  0
   17.6360    6.0424   12.9609 H   0  0  0  0  0  0  0  0  0  0  0  0
   16.7787    6.8754   11.5767 H   0  0  0  0  0  0  0  0  0  0  0  0
   16.5444    3.9896   12.3807 H   0  0  0  0  0  0  0  0  0  0  0  0
   17.4070    4.6623   10.9545 H   0  0  0  0  0  0  0  0  0  0  0  0
   15.3087    5.6004   10.0906 H   0  0  0  0  0  0  0  0  0  0  0  0
   15.1305    3.8222   10.3997 H   0  0  0  0  0  0  0  0  0  0  0  0
   13.1160    5.2551   11.1904 H   0  0  0  0  0  0  0  0  0  0  0  0
   11.0870    6.9917   12.9789 H   0  0  0  0  0  0  0  0  0  0  0  0
   10.6687    9.6337   16.3572 H   0  0  0  0  0  0  0  0  0  0  0  0
   14.2043    9.8150   13.8881 H   0  0  0  0  0  0  0  0  0  0  0  0
 26 25  1  0
 26 27  1  0
 30 29  2  0
  1  2  1  0
  2  3  1  0
 31 29  2  0
 25 24  1  0
 27 28  1  0
 27 15  1  0
  6  7  1  0
  6  5  1  0
 29 28  1  0
 29 32  1  0
 16 15  2  0
  3  5  2  0
  3  4  1  0
 24 23  1  0
  5  8  1  0
 28 23  1  0
 15 14  1  0
  4 10  2  0
  8  9  2  0
 23 18  1  0
 32 33  2  0
 32 39  1  0
 33 34  1  0
 10  9  1  0
 10 11  1  0
 14 13  1  0
 14 17  1  0
 39 37  2  0
 11 12  1  0
 18 17  1  0
 18 19  1  0
 13 12  1  0
 34 35  1  0
 34 36  2  0
 37 36  1  0
 37 38  1  0
 19 20  1  0
 19 21  1  0
 21 22  1  0
  1 40  1  0
  1 41  1  0
  1 42  1  0
  4 43  1  0
  7 44  1  0
  7 45  1  0
  7 46  1  0
  8 47  1  0
  9 48  1  0
 12 49  1  0
 12 50  1  0
 13 51  1  0
 13 52  1  0
 17 53  1  0
 17 54  1  0
 18 55  1  0
 19 56  1  0
 20 57  1  0
 21 58  1  0
 21 59  1  0
 22 60  1  0
 23 61  1  0
 24 62  1  0
 24 63  1  0
 25 64  1  0
 25 65  1  0
 26 66  1  0
 26 67  1  0
 27 68  1  0
 33 69  1  0
 36 70  1  0
 39 71  1  0
A    1
CAB
A    2
OAY
A    3
CBF
A    4
CAM
A    5
CBE
A    6
OAX
A    7
CAA
A    8
CAK
A    9
CAJ
A   10
CBD
A   11
OAZ
A   12
CAR
A   13
CAV
A   14
NBL
A   15
C
A   16
O
A   17
CAU
A   18
CBJ
A   19
CBH
A   20
OAG
A   21
CAP
A   22
OAF
A   23
CBK
A   24
CAT
A   25
CAQ
A   26
CB
A   27
CA
A   28
N
A   29
SBN
A   30
OAD
A   31
OAE
A   32
CBG
A   33
CAN
A   34
CBB
A   35
CLB
A   36
CAL
A   37
CBC
A   38
CLA
A   39
CAO
M  END
