4W9S_3K1_A_304
     RDKit          3D

 27 29  0  0  0  0  0  0  0  0999 V2000
    9.0120   19.7740   -8.5830 O   0  0  0  0  0  0  0  0  0  0  0  0
    9.6970   20.5830   -9.4680 C   0  0  0  0  0  0  0  0  0  0  0  0
   10.0240   20.1430  -10.7210 C   0  0  0  0  0  0  0  0  0  0  0  0
   10.7070   20.9520  -11.5710 N   0  0  0  0  0  0  0  0  0  0  0  0
   11.0740   22.1630  -11.1140 C   0  0  0  0  0  0  0  0  0  0  0  0
   11.7870   23.1480  -11.9880 C   0  0  0  0  0  0  0  0  0  0  0  0
   12.4580   24.2190  -11.4050 C   0  0  0  0  0  0  0  0  0  0  0  0
   13.0610   25.1660  -12.2320 C   0  0  0  0  0  0  0  0  0  0  0  0
   12.9420   25.0430  -13.6110 C   0  0  0  0  0  0  0  0  0  0  0  0
   12.2550   23.9910  -14.1850 C   0  0  0  0  0  0  0  0  0  0  0  0
   11.6490   23.0430  -13.3730 C   0  0  0  0  0  0  0  0  0  0  0  0
   13.5820   26.0810  -14.4900 C   0  0  0  0  0  0  0  0  0  0  0  0
   13.2410   26.4140  -15.7440 N   0  0  0  0  0  0  0  0  0  0  0  0
   14.0750   27.3980  -16.1170 N   0  0  0  0  0  0  0  0  0  0  0  0
   14.8940   27.6880  -15.1020 N   0  0  0  0  0  0  0  0  0  0  0  0
   14.5610   26.8710  -14.0910 N   0  0  0  0  0  0  0  0  0  0  0  0
   10.7530   22.6340   -9.9040 N   0  0  0  0  0  0  0  0  0  0  0  0
   10.1040   21.8570   -9.0480 C   0  0  0  0  0  0  0  0  0  0  0  0
    9.8770   22.2810   -7.9500 O   0  0  0  0  0  0  0  0  0  0  0  0
    9.1215   19.9033   -7.6076 H   0  0  0  0  0  0  0  0  0  0  0  0
    9.7330   19.1315  -11.0408 H   0  0  0  0  0  0  0  0  0  0  0  0
   12.5117   24.3167  -10.3107 H   0  0  0  0  0  0  0  0  0  0  0  0
   13.6261   26.0033  -11.7965 H   0  0  0  0  0  0  0  0  0  0  0  0
   12.1887   23.9053  -15.2797 H   0  0  0  0  0  0  0  0  0  0  0  0
   11.0679   22.2201  -13.8147 H   0  0  0  0  0  0  0  0  0  0  0  0
   14.9972   26.8619  -13.1580 H   0  0  0  0  0  0  0  0  0  0  0  0
   11.0088   23.5958   -9.6385 H   0  0  0  0  0  0  0  0  0  0  0  0
 14 13  1  0
 14 15  2  0
 13 12  2  0
 15 16  1  0
 12 16  1  0
 12  9  1  0
 10  9  2  0
 10 11  1  0
  9  8  1  0
 11  6  2  0
  8  7  2  0
  6  7  1  0
  6  5  1  0
  4  5  2  0
  4  3  1  0
  5 17  1  0
  3  2  2  0
 17 18  1  0
  2 18  1  0
  2  1  1  0
 18 19  2  0
  1 20  1  0
  3 21  1  0
  7 22  1  0
  8 23  1  0
 10 24  1  0
 11 25  1  0
 16 26  1  0
 17 27  1  0
A    1
O01
A    2
C02
A    3
C03
A    4
N04
A    5
C05
A    6
C06
A    7
C07
A    8
C08
A    9
C09
A   10
C10
A   11
C11
A   12
C12
A   13
N13
A   14
N14
A   15
N15
A   16
N16
A   17
N17
A   18
C18
A   19
O19
M  END
