4WAG_3K7_A_801
     RDKit          3D

 37 39  0  0  0  0  0  0  0  0999 V2000
   37.6170   22.7080  -11.8360 C   0  0  0  0  0  0  0  0  0  0  0  0
   36.3810   22.9810  -12.3990 C   0  0  0  0  0  0  0  0  0  0  0  0
   36.2740   23.0390  -13.7780 C   0  0  0  0  0  0  0  0  0  0  0  0
   37.3700   22.8700  -14.5940 C   0  0  0  0  0  0  0  0  0  0  0  0
   38.5940   22.6080  -14.0300 C   0  0  0  0  0  0  0  0  0  0  0  0
   38.7200   22.5270  -12.6580 C   0  0  0  0  0  0  0  0  0  0  0  0
   39.6460   22.4450  -14.8780 O   0  0  0  0  0  0  0  0  0  0  0  0
   39.9300   22.2730  -12.0950 O   0  0  0  0  0  0  0  0  0  0  0  0
   35.1670   23.1640  -11.5500 C   0  0  0  0  0  0  0  0  0  0  0  0
   34.7020   22.5520  -10.2970 C   0  0  0  0  0  0  0  0  0  0  0  0
   33.5130   23.1300  -10.0500 N   0  0  0  0  0  0  0  0  0  0  0  0
   33.2370   24.0170  -11.0350 C   0  0  0  0  0  0  0  0  0  0  0  0
   34.2250   24.0280  -11.9260 N   0  0  0  0  0  0  0  0  0  0  0  0
   32.1570   24.8540  -11.2410 C   0  0  0  0  0  0  0  0  0  0  0  0
   32.1140   25.6840  -12.3500 C   0  0  0  0  0  0  0  0  0  0  0  0
   33.1600   25.6690  -13.2580 C   0  0  0  0  0  0  0  0  0  0  0  0
   34.2040   24.8550  -13.0510 N   0  0  0  0  0  0  0  0  0  0  0  0
   35.3930   21.5130   -9.4670 C   0  0  0  0  0  0  0  0  0  0  0  0
   33.1390   26.7250  -14.7030 Cl  0  0  0  0  0  0  0  0  0  0  0  0
   31.1410   24.8620  -10.3550 N   0  0  0  0  0  0  0  0  0  0  0  0
   40.9760   23.2150  -12.2510 C   0  0  0  0  0  0  0  0  0  0  0  0
   39.7910   23.4100  -15.9150 C   0  0  0  0  0  0  0  0  0  0  0  0
   37.7233   22.6352  -10.7436 H   0  0  0  0  0  0  0  0  0  0  0  0
   35.2897   23.2246  -14.2327 H   0  0  0  0  0  0  0  0  0  0  0  0
   37.2660   22.9441  -15.6866 H   0  0  0  0  0  0  0  0  0  0  0  0
   31.2538   26.3511  -12.5083 H   0  0  0  0  0  0  0  0  0  0  0  0
   35.2440   21.7371   -8.4004 H   0  0  0  0  0  0  0  0  0  0  0  0
   34.9732   20.5223   -9.6957 H   0  0  0  0  0  0  0  0  0  0  0  0
   36.4690   21.5170   -9.6957 H   0  0  0  0  0  0  0  0  0  0  0  0
   31.3391   24.8604   -9.3442 H   0  0  0  0  0  0  0  0  0  0  0  0
   30.1666   24.8697  -10.6888 H   0  0  0  0  0  0  0  0  0  0  0  0
   41.3317   23.5353  -11.2606 H   0  0  0  0  0  0  0  0  0  0  0  0
   41.8054   22.7533  -12.8068 H   0  0  0  0  0  0  0  0  0  0  0  0
   40.6033   24.0881  -12.8068 H   0  0  0  0  0  0  0  0  0  0  0  0
   39.9406   24.4054  -15.4713 H   0  0  0  0  0  0  0  0  0  0  0  0
   40.6604   23.1516  -16.5374 H   0  0  0  0  0  0  0  0  0  0  0  0
   38.8841   23.4185  -16.5374 H   0  0  0  0  0  0  0  0  0  0  0  0
 22  7  1  0
  7  5  1  0
 19 16  1  0
  4  5  2  0
  4  3  1  0
  5  6  1  0
  3  2  2  0
 16 17  2  0
 16 15  1  0
 17 13  1  0
  6  8  1  0
  6  1  2  0
  2  1  1  0
  2  9  1  0
 15 14  2  0
 21  8  1  0
 13  9  1  0
 13 12  1  0
  9 10  2  0
 14 12  1  0
 14 20  1  0
 12 11  2  0
 10 11  1  0
 10 18  1  0
  1 23  1  0
  3 24  1  0
  4 25  1  0
 15 26  1  0
 18 27  1  0
 18 28  1  0
 18 29  1  0
 20 30  1  0
 20 31  1  0
 21 32  1  0
 21 33  1  0
 21 34  1  0
 22 35  1  0
 22 36  1  0
 22 37  1  0
A    1
C1
A    2
C2
A    3
C3
A    4
C4
A    5
C5
A    6
C6
A    7
O1
A    8
O2
A    9
C7
A   10
C8
A   11
N9
A   12
C10
A   13
N11
A   14
C12
A   15
C13
A   16
C14
A   17
N18
A   18
C9
A   19
CL
A   20
N12
A   21
C11
A   22
C15
M  END
