2KOT_ANW_A_99
     RDKit          3D

 36 38  0  0  0  0  0  0  0  0999 V2000
   14.0540   16.1500    9.9200 N   0  0  0  0  0  0  0  0  0  0  0  0
   15.7610   17.7280    9.9780 N   0  0  0  0  0  0  0  0  0  0  0  0
   10.8360    8.5890   11.4130 C   0  0  0  0  0  0  0  0  0  0  0  0
   10.1000    9.8870   11.7480 C   0  0  0  0  0  0  0  0  0  0  0  0
    8.6710    9.8160   11.2030 C   0  0  0  0  0  0  0  0  0  0  0  0
   10.7820   10.9670   11.1950 C   0  0  0  0  0  0  0  0  0  0  0  0
   11.5470   11.7870   12.0170 C   0  0  0  0  0  0  0  0  0  0  0  0
   12.2730   12.8390   11.4740 C   0  0  0  0  0  0  0  0  0  0  0  0
   12.2190   13.0890   10.1070 C   0  0  0  0  0  0  0  0  0  0  0  0
   11.4570   12.2670    9.2810 C   0  0  0  0  0  0  0  0  0  0  0  0
   10.7460   11.2040    9.8260 C   0  0  0  0  0  0  0  0  0  0  0  0
   13.4930   15.0420   10.4270 C   0  0  0  0  0  0  0  0  0  0  0  0
   15.0160   16.8080   10.5850 C   0  0  0  0  0  0  0  0  0  0  0  0
   15.4630   16.3670   11.8260 C   0  0  0  0  0  0  0  0  0  0  0  0
   14.9040   15.2140   12.3670 C   0  0  0  0  0  0  0  0  0  0  0  0
   13.9070   14.5500   11.6610 C   0  0  0  0  0  0  0  0  0  0  0  0
   13.1720   13.5430   12.2680 C   0  0  0  0  0  0  0  0  0  0  0  0
   16.3370   17.1380   12.5860 C   0  0  0  0  0  0  0  0  0  0  0  0
   12.8290   14.1920    9.5920 O   0  0  0  0  0  0  0  0  0  0  0  0
   13.3010   13.2910   13.4650 O   0  0  0  0  0  0  0  0  0  0  0  0
   16.7920   16.6860   13.6590 O   0  0  0  0  0  0  0  0  0  0  0  0
   16.6490   18.2890   12.2110 O   0  0  0  0  0  0  0  0  0  0  0  0
   16.3055   18.4004   10.5368 H   0  0  0  0  0  0  0  0  0  0  0  0
   15.7933   17.7679    8.9493 H   0  0  0  0  0  0  0  0  0  0  0  0
   11.1245    8.0802   12.3446 H   0  0  0  0  0  0  0  0  0  0  0  0
   10.1752    7.9336   10.8267 H   0  0  0  0  0  0  0  0  0  0  0  0
   11.7377    8.8196   10.8267 H   0  0  0  0  0  0  0  0  0  0  0  0
   10.0575   10.0208   12.8390 H   0  0  0  0  0  0  0  0  0  0  0  0
    7.9601    9.7807   12.0416 H   0  0  0  0  0  0  0  0  0  0  0  0
    8.4686   10.7052   10.5879 H   0  0  0  0  0  0  0  0  0  0  0  0
    8.5577    8.9111   10.5879 H   0  0  0  0  0  0  0  0  0  0  0  0
   11.5773   11.6019   13.1009 H   0  0  0  0  0  0  0  0  0  0  0  0
   11.4176   12.4585    8.1985 H   0  0  0  0  0  0  0  0  0  0  0  0
   10.1529   10.5483    9.1716 H   0  0  0  0  0  0  0  0  0  0  0  0
   15.2461   14.8325   13.3404 H   0  0  0  0  0  0  0  0  0  0  0  0
   16.8398   18.9930   12.8804 H   0  0  0  0  0  0  0  0  0  0  0  0
  1 12  2  0
  1 13  1  0
  2 13  1  0
  3  4  1  0
  4  5  1  0
  4  6  1  0
  6  7  2  0
  6 11  1  0
  7  8  1  0
  8  9  2  0
  8 17  1  0
  9 10  1  0
  9 19  1  0
 10 11  2  0
 12 16  1  0
 12 19  1  0
 13 14  2  0
 14 15  1  0
 14 18  1  0
 15 16  2  0
 16 17  1  0
 17 20  2  0
 18 21  2  0
 18 22  1  0
  2 23  1  0
  2 24  1  0
  3 25  1  0
  3 26  1  0
  3 27  1  0
  4 28  1  0
  5 29  1  0
  5 30  1  0
  5 31  1  0
  7 32  1  0
 10 33  1  0
 11 34  1  0
 15 35  1  0
 22 36  1  0
A    1
NAA
A    2
NAB
A    3
CAC
A    4
CAD
A    5
CAE
A    6
CAF
A    7
CAG
A    8
CAH
A    9
CAI
A   10
CAJ
A   11
CAK
A   12
CAL
A   13
CAM
A   14
CAN
A   15
CAO
A   16
CAP
A   17
CAQ
A   18
CAR
A   19
OAS
A   20
OAT
A   21
OAU
A   22
OAV
M  END
