4WH9_3M8_A_601
     RDKit          3D

 25 25  0  0  0  0  0  0  0  0999 V2000
   17.4910   -6.5850   -1.1770 O   0  0  0  0  0  0  0  0  0  0  0  0
   18.4160   -5.6570   -1.8030 S   0  0  0  0  0  0  0  0  0  0  0  0
   19.7190   -5.8250   -1.1830 O   0  0  0  0  0  0  0  0  0  0  0  0
   17.8970   -4.2620   -1.6760 O   0  0  0  0  0  0  0  0  0  0  0  0
   18.4760   -6.0250   -3.4330 C   0  0  0  0  0  0  0  0  0  0  0  0
   19.1430   -7.4140   -3.5930 C   0  0  0  0  0  0  0  0  0  0  0  0
   18.9160   -8.1720   -5.1790 S   0  0  0  0  0  0  0  0  0  0  0  0
   17.2820   -8.6470   -4.8980 C   0  0  0  0  0  0  0  0  0  0  0  0
   16.8960   -9.7670   -4.1220 C   0  0  0  0  0  0  0  0  0  0  0  0
   15.5710  -10.1770   -4.0440 C   0  0  0  0  0  0  0  0  0  0  0  0
   15.2750  -11.3320   -3.4070 O   0  0  0  0  0  0  0  0  0  0  0  0
   14.4960   -9.5380   -4.6760 C   0  0  0  0  0  0  0  0  0  0  0  0
   14.9010   -8.3630   -5.3680 C   0  0  0  0  0  0  0  0  0  0  0  0
   13.9600   -7.7010   -6.0550 F   0  0  0  0  0  0  0  0  0  0  0  0
   16.2320   -7.9420   -5.5090 C   0  0  0  0  0  0  0  0  0  0  0  0
   16.4990   -6.8380   -6.2180 C   0  0  0  0  0  0  0  0  0  0  0  0
   16.7220   -5.9070   -6.8270 N   0  0  0  0  0  0  0  0  0  0  0  0
   17.5649   -6.5109   -0.1925 H   0  0  0  0  0  0  0  0  0  0  0  0
   19.0673   -5.2648   -3.9646 H   0  0  0  0  0  0  0  0  0  0  0  0
   17.4607   -6.0408   -3.8559 H   0  0  0  0  0  0  0  0  0  0  0  0
   18.7220   -8.0852   -2.8300 H   0  0  0  0  0  0  0  0  0  0  0  0
   20.2251   -7.2516   -3.4805 H   0  0  0  0  0  0  0  0  0  0  0  0
   17.6641  -10.3260   -3.5675 H   0  0  0  0  0  0  0  0  0  0  0  0
   15.2669  -11.3636   -2.4175 H   0  0  0  0  0  0  0  0  0  0  0  0
   13.4588   -9.9028   -4.6411 H   0  0  0  0  0  0  0  0  0  0  0  0
 17 16  3  0
 16 15  1  0
 14 13  1  0
 15 13  1  0
 15  8  2  0
 13 12  2  0
  7  8  1  0
  7  6  1  0
  8  9  1  0
 12 10  1  0
  9 10  2  0
 10 11  1  0
  6  5  1  0
  5  2  1  0
  2  4  2  0
  2  3  2  0
  2  1  1  0
  1 18  1  0
  5 19  1  0
  5 20  1  0
  6 21  1  0
  6 22  1  0
  9 23  1  0
 11 24  1  0
 12 25  1  0
A    1
OAQ
A    2
SAN
A    3
OAO
A    4
OAP
A    5
CAM
A    6
CAL
A    7
SAK
A    8
CAB
A    9
CAC
A   10
CAD
A   11
OAI
A   12
CAE
A   13
CAF
A   14
FAH
A   15
CAA
A   16
CAG
A   17
NAJ
M  END
