4WHU_3OT_A_4000
     RDKit          3D

 66 70  0  0  0  0  0  0  0  0999 V2000
   19.5500   31.5270    3.0930 N   0  0  0  0  0  0  0  0  0  0  0  0
   12.7540   31.4140    0.5840 C   0  0  0  0  0  0  0  0  0  0  0  0
   17.1110   30.0370    3.8200 N   0  0  0  0  0  0  0  0  0  0  0  0
   10.6760   31.7070   -1.7330 C   0  0  0  0  0  0  0  0  0  0  0  0
   11.7720   30.9490   -1.6670 C   0  0  0  0  0  0  0  0  0  0  0  0
   13.9130   31.1240    1.4470 C   0  0  0  0  0  0  0  0  0  0  0  0
   15.4650   29.5710    2.3580 C   0  0  0  0  0  0  0  0  0  0  0  0
   20.6350   31.9160    0.9360 C   0  0  0  0  0  0  0  0  0  0  0  0
   20.6740   31.0760    2.2240 C   0  0  0  0  0  0  0  0  0  0  0  0
   10.2060   32.7200   -0.7980 C   0  0  0  0  0  0  0  0  0  0  0  0
   19.7110   32.9760    3.3990 C   0  0  0  0  0  0  0  0  0  0  0  0
   17.9820   30.6780    4.7950 C   0  0  0  0  0  0  0  0  0  0  0  0
   19.7020   33.7370    2.0620 C   0  0  0  0  0  0  0  0  0  0  0  0
   15.8250   24.2120    6.0940 C   0  0  0  0  0  0  0  0  0  0  0  0
    9.7400   33.5120    2.6940 C   0  0  0  0  0  0  0  0  0  0  0  0
    9.6430   33.3800    1.2990 O   0  0  0  0  0  0  0  0  0  0  0  0
   10.6150   32.6930    0.6330 C   0  0  0  0  0  0  0  0  0  0  0  0
   11.6970   32.1500    1.2190 C   0  0  0  0  0  0  0  0  0  0  0  0
   12.7940   30.9200   -0.6670 C   0  0  0  0  0  0  0  0  0  0  0  0
    9.4010   33.5630   -1.1630 O   0  0  0  0  0  0  0  0  0  0  0  0
   14.5610   32.1780    2.1250 C   0  0  0  0  0  0  0  0  0  0  0  0
   15.6520   31.9550    2.9380 C   0  0  0  0  0  0  0  0  0  0  0  0
   16.0930   30.6340    3.0660 C   0  0  0  0  0  0  0  0  0  0  0  0
   14.3510   29.8160    1.5510 C   0  0  0  0  0  0  0  0  0  0  0  0
   16.1090   28.3450    2.6320 N   0  0  0  0  0  0  0  0  0  0  0  0
   17.0830   28.6570    3.5090 C   0  0  0  0  0  0  0  0  0  0  0  0
   19.4560   30.7160    4.3340 C   0  0  0  0  0  0  0  0  0  0  0  0
   20.7440   33.2800    1.2430 O   0  0  0  0  0  0  0  0  0  0  0  0
   18.0480   27.6890    4.0980 C   0  0  0  0  0  0  0  0  0  0  0  0
   17.7430   27.4230    5.5760 C   0  0  0  0  0  0  0  0  0  0  0  0
   16.6130   26.4580    5.7170 C   0  0  0  0  0  0  0  0  0  0  0  0
   16.8740   25.1130    5.9610 C   0  0  0  0  0  0  0  0  0  0  0  0
   14.5110   24.6520    5.9930 C   0  0  0  0  0  0  0  0  0  0  0  0
   14.2510   25.9960    5.7540 C   0  0  0  0  0  0  0  0  0  0  0  0
   15.2980   26.8990    5.6090 C   0  0  0  0  0  0  0  0  0  0  0  0
   10.0395   31.5444   -2.6153 H   0  0  0  0  0  0  0  0  0  0  0  0
   11.9092   30.2455   -2.5014 H   0  0  0  0  0  0  0  0  0  0  0  0
   21.4718   31.6222    0.2853 H   0  0  0  0  0  0  0  0  0  0  0  0
   19.6788   31.7395    0.4216 H   0  0  0  0  0  0  0  0  0  0  0  0
   21.6324   31.2284    2.7419 H   0  0  0  0  0  0  0  0  0  0  0  0
   20.5744   30.0059    1.9894 H   0  0  0  0  0  0  0  0  0  0  0  0
   18.8801   33.3203    4.0323 H   0  0  0  0  0  0  0  0  0  0  0  0
   20.6524   33.1547    3.9392 H   0  0  0  0  0  0  0  0  0  0  0  0
   17.6351   31.7097    4.9540 H   0  0  0  0  0  0  0  0  0  0  0  0
   17.9363   30.0894    5.7231 H   0  0  0  0  0  0  0  0  0  0  0  0
   18.7402   33.5707    1.5547 H   0  0  0  0  0  0  0  0  0  0  0  0
   19.8403   34.8107    2.2568 H   0  0  0  0  0  0  0  0  0  0  0  0
   16.0351   23.1483    6.2796 H   0  0  0  0  0  0  0  0  0  0  0  0
    9.1554   32.7164    3.1791 H   0  0  0  0  0  0  0  0  0  0  0  0
   10.7940   33.4296    2.9977 H   0  0  0  0  0  0  0  0  0  0  0  0
    9.3465   34.4933    2.9977 H   0  0  0  0  0  0  0  0  0  0  0  0
   11.7818   32.2849    2.3074 H   0  0  0  0  0  0  0  0  0  0  0  0
   13.7349   30.4303   -0.9583 H   0  0  0  0  0  0  0  0  0  0  0  0
   14.1859   33.2047    2.0017 H   0  0  0  0  0  0  0  0  0  0  0  0
   16.1541   32.7807    3.4634 H   0  0  0  0  0  0  0  0  0  0  0  0
   13.8414   28.9995    1.0184 H   0  0  0  0  0  0  0  0  0  0  0  0
   20.0774   31.1700    5.1200 H   0  0  0  0  0  0  0  0  0  0  0  0
   19.8127   29.6938    4.1397 H   0  0  0  0  0  0  0  0  0  0  0  0
   19.0648   28.0996    4.0108 H   0  0  0  0  0  0  0  0  0  0  0  0
   17.9620   26.7387    3.5507 H   0  0  0  0  0  0  0  0  0  0  0  0
   17.4717   28.3704    6.0647 H   0  0  0  0  0  0  0  0  0  0  0  0
   18.6373   26.9914    6.0492 H   0  0  0  0  0  0  0  0  0  0  0  0
   17.9130   24.7626    6.0487 H   0  0  0  0  0  0  0  0  0  0  0  0
   13.6800   23.9395    6.1018 H   0  0  0  0  0  0  0  0  0  0  0  0
   13.2113   26.3472    5.6792 H   0  0  0  0  0  0  0  0  0  0  0  0
   15.0871   27.9600    5.4093 H   0  0  0  0  0  0  0  0  0  0  0  0
 15 16  1  0
 16 17  1  0
 20 10  2  0
 30 31  1  0
 30 29  1  0
 17 10  1  0
 17 18  2  0
 35 31  2  0
 35 34  1  0
 10  4  1  0
 25  7  1  0
 25 26  2  0
 31 32  1  0
 18  2  1  0
 29 26  1  0
 34 33  2  0
 24  7  2  0
 24  6  1  0
  7 23  1  0
 26  3  1  0
 32 14  2  0
  4  5  2  0
  2  6  1  0
  2 19  2  0
 33 14  1  0
  6 21  2  0
  5 19  1  0
  3 23  1  0
  3 12  1  0
 23 22  2  0
 21 22  1  0
 12 27  1  0
 27  1  1  0
  1  9  1  0
  1 11  1  0
  8  9  1  0
  8 28  1  0
 13 11  1  0
 13 28  1  0
  4 36  1  0
  5 37  1  0
  8 38  1  0
  8 39  1  0
  9 40  1  0
  9 41  1  0
 11 42  1  0
 11 43  1  0
 12 44  1  0
 12 45  1  0
 13 46  1  0
 13 47  1  0
 14 48  1  0
 15 49  1  0
 15 50  1  0
 15 51  1  0
 18 52  1  0
 19 53  1  0
 21 54  1  0
 22 55  1  0
 24 56  1  0
 27 57  1  0
 27 58  1  0
 29 59  1  0
 29 60  1  0
 30 61  1  0
 30 62  1  0
 32 63  1  0
 33 64  1  0
 34 65  1  0
 35 66  1  0
A    1
N3
A    2
C4
A    3
N2
A    4
C7
A    5
C6
A    6
C9
A    7
C13
A    8
C20
A    9
C21
A   10
C8
A   11
C18
A   12
C16
A   13
C19
A   14
C26
A   15
C1
A   16
O1
A   17
C2
A   18
C3
A   19
C5
A   20
O2
A   21
C10
A   22
C11
A   23
C12
A   24
C14
A   25
N1
A   26
C15
A   27
C17
A   28
O3
A   29
C22
A   30
C23
A   31
C24
A   32
C25
A   33
C27
A   34
C28
A   35
C29
M  END
