4WK7_3PQ_A_505
     RDKit          3D

 35 36  0  0  0  0  0  0  0  0999 V2000
   -8.4350    5.3180   24.0190 C   0  0  0  0  0  0  0  0  0  0  0  0
  -10.1970    4.5250   25.5150 C   0  0  0  0  0  0  0  0  0  0  0  0
   -7.2140    5.7270   24.4580 N   0  0  0  0  0  0  0  0  0  0  0  0
   -8.8620    4.1820   24.8950 C   0  0  0  0  0  0  0  0  0  0  0  0
   -6.8000    5.0540   25.5620 C   0  0  0  0  0  0  0  0  0  0  0  0
   -3.4170    0.6430   21.9340 C   0  0  0  0  0  0  0  0  0  0  0  0
   -4.2130    2.1890   20.3020 C   0  0  0  0  0  0  0  0  0  0  0  0
   -2.3340    0.3590   21.1250 C   0  0  0  0  0  0  0  0  0  0  0  0
   -3.1310    1.9050   19.4980 C   0  0  0  0  0  0  0  0  0  0  0  0
   -5.5900    1.2230   23.4880 C   0  0  0  0  0  0  0  0  0  0  0  0
   -8.9320    2.9250   24.0490 C   0  0  0  0  0  0  0  0  0  0  0  0
   -4.3600    1.5630   21.5200 C   0  0  0  0  0  0  0  0  0  0  0  0
   -2.1870    0.9880   19.9070 C   0  0  0  0  0  0  0  0  0  0  0  0
   -6.8590    1.6520   24.1860 C   0  0  0  0  0  0  0  0  0  0  0  0
   -7.7970    4.1680   25.8690 N   0  0  0  0  0  0  0  0  0  0  0  0
   -7.6420    2.5610   23.5130 N   0  0  0  0  0  0  0  0  0  0  0  0
   -9.0740    5.7700   23.0820 O   0  0  0  0  0  0  0  0  0  0  0  0
   -5.7340    5.2270   26.1350 O   0  0  0  0  0  0  0  0  0  0  0  0
   -7.1580    1.2110   25.2850 O   0  0  0  0  0  0  0  0  0  0  0  0
   -5.4880    1.9250   22.2530 O   0  0  0  0  0  0  0  0  0  0  0  0
   -0.8330    0.6350   18.8830 Cl  0  0  0  0  0  0  0  0  0  0  0  0
  -10.1088    4.5023   26.6112 H   0  0  0  0  0  0  0  0  0  0  0  0
  -10.5034    5.5310   25.1925 H   0  0  0  0  0  0  0  0  0  0  0  0
  -10.9504    3.7913   25.1925 H   0  0  0  0  0  0  0  0  0  0  0  0
   -6.6628    6.4678   24.0017 H   0  0  0  0  0  0  0  0  0  0  0  0
   -3.5279    0.1380   22.9049 H   0  0  0  0  0  0  0  0  0  0  0  0
   -4.9643    2.9203   19.9691 H   0  0  0  0  0  0  0  0  0  0  0  0
   -1.5834   -0.3743   21.4549 H   0  0  0  0  0  0  0  0  0  0  0  0
   -3.0203    2.4111   18.5277 H   0  0  0  0  0  0  0  0  0  0  0  0
   -5.6207    0.1402   23.2967 H   0  0  0  0  0  0  0  0  0  0  0  0
   -4.7193    1.4498   24.1208 H   0  0  0  0  0  0  0  0  0  0  0  0
   -9.6276    3.0970   23.2144 H   0  0  0  0  0  0  0  0  0  0  0  0
   -9.2773    2.1018   24.6918 H   0  0  0  0  0  0  0  0  0  0  0  0
   -7.7883    3.5603   26.7006 H   0  0  0  0  0  0  0  0  0  0  0  0
   -7.3100    2.9792   22.6322 H   0  0  0  0  0  0  0  0  0  0  0  0
 21 13  1  0
  9 13  2  0
  9  7  1  0
 13  8  1  0
  7 12  2  0
  8  6  2  0
 12  6  1  0
 12 20  1  0
 20 10  1  0
 17  1  2  0
 10 14  1  0
 16 11  1  0
 16 14  1  0
  1  3  1  0
  1  4  1  0
 11  4  1  0
 14 19  2  0
  3  5  1  0
  4  2  1  0
  4 15  1  0
  5 15  1  0
  5 18  2  0
  2 22  1  0
  2 23  1  0
  2 24  1  0
  3 25  1  0
  6 26  1  0
  7 27  1  0
  8 28  1  0
  9 29  1  0
 10 30  1  0
 10 31  1  0
 11 32  1  0
 11 33  1  0
 15 34  1  0
 16 35  1  0
A    1
C7
A    2
C6
A    3
N1
A    4
C5
A    5
C2
A    6
C16
A    7
C21
A    8
C17
A    9
C20
A   10
C13
A   11
C9
A   12
C15
A   13
C18
A   14
C11
A   15
N4
A   16
N10
A   17
O8
A   18
O3
A   19
O12
A   20
O14
A   21
CL1
M  END
