4WKE_3PU_A_508
     RDKit          3D

 37 40  0  0  0  0  0  0  0  0999 V2000
   -8.9900    2.9950   24.4590 C   0  0  0  0  0  0  0  0  0  0  0  0
   -4.6850    0.8260   23.1280 C   0  0  0  0  0  0  0  0  0  0  0  0
   -3.2580    2.1280   19.5020 C   0  0  0  0  0  0  0  0  0  0  0  0
   -2.7720    0.6310   21.3350 C   0  0  0  0  0  0  0  0  0  0  0  0
  -11.4460    5.0720   28.0770 C   0  0  0  0  0  0  0  0  0  0  0  0
  -12.0620    4.7960   26.8770 C   0  0  0  0  0  0  0  0  0  0  0  0
   -4.4210    2.5860   20.0550 C   0  0  0  0  0  0  0  0  0  0  0  0
   -2.4610    1.1900   20.1070 C   0  0  0  0  0  0  0  0  0  0  0  0
   -4.7100    2.0240   21.2680 C   0  0  0  0  0  0  0  0  0  0  0  0
   -3.9530    1.0760   21.9300 C   0  0  0  0  0  0  0  0  0  0  0  0
   -5.8100    1.6260   23.1070 C   0  0  0  0  0  0  0  0  0  0  0  0
   -9.9760    4.4900   26.2430 C   0  0  0  0  0  0  0  0  0  0  0  0
   -8.5150    5.3800   24.5130 C   0  0  0  0  0  0  0  0  0  0  0  0
   -6.6570    5.0070   25.7390 C   0  0  0  0  0  0  0  0  0  0  0  0
   -6.8980    1.8070   24.0240 C   0  0  0  0  0  0  0  0  0  0  0  0
   -8.8060    4.1880   25.3780 C   0  0  0  0  0  0  0  0  0  0  0  0
  -11.2280    4.4670   25.8380 N   0  0  0  0  0  0  0  0  0  0  0  0
   -7.2220    5.7430   24.7350 N   0  0  0  0  0  0  0  0  0  0  0  0
   -7.5940    4.1070   26.1510 N   0  0  0  0  0  0  0  0  0  0  0  0
   -7.8110    2.7670   23.6470 N   0  0  0  0  0  0  0  0  0  0  0  0
   -9.3100    5.9120   23.7540 O   0  0  0  0  0  0  0  0  0  0  0  0
   -5.5240    5.1500   26.1650 O   0  0  0  0  0  0  0  0  0  0  0  0
   -6.9940    1.1720   25.0600 O   0  0  0  0  0  0  0  0  0  0  0  0
   -5.8220    2.3560   21.9620 O   0  0  0  0  0  0  0  0  0  0  0  0
   -9.7440    4.9150   27.8940 S   0  0  0  0  0  0  0  0  0  0  0  0
   -1.0510    0.7800   19.1930 Cl  0  0  0  0  0  0  0  0  0  0  0  0
   -9.8494    3.1813   23.7981 H   0  0  0  0  0  0  0  0  0  0  0  0
   -9.1614    2.1029   25.0793 H   0  0  0  0  0  0  0  0  0  0  0  0
   -4.4039    0.1223   23.9254 H   0  0  0  0  0  0  0  0  0  0  0  0
   -2.9469    2.5303   18.5266 H   0  0  0  0  0  0  0  0  0  0  0  0
   -2.1259   -0.1198   21.8134 H   0  0  0  0  0  0  0  0  0  0  0  0
  -11.9624    5.3497   29.0077 H   0  0  0  0  0  0  0  0  0  0  0  0
  -13.1548    4.8367   26.7584 H   0  0  0  0  0  0  0  0  0  0  0  0
   -5.0638    3.3357   19.5704 H   0  0  0  0  0  0  0  0  0  0  0  0
   -6.7301    6.4810   24.2113 H   0  0  0  0  0  0  0  0  0  0  0  0
   -7.4513    3.4446   26.9267 H   0  0  0  0  0  0  0  0  0  0  0  0
   -7.6567    3.3203   22.7921 H   0  0  0  0  0  0  0  0  0  0  0  0
 26  8  1  0
  3  7  2  0
  3  8  1  0
  7  9  1  0
  8  4  2  0
  9 10  2  0
  9 24  1  0
  4 10  1  0
 10  2  1  0
 24 11  1  0
 11  2  2  0
 11 15  1  0
 20 15  1  0
 20  1  1  0
 21 13  2  0
 15 23  2  0
  1 16  1  0
 13 18  1  0
 13 16  1  0
 18 14  1  0
 16 19  1  0
 16 12  1  0
 14 19  1  0
 14 22  2  0
 17 12  2  0
 17  6  1  0
 12 25  1  0
  6  5  2  0
 25  5  1  0
  1 27  1  0
  1 28  1  0
  2 29  1  0
  3 30  1  0
  4 31  1  0
  5 32  1  0
  6 33  1  0
  7 34  1  0
 18 35  1  0
 19 36  1  0
 20 37  1  0
A    1
C7
A    2
C6
A    3
C1
A    4
C5
A    5
C4
A    6
C3
A    7
C2
A    8
C8
A    9
C9
A   10
C10
A   11
C11
A   12
C12
A   13
C13
A   14
C14
A   15
C15
A   16
C16
A   17
N17
A   18
N18
A   19
N19
A   20
N20
A   21
O21
A   22
O22
A   23
O23
A   24
O24
A   25
S25
A   26
CL2
M  END
