4WKI_3PW_A_506
     RDKit          3D

 41 44  0  0  0  0  0  0  0  0999 V2000
  -12.3310    4.7470   26.6310 C   0  0  0  0  0  0  0  0  0  0  0  0
  -11.7400    5.8310   27.2360 C   0  0  0  0  0  0  0  0  0  0  0  0
   -2.9740    0.8700   21.2020 C   0  0  0  0  0  0  0  0  0  0  0  0
   -4.8790    1.0570   23.0010 C   0  0  0  0  0  0  0  0  0  0  0  0
   -9.1960    3.2560   24.2280 C   0  0  0  0  0  0  0  0  0  0  0  0
   -4.9200    2.2520   21.1350 C   0  0  0  0  0  0  0  0  0  0  0  0
  -10.3080    4.7910   25.8910 C   0  0  0  0  0  0  0  0  0  0  0  0
   -6.8740    5.1760   25.5930 C   0  0  0  0  0  0  0  0  0  0  0  0
   -9.0610    4.4610   25.1470 C   0  0  0  0  0  0  0  0  0  0  0  0
   -9.5050    6.8620   27.1550 C   0  0  0  0  0  0  0  0  0  0  0  0
   -3.4740    2.3590   19.3590 C   0  0  0  0  0  0  0  0  0  0  0  0
   -4.6390    2.8120   19.9190 C   0  0  0  0  0  0  0  0  0  0  0  0
   -2.6690    1.4280   19.9710 C   0  0  0  0  0  0  0  0  0  0  0  0
   -4.1550    1.3110   21.7990 C   0  0  0  0  0  0  0  0  0  0  0  0
   -6.0110    1.8460   22.9760 C   0  0  0  0  0  0  0  0  0  0  0  0
   -8.6700    5.6150   24.2750 C   0  0  0  0  0  0  0  0  0  0  0  0
   -7.1010    2.0400   23.8830 C   0  0  0  0  0  0  0  0  0  0  0  0
  -11.4380    4.1160   25.8010 N   0  0  0  0  0  0  0  0  0  0  0  0
   -7.3670    5.9140   24.5630 N   0  0  0  0  0  0  0  0  0  0  0  0
   -7.9000    4.3720   26.0150 N   0  0  0  0  0  0  0  0  0  0  0  0
   -7.9930    3.0100   23.4640 N   0  0  0  0  0  0  0  0  0  0  0  0
  -10.4630    5.8440   26.7560 N   0  0  0  0  0  0  0  0  0  0  0  0
   -9.3980    6.1500   23.4550 O   0  0  0  0  0  0  0  0  0  0  0  0
   -5.7330    5.2490   26.0300 O   0  0  0  0  0  0  0  0  0  0  0  0
   -7.2030    1.4230   24.9350 O   0  0  0  0  0  0  0  0  0  0  0  0
   -6.0310    2.5770   21.8330 O   0  0  0  0  0  0  0  0  0  0  0  0
   -1.2520    1.0100   19.0770 Cl  0  0  0  0  0  0  0  0  0  0  0  0
  -13.3724    4.4301   26.7896 H   0  0  0  0  0  0  0  0  0  0  0  0
  -12.1961    6.5329   27.9496 H   0  0  0  0  0  0  0  0  0  0  0  0
   -2.3232    0.1232   21.6803 H   0  0  0  0  0  0  0  0  0  0  0  0
   -4.5886    0.3602   23.8011 H   0  0  0  0  0  0  0  0  0  0  0  0
  -10.0275    3.4347   23.5304 H   0  0  0  0  0  0  0  0  0  0  0  0
   -9.3814    2.3727   24.8568 H   0  0  0  0  0  0  0  0  0  0  0  0
   -9.4584    6.9115   28.2529 H   0  0  0  0  0  0  0  0  0  0  0  0
   -8.5118    6.6069   26.7570 H   0  0  0  0  0  0  0  0  0  0  0  0
   -9.8199    7.8379   26.7570 H   0  0  0  0  0  0  0  0  0  0  0  0
   -3.1702    2.7565   18.3794 H   0  0  0  0  0  0  0  0  0  0  0  0
   -5.2883    3.5569   19.4358 H   0  0  0  0  0  0  0  0  0  0  0  0
   -6.8183    6.6219   24.0545 H   0  0  0  0  0  0  0  0  0  0  0  0
   -7.8533    3.7732   26.8518 H   0  0  0  0  0  0  0  0  0  0  0  0
   -7.8014    3.5551   22.6113 H   0  0  0  0  0  0  0  0  0  0  0  0
 27 13  1  0
 11 12  2  0
 11 13  1  0
 12  6  1  0
 13  3  2  0
  6 14  2  0
  6 26  1  0
  3 14  1  0
 14  4  1  0
 26 15  1  0
 15  4  2  0
 15 17  1  0
 23 16  2  0
 21 17  1  0
 21  5  1  0
 17 25  2  0
  5  9  1  0
 16 19  1  0
 16  9  1  0
 19  8  1  0
  9  7  1  0
  9 20  1  0
  8 20  1  0
  8 24  2  0
 18  7  2  0
 18  1  1  0
  7 22  1  0
  1  2  2  0
 22 10  1  0
 22  2  1  0
  1 28  1  0
  2 29  1  0
  3 30  1  0
  4 31  1  0
  5 32  1  0
  5 33  1  0
 10 34  1  0
 10 35  1  0
 10 36  1  0
 11 37  1  0
 12 38  1  0
 19 39  1  0
 20 40  1  0
 21 41  1  0
A    1
C4
A    2
C5
A    3
C6
A    4
C7
A    5
C8
A    6
C10
A    7
C13
A    8
C15
A    9
C17
A   10
C1
A   11
C2
A   12
C3
A   13
C9
A   14
C11
A   15
C12
A   16
C14
A   17
C16
A   18
N18
A   19
N19
A   20
N20
A   21
N21
A   22
N22
A   23
O23
A   24
O24
A   25
O25
A   26
O26
A   27
CL2
M  END
