4WLB_3QQ_A_601
     RDKit          3D

 64 66  0  0  0  0  0  0  0  0999 V2000
  -23.9550    5.5260   -5.9280 C   0  0  0  0  0  0  0  0  0  0  0  0
  -21.6750    5.5060   -5.1260 C   0  0  0  0  0  0  0  0  0  0  0  0
  -20.5100    3.3780   -2.1940 C   0  0  0  0  0  0  0  0  0  0  0  0
  -21.1010    5.0740   -3.7880 C   0  0  0  0  0  0  0  0  0  0  0  0
  -20.6110    6.0350   -2.9190 C   0  0  0  0  0  0  0  0  0  0  0  0
  -20.0770    5.6740   -1.6970 C   0  0  0  0  0  0  0  0  0  0  0  0
  -20.0240    4.3430   -1.3230 C   0  0  0  0  0  0  0  0  0  0  0  0
  -21.0480    3.7410   -3.4200 C   0  0  0  0  0  0  0  0  0  0  0  0
  -25.2110    5.1690   -3.7880 C   0  0  0  0  0  0  0  0  0  0  0  0
  -25.8640    6.9780   -5.3520 C   0  0  0  0  0  0  0  0  0  0  0  0
  -24.6790    6.2100   -4.7680 C   0  0  0  0  0  0  0  0  0  0  0  0
  -22.8340    4.6830   -5.4940 N   0  0  0  0  0  0  0  0  0  0  0  0
  -19.4890    3.9950   -0.1210 F   0  0  0  0  0  0  0  0  0  0  0  0
  -22.4410    3.6900   -6.7790 S   0  0  0  0  0  0  0  0  0  0  0  0
  -21.1120    3.2330   -6.5590 O   0  0  0  0  0  0  0  0  0  0  0  0
  -23.5790    2.8460   -6.9000 O   0  0  0  0  0  0  0  0  0  0  0  0
  -22.3750    4.5910   -8.2910 C   0  0  0  0  0  0  0  0  0  0  0  0
  -21.1460    5.0150   -8.7790 C   0  0  0  0  0  0  0  0  0  0  0  0
  -21.1220    5.6900   -9.9900 C   0  0  0  0  0  0  0  0  0  0  0  0
  -22.3050    5.9260  -10.6680 C   0  0  0  0  0  0  0  0  0  0  0  0
  -23.4620    5.5040  -10.1680 N   0  0  0  0  0  0  0  0  0  0  0  0
  -23.5220    4.8520   -9.0210 C   0  0  0  0  0  0  0  0  0  0  0  0
  -22.2740    6.6170  -11.8790 N   0  0  0  0  0  0  0  0  0  0  0  0
  -23.4620    6.5780  -12.7390 C   0  0  0  0  0  0  0  0  0  0  0  0
  -24.3920    7.7610  -12.4530 C   0  0  0  0  0  0  0  0  0  0  0  0
  -23.7660    9.1150  -12.8420 C   0  0  0  0  0  0  0  0  0  0  0  0
  -23.0540    9.0950  -14.1400 N   0  0  0  0  0  0  0  0  0  0  0  0
  -22.3270    7.8870  -14.5680 C   0  0  0  0  0  0  0  0  0  0  0  0
  -23.0570    6.5870  -14.2140 C   0  0  0  0  0  0  0  0  0  0  0  0
  -22.8910   10.4870  -15.0450 S   0  0  0  0  0  0  0  0  0  0  0  0
  -22.6990   10.1120  -16.4060 O   0  0  0  0  0  0  0  0  0  0  0  0
  -23.9230   11.3990  -14.6840 O   0  0  0  0  0  0  0  0  0  0  0  0
  -21.2610   11.1020  -14.4820 C   0  0  0  0  0  0  0  0  0  0  0  0
  -24.6772    4.8963   -6.4682 H   0  0  0  0  0  0  0  0  0  0  0  0
  -23.5392    6.3191   -6.5668 H   0  0  0  0  0  0  0  0  0  0  0  0
  -21.9881    6.5584   -5.0598 H   0  0  0  0  0  0  0  0  0  0  0  0
  -20.8992    5.3814   -5.8958 H   0  0  0  0  0  0  0  0  0  0  0  0
  -20.4682    2.3162   -1.9097 H   0  0  0  0  0  0  0  0  0  0  0  0
  -20.6474    7.0966   -3.2048 H   0  0  0  0  0  0  0  0  0  0  0  0
  -19.6919    6.4489   -1.0178 H   0  0  0  0  0  0  0  0  0  0  0  0
  -21.4332    2.9678   -4.1010 H   0  0  0  0  0  0  0  0  0  0  0  0
  -25.0357    5.5121   -2.7577 H   0  0  0  0  0  0  0  0  0  0  0  0
  -26.2902    5.0309   -3.9498 H   0  0  0  0  0  0  0  0  0  0  0  0
  -24.6907    4.2134   -3.9498 H   0  0  0  0  0  0  0  0  0  0  0  0
  -26.4809    7.3778   -4.5338 H   0  0  0  0  0  0  0  0  0  0  0  0
  -25.4936    7.8082   -5.9713 H   0  0  0  0  0  0  0  0  0  0  0  0
  -26.4705    6.3008   -5.9713 H   0  0  0  0  0  0  0  0  0  0  0  0
  -23.9855    6.8785   -4.2367 H   0  0  0  0  0  0  0  0  0  0  0  0
  -20.2182    4.8210   -8.2209 H   0  0  0  0  0  0  0  0  0  0  0  0
  -20.1663    6.0365  -10.4101 H   0  0  0  0  0  0  0  0  0  0  0  0
  -24.4964    4.5118   -8.6406 H   0  0  0  0  0  0  0  0  0  0  0  0
  -21.4355    7.1432  -12.1634 H   0  0  0  0  0  0  0  0  0  0  0  0
  -24.0031    5.6463  -12.5174 H   0  0  0  0  0  0  0  0  0  0  0  0
  -24.6229    7.7756  -11.3776 H   0  0  0  0  0  0  0  0  0  0  0  0
  -25.2988    7.6264  -13.0609 H   0  0  0  0  0  0  0  0  0  0  0  0
  -24.5691    9.8645  -12.8988 H   0  0  0  0  0  0  0  0  0  0  0  0
  -23.0188    9.3550  -12.0712 H   0  0  0  0  0  0  0  0  0  0  0  0
  -22.1936    7.9273  -15.6591 H   0  0  0  0  0  0  0  0  0  0  0  0
  -21.3650    7.8778  -14.0346 H   0  0  0  0  0  0  0  0  0  0  0  0
  -22.3910    5.7339  -14.4107 H   0  0  0  0  0  0  0  0  0  0  0  0
  -23.9651    6.5126  -14.8303 H   0  0  0  0  0  0  0  0  0  0  0  0
  -21.2329   11.1126  -13.3824 H   0  0  0  0  0  0  0  0  0  0  0  0
  -20.4683   10.4411  -14.8627 H   0  0  0  0  0  0  0  0  0  0  0  0
  -21.1024   12.1218  -14.8627 H   0  0  0  0  0  0  0  0  0  0  0  0
  9 11  1  0
 13  7  1  0
 11  1  1  0
 11 10  1  0
  7  6  1  0
  7  3  2  0
  6  5  2  0
  3  8  1  0
  1 12  1  0
  5  4  1  0
  8  4  2  0
  4  2  1  0
 12  2  1  0
 12 14  1  0
 16 14  2  0
 14 15  2  0
 14 17  1  0
 22 17  1  0
 22 21  2  0
 17 18  2  0
 21 20  1  0
 18 19  1  0
 20 19  2  0
 20 23  1  0
 25 26  1  0
 25 24  1  0
 26 27  1  0
 24 23  1  0
 24 29  1  0
 32 30  2  0
 27 30  1  0
 27 28  1  0
 29 28  1  0
 30 33  1  0
 30 31  2  0
  1 34  1  0
  1 35  1  0
  2 36  1  0
  2 37  1  0
  3 38  1  0
  5 39  1  0
  6 40  1  0
  8 41  1  0
  9 42  1  0
  9 43  1  0
  9 44  1  0
 10 45  1  0
 10 46  1  0
 10 47  1  0
 11 48  1  0
 18 49  1  0
 19 50  1  0
 22 51  1  0
 23 52  1  0
 24 53  1  0
 25 54  1  0
 25 55  1  0
 26 56  1  0
 26 57  1  0
 28 58  1  0
 28 59  1  0
 29 60  1  0
 29 61  1  0
 33 62  1  0
 33 63  1  0
 33 64  1  0
A    1
C4
A    2
C6
A    3
C11
A    4
C7
A    5
C8
A    6
C9
A    7
C10
A    8
C12
A    9
C3
A   10
C1
A   11
C2
A   12
N5
A   13
F13
A   14
S14
A   15
O15
A   16
O16
A   17
C17
A   18
C18
A   19
C19
A   20
C20
A   21
N21
A   22
C22
A   23
N23
A   24
C24
A   25
C25
A   26
C26
A   27
N27
A   28
C28
A   29
C29
A   30
S30
A   31
O31
A   32
O32
A   33
C33
M  END
