1QPR_PPC_A_288
     RDKit          3D

 37 37  0  0  0  0  0  0  0  0999 V2000
  -14.4760   45.4710   14.9600 C   0  0  0  0  0  0  0  0  0  0  0  0
  -14.6490   46.0950   16.2280 C   0  0  0  0  0  0  0  0  0  0  0  0
  -13.6100   46.9990   16.3900 C   0  0  0  0  0  0  0  0  0  0  0  0
  -12.4670   46.4680   15.8260 C   0  0  0  0  0  0  0  0  0  0  0  0
  -11.7600   45.2630   16.6800 C   0  0  0  0  0  0  0  0  0  0  0  0
  -15.2850   46.0680   13.7700 O   0  0  0  0  0  0  0  0  0  0  0  0
  -16.2340   46.5430   16.5610 O   0  0  0  0  0  0  0  0  0  0  0  0
  -13.7990   48.3040   15.5640 O   0  0  0  0  0  0  0  0  0  0  0  0
   -9.1260   45.6930   15.9070 P   0  0  0  0  0  0  0  0  0  0  0  0
   -9.3470   46.8860   15.1830 O   0  0  0  0  0  0  0  0  0  0  0  0
   -7.8920   45.7120   16.5730 O   0  0  0  0  0  0  0  0  0  0  0  0
   -9.1680   44.6650   14.9680 O   0  0  0  0  0  0  0  0  0  0  0  0
  -14.5810   45.9530   12.1200 P   0  0  0  0  0  0  0  0  0  0  0  0
  -13.0310   46.4080   12.2280 O   0  0  0  0  0  0  0  0  0  0  0  0
  -14.6370   44.4560   11.5800 O   0  0  0  0  0  0  0  0  0  0  0  0
  -15.2710   48.6330   11.2760 P   0  0  0  0  0  0  0  0  0  0  0  0
  -15.6500   49.1290   12.9570 O   0  0  0  0  0  0  0  0  0  0  0  0
  -16.3390   49.4510   10.2310 O   0  0  0  0  0  0  0  0  0  0  0  0
  -13.6910   49.1850   10.9350 O   0  0  0  0  0  0  0  0  0  0  0  0
  -15.4190   46.9450   11.0050 C   0  0  0  0  0  0  0  0  0  0  0  0
  -10.2580   45.5560   17.1220 O   0  0  0  0  0  0  0  0  0  0  0  0
  -13.1020   45.7600   14.6460 O   0  0  0  0  0  0  0  0  0  0  0  0
  -14.7980   44.4234   15.0538 H   0  0  0  0  0  0  0  0  0  0  0  0
  -14.5432   45.3936   17.0687 H   0  0  0  0  0  0  0  0  0  0  0  0
  -13.5661   47.2013   17.4703 H   0  0  0  0  0  0  0  0  0  0  0  0
  -11.6974   47.2409   15.6830 H   0  0  0  0  0  0  0  0  0  0  0  0
  -12.3570   45.0897   17.5875 H   0  0  0  0  0  0  0  0  0  0  0  0
  -11.7238   44.3886   16.0136 H   0  0  0  0  0  0  0  0  0  0  0  0
  -16.3673   46.5807   17.5413 H   0  0  0  0  0  0  0  0  0  0  0  0
  -13.9101   49.0712   16.1798 H   0  0  0  0  0  0  0  0  0  0  0  0
   -9.4857   47.6349   15.8154 H   0  0  0  0  0  0  0  0  0  0  0  0
   -8.0448   45.7096   17.5511 H   0  0  0  0  0  0  0  0  0  0  0  0
  -12.7748   46.4832   13.1813 H   0  0  0  0  0  0  0  0  0  0  0  0
  -15.1885   48.5250   13.5913 H   0  0  0  0  0  0  0  0  0  0  0  0
  -13.2098   49.3531   11.7837 H   0  0  0  0  0  0  0  0  0  0  0  0
  -15.0334   46.7267    9.9982 H   0  0  0  0  0  0  0  0  0  0  0  0
  -16.4862   46.7081   11.1270 H   0  0  0  0  0  0  0  0  0  0  0  0
  1  2  1  0
  1  6  1  0
  1 22  1  0
  2  3  1  0
  2  7  1  0
  3  4  1  0
  3  8  1  0
  4  5  1  0
  4 22  1  0
  5 21  1  0
  6 13  1  0
  9 10  1  0
  9 11  1  0
  9 12  2  0
  9 21  1  0
 13 14  1  0
 13 15  2  0
 13 20  1  0
 16 17  1  0
 16 18  2  0
 16 19  1  0
 16 20  1  0
  1 23  1  0
  2 24  1  0
  3 25  1  0
  4 26  1  0
  5 27  1  0
  5 28  1  0
  7 29  1  0
  8 30  1  0
 10 31  1  0
 11 32  1  0
 14 33  1  0
 17 34  1  0
 19 35  1  0
 20 36  1  0
 20 37  1  0
A    1
C1
A    2
C2
A    3
C3
A    4
C4
A    5
C5
A    6
O1
A    7
O2
A    8
O3
A    9
P
A   10
O1P
A   11
O2P
A   12
O3P
A   13
PA
A   14
O1A
A   15
O2A
A   16
PB
A   17
O1B
A   18
O2B
A   19
O3B
A   20
C3A
A   21
O5
A   22
O4
M  END
