4WN3_3R3_A_302
     RDKit          3D

 36 36  0  0  0  0  0  0  0  0999 V2000
   -7.6490  -19.6280   -1.5200 O   0  0  0  0  0  0  0  0  0  0  0  0
   -8.4500  -20.6160   -0.6230 P   0  0  0  0  0  0  0  0  0  0  0  0
   -9.8020  -20.1040   -0.4480 O   0  0  0  0  0  0  0  0  0  0  0  0
   -7.7120  -21.0010    0.6100 O   0  0  0  0  0  0  0  0  0  0  0  0
   -8.6680  -21.9880   -1.4940 N   0  0  0  0  0  0  0  0  0  0  0  0
   -7.5660  -23.1100   -2.0760 P   0  0  0  0  0  0  0  0  0  0  0  0
   -8.2220  -23.8610   -3.2380 O   0  0  0  0  0  0  0  0  0  0  0  0
   -6.9150  -23.8840   -0.9640 O   0  0  0  0  0  0  0  0  0  0  0  0
   -6.3380  -22.2330   -2.7180 O   0  0  0  0  0  0  0  0  0  0  0  0
   -4.9640  -22.6410   -2.7940 C   0  0  0  0  0  0  0  0  0  0  0  0
   -4.8890  -23.5760   -3.8660 O   0  0  0  0  0  0  0  0  0  0  0  0
   -4.6680  -22.8320   -5.0860 C   0  0  0  0  0  0  0  0  0  0  0  0
   -4.2930  -21.3870   -4.7300 C   0  0  0  0  0  0  0  0  0  0  0  0
   -5.4290  -20.5880   -5.1810 O   0  0  0  0  0  0  0  0  0  0  0  0
   -4.1350  -21.4180   -3.2060 C   0  0  0  0  0  0  0  0  0  0  0  0
   -4.6880  -20.2470   -2.5830 O   0  0  0  0  0  0  0  0  0  0  0  0
   -3.7030  -23.5370   -5.9940 C   0  0  0  0  0  0  0  0  0  0  0  0
   -4.5430  -24.5230   -6.6370 O   0  0  0  0  0  0  0  0  0  0  0  0
   -3.7650  -25.7590   -7.2790 P   0  0  0  0  0  0  0  0  0  0  0  0
   -2.9840  -26.4030   -6.1300 O   0  0  0  0  0  0  0  0  0  0  0  0
   -4.7140  -26.8000   -7.8320 O   0  0  0  0  0  0  0  0  0  0  0  0
   -2.8180  -25.0140   -8.2610 O   0  0  0  0  0  0  0  0  0  0  0  0
  -10.0035  -20.0277    0.5183 H   0  0  0  0  0  0  0  0  0  0  0  0
   -8.2342  -20.7286    1.4058 H   0  0  0  0  0  0  0  0  0  0  0  0
   -9.1627  -21.6675   -2.3387 H   0  0  0  0  0  0  0  0  0  0  0  0
   -7.2165  -23.5255   -0.0919 H   0  0  0  0  0  0  0  0  0  0  0  0
   -4.6058  -23.0592   -1.8417 H   0  0  0  0  0  0  0  0  0  0  0  0
   -5.5930  -22.7782   -5.6789 H   0  0  0  0  0  0  0  0  0  0  0  0
   -3.3786  -20.9745   -5.1813 H   0  0  0  0  0  0  0  0  0  0  0  0
   -5.9215  -20.2416   -4.3952 H   0  0  0  0  0  0  0  0  0  0  0  0
   -3.0776  -21.4568   -2.9054 H   0  0  0  0  0  0  0  0  0  0  0  0
   -4.6422  -20.3440   -1.5988 H   0  0  0  0  0  0  0  0  0  0  0  0
   -2.8951  -24.0156   -5.4211 H   0  0  0  0  0  0  0  0  0  0  0  0
   -3.1949  -22.8650   -6.7012 H   0  0  0  0  0  0  0  0  0  0  0  0
   -3.3560  -26.0962   -5.2654 H   0  0  0  0  0  0  0  0  0  0  0  0
   -5.1507  -27.2791   -7.0838 H   0  0  0  0  0  0  0  0  0  0  0  0
 22 19  2  0
 21 19  1  0
 19 18  1  0
 19 20  1  0
 18 17  1  0
 17 12  1  0
 14 13  1  0
 12 13  1  0
 12 11  1  0
 13 15  1  0
 11 10  1  0
  7  6  2  0
 15 10  1  0
 15 16  1  0
 10  9  1  0
  9  6  1  0
  6  5  1  0
  6  8  1  0
  1  2  2  0
  5  2  1  0
  2  3  1  0
  2  4  1  0
  3 23  1  0
  4 24  1  0
  5 25  1  0
  8 26  1  0
 10 27  1  0
 12 28  1  0
 13 29  1  0
 14 30  1  0
 15 31  1  0
 16 32  1  0
 17 33  1  0
 17 34  1  0
 20 35  1  0
 21 36  1  0
A    1
O3B
A    2
PB
A    3
O1B
A    4
O2B
A    5
N3A
A    6
PA
A    7
O1A
A    8
O2A
A    9
O1
A   10
C1
A   11
O4
A   12
C4
A   13
C3
A   14
O3
A   15
C2
A   16
O2
A   17
C5
A   18
O5
A   19
P
A   20
O1P
A   21
O2P
A   22
O3P
M  END
