4WNM_3RT_A_701
     RDKit          3D

 62 67  0  0  0  0  0  0  0  0999 V2000
   -3.1690   -1.8010   13.0340 C   0  0  0  0  0  0  0  0  0  0  0  0
   -4.4660    0.2010   15.9800 C   0  0  0  0  0  0  0  0  0  0  0  0
   -4.0970   -1.2400   14.0800 C   0  0  0  0  0  0  0  0  0  0  0  0
   -5.4120   -1.6690   14.1360 C   0  0  0  0  0  0  0  0  0  0  0  0
   -6.2690   -1.1690   15.1170 C   0  0  0  0  0  0  0  0  0  0  0  0
   -5.7970   -0.2470   16.0420 C   0  0  0  0  0  0  0  0  0  0  0  0
   -3.6180   -0.2880   15.0200 N   0  0  0  0  0  0  0  0  0  0  0  0
   -3.7960    1.0560   16.6950 N   0  0  0  0  0  0  0  0  0  0  0  0
   -2.5050    0.2600   15.1640 N   0  0  0  0  0  0  0  0  0  0  0  0
    8.5960    0.9280   14.9580 O   0  0  0  0  0  0  0  0  0  0  0  0
   -2.5600    1.1050   16.1990 C   0  0  0  0  0  0  0  0  0  0  0  0
   -0.2770    1.8040   16.1890 C   0  0  0  0  0  0  0  0  0  0  0  0
    0.6430    2.8000   16.5120 C   0  0  0  0  0  0  0  0  0  0  0  0
    1.9300    2.7630   15.9690 C   0  0  0  0  0  0  0  0  0  0  0  0
    2.3010    1.7230   15.1340 C   0  0  0  0  0  0  0  0  0  0  0  0
    1.4260    0.7390   14.8220 C   0  0  0  0  0  0  0  0  0  0  0  0
    0.1160    0.7570   15.3490 C   0  0  0  0  0  0  0  0  0  0  0  0
    3.4650    1.4260   14.4780 C   0  0  0  0  0  0  0  0  0  0  0  0
    5.8850    1.5730   14.0880 C   0  0  0  0  0  0  0  0  0  0  0  0
   -1.1710   -5.5440   13.5440 O   0  0  0  0  0  0  0  0  0  0  0  0
   -3.1800   -4.1630   13.8330 C   0  0  0  0  0  0  0  0  0  0  0  0
   -2.3170   -5.2640   14.4230 C   0  0  0  0  0  0  0  0  0  0  0  0
   -0.3490   -4.4010   13.3750 C   0  0  0  0  0  0  0  0  0  0  0  0
   -1.1640   -3.2940   12.7210 C   0  0  0  0  0  0  0  0  0  0  0  0
   -2.3260   -2.9420   13.6400 C   0  0  0  0  0  0  0  0  0  0  0  0
   -1.5260    1.8680   16.7010 N   0  0  0  0  0  0  0  0  0  0  0  0
    2.0750   -0.1260   13.9900 N   0  0  0  0  0  0  0  0  0  0  0  0
    3.2640    0.2730   13.8000 N   0  0  0  0  0  0  0  0  0  0  0  0
    4.5940    2.1580   14.4950 N   0  0  0  0  0  0  0  0  0  0  0  0
    6.9920    2.6550   14.1900 C   0  0  0  0  0  0  0  0  0  0  0  0
    8.3800    2.0110   13.9820 C   0  0  0  0  0  0  0  0  0  0  0  0
    7.6560   -0.1300   14.7180 C   0  0  0  0  0  0  0  0  0  0  0  0
    6.2270    0.3820   15.0200 C   0  0  0  0  0  0  0  0  0  0  0  0
   -2.5007   -1.0048   12.6741 H   0  0  0  0  0  0  0  0  0  0  0  0
   -3.7626   -2.1943   12.1956 H   0  0  0  0  0  0  0  0  0  0  0  0
   -5.7816   -2.4047   13.4065 H   0  0  0  0  0  0  0  0  0  0  0  0
   -7.3159   -1.5043   15.1576 H   0  0  0  0  0  0  0  0  0  0  0  0
   -6.4673    0.1343   16.8264 H   0  0  0  0  0  0  0  0  0  0  0  0
    0.3562    3.6143   17.1937 H   0  0  0  0  0  0  0  0  0  0  0  0
    2.6491    3.5611   16.2053 H   0  0  0  0  0  0  0  0  0  0  0  0
   -0.5914   -0.0479   15.1003 H   0  0  0  0  0  0  0  0  0  0  0  0
    5.8204    1.2141   13.0502 H   0  0  0  0  0  0  0  0  0  0  0  0
   -4.0081   -3.9323   14.5193 H   0  0  0  0  0  0  0  0  0  0  0  0
   -3.5988   -4.4872   12.8689 H   0  0  0  0  0  0  0  0  0  0  0  0
   -2.9202   -6.1771   14.5340 H   0  0  0  0  0  0  0  0  0  0  0  0
   -1.9425   -4.9367   15.4042 H   0  0  0  0  0  0  0  0  0  0  0  0
    0.5082   -4.6552   12.7342 H   0  0  0  0  0  0  0  0  0  0  0  0
    0.0193   -4.0612   14.3542 H   0  0  0  0  0  0  0  0  0  0  0  0
   -0.5305   -2.4079   12.5678 H   0  0  0  0  0  0  0  0  0  0  0  0
   -1.5440   -3.6318   11.7455 H   0  0  0  0  0  0  0  0  0  0  0  0
   -1.9330   -2.6022   14.6096 H   0  0  0  0  0  0  0  0  0  0  0  0
   -1.7114    2.5049   17.4889 H   0  0  0  0  0  0  0  0  0  0  0  0
    1.6618   -0.9749   13.5783 H   0  0  0  0  0  0  0  0  0  0  0  0
    4.5559    3.1420   14.7969 H   0  0  0  0  0  0  0  0  0  0  0  0
    6.9530    3.1235   15.1845 H   0  0  0  0  0  0  0  0  0  0  0  0
    6.8265    3.4156   13.4128 H   0  0  0  0  0  0  0  0  0  0  0  0
    8.4392    1.5985   12.9640 H   0  0  0  0  0  0  0  0  0  0  0  0
    9.1544    2.7791   14.1245 H   0  0  0  0  0  0  0  0  0  0  0  0
    7.7189   -0.4468   13.6665 H   0  0  0  0  0  0  0  0  0  0  0  0
    7.8878   -0.9856   15.3693 H   0  0  0  0  0  0  0  0  0  0  0  0
    6.1715    0.7114   16.0680 H   0  0  0  0  0  0  0  0  0  0  0  0
    5.5069   -0.4314   14.8472 H   0  0  0  0  0  0  0  0  0  0  0  0
 24 23  1  0
 24 25  1  0
  1 25  1  0
  1  3  1  0
 23 20  1  0
 20 22  1  0
 25 21  1  0
 28 27  1  0
 28 18  2  0
 21 22  1  0
 31 30  1  0
 31 10  1  0
 27 16  1  0
  3  4  2  0
  3  7  1  0
 19 30  1  0
 19 29  1  0
 19 33  1  0
  4  5  1  0
 18 29  1  0
 18 15  1  0
 32 10  1  0
 32 33  1  0
 16 15  2  0
 16 17  1  0
  7  9  1  0
  7  2  1  0
  5  6  2  0
 15 14  1  0
  9 11  2  0
 17 12  2  0
 14 13  2  0
  2  6  1  0
  2  8  2  0
 12 13  1  0
 12 26  1  0
 11  8  1  0
 11 26  1  0
  1 34  1  0
  1 35  1  0
  4 36  1  0
  5 37  1  0
  6 38  1  0
 13 39  1  0
 14 40  1  0
 17 41  1  0
 19 42  1  0
 21 43  1  0
 21 44  1  0
 22 45  1  0
 22 46  1  0
 23 47  1  0
 23 48  1  0
 24 49  1  0
 24 50  1  0
 25 51  1  0
 26 52  1  0
 27 53  1  0
 29 54  1  0
 30 55  1  0
 30 56  1  0
 31 57  1  0
 31 58  1  0
 32 59  1  0
 32 60  1  0
 33 61  1  0
 33 62  1  0
A    1
C1
A    2
C2
A    3
C3
A    4
C4
A    5
C5
A    6
C6
A    7
N1
A    8
N2
A    9
N3
A   10
O1
A   11
C7
A   12
C8
A   13
C9
A   14
C10
A   15
C11
A   16
C12
A   17
C13
A   18
C14
A   19
C15
A   20
O2
A   21
C21
A   22
C22
A   23
C23
A   24
C24
A   25
C20
A   26
N4
A   27
N6
A   28
N5
A   29
N7
A   30
C16
A   31
C17
A   32
C18
A   33
C19
M  END
