4UIL_QI9_H_1223
     RDKit          3D

 48 51  0  0  0  0  0  0  0  0999 V2000
   -2.7130    0.5430  -46.3040 O   0  0  0  0  0  0  0  0  0  0  0  0
   -2.9000    1.2190  -45.0860 C   0  0  0  0  0  0  0  0  0  0  0  0
   -1.9640    2.4710  -45.0010 C   0  0  0  0  0  0  0  0  0  0  0  0
   -0.4580    2.1350  -44.9740 N   0  0  0  0  0  0  0  0  0  0  0  0
    0.0910    1.8380  -46.3790 C   0  0  0  0  0  0  0  0  0  0  0  0
   -0.0850    3.0730  -47.2650 C   0  0  0  0  0  0  0  0  0  0  0  0
    0.3240    3.4370  -44.4120 C   0  0  0  0  0  0  0  0  0  0  0  0
   -0.0330    4.6290  -45.2950 C   0  0  0  0  0  0  0  0  0  0  0  0
   -0.7900    5.6570  -44.5130 C   0  0  0  0  0  0  0  0  0  0  0  0
   -0.4510    6.9400  -44.4500 C   0  0  0  0  0  0  0  0  0  0  0  0
   -0.8550    4.1600  -46.5110 C   0  0  0  0  0  0  0  0  0  0  0  0
   -2.1880    3.5420  -46.0810 C   0  0  0  0  0  0  0  0  0  0  0  0
   -4.3170    1.6560  -44.8670 C   0  0  0  0  0  0  0  0  0  0  0  0
   -5.1720    1.8410  -45.9750 C   0  0  0  0  0  0  0  0  0  0  0  0
   -6.4770    2.2550  -45.7620 C   0  0  0  0  0  0  0  0  0  0  0  0
   -7.0260    2.5120  -44.5440 N   0  0  0  0  0  0  0  0  0  0  0  0
   -6.1940    2.3410  -43.4480 C   0  0  0  0  0  0  0  0  0  0  0  0
   -4.8200    1.9130  -43.5640 C   0  0  0  0  0  0  0  0  0  0  0  0
   -4.0660    1.7690  -42.3860 C   0  0  0  0  0  0  0  0  0  0  0  0
   -6.7480    2.6060  -42.1750 C   0  0  0  0  0  0  0  0  0  0  0  0
   -5.9740    2.4550  -41.0260 C   0  0  0  0  0  0  0  0  0  0  0  0
   -4.6580    2.0420  -41.1530 C   0  0  0  0  0  0  0  0  0  0  0  0
   -3.8290    1.8710  -40.0560 O   0  0  0  0  0  0  0  0  0  0  0  0
   -2.7630    2.7730  -39.9400 C   0  0  0  0  0  0  0  0  0  0  0  0
   -2.4534   -0.3953  -46.1242 H   0  0  0  0  0  0  0  0  0  0  0  0
   -2.6460    0.4960  -44.2968 H   0  0  0  0  0  0  0  0  0  0  0  0
   -2.2686    2.8918  -44.0314 H   0  0  0  0  0  0  0  0  0  0  0  0
    1.1593    1.5853  -46.3097 H   0  0  0  0  0  0  0  0  0  0  0  0
   -0.4577    0.9908  -46.8164 H   0  0  0  0  0  0  0  0  0  0  0  0
    0.9046    3.4599  -47.5495 H   0  0  0  0  0  0  0  0  0  0  0  0
   -0.6513    2.7910  -48.1649 H   0  0  0  0  0  0  0  0  0  0  0  0
    0.0161    3.6369  -43.3751 H   0  0  0  0  0  0  0  0  0  0  0  0
    1.4101    3.2638  -44.4304 H   0  0  0  0  0  0  0  0  0  0  0  0
    0.8981    5.0904  -45.6557 H   0  0  0  0  0  0  0  0  0  0  0  0
   -1.6810    5.3302  -43.9568 H   0  0  0  0  0  0  0  0  0  0  0  0
   -1.0553    7.6399  -43.8543 H   0  0  0  0  0  0  0  0  0  0  0  0
    0.4340    7.3024  -44.9935 H   0  0  0  0  0  0  0  0  0  0  0  0
   -1.0359    5.0433  -47.1411 H   0  0  0  0  0  0  0  0  0  0  0  0
   -2.6705    3.0793  -46.9545 H   0  0  0  0  0  0  0  0  0  0  0  0
   -2.8294    4.3342  -45.6675 H   0  0  0  0  0  0  0  0  0  0  0  0
   -4.8062    1.6585  -46.9962 H   0  0  0  0  0  0  0  0  0  0  0  0
   -7.1186    2.3860  -46.6458 H   0  0  0  0  0  0  0  0  0  0  0  0
   -3.0165    1.4433  -42.4365 H   0  0  0  0  0  0  0  0  0  0  0  0
   -7.7949    2.9329  -42.0908 H   0  0  0  0  0  0  0  0  0  0  0  0
   -6.4015    2.6606  -40.0336 H   0  0  0  0  0  0  0  0  0  0  0  0
   -2.5496    2.9536  -38.8761 H   0  0  0  0  0  0  0  0  0  0  0  0
   -1.8711    2.3511  -40.4264 H   0  0  0  0  0  0  0  0  0  0  0  0
   -3.0314    3.7224  -40.4264 H   0  0  0  0  0  0  0  0  0  0  0  0
  7  4  1  0
  7  8  1  0
  4  5  1  0
  4  3  1  0
  5  6  1  0
  8  9  1  0
  8 11  1  0
 23 24  1  0
 23 22  1  0
 10  9  2  3
  6 11  1  0
  3  2  1  0
  3 12  1  0
 11 12  1  0
 22 19  1  0
 22 21  2  0
 19 18  2  0
  2  1  1  0
  2 13  1  0
 21 20  1  0
 18 13  1  0
 18 17  1  0
 13 14  2  0
 20 17  2  0
 17 16  1  0
 14 15  1  0
 16 15  2  0
  1 25  1  0
  2 26  1  0
  3 27  1  0
  5 28  1  0
  5 29  1  0
  6 30  1  0
  6 31  1  0
  7 32  1  0
  7 33  1  0
  8 34  1  0
  9 35  1  0
 10 36  1  0
 10 37  1  0
 11 38  1  0
 12 39  1  0
 12 40  1  0
 14 41  1  0
 15 42  1  0
 19 43  1  0
 20 44  1  0
 21 45  1  0
 24 46  1  0
 24 47  1  0
 24 48  1  0
A    1
O1
A    2
C10
A    3
C11
A    4
N1
A    5
C15
A    6
C14
A    7
C16
A    8
C17
A    9
C18
A   10
C19
A   11
C13
A   12
C12
A   13
C4
A   14
C5
A   15
C6
A   16
N
A   17
C7
A   18
C3
A   19
C2
A   20
C8
A   21
C9
A   22
C1
A   23
O
A   24
C
M  END
