3C4C_324_A_2
     RDKit          3D

 41 43  0  0  0  0  0  0  0  0999 V2000
   -4.9300   -2.6560  -21.3920 O   0  0  0  0  0  0  0  0  0  0  0  0
   -4.4630   -3.4370  -20.2600 S   0  0  0  0  0  0  0  0  0  0  0  0
   -5.2050   -4.6600  -20.3320 O   0  0  0  0  0  0  0  0  0  0  0  0
   -4.7770   -2.7140  -18.7850 C   0  0  0  0  0  0  0  0  0  0  0  0
   -5.1750   -3.6900  -17.6690 C   0  0  0  0  0  0  0  0  0  0  0  0
   -5.0620   -3.0160  -16.3040 C   0  0  0  0  0  0  0  0  0  0  0  0
   -2.8560   -3.5970  -20.2590 N   0  0  0  0  0  0  0  0  0  0  0  0
   -2.0110   -2.5600  -20.4210 C   0  0  0  0  0  0  0  0  0  0  0  0
   -0.5660   -2.8310  -20.5270 C   0  0  0  0  0  0  0  0  0  0  0  0
    0.0170   -4.0260  -20.4260 F   0  0  0  0  0  0  0  0  0  0  0  0
   -2.4240   -1.2300  -20.5410 C   0  0  0  0  0  0  0  0  0  0  0  0
   -1.5490   -0.1610  -20.7450 C   0  0  0  0  0  0  0  0  0  0  0  0
   -0.1950   -0.3640  -20.8320 C   0  0  0  0  0  0  0  0  0  0  0  0
    0.6350    0.6460  -21.0170 F   0  0  0  0  0  0  0  0  0  0  0  0
    0.3280   -1.7210  -20.7330 C   0  0  0  0  0  0  0  0  0  0  0  0
    1.7420   -2.0930  -20.7980 C   0  0  0  0  0  0  0  0  0  0  0  0
    2.0980   -2.7490  -21.7650 O   0  0  0  0  0  0  0  0  0  0  0  0
    2.5320   -1.7250  -19.6050 C   0  0  0  0  0  0  0  0  0  0  0  0
    2.0430   -1.3310  -18.3430 C   0  0  0  0  0  0  0  0  0  0  0  0
    4.0200   -1.7500  -19.5440 C   0  0  0  0  0  0  0  0  0  0  0  0
    5.0870   -2.0390  -20.3770 C   0  0  0  0  0  0  0  0  0  0  0  0
    4.2550   -1.3470  -18.1930 C   0  0  0  0  0  0  0  0  0  0  0  0
    3.0940   -1.0930  -17.5030 N   0  0  0  0  0  0  0  0  0  0  0  0
    5.5020   -1.2280  -17.7240 N   0  0  0  0  0  0  0  0  0  0  0  0
    6.5440   -1.5020  -18.5040 C   0  0  0  0  0  0  0  0  0  0  0  0
    6.3880   -1.9110  -19.8260 C   0  0  0  0  0  0  0  0  0  0  0  0
    7.8480   -2.2160  -20.7020 Cl  0  0  0  0  0  0  0  0  0  0  0  0
   -3.8712   -2.1779  -18.4655 H   0  0  0  0  0  0  0  0  0  0  0  0
   -5.6389   -2.0484  -18.9403 H   0  0  0  0  0  0  0  0  0  0  0  0
   -6.2136   -4.0163  -17.8268 H   0  0  0  0  0  0  0  0  0  0  0  0
   -4.4973   -4.5561  -17.6954 H   0  0  0  0  0  0  0  0  0  0  0  0
   -5.1882   -3.7687  -15.5118 H   0  0  0  0  0  0  0  0  0  0  0  0
   -4.0724   -2.5453  -16.2083 H   0  0  0  0  0  0  0  0  0  0  0  0
   -5.8440   -2.2483  -16.2083 H   0  0  0  0  0  0  0  0  0  0  0  0
   -2.4575   -4.5377  -20.1281 H   0  0  0  0  0  0  0  0  0  0  0  0
   -3.5001   -1.0130  -20.4707 H   0  0  0  0  0  0  0  0  0  0  0  0
   -1.9512    0.8587  -20.8373 H   0  0  0  0  0  0  0  0  0  0  0  0
    0.9806   -1.2308  -18.0760 H   0  0  0  0  0  0  0  0  0  0  0  0
    4.9331   -2.3539  -21.4197 H   0  0  0  0  0  0  0  0  0  0  0  0
    3.0278   -0.7784  -16.5244 H   0  0  0  0  0  0  0  0  0  0  0  0
    7.5593   -1.4026  -18.0925 H   0  0  0  0  0  0  0  0  0  0  0  0
  1  2  2  0
  2  3  2  0
  2  4  1  0
  2  7  1  0
  4  5  1  0
  5  6  1  0
  7  8  1  0
  8  9  2  0
  8 11  1  0
  9 10  1  0
  9 15  1  0
 11 12  2  0
 12 13  1  0
 13 14  1  0
 13 15  2  0
 15 16  1  0
 16 17  2  0
 16 18  1  0
 18 19  2  0
 18 20  1  0
 19 23  1  0
 20 21  2  0
 20 22  1  0
 21 26  1  0
 22 23  1  0
 22 24  2  0
 24 25  1  0
 25 26  2  0
 26 27  1  0
  4 28  1  0
  4 29  1  0
  5 30  1  0
  5 31  1  0
  6 32  1  0
  6 33  1  0
  6 34  1  0
  7 35  1  0
 11 36  1  0
 12 37  1  0
 19 38  1  0
 21 39  1  0
 23 40  1  0
 25 41  1  0
A    1
O24
A    2
S22
A    3
O23
A    4
C25
A    5
C26
A    6
C27
A    7
N21
A    8
C17
A    9
C18
A   10
F20
A   11
C16
A   12
C15
A   13
C14
A   14
F19
A   15
C13
A   16
C11
A   17
O12
A   18
C9
A   19
C8
A   20
C2
A   21
C1
A   22
C3
A   23
N7
A   24
N4
A   25
C5
A   26
C6
A   27
CL10
M  END
