4WP7_3SR_A_602
     RDKit          3D

 62 65  0  0  0  0  0  0  0  0999 V2000
   34.9970  -15.8380   16.4910 C   0  0  0  0  0  0  0  0  0  0  0  0
   35.5320  -16.8050   15.5050 C   0  0  0  0  0  0  0  0  0  0  0  0
   34.7110  -17.2490   14.3900 C   0  0  0  0  0  0  0  0  0  0  0  0
   32.9350  -15.8540   15.1550 C   0  0  0  0  0  0  0  0  0  0  0  0
   39.6000  -15.4300   16.9870 C   0  0  0  0  0  0  0  0  0  0  0  0
   39.2050  -15.4190   18.4600 C   0  0  0  0  0  0  0  0  0  0  0  0
   40.0880  -14.0400   16.5680 C   0  0  0  0  0  0  0  0  0  0  0  0
   37.8040  -19.1130   13.8410 C   0  0  0  0  0  0  0  0  0  0  0  0
   40.3240  -19.1550   14.0440 C   0  0  0  0  0  0  0  0  0  0  0  0
   43.5740  -18.2950   11.7290 O   0  0  0  0  0  0  0  0  0  0  0  0
   42.4450  -18.2090   11.2560 C   0  0  0  0  0  0  0  0  0  0  0  0
   42.4010  -18.1200    9.7540 C   0  0  0  0  0  0  0  0  0  0  0  0
   41.2090  -18.3430    9.1250 O   0  0  0  0  0  0  0  0  0  0  0  0
   41.4420  -18.2190    7.7690 C   0  0  0  0  0  0  0  0  0  0  0  0
   42.7830  -17.9300    7.5710 C   0  0  0  0  0  0  0  0  0  0  0  0
   43.3880  -17.8740    8.8110 C   0  0  0  0  0  0  0  0  0  0  0  0
   41.3520  -18.2100   12.0720 N   0  0  0  0  0  0  0  0  0  0  0  0
   41.1230  -19.4740   12.7750 C   0  0  0  0  0  0  0  0  0  0  0  0
   40.0810  -17.7120   11.5400 C   0  0  0  0  0  0  0  0  0  0  0  0
   39.2010  -17.3290   12.7280 C   0  0  0  0  0  0  0  0  0  0  0  0
   39.0970  -18.4580   13.6470 N   0  0  0  0  0  0  0  0  0  0  0  0
   36.6810  -18.2060   14.3280 C   0  0  0  0  0  0  0  0  0  0  0  0
   36.7120  -17.4160   15.4350 N   0  0  0  0  0  0  0  0  0  0  0  0
   37.8140  -17.2230   16.3810 C   0  0  0  0  0  0  0  0  0  0  0  0
   38.4610  -15.8720   16.0700 C   0  0  0  0  0  0  0  0  0  0  0  0
   35.4700  -18.1180   13.6930 N   0  0  0  0  0  0  0  0  0  0  0  0
   33.4600  -16.7910   14.2020 N   0  0  0  0  0  0  0  0  0  0  0  0
   32.6690  -17.2630   13.0570 C   0  0  0  0  0  0  0  0  0  0  0  0
   31.7860  -15.3960   15.0320 O   0  0  0  0  0  0  0  0  0  0  0  0
   33.6810  -15.3900   16.2660 N   0  0  0  0  0  0  0  0  0  0  0  0
   33.0710  -14.4240   17.1940 C   0  0  0  0  0  0  0  0  0  0  0  0
   35.6670  -15.4390   17.4690 O   0  0  0  0  0  0  0  0  0  0  0  0
   40.4089  -16.1675   16.8785 H   0  0  0  0  0  0  0  0  0  0  0  0
   40.1113  -15.4442   19.0829 H   0  0  0  0  0  0  0  0  0  0  0  0
   38.6344  -14.5046   18.6798 H   0  0  0  0  0  0  0  0  0  0  0  0
   38.5844  -16.3002   18.6798 H   0  0  0  0  0  0  0  0  0  0  0  0
   40.2988  -13.4395   17.4652 H   0  0  0  0  0  0  0  0  0  0  0  0
   41.0053  -14.1386   15.9689 H   0  0  0  0  0  0  0  0  0  0  0  0
   39.3104  -13.5436   15.9689 H   0  0  0  0  0  0  0  0  0  0  0  0
   37.4960  -19.5485   12.8790 H   0  0  0  0  0  0  0  0  0  0  0  0
   37.9574  -19.8597   14.6341 H   0  0  0  0  0  0  0  0  0  0  0  0
   40.0697  -20.0877   14.5687 H   0  0  0  0  0  0  0  0  0  0  0  0
   40.9191  -18.5235   14.7201 H   0  0  0  0  0  0  0  0  0  0  0  0
   40.6873  -18.3312    6.9766 H   0  0  0  0  0  0  0  0  0  0  0  0
   43.2766  -17.7734    6.6005 H   0  0  0  0  0  0  0  0  0  0  0  0
   44.4505  -17.6726    9.0126 H   0  0  0  0  0  0  0  0  0  0  0  0
   40.5522  -20.1623   12.1344 H   0  0  0  0  0  0  0  0  0  0  0  0
   42.0788  -19.9558   13.0288 H   0  0  0  0  0  0  0  0  0  0  0  0
   40.2593  -16.8310   10.9060 H   0  0  0  0  0  0  0  0  0  0  0  0
   39.5898  -18.4831   10.9284 H   0  0  0  0  0  0  0  0  0  0  0  0
   39.6472  -16.4709   13.2520 H   0  0  0  0  0  0  0  0  0  0  0  0
   38.1976  -17.0599   12.3664 H   0  0  0  0  0  0  0  0  0  0  0  0
   37.4285  -17.2257   17.4112 H   0  0  0  0  0  0  0  0  0  0  0  0
   38.5505  -18.0345   16.2861 H   0  0  0  0  0  0  0  0  0  0  0  0
   38.8577  -15.9204   15.0452 H   0  0  0  0  0  0  0  0  0  0  0  0
   37.6642  -15.1285   16.2194 H   0  0  0  0  0  0  0  0  0  0  0  0
   31.7777  -17.7948   13.4214 H   0  0  0  0  0  0  0  0  0  0  0  0
   32.3584  -16.4025   12.4463 H   0  0  0  0  0  0  0  0  0  0  0  0
   33.2788  -17.9450   12.4463 H   0  0  0  0  0  0  0  0  0  0  0  0
   33.2682  -14.7362   18.2302 H   0  0  0  0  0  0  0  0  0  0  0  0
   33.5039  -13.4274   17.0227 H   0  0  0  0  0  0  0  0  0  0  0  0
   31.9851  -14.3865   17.0227 H   0  0  0  0  0  0  0  0  0  0  0  0
 15 14  2  0
 15 16  1  0
 14 13  1  0
 16 12  2  0
 13 12  1  0
 12 11  1  0
 11 10  2  0
 11 17  1  0
 19 17  1  0
 19 20  1  0
 17 18  1  0
 20 21  1  0
 18  9  1  0
 28 27  1  0
 21  8  1  0
 21  9  1  0
 26 22  2  0
 26  3  1  0
  8 22  1  0
 27  3  1  0
 27  4  1  0
 22 23  1  0
  3  2  2  0
 29  4  2  0
  4 30  1  0
 23  2  1  0
 23 24  1  0
  2  1  1  0
 25 24  1  0
 25  5  1  0
 30  1  1  0
 30 31  1  0
  1 32  2  0
  7  5  1  0
  5  6  1  0
  5 33  1  0
  6 34  1  0
  6 35  1  0
  6 36  1  0
  7 37  1  0
  7 38  1  0
  7 39  1  0
  8 40  1  0
  8 41  1  0
  9 42  1  0
  9 43  1  0
 14 44  1  0
 15 45  1  0
 16 46  1  0
 18 47  1  0
 18 48  1  0
 19 49  1  0
 19 50  1  0
 20 51  1  0
 20 52  1  0
 24 53  1  0
 24 54  1  0
 25 55  1  0
 25 56  1  0
 28 57  1  0
 28 58  1  0
 28 59  1  0
 31 60  1  0
 31 61  1  0
 31 62  1  0
A    1
C1
A    2
C2
A    3
C3
A    4
C5
A    5
C16
A    6
C17
A    7
C18
A    8
C19
A    9
C21
A   10
O32
A   11
C26
A   12
C27
A   13
O31
A   14
C30
A   15
C29
A   16
C28
A   17
N23
A   18
C22
A   19
C24
A   20
C25
A   21
N20
A   22
C8
A   23
N7
A   24
C14
A   25
C15
A   26
N9
A   27
N4
A   28
C12
A   29
O11
A   30
N6
A   31
C13
A   32
O10
M  END
