4WPD_3SQ_A_401
     RDKit          3D

 19 20  0  0  0  0  0  0  0  0999 V2000
   31.3290    1.3200   -6.3320 C   0  0  0  0  0  0  0  0  0  0  0  0
   30.3830    2.2770   -6.6670 C   0  0  0  0  0  0  0  0  0  0  0  0
   31.4210    2.8130   -4.7630 C   0  0  0  0  0  0  0  0  0  0  0  0
   29.4480    2.3030   -7.7790 C   0  0  0  0  0  0  0  0  0  0  0  0
   28.3690    3.1990   -7.7560 C   0  0  0  0  0  0  0  0  0  0  0  0
   29.6190    1.3900   -8.8080 C   0  0  0  0  0  0  0  0  0  0  0  0
   28.6950    1.3860   -9.8710 C   0  0  0  0  0  0  0  0  0  0  0  0
   27.6430    2.2880   -9.8240 C   0  0  0  0  0  0  0  0  0  0  0  0
   27.4590    3.1920   -8.7970 C   0  0  0  0  0  0  0  0  0  0  0  0
   31.9950    1.6450   -5.1520 N   0  0  0  0  0  0  0  0  0  0  0  0
   30.4380    3.2060   -5.6380 N   0  0  0  0  0  0  0  0  0  0  0  0
   26.7480    2.2960  -10.8210 F   0  0  0  0  0  0  0  0  0  0  0  0
   31.5291    0.4154   -6.9250 H   0  0  0  0  0  0  0  0  0  0  0  0
   31.7074    3.3735   -3.8609 H   0  0  0  0  0  0  0  0  0  0  0  0
   28.2479    3.9007   -6.9176 H   0  0  0  0  0  0  0  0  0  0  0  0
   30.4606    0.6819   -8.7946 H   0  0  0  0  0  0  0  0  0  0  0  0
   28.8047    0.6877  -10.7138 H   0  0  0  0  0  0  0  0  0  0  0  0
   26.6089    3.8900   -8.8066 H   0  0  0  0  0  0  0  0  0  0  0  0
   32.7479    1.1211   -4.6834 H   0  0  0  0  0  0  0  0  0  0  0  0
 12  8  1  0
  7  8  2  0
  7  6  1  0
  8  9  1  0
  6  4  2  0
  9  5  2  0
  4  5  1  0
  4  2  1  0
  2  1  2  0
  2 11  1  0
  1 10  1  0
 11  3  2  0
 10  3  1  0
  1 13  1  0
  3 14  1  0
  5 15  1  0
  6 16  1  0
  7 17  1  0
  9 18  1  0
 10 19  1  0
A    1
C2
A    2
C4
A    3
C5
A    4
C6
A    5
C7
A    6
C11
A    7
C10
A    8
C9
A    9
C8
A   10
N1
A   11
N3
A   12
F
M  END
