4WPF_3SN_A_601
     RDKit          3D

 59 62  0  0  0  0  0  0  0  0999 V2000
    4.7440   55.8560    3.3090 C   0  0  0  0  0  0  0  0  0  0  0  0
    4.9260   61.4990    3.6330 C   0  0  0  0  0  0  0  0  0  0  0  0
    4.9530   60.0090    4.0070 C   0  0  0  0  0  0  0  0  0  0  0  0
    7.1470   57.1900    3.6260 C   0  0  0  0  0  0  0  0  0  0  0  0
    7.3540   59.8830    3.5730 C   0  0  0  0  0  0  0  0  0  0  0  0
    7.4010   61.3650    3.1600 C   0  0  0  0  0  0  0  0  0  0  0  0
    5.9860   57.9250    3.3610 C   0  0  0  0  0  0  0  0  0  0  0  0
    7.1050   55.8080    3.7340 C   0  0  0  0  0  0  0  0  0  0  0  0
    5.9040   55.1310    3.5790 C   0  0  0  0  0  0  0  0  0  0  0  0
    7.8810   63.7090    4.8250 C   0  0  0  0  0  0  0  0  0  0  0  0
    6.4920   63.1470    4.6160 C   0  0  0  0  0  0  0  0  0  0  0  0
    5.5520   63.6920    5.1590 O   0  0  0  0  0  0  0  0  0  0  0  0
    6.2830   62.0540    3.8340 N   0  0  0  0  0  0  0  0  0  0  0  0
    6.0260   59.3280    3.2500 N   0  0  0  0  0  0  0  0  0  0  0  0
    4.7810   57.2400    3.2030 C   0  0  0  0  0  0  0  0  0  0  0  0
    3.5600   55.2240    3.1570 F   0  0  0  0  0  0  0  0  0  0  0  0
    5.8620   53.6210    3.7050 C   0  0  0  0  0  0  0  0  0  0  0  0
    6.0680   53.1390    5.0930 N   0  0  0  0  0  0  0  0  0  0  0  0
    4.9950   53.1560    6.1210 C   0  0  0  0  0  0  0  0  0  0  0  0
    3.8220   54.1520    5.9990 C   0  0  0  0  0  0  0  0  0  0  0  0
    2.9500   53.0470    6.6210 C   0  0  0  0  0  0  0  0  0  0  0  0
    3.9280   52.0540    5.9690 C   0  0  0  0  0  0  0  0  0  0  0  0
    7.5470   52.5010    5.5580 S   0  0  0  0  0  0  0  0  0  0  0  0
    8.5730   53.0840    4.7630 O   0  0  0  0  0  0  0  0  0  0  0  0
    7.6170   52.5310    6.9790 O   0  0  0  0  0  0  0  0  0  0  0  0
    7.5030   50.7920    5.1260 C   0  0  0  0  0  0  0  0  0  0  0  0
    6.7630   49.9040    5.8960 C   0  0  0  0  0  0  0  0  0  0  0  0
    6.7210   48.5610    5.5610 C   0  0  0  0  0  0  0  0  0  0  0  0
    7.4200   48.1100    4.4520 C   0  0  0  0  0  0  0  0  0  0  0  0
    8.1620   48.9920    3.6780 C   0  0  0  0  0  0  0  0  0  0  0  0
    8.2050   50.3360    4.0170 C   0  0  0  0  0  0  0  0  0  0  0  0
    4.2081   62.0305    4.2749 H   0  0  0  0  0  0  0  0  0  0  0  0
    4.6188   61.6205    2.5838 H   0  0  0  0  0  0  0  0  0  0  0  0
    3.9835   59.5517    3.7600 H   0  0  0  0  0  0  0  0  0  0  0  0
    5.1440   59.9059    5.0854 H   0  0  0  0  0  0  0  0  0  0  0  0
    8.1055   57.7153    3.7503 H   0  0  0  0  0  0  0  0  0  0  0  0
    8.1283   59.3246    3.0264 H   0  0  0  0  0  0  0  0  0  0  0  0
    7.5362   59.7962    4.6543 H   0  0  0  0  0  0  0  0  0  0  0  0
    8.3576   61.8104    3.4707 H   0  0  0  0  0  0  0  0  0  0  0  0
    7.3125   61.4638    2.0680 H   0  0  0  0  0  0  0  0  0  0  0  0
    8.0274   55.2465    3.9434 H   0  0  0  0  0  0  0  0  0  0  0  0
    8.0848   63.7915    5.9028 H   0  0  0  0  0  0  0  0  0  0  0  0
    8.6209   63.0395    4.3621 H   0  0  0  0  0  0  0  0  0  0  0  0
    7.9472   64.7047    4.3621 H   0  0  0  0  0  0  0  0  0  0  0  0
    3.8567   57.7984    2.9937 H   0  0  0  0  0  0  0  0  0  0  0  0
    4.8799   53.2693    3.3560 H   0  0  0  0  0  0  0  0  0  0  0  0
    6.6871   53.2216    3.0970 H   0  0  0  0  0  0  0  0  0  0  0  0
    5.7006   53.2344    6.9612 H   0  0  0  0  0  0  0  0  0  0  0  0
    3.9215   55.0621    6.6088 H   0  0  0  0  0  0  0  0  0  0  0  0
    3.5623   54.6425    5.0493 H   0  0  0  0  0  0  0  0  0  0  0  0
    1.9189   53.0003    6.2407 H   0  0  0  0  0  0  0  0  0  0  0  0
    2.7079   53.0194    7.6937 H   0  0  0  0  0  0  0  0  0  0  0  0
    3.6880   51.7819    4.9306 H   0  0  0  0  0  0  0  0  0  0  0  0
    4.0760   51.0347    6.3552 H   0  0  0  0  0  0  0  0  0  0  0  0
    6.2091   50.2683    6.7738 H   0  0  0  0  0  0  0  0  0  0  0  0
    6.1367   47.8564    6.1710 H   0  0  0  0  0  0  0  0  0  0  0  0
    7.3865   47.0439    4.1829 H   0  0  0  0  0  0  0  0  0  0  0  0
    8.7136   48.6262    2.7994 H   0  0  0  0  0  0  0  0  0  0  0  0
    8.7934   51.0393    3.4094 H   0  0  0  0  0  0  0  0  0  0  0  0
 16  1  1  0
  6  5  1  0
  6 13  1  0
 15  1  2  0
 15  7  1  0
 14  7  1  0
 14  5  1  0
 14  3  1  0
  1  9  1  0
  7  4  2  0
  9 17  1  0
  9  8  2  0
  4  8  1  0
  2 13  1  0
  2  3  1  0
 30 31  2  0
 30 29  1  0
 17 18  1  0
 13 11  1  0
 31 26  1  0
 29 28  2  0
 11 10  1  0
 11 12  2  0
 24 23  2  0
 18 23  1  0
 18 19  1  0
 26 23  1  0
 26 27  2  0
 23 25  2  0
 28 27  1  0
 22 19  1  0
 22 21  1  0
 20 19  1  0
 20 21  1  0
  2 32  1  0
  2 33  1  0
  3 34  1  0
  3 35  1  0
  4 36  1  0
  5 37  1  0
  5 38  1  0
  6 39  1  0
  6 40  1  0
  8 41  1  0
 10 42  1  0
 10 43  1  0
 10 44  1  0
 15 45  1  0
 17 46  1  0
 17 47  1  0
 19 48  1  0
 20 49  1  0
 20 50  1  0
 21 51  1  0
 21 52  1  0
 22 53  1  0
 22 54  1  0
 27 55  1  0
 28 56  1  0
 29 57  1  0
 30 58  1  0
 31 59  1  0
A    1
C14
A    2
C5
A    3
C6
A    4
C11
A    5
C8
A    6
C9
A    7
C10
A    8
C12
A    9
C13
A   10
C1
A   11
C2
A   12
O3
A   13
N4
A   14
N7
A   15
C15
A   16
F16
A   17
C17
A   18
N18
A   19
C19
A   20
C20
A   21
C21
A   22
C22
A   23
S23
A   24
O24
A   25
O25
A   26
C26
A   27
C27
A   28
C28
A   29
C29
A   30
C30
A   31
C31
M  END
