4WQ2_3SU_A_301
     RDKit          3D

 24 25  0  0  0  0  0  0  0  0999 V2000
    4.4870    9.1370   35.2340 O   0  0  0  0  0  0  0  0  0  0  0  0
    5.1840    8.6020   34.3580 C   0  0  0  0  0  0  0  0  0  0  0  0
    4.6600    8.2460   33.2860 O   0  0  0  0  0  0  0  0  0  0  0  0
    6.6660    8.3430   34.6330 C   0  0  0  0  0  0  0  0  0  0  0  0
    7.2580    8.9170   36.1150 S   0  0  0  0  0  0  0  0  0  0  0  0
    7.5650    7.7910   33.5050 C   0  0  0  0  0  0  0  0  0  0  0  0
    8.8520    7.4140   33.6480 C   0  0  0  0  0  0  0  0  0  0  0  0
    9.4770    6.6760   32.7030 C   0  0  0  0  0  0  0  0  0  0  0  0
    9.1060    6.2270   31.4970 C   0  0  0  0  0  0  0  0  0  0  0  0
   10.0050    5.5130   30.6660 C   0  0  0  0  0  0  0  0  0  0  0  0
   11.2430    5.3180   31.1610 C   0  0  0  0  0  0  0  0  0  0  0  0
   12.4400    4.2430   30.3440 Br  0  0  0  0  0  0  0  0  0  0  0  0
   11.5730    5.7730   32.4340 C   0  0  0  0  0  0  0  0  0  0  0  0
   10.7270    6.4930   33.1540 C   0  0  0  0  0  0  0  0  0  0  0  0
   10.8500    7.0480   34.3730 N   0  0  0  0  0  0  0  0  0  0  0  0
    9.6740    7.6110   34.6960 C   0  0  0  0  0  0  0  0  0  0  0  0
    4.6891    8.9819   36.1907 H   0  0  0  0  0  0  0  0  0  0  0  0
    6.6071    8.2859   37.1421 H   0  0  0  0  0  0  0  0  0  0  0  0
    7.1194    7.6978   32.5036 H   0  0  0  0  0  0  0  0  0  0  0  0
    8.0816    6.4165   31.1439 H   0  0  0  0  0  0  0  0  0  0  0  0
    9.7093    5.1397   29.6744 H   0  0  0  0  0  0  0  0  0  0  0  0
   12.5606    5.5285   32.8521 H   0  0  0  0  0  0  0  0  0  0  0  0
   11.6983    7.0423   34.9571 H   0  0  0  0  0  0  0  0  0  0  0  0
    9.4301    8.1315   35.6339 H   0  0  0  0  0  0  0  0  0  0  0  0
 12 11  1  0
 10 11  2  0
 10  9  1  0
 11 13  1  0
  9  8  2  0
 13 14  2  0
  8 14  1  0
  8  7  1  0
 14 15  1  0
  3  2  2  0
  6  7  1  0
  6  4  2  0
  7 16  2  0
  2  4  1  0
  2  1  1  0
 15 16  1  0
  4  5  1  0
  1 17  1  0
  5 18  1  0
  6 19  1  0
  9 20  1  0
 10 21  1  0
 13 22  1  0
 15 23  1  0
 16 24  1  0
A    1
OAM
A    2
CAL
A    3
OAN
A    4
CAJ
A    5
SAP
A    6
CAI
A    7
CAH
A    8
CAE
A    9
CAD
A   10
CAC
A   11
CAB
A   12
BR
A   13
CAG
A   14
CAF
A   15
NAA
A   16
CAK
M  END
