4WQP_3SX_A_601
     RDKit          3D

 64 66  0  0  0  0  0  0  0  0999 V2000
    7.7450  -32.6500   -1.6640 C   0  0  0  0  0  0  0  0  0  0  0  0
   11.4650  -27.2170   -1.3250 C   0  0  0  0  0  0  0  0  0  0  0  0
    7.1510  -31.2930   -3.7570 C   0  0  0  0  0  0  0  0  0  0  0  0
   10.6270  -29.6980   -3.9110 C   0  0  0  0  0  0  0  0  0  0  0  0
    8.3380  -30.3770   -3.5190 C   0  0  0  0  0  0  0  0  0  0  0  0
    8.1850  -29.3280   -2.6230 C   0  0  0  0  0  0  0  0  0  0  0  0
    9.2360  -28.4680   -2.3680 C   0  0  0  0  0  0  0  0  0  0  0  0
   10.4680  -28.6400   -3.0020 C   0  0  0  0  0  0  0  0  0  0  0  0
    9.5590  -30.5660   -4.1640 C   0  0  0  0  0  0  0  0  0  0  0  0
    6.8410  -32.0740    0.5900 C   0  0  0  0  0  0  0  0  0  0  0  0
    5.2420  -32.9010   -1.1270 C   0  0  0  0  0  0  0  0  0  0  0  0
    6.6750  -32.9940   -0.6210 C   0  0  0  0  0  0  0  0  0  0  0  0
    7.3120  -32.5900   -3.0690 N   0  0  0  0  0  0  0  0  0  0  0  0
   11.5010  -27.7260   -2.7130 N   0  0  0  0  0  0  0  0  0  0  0  0
   12.3060  -25.9390   -1.2720 C   0  0  0  0  0  0  0  0  0  0  0  0
   13.6580  -26.3140   -1.7380 N   0  0  0  0  0  0  0  0  0  0  0  0
   13.7540  -26.8900   -3.0980 C   0  0  0  0  0  0  0  0  0  0  0  0
   12.8600  -28.1340   -3.1500 C   0  0  0  0  0  0  0  0  0  0  0  0
   14.7470  -26.1620   -0.9330 C   0  0  0  0  0  0  0  0  0  0  0  0
   14.6230  -25.6940    0.1780 O   0  0  0  0  0  0  0  0  0  0  0  0
   16.1350  -26.5530   -1.3840 C   0  0  0  0  0  0  0  0  0  0  0  0
    7.6460  -33.8590   -4.0970 S   0  0  0  0  0  0  0  0  0  0  0  0
    7.9240  -33.2390   -5.3470 O   0  0  0  0  0  0  0  0  0  0  0  0
    8.6380  -34.6530   -3.4510 O   0  0  0  0  0  0  0  0  0  0  0  0
    6.0540  -34.7530   -4.1640 C   0  0  0  0  0  0  0  0  0  0  0  0
    5.9530  -35.9070   -5.1460 C   0  0  0  0  0  0  0  0  0  0  0  0
    5.6830  -35.6800   -6.4910 C   0  0  0  0  0  0  0  0  0  0  0  0
    5.5720  -36.7370   -7.3880 C   0  0  0  0  0  0  0  0  0  0  0  0
    5.7220  -38.0390   -6.9380 C   0  0  0  0  0  0  0  0  0  0  0  0
    5.9820  -38.2760   -5.5950 C   0  0  0  0  0  0  0  0  0  0  0  0
    6.0900  -37.2180   -4.7000 C   0  0  0  0  0  0  0  0  0  0  0  0
    8.1597  -31.6654   -1.4020 H   0  0  0  0  0  0  0  0  0  0  0  0
    8.4639  -33.4815   -1.6214 H   0  0  0  0  0  0  0  0  0  0  0  0
   11.8837  -27.9689   -0.6399 H   0  0  0  0  0  0  0  0  0  0  0  0
   10.4291  -27.0076   -1.0198 H   0  0  0  0  0  0  0  0  0  0  0  0
    7.0514  -31.4732   -4.8376 H   0  0  0  0  0  0  0  0  0  0  0  0
    6.2535  -30.8012   -3.3536 H   0  0  0  0  0  0  0  0  0  0  0  0
   11.5893  -29.8444   -4.4234 H   0  0  0  0  0  0  0  0  0  0  0  0
    7.2216  -29.1805   -2.1130 H   0  0  0  0  0  0  0  0  0  0  0  0
    9.1006  -27.6389   -1.6579 H   0  0  0  0  0  0  0  0  0  0  0  0
    9.6832  -31.3982   -4.8725 H   0  0  0  0  0  0  0  0  0  0  0  0
    6.7350  -32.6614    1.5140 H   0  0  0  0  0  0  0  0  0  0  0  0
    7.8375  -31.6090    0.5634 H   0  0  0  0  0  0  0  0  0  0  0  0
    6.0698  -31.2901    0.5634 H   0  0  0  0  0  0  0  0  0  0  0  0
    4.5530  -32.8563   -0.2707 H   0  0  0  0  0  0  0  0  0  0  0  0
    5.1270  -31.9935   -1.7379 H   0  0  0  0  0  0  0  0  0  0  0  0
    5.0107  -33.7860   -1.7379 H   0  0  0  0  0  0  0  0  0  0  0  0
    6.8356  -34.0499   -0.3579 H   0  0  0  0  0  0  0  0  0  0  0  0
   11.8748  -25.1714   -1.9315 H   0  0  0  0  0  0  0  0  0  0  0  0
   12.3348  -25.5205   -0.2551 H   0  0  0  0  0  0  0  0  0  0  0  0
   13.4123  -26.1535   -3.8402 H   0  0  0  0  0  0  0  0  0  0  0  0
   14.7960  -27.1586   -3.3265 H   0  0  0  0  0  0  0  0  0  0  0  0
   13.2546  -28.9084   -2.4757 H   0  0  0  0  0  0  0  0  0  0  0  0
   12.8312  -28.5479   -4.1688 H   0  0  0  0  0  0  0  0  0  0  0  0
   16.7698  -26.7318   -0.5036 H   0  0  0  0  0  0  0  0  0  0  0  0
   16.0793  -27.4704   -1.9884 H   0  0  0  0  0  0  0  0  0  0  0  0
   16.5664  -25.7414   -1.9884 H   0  0  0  0  0  0  0  0  0  0  0  0
    5.8559  -35.1540   -3.1590 H   0  0  0  0  0  0  0  0  0  0  0  0
    5.3239  -34.0107   -4.5189 H   0  0  0  0  0  0  0  0  0  0  0  0
    5.5552  -34.6485   -6.8511 H   0  0  0  0  0  0  0  0  0  0  0  0
    5.3660  -36.5403   -8.4505 H   0  0  0  0  0  0  0  0  0  0  0  0
    5.6355  -38.8804   -7.6412 H   0  0  0  0  0  0  0  0  0  0  0  0
    6.1034  -39.3088   -5.2365 H   0  0  0  0  0  0  0  0  0  0  0  0
    6.2844  -37.4177   -3.6359 H   0  0  0  0  0  0  0  0  0  0  0  0
 11 12  1  0
 20 19  2  0
 12 10  1  0
 12  1  1  0
 19 21  1  0
 19 16  1  0
 15  2  1  0
 15 16  1  0
  2 14  1  0
  1 13  1  0
 16 17  1  0
  4  9  2  0
  4  8  1  0
  9  5  1  0
 14  8  1  0
 14 18  1  0
 13  3  1  0
 13 22  1  0
  8  7  2  0
 17 18  1  0
 24 22  2  0
  5  3  1  0
  5  6  2  0
  7  6  1  0
 22 25  1  0
 22 23  2  0
 25 26  1  0
 27 26  2  0
 27 28  1  0
 26 31  1  0
 28 29  2  0
 31 30  2  0
 29 30  1  0
  1 32  1  0
  1 33  1  0
  2 34  1  0
  2 35  1  0
  3 36  1  0
  3 37  1  0
  4 38  1  0
  6 39  1  0
  7 40  1  0
  9 41  1  0
 10 42  1  0
 10 43  1  0
 10 44  1  0
 11 45  1  0
 11 46  1  0
 11 47  1  0
 12 48  1  0
 15 49  1  0
 15 50  1  0
 17 51  1  0
 17 52  1  0
 18 53  1  0
 18 54  1  0
 21 55  1  0
 21 56  1  0
 21 57  1  0
 25 58  1  0
 25 59  1  0
 27 60  1  0
 28 61  1  0
 29 62  1  0
 30 63  1  0
 31 64  1  0
A    1
C4
A    2
C14
A    3
C6
A    4
C11
A    5
C7
A    6
C8
A    7
C9
A    8
C10
A    9
C12
A   10
C3
A   11
C1
A   12
C2
A   13
N5
A   14
N13
A   15
C15
A   16
N16
A   17
C17
A   18
C18
A   19
C19
A   20
O20
A   21
C21
A   22
S22
A   23
O23
A   24
O24
A   25
C25
A   26
C26
A   27
C27
A   28
C28
A   29
C29
A   30
C30
A   31
C31
M  END
