4WRH_YY1_A_403
     RDKit          3D

 12 12  0  0  0  0  0  0  0  0999 V2000
   -1.8990   -3.7870  -14.8660 C   0  0  0  0  0  0  0  0  0  0  0  0
   -1.1280   -3.0340  -13.7900 C   0  0  0  0  0  0  0  0  0  0  0  0
   -1.6120   -2.4810  -12.6960 N   0  0  0  0  0  0  0  0  0  0  0  0
    0.1850   -2.8020  -13.7850 N   0  0  0  0  0  0  0  0  0  0  0  0
    0.4880   -2.2280  -12.8720 N   0  0  0  0  0  0  0  0  0  0  0  0
   -0.5640   -1.9600  -12.0970 C   0  0  0  0  0  0  0  0  0  0  0  0
   -0.5440   -1.0860  -10.5930 S   0  0  0  0  0  0  0  0  0  0  0  0
   -2.6088   -4.4803  -14.3911 H   0  0  0  0  0  0  0  0  0  0  0  0
   -2.4501   -3.0698  -15.4920 H   0  0  0  0  0  0  0  0  0  0  0  0
   -1.1950   -4.3549  -15.4920 H   0  0  0  0  0  0  0  0  0  0  0  0
   -2.5924   -2.4614  -12.3807 H   0  0  0  0  0  0  0  0  0  0  0  0
   -0.5643   -1.9730   -9.5491 H   0  0  0  0  0  0  0  0  0  0  0  0
  1  2  1  0
  2  4  2  0
  2  3  1  0
  4  5  1  0
  5  6  2  0
  3  6  1  0
  6  7  1  0
  1  8  1  0
  1  9  1  0
  1 10  1  0
  3 11  1  0
  7 12  1  0
A    1
CAG
A    2
CAE
A    3
NAA
A    4
NAD
A    5
NAC
A    6
CAB
A    7
SAF
M  END
