4WS2_6UA_A_303
     RDKit          3D

 14 14  0  0  0  0  0  0  0  0999 V2000
   27.0490   -7.7450   40.8460 O   0  0  0  0  0  0  0  0  0  0  0  0
   26.6300   -8.8350   41.3260 C   0  0  0  0  0  0  0  0  0  0  0  0
   27.4800   -9.6610   41.9930 N   0  0  0  0  0  0  0  0  0  0  0  0
   27.0300  -10.8070   42.5460 C   0  0  0  0  0  0  0  0  0  0  0  0
   27.8960  -11.4440   43.2950 O   0  0  0  0  0  0  0  0  0  0  0  0
   25.3400   -9.2080   41.1730 N   0  0  0  0  0  0  0  0  0  0  0  0
   24.8820  -10.3560   41.6870 C   0  0  0  0  0  0  0  0  0  0  0  0
   23.5840  -10.6140   41.4470 N   0  0  0  0  0  0  0  0  0  0  0  0
   25.7170  -11.1970   42.4000 C   0  0  0  0  0  0  0  0  0  0  0  0
   28.4754   -9.4099   42.0768 H   0  0  0  0  0  0  0  0  0  0  0  0
   22.9309  -10.7438   42.2328 H   0  0  0  0  0  0  0  0  0  0  0  0
   23.2431  -10.6818   40.4774 H   0  0  0  0  0  0  0  0  0  0  0  0
   25.2913  -11.3088   43.4081 H   0  0  0  0  0  0  0  0  0  0  0  0
   25.7610  -12.1219   41.8062 H   0  0  0  0  0  0  0  0  0  0  0  0
  1  2  2  0
  6  2  1  0
  6  7  2  0
  2  3  1  0
  8  7  1  0
  7  9  1  0
  3  4  1  0
  9  4  1  0
  4  5  2  0
  3 10  1  0
  8 11  1  0
  8 12  1  0
  9 13  1  0
  9 14  1  0
A    1
O2
A    2
C2
A    3
N3
A    4
C4
A    5
O4
A    6
N1
A    7
C6
A    8
N6
A    9
C5
M  END
