4HK6_5NU_A_402
     RDKit          3D

 14 14  0  0  0  0  0  0  0  0999 V2000
  108.5670   23.4640  -39.8490 O   0  0  0  0  0  0  0  0  0  0  0  0
  109.3940   23.9450  -39.0870 C   0  0  0  0  0  0  0  0  0  0  0  0
  109.1440   23.9090  -37.7260 N   0  0  0  0  0  0  0  0  0  0  0  0
  110.0710   24.4590  -36.8480 C   0  0  0  0  0  0  0  0  0  0  0  0
  109.8580   24.4280  -35.6440 O   0  0  0  0  0  0  0  0  0  0  0  0
  111.2360   25.0530  -37.3360 N   0  0  0  0  0  0  0  0  0  0  0  0
  111.4840   25.0870  -38.6320 C   0  0  0  0  0  0  0  0  0  0  0  0
  110.5760   24.5350  -39.5280 C   0  0  0  0  0  0  0  0  0  0  0  0
  110.8400   24.5330  -40.8270 N   0  0  0  0  0  0  0  0  0  0  0  0
  111.6440   25.4430  -41.2990 O   0  0  0  0  0  0  0  0  0  0  0  0
  110.4280   23.3760  -41.6460 O   0  0  0  0  0  0  0  0  0  0  0  0
  108.2796   23.4789  -37.3673 H   0  0  0  0  0  0  0  0  0  0  0  0
  111.9097   25.4694  -36.6775 H   0  0  0  0  0  0  0  0  0  0  0  0
  112.4092   25.5522  -39.0029 H   0  0  0  0  0  0  0  0  0  0  0  0
 11  9  1  0
 10  9  2  0
  9  8  1  0
  1  2  2  0
  8  2  1  0
  8  7  2  0
  2  3  1  0
  7  6  1  0
  3  4  1  0
  6  4  1  0
  4  5  2  0
  3 12  1  0
  6 13  1  0
  7 14  1  0
M  CHG  2   9   1  11  -1
A    1
O4
A    2
C4
A    3
N3
A    4
C2
A    5
O2
A    6
N1
A    7
C6
A    8
C5
A    9
N51
A   10
O53
A   11
O52
M  END
