1WBU_WBU_A_1125
     RDKit          3D

 14 14  0  0  0  0  0  0  0  0999 V2000
   36.0050   -2.0760   12.4750 N   0  0  0  0  0  0  0  0  0  0  0  0
   35.0820   -2.4020   11.5320 C   0  0  0  0  0  0  0  0  0  0  0  0
   34.7470   -1.5720   10.7110 O   0  0  0  0  0  0  0  0  0  0  0  0
   34.5250   -3.6410   11.4950 N   0  0  0  0  0  0  0  0  0  0  0  0
   34.8830   -4.5870   12.4060 C   0  0  0  0  0  0  0  0  0  0  0  0
   34.3800   -5.7000   12.3700 O   0  0  0  0  0  0  0  0  0  0  0  0
   35.8580   -4.2590   13.4100 C   0  0  0  0  0  0  0  0  0  0  0  0
   36.4020   -3.0040   13.4240 C   0  0  0  0  0  0  0  0  0  0  0  0
   36.2530   -5.2160   14.3660 N   0  0  0  0  0  0  0  0  0  0  0  0
   36.4131   -1.1303   12.4841 H   0  0  0  0  0  0  0  0  0  0  0  0
   33.8266   -3.8660   10.7721 H   0  0  0  0  0  0  0  0  0  0  0  0
   37.1499   -2.7333   14.1839 H   0  0  0  0  0  0  0  0  0  0  0  0
   36.1665   -5.0064   15.3707 H   0  0  0  0  0  0  0  0  0  0  0  0
   36.6282   -6.1251   14.0600 H   0  0  0  0  0  0  0  0  0  0  0  0
  1  2  1  0
  1  8  1  0
  2  3  2  0
  2  4  1  0
  4  5  1  0
  5  6  2  0
  5  7  1  0
  7  8  2  0
  7  9  1  0
  1 10  1  0
  4 11  1  0
  8 12  1  0
  9 13  1  0
  9 14  1  0
A    1
N1
A    2
C2
A    3
O2
A    4
N3
A    5
C4
A    6
O4
A    7
C5
A    8
C6
A    9
N01
M  END
