4WSY_3U5_A_401
     RDKit          3D

 38 42  0  0  0  0  0  0  0  0999 V2000
   22.8820  -40.0570   -2.3950 C   0  0  0  0  0  0  0  0  0  0  0  0
   23.0150  -40.2420   -3.7660 C   0  0  0  0  0  0  0  0  0  0  0  0
   24.1900  -40.7770   -4.2870 C   0  0  0  0  0  0  0  0  0  0  0  0
   24.3100  -40.9660   -5.6650 C   0  0  0  0  0  0  0  0  0  0  0  0
   23.2590  -40.6160   -6.5070 C   0  0  0  0  0  0  0  0  0  0  0  0
   22.0820  -40.0780   -5.9840 C   0  0  0  0  0  0  0  0  0  0  0  0
   21.9680  -39.9000   -4.6140 C   0  0  0  0  0  0  0  0  0  0  0  0
   20.8400  -39.3810   -4.1130 N   0  0  0  0  0  0  0  0  0  0  0  0
   20.6890  -39.1920   -2.8080 C   0  0  0  0  0  0  0  0  0  0  0  0
   21.7040  -39.5030   -1.9010 C   0  0  0  0  0  0  0  0  0  0  0  0
   21.5070  -39.3270   -0.5250 C   0  0  0  0  0  0  0  0  0  0  0  0
   20.6530  -38.3960    0.0280 C   0  0  0  0  0  0  0  0  0  0  0  0
   19.8450  -37.4030   -0.4900 C   0  0  0  0  0  0  0  0  0  0  0  0
   22.0150  -40.0340    0.4890 N   0  0  0  0  0  0  0  0  0  0  0  0
   21.5700  -39.6160    1.5690 N   0  0  0  0  0  0  0  0  0  0  0  0
   20.7360  -38.6090    1.3840 C   0  0  0  0  0  0  0  0  0  0  0  0
   20.0050  -37.8400    2.2580 C   0  0  0  0  0  0  0  0  0  0  0  0
   19.1850  -36.8430    1.7620 C   0  0  0  0  0  0  0  0  0  0  0  0
   19.1270  -36.6190    0.3900 C   0  0  0  0  0  0  0  0  0  0  0  0
   18.2780  -35.6550   -0.1020 C   0  0  0  0  0  0  0  0  0  0  0  0
   17.9690  -35.5390   -1.7350 S   0  0  0  0  0  0  0  0  0  0  0  0
   17.5230  -34.7550    0.5440 C   0  0  0  0  0  0  0  0  0  0  0  0
   16.7670  -33.9940   -0.2640 N   0  0  0  0  0  0  0  0  0  0  0  0
   16.9120  -34.3170   -1.5450 C   0  0  0  0  0  0  0  0  0  0  0  0
   16.2860  -33.7850   -2.5590 N   0  0  0  0  0  0  0  0  0  0  0  0
   23.6944  -40.3437   -1.7111 H   0  0  0  0  0  0  0  0  0  0  0  0
   25.0188  -41.0491   -3.6169 H   0  0  0  0  0  0  0  0  0  0  0  0
   25.2339  -41.3909   -6.0844 H   0  0  0  0  0  0  0  0  0  0  0  0
   23.3564  -40.7644   -7.5926 H   0  0  0  0  0  0  0  0  0  0  0  0
   21.2538  -39.7983   -6.6518 H   0  0  0  0  0  0  0  0  0  0  0  0
   19.7409  -38.7802   -2.4317 H   0  0  0  0  0  0  0  0  0  0  0  0
   19.7755  -37.2412   -1.5758 H   0  0  0  0  0  0  0  0  0  0  0  0
   22.6803  -40.8138    0.3883 H   0  0  0  0  0  0  0  0  0  0  0  0
   20.0717  -38.0160    3.3418 H   0  0  0  0  0  0  0  0  0  0  0  0
   18.5819  -36.2304    2.4484 H   0  0  0  0  0  0  0  0  0  0  0  0
   17.5228  -34.6492    1.6389 H   0  0  0  0  0  0  0  0  0  0  0  0
   15.5108  -33.1262   -2.3976 H   0  0  0  0  0  0  0  0  0  0  0  0
   16.5671  -34.0239   -3.5207 H   0  0  0  0  0  0  0  0  0  0  0  0
  5  6  2  0
  5  4  1  0
  6  7  1  0
  4  3  2  0
  7  8  2  0
  7  2  1  0
  3  2  1  0
  8  9  1  0
  2  1  2  0
  9 10  2  0
 25 24  1  0
  1 10  1  0
 10 11  1  0
 21 24  1  0
 21 20  1  0
 24 23  2  0
 11 12  2  0
 11 14  1  0
 13 12  1  0
 13 19  2  0
 23 22  1  0
 20 19  1  0
 20 22  2  0
 12 16  1  0
 19 18  1  0
 14 15  1  0
 16 15  2  0
 16 17  1  0
 18 17  2  0
  1 26  1  0
  3 27  1  0
  4 28  1  0
  5 29  1  0
  6 30  1  0
  9 31  1  0
 13 32  1  0
 14 33  1  0
 17 34  1  0
 18 35  1  0
 22 36  1  0
 25 37  1  0
 25 38  1  0
A    1
C12
A    2
C11
A    3
C16
A    4
C15
A    5
C14
A    6
C13
A    7
C10
A    8
N3
A    9
C9
A   10
C8
A   11
C7
A   12
C2
A   13
C3
A   14
N2
A   15
N1
A   16
C1
A   17
C6
A   18
C5
A   19
C4
A   20
C17
A   21
S1
A   22
C19
A   23
N4
A   24
C18
A   25
N5
M  END
