4WT6_3U6_A_401
     RDKit          3D

 47 51  0  0  0  0  0  0  0  0999 V2000
  -40.3810   -2.8630    5.3650 C   0  0  0  0  0  0  0  0  0  0  0  0
  -39.0650   -2.1620    5.1070 C   0  0  0  0  0  0  0  0  0  0  0  0
  -39.5230   -0.7400    4.8090 C   0  0  0  0  0  0  0  0  0  0  0  0
  -40.7430   -0.9380    3.9050 C   0  0  0  0  0  0  0  0  0  0  0  0
  -41.3200   -2.3100    4.2850 C   0  0  0  0  0  0  0  0  0  0  0  0
  -42.6930   -2.1790    4.8470 N   0  0  0  0  0  0  0  0  0  0  0  0
  -43.7630   -1.9090    4.1030 C   0  0  0  0  0  0  0  0  0  0  0  0
  -43.6450   -1.8760    2.7670 N   0  0  0  0  0  0  0  0  0  0  0  0
  -44.9790   -1.6420    4.7170 C   0  0  0  0  0  0  0  0  0  0  0  0
  -46.0780   -1.3380    3.9160 C   0  0  0  0  0  0  0  0  0  0  0  0
  -45.9320   -1.3190    2.5330 C   0  0  0  0  0  0  0  0  0  0  0  0
  -44.6830   -1.5860    1.9630 C   0  0  0  0  0  0  0  0  0  0  0  0
  -44.5180   -1.5960    0.5700 C   0  0  0  0  0  0  0  0  0  0  0  0
  -43.3230   -1.8900   -0.0820 C   0  0  0  0  0  0  0  0  0  0  0  0
  -42.0310   -2.1910    0.3510 C   0  0  0  0  0  0  0  0  0  0  0  0
  -45.4470   -1.3900   -0.3670 C   0  0  0  0  0  0  0  0  0  0  0  0
  -44.8910   -1.5240   -1.5780 N   0  0  0  0  0  0  0  0  0  0  0  0
  -43.6080   -1.8220   -1.4410 C   0  0  0  0  0  0  0  0  0  0  0  0
  -42.6270   -2.0570   -2.3800 C   0  0  0  0  0  0  0  0  0  0  0  0
  -41.3370   -2.3560   -1.9570 C   0  0  0  0  0  0  0  0  0  0  0  0
  -41.0270   -2.4150   -0.5930 C   0  0  0  0  0  0  0  0  0  0  0  0
  -39.7320   -2.7500   -0.2310 C   0  0  0  0  0  0  0  0  0  0  0  0
  -39.1900   -3.0270    1.3760 S   0  0  0  0  0  0  0  0  0  0  0  0
  -38.6960   -2.9980   -1.0630 N   0  0  0  0  0  0  0  0  0  0  0  0
  -37.6240   -3.3130   -0.5060 N   0  0  0  0  0  0  0  0  0  0  0  0
  -37.6820   -3.3820    0.8350 C   0  0  0  0  0  0  0  0  0  0  0  0
  -36.6990   -3.7140    1.6420 N   0  0  0  0  0  0  0  0  0  0  0  0
  -40.7594   -2.6250    6.3701 H   0  0  0  0  0  0  0  0  0  0  0  0
  -40.2901   -3.9585    5.3236 H   0  0  0  0  0  0  0  0  0  0  0  0
  -38.5387   -2.6018    4.2470 H   0  0  0  0  0  0  0  0  0  0  0  0
  -38.3506   -2.2346    5.9402 H   0  0  0  0  0  0  0  0  0  0  0  0
  -38.7359   -0.1746    4.2886 H   0  0  0  0  0  0  0  0  0  0  0  0
  -39.7529   -0.1651    5.7182 H   0  0  0  0  0  0  0  0  0  0  0  0
  -40.4427   -0.9274    2.8468 H   0  0  0  0  0  0  0  0  0  0  0  0
  -41.4825   -0.1345    4.0373 H   0  0  0  0  0  0  0  0  0  0  0  0
  -41.3894   -2.9655    3.4044 H   0  0  0  0  0  0  0  0  0  0  0  0
  -42.8208   -2.3035    5.8614 H   0  0  0  0  0  0  0  0  0  0  0  0
  -45.0731   -1.6698    5.8126 H   0  0  0  0  0  0  0  0  0  0  0  0
  -47.0530   -1.1149    4.3738 H   0  0  0  0  0  0  0  0  0  0  0  0
  -46.7957   -1.0948    1.8898 H   0  0  0  0  0  0  0  0  0  0  0  0
  -41.8057   -2.2512    1.4260 H   0  0  0  0  0  0  0  0  0  0  0  0
  -46.5027   -1.1483   -0.1744 H   0  0  0  0  0  0  0  0  0  0  0  0
  -45.3841   -1.4127   -2.4754 H   0  0  0  0  0  0  0  0  0  0  0  0
  -42.8624   -2.0085   -3.4534 H   0  0  0  0  0  0  0  0  0  0  0  0
  -40.5511   -2.5484   -2.7022 H   0  0  0  0  0  0  0  0  0  0  0  0
  -36.8327   -3.6688    2.6623 H   0  0  0  0  0  0  0  0  0  0  0  0
  -35.7950   -4.0193    1.2541 H   0  0  0  0  0  0  0  0  0  0  0  0
 19 20  2  0
 19 18  1  0
 20 21  1  0
 17 18  1  0
 17 16  1  0
 18 14  2  0
 24 25  1  0
 24 22  2  0
 21 22  1  0
 21 15  2  0
 25 26  2  0
 16 13  2  0
 22 23  1  0
 14 15  1  0
 14 13  1  0
 13 12  1  0
 26 23  1  0
 26 27  1  0
 12 11  1  0
 12  8  2  0
 11 10  2  0
  8  7  1  0
  4  5  1  0
  4  3  1  0
 10  9  1  0
  7  9  2  0
  7  6  1  0
  5  6  1  0
  5  1  1  0
  3  2  1  0
  2  1  1  0
  1 28  1  0
  1 29  1  0
  2 30  1  0
  2 31  1  0
  3 32  1  0
  3 33  1  0
  4 34  1  0
  4 35  1  0
  5 36  1  0
  6 37  1  0
  9 38  1  0
 10 39  1  0
 11 40  1  0
 15 41  1  0
 16 42  1  0
 17 43  1  0
 19 44  1  0
 20 45  1  0
 27 46  1  0
 27 47  1  0
A    1
C17
A    2
C18
A    3
C19
A    4
C20
A    5
C16
A    6
N6
A    7
C15
A    8
N5
A    9
C14
A   10
C13
A   11
C12
A   12
C9
A   13
C8
A   14
C2
A   15
C3
A   16
C7
A   17
N1
A   18
C1
A   19
C6
A   20
C5
A   21
C4
A   22
C10
A   23
S1
A   24
N3
A   25
N2
A   26
C11
A   27
N4
M  END
