4WTU_3UT_A_407
     RDKit          3D

 51 56  0  0  0  0  0  0  0  0999 V2000
   64.3540   50.7710   10.8120 C   0  0  0  0  0  0  0  0  0  0  0  0
   62.9870   50.9820   11.2720 O   0  0  0  0  0  0  0  0  0  0  0  0
   62.7420   52.3590   11.6420 C   0  0  0  0  0  0  0  0  0  0  0  0
   63.7990   52.8740   12.6120 C   0  0  0  0  0  0  0  0  0  0  0  0
   65.0750   52.6430   12.1150 C   0  0  0  0  0  0  0  0  0  0  0  0
   65.3990   51.6060   11.2300 C   0  0  0  0  0  0  0  0  0  0  0  0
   66.7290   51.4210   10.7950 C   0  0  0  0  0  0  0  0  0  0  0  0
   67.1290   50.4110    9.9070 C   0  0  0  0  0  0  0  0  0  0  0  0
   67.6740   52.2640   11.2430 N   0  0  0  0  0  0  0  0  0  0  0  0
   68.9610   52.1610   10.8820 C   0  0  0  0  0  0  0  0  0  0  0  0
   69.8520   53.0410   11.3620 F   0  0  0  0  0  0  0  0  0  0  0  0
   69.4020   51.1820   10.0210 C   0  0  0  0  0  0  0  0  0  0  0  0
   70.7380   51.1510    9.7370 O   0  0  0  0  0  0  0  0  0  0  0  0
   68.4690   50.2820    9.5180 C   0  0  0  0  0  0  0  0  0  0  0  0
   68.8900   49.1960    8.5240 C   0  0  0  0  0  0  0  0  0  0  0  0
   68.5090   47.8080    8.9580 C   0  0  0  0  0  0  0  0  0  0  0  0
   67.4720   47.3620    8.0120 O   0  0  0  0  0  0  0  0  0  0  0  0
   67.2670   48.3400    7.0880 C   0  0  0  0  0  0  0  0  0  0  0  0
   68.0360   49.4040    7.2970 N   0  0  0  0  0  0  0  0  0  0  0  0
   66.3520   48.2230    6.1120 N   0  0  0  0  0  0  0  0  0  0  0  0
   70.3830   49.3110    8.1750 C   0  0  0  0  0  0  0  0  0  0  0  0
   70.9330   48.4570    7.2150 C   0  0  0  0  0  0  0  0  0  0  0  0
   71.2060   50.2570    8.8130 C   0  0  0  0  0  0  0  0  0  0  0  0
   72.5490   50.3310    8.4680 C   0  0  0  0  0  0  0  0  0  0  0  0
   73.0950   49.4670    7.5130 C   0  0  0  0  0  0  0  0  0  0  0  0
   72.2960   48.5180    6.8860 C   0  0  0  0  0  0  0  0  0  0  0  0
   72.8180   47.6420    5.9230 C   0  0  0  0  0  0  0  0  0  0  0  0
   73.8430   46.7590    6.2480 C   0  0  0  0  0  0  0  0  0  0  0  0
   74.3110   45.8870    5.2610 C   0  0  0  0  0  0  0  0  0  0  0  0
   73.7670   45.9140    3.9760 C   0  0  0  0  0  0  0  0  0  0  0  0
   72.7910   46.7540    3.6850 N   0  0  0  0  0  0  0  0  0  0  0  0
   72.3150   47.6050    4.6080 C   0  0  0  0  0  0  0  0  0  0  0  0
   71.3420   48.4400    4.2270 F   0  0  0  0  0  0  0  0  0  0  0  0
   64.3262   50.8326    9.7141 H   0  0  0  0  0  0  0  0  0  0  0  0
   64.6166   49.8089   11.2761 H   0  0  0  0  0  0  0  0  0  0  0  0
   62.7564   52.9808   10.7347 H   0  0  0  0  0  0  0  0  0  0  0  0
   61.7621   52.4135   12.1389 H   0  0  0  0  0  0  0  0  0  0  0  0
   63.6587   53.9551   12.7584 H   0  0  0  0  0  0  0  0  0  0  0  0
   63.6903   52.3422   13.5688 H   0  0  0  0  0  0  0  0  0  0  0  0
   65.8827   53.3169   12.4365 H   0  0  0  0  0  0  0  0  0  0  0  0
   66.3797   49.7101    9.5104 H   0  0  0  0  0  0  0  0  0  0  0  0
   68.1111   47.8230    9.9834 H   0  0  0  0  0  0  0  0  0  0  0  0
   69.3761   47.1312    8.9567 H   0  0  0  0  0  0  0  0  0  0  0  0
   65.3581   48.0959    6.3504 H   0  0  0  0  0  0  0  0  0  0  0  0
   66.6442   48.2604    5.1250 H   0  0  0  0  0  0  0  0  0  0  0  0
   70.2868   47.7248    6.7088 H   0  0  0  0  0  0  0  0  0  0  0  0
   73.1928   51.0798    8.9526 H   0  0  0  0  0  0  0  0  0  0  0  0
   74.1623   49.5389    7.2568 H   0  0  0  0  0  0  0  0  0  0  0  0
   74.2755   46.7474    7.2594 H   0  0  0  0  0  0  0  0  0  0  0  0
   75.1142   45.1740    5.4988 H   0  0  0  0  0  0  0  0  0  0  0  0
   74.1528   45.2330    3.2030 H   0  0  0  0  0  0  0  0  0  0  0  0
 31 30  2  0
 31 32  1  0
 30 29  1  0
 33 32  1  0
 32 27  2  0
 29 28  2  0
 27 28  1  0
 27 26  1  0
 20 18  1  0
 26 22  1  0
 26 25  2  0
 18 19  2  0
 18 17  1  0
 22 21  2  0
 19 15  1  0
 25 24  1  0
 17 16  1  0
 21 15  1  0
 21 23  1  0
 24 23  2  0
 15 16  1  0
 15 14  1  0
 23 13  1  0
 14  8  2  0
 14 12  1  0
 13 12  1  0
  8  7  1  0
 12 10  2  0
  7  6  1  0
  7  9  2  0
  1  6  1  0
  1  2  1  0
 10  9  1  0
 10 11  1  0
  6  5  2  0
  2  3  1  0
  3  4  1  0
  5  4  1  0
  1 34  1  0
  1 35  1  0
  3 36  1  0
  3 37  1  0
  4 38  1  0
  4 39  1  0
  5 40  1  0
  8 41  1  0
 16 42  1  0
 16 43  1  0
 20 44  1  0
 20 45  1  0
 22 46  1  0
 24 47  1  0
 25 48  1  0
 28 49  1  0
 29 50  1  0
 30 51  1  0
A    1
C28
A    2
O29
A    3
C30
A    4
C31
A    5
C32
A    6
C20
A    7
C13
A    8
C14
A    9
N12
A   10
C11
A   11
F33
A   12
C8
A   13
O7
A   14
C9
A   15
C10
A   16
C15
A   17
O16
A   18
C17
A   19
N18
A   20
N19
A   21
C5
A   22
C6
A   23
C4
A   24
C3
A   25
C2
A   26
C1
A   27
C21
A   28
C26
A   29
C25
A   30
C24
A   31
N23
A   32
C22
A   33
F27
M  END
