4WUQ_3UG_A_302
     RDKit          3D

 32 33  0  0  0  0  0  0  0  0999 V2000
   12.8830   34.8640   18.7940 C   0  0  0  0  0  0  0  0  0  0  0  0
   13.4700   36.1060   18.9350 C   0  0  0  0  0  0  0  0  0  0  0  0
   12.0920   34.5820   17.6780 C   0  0  0  0  0  0  0  0  0  0  0  0
   12.4110   36.7730   16.8800 C   0  0  0  0  0  0  0  0  0  0  0  0
   13.2490   37.0510   17.9770 C   0  0  0  0  0  0  0  0  0  0  0  0
   11.6130   33.3470   17.6700 F   0  0  0  0  0  0  0  0  0  0  0  0
   13.0820   33.8120   19.6460 F   0  0  0  0  0  0  0  0  0  0  0  0
   14.4510   36.5190   20.3940 S   0  0  0  0  0  0  0  0  0  0  0  0
   14.6370   35.2260   21.1860 O   0  0  0  0  0  0  0  0  0  0  0  0
   15.9610   37.1770   19.8930 N   0  0  0  0  0  0  0  0  0  0  0  0
   13.7120   37.6580   21.0340 O   0  0  0  0  0  0  0  0  0  0  0  0
   11.8200   35.4980   16.6760 C   0  0  0  0  0  0  0  0  0  0  0  0
   12.2060   37.7880   15.9810 F   0  0  0  0  0  0  0  0  0  0  0  0
   13.7220   38.2990   18.0550 F   0  0  0  0  0  0  0  0  0  0  0  0
   10.8760   35.2940   15.5490 N   0  0  0  0  0  0  0  0  0  0  0  0
   10.0800   34.0760   15.6000 C   0  0  0  0  0  0  0  0  0  0  0  0
   11.2190   35.8070   14.2030 C   0  0  0  0  0  0  0  0  0  0  0  0
   10.3810   35.1010   13.1290 C   0  0  0  0  0  0  0  0  0  0  0  0
    8.9330   34.8500   13.5430 C   0  0  0  0  0  0  0  0  0  0  0  0
    8.7210   34.3660   14.9800 C   0  0  0  0  0  0  0  0  0  0  0  0
   16.5212   37.4211   20.7222 H   0  0  0  0  0  0  0  0  0  0  0  0
   16.4686   36.4808   19.3286 H   0  0  0  0  0  0  0  0  0  0  0  0
    9.9517   33.7592   16.6456 H   0  0  0  0  0  0  0  0  0  0  0  0
   10.5846   33.2705   15.0464 H   0  0  0  0  0  0  0  0  0  0  0  0
   12.2860   35.6248   14.0073 H   0  0  0  0  0  0  0  0  0  0  0  0
   11.0058   36.8856   14.1685 H   0  0  0  0  0  0  0  0  0  0  0  0
   10.8504   34.1319   12.9045 H   0  0  0  0  0  0  0  0  0  0  0  0
   10.3531   35.7681   12.2548 H   0  0  0  0  0  0  0  0  0  0  0  0
    8.3794   35.7926   13.4200 H   0  0  0  0  0  0  0  0  0  0  0  0
    8.5774   34.0324   12.8988 H   0  0  0  0  0  0  0  0  0  0  0  0
    8.2071   35.1455   15.5616 H   0  0  0  0  0  0  0  0  0  0  0  0
    8.1046   33.4549   14.9826 H   0  0  0  0  0  0  0  0  0  0  0  0
 18 19  1  0
 18 17  1  0
 19 20  1  0
 17 15  1  0
 20 16  1  0
 15 16  1  0
 15 12  1  0
 13  4  1  0
 12  4  2  0
 12  3  1  0
  4  5  1  0
  6  3  1  0
  3  1  2  0
  5 14  1  0
  5  2  2  0
  1  2  1  0
  1  7  1  0
  2  8  1  0
 10  8  1  0
  8 11  2  0
  8  9  2  0
 10 21  1  0
 10 22  1  0
 16 23  1  0
 16 24  1  0
 17 25  1  0
 17 26  1  0
 18 27  1  0
 18 28  1  0
 19 29  1  0
 19 30  1  0
 20 31  1  0
 20 32  1  0
A    1
C11
A    2
C5
A    3
C10
A    4
C7
A    5
C6
A    6
F14
A    7
F13
A    8
S1
A    9
O3
A   10
N4
A   11
O2
A   12
C9
A   13
F12
A   14
F8
A   15
N20
A   16
C15
A   17
C19
A   18
C18
A   19
C17
A   20
C16
M  END
