4WUY_3UJ_A_501
     RDKit          3D

 85 90  0  0  0  0  0  0  0  0999 V2000
  -19.7840  -23.3530   28.6170 C   0  0  0  0  0  0  0  0  0  0  0  0
  -17.4660  -31.5720   35.5290 C   0  0  0  0  0  0  0  0  0  0  0  0
  -17.1050  -26.4070   24.2690 C   0  0  0  0  0  0  0  0  0  0  0  0
  -19.1320  -23.6060   30.9220 C   0  0  0  0  0  0  0  0  0  0  0  0
  -15.4040  -30.9260   34.4080 C   0  0  0  0  0  0  0  0  0  0  0  0
  -19.7350  -22.8480   29.9180 C   0  0  0  0  0  0  0  0  0  0  0  0
  -16.1150  -31.1950   35.5770 C   0  0  0  0  0  0  0  0  0  0  0  0
  -16.0150  -31.0200   33.1530 C   0  0  0  0  0  0  0  0  0  0  0  0
  -18.5860  -24.8570   30.6180 C   0  0  0  0  0  0  0  0  0  0  0  0
  -18.1810  -25.5160   26.2750 C   0  0  0  0  0  0  0  0  0  0  0  0
  -19.4890  -25.8270   24.2580 C   0  0  0  0  0  0  0  0  0  0  0  0
  -20.5230  -24.9440   26.2620 C   0  0  0  0  0  0  0  0  0  0  0  0
  -19.4530  -31.9440   32.4800 C   0  0  0  0  0  0  0  0  0  0  0  0
  -18.2700  -25.9140   24.9400 C   0  0  0  0  0  0  0  0  0  0  0  0
  -18.1040  -31.6740   34.2750 C   0  0  0  0  0  0  0  0  0  0  0  0
  -19.2350  -24.6030   28.3170 C   0  0  0  0  0  0  0  0  0  0  0  0
  -19.3130  -25.0410   26.9410 C   0  0  0  0  0  0  0  0  0  0  0  0
  -20.6140  -25.3340   24.9280 C   0  0  0  0  0  0  0  0  0  0  0  0
  -19.4220  -32.0180   33.8540 C   0  0  0  0  0  0  0  0  0  0  0  0
  -17.3630  -31.3980   33.1220 C   0  0  0  0  0  0  0  0  0  0  0  0
  -18.6210  -25.3560   29.3170 C   0  0  0  0  0  0  0  0  0  0  0  0
  -21.9050  -25.2260   24.2730 C   0  0  0  0  0  0  0  0  0  0  0  0
  -27.0600  -28.5490   27.4160 C   0  0  0  0  0  0  0  0  0  0  0  0
  -27.4480  -27.1180   27.7790 C   0  0  0  0  0  0  0  0  0  0  0  0
  -26.0050  -28.4170   26.3200 C   0  0  0  0  0  0  0  0  0  0  0  0
  -26.3080  -26.2950   27.2010 C   0  0  0  0  0  0  0  0  0  0  0  0
  -19.0440  -27.5900   28.4920 C   0  0  0  0  0  0  0  0  0  0  0  0
  -17.2050  -27.1990   30.0730 C   0  0  0  0  0  0  0  0  0  0  0  0
  -18.3510  -28.8600   27.9990 C   0  0  0  0  0  0  0  0  0  0  0  0
  -16.5740  -28.5190   29.6130 C   0  0  0  0  0  0  0  0  0  0  0  0
  -20.5590  -32.3890   34.7230 C   0  0  0  0  0  0  0  0  0  0  0  0
  -24.7140  -27.0940   23.8260 C   0  0  0  0  0  0  0  0  0  0  0  0
  -17.8430  -31.3760   30.6480 C   0  0  0  0  0  0  0  0  0  0  0  0
  -24.8550  -26.5350   25.2490 C   0  0  0  0  0  0  0  0  0  0  0  0
  -18.3930  -30.0610   30.0980 C   0  0  0  0  0  0  0  0  0  0  0  0
  -23.6570  -26.4040   22.9530 C   0  0  0  0  0  0  0  0  0  0  0  0
  -16.1600  -26.8040   23.7250 N   0  0  0  0  0  0  0  0  0  0  0  0
  -18.2060  -31.5710   32.0490 N   0  0  0  0  0  0  0  0  0  0  0  0
  -18.0880  -26.6230   29.0490 N   0  0  0  0  0  0  0  0  0  0  0  0
  -26.0720  -27.0010   25.9380 N   0  0  0  0  0  0  0  0  0  0  0  0
  -17.5450  -29.4770   29.0600 N   0  0  0  0  0  0  0  0  0  0  0  0
  -22.3750  -26.3620   23.6190 N   0  0  0  0  0  0  0  0  0  0  0  0
  -22.5560  -24.1600   24.3110 O   0  0  0  0  0  0  0  0  0  0  0  0
  -20.2592  -22.7614   27.8206 H   0  0  0  0  0  0  0  0  0  0  0  0
  -18.0193  -31.7848   36.4556 H   0  0  0  0  0  0  0  0  0  0  0  0
  -19.0861  -23.2203   31.9511 H   0  0  0  0  0  0  0  0  0  0  0  0
  -14.3452  -30.6351   34.4737 H   0  0  0  0  0  0  0  0  0  0  0  0
  -20.1672  -21.8631   30.1487 H   0  0  0  0  0  0  0  0  0  0  0  0
  -15.6099  -31.1105   36.5505 H   0  0  0  0  0  0  0  0  0  0  0  0
  -15.4592  -30.8057   32.2283 H   0  0  0  0  0  0  0  0  0  0  0  0
  -18.1227  -25.4553   31.4163 H   0  0  0  0  0  0  0  0  0  0  0  0
  -17.2180  -25.5766   26.8032 H   0  0  0  0  0  0  0  0  0  0  0  0
  -19.5618  -26.1427   23.2068 H   0  0  0  0  0  0  0  0  0  0  0  0
  -21.4124  -24.5574   26.7811 H   0  0  0  0  0  0  0  0  0  0  0  0
  -20.3244  -32.1481   31.8405 H   0  0  0  0  0  0  0  0  0  0  0  0
  -27.9347  -29.1023   27.0436 H   0  0  0  0  0  0  0  0  0  0  0  0
  -26.6787  -29.1030   28.2865 H   0  0  0  0  0  0  0  0  0  0  0  0
  -27.5133  -26.9911   28.8697 H   0  0  0  0  0  0  0  0  0  0  0  0
  -28.4340  -26.8250   27.3892 H   0  0  0  0  0  0  0  0  0  0  0  0
  -26.2454  -29.0654   25.4646 H   0  0  0  0  0  0  0  0  0  0  0  0
  -25.0023  -28.7199   26.6560 H   0  0  0  0  0  0  0  0  0  0  0  0
  -25.4207  -26.3201   27.8507 H   0  0  0  0  0  0  0  0  0  0  0  0
  -26.5310  -25.2237   27.0890 H   0  0  0  0  0  0  0  0  0  0  0  0
  -19.5712  -27.1222   27.6474 H   0  0  0  0  0  0  0  0  0  0  0  0
  -19.7454  -27.8734   29.2906 H   0  0  0  0  0  0  0  0  0  0  0  0
  -16.4024  -26.4802   30.2945 H   0  0  0  0  0  0  0  0  0  0  0  0
  -17.8121  -27.4065   30.9665 H   0  0  0  0  0  0  0  0  0  0  0  0
  -19.1148  -29.5783   27.6662 H   0  0  0  0  0  0  0  0  0  0  0  0
  -17.6818  -28.5892   27.1691 H   0  0  0  0  0  0  0  0  0  0  0  0
  -16.0779  -28.9864   30.4764 H   0  0  0  0  0  0  0  0  0  0  0  0
  -15.8680  -28.2741   28.8058 H   0  0  0  0  0  0  0  0  0  0  0  0
  -20.2615  -32.2919   35.7775 H   0  0  0  0  0  0  0  0  0  0  0  0
  -21.4094  -31.7217   34.5190 H   0  0  0  0  0  0  0  0  0  0  0  0
  -20.8522  -33.4294   34.5190 H   0  0  0  0  0  0  0  0  0  0  0  0
  -25.6875  -26.9946   23.3236 H   0  0  0  0  0  0  0  0  0  0  0  0
  -24.3818  -28.1364   23.9398 H   0  0  0  0  0  0  0  0  0  0  0  0
  -18.2505  -32.2082   30.0553 H   0  0  0  0  0  0  0  0  0  0  0  0
  -16.7456  -31.3431   30.5801 H   0  0  0  0  0  0  0  0  0  0  0  0
  -23.9792  -26.8484   25.8361 H   0  0  0  0  0  0  0  0  0  0  0  0
  -24.9258  -25.4405   25.1647 H   0  0  0  0  0  0  0  0  0  0  0  0
  -18.4778  -29.3426   30.9267 H   0  0  0  0  0  0  0  0  0  0  0  0
  -19.3699  -30.2782   29.6413 H   0  0  0  0  0  0  0  0  0  0  0  0
  -23.9840  -25.3757   22.7391 H   0  0  0  0  0  0  0  0  0  0  0  0
  -23.5466  -26.9778   22.0211 H   0  0  0  0  0  0  0  0  0  0  0  0
  -21.7852  -27.2064   23.6095 H   0  0  0  0  0  0  0  0  0  0  0  0
 36 42  1  0
 36 32  1  0
 42 22  1  0
 37  3  3  0
 32 34  1  0
 11 18  2  0
 11 14  1  0
  3 14  1  0
 22 43  2  0
 22 18  1  0
 18 12  1  0
 14 10  2  0
 34 40  1  0
 40 25  1  0
 40 26  1  0
 12 17  2  0
 10 17  1  0
 25 23  1  0
 17 16  1  0
 26 24  1  0
 23 24  1  0
 29 27  1  0
 29 41  1  0
 16  1  2  0
 16 21  1  0
 27 39  1  0
  1  6  1  0
 39 21  1  0
 39 28  1  0
 41 30  1  0
 41 35  1  0
 21  9  2  0
 30 28  1  0
  6  4  2  0
 35 33  1  0
  9  4  1  0
 33 38  1  0
 38 13  1  0
 38 20  1  0
 13 19  2  0
 20  8  2  0
 20 15  1  0
  8  5  1  0
 19 15  1  0
 19 31  1  0
 15  2  2  0
  5  7  2  0
  2  7  1  0
  1 44  1  0
  2 45  1  0
  4 46  1  0
  5 47  1  0
  6 48  1  0
  7 49  1  0
  8 50  1  0
  9 51  1  0
 10 52  1  0
 11 53  1  0
 12 54  1  0
 13 55  1  0
 23 56  1  0
 23 57  1  0
 24 58  1  0
 24 59  1  0
 25 60  1  0
 25 61  1  0
 26 62  1  0
 26 63  1  0
 27 64  1  0
 27 65  1  0
 28 66  1  0
 28 67  1  0
 29 68  1  0
 29 69  1  0
 30 70  1  0
 30 71  1  0
 31 72  1  0
 31 73  1  0
 31 74  1  0
 32 75  1  0
 32 76  1  0
 33 77  1  0
 33 78  1  0
 34 79  1  0
 34 80  1  0
 35 81  1  0
 35 82  1  0
 36 83  1  0
 36 84  1  0
 42 85  1  0
A    1
C7
A    2
C6
A    3
C1
A    4
C5
A    5
C4
A    6
C3
A    7
C2
A    8
C8
A    9
C9
A   10
C10
A   11
C11
A   12
C12
A   13
C13
A   14
C14
A   15
C15
A   16
C16
A   17
C17
A   18
C18
A   19
C19
A   20
C20
A   21
C21
A   22
C22
A   23
C23
A   24
C24
A   25
C25
A   26
C26
A   27
C27
A   28
C28
A   29
C29
A   30
C30
A   31
C31
A   32
C32
A   33
C33
A   34
C34
A   35
C35
A   36
C36
A   37
N37
A   38
N38
A   39
N39
A   40
N40
A   41
N41
A   42
N42
A   43
O43
M  END
