4WWP_3VE_A_1204
     RDKit          3D

 48 52  0  0  0  0  0  0  0  0999 V2000
   17.1970   17.1240   21.6710 C   0  0  0  0  0  0  0  0  0  0  0  0
   17.9390   18.4450   21.5090 C   0  0  0  0  0  0  0  0  0  0  0  0
   17.5200   19.4780   22.2510 N   0  0  0  0  0  0  0  0  0  0  0  0
   18.0890   20.6660   22.1840 C   0  0  0  0  0  0  0  0  0  0  0  0
   19.1610   20.8850   21.3310 C   0  0  0  0  0  0  0  0  0  0  0  0
   19.6280   19.8520   20.5340 C   0  0  0  0  0  0  0  0  0  0  0  0
   19.0100   18.6140   20.6260 C   0  0  0  0  0  0  0  0  0  0  0  0
   19.5260   17.6150   19.8160 C   0  0  0  0  0  0  0  0  0  0  0  0
   19.0430   17.5150   18.5850 N   0  0  0  0  0  0  0  0  0  0  0  0
   19.4990   16.6020   17.7170 C   0  0  0  0  0  0  0  0  0  0  0  0
   18.9570   16.5230   16.4280 C   0  0  0  0  0  0  0  0  0  0  0  0
   17.6990   17.6020   15.9060 Cl  0  0  0  0  0  0  0  0  0  0  0  0
   19.4290   15.5670   15.5350 C   0  0  0  0  0  0  0  0  0  0  0  0
   20.4420   14.6960   15.9130 C   0  0  0  0  0  0  0  0  0  0  0  0
   20.9870   14.7830   17.1920 C   0  0  0  0  0  0  0  0  0  0  0  0
   20.5160   15.7300   18.0920 C   0  0  0  0  0  0  0  0  0  0  0  0
   21.0600   15.8070   19.3640 C   0  0  0  0  0  0  0  0  0  0  0  0
   20.5550   16.7600   20.2440 C   0  0  0  0  0  0  0  0  0  0  0  0
   21.1500   16.8630   21.6540 C   0  0  0  0  0  0  0  0  0  0  0  0
   22.3250   17.8290   21.5280 C   0  0  0  0  0  0  0  0  0  0  0  0
   21.6320   15.5570   22.1700 N   0  0  0  0  0  0  0  0  0  0  0  0
   20.8470   14.5520   22.5740 C   0  0  0  0  0  0  0  0  0  0  0  0
   21.4130   13.3520   23.0080 C   0  0  0  0  0  0  0  0  0  0  0  0
   22.6710   12.9250   23.1230 N   0  0  0  0  0  0  0  0  0  0  0  0
   22.6350   11.6810   23.5920 C   0  0  0  0  0  0  0  0  0  0  0  0
   21.3630   11.3160   23.7810 N   0  0  0  0  0  0  0  0  0  0  0  0
   20.5840   12.3270   23.4330 C   0  0  0  0  0  0  0  0  0  0  0  0
   19.2540   12.4840   23.4170 N   0  0  0  0  0  0  0  0  0  0  0  0
   18.7420   13.6380   22.9950 C   0  0  0  0  0  0  0  0  0  0  0  0
   19.5130   14.6540   22.5840 N   0  0  0  0  0  0  0  0  0  0  0  0
   17.0724   16.9023   22.7412 H   0  0  0  0  0  0  0  0  0  0  0  0
   16.2084   17.1979   21.1944 H   0  0  0  0  0  0  0  0  0  0  0  0
   17.7745   16.3182   21.1944 H   0  0  0  0  0  0  0  0  0  0  0  0
   17.7110   21.4887   22.8087 H   0  0  0  0  0  0  0  0  0  0  0  0
   19.6385   21.8750   21.2875 H   0  0  0  0  0  0  0  0  0  0  0  0
   20.4699   20.0105   19.8440 H   0  0  0  0  0  0  0  0  0  0  0  0
   18.9980   15.5007   14.5251 H   0  0  0  0  0  0  0  0  0  0  0  0
   20.8128   13.9401   15.2051 H   0  0  0  0  0  0  0  0  0  0  0  0
   21.7944   14.0982   17.4906 H   0  0  0  0  0  0  0  0  0  0  0  0
   21.8717   15.1311   19.6711 H   0  0  0  0  0  0  0  0  0  0  0  0
   20.3826   17.2039   22.3646 H   0  0  0  0  0  0  0  0  0  0  0  0
   22.6734   18.1154   22.5313 H   0  0  0  0  0  0  0  0  0  0  0  0
   23.1446   17.3401   20.9810 H   0  0  0  0  0  0  0  0  0  0  0  0
   22.0038   18.7277   20.9810 H   0  0  0  0  0  0  0  0  0  0  0  0
   22.6507   15.4135   22.2209 H   0  0  0  0  0  0  0  0  0  0  0  0
   23.5142   11.0512   23.7929 H   0  0  0  0  0  0  0  0  0  0  0  0
   21.0440   10.4036   24.1368 H   0  0  0  0  0  0  0  0  0  0  0  0
   17.6490   13.7618   22.9833 H   0  0  0  0  0  0  0  0  0  0  0  0
 13 14  1  0
 13 11  2  0
 12 11  1  0
 14 15  2  0
 11 10  1  0
 15 16  1  0
 10 16  1  0
 10  9  2  0
 16 17  2  0
  9  8  1  0
 17 18  1  0
  8 18  2  0
  8  7  1  0
 18 19  1  0
  6  7  1  0
  6  5  2  0
  7  2  2  0
  5  4  1  0
  2  1  1  0
  2  3  1  0
 20 19  1  0
 19 21  1  0
 21 22  1  0
  4  3  2  0
 22 30  1  0
 22 23  2  0
 30 29  2  0
 29 28  1  0
 23 24  1  0
 23 27  1  0
 24 25  2  0
 28 27  2  0
 27 26  1  0
 25 26  1  0
  1 31  1  0
  1 32  1  0
  1 33  1  0
  4 34  1  0
  5 35  1  0
  6 36  1  0
 13 37  1  0
 14 38  1  0
 15 39  1  0
 17 40  1  0
 19 41  1  0
 20 42  1  0
 20 43  1  0
 20 44  1  0
 21 45  1  0
 25 46  1  0
 26 47  1  0
 29 48  1  0
A    1
C30
A    2
C29
A    3
N28
A    4
C27
A    5
C26
A    6
C25
A    7
C11
A    8
C2
A    9
N3
A   10
C6
A   11
C7
A   12
CL1
A   13
C8
A   14
C9
A   15
C10
A   16
C5
A   17
C4
A   18
C1
A   19
C13
A   20
C15
A   21
N14
A   22
C16
A   23
C21
A   24
N22
A   25
C23
A   26
N24
A   27
C20
A   28
N17
A   29
C18
A   30
N19
M  END
