1DFO_PLG_A_1001
     RDKit          3D

 35 35  0  0  0  0  0  0  0  0999 V2000
    5.5360   90.6470   49.0860 N   0  0  0  0  0  0  0  0  0  0  0  0
    5.8090   90.3690   47.7960 C   0  0  0  0  0  0  0  0  0  0  0  0
    4.6420   90.1640   46.9040 C   0  0  0  0  0  0  0  0  0  0  0  0
    7.1990   90.3040   47.4320 C   0  0  0  0  0  0  0  0  0  0  0  0
    7.5160   90.0280   46.1790 O   0  0  0  0  0  0  0  0  0  0  0  0
    8.1960   90.5300   48.4510 C   0  0  0  0  0  0  0  0  0  0  0  0
    9.5930   90.4500   48.0640 C   0  0  0  0  0  0  0  0  0  0  0  0
    7.8450   90.8070   49.7820 C   0  0  0  0  0  0  0  0  0  0  0  0
    6.4600   90.8680   50.0790 C   0  0  0  0  0  0  0  0  0  0  0  0
    8.7110   91.0350   50.9660 C   0  0  0  0  0  0  0  0  0  0  0  0
    9.6090   92.1260   50.9330 O   0  0  0  0  0  0  0  0  0  0  0  0
   10.9270   92.3100   51.7150 P   0  0  0  0  0  0  0  0  0  0  0  0
   10.6210   91.6870   53.0460 O   0  0  0  0  0  0  0  0  0  0  0  0
   12.0030   91.5610   50.8740 O   0  0  0  0  0  0  0  0  0  0  0  0
   11.3500   93.7400   51.8260 O   0  0  0  0  0  0  0  0  0  0  0  0
   11.3600   89.1440   45.0580 C   0  0  0  0  0  0  0  0  0  0  0  0
   10.2750   88.9250   44.4860 O   0  0  0  0  0  0  0  0  0  0  0  0
   12.4620   88.8820   44.5420 O   0  0  0  0  0  0  0  0  0  0  0  0
   11.3260   89.7630   46.4400 C   0  0  0  0  0  0  0  0  0  0  0  0
    9.9770   89.7460   46.9730 N   0  0  0  0  0  0  0  0  0  0  0  0
    3.7391   90.0054   47.5120 H   0  0  0  0  0  0  0  0  0  0  0  0
    4.5053   91.0519   46.2692 H   0  0  0  0  0  0  0  0  0  0  0  0
    4.8160   89.2827   46.2692 H   0  0  0  0  0  0  0  0  0  0  0  0
    8.2478   89.3909   45.9824 H   0  0  0  0  0  0  0  0  0  0  0  0
    9.9324   91.4840   47.9039 H   0  0  0  0  0  0  0  0  0  0  0  0
   10.0394   89.8769   48.8900 H   0  0  0  0  0  0  0  0  0  0  0  0
    6.1255   91.0919   51.1027 H   0  0  0  0  0  0  0  0  0  0  0  0
    8.0486   91.1830   51.8317 H   0  0  0  0  0  0  0  0  0  0  0  0
    9.3596   90.1474   51.0060 H   0  0  0  0  0  0  0  0  0  0  0  0
   12.6446   91.1144   51.4815 H   0  0  0  0  0  0  0  0  0  0  0  0
   11.4237   93.9891   52.7813 H   0  0  0  0  0  0  0  0  0  0  0  0
   13.2460   88.6956   45.1170 H   0  0  0  0  0  0  0  0  0  0  0  0
   11.9863   89.1913   47.1087 H   0  0  0  0  0  0  0  0  0  0  0  0
   11.6670   90.8065   46.3701 H   0  0  0  0  0  0  0  0  0  0  0  0
    9.7726   88.7598   47.1888 H   0  0  0  0  0  0  0  0  0  0  0  0
  1  2  2  0
  1  9  1  0
  2  3  1  0
  2  4  1  0
  4  5  1  0
  4  6  2  0
  6  7  1  0
  6  8  1  0
  7 20  1  0
  8  9  2  0
  8 10  1  0
 10 11  1  0
 11 12  1  0
 12 13  2  0
 12 14  1  0
 12 15  1  0
 16 17  2  0
 16 18  1  0
 16 19  1  0
 19 20  1  0
  3 21  1  0
  3 22  1  0
  3 23  1  0
  5 24  1  0
  7 25  1  0
  7 26  1  0
  9 27  1  0
 10 28  1  0
 10 29  1  0
 14 30  1  0
 15 31  1  0
 18 32  1  0
 19 33  1  0
 19 34  1  0
 20 35  1  0
A    1
N1
A    2
C2
A    3
C2A
A    4
C3
A    5
O3
A    6
C4
A    7
C4A
A    8
C5
A    9
C6
A   10
C5A
A   11
OP4
A   12
P
A   13
OP1
A   14
OP2
A   15
OP3
A   16
C
A   17
O
A   18
OXT
A   19
CA
A   20
N
M  END
