4WXR_3VZ_A_701
     RDKit          3D

 58 61  0  0  0  0  0  0  0  0999 V2000
  -20.9510    7.2290   26.0410 C   0  0  0  0  0  0  0  0  0  0  0  0
  -19.7980    6.7850   26.7240 C   0  0  0  0  0  0  0  0  0  0  0  0
  -19.8660    6.4510   28.0790 C   0  0  0  0  0  0  0  0  0  0  0  0
  -21.0970    6.5550   28.7380 C   0  0  0  0  0  0  0  0  0  0  0  0
  -22.2550    6.9770   28.0710 C   0  0  0  0  0  0  0  0  0  0  0  0
  -17.7860    6.1510   27.4260 C   0  0  0  0  0  0  0  0  0  0  0  0
  -18.4680    6.5920   26.2900 C   0  0  0  0  0  0  0  0  0  0  0  0
  -23.5540    7.0560   28.8240 C   0  0  0  0  0  0  0  0  0  0  0  0
  -23.7960    6.1250   29.8460 C   0  0  0  0  0  0  0  0  0  0  0  0
  -24.9990    6.1740   30.5590 C   0  0  0  0  0  0  0  0  0  0  0  0
  -25.9770    7.1220   30.2710 C   0  0  0  0  0  0  0  0  0  0  0  0
  -25.7600    8.0510   29.2630 C   0  0  0  0  0  0  0  0  0  0  0  0
  -19.0570    8.2540   23.2920 O   0  0  0  0  0  0  0  0  0  0  0  0
  -18.3790    8.1950   24.3420 C   0  0  0  0  0  0  0  0  0  0  0  0
  -18.1020    9.2540   24.9900 O   0  0  0  0  0  0  0  0  0  0  0  0
  -17.8800    6.8500   24.8960 C   0  0  0  0  0  0  0  0  0  0  0  0
  -18.6310    6.0680   28.4850 N   0  0  0  0  0  0  0  0  0  0  0  0
  -18.3040    5.6330   29.8700 C   0  0  0  0  0  0  0  0  0  0  0  0
  -16.8140    5.5620   30.0870 C   0  0  0  0  0  0  0  0  0  0  0  0
  -16.1810    4.3210   30.0980 C   0  0  0  0  0  0  0  0  0  0  0  0
  -14.7940    4.2410   30.2620 C   0  0  0  0  0  0  0  0  0  0  0  0
  -14.0330    5.4140   30.4060 C   0  0  0  0  0  0  0  0  0  0  0  0
  -12.5570    5.3040   30.6030 C   0  0  0  0  0  0  0  0  0  0  0  0
  -11.7880    6.0690   29.5270 C   0  0  0  0  0  0  0  0  0  0  0  0
  -12.2140    5.7920   32.0180 C   0  0  0  0  0  0  0  0  0  0  0  0
  -14.6800    6.6650   30.3900 C   0  0  0  0  0  0  0  0  0  0  0  0
  -16.0670    6.7340   30.2320 C   0  0  0  0  0  0  0  0  0  0  0  0
  -22.1780    7.3110   26.7130 C   0  0  0  0  0  0  0  0  0  0  0  0
  -25.2320    5.2790   31.5450 N   0  0  0  0  0  0  0  0  0  0  0  0
  -26.7360    8.9650   29.0070 N   0  0  0  0  0  0  0  0  0  0  0  0
  -24.5520    8.0150   28.5410 C   0  0  0  0  0  0  0  0  0  0  0  0
  -20.8862    7.5110   24.9797 H   0  0  0  0  0  0  0  0  0  0  0  0
  -21.1567    6.2990   29.8061 H   0  0  0  0  0  0  0  0  0  0  0  0
  -16.7143    5.9053   27.4581 H   0  0  0  0  0  0  0  0  0  0  0  0
  -23.0429    5.3598   30.0856 H   0  0  0  0  0  0  0  0  0  0  0  0
  -26.9182    7.1347   30.8402 H   0  0  0  0  0  0  0  0  0  0  0  0
  -18.1047    9.2436   25.9799 H   0  0  0  0  0  0  0  0  0  0  0  0
  -18.1894    6.0416   24.2172 H   0  0  0  0  0  0  0  0  0  0  0  0
  -16.7831    6.8815   24.9726 H   0  0  0  0  0  0  0  0  0  0  0  0
  -18.7355    6.3518   30.5821 H   0  0  0  0  0  0  0  0  0  0  0  0
  -18.7247    4.6286   30.0258 H   0  0  0  0  0  0  0  0  0  0  0  0
  -16.7732    3.4019   29.9774 H   0  0  0  0  0  0  0  0  0  0  0  0
  -14.2984    3.2591   30.2783 H   0  0  0  0  0  0  0  0  0  0  0  0
  -12.2485    4.2529   30.5025 H   0  0  0  0  0  0  0  0  0  0  0  0
  -11.0857    6.7677   30.0051 H   0  0  0  0  0  0  0  0  0  0  0  0
  -11.2289    5.3583   28.9006 H   0  0  0  0  0  0  0  0  0  0  0  0
  -12.4958    6.6318   28.9006 H   0  0  0  0  0  0  0  0  0  0  0  0
  -12.6816    5.1267   32.7587 H   0  0  0  0  0  0  0  0  0  0  0  0
  -11.1225    5.7830   32.1545 H   0  0  0  0  0  0  0  0  0  0  0  0
  -12.5921    6.8159   32.1545 H   0  0  0  0  0  0  0  0  0  0  0  0
  -14.0931    7.5886   30.5020 H   0  0  0  0  0  0  0  0  0  0  0  0
  -16.5710    7.7117   30.2218 H   0  0  0  0  0  0  0  0  0  0  0  0
  -23.0799    7.6374   26.1744 H   0  0  0  0  0  0  0  0  0  0  0  0
  -25.1569    5.5677   32.5309 H   0  0  0  0  0  0  0  0  0  0  0  0
  -25.4847    4.3084   31.3104 H   0  0  0  0  0  0  0  0  0  0  0  0
  -27.2276    9.4254   29.7863 H   0  0  0  0  0  0  0  0  0  0  0  0
  -26.9828    9.1961   28.0341 H   0  0  0  0  0  0  0  0  0  0  0  0
  -24.3816    8.7490   27.7396 H   0  0  0  0  0  0  0  0  0  0  0  0
 13 14  2  0
 14 16  1  0
 14 15  1  0
 16  7  1  0
  1 28  2  0
  1  2  1  0
  7  2  1  0
  7  6  2  0
 28  5  1  0
  2  3  2  0
  6 17  1  0
  5  4  2  0
  5  8  1  0
  3 17  1  0
  3  4  1  0
 17 18  1  0
 31  8  1  0
 31 12  2  0
  8  9  2  0
 30 12  1  0
 12 11  1  0
 24 23  1  0
  9 10  1  0
 18 19  1  0
 19 20  2  0
 19 27  1  0
 20 21  1  0
 27 26  2  0
 21 22  2  0
 11 10  2  0
 26 22  1  0
 22 23  1  0
 10 29  1  0
 23 25  1  0
  1 32  1  0
  4 33  1  0
  6 34  1  0
  9 35  1  0
 11 36  1  0
 15 37  1  0
 16 38  1  0
 16 39  1  0
 18 40  1  0
 18 41  1  0
 20 42  1  0
 21 43  1  0
 23 44  1  0
 24 45  1  0
 24 46  1  0
 24 47  1  0
 25 48  1  0
 25 49  1  0
 25 50  1  0
 26 51  1  0
 27 52  1  0
 28 53  1  0
 29 54  1  0
 29 55  1  0
 30 56  1  0
 30 57  1  0
 31 58  1  0
A    1
C1
A    2
C2
A    3
C3
A    4
C4
A    5
C5
A    6
C14
A    7
C15
A    8
C20
A    9
C22
A   10
C23
A   11
C24
A   12
C25
A   13
O60
A   14
C59
A   15
O64
A   16
C58
A   17
N13
A   18
C37
A   19
C38
A   20
C41
A   21
C42
A   22
C43
A   23
C52
A   24
C54
A   25
C56
A   26
C44
A   27
C45
A   28
C6
A   29
N35
A   30
N33
A   31
C26
M  END
