4WY3_3X5_A_401
     RDKit          3D

 69 73  0  0  0  0  0  0  0  0999 V2000
  -21.0300  -44.7730    1.3920 O   0  0  0  0  0  0  0  0  0  0  0  0
  -20.5690  -43.6450    1.4530 C   0  0  0  0  0  0  0  0  0  0  0  0
  -21.3940  -42.5090    2.0100 C   0  0  0  0  0  0  0  0  0  0  0  0
  -20.4920  -41.5640    2.7940 C   0  0  0  0  0  0  0  0  0  0  0  0
  -19.8000  -40.6210    1.8400 C   0  0  0  0  0  0  0  0  0  0  0  0
  -18.5780  -40.0730    2.0050 N   0  0  0  0  0  0  0  0  0  0  0  0
  -18.3200  -39.2900    0.9340 C   0  0  0  0  0  0  0  0  0  0  0  0
  -19.3770  -39.3420    0.0950 N   0  0  0  0  0  0  0  0  0  0  0  0
  -20.3050  -40.1600    0.6350 C   0  0  0  0  0  0  0  0  0  0  0  0
  -22.4360  -43.0500    2.9040 N   0  0  0  0  0  0  0  0  0  0  0  0
  -23.3880  -41.9820    3.2500 C   0  0  0  0  0  0  0  0  0  0  0  0
  -24.7610  -42.5940    3.5290 C   0  0  0  0  0  0  0  0  0  0  0  0
  -24.8730  -42.9890    5.0000 C   0  0  0  0  0  0  0  0  0  0  0  0
  -24.7540  -41.7770    5.9130 C   0  0  0  0  0  0  0  0  0  0  0  0
  -24.9510  -42.1890    7.3660 C   0  0  0  0  0  0  0  0  0  0  0  0
  -24.8580  -40.9770    8.2860 C   0  0  0  0  0  0  0  0  0  0  0  0
  -25.8460  -39.8910    7.8750 C   0  0  0  0  0  0  0  0  0  0  0  0
  -25.6640  -39.4990    6.4120 C   0  0  0  0  0  0  0  0  0  0  0  0
  -25.7730  -40.7230    5.5120 C   0  0  0  0  0  0  0  0  0  0  0  0
  -25.5640  -40.3270    4.0570 C   0  0  0  0  0  0  0  0  0  0  0  0
  -25.7640  -41.5530    3.2900 N   0  0  0  0  0  0  0  0  0  0  0  0
  -26.7520  -41.7760    2.4270 C   0  0  0  0  0  0  0  0  0  0  0  0
  -27.1490  -42.9030    2.1820 O   0  0  0  0  0  0  0  0  0  0  0  0
  -27.3910  -40.6050    1.7410 C   0  0  0  0  0  0  0  0  0  0  0  0
  -28.2890  -39.8000    2.4320 C   0  0  0  0  0  0  0  0  0  0  0  0
  -28.8810  -38.7150    1.7960 C   0  0  0  0  0  0  0  0  0  0  0  0
  -28.5750  -38.4350    0.4690 C   0  0  0  0  0  0  0  0  0  0  0  0
  -27.6770  -39.2410   -0.2220 C   0  0  0  0  0  0  0  0  0  0  0  0
  -27.0850  -40.3250    0.4140 C   0  0  0  0  0  0  0  0  0  0  0  0
  -29.2080  -37.2750   -0.2110 C   0  0  0  0  0  0  0  0  0  0  0  0
  -29.2600  -37.2260   -1.5990 C   0  0  0  0  0  0  0  0  0  0  0  0
  -29.8520  -36.1410   -2.2350 C   0  0  0  0  0  0  0  0  0  0  0  0
  -30.3930  -35.1050   -1.4830 C   0  0  0  0  0  0  0  0  0  0  0  0
  -30.3410  -35.1530   -0.0950 C   0  0  0  0  0  0  0  0  0  0  0  0
  -29.7490  -36.2380    0.5410 C   0  0  0  0  0  0  0  0  0  0  0  0
  -19.5449  -43.4539    1.0997 H   0  0  0  0  0  0  0  0  0  0  0  0
  -21.8693  -41.9607    1.1833 H   0  0  0  0  0  0  0  0  0  0  0  0
  -19.7387  -42.1478    3.3433 H   0  0  0  0  0  0  0  0  0  0  0  0
  -21.0985  -40.9851    3.5061 H   0  0  0  0  0  0  0  0  0  0  0  0
  -17.9508  -40.2250    2.8077 H   0  0  0  0  0  0  0  0  0  0  0  0
  -17.4013  -38.7070    0.7725 H   0  0  0  0  0  0  0  0  0  0  0  0
  -21.2823  -40.4139    0.1987 H   0  0  0  0  0  0  0  0  0  0  0  0
  -22.9355  -43.8138    2.4265 H   0  0  0  0  0  0  0  0  0  0  0  0
  -23.0340  -41.4515    4.1462 H   0  0  0  0  0  0  0  0  0  0  0  0
  -23.4656  -41.2741    2.4116 H   0  0  0  0  0  0  0  0  0  0  0  0
  -24.9062  -43.4769    2.8891 H   0  0  0  0  0  0  0  0  0  0  0  0
  -25.8484  -43.4689    5.1681 H   0  0  0  0  0  0  0  0  0  0  0  0
  -24.0508  -43.6808    5.2354 H   0  0  0  0  0  0  0  0  0  0  0  0
  -23.7462  -41.3485    5.8093 H   0  0  0  0  0  0  0  0  0  0  0  0
  -25.9420  -42.6530    7.4788 H   0  0  0  0  0  0  0  0  0  0  0  0
  -24.1618  -42.9040    7.6414 H   0  0  0  0  0  0  0  0  0  0  0  0
  -25.0799  -41.2917    9.3164 H   0  0  0  0  0  0  0  0  0  0  0  0
  -23.8406  -40.5650    8.2149 H   0  0  0  0  0  0  0  0  0  0  0  0
  -25.6862  -39.0042    8.5059 H   0  0  0  0  0  0  0  0  0  0  0  0
  -26.8656  -40.2830    8.0045 H   0  0  0  0  0  0  0  0  0  0  0  0
  -24.6725  -39.0410    6.2810 H   0  0  0  0  0  0  0  0  0  0  0  0
  -26.4528  -38.7839    6.1355 H   0  0  0  0  0  0  0  0  0  0  0  0
  -26.7812  -41.1475    5.6279 H   0  0  0  0  0  0  0  0  0  0  0  0
  -24.5455  -39.9400    3.9058 H   0  0  0  0  0  0  0  0  0  0  0  0
  -26.2569  -39.5315    3.7455 H   0  0  0  0  0  0  0  0  0  0  0  0
  -28.5311  -40.0215    3.4819 H   0  0  0  0  0  0  0  0  0  0  0  0
  -29.5917  -38.0778    2.3427 H   0  0  0  0  0  0  0  0  0  0  0  0
  -27.4354  -39.0203   -1.2722 H   0  0  0  0  0  0  0  0  0  0  0  0
  -26.3739  -40.9620   -0.1325 H   0  0  0  0  0  0  0  0  0  0  0  0
  -28.8325  -38.0462   -2.1945 H   0  0  0  0  0  0  0  0  0  0  0  0
  -29.8923  -36.1024   -3.3336 H   0  0  0  0  0  0  0  0  0  0  0  0
  -30.8624  -34.2470   -1.9864 H   0  0  0  0  0  0  0  0  0  0  0  0
  -30.7683  -34.3325    0.5002 H   0  0  0  0  0  0  0  0  0  0  0  0
  -29.7085  -36.2763    1.6396 H   0  0  0  0  0  0  0  0  0  0  0  0
 32 31  2  0
 32 33  1  0
 31 30  1  0
 33 34  2  0
 28 29  2  0
 28 27  1  0
 30 27  1  0
 30 35  2  0
 34 35  1  0
  8  9  1  0
  8  7  2  0
 29 24  1  0
 27 26  2  0
  9  5  2  0
  7  6  1  0
  1  2  2  0
  2  3  1  0
 24 22  1  0
 24 25  2  0
 26 25  1  0
  5  6  1  0
  5  4  1  0
  3  4  1  0
  3 10  1  0
 23 22  2  0
 22 21  1  0
 10 11  1  0
 11 12  1  0
 21 12  1  0
 21 20  1  0
 12 13  1  0
 20 19  1  0
 13 14  1  0
 19 14  1  0
 19 18  1  0
 14 15  1  0
 18 17  1  0
 15 16  1  0
 17 16  1  0
  2 36  1  0
  3 37  1  0
  4 38  1  0
  4 39  1  0
  6 40  1  0
  7 41  1  0
  9 42  1  0
 10 43  1  0
 11 44  1  0
 11 45  1  0
 12 46  1  0
 13 47  1  0
 13 48  1  0
 14 49  1  0
 15 50  1  0
 15 51  1  0
 16 52  1  0
 16 53  1  0
 17 54  1  0
 17 55  1  0
 18 56  1  0
 18 57  1  0
 19 58  1  0
 20 59  1  0
 20 60  1  0
 25 61  1  0
 26 62  1  0
 28 63  1  0
 29 64  1  0
 31 65  1  0
 32 66  1  0
 33 67  1  0
 34 68  1  0
 35 69  1  0
A    1
O1
A    2
C24
A    3
C23
A    4
C25
A    5
C26
A    6
N3
A    7
C28
A    8
N2
A    9
C27
A   10
N1
A   11
C22
A   12
C21
A   13
C20
A   14
C19
A   15
C18
A   16
C17
A   17
C16
A   18
C15
A   19
C14
A   20
C13
A   21
N
A   22
C
A   23
O
A   24
C1
A   25
C12
A   26
C11
A   27
C4
A   28
C3
A   29
C2
A   30
C5
A   31
C10
A   32
C9
A   33
C8
A   34
C7
A   35
C6
M  END
