4WYO_3W2_B_4000
     RDKit          3D

 55 59  0  0  0  0  0  0  0  0999 V2000
   11.5070  -10.3530  -18.8370 C   0  0  0  0  0  0  0  0  0  0  0  0
   10.0600  -10.9770  -22.3500 C   0  0  0  0  0  0  0  0  0  0  0  0
   10.7000  -11.2710  -20.9890 C   0  0  0  0  0  0  0  0  0  0  0  0
    5.6550   -9.0640  -15.6030 C   0  0  0  0  0  0  0  0  0  0  0  0
    7.3440  -11.2850  -15.4010 C   0  0  0  0  0  0  0  0  0  0  0  0
    4.5150   -8.1600  -15.5840 C   0  0  0  0  0  0  0  0  0  0  0  0
   10.1880   -7.3660  -22.4780 C   0  0  0  0  0  0  0  0  0  0  0  0
   10.5200  -10.0970  -20.0020 C   0  0  0  0  0  0  0  0  0  0  0  0
    9.0360  -10.0780  -19.5510 C   0  0  0  0  0  0  0  0  0  0  0  0
    8.8350   -9.1610  -18.3340 C   0  0  0  0  0  0  0  0  0  0  0  0
    9.7820   -9.5630  -17.2670 N   0  0  0  0  0  0  0  0  0  0  0  0
   11.2290   -9.4950  -17.5920 C   0  0  0  0  0  0  0  0  0  0  0  0
   10.8580   -8.8120  -20.5890 O   0  0  0  0  0  0  0  0  0  0  0  0
    9.6430  -11.8550  -23.0810 O   0  0  0  0  0  0  0  0  0  0  0  0
    9.3390   -9.9660  -16.0370 C   0  0  0  0  0  0  0  0  0  0  0  0
    7.8870  -10.0300  -15.7250 C   0  0  0  0  0  0  0  0  0  0  0  0
   10.1340  -10.3070  -15.1800 O   0  0  0  0  0  0  0  0  0  0  0  0
    7.0380   -8.9090  -15.8400 C   0  0  0  0  0  0  0  0  0  0  0  0
    5.9950  -11.4490  -15.2310 C   0  0  0  0  0  0  0  0  0  0  0  0
    5.1270  -10.3510  -15.2990 C   0  0  0  0  0  0  0  0  0  0  0  0
    3.4540   -8.8570  -15.2760 N   0  0  0  0  0  0  0  0  0  0  0  0
    3.7830  -10.2050  -15.0860 N   0  0  0  0  0  0  0  0  0  0  0  0
   10.3850   -8.5240  -21.8290 C   0  0  0  0  0  0  0  0  0  0  0  0
   10.0050   -9.5610  -22.7470 C   0  0  0  0  0  0  0  0  0  0  0  0
    9.5610   -8.9880  -23.8250 N   0  0  0  0  0  0  0  0  0  0  0  0
    9.6790   -7.6970  -23.7100 N   0  0  0  0  0  0  0  0  0  0  0  0
    9.3210   -6.7640  -24.7850 C   0  0  0  0  0  0  0  0  0  0  0  0
    7.8800   -7.0660  -25.2190 C   0  0  0  0  0  0  0  0  0  0  0  0
    9.4790   -5.3080  -24.3110 C   0  0  0  0  0  0  0  0  0  0  0  0
   10.2690   -7.0060  -25.9700 C   0  0  0  0  0  0  0  0  0  0  0  0
   11.4389  -11.4129  -18.5507 H   0  0  0  0  0  0  0  0  0  0  0  0
   12.5092  -10.0796  -19.1987 H   0  0  0  0  0  0  0  0  0  0  0  0
   10.2307  -12.1696  -20.5621 H   0  0  0  0  0  0  0  0  0  0  0  0
   11.7782  -11.4227  -21.1451 H   0  0  0  0  0  0  0  0  0  0  0  0
    8.0134  -12.1497  -15.2820 H   0  0  0  0  0  0  0  0  0  0  0  0
    4.5419   -7.0802  -15.7922 H   0  0  0  0  0  0  0  0  0  0  0  0
   10.3932   -6.3539  -22.0990 H   0  0  0  0  0  0  0  0  0  0  0  0
    8.4136   -9.7133  -20.3814 H   0  0  0  0  0  0  0  0  0  0  0  0
    8.7457  -11.1004  -19.2676 H   0  0  0  0  0  0  0  0  0  0  0  0
    9.0262   -8.1170  -18.6230 H   0  0  0  0  0  0  0  0  0  0  0  0
    7.8017   -9.2500  -17.9675 H   0  0  0  0  0  0  0  0  0  0  0  0
   11.8153   -9.8770  -16.7433 H   0  0  0  0  0  0  0  0  0  0  0  0
   11.5152   -8.4515  -17.7902 H   0  0  0  0  0  0  0  0  0  0  0  0
    7.4491   -7.9254  -16.1113 H   0  0  0  0  0  0  0  0  0  0  0  0
    5.5886  -12.4530  -15.0391 H   0  0  0  0  0  0  0  0  0  0  0  0
    2.5046   -8.4681  -15.1852 H   0  0  0  0  0  0  0  0  0  0  0  0
    7.2488   -7.1983  -24.3279 H   0  0  0  0  0  0  0  0  0  0  0  0
    7.4950   -6.2290  -25.8201 H   0  0  0  0  0  0  0  0  0  0  0  0
    7.8635   -7.9871  -25.8201 H   0  0  0  0  0  0  0  0  0  0  0  0
    9.4822   -5.2787  -23.2114 H   0  0  0  0  0  0  0  0  0  0  0  0
   10.4268   -4.8993  -24.6914 H   0  0  0  0  0  0  0  0  0  0  0  0
    8.6410   -4.7055  -24.6914 H   0  0  0  0  0  0  0  0  0  0  0  0
   11.2701   -7.2615  -25.5924 H   0  0  0  0  0  0  0  0  0  0  0  0
    9.8856   -7.8351  -26.5829 H   0  0  0  0  0  0  0  0  0  0  0  0
   10.3299   -6.0946  -26.5829 H   0  0  0  0  0  0  0  0  0  0  0  0
 30 27  1  0
 28 27  1  0
 27 29  1  0
 27 26  1  0
 25 26  1  0
 25 24  2  0
 26  7  1  0
 14  2  2  0
 24  2  1  0
 24 23  1  0
  7 23  2  0
  2  3  1  0
 23 13  1  0
  3  8  1  0
 13  8  1  0
  8  9  1  0
  8  1  1  0
  9 10  1  0
  1 12  1  0
 10 11  1  0
 12 11  1  0
 11 15  1  0
 15 16  1  0
 15 17  2  0
 18 16  2  0
 18  4  1  0
 16  5  1  0
  4  6  2  0
  4 20  1  0
  6 21  1  0
  5 19  2  0
 20 19  1  0
 20 22  2  0
 21 22  1  0
  1 31  1  0
  1 32  1  0
  3 33  1  0
  3 34  1  0
  5 35  1  0
  6 36  1  0
  7 37  1  0
  9 38  1  0
  9 39  1  0
 10 40  1  0
 10 41  1  0
 12 42  1  0
 12 43  1  0
 18 44  1  0
 19 45  1  0
 21 46  1  0
 28 47  1  0
 28 48  1  0
 28 49  1  0
 29 50  1  0
 29 51  1  0
 29 52  1  0
 30 53  1  0
 30 54  1  0
 30 55  1  0
A    1
C6
A    2
C9
A    3
C8
A    4
C18
A    5
C16
A    6
C19
A    7
C26
A    8
C1
A    9
C2
A   10
C3
A   11
N4
A   12
C5
A   13
O7
A   14
O10
A   15
C11
A   16
C12
A   17
O13
A   18
C14
A   19
C15
A   20
C17
A   21
N20
A   22
N21
A   23
C22
A   24
C23
A   25
N24
A   26
N25
A   27
C27
A   28
C28
A   29
C29
A   30
C30
M  END
