4X0M_3WA_A_601
     RDKit          3D

 18 19  0  0  0  0  0  0  0  0999 V2000
   17.4290   69.2680    3.9600 C   0  0  0  0  0  0  0  0  0  0  0  0
   18.8100   69.6220    4.0090 C   0  0  0  0  0  0  0  0  0  0  0  0
   16.8340   68.6270    5.1590 C   0  0  0  0  0  0  0  0  0  0  0  0
   19.3830   70.1710    2.9260 N   0  0  0  0  0  0  0  0  0  0  0  0
   17.6510   68.4760    6.3160 C   0  0  0  0  0  0  0  0  0  0  0  0
   18.9300   68.8990    6.2930 C   0  0  0  0  0  0  0  0  0  0  0  0
   18.6790   70.3040    1.8030 C   0  0  0  0  0  0  0  0  0  0  0  0
   16.7190   69.4970    2.7440 C   0  0  0  0  0  0  0  0  0  0  0  0
   19.5040   69.4410    5.1820 N   0  0  0  0  0  0  0  0  0  0  0  0
   15.6890   68.2080    5.1730 O   0  0  0  0  0  0  0  0  0  0  0  0
   17.4000   69.9980    1.6950 N   0  0  0  0  0  0  0  0  0  0  0  0
   15.4110   69.0860    2.5870 N   0  0  0  0  0  0  0  0  0  0  0  0
   17.2388   68.0153    7.2258 H   0  0  0  0  0  0  0  0  0  0  0  0
   19.5347   68.8031    7.2068 H   0  0  0  0  0  0  0  0  0  0  0  0
   19.1948   70.6922    0.9123 H   0  0  0  0  0  0  0  0  0  0  0  0
   20.4932   69.7252    5.2226 H   0  0  0  0  0  0  0  0  0  0  0  0
   14.8261   68.9022    3.4146 H   0  0  0  0  0  0  0  0  0  0  0  0
   15.0197   68.9630    1.6422 H   0  0  0  0  0  0  0  0  0  0  0  0
 11  7  2  0
 11  8  1  0
  7  4  1  0
 12  8  1  0
  8  1  2  0
  4  2  2  0
  1  2  1  0
  1  3  1  0
  2  9  1  0
  3 10  2  0
  3  5  1  0
  9  6  1  0
  6  5  2  0
  5 13  1  0
  6 14  1  0
  7 15  1  0
  9 16  1  0
 12 17  1  0
 12 18  1  0
A    1
C1
A    2
C2
A    3
C3
A    4
N6
A    5
C7
A    6
C11
A    7
C12
A    8
C4
A    9
N5
A   10
O8
A   11
N9
A   12
N10
M  END
