4X2A_3WL_A_203
     RDKit          3D

 30 32  0  0  0  0  0  0  0  0999 V2000
    4.3270  -12.9660   32.3600 C   0  0  0  0  0  0  0  0  0  0  0  0
    3.9600  -13.5470   33.5620 C   0  0  0  0  0  0  0  0  0  0  0  0
    3.7430  -11.8890   30.1990 C   0  0  0  0  0  0  0  0  0  0  0  0
    4.7970  -11.0720   29.9850 C   0  0  0  0  0  0  0  0  0  0  0  0
    5.0910  -10.5150   28.6910 C   0  0  0  0  0  0  0  0  0  0  0  0
    4.3130  -10.4400   26.3040 C   0  0  0  0  0  0  0  0  0  0  0  0
    2.1890  -12.1450   26.9530 C   0  0  0  0  0  0  0  0  0  0  0  0
    6.0590   -9.7660   28.4970 O   0  0  0  0  0  0  0  0  0  0  0  0
    4.1690  -10.8970   27.6280 C   0  0  0  0  0  0  0  0  0  0  0  0
    3.0950  -11.7470   27.9150 C   0  0  0  0  0  0  0  0  0  0  0  0
    2.3410  -11.6880   25.6540 C   0  0  0  0  0  0  0  0  0  0  0  0
    1.4660  -12.0600   24.6830 O   0  0  0  0  0  0  0  0  0  0  0  0
    3.3960  -10.8380   25.3200 C   0  0  0  0  0  0  0  0  0  0  0  0
    3.5510  -10.3870   24.0490 O   0  0  0  0  0  0  0  0  0  0  0  0
    5.3270   -9.6120   25.9440 O   0  0  0  0  0  0  0  0  0  0  0  0
    2.8880  -12.2370   29.1910 O   0  0  0  0  0  0  0  0  0  0  0  0
    3.3590  -12.5060   31.4740 C   0  0  0  0  0  0  0  0  0  0  0  0
    2.0180  -12.6410   31.8210 C   0  0  0  0  0  0  0  0  0  0  0  0
    1.6600  -13.2220   33.0240 C   0  0  0  0  0  0  0  0  0  0  0  0
    2.6290  -13.6750   33.8940 C   0  0  0  0  0  0  0  0  0  0  0  0
    5.3923  -12.8676   32.1040 H   0  0  0  0  0  0  0  0  0  0  0  0
    4.7344  -13.9079   34.2548 H   0  0  0  0  0  0  0  0  0  0  0  0
    5.4548  -10.8232   30.8308 H   0  0  0  0  0  0  0  0  0  0  0  0
    1.3574  -12.8160   27.2141 H   0  0  0  0  0  0  0  0  0  0  0  0
    0.5835  -12.4352   24.9292 H   0  0  0  0  0  0  0  0  0  0  0  0
    3.8684   -9.4634   23.8867 H   0  0  0  0  0  0  0  0  0  0  0  0
    5.8728   -9.1663   26.6394 H   0  0  0  0  0  0  0  0  0  0  0  0
    1.2373  -12.2831   31.1336 H   0  0  0  0  0  0  0  0  0  0  0  0
    0.5970  -13.3232   33.2880 H   0  0  0  0  0  0  0  0  0  0  0  0
    2.3404  -14.1369   34.8497 H   0  0  0  0  0  0  0  0  0  0  0  0
  2 20  1  0
  2  1  2  0
 20 19  2  0
  1 17  1  0
 19 18  1  0
 17 18  2  0
 17  3  1  0
  4  3  2  0
  4  5  1  0
  8  5  2  0
  3 16  1  0
  5  9  1  0
 16 10  1  0
  9 10  2  0
  9  6  1  0
 15  6  1  0
 10  7  1  0
  6 13  2  0
  7 11  2  0
 13 11  1  0
 13 14  1  0
 11 12  1  0
  1 21  1  0
  2 22  1  0
  4 23  1  0
  7 24  1  0
 12 25  1  0
 14 26  1  0
 15 27  1  0
 18 28  1  0
 19 29  1  0
 20 30  1  0
A    1
C4
A    2
C5
A    3
C6
A    4
C7
A    5
C8
A    6
C10
A    7
C13
A    8
O
A    9
C9
A   10
C14
A   11
C12
A   12
O2
A   13
C11
A   14
O3
A   15
O4
A   16
O1
A   17
C3
A   18
C2
A   19
C1
A   20
C
M  END
