4X2K_3WO_A_601
     RDKit          3D

 30 32  0  0  0  0  0  0  0  0999 V2000
   20.2900   70.2800    4.3220 C   0  0  0  0  0  0  0  0  0  0  0  0
   20.4440   70.9220    3.1550 C   0  0  0  0  0  0  0  0  0  0  0  0
   16.0580   70.1300    1.7970 C   0  0  0  0  0  0  0  0  0  0  0  0
   16.6720   69.2320    3.8430 C   0  0  0  0  0  0  0  0  0  0  0  0
   15.2540   67.7810    5.2300 C   0  0  0  0  0  0  0  0  0  0  0  0
   14.4280   68.1300    6.2980 C   0  0  0  0  0  0  0  0  0  0  0  0
   12.9810   66.2770    5.7650 C   0  0  0  0  0  0  0  0  0  0  0  0
   13.8200   65.9090    4.7130 C   0  0  0  0  0  0  0  0  0  0  0  0
   19.4550   71.0230    2.2400 N   0  0  0  0  0  0  0  0  0  0  0  0
   19.0570   69.6640    4.6410 C   0  0  0  0  0  0  0  0  0  0  0  0
   17.9620   69.7720    3.6570 C   0  0  0  0  0  0  0  0  0  0  0  0
   18.2270   70.4770    2.4490 C   0  0  0  0  0  0  0  0  0  0  0  0
   17.2600   70.6330    1.5600 N   0  0  0  0  0  0  0  0  0  0  0  0
   15.7500   69.4470    2.8840 N   0  0  0  0  0  0  0  0  0  0  0  0
   18.9290   69.1110    5.7180 O   0  0  0  0  0  0  0  0  0  0  0  0
   16.4090   68.5370    5.0060 N   0  0  0  0  0  0  0  0  0  0  0  0
   13.2770   67.3870    6.5580 C   0  0  0  0  0  0  0  0  0  0  0  0
   14.9660   66.6520    4.4500 C   0  0  0  0  0  0  0  0  0  0  0  0
   12.4090   67.7730    7.5940 N   0  0  0  0  0  0  0  0  0  0  0  0
   21.0549   69.4900    4.3514 H   0  0  0  0  0  0  0  0  0  0  0  0
   20.3636   71.0893    5.0634 H   0  0  0  0  0  0  0  0  0  0  0  0
   21.4164   71.3860    2.9332 H   0  0  0  0  0  0  0  0  0  0  0  0
   15.2713   70.2905    1.0451 H   0  0  0  0  0  0  0  0  0  0  0  0
   14.6840   68.9900    6.9343 H   0  0  0  0  0  0  0  0  0  0  0  0
   12.0765   65.6862    5.9718 H   0  0  0  0  0  0  0  0  0  0  0  0
   13.5759   65.0336    4.0932 H   0  0  0  0  0  0  0  0  0  0  0  0
   17.1103   68.5779    5.7593 H   0  0  0  0  0  0  0  0  0  0  0  0
   15.6425   66.3556    3.6348 H   0  0  0  0  0  0  0  0  0  0  0  0
   12.6917   67.6473    8.5764 H   0  0  0  0  0  0  0  0  0  0  0  0
   11.4902   68.1816    7.3707 H   0  0  0  0  0  0  0  0  0  0  0  0
 13  3  2  0
 13 12  1  0
  3 14  1  0
  9 12  1  0
  9  2  2  0
 12 11  2  0
 14  4  2  0
  2  1  1  0
 11  4  1  0
 11 10  1  0
  4 16  1  0
  1 10  1  0
 18  8  2  0
 18  5  1  0
 10 15  2  0
  8  7  1  0
 16  5  1  0
  5  6  2  0
  7 17  2  0
  6 17  1  0
 17 19  1  0
  1 20  1  0
  1 21  1  0
  2 22  1  0
  3 23  1  0
  6 24  1  0
  7 25  1  0
  8 26  1  0
 16 27  1  0
 18 28  1  0
 19 29  1  0
 19 30  1  0
A    1
C1
A    2
C2
A    3
C8
A    4
C10
A    5
C13
A    6
C14
A    7
C15
A    8
C16
A    9
N3
A   10
C4
A   11
C5
A   12
C6
A   13
N7
A   14
N9
A   15
O11
A   16
N12
A   17
C17
A   18
C18
A   19
N19
M  END
