4X3R_686_A_1320
     RDKit          3D

 91 94  0  0  0  0  0  0  0  0999 V2000
   32.7370    9.4930   33.7220 C   0  0  0  0  0  0  0  0  0  0  0  0
   31.4920    9.1140   34.2100 C   0  0  0  0  0  0  0  0  0  0  0  0
   30.3550    9.9140   34.0050 C   0  0  0  0  0  0  0  0  0  0  0  0
   32.8360   10.6950   33.0280 C   0  0  0  0  0  0  0  0  0  0  0  0
   31.7050   11.5020   32.8230 C   0  0  0  0  0  0  0  0  0  0  0  0
   30.4450   11.1170   33.2990 C   0  0  0  0  0  0  0  0  0  0  0  0
   29.3080   11.9590   33.1150 N   0  0  0  0  0  0  0  0  0  0  0  0
   27.9470   11.3950   33.1300 C   0  0  0  0  0  0  0  0  0  0  0  0
   26.8730   12.3430   32.5660 C   0  0  0  0  0  0  0  0  0  0  0  0
   29.5860   13.4000   33.0320 C   0  0  0  0  0  0  0  0  0  0  0  0
   28.4960   14.1700   32.2910 C   0  0  0  0  0  0  0  0  0  0  0  0
   27.2340   13.7230   32.8580 N   0  0  0  0  0  0  0  0  0  0  0  0
   26.4030   14.5690   33.6480 C   0  0  0  0  0  0  0  0  0  0  0  0
   25.4180   13.9840   34.4230 C   0  0  0  0  0  0  0  0  0  0  0  0
   24.5790   14.7480   35.2250 C   0  0  0  0  0  0  0  0  0  0  0  0
   26.5290   15.9410   33.6920 N   0  0  0  0  0  0  0  0  0  0  0  0
   25.7090   16.7220   34.4540 C   0  0  0  0  0  0  0  0  0  0  0  0
   24.7090   16.1430   35.2510 C   0  0  0  0  0  0  0  0  0  0  0  0
   23.7640   16.9610   36.1000 C   0  0  0  0  0  0  0  0  0  0  0  0
   22.5510   17.0200   35.8400 O   0  0  0  0  0  0  0  0  0  0  0  0
   24.1870   17.6370   37.1560 N   0  0  0  0  0  0  0  0  0  0  0  0
   25.5660   17.6550   37.6070 C   0  0  0  0  0  0  0  0  0  0  0  0
   25.9270   16.2640   38.0300 C   0  0  0  0  0  0  0  0  0  0  0  0
   26.8020   15.5110   37.2300 C   0  0  0  0  0  0  0  0  0  0  0  0
   27.1750   14.2180   37.5990 C   0  0  0  0  0  0  0  0  0  0  0  0
   26.6550   13.6760   38.7760 C   0  0  0  0  0  0  0  0  0  0  0  0
   27.1610   11.9150   39.2870 Br  0  0  0  0  0  0  0  0  0  0  0  0
   25.7810   14.4280   39.5740 C   0  0  0  0  0  0  0  0  0  0  0  0
   25.4250   15.7360   39.2110 C   0  0  0  0  0  0  0  0  0  0  0  0
   23.2170   18.3870   37.9490 C   0  0  0  0  0  0  0  0  0  0  0  0
   23.1480   19.8110   37.4130 C   0  0  0  0  0  0  0  0  0  0  0  0
   22.2980   19.9720   36.1300 C   0  0  0  0  0  0  0  0  0  0  0  0
   20.8400   19.6050   36.3410 C   0  0  0  0  0  0  0  0  0  0  0  0
   19.8980   20.1860   35.2670 C   0  0  0  0  0  0  0  0  0  0  0  0
   20.1570   19.5350   33.9340 C   0  0  0  0  0  0  0  0  0  0  0  0
   20.7890   20.0560   33.0350 O   0  0  0  0  0  0  0  0  0  0  0  0
   19.6610   18.3320   33.7150 O   0  0  0  0  0  0  0  0  0  0  0  0
   18.5560   19.9060   35.7030 N   0  0  0  0  0  0  0  0  0  0  0  0
   17.8660   20.6550   36.5700 C   0  0  0  0  0  0  0  0  0  0  0  0
   18.3160   21.6920   37.0770 O   0  0  0  0  0  0  0  0  0  0  0  0
   16.6550   20.2110   36.8950 N   0  0  0  0  0  0  0  0  0  0  0  0
   16.0220   20.7060   38.0820 C   0  0  0  0  0  0  0  0  0  0  0  0
   16.9790   20.5180   39.2330 C   0  0  0  0  0  0  0  0  0  0  0  0
   17.8590   19.6200   39.2930 O   0  0  0  0  0  0  0  0  0  0  0  0
   16.8210   21.3640   40.2250 O   0  0  0  0  0  0  0  0  0  0  0  0
   14.7300   20.0120   38.5180 C   0  0  0  0  0  0  0  0  0  0  0  0
   14.9300   18.5170   38.6140 C   0  0  0  0  0  0  0  0  0  0  0  0
   13.7810   17.7690   39.2700 C   0  0  0  0  0  0  0  0  0  0  0  0
   12.8960   18.2860   39.9840 O   0  0  0  0  0  0  0  0  0  0  0  0
   13.7170   16.4520   39.0560 O   0  0  0  0  0  0  0  0  0  0  0  0
   33.6217    8.8588   33.8804 H   0  0  0  0  0  0  0  0  0  0  0  0
   31.3949    8.1704   34.7670 H   0  0  0  0  0  0  0  0  0  0  0  0
   29.3829    9.5897   34.4048 H   0  0  0  0  0  0  0  0  0  0  0  0
   33.8117   11.0170   32.6353 H   0  0  0  0  0  0  0  0  0  0  0  0
   31.8103   12.4525   32.2794 H   0  0  0  0  0  0  0  0  0  0  0  0
   27.6837   11.1531   34.1703 H   0  0  0  0  0  0  0  0  0  0  0  0
   27.9620   10.5071   32.4809 H   0  0  0  0  0  0  0  0  0  0  0  0
   25.9024   12.1130   33.0297 H   0  0  0  0  0  0  0  0  0  0  0  0
   26.8034   12.2075   31.4766 H   0  0  0  0  0  0  0  0  0  0  0  0
   30.5398   13.5442   32.5033 H   0  0  0  0  0  0  0  0  0  0  0  0
   29.6268   13.7896   34.0599 H   0  0  0  0  0  0  0  0  0  0  0  0
   28.5328   13.9445   31.2150 H   0  0  0  0  0  0  0  0  0  0  0  0
   28.6247   15.2569   32.4009 H   0  0  0  0  0  0  0  0  0  0  0  0
   25.2962   12.8909   34.4041 H   0  0  0  0  0  0  0  0  0  0  0  0
   23.8112   14.2567   35.8407 H   0  0  0  0  0  0  0  0  0  0  0  0
   25.8329   17.8149   34.4435 H   0  0  0  0  0  0  0  0  0  0  0  0
   26.2237   17.9795   36.7872 H   0  0  0  0  0  0  0  0  0  0  0  0
   25.6869   18.3557   38.4463 H   0  0  0  0  0  0  0  0  0  0  0  0
   27.1983   15.9461   36.3007 H   0  0  0  0  0  0  0  0  0  0  0  0
   27.8671   13.6355   36.9731 H   0  0  0  0  0  0  0  0  0  0  0  0
   25.3700   13.9879   40.4945 H   0  0  0  0  0  0  0  0  0  0  0  0
   24.7592   16.3327   39.8519 H   0  0  0  0  0  0  0  0  0  0  0  0
   22.2276   17.9128   37.8696 H   0  0  0  0  0  0  0  0  0  0  0  0
   23.5233   18.3976   39.0054 H   0  0  0  0  0  0  0  0  0  0  0  0
   24.1723   20.1447   37.1909 H   0  0  0  0  0  0  0  0  0  0  0  0
   22.6586   20.4153   38.1910 H   0  0  0  0  0  0  0  0  0  0  0  0
   22.7149   19.3204   35.3480 H   0  0  0  0  0  0  0  0  0  0  0  0
   22.3342   21.0323   35.8393 H   0  0  0  0  0  0  0  0  0  0  0  0
   20.5240   19.9849   37.3237 H   0  0  0  0  0  0  0  0  0  0  0  0
   20.7692   18.5093   36.2750 H   0  0  0  0  0  0  0  0  0  0  0  0
   20.0596   21.2671   35.1439 H   0  0  0  0  0  0  0  0  0  0  0  0
   19.4207   17.7492   34.4783 H   0  0  0  0  0  0  0  0  0  0  0  0
   18.0936   19.0690   35.3202 H   0  0  0  0  0  0  0  0  0  0  0  0
   16.1773   19.5190   36.3002 H   0  0  0  0  0  0  0  0  0  0  0  0
   15.7614   21.7456   37.8346 H   0  0  0  0  0  0  0  0  0  0  0  0
   16.8803   21.0463   41.1607 H   0  0  0  0  0  0  0  0  0  0  0  0
   14.4269   20.3992   39.5020 H   0  0  0  0  0  0  0  0  0  0  0  0
   13.9502   20.2161   37.7695 H   0  0  0  0  0  0  0  0  0  0  0  0
   15.0608   18.1216   37.5959 H   0  0  0  0  0  0  0  0  0  0  0  0
   15.8116   18.3593   39.2527 H   0  0  0  0  0  0  0  0  0  0  0  0
   12.9685   18.2437   40.9704 H   0  0  0  0  0  0  0  0  0  0  0  0
 11 12  1  0
 11 10  1  0
  9 12  1  0
  9  8  1  0
  5  4  1  0
  5  6  2  0
 12 13  1  0
  4  1  2  0
 10  7  1  0
 36 35  2  0
  7  8  1  0
  7  6  1  0
  6  3  1  0
 13 16  1  0
 13 14  2  0
 16 17  2  0
 37 35  1  0
  1  2  1  0
 35 34  1  0
  3  2  2  0
 14 15  1  0
 17 18  1  0
 15 18  2  0
 18 19  1  0
 34 38  1  0
 34 33  1  0
 38 39  1  0
 20 19  2  0
 19 21  1  0
 32 33  1  0
 32 31  1  0
 39 41  1  0
 39 40  2  0
 41 42  1  0
 21 22  1  0
 21 30  1  0
 24 25  2  0
 24 23  1  0
 31 30  1  0
 25 26  1  0
 22 23  1  0
 23 29  2  0
 42 46  1  0
 42 43  1  0
 46 47  1  0
 47 48  1  0
 26 27  1  0
 26 28  2  0
 50 48  2  0
 29 28  1  0
 43 44  2  0
 43 45  1  0
 48 49  1  0
  1 51  1  0
  2 52  1  0
  3 53  1  0
  4 54  1  0
  5 55  1  0
  8 56  1  0
  8 57  1  0
  9 58  1  0
  9 59  1  0
 10 60  1  0
 10 61  1  0
 11 62  1  0
 11 63  1  0
 14 64  1  0
 15 65  1  0
 17 66  1  0
 22 67  1  0
 22 68  1  0
 24 69  1  0
 25 70  1  0
 28 71  1  0
 29 72  1  0
 30 73  1  0
 30 74  1  0
 31 75  1  0
 31 76  1  0
 32 77  1  0
 32 78  1  0
 33 79  1  0
 33 80  1  0
 34 81  1  0
 37 82  1  0
 38 83  1  0
 41 84  1  0
 42 85  1  0
 45 86  1  0
 46 87  1  0
 46 88  1  0
 47 89  1  0
 47 90  1  0
 49 91  1  0
A    1
C34
A    2
C31
A    3
C30
A    4
C33
A    5
C32
A    6
C29
A    7
N5
A    8
C26
A    9
C25
A   10
C28
A   11
C27
A   12
N4
A   13
C24
A   14
C22
A   15
C21
A   16
N3
A   17
C23
A   18
C20
A   19
C
A   20
O
A   21
N
A   22
C1
A   23
C2
A   24
C7
A   25
C6
A   26
C5
A   27
BR
A   28
C4
A   29
C3
A   30
C8
A   31
C9
A   32
C10
A   33
C11
A   34
C12
A   35
C13
A   36
O2
A   37
O1
A   38
N1
A   39
C14
A   40
O7
A   41
N2
A   42
C15
A   43
C19
A   44
O6
A   45
O5
A   46
C16
A   47
C17
A   48
C18
A   49
O4
A   50
O3
M  END
