4X5P_3XJ_A_301
     RDKit          3D

 51 53  0  0  0  0  0  0  0  0999 V2000
  -15.1180   50.4970  -13.3420 O   0  0  0  0  0  0  0  0  0  0  0  0
   -6.7080   46.7120  -11.1040 C   0  0  0  0  0  0  0  0  0  0  0  0
   -5.4240   46.4830  -10.6460 C   0  0  0  0  0  0  0  0  0  0  0  0
   -2.7290   49.0840   -9.0670 O   0  0  0  0  0  0  0  0  0  0  0  0
   -9.4770   47.4900  -12.1610 C   0  0  0  0  0  0  0  0  0  0  0  0
  -10.7380   48.1140  -12.6070 C   0  0  0  0  0  0  0  0  0  0  0  0
  -11.4350   47.4510  -13.6330 C   0  0  0  0  0  0  0  0  0  0  0  0
  -12.6870   47.8930  -14.0330 C   0  0  0  0  0  0  0  0  0  0  0  0
   -2.1810   47.2590   -5.9550 O   0  0  0  0  0  0  0  0  0  0  0  0
  -13.2550   48.9940  -13.4240 C   0  0  0  0  0  0  0  0  0  0  0  0
   -0.0900   46.2640   -7.5790 O   0  0  0  0  0  0  0  0  0  0  0  0
  -12.5570   49.6660  -12.4060 C   0  0  0  0  0  0  0  0  0  0  0  0
  -11.2970   49.2380  -12.0070 C   0  0  0  0  0  0  0  0  0  0  0  0
  -14.6370   49.4830  -13.8970 C   0  0  0  0  0  0  0  0  0  0  0  0
   -0.0020   48.3960   -9.4240 O   0  0  0  0  0  0  0  0  0  0  0  0
   -2.2840   48.1090   -9.9560 C   0  0  0  0  0  0  0  0  0  0  0  0
   -2.6560   50.7080   -6.8170 O   0  0  0  0  0  0  0  0  0  0  0  0
   -3.0610   48.5350   -7.7870 C   0  0  0  0  0  0  0  0  0  0  0  0
  -15.1770   48.8320  -14.8210 O   0  0  0  0  0  0  0  0  0  0  0  0
   -9.3900   46.3470  -11.9760 O   0  0  0  0  0  0  0  0  0  0  0  0
   -8.3500   48.2980  -12.0300 N   0  0  0  0  0  0  0  0  0  0  0  0
   -7.0420   47.9790  -11.6170 C   0  0  0  0  0  0  0  0  0  0  0  0
   -6.0730   48.9560  -11.6470 C   0  0  0  0  0  0  0  0  0  0  0  0
   -4.8130   48.7120  -11.1860 C   0  0  0  0  0  0  0  0  0  0  0  0
   -5.0090   44.9220  -10.0830 Cl  0  0  0  0  0  0  0  0  0  0  0  0
   -4.4700   47.4700  -10.6730 C   0  0  0  0  0  0  0  0  0  0  0  0
   -3.2130   47.1260  -10.2170 O   0  0  0  0  0  0  0  0  0  0  0  0
   -1.0440   47.4500   -9.4520 C   0  0  0  0  0  0  0  0  0  0  0  0
   -1.2390   46.8460   -8.1130 C   0  0  0  0  0  0  0  0  0  0  0  0
   -1.8690   47.8320   -7.1810 C   0  0  0  0  0  0  0  0  0  0  0  0
   -3.6190   49.6710   -6.9640 C   0  0  0  0  0  0  0  0  0  0  0  0
  -15.1453   50.5545  -12.3540 H   0  0  0  0  0  0  0  0  0  0  0  0
   -7.4615   45.9114  -11.0678 H   0  0  0  0  0  0  0  0  0  0  0  0
  -10.9835   46.5751  -14.1219 H   0  0  0  0  0  0  0  0  0  0  0  0
  -13.2267   47.3671  -14.8343 H   0  0  0  0  0  0  0  0  0  0  0  0
   -1.8611   47.8465   -5.2252 H   0  0  0  0  0  0  0  0  0  0  0  0
   -0.1370   46.2878   -6.5904 H   0  0  0  0  0  0  0  0  0  0  0  0
  -13.0135   50.5407  -11.9197 H   0  0  0  0  0  0  0  0  0  0  0  0
  -10.7471   49.7820  -11.2249 H   0  0  0  0  0  0  0  0  0  0  0  0
    0.2285   48.6053   -8.4842 H   0  0  0  0  0  0  0  0  0  0  0  0
   -2.0900   48.6512  -10.8932 H   0  0  0  0  0  0  0  0  0  0  0  0
   -2.4983   50.8779   -5.8545 H   0  0  0  0  0  0  0  0  0  0  0  0
   -3.8262   47.7472   -7.8484 H   0  0  0  0  0  0  0  0  0  0  0  0
   -8.4969   49.2877  -12.2745 H   0  0  0  0  0  0  0  0  0  0  0  0
   -6.3189   49.9498  -12.0494 H   0  0  0  0  0  0  0  0  0  0  0  0
   -4.0582   49.5114  -11.2215 H   0  0  0  0  0  0  0  0  0  0  0  0
   -0.7848   46.6272  -10.1345 H   0  0  0  0  0  0  0  0  0  0  0  0
   -1.9330   46.0030   -8.2459 H   0  0  0  0  0  0  0  0  0  0  0  0
   -1.1107   48.6080   -7.0001 H   0  0  0  0  0  0  0  0  0  0  0  0
   -4.5109   50.0753   -7.4650 H   0  0  0  0  0  0  0  0  0  0  0  0
   -3.8809   49.2886   -5.9664 H   0  0  0  0  0  0  0  0  0  0  0  0
 19 14  2  0
  8  7  2  0
  8 10  1  0
 14 10  1  0
 14  1  1  0
  7  6  1  0
 10 12  2  0
  6  5  1  0
  6 13  2  0
 12 13  1  0
  5 21  1  0
  5 20  2  0
 21 22  1  0
 23 22  1  0
 23 24  2  0
 22  2  2  0
 24 26  1  0
  2  3  1  0
 26  3  2  0
 26 27  1  0
  3 25  1  0
 27 16  1  0
 16 28  1  0
 16  4  1  0
 28 15  1  0
 28 29  1  0
  4 18  1  0
 29 11  1  0
 29 30  1  0
 18 30  1  0
 18 31  1  0
 30  9  1  0
 31 17  1  0
  1 32  1  0
  2 33  1  0
  7 34  1  0
  8 35  1  0
  9 36  1  0
 11 37  1  0
 12 38  1  0
 13 39  1  0
 15 40  1  0
 16 41  1  0
 17 42  1  0
 18 43  1  0
 21 44  1  0
 23 45  1  0
 24 46  1  0
 28 47  1  0
 29 48  1  0
 30 49  1  0
 31 50  1  0
 31 51  1  0
A    1
O3
A    2
C4
A    3
C5
A    4
O4
A    5
C6
A    6
C7
A    7
C8
A    8
C9
A    9
O5
A   10
C10
A   11
O6
A   12
C11
A   13
C12
A   14
C13
A   15
O7
A   16
C14
A   17
O8
A   18
C15
A   19
O2
A   20
O1
A   21
N
A   22
C3
A   23
C2
A   24
C1
A   25
CL
A   26
C
A   27
O
A   28
C18
A   29
C17
A   30
C16
A   31
C19
M  END
