4X5Q_3XN_A_301
     RDKit          3D

 50 53  0  0  0  0  0  0  0  0999 V2000
  -24.1110   -9.7690   -7.6790 O   0  0  0  0  0  0  0  0  0  0  0  0
  -27.1610   -7.5890   -7.9160 C   0  0  0  0  0  0  0  0  0  0  0  0
  -27.7200   -6.4400   -7.1240 C   0  0  0  0  0  0  0  0  0  0  0  0
  -24.1020   -7.6840   -9.5770 O   0  0  0  0  0  0  0  0  0  0  0  0
  -28.5790   -8.9190  -10.6820 C   0  0  0  0  0  0  0  0  0  0  0  0
  -37.4750  -10.6490  -10.0590 N   0  0  0  0  0  0  0  0  0  0  0  0
  -29.0040   -7.7270  -11.1830 C   0  0  0  0  0  0  0  0  0  0  0  0
  -30.3350   -7.6400  -11.6220 C   0  0  0  0  0  0  0  0  0  0  0  0
  -31.1900   -8.7500  -11.5350 C   0  0  0  0  0  0  0  0  0  0  0  0
  -27.2760   -9.1160  -10.2620 O   0  0  0  0  0  0  0  0  0  0  0  0
  -30.7160   -9.9400  -11.0230 C   0  0  0  0  0  0  0  0  0  0  0  0
  -37.5430  -11.0810   -8.9100 O   0  0  0  0  0  0  0  0  0  0  0  0
  -29.4180  -10.0220  -10.6030 C   0  0  0  0  0  0  0  0  0  0  0  0
  -32.9790   -7.9050  -13.0710 C   0  0  0  0  0  0  0  0  0  0  0  0
  -34.3580   -8.0770  -13.2050 C   0  0  0  0  0  0  0  0  0  0  0  0
  -38.4390  -10.5870  -10.8090 O   0  0  0  0  0  0  0  0  0  0  0  0
  -34.7970   -8.9530  -12.1160 C   0  0  0  0  0  0  0  0  0  0  0  0
  -33.6340   -9.2990  -11.3590 C   0  0  0  0  0  0  0  0  0  0  0  0
  -36.1400  -10.1770  -10.5400 C   0  0  0  0  0  0  0  0  0  0  0  0
  -36.0690   -9.4010  -11.7030 C   0  0  0  0  0  0  0  0  0  0  0  0
  -34.9910  -10.5270   -9.7770 C   0  0  0  0  0  0  0  0  0  0  0  0
  -33.7400  -10.0980  -10.1810 C   0  0  0  0  0  0  0  0  0  0  0  0
  -32.5500   -8.6600  -11.9550 N   0  0  0  0  0  0  0  0  0  0  0  0
  -26.4000   -8.0750  -10.0740 C   0  0  0  0  0  0  0  0  0  0  0  0
  -26.8510   -7.0740   -9.2190 O   0  0  0  0  0  0  0  0  0  0  0  0
  -26.7620   -5.3920   -6.9740 O   0  0  0  0  0  0  0  0  0  0  0  0
  -25.9110   -8.2150   -7.2920 C   0  0  0  0  0  0  0  0  0  0  0  0
  -26.2400   -8.8270   -6.0650 O   0  0  0  0  0  0  0  0  0  0  0  0
  -25.3300   -9.2710   -8.2220 C   0  0  0  0  0  0  0  0  0  0  0  0
  -25.1080   -8.6930   -9.6140 C   0  0  0  0  0  0  0  0  0  0  0  0
  -24.1580   -9.7498   -6.6903 H   0  0  0  0  0  0  0  0  0  0  0  0
  -27.9076   -8.3962   -7.9458 H   0  0  0  0  0  0  0  0  0  0  0  0
  -28.6044   -6.0439   -7.6446 H   0  0  0  0  0  0  0  0  0  0  0  0
  -27.9872   -6.8089   -6.1227 H   0  0  0  0  0  0  0  0  0  0  0  0
  -23.8862   -7.4675   -8.6354 H   0  0  0  0  0  0  0  0  0  0  0  0
  -28.3279   -6.8613  -11.2420 H   0  0  0  0  0  0  0  0  0  0  0  0
  -30.7111   -6.6936  -12.0378 H   0  0  0  0  0  0  0  0  0  0  0  0
  -31.3775  -10.8161  -10.9533 H   0  0  0  0  0  0  0  0  0  0  0  0
  -29.0348  -10.9705  -10.1988 H   0  0  0  0  0  0  0  0  0  0  0  0
  -32.3384   -7.2898  -13.7200 H   0  0  0  0  0  0  0  0  0  0  0  0
  -34.9969   -7.6361  -13.9844 H   0  0  0  0  0  0  0  0  0  0  0  0
  -36.9742   -9.1493  -12.2751 H   0  0  0  0  0  0  0  0  0  0  0  0
  -35.0977  -11.1373   -8.8681 H   0  0  0  0  0  0  0  0  0  0  0  0
  -32.8426  -10.3677   -9.6048 H   0  0  0  0  0  0  0  0  0  0  0  0
  -26.2753   -7.5311  -11.0220 H   0  0  0  0  0  0  0  0  0  0  0  0
  -26.6067   -5.2222   -6.0111 H   0  0  0  0  0  0  0  0  0  0  0  0
  -25.1705   -7.4184   -7.1276 H   0  0  0  0  0  0  0  0  0  0  0  0
  -25.9324   -8.2548   -5.3179 H   0  0  0  0  0  0  0  0  0  0  0  0
  -26.0433  -10.1035   -8.3122 H   0  0  0  0  0  0  0  0  0  0  0  0
  -24.7853   -9.4914  -10.2985 H   0  0  0  0  0  0  0  0  0  0  0  0
 15 14  2  0
 15 17  1  0
 14 23  1  0
 17 20  2  0
 17 18  1  0
 23  9  1  0
 23 18  1  0
 20 19  1  0
  8  9  1  0
  8  7  2  0
  9 11  2  0
 18 22  2  0
  7  5  1  0
 11 13  1  0
 16  6  1  0
  5 13  2  0
  5 10  1  0
 19  6  1  0
 19 21  2  0
 10 24  1  0
 22 21  1  0
 24 30  1  0
 24 25  1  0
  6 12  2  0
 30  4  1  0
 30 29  1  0
 25  2  1  0
 29  1  1  0
 29 27  1  0
  2 27  1  0
  2  3  1  0
 27 28  1  0
  3 26  1  0
  1 31  1  0
  2 32  1  0
  3 33  1  0
  3 34  1  0
  4 35  1  0
  7 36  1  0
  8 37  1  0
 11 38  1  0
 13 39  1  0
 14 40  1  0
 15 41  1  0
 20 42  1  0
 21 43  1  0
 22 44  1  0
 24 45  1  0
 26 46  1  0
 27 47  1  0
 28 48  1  0
 29 49  1  0
 30 50  1  0
M  CHG  2   6   1  16  -1
A    1
O3
A    2
C4
A    3
C5
A    4
O4
A    5
C6
A    6
N1
A    7
C7
A    8
C8
A    9
C9
A   10
O5
A   11
C10
A   12
O6
A   13
C11
A   14
C12
A   15
C13
A   16
O7
A   17
C14
A   18
C15
A   19
C18
A   20
C19
A   21
C17
A   22
C16
A   23
N
A   24
C
A   25
O
A   26
O1
A   27
C3
A   28
O2
A   29
C2
A   30
C1
M  END
