4X6F_3XU_A_301
     RDKit          3D

150149  0  0  0  0  0  0  0  0999 V2000
   33.1070  112.4440   21.6770 O   0  0  0  0  0  0  0  0  0  0  0  0
   35.1740  112.6820   20.6460 N   0  0  0  0  0  0  0  0  0  0  0  0
   36.9580  113.1950   18.7810 C   0  0  0  0  0  0  0  0  0  0  0  0
   36.6780  118.4320   22.3350 O   0  0  0  0  0  0  0  0  0  0  0  0
   36.4090  117.0120   22.7790 P   0  0  0  0  0  0  0  0  0  0  0  0
   35.8380  116.4220   24.0190 O   0  0  0  0  0  0  0  0  0  0  0  0
   38.1110  116.5530   22.8640 O   0  0  0  0  0  0  0  0  0  0  0  0
   38.9080  117.2550   23.7050 C   0  0  0  0  0  0  0  0  0  0  0  0
   39.4400  116.2560   24.8020 C   0  0  0  0  0  0  0  0  0  0  0  0
   40.3190  117.0850   25.7620 N   0  0  0  0  0  0  0  0  0  0  0  0
   41.4130  116.2170   26.3780 C   0  0  0  0  0  0  0  0  0  0  0  0
   39.4460  117.6950   26.8630 C   0  0  0  0  0  0  0  0  0  0  0  0
   41.0100  118.2030   24.9730 C   0  0  0  0  0  0  0  0  0  0  0  0
   35.7510  116.1590   21.5340 O   0  0  0  0  0  0  0  0  0  0  0  0
   36.2440  114.8900   21.1690 C   0  0  0  0  0  0  0  0  0  0  0  0
   35.2290  114.1320   20.2560 C   0  0  0  0  0  0  0  0  0  0  0  0
   35.7820  114.1480   18.8100 C   0  0  0  0  0  0  0  0  0  0  0  0
   36.3120  115.3910   18.3860 O   0  0  0  0  0  0  0  0  0  0  0  0
   37.0460  112.1380   17.9640 C   0  0  0  0  0  0  0  0  0  0  0  0
   35.9130  111.9140   17.0190 C   0  0  0  0  0  0  0  0  0  0  0  0
   35.6650  110.4760   16.6160 C   0  0  0  0  0  0  0  0  0  0  0  0
   34.4890  109.9210   17.3890 C   0  0  0  0  0  0  0  0  0  0  0  0
   33.7130  109.0770   16.3960 C   0  0  0  0  0  0  0  0  0  0  0  0
   33.8460  107.6120   16.7530 C   0  0  0  0  0  0  0  0  0  0  0  0
   33.0510  107.3300   18.0200 C   0  0  0  0  0  0  0  0  0  0  0  0
   32.4210  105.9490   17.9190 C   0  0  0  0  0  0  0  0  0  0  0  0
   31.0280  105.9330   18.5360 C   0  0  0  0  0  0  0  0  0  0  0  0
   30.1380  106.9730   17.8590 C   0  0  0  0  0  0  0  0  0  0  0  0
   28.6630  106.6760   18.1390 C   0  0  0  0  0  0  0  0  0  0  0  0
   28.4720  105.8120   19.3930 C   0  0  0  0  0  0  0  0  0  0  0  0
   27.0260  105.8690   19.8970 C   0  0  0  0  0  0  0  0  0  0  0  0
   26.1150  105.0220   19.0150 C   0  0  0  0  0  0  0  0  0  0  0  0
   34.1450  111.9450   21.2820 C   0  0  0  0  0  0  0  0  0  0  0  0
   34.4270  110.4420   21.4710 C   0  0  0  0  0  0  0  0  0  0  0  0
   33.1380  109.6260   21.7220 C   0  0  0  0  0  0  0  0  0  0  0  0
   33.3870  108.0970   21.7310 C   0  0  0  0  0  0  0  0  0  0  0  0
   32.0470  107.3490   21.6150 C   0  0  0  0  0  0  0  0  0  0  0  0
   31.8860  106.2100   22.6290 C   0  0  0  0  0  0  0  0  0  0  0  0
   30.9940  105.1170   22.0510 C   0  0  0  0  0  0  0  0  0  0  0  0
   29.8390  104.7910   22.9900 C   0  0  0  0  0  0  0  0  0  0  0  0
   29.6210  103.2820   23.1060 C   0  0  0  0  0  0  0  0  0  0  0  0
   28.1390  102.9500   23.2420 C   0  0  0  0  0  0  0  0  0  0  0  0
   27.9810  101.4440   23.4400 C   0  0  0  0  0  0  0  0  0  0  0  0
   26.5860  101.0810   23.9280 C   0  0  0  0  0  0  0  0  0  0  0  0
   26.5920   99.9880   25.0010 C   0  0  0  0  0  0  0  0  0  0  0  0
   25.1970   99.7830   25.6180 C   0  0  0  0  0  0  0  0  0  0  0  0
   24.8320  101.0130   26.3690 C   0  0  0  0  0  0  0  0  0  0  0  0
   23.6230  101.1870   26.8990 C   0  0  0  0  0  0  0  0  0  0  0  0
   22.5150  100.1920   26.8180 C   0  0  0  0  0  0  0  0  0  0  0  0
   21.1550  100.9110   26.8330 C   0  0  0  0  0  0  0  0  0  0  0  0
   21.1310  102.0380   25.7910 C   0  0  0  0  0  0  0  0  0  0  0  0
   20.0970  101.8170   24.6740 C   0  0  0  0  0  0  0  0  0  0  0  0
   20.2910  102.9390   23.6380 C   0  0  0  0  0  0  0  0  0  0  0  0
   19.5930  102.7500   22.2840 C   0  0  0  0  0  0  0  0  0  0  0  0
   19.8900  103.9390   21.3480 C   0  0  0  0  0  0  0  0  0  0  0  0
   19.0550  103.9750   20.0610 C   0  0  0  0  0  0  0  0  0  0  0  0
   36.0175  112.1382   20.4144 H   0  0  0  0  0  0  0  0  0  0  0  0
   37.7915  113.3826   19.4739 H   0  0  0  0  0  0  0  0  0  0  0  0
   36.2525  116.8503   24.8095 H   0  0  0  0  0  0  0  0  0  0  0  0
   39.7533  117.6859   23.1485 H   0  0  0  0  0  0  0  0  0  0  0  0
   38.3473  118.0784   24.1715 H   0  0  0  0  0  0  0  0  0  0  0  0
   38.5971  115.8089   25.3494 H   0  0  0  0  0  0  0  0  0  0  0  0
   40.0136  115.4350   24.3470 H   0  0  0  0  0  0  0  0  0  0  0  0
   41.3479  116.2686   27.4749 H   0  0  0  0  0  0  0  0  0  0  0  0
   41.2815  115.1748   26.0515 H   0  0  0  0  0  0  0  0  0  0  0  0
   42.3980  116.5820   26.0515 H   0  0  0  0  0  0  0  0  0  0  0  0
   39.8481  117.4141   27.8476 H   0  0  0  0  0  0  0  0  0  0  0  0
   39.4459  118.7907   26.7660 H   0  0  0  0  0  0  0  0  0  0  0  0
   38.4171  117.3183   26.7660 H   0  0  0  0  0  0  0  0  0  0  0  0
   41.4559  118.9245   25.6735 H   0  0  0  0  0  0  0  0  0  0  0  0
   41.7990  117.7712   24.3397 H   0  0  0  0  0  0  0  0  0  0  0  0
   40.2710  118.7156   24.3397 H   0  0  0  0  0  0  0  0  0  0  0  0
   36.4198  114.2978   22.0792 H   0  0  0  0  0  0  0  0  0  0  0  0
   37.1809  115.0277   20.6094 H   0  0  0  0  0  0  0  0  0  0  0  0
   34.2421  114.6092   20.3472 H   0  0  0  0  0  0  0  0  0  0  0  0
   34.9361  113.8945   18.1542 H   0  0  0  0  0  0  0  0  0  0  0  0
   36.5451  115.9377   19.1778 H   0  0  0  0  0  0  0  0  0  0  0  0
   37.9152  111.4643   17.9883 H   0  0  0  0  0  0  0  0  0  0  0  0
   36.1174  112.4902   16.1046 H   0  0  0  0  0  0  0  0  0  0  0  0
   35.0082  112.2336   17.5567 H   0  0  0  0  0  0  0  0  0  0  0  0
   35.4473  110.4313   15.5387 H   0  0  0  0  0  0  0  0  0  0  0  0
   36.5605  109.8774   16.8391 H   0  0  0  0  0  0  0  0  0  0  0  0
   33.8607  110.7385   17.7723 H   0  0  0  0  0  0  0  0  0  0  0  0
   34.8142  109.3316   18.2590 H   0  0  0  0  0  0  0  0  0  0  0  0
   34.1121  109.2440   15.3846 H   0  0  0  0  0  0  0  0  0  0  0  0
   32.6514  109.3634   16.4279 H   0  0  0  0  0  0  0  0  0  0  0  0
   33.4558  106.9960   15.9294 H   0  0  0  0  0  0  0  0  0  0  0  0
   34.9054  107.3676   16.9201 H   0  0  0  0  0  0  0  0  0  0  0  0
   33.7221  107.3653   18.8908 H   0  0  0  0  0  0  0  0  0  0  0  0
   32.2625  108.0879   18.1376 H   0  0  0  0  0  0  0  0  0  0  0  0
   32.3473  105.6648   16.8589 H   0  0  0  0  0  0  0  0  0  0  0  0
   33.0537  105.2362   18.4683 H   0  0  0  0  0  0  0  0  0  0  0  0
   31.1035  106.1629   19.6091 H   0  0  0  0  0  0  0  0  0  0  0  0
   30.5851  104.9360   18.3952 H   0  0  0  0  0  0  0  0  0  0  0  0
   30.3130  106.9483   16.7733 H   0  0  0  0  0  0  0  0  0  0  0  0
   30.3839  107.9678   18.2588 H   0  0  0  0  0  0  0  0  0  0  0  0
   28.1309  107.6282   18.2808 H   0  0  0  0  0  0  0  0  0  0  0  0
   28.2628  106.1169   17.2803 H   0  0  0  0  0  0  0  0  0  0  0  0
   28.7258  104.7694   19.1512 H   0  0  0  0  0  0  0  0  0  0  0  0
   29.1298  106.2007   20.1844 H   0  0  0  0  0  0  0  0  0  0  0  0
   26.6780  106.9124   19.8790 H   0  0  0  0  0  0  0  0  0  0  0  0
   26.9928  105.4737   20.9230 H   0  0  0  0  0  0  0  0  0  0  0  0
   25.4566  104.4099   19.6489 H   0  0  0  0  0  0  0  0  0  0  0  0
   25.5040  105.6803   18.3799 H   0  0  0  0  0  0  0  0  0  0  0  0
   26.7272  104.3648   18.3799 H   0  0  0  0  0  0  0  0  0  0  0  0
   34.9169  110.0580   20.5641 H   0  0  0  0  0  0  0  0  0  0  0  0
   35.0711  110.3309   22.3557 H   0  0  0  0  0  0  0  0  0  0  0  0
   32.7204  109.9197   22.6963 H   0  0  0  0  0  0  0  0  0  0  0  0
   32.4429  109.8433   20.8976 H   0  0  0  0  0  0  0  0  0  0  0  0
   33.8831  107.8135   22.6709 H   0  0  0  0  0  0  0  0  0  0  0  0
   34.0274  107.8287   20.8778 H   0  0  0  0  0  0  0  0  0  0  0  0
   31.2319  108.0708   21.7715 H   0  0  0  0  0  0  0  0  0  0  0  0
   32.0189  106.8940   20.6139 H   0  0  0  0  0  0  0  0  0  0  0  0
   32.8746  105.7877   22.8619 H   0  0  0  0  0  0  0  0  0  0  0  0
   31.4232  106.6059   23.5450 H   0  0  0  0  0  0  0  0  0  0  0  0
   30.5873  105.4585   21.0877 H   0  0  0  0  0  0  0  0  0  0  0  0
   31.5999  104.2087   21.9174 H   0  0  0  0  0  0  0  0  0  0  0  0
   30.0632  105.1976   23.9872 H   0  0  0  0  0  0  0  0  0  0  0  0
   28.9230  105.2419   22.5805 H   0  0  0  0  0  0  0  0  0  0  0  0
   30.0178  102.7914   22.2049 H   0  0  0  0  0  0  0  0  0  0  0  0
   30.1435  102.9217   24.0044 H   0  0  0  0  0  0  0  0  0  0  0  0
   27.7204  103.4816   24.1093 H   0  0  0  0  0  0  0  0  0  0  0  0
   27.6040  103.2627   22.3331 H   0  0  0  0  0  0  0  0  0  0  0  0
   28.1657  100.9376   22.4811 H   0  0  0  0  0  0  0  0  0  0  0  0
   28.7046  101.1219   24.2033 H   0  0  0  0  0  0  0  0  0  0  0  0
   26.1164  101.9824   24.3487 H   0  0  0  0  0  0  0  0  0  0  0  0
   26.0269  100.6910   23.0647 H   0  0  0  0  0  0  0  0  0  0  0  0
   26.9214   99.0430   24.5444 H   0  0  0  0  0  0  0  0  0  0  0  0
   27.2772  100.3006   25.8027 H   0  0  0  0  0  0  0  0  0  0  0  0
   24.4609   99.6020   24.8209 H   0  0  0  0  0  0  0  0  0  0  0  0
   25.2060   98.9154   26.2942 H   0  0  0  0  0  0  0  0  0  0  0  0
   25.5853  101.8052   26.4908 H   0  0  0  0  0  0  0  0  0  0  0  0
   23.4281  102.1288   27.4330 H   0  0  0  0  0  0  0  0  0  0  0  0
   22.5752   99.5099   27.6789 H   0  0  0  0  0  0  0  0  0  0  0  0
   22.6105   99.6230   25.8815 H   0  0  0  0  0  0  0  0  0  0  0  0
   20.9823  101.3379   27.8320 H   0  0  0  0  0  0  0  0  0  0  0  0
   20.3658  100.1845   26.5894 H   0  0  0  0  0  0  0  0  0  0  0  0
   22.1285  102.1104   25.3331 H   0  0  0  0  0  0  0  0  0  0  0  0
   20.8467  102.9607   26.3180 H   0  0  0  0  0  0  0  0  0  0  0  0
   19.0795  101.8609   25.0896 H   0  0  0  0  0  0  0  0  0  0  0  0
   20.2341  100.8302   24.2078 H   0  0  0  0  0  0  0  0  0  0  0  0
   21.3701  103.0345   23.4471 H   0  0  0  0  0  0  0  0  0  0  0  0
   19.8248  103.8301   24.0836 H   0  0  0  0  0  0  0  0  0  0  0  0
   18.5071  102.6788   22.4442 H   0  0  0  0  0  0  0  0  0  0  0  0
   19.9706  101.8286   21.8166 H   0  0  0  0  0  0  0  0  0  0  0  0
   20.9519  103.8934   21.0647 H   0  0  0  0  0  0  0  0  0  0  0  0
   19.6269  104.8467   21.9108 H   0  0  0  0  0  0  0  0  0  0  0  0
   17.9865  104.0211   20.3183 H   0  0  0  0  0  0  0  0  0  0  0  0
   19.3287  104.8622   19.4711 H   0  0  0  0  0  0  0  0  0  0  0  0
   19.2513  103.0676   19.4711 H   0  0  0  0  0  0  0  0  0  0  0  0
 23 24  1  0
 23 22  1  0
 21 20  1  0
 21 22  1  0
 24 25  1  0
 20 19  1  0
 28 29  1  0
 28 27  1  0
 26 25  1  0
 26 27  1  0
 19  3  2  0
 29 30  1  0
 18 17  1  0
  3 17  1  0
 17 16  1  0
 32 31  1  0
 30 31  1  0
 56 55  1  0
 16  2  1  0
 16 15  1  0
  2 33  1  0
 15 14  1  0
 33 34  1  0
 33  1  2  0
 55 54  1  0
 34 35  1  0
 14  5  1  0
 37 36  1  0
 37 38  1  0
 35 36  1  0
 39 38  1  0
 39 40  1  0
 54 53  1  0
  4  5  2  0
  5  7  1  0
  5  6  1  0
  7  8  1  0
 40 41  1  0
 41 42  1  0
 42 43  1  0
 43 44  1  0
 53 52  1  0
  8  9  1  0
 44 45  1  0
 52 51  1  0
  9 10  1  0
 13 10  1  0
 45 46  1  0
 46 47  1  0
 10 11  1  0
 10 12  1  0
 51 50  1  0
 47 48  2  0
 49 50  1  0
 49 48  1  0
  2 57  1  0
  3 58  1  0
  6 59  1  0
  8 60  1  0
  8 61  1  0
  9 62  1  0
  9 63  1  0
 11 64  1  0
 11 65  1  0
 11 66  1  0
 12 67  1  0
 12 68  1  0
 12 69  1  0
 13 70  1  0
 13 71  1  0
 13 72  1  0
 15 73  1  0
 15 74  1  0
 16 75  1  0
 17 76  1  0
 18 77  1  0
 19 78  1  0
 20 79  1  0
 20 80  1  0
 21 81  1  0
 21 82  1  0
 22 83  1  0
 22 84  1  0
 23 85  1  0
 23 86  1  0
 24 87  1  0
 24 88  1  0
 25 89  1  0
 25 90  1  0
 26 91  1  0
 26 92  1  0
 27 93  1  0
 27 94  1  0
 28 95  1  0
 28 96  1  0
 29 97  1  0
 29 98  1  0
 30 99  1  0
 30100  1  0
 31101  1  0
 31102  1  0
 32103  1  0
 32104  1  0
 32105  1  0
 34106  1  0
 34107  1  0
 35108  1  0
 35109  1  0
 36110  1  0
 36111  1  0
 37112  1  0
 37113  1  0
 38114  1  0
 38115  1  0
 39116  1  0
 39117  1  0
 40118  1  0
 40119  1  0
 41120  1  0
 41121  1  0
 42122  1  0
 42123  1  0
 43124  1  0
 43125  1  0
 44126  1  0
 44127  1  0
 45128  1  0
 45129  1  0
 46130  1  0
 46131  1  0
 47132  1  0
 48133  1  0
 49134  1  0
 49135  1  0
 50136  1  0
 50137  1  0
 51138  1  0
 51139  1  0
 52140  1  0
 52141  1  0
 53142  1  0
 53143  1  0
 54144  1  0
 54145  1  0
 55146  1  0
 55147  1  0
 56148  1  0
 56149  1  0
 56150  1  0
M  CHG  1  10   1
A    1
O1
A    2
N
A    3
C1
A    4
O5
A    5
P
A    6
O3
A    7
O4
A    8
C42
A    9
C43
A   10
N1
A   11
C46
A   12
C45
A   13
C44
A   14
O2
A   15
C41
A   16
C16
A   17
C
A   18
O
A   19
C2
A   20
C3
A   21
C4
A   22
C5
A   23
C6
A   24
C7
A   25
C8
A   26
C9
A   27
C10
A   28
C11
A   29
C12
A   30
C13
A   31
C14
A   32
C15
A   33
C17
A   34
C18
A   35
C19
A   36
C20
A   37
C21
A   38
C22
A   39
C23
A   40
C24
A   41
C25
A   42
C26
A   43
C27
A   44
C28
A   45
C29
A   46
C30
A   47
C31
A   48
C32
A   49
C33
A   50
C34
A   51
C35
A   52
C36
A   53
C37
A   54
C38
A   55
C39
A   56
C40
M  END
