4X6I_3Y1_A_301
     RDKit          3D

 42 43  0  0  0  0  0  0  0  0999 V2000
   13.3410   10.1500  -19.1330 C   0  0  0  0  0  0  0  0  0  0  0  0
   13.0860    8.7350  -18.9810 C   0  0  0  0  0  0  0  0  0  0  0  0
   15.2850    7.6420  -18.9350 C   0  0  0  0  0  0  0  0  0  0  0  0
   16.2080    6.5710  -19.5510 C   0  0  0  0  0  0  0  0  0  0  0  0
   16.8330    4.0990  -19.1030 C   0  0  0  0  0  0  0  0  0  0  0  0
   16.5320    3.7670  -20.5630 C   0  0  0  0  0  0  0  0  0  0  0  0
   16.7430    4.9760  -21.4780 C   0  0  0  0  0  0  0  0  0  0  0  0
   15.8360    6.1350  -20.9890 C   0  0  0  0  0  0  0  0  0  0  0  0
   17.9830    8.2220  -20.1330 C   0  0  0  0  0  0  0  0  0  0  0  0
   19.2790    8.7300  -19.5760 C   0  0  0  0  0  0  0  0  0  0  0  0
   19.5300   10.0910  -19.4980 C   0  0  0  0  0  0  0  0  0  0  0  0
   20.1800    7.8170  -18.9730 C   0  0  0  0  0  0  0  0  0  0  0  0
   13.5730   11.2690  -19.2180 N   0  0  0  0  0  0  0  0  0  0  0  0
   14.1110    7.8830  -19.5270 N   0  0  0  0  0  0  0  0  0  0  0  0
   15.5760    8.2170  -17.8780 O   0  0  0  0  0  0  0  0  0  0  0  0
   16.0520    5.3510  -18.6370 C   0  0  0  0  0  0  0  0  0  0  0  0
   17.6020    7.0350  -19.5680 N   0  0  0  0  0  0  0  0  0  0  0  0
   17.1900    8.9500  -20.7880 O   0  0  0  0  0  0  0  0  0  0  0  0
   20.6580   10.5420  -18.8500 C   0  0  0  0  0  0  0  0  0  0  0  0
   21.5280    9.6410  -18.2460 C   0  0  0  0  0  0  0  0  0  0  0  0
   21.3190    8.2690  -18.3020 C   0  0  0  0  0  0  0  0  0  0  0  0
   18.7040   11.1380  -20.0750 N   0  0  0  0  0  0  0  0  0  0  0  0
   23.0140   10.3880  -17.3230 Br  0  0  0  0  0  0  0  0  0  0  0  0
   12.1380    8.5001  -19.4870 H   0  0  0  0  0  0  0  0  0  0  0  0
   13.0561    8.5361  -17.8995 H   0  0  0  0  0  0  0  0  0  0  0  0
   16.5455    3.2432  -18.4746 H   0  0  0  0  0  0  0  0  0  0  0  0
   17.9091    4.3072  -19.0097 H   0  0  0  0  0  0  0  0  0  0  0  0
   15.4857    3.4375  -20.6445 H   0  0  0  0  0  0  0  0  0  0  0  0
   17.2234    2.9731  -20.8818 H   0  0  0  0  0  0  0  0  0  0  0  0
   17.7967    5.2894  -21.4399 H   0  0  0  0  0  0  0  0  0  0  0  0
   16.4858    4.7108  -22.5141 H   0  0  0  0  0  0  0  0  0  0  0  0
   15.9553    6.9937  -21.6661 H   0  0  0  0  0  0  0  0  0  0  0  0
   14.7937    5.7834  -20.9869 H   0  0  0  0  0  0  0  0  0  0  0  0
   19.9796    6.7371  -19.0342 H   0  0  0  0  0  0  0  0  0  0  0  0
   13.9272    7.4295  -20.4334 H   0  0  0  0  0  0  0  0  0  0  0  0
   14.9841    5.0919  -18.5883 H   0  0  0  0  0  0  0  0  0  0  0  0
   16.4692    5.6355  -17.6598 H   0  0  0  0  0  0  0  0  0  0  0  0
   18.3241    6.4411  -19.1358 H   0  0  0  0  0  0  0  0  0  0  0  0
   20.8720   11.6202  -18.8099 H   0  0  0  0  0  0  0  0  0  0  0  0
   22.0237    7.5648  -17.8356 H   0  0  0  0  0  0  0  0  0  0  0  0
   18.1919   11.7872  -19.4608 H   0  0  0  0  0  0  0  0  0  0  0  0
   18.6306   11.2310  -21.0982 H   0  0  0  0  0  0  0  0  0  0  0  0
  6  7  1  0
  6  5  1  0
  7  8  1  0
  5 16  1  0
  8  4  1  0
 16  4  1  0
  4 17  1  0
  4  3  1  0
 17  9  1  0
  3 14  1  0
  3 15  2  0
 12 21  2  0
 12 10  1  0
 14  2  1  0
  9 10  1  0
  9 18  2  0
 21 20  1  0
 10 11  2  0
  2  1  1  0
 20 23  1  0
 20 19  2  0
 11 19  1  0
 11 22  1  0
  1 13  3  0
  2 24  1  0
  2 25  1  0
  5 26  1  0
  5 27  1  0
  6 28  1  0
  6 29  1  0
  7 30  1  0
  7 31  1  0
  8 32  1  0
  8 33  1  0
 12 34  1  0
 14 35  1  0
 16 36  1  0
 16 37  1  0
 17 38  1  0
 19 39  1  0
 21 40  1  0
 22 41  1  0
 22 42  1  0
A    1
C1
A    2
C2
A    3
C4
A    4
C6
A    5
C8
A    6
C9
A    7
C10
A    8
C11
A    9
C13
A   10
C15
A   11
C16
A   12
C20
A   13
N1
A   14
N3
A   15
O5
A   16
C7
A   17
N12
A   18
O14
A   19
C17
A   20
C18
A   21
C19
A   22
N21
A   23
BR2
M  END
