4X6M_3Y3_A_301
     RDKit          3D

 64 68  0  0  0  0  0  0  0  0999 V2000
   45.3510  -22.3060   32.1490 C   0  0  0  0  0  0  0  0  0  0  0  0
   46.7930  -20.8880   30.8400 C   0  0  0  0  0  0  0  0  0  0  0  0
   46.6230  -21.7880   31.9100 C   0  0  0  0  0  0  0  0  0  0  0  0
   47.9760  -21.9750   32.4300 C   0  0  0  0  0  0  0  0  0  0  0  0
   40.5490  -23.9600   27.4750 C   0  0  0  0  0  0  0  0  0  0  0  0
   39.7890  -23.2030   28.3520 C   0  0  0  0  0  0  0  0  0  0  0  0
   39.6990  -23.6230   29.6750 C   0  0  0  0  0  0  0  0  0  0  0  0
   40.4180  -24.7160   30.1240 C   0  0  0  0  0  0  0  0  0  0  0  0
   44.4760  -21.0920   30.2490 C   0  0  0  0  0  0  0  0  0  0  0  0
   45.7280  -20.5220   30.0220 C   0  0  0  0  0  0  0  0  0  0  0  0
   35.0380  -14.3760   28.9740 C   0  0  0  0  0  0  0  0  0  0  0  0
   39.2560  -21.8530   27.9320 C   0  0  0  0  0  0  0  0  0  0  0  0
   35.6470  -13.3280   28.3230 C   0  0  0  0  0  0  0  0  0  0  0  0
   37.3390  -17.2730   28.2460 C   0  0  0  0  0  0  0  0  0  0  0  0
   38.5580  -17.3230   29.0350 N   0  0  0  0  0  0  0  0  0  0  0  0
   39.7960  -20.7180   28.8200 C   0  0  0  0  0  0  0  0  0  0  0  0
   39.2220  -19.4330   28.4640 N   0  0  0  0  0  0  0  0  0  0  0  0
   41.2900  -20.6570   28.7990 C   0  0  0  0  0  0  0  0  0  0  0  0
   42.0180  -20.3760   27.6470 N   0  0  0  0  0  0  0  0  0  0  0  0
   43.3330  -20.4860   28.0070 C   0  0  0  0  0  0  0  0  0  0  0  0
   43.3520  -20.8080   29.3380 C   0  0  0  0  0  0  0  0  0  0  0  0
   42.0680  -20.9080   29.8260 N   0  0  0  0  0  0  0  0  0  0  0  0
   44.5870  -20.2590   26.8710 Cl  0  0  0  0  0  0  0  0  0  0  0  0
   44.2970  -21.9720   31.3200 C   0  0  0  0  0  0  0  0  0  0  0  0
   48.1190  -20.5920   30.7760 N   0  0  0  0  0  0  0  0  0  0  0  0
   48.8500  -21.2560   31.7310 N   0  0  0  0  0  0  0  0  0  0  0  0
   48.3430  -22.7090   33.4930 N   0  0  0  0  0  0  0  0  0  0  0  0
   41.2120  -25.4240   29.2540 C   0  0  0  0  0  0  0  0  0  0  0  0
   41.2680  -25.0550   27.9270 C   0  0  0  0  0  0  0  0  0  0  0  0
   39.1160  -18.4800   29.4280 C   0  0  0  0  0  0  0  0  0  0  0  0
   39.5680  -18.6330   30.5600 O   0  0  0  0  0  0  0  0  0  0  0  0
   36.7220  -15.9050   28.2120 C   0  0  0  0  0  0  0  0  0  0  0  0
   37.3630  -14.8440   27.5360 C   0  0  0  0  0  0  0  0  0  0  0  0
   36.8150  -13.5660   27.6130 C   0  0  0  0  0  0  0  0  0  0  0  0
   35.5520  -15.6490   28.9190 C   0  0  0  0  0  0  0  0  0  0  0  0
   33.6180  -14.0840   29.9390 Cl  0  0  0  0  0  0  0  0  0  0  0  0
   38.6330  -15.0200   26.7240 C   0  0  0  0  0  0  0  0  0  0  0  0
   38.3880  -15.2720   25.2820 N   0  0  0  0  0  0  0  0  0  0  0  0
   45.1858  -22.9828   33.0002 H   0  0  0  0  0  0  0  0  0  0  0  0
   40.5820  -23.6891   26.4094 H   0  0  0  0  0  0  0  0  0  0  0  0
   39.0470  -23.0784   30.3738 H   0  0  0  0  0  0  0  0  0  0  0  0
   40.3541  -25.0191   31.1795 H   0  0  0  0  0  0  0  0  0  0  0  0
   45.8718  -19.7947   29.2094 H   0  0  0  0  0  0  0  0  0  0  0  0
   39.5544  -21.6617   26.8907 H   0  0  0  0  0  0  0  0  0  0  0  0
   38.1610  -21.8731   28.0350 H   0  0  0  0  0  0  0  0  0  0  0  0
   35.2147  -12.3174   28.3648 H   0  0  0  0  0  0  0  0  0  0  0  0
   36.6116  -17.9756   28.6786 H   0  0  0  0  0  0  0  0  0  0  0  0
   37.6029  -17.5423   27.2126 H   0  0  0  0  0  0  0  0  0  0  0  0
   39.0114  -16.4379   29.3031 H   0  0  0  0  0  0  0  0  0  0  0  0
   39.4849  -20.9499   29.8493 H   0  0  0  0  0  0  0  0  0  0  0  0
   38.9022  -19.2474   27.5027 H   0  0  0  0  0  0  0  0  0  0  0  0
   41.6448  -20.1355   26.7176 H   0  0  0  0  0  0  0  0  0  0  0  0
   43.3030  -22.4049   31.5057 H   0  0  0  0  0  0  0  0  0  0  0  0
   48.5288  -19.9432   30.0890 H   0  0  0  0  0  0  0  0  0  0  0  0
   48.1680  -22.3589   34.4457 H   0  0  0  0  0  0  0  0  0  0  0  0
   48.7995  -23.6220   33.3556 H   0  0  0  0  0  0  0  0  0  0  0  0
   41.7999  -26.2809   29.6147 H   0  0  0  0  0  0  0  0  0  0  0  0
   41.8862  -25.6323   27.2238 H   0  0  0  0  0  0  0  0  0  0  0  0
   37.3168  -12.7310   27.1022 H   0  0  0  0  0  0  0  0  0  0  0  0
   35.0352  -16.4703   29.4371 H   0  0  0  0  0  0  0  0  0  0  0  0
   39.1931  -15.8726   27.1355 H   0  0  0  0  0  0  0  0  0  0  0  0
   39.1939  -14.0764   26.7951 H   0  0  0  0  0  0  0  0  0  0  0  0
   37.6737  -16.0068   25.1784 H   0  0  0  0  0  0  0  0  0  0  0  0
   38.0572  -14.4058   24.8335 H   0  0  0  0  0  0  0  0  0  0  0  0
 38 37  1  0
 37 33  1  0
 23 20  1  0
  5 29  2  0
  5  6  1  0
 33 34  2  0
 33 32  1  0
 34 13  1  0
 19 20  1  0
 19 18  1  0
 29 28  1  0
 12  6  1  0
 12 16  1  0
 20 21  2  0
 32 14  1  0
 32 35  2  0
 14 15  1  0
 13 11  2  0
  6  7  2  0
 17 16  1  0
 17 30  1  0
 18 16  1  0
 18 22  2  0
 35 11  1  0
 11 36  1  0
 15 30  1  0
 28  8  2  0
 21 22  1  0
 21  9  1  0
 30 31  2  0
  7  8  1  0
 10  9  2  0
 10  2  1  0
  9 24  1  0
 25  2  1  0
 25 26  1  0
  2  3  2  0
 24  1  2  0
 26  4  2  0
  3  1  1  0
  3  4  1  0
  4 27  1  0
  1 39  1  0
  5 40  1  0
  7 41  1  0
  8 42  1  0
 10 43  1  0
 12 44  1  0
 12 45  1  0
 13 46  1  0
 14 47  1  0
 14 48  1  0
 15 49  1  0
 16 50  1  0
 17 51  1  0
 19 52  1  0
 24 53  1  0
 25 54  1  0
 27 55  1  0
 27 56  1  0
 28 57  1  0
 29 58  1  0
 34 59  1  0
 35 60  1  0
 37 61  1  0
 37 62  1  0
 38 63  1  0
 38 64  1  0
A    1
C13
A    2
C16
A    3
C15
A    4
C19
A    5
C21
A    6
C22
A    7
C23
A    8
C24
A    9
C11
A   10
C12
A   11
C34
A   12
C27
A   13
C33
A   14
C1
A   15
N2
A   16
C3
A   17
N4
A   18
C5
A   19
N6
A   20
C7
A   21
C8
A   22
N9
A   23
CL
A   24
C14
A   25
N17
A   26
N18
A   27
N20
A   28
C25
A   29
C26
A   30
C28
A   31
O29
A   32
C30
A   33
C31
A   34
C32
A   35
C35
A   36
CL1
A   37
C37
A   38
N38
M  END
