4X6N_3Y5_A_301
     RDKit          3D

 64 69  0  0  0  0  0  0  0  0999 V2000
   42.2440  -21.0170   29.6960 N   0  0  0  0  0  0  0  0  0  0  0  0
   43.5340  -20.9760   29.2170 C   0  0  0  0  0  0  0  0  0  0  0  0
   45.6100  -22.4350   31.9940 C   0  0  0  0  0  0  0  0  0  0  0  0
   45.8940  -20.6010   29.8880 C   0  0  0  0  0  0  0  0  0  0  0  0
   44.6540  -21.1820   30.1540 C   0  0  0  0  0  0  0  0  0  0  0  0
   44.5170  -22.0760   31.2240 C   0  0  0  0  0  0  0  0  0  0  0  0
   39.2750  -18.6130   29.2590 C   0  0  0  0  0  0  0  0  0  0  0  0
   37.5920  -17.3520   27.9170 C   0  0  0  0  0  0  0  0  0  0  0  0
   36.9180  -15.9940   27.9020 C   0  0  0  0  0  0  0  0  0  0  0  0
   43.5240  -20.7600   27.8810 C   0  0  0  0  0  0  0  0  0  0  0  0
   35.6930  -13.4720   27.9530 C   0  0  0  0  0  0  0  0  0  0  0  0
   40.7960  -24.1520   27.4170 C   0  0  0  0  0  0  0  0  0  0  0  0
   40.0070  -23.3810   28.2610 C   0  0  0  0  0  0  0  0  0  0  0  0
   39.8240  -23.8150   29.5680 C   0  0  0  0  0  0  0  0  0  0  0  0
   40.4590  -24.9540   30.0360 C   0  0  0  0  0  0  0  0  0  0  0  0
   41.2580  -25.6960   29.1960 C   0  0  0  0  0  0  0  0  0  0  0  0
   41.4190  -25.2990   27.8810 C   0  0  0  0  0  0  0  0  0  0  0  0
   39.4860  -22.0340   27.8090 C   0  0  0  0  0  0  0  0  0  0  0  0
   39.9830  -20.8730   28.6890 C   0  0  0  0  0  0  0  0  0  0  0  0
   39.3640  -19.6040   28.3140 N   0  0  0  0  0  0  0  0  0  0  0  0
   41.4790  -20.8210   28.6440 C   0  0  0  0  0  0  0  0  0  0  0  0
   42.2030  -20.6550   27.5070 N   0  0  0  0  0  0  0  0  0  0  0  0
   44.7810  -20.6060   26.7500 Cl  0  0  0  0  0  0  0  0  0  0  0  0
   38.6810  -17.4510   28.8860 N   0  0  0  0  0  0  0  0  0  0  0  0
   39.7780  -18.7450   30.3790 O   0  0  0  0  0  0  0  0  0  0  0  0
   37.4050  -14.9500   27.0960 C   0  0  0  0  0  0  0  0  0  0  0  0
   36.7900  -13.6950   27.1330 C   0  0  0  0  0  0  0  0  0  0  0  0
   35.2130  -14.5110   28.7250 C   0  0  0  0  0  0  0  0  0  0  0  0
   35.8140  -15.7530   28.7150 C   0  0  0  0  0  0  0  0  0  0  0  0
   33.7810  -14.2700   29.7020 Cl  0  0  0  0  0  0  0  0  0  0  0  0
   38.5550  -15.1180   26.2590 N   0  0  0  0  0  0  0  0  0  0  0  0
   38.7170  -15.0860   24.9260 C   0  0  0  0  0  0  0  0  0  0  0  0
   39.9560  -15.3660   24.6260 N   0  0  0  0  0  0  0  0  0  0  0  0
   40.5820  -15.5730   25.8130 N   0  0  0  0  0  0  0  0  0  0  0  0
   39.7600  -15.4170   26.8040 N   0  0  0  0  0  0  0  0  0  0  0  0
   46.8730  -21.9220   31.6990 C   0  0  0  0  0  0  0  0  0  0  0  0
   46.9960  -21.0060   30.6350 C   0  0  0  0  0  0  0  0  0  0  0  0
   48.3200  -20.7210   30.5150 N   0  0  0  0  0  0  0  0  0  0  0  0
   49.0680  -21.3840   31.4470 N   0  0  0  0  0  0  0  0  0  0  0  0
   48.2430  -22.1210   32.1920 C   0  0  0  0  0  0  0  0  0  0  0  0
   48.6770  -22.8550   33.2210 N   0  0  0  0  0  0  0  0  0  0  0  0
   45.4822  -23.1262   32.8401 H   0  0  0  0  0  0  0  0  0  0  0  0
   45.9987  -19.8376   29.1030 H   0  0  0  0  0  0  0  0  0  0  0  0
   43.5279  -22.4982   31.4553 H   0  0  0  0  0  0  0  0  0  0  0  0
   36.8367  -18.1130   28.1630 H   0  0  0  0  0  0  0  0  0  0  0  0
   38.0306  -17.5068   26.9202 H   0  0  0  0  0  0  0  0  0  0  0  0
   35.2133  -12.4827   27.9874 H   0  0  0  0  0  0  0  0  0  0  0  0
   40.9277  -23.8483   26.3680 H   0  0  0  0  0  0  0  0  0  0  0  0
   39.1655  -23.2462   30.2409 H   0  0  0  0  0  0  0  0  0  0  0  0
   40.3242  -25.2663   31.0821 H   0  0  0  0  0  0  0  0  0  0  0  0
   41.7650  -26.5985   29.5680 H   0  0  0  0  0  0  0  0  0  0  0  0
   42.0441  -25.8963   27.2010 H   0  0  0  0  0  0  0  0  0  0  0  0
   39.8185  -21.8580   26.7753 H   0  0  0  0  0  0  0  0  0  0  0  0
   38.3891  -22.0613   27.8874 H   0  0  0  0  0  0  0  0  0  0  0  0
   39.6770  -21.0538   29.7300 H   0  0  0  0  0  0  0  0  0  0  0  0
   39.0022  -19.4563   27.3610 H   0  0  0  0  0  0  0  0  0  0  0  0
   41.8384  -20.4853   26.5587 H   0  0  0  0  0  0  0  0  0  0  0  0
   39.0214  -16.5790   29.3156 H   0  0  0  0  0  0  0  0  0  0  0  0
   37.1787  -12.8781   26.5073 H   0  0  0  0  0  0  0  0  0  0  0  0
   35.4186  -16.5571   29.3530 H   0  0  0  0  0  0  0  0  0  0  0  0
   37.9251  -14.8582   24.1973 H   0  0  0  0  0  0  0  0  0  0  0  0
   48.7117  -20.0829   29.8076 H   0  0  0  0  0  0  0  0  0  0  0  0
   48.4947  -22.5466   34.1867 H   0  0  0  0  0  0  0  0  0  0  0  0
   49.1938  -23.7291   33.0484 H   0  0  0  0  0  0  0  0  0  0  0  0
 33 32  2  0
 33 34  1  0
 32 31  1  0
 34 35  2  0
 31 35  1  0
 31 26  1  0
 23 10  1  0
 26 27  1  0
 26  9  2  0
 27 11  2  0
 12 17  2  0
 12 13  1  0
 22 10  1  0
 22 21  1  0
 18 13  1  0
 18 19  1  0
 10  2  2  0
 17 16  1  0
  9  8  1  0
  9 29  1  0
  8 24  1  0
 11 28  1  0
 13 14  2  0
 20 19  1  0
 20  7  1  0
 21 19  1  0
 21  1  2  0
 29 28  2  0
 28 30  1  0
 24  7  1  0
 16 15  2  0
  2  1  1  0
  2  5  1  0
  7 25  2  0
 14 15  1  0
  4  5  2  0
  4 37  1  0
  5  6  1  0
 38 37  1  0
 38 39  1  0
 37 36  2  0
  6  3  2  0
 39 40  2  0
 36  3  1  0
 36 40  1  0
 40 41  1  0
  3 42  1  0
  4 43  1  0
  6 44  1  0
  8 45  1  0
  8 46  1  0
 11 47  1  0
 12 48  1  0
 14 49  1  0
 15 50  1  0
 16 51  1  0
 17 52  1  0
 18 53  1  0
 18 54  1  0
 19 55  1  0
 20 56  1  0
 22 57  1  0
 24 58  1  0
 27 59  1  0
 29 60  1  0
 32 61  1  0
 38 62  1  0
 41 63  1  0
 41 64  1  0
A    1
N14
A    2
C13
A    3
C18
A    4
C17
A    5
C16
A    6
C19
A    7
C20
A    8
C23
A    9
C24
A   10
C12
A   11
C27
A   12
C1
A   13
C2
A   14
C3
A   15
C4
A   16
C5
A   17
C6
A   18
C7
A   19
C8
A   20
N9
A   21
C10
A   22
N11
A   23
CL
A   24
N21
A   25
O22
A   26
C25
A   27
C26
A   28
C28
A   29
C29
A   30
CL2
A   31
N31
A   32
C32
A   33
N33
A   34
N34
A   35
N35
A   36
C36
A   37
C37
A   38
N38
A   39
N39
A   40
C40
A   41
N41
M  END
