4X6T_3Y6_A_408
     RDKit          3D

 63 65  0  0  0  0  0  0  0  0999 V2000
  -13.1260  -18.0770    3.7590 N   0  0  0  0  0  0  0  0  0  0  0  0
  -13.6500  -16.8620    3.2780 C   0  0  0  0  0  0  0  0  0  0  0  0
  -13.3320  -15.8590    4.3650 C   0  0  0  0  0  0  0  0  0  0  0  0
  -12.8550  -16.2000    5.4320 O   0  0  0  0  0  0  0  0  0  0  0  0
  -11.6940  -19.4200    5.5300 O   0  0  0  0  0  0  0  0  0  0  0  0
  -12.0620  -20.5890    4.8550 C   0  0  0  0  0  0  0  0  0  0  0  0
  -11.6380  -21.8200    5.2530 C   0  0  0  0  0  0  0  0  0  0  0  0
  -10.7840  -21.8450    6.3550 O   0  0  0  0  0  0  0  0  0  0  0  0
  -11.9240  -22.8080    4.7280 N   0  0  0  0  0  0  0  0  0  0  0  0
  -11.3870  -24.0340    5.2580 C   0  0  0  0  0  0  0  0  0  0  0  0
  -12.4340  -24.7590    6.0790 C   0  0  0  0  0  0  0  0  0  0  0  0
  -12.6070  -22.9030    3.7980 C   0  0  0  0  0  0  0  0  0  0  0  0
  -13.2050  -21.8710    3.1290 C   0  0  0  0  0  0  0  0  0  0  0  0
  -12.9540  -20.4910    3.6700 N   0  0  0  0  0  0  0  0  0  0  0  0
  -13.4820  -19.2780    3.1270 C   0  0  0  0  0  0  0  0  0  0  0  0
  -14.2080  -19.2930    2.1700 O   0  0  0  0  0  0  0  0  0  0  0  0
  -13.0870  -16.3970    1.9390 C   0  0  0  0  0  0  0  0  0  0  0  0
  -11.8160  -15.8360    1.8600 C   0  0  0  0  0  0  0  0  0  0  0  0
  -11.3130  -15.4070    0.6350 C   0  0  0  0  0  0  0  0  0  0  0  0
  -12.0820  -15.5280   -0.5140 C   0  0  0  0  0  0  0  0  0  0  0  0
  -11.5600  -15.0810   -1.7520 O   0  0  0  0  0  0  0  0  0  0  0  0
  -13.3570  -16.0770   -0.4470 C   0  0  0  0  0  0  0  0  0  0  0  0
  -13.8610  -16.5010    0.7860 C   0  0  0  0  0  0  0  0  0  0  0  0
  -13.6340  -14.4810    4.0700 N   0  0  0  0  0  0  0  0  0  0  0  0
  -13.3670  -13.4800    5.0450 C   0  0  0  0  0  0  0  0  0  0  0  0
  -14.7880  -12.6890    5.1530 B   0  0  0  0  0  0  0  0  0  0  0  0
  -15.9220  -13.4520    5.5920 O   0  0  0  0  0  0  0  0  0  0  0  0
  -15.0130  -11.6420    4.1860 O   0  0  0  0  0  0  0  0  0  0  0  0
  -12.3580  -12.4930    4.4980 C   0  0  0  0  0  0  0  0  0  0  0  0
  -10.8350  -12.7320    4.6400 C   0  0  0  0  0  0  0  0  0  0  0  0
  -10.0840  -12.8170    3.4710 C   0  0  0  0  0  0  0  0  0  0  0  0
   -8.7060  -12.9950    3.5520 C   0  0  0  0  0  0  0  0  0  0  0  0
   -7.8830  -13.1050    2.2820 C   0  0  0  0  0  0  0  0  0  0  0  0
   -8.4580  -13.2470    1.1780 O   0  0  0  0  0  0  0  0  0  0  0  0
   -6.6260  -13.0450    2.3400 O   0  0  0  0  0  0  0  0  0  0  0  0
   -8.0830  -13.0740    4.7890 C   0  0  0  0  0  0  0  0  0  0  0  0
   -8.8350  -12.9690    5.9520 C   0  0  0  0  0  0  0  0  0  0  0  0
  -10.2140  -12.7890    5.8900 C   0  0  0  0  0  0  0  0  0  0  0  0
  -12.4874  -18.0841    4.5671 H   0  0  0  0  0  0  0  0  0  0  0  0
  -14.7241  -16.9804    3.0723 H   0  0  0  0  0  0  0  0  0  0  0  0
  -11.0681  -24.6793    4.4262 H   0  0  0  0  0  0  0  0  0  0  0  0
  -10.5286  -23.7973    5.9039 H   0  0  0  0  0  0  0  0  0  0  0  0
  -12.2254  -24.6145    7.1493 H   0  0  0  0  0  0  0  0  0  0  0  0
  -13.4297  -24.3560    5.8418 H   0  0  0  0  0  0  0  0  0  0  0  0
  -12.4071  -25.8328    5.8418 H   0  0  0  0  0  0  0  0  0  0  0  0
  -12.7922  -23.9181    3.4169 H   0  0  0  0  0  0  0  0  0  0  0  0
  -13.8351  -22.0413    2.2436 H   0  0  0  0  0  0  0  0  0  0  0  0
  -11.2062  -15.7311    2.7695 H   0  0  0  0  0  0  0  0  0  0  0  0
  -10.3045  -14.9714    0.5776 H   0  0  0  0  0  0  0  0  0  0  0  0
  -10.8081  -14.4372   -1.7687 H   0  0  0  0  0  0  0  0  0  0  0  0
  -13.9654  -16.1772   -1.3580 H   0  0  0  0  0  0  0  0  0  0  0  0
  -14.8764  -16.9198    0.8459 H   0  0  0  0  0  0  0  0  0  0  0  0
  -14.0404  -14.2227    3.1595 H   0  0  0  0  0  0  0  0  0  0  0  0
  -12.9884  -13.8978    5.9895 H   0  0  0  0  0  0  0  0  0  0  0  0
  -15.9459  -13.4681    6.5816 H   0  0  0  0  0  0  0  0  0  0  0  0
  -15.1959  -10.7910    4.6576 H   0  0  0  0  0  0  0  0  0  0  0  0
  -12.5682  -11.5306    4.9875 H   0  0  0  0  0  0  0  0  0  0  0  0
  -12.5105  -12.5759    3.4118 H   0  0  0  0  0  0  0  0  0  0  0  0
  -10.5762  -12.7440    2.4900 H   0  0  0  0  0  0  0  0  0  0  0  0
   -6.1715  -13.0233    3.2192 H   0  0  0  0  0  0  0  0  0  0  0  0
   -6.9943  -13.2197    4.8487 H   0  0  0  0  0  0  0  0  0  0  0  0
   -8.3365  -13.0286    6.9307 H   0  0  0  0  0  0  0  0  0  0  0  0
  -10.8061  -12.6930    6.8120 H   0  0  0  0  0  0  0  0  0  0  0  0
 21 20  1  0
 20 22  2  0
 20 19  1  0
 22 23  1  0
 19 18  2  0
 23 17  2  0
 34 33  2  0
 18 17  1  0
 17  2  1  0
 16 15  2  0
 33 35  1  0
 33 32  1  0
 15 14  1  0
 15  1  1  0
 13 14  1  0
 13 12  2  0
  2  1  1  0
  2  3  1  0
 31 32  2  0
 31 30  1  0
 32 36  1  0
 14  6  1  0
 12  9  1  0
 24  3  1  0
 24 25  1  0
 28 26  1  0
  3  4  2  0
 29 30  1  0
 29 25  1  0
 30 38  2  0
  9  7  1  0
  9 10  1  0
 36 37  2  0
  6  7  1  0
  6  5  2  0
 25 26  1  0
 26 27  1  0
  7  8  2  0
 10 11  1  0
 38 37  1  0
  1 39  1  0
  2 40  1  0
 10 41  1  0
 10 42  1  0
 11 43  1  0
 11 44  1  0
 11 45  1  0
 12 46  1  0
 13 47  1  0
 18 48  1  0
 19 49  1  0
 21 50  1  0
 22 51  1  0
 23 52  1  0
 24 53  1  0
 25 54  1  0
 27 55  1  0
 28 56  1  0
 29 57  1  0
 29 58  1  0
 31 59  1  0
 35 60  1  0
 36 61  1  0
 37 62  1  0
 38 63  1  0
A    1
N
A    2
CA
A    3
C
A    4
O
A    5
OAA
A    6
CAB
A    7
CAC
A    8
OAD
A    9
NAE
A   10
CAF
A   11
CAG
A   12
CAH
A   13
CAI
A   14
NAJ
A   15
CAK
A   16
OAL
A   17
CAO
A   18
CAP
A   19
CAQ
A   20
CAR
A   21
OAS
A   22
CAT
A   23
CAU
A   24
NAX
A   25
CAY
A   26
BAY
A   27
OBB
A   28
OBA
A   29
CBC
A   30
CBD
A   31
CBE
A   32
CBI
A   33
CBJ
A   34
OBL
A   35
OBK
A   36
CBH
A   37
CBG
A   38
CBF
M  END
