4X7I_3YS_A_401
     RDKit          3D

 43 46  0  0  0  0  0  0  0  0999 V2000
   27.4950   56.0890   85.0200 O   0  0  0  0  0  0  0  0  0  0  0  0
   23.6810   55.0450   86.7300 C   0  0  0  0  0  0  0  0  0  0  0  0
   22.3890   55.3350   86.2880 C   0  0  0  0  0  0  0  0  0  0  0  0
   21.2760   57.3060   88.5720 C   0  0  0  0  0  0  0  0  0  0  0  0
   22.4260   53.9190   90.5200 N   0  0  0  0  0  0  0  0  0  0  0  0
   21.2430   55.1030   87.2680 C   0  0  0  0  0  0  0  0  0  0  0  0
   20.0530   54.4220   86.5720 C   0  0  0  0  0  0  0  0  0  0  0  0
   19.1380   55.9920   88.0080 C   0  0  0  0  0  0  0  0  0  0  0  0
   20.5220   56.4290   87.5760 C   0  0  0  0  0  0  0  0  0  0  0  0
   31.3570   53.6920   89.3930 F   0  0  0  0  0  0  0  0  0  0  0  0
   30.3900   54.1520   88.5510 C   0  0  0  0  0  0  0  0  0  0  0  0
   29.0880   53.6830   88.6900 C   0  0  0  0  0  0  0  0  0  0  0  0
   28.1070   54.0950   87.8850 N   0  0  0  0  0  0  0  0  0  0  0  0
   30.7170   55.0190   87.5380 C   0  0  0  0  0  0  0  0  0  0  0  0
   29.7260   55.3620   86.6310 C   0  0  0  0  0  0  0  0  0  0  0  0
   28.4210   54.9420   86.8930 C   0  0  0  0  0  0  0  0  0  0  0  0
   27.2930   55.3760   86.0050 C   0  0  0  0  0  0  0  0  0  0  0  0
   26.0780   54.9320   86.4100 N   0  0  0  0  0  0  0  0  0  0  0  0
   24.7930   55.2680   85.9220 C   0  0  0  0  0  0  0  0  0  0  0  0
   24.6220   55.7600   84.6290 C   0  0  0  0  0  0  0  0  0  0  0  0
   23.3550   56.0570   84.1680 C   0  0  0  0  0  0  0  0  0  0  0  0
   22.2870   55.8500   85.0010 C   0  0  0  0  0  0  0  0  0  0  0  0
   21.0470   56.1340   84.5200 F   0  0  0  0  0  0  0  0  0  0  0  0
   21.6670   54.3170   88.4140 N   0  0  0  0  0  0  0  0  0  0  0  0
   18.8950   54.7130   87.3420 O   0  0  0  0  0  0  0  0  0  0  0  0
   21.8770   56.4370   90.0410 S   0  0  0  0  0  0  0  0  0  0  0  0
   21.9930   54.7520   89.5670 C   0  0  0  0  0  0  0  0  0  0  0  0
   23.8239   54.6311   87.7391 H   0  0  0  0  0  0  0  0  0  0  0  0
   22.1422   57.7447   88.0551 H   0  0  0  0  0  0  0  0  0  0  0  0
   20.5579   58.0591   88.9286 H   0  0  0  0  0  0  0  0  0  0  0  0
   22.2996   54.1621   91.5129 H   0  0  0  0  0  0  0  0  0  0  0  0
   22.8858   53.0345   90.2609 H   0  0  0  0  0  0  0  0  0  0  0  0
   19.9365   54.8166   85.5519 H   0  0  0  0  0  0  0  0  0  0  0  0
   20.2116   53.3359   86.4995 H   0  0  0  0  0  0  0  0  0  0  0  0
   18.3880   56.7340   87.6967 H   0  0  0  0  0  0  0  0  0  0  0  0
   19.0675   55.8975   89.1017 H   0  0  0  0  0  0  0  0  0  0  0  0
   20.4655   57.1041   86.7094 H   0  0  0  0  0  0  0  0  0  0  0  0
   28.8616   52.9548   89.4828 H   0  0  0  0  0  0  0  0  0  0  0  0
   31.7339   55.4289   87.4487 H   0  0  0  0  0  0  0  0  0  0  0  0
   29.9615   55.9484   85.7306 H   0  0  0  0  0  0  0  0  0  0  0  0
   26.0922   54.2526   87.1840 H   0  0  0  0  0  0  0  0  0  0  0  0
   25.4950   55.9113   83.9771 H   0  0  0  0  0  0  0  0  0  0  0  0
   23.2059   56.4519   83.1522 H   0  0  0  0  0  0  0  0  0  0  0  0
 21 20  2  0
 21 22  1  0
 23 22  1  0
 20 19  1  0
 22  3  2  0
  1 17  2  0
 19 18  1  0
 19  2  2  0
 17 18  1  0
 17 16  1  0
  3  2  1  0
  3  6  1  0
  7  6  1  0
  7 25  1  0
 15 16  2  0
 15 14  1  0
 16 13  1  0
  6  9  1  0
  6 24  1  0
 25  8  1  0
 14 11  2  0
  9  8  1  0
  9  4  1  0
 13 12  2  0
 24 27  2  0
 11 12  1  0
 11 10  1  0
  4 26  1  0
 27 26  1  0
 27  5  1  0
  2 28  1  0
  4 29  1  0
  4 30  1  0
  5 31  1  0
  5 32  1  0
  7 33  1  0
  7 34  1  0
  8 35  1  0
  8 36  1  0
  9 37  1  0
 12 38  1  0
 14 39  1  0
 15 40  1  0
 18 41  1  0
 20 42  1  0
 21 43  1  0
A    1
O1
A    2
C7
A    3
C6
A    4
C1
A    5
N1
A    6
C5
A    7
C4
A    8
C3
A    9
C2
A   10
F1
A   11
C15
A   12
C14
A   13
N3
A   14
C16
A   15
C17
A   16
C13
A   17
C12
A   18
N2
A   19
C8
A   20
C9
A   21
C10
A   22
C11
A   23
F
A   24
N
A   25
O
A   26
S
A   27
C
M  END
