4X7J_3Z1_A_1101
     RDKit          3D

 57 60  0  0  0  0  0  0  0  0999 V2000
   30.7140    6.7820   -4.6360 C   0  0  0  0  0  0  0  0  0  0  0  0
   29.8940    7.9960   -4.4540 N   0  0  0  0  0  0  0  0  0  0  0  0
   29.2710    8.2910   -3.3020 C   0  0  0  0  0  0  0  0  0  0  0  0
   29.2000    7.4010   -2.2870 N   0  0  0  0  0  0  0  0  0  0  0  0
   28.7070    9.5080   -3.1680 N   0  0  0  0  0  0  0  0  0  0  0  0
   28.0800    9.8710   -2.0550 C   0  0  0  0  0  0  0  0  0  0  0  0
   27.9880    8.9770   -0.9900 C   0  0  0  0  0  0  0  0  0  0  0  0
   27.3320    9.3290    0.1960 C   0  0  0  0  0  0  0  0  0  0  0  0
   28.5720    7.7210   -1.1360 C   0  0  0  0  0  0  0  0  0  0  0  0
   28.4990    6.8050   -0.0900 C   0  0  0  0  0  0  0  0  0  0  0  0
   27.8450    7.1520    1.0930 C   0  0  0  0  0  0  0  0  0  0  0  0
   27.2590    8.4110    1.2490 C   0  0  0  0  0  0  0  0  0  0  0  0
   26.5950    8.7130    2.4550 C   0  0  0  0  0  0  0  0  0  0  0  0
   27.2010    9.4670    3.4780 C   0  0  0  0  0  0  0  0  0  0  0  0
   28.4450    9.9330    3.3330 N   0  0  0  0  0  0  0  0  0  0  0  0
   25.2880    8.2310    2.6420 C   0  0  0  0  0  0  0  0  0  0  0  0
   24.5750    7.4110    1.5520 C   0  0  0  0  0  0  0  0  0  0  0  0
   24.5940    8.4960    3.8270 C   0  0  0  0  0  0  0  0  0  0  0  0
   25.1940    9.2460    4.8340 C   0  0  0  0  0  0  0  0  0  0  0  0
   26.5010    9.7210    4.6740 C   0  0  0  0  0  0  0  0  0  0  0  0
   27.1120   10.5610    5.8150 C   0  0  0  0  0  0  0  0  0  0  0  0
   28.0920   11.2760    5.6180 O   0  0  0  0  0  0  0  0  0  0  0  0
   26.4730   10.4580    6.9860 N   0  0  0  0  0  0  0  0  0  0  0  0
   26.6940   11.1800    8.0960 C   0  0  0  0  0  0  0  0  0  0  0  0
   27.5830   12.2610    8.1390 C   0  0  0  0  0  0  0  0  0  0  0  0
   25.9360   10.8780    9.2260 C   0  0  0  0  0  0  0  0  0  0  0  0
   26.0900   11.6180   10.3960 C   0  0  0  0  0  0  0  0  0  0  0  0
   26.9900   12.6900   10.4410 C   0  0  0  0  0  0  0  0  0  0  0  0
   27.1490   13.4130   11.5910 O   0  0  0  0  0  0  0  0  0  0  0  0
   25.9490   14.0390   12.0710 C   0  0  0  0  0  0  0  0  0  0  0  0
   27.7440   13.0080    9.3080 C   0  0  0  0  0  0  0  0  0  0  0  0
   28.7330   14.1820    9.3590 C   0  0  0  0  0  0  0  0  0  0  0  0
   28.0610   15.2940    9.6010 F   0  0  0  0  0  0  0  0  0  0  0  0
   29.3770   14.3230    8.2040 F   0  0  0  0  0  0  0  0  0  0  0  0
   29.6040   13.9870   10.3400 F   0  0  0  0  0  0  0  0  0  0  0  0
   30.9892    6.3745   -3.6520 H   0  0  0  0  0  0  0  0  0  0  0  0
   30.1376    6.0307   -5.1958 H   0  0  0  0  0  0  0  0  0  0  0  0
   31.6262    7.0362   -5.1958 H   0  0  0  0  0  0  0  0  0  0  0  0
   29.7954    8.6461   -5.2468 H   0  0  0  0  0  0  0  0  0  0  0  0
   27.6349   10.8737   -1.9741 H   0  0  0  0  0  0  0  0  0  0  0  0
   26.8754   10.3244    0.2993 H   0  0  0  0  0  0  0  0  0  0  0  0
   28.9558    5.8100   -0.1958 H   0  0  0  0  0  0  0  0  0  0  0  0
   27.7899    6.4233    1.9152 H   0  0  0  0  0  0  0  0  0  0  0  0
   29.0151   10.1465    4.1639 H   0  0  0  0  0  0  0  0  0  0  0  0
   28.8338   10.0786    2.3904 H   0  0  0  0  0  0  0  0  0  0  0  0
   23.9232    6.6614    2.0245 H   0  0  0  0  0  0  0  0  0  0  0  0
   23.9683    8.0821    0.9262 H   0  0  0  0  0  0  0  0  0  0  0  0
   25.3239    6.9034    0.9262 H   0  0  0  0  0  0  0  0  0  0  0  0
   23.5726    8.1111    3.9632 H   0  0  0  0  0  0  0  0  0  0  0  0
   24.6397    9.4662    5.7583 H   0  0  0  0  0  0  0  0  0  0  0  0
   25.7301    9.7468    7.0420 H   0  0  0  0  0  0  0  0  0  0  0  0
   28.1614   12.5250    7.2414 H   0  0  0  0  0  0  0  0  0  0  0  0
   25.2120   10.0505    9.1937 H   0  0  0  0  0  0  0  0  0  0  0  0
   25.5019   11.3591   11.2888 H   0  0  0  0  0  0  0  0  0  0  0  0
   25.9499   14.0385   13.1710 H   0  0  0  0  0  0  0  0  0  0  0  0
   25.9043   15.0753   11.7048 H   0  0  0  0  0  0  0  0  0  0  0  0
   25.0735   13.4827   11.7048 H   0  0  0  0  0  0  0  0  0  0  0  0
  1  2  1  0
  2  3  1  0
  3  5  2  0
  3  4  1  0
  5  6  1  0
  4  9  2  0
  6  7  2  0
  9  7  1  0
  9 10  1  0
  7  8  1  0
 10 11  2  0
  8 12  2  0
 11 12  1  0
 12 13  1  0
 17 16  1  0
 13 16  1  0
 13 14  2  0
 16 18  2  0
 15 14  1  0
 14 20  1  0
 18 19  1  0
 20 19  2  0
 20 21  1  0
 22 21  2  0
 21 23  1  0
 23 24  1  0
 24 25  2  0
 24 26  1  0
 25 31  1  0
 34 32  1  0
 26 27  2  0
 31 32  1  0
 31 28  2  0
 32 33  1  0
 32 35  1  0
 27 28  1  0
 28 29  1  0
 29 30  1  0
  1 36  1  0
  1 37  1  0
  1 38  1  0
  2 39  1  0
  6 40  1  0
  8 41  1  0
 10 42  1  0
 11 43  1  0
 15 44  1  0
 15 45  1  0
 17 46  1  0
 17 47  1  0
 17 48  1  0
 18 49  1  0
 19 50  1  0
 23 51  1  0
 25 52  1  0
 26 53  1  0
 27 54  1  0
 30 55  1  0
 30 56  1  0
 30 57  1  0
A    1
C19
A    2
N18
A    3
C16
A    4
N17
A    5
N15
A    6
C14
A    7
C13
A    8
C9
A    9
C12
A   10
C10
A   11
C11
A   12
C8
A   13
C1
A   14
C2
A   15
N20
A   16
C6
A   17
C7
A   18
C5
A   19
C4
A   20
C3
A   21
C21
A   22
O22
A   23
N23
A   24
C24
A   25
C29
A   26
C25
A   27
C26
A   28
C27
A   29
O30
A   30
C31
A   31
C28
A   32
C32
A   33
F34
A   34
F35
A   35
F33
M  END
