4X7Q_3YR_B_401
     RDKit          3D

 44 47  0  0  0  0  0  0  0  0999 V2000
   55.1730   19.7320    0.3910 O   0  0  0  0  0  0  0  0  0  0  0  0
   56.6850   21.0320    1.5760 C   0  0  0  0  0  0  0  0  0  0  0  0
   57.7340   21.0290    0.6860 C   0  0  0  0  0  0  0  0  0  0  0  0
   55.3940   20.3670    1.3970 C   0  0  0  0  0  0  0  0  0  0  0  0
   53.3520   19.9180    2.4980 C   0  0  0  0  0  0  0  0  0  0  0  0
   52.8720   19.0100    1.5620 C   0  0  0  0  0  0  0  0  0  0  0  0
   58.1090   22.3110    2.7730 C   0  0  0  0  0  0  0  0  0  0  0  0
   59.5960   24.6650    5.9250 C   0  0  0  0  0  0  0  0  0  0  0  0
   60.3710   24.4110    4.8130 C   0  0  0  0  0  0  0  0  0  0  0  0
   58.3230   24.1270    5.9870 C   0  0  0  0  0  0  0  0  0  0  0  0
   57.8460   23.3450    4.9330 C   0  0  0  0  0  0  0  0  0  0  0  0
   58.6240   23.0970    3.8110 C   0  0  0  0  0  0  0  0  0  0  0  0
   53.1570   21.0930    4.5570 O   0  0  0  0  0  0  0  0  0  0  0  0
   59.8870   23.6250    3.7590 C   0  0  0  0  0  0  0  0  0  0  0  0
   58.9570   21.9210    1.3300 S   0  0  0  0  0  0  0  0  0  0  0  0
   56.9130   21.7340    2.6930 N   0  0  0  0  0  0  0  0  0  0  0  0
   56.6080   22.8200    5.0390 F   0  0  0  0  0  0  0  0  0  0  0  0
   60.6480   23.4190    2.6700 F   0  0  0  0  0  0  0  0  0  0  0  0
   54.5430   20.5480    2.3910 N   0  0  0  0  0  0  0  0  0  0  0  0
   52.6300   20.1940    3.6550 C   0  0  0  0  0  0  0  0  0  0  0  0
   51.4180   19.5650    3.8600 C   0  0  0  0  0  0  0  0  0  0  0  0
   50.9850   18.6840    2.8870 C   0  0  0  0  0  0  0  0  0  0  0  0
   51.7050   18.4310    1.7810 N   0  0  0  0  0  0  0  0  0  0  0  0
   52.5730   21.3300    5.8500 C   0  0  0  0  0  0  0  0  0  0  0  0
   51.4500   22.3560    5.7020 C   0  0  0  0  0  0  0  0  0  0  0  0
   52.1850   23.5920    5.8140 N   0  0  0  0  0  0  0  0  0  0  0  0
   53.5220   23.4570    6.3600 C   0  0  0  0  0  0  0  0  0  0  0  0
   53.6080   21.9970    6.7360 C   0  0  0  0  0  0  0  0  0  0  0  0
   57.7519   20.5183   -0.2881 H   0  0  0  0  0  0  0  0  0  0  0  0
   53.4522   18.7780    0.6567 H   0  0  0  0  0  0  0  0  0  0  0  0
   59.9830   25.2841    6.7478 H   0  0  0  0  0  0  0  0  0  0  0  0
   61.3854   24.8322    4.7525 H   0  0  0  0  0  0  0  0  0  0  0  0
   57.6876   24.3149    6.8651 H   0  0  0  0  0  0  0  0  0  0  0  0
   54.8042   21.2128    3.1331 H   0  0  0  0  0  0  0  0  0  0  0  0
   50.8201   19.7577    4.7630 H   0  0  0  0  0  0  0  0  0  0  0  0
   50.0200   18.1736    3.0224 H   0  0  0  0  0  0  0  0  0  0  0  0
   52.2165   20.3758    6.2651 H   0  0  0  0  0  0  0  0  0  0  0  0
   50.7041   22.2562    6.5043 H   0  0  0  0  0  0  0  0  0  0  0  0
   50.8683   22.2586    4.7735 H   0  0  0  0  0  0  0  0  0  0  0  0
   52.2631   24.0048    4.8736 H   0  0  0  0  0  0  0  0  0  0  0  0
   54.2813   23.7137    5.6067 H   0  0  0  0  0  0  0  0  0  0  0  0
   53.7050   24.1286    7.2118 H   0  0  0  0  0  0  0  0  0  0  0  0
   53.3651   21.8517    7.7990 H   0  0  0  0  0  0  0  0  0  0  0  0
   54.6170   21.5818    6.5959 H   0  0  0  0  0  0  0  0  0  0  0  0
  1  4  2  0
  3 15  1  0
  3  2  2  0
 15  7  1  0
  4  2  1  0
  4 19  1  0
  6 23  2  0
  6  5  1  0
  2 16  1  0
 23 22  1  0
 19  5  1  0
  5 20  2  0
 18 14  1  0
 16  7  2  0
  7 12  1  0
 22 21  2  0
 20 21  1  0
 20 13  1  0
 14 12  2  0
 14  9  1  0
 12 11  1  0
 13 24  1  0
  9  8  2  0
 11 17  1  0
 11 10  2  0
 25 26  1  0
 25 24  1  0
 26 27  1  0
 24 28  1  0
  8 10  1  0
 27 28  1  0
  3 29  1  0
  6 30  1  0
  8 31  1  0
  9 32  1  0
 10 33  1  0
 19 34  1  0
 21 35  1  0
 22 36  1  0
 24 37  1  0
 25 38  1  0
 25 39  1  0
 26 40  1  0
 27 41  1  0
 27 42  1  0
 28 43  1  0
 28 44  1  0
A    1
O2
A    2
C9
A    3
C8
A    4
C10
A    5
C11
A    6
C12
A    7
C7
A    8
C3
A    9
C2
A   10
C4
A   11
C5
A   12
C6
A   13
O1
A   14
C1
A   15
S
A   16
N4
A   17
F2
A   18
F1
A   19
N1
A   20
C15
A   21
C14
A   22
C13
A   23
N2
A   24
C16
A   25
C19
A   26
N3
A   27
C18
A   28
C17
M  END
