4X7X_3ZP_A_303
     RDKit          3D

138141  0  0  0  0  0  0  0  0999 V2000
   46.2130  200.7660  157.4680 C   0  0  0  0  0  0  0  0  0  0  0  0
   49.2770  199.9770  159.8340 O   0  0  0  0  0  0  0  0  0  0  0  0
   46.8210  200.0750  158.6690 C   0  0  0  0  0  0  0  0  0  0  0  0
   47.3700  201.1190  159.5150 O   0  0  0  0  0  0  0  0  0  0  0  0
   45.8310  199.3030  159.5470 C   0  0  0  0  0  0  0  0  0  0  0  0
   51.1440  201.8260  161.6230 O   0  0  0  0  0  0  0  0  0  0  0  0
   46.5120  198.7360  160.7680 C   0  0  0  0  0  0  0  0  0  0  0  0
   46.4030  199.1940  162.0360 C   0  0  0  0  0  0  0  0  0  0  0  0
   47.1680  198.4730  163.0370 C   0  0  0  0  0  0  0  0  0  0  0  0
   47.2680  198.7670  164.3360 C   0  0  0  0  0  0  0  0  0  0  0  0
   48.2410  198.1650  165.1590 C   0  0  0  0  0  0  0  0  0  0  0  0
   48.6200  198.9150  166.4310 C   0  0  0  0  0  0  0  0  0  0  0  0
   49.3480  200.2390  166.1250 C   0  0  0  0  0  0  0  0  0  0  0  0
   50.5300  200.1410  165.1500 C   0  0  0  0  0  0  0  0  0  0  0  0
   50.8180  201.5130  164.5520 C   0  0  0  0  0  0  0  0  0  0  0  0
   49.7180  202.0040  163.5840 C   0  0  0  0  0  0  0  0  0  0  0  0
   49.8820  201.4430  162.1680 C   0  0  0  0  0  0  0  0  0  0  0  0
   48.7570  201.8570  161.2310 C   0  0  0  0  0  0  0  0  0  0  0  0
   48.5310  200.8760  160.1280 C   0  0  0  0  0  0  0  0  0  0  0  0
   52.8830  198.6520  163.9680 O   0  0  0  0  0  0  0  0  0  0  0  0
   52.9180  199.3020  164.9630 C   0  0  0  0  0  0  0  0  0  0  0  0
   51.7670  199.5660  165.8600 C   0  0  0  0  0  0  0  0  0  0  0  0
   50.9070  202.4460  165.6340 O   0  0  0  0  0  0  0  0  0  0  0  0
   52.0660  203.2340  165.7600 C   0  0  0  0  0  0  0  0  0  0  0  0
   53.2590  202.4830  165.5990 O   0  0  0  0  0  0  0  0  0  0  0  0
   54.4540  203.2930  165.6410 C   0  0  0  0  0  0  0  0  0  0  0  0
   55.6150  202.3910  165.2930 C   0  0  0  0  0  0  0  0  0  0  0  0
   54.5830  203.9450  167.0140 C   0  0  0  0  0  0  0  0  0  0  0  0
   55.5280  205.0220  166.9120 O   0  0  0  0  0  0  0  0  0  0  0  0
   56.8730  204.7170  167.2410 C   0  0  0  0  0  0  0  0  0  0  0  0
   57.0210  203.6030  168.1240 O   0  0  0  0  0  0  0  0  0  0  0  0
   56.7500  203.8160  169.5250 C   0  0  0  0  0  0  0  0  0  0  0  0
   57.0460  202.5120  170.2330 C   0  0  0  0  0  0  0  0  0  0  0  0
   57.5870  204.9730  170.0520 C   0  0  0  0  0  0  0  0  0  0  0  0
   57.3120  205.1810  171.4280 O   0  0  0  0  0  0  0  0  0  0  0  0
   57.3170  206.2580  169.2570 C   0  0  0  0  0  0  0  0  0  0  0  0
   55.9290  206.5890  169.4830 O   0  0  0  0  0  0  0  0  0  0  0  0
   58.1700  207.4310  169.7220 C   0  0  0  0  0  0  0  0  0  0  0  0
   57.5410  205.9720  167.7660 C   0  0  0  0  0  0  0  0  0  0  0  0
   53.2820  204.6580  167.3860 C   0  0  0  0  0  0  0  0  0  0  0  0
   53.3910  205.3220  168.7030 N   0  0  0  0  0  0  0  0  0  0  0  0
   53.0490  204.4510  169.8300 C   0  0  0  0  0  0  0  0  0  0  0  0
   52.6510  206.5800  168.8040 C   0  0  0  0  0  0  0  0  0  0  0  0
   52.0090  203.8520  167.1500 C   0  0  0  0  0  0  0  0  0  0  0  0
   50.8720  204.6990  167.2410 O   0  0  0  0  0  0  0  0  0  0  0  0
   49.5360  203.5270  163.5800 C   0  0  0  0  0  0  0  0  0  0  0  0
   47.2030  201.6630  156.7420 C   0  0  0  0  0  0  0  0  0  0  0  0
   47.3920  199.1550  167.3150 C   0  0  0  0  0  0  0  0  0  0  0  0
   48.7810  197.1080  164.8760 O   0  0  0  0  0  0  0  0  0  0  0  0
   45.5630  200.3630  162.4880 C   0  0  0  0  0  0  0  0  0  0  0  0
   45.0430  198.2110  158.8450 C   0  0  0  0  0  0  0  0  0  0  0  0
   45.9460  197.5100  157.9780 O   0  0  0  0  0  0  0  0  0  0  0  0
   45.8950  196.1240  158.0900 C   0  0  0  0  0  0  0  0  0  0  0  0
   47.0620  195.6470  158.7270 O   0  0  0  0  0  0  0  0  0  0  0  0
   47.1190  194.2090  158.7840 C   0  0  0  0  0  0  0  0  0  0  0  0
   48.2570  193.8340  159.7050 C   0  0  0  0  0  0  0  0  0  0  0  0
   47.2760  193.6750  157.3680 C   0  0  0  0  0  0  0  0  0  0  0  0
   47.3480  192.2580  157.3800 O   0  0  0  0  0  0  0  0  0  0  0  0
   46.0510  194.0900  156.5590 C   0  0  0  0  0  0  0  0  0  0  0  0
   44.9380  193.3190  157.0170 O   0  0  0  0  0  0  0  0  0  0  0  0
   45.7990  195.5920  156.6690 C   0  0  0  0  0  0  0  0  0  0  0  0
   44.5150  195.9040  156.1330 O   0  0  0  0  0  0  0  0  0  0  0  0
   44.5180  196.8640  155.0790 C   0  0  0  0  0  0  0  0  0  0  0  0
   45.3655  201.3798  157.8071 H   0  0  0  0  0  0  0  0  0  0  0  0
   45.8938  199.9849  156.7623 H   0  0  0  0  0  0  0  0  0  0  0  0
   47.5465  199.3472  158.2767 H   0  0  0  0  0  0  0  0  0  0  0  0
   45.0886  200.0611  159.8370 H   0  0  0  0  0  0  0  0  0  0  0  0
   51.7769  202.0181  162.3596 H   0  0  0  0  0  0  0  0  0  0  0  0
   47.1623  197.8627  160.6114 H   0  0  0  0  0  0  0  0  0  0  0  0
   47.7246  197.5905  162.6886 H   0  0  0  0  0  0  0  0  0  0  0  0
   46.5729  199.4979  164.7749 H   0  0  0  0  0  0  0  0  0  0  0  0
   49.3238  198.2774  166.9861 H   0  0  0  0  0  0  0  0  0  0  0  0
   49.7268  200.6434  167.0752 H   0  0  0  0  0  0  0  0  0  0  0  0
   48.6048  200.8815  165.6303 H   0  0  0  0  0  0  0  0  0  0  0  0
   50.2700  199.4546  164.3307 H   0  0  0  0  0  0  0  0  0  0  0  0
   51.7497  201.4360  163.9723 H   0  0  0  0  0  0  0  0  0  0  0  0
   48.7813  201.5906  163.9861 H   0  0  0  0  0  0  0  0  0  0  0  0
   49.8362  200.3475  162.2567 H   0  0  0  0  0  0  0  0  0  0  0  0
   49.0095  202.8317  160.7880 H   0  0  0  0  0  0  0  0  0  0  0  0
   47.8325  201.9056  161.8252 H   0  0  0  0  0  0  0  0  0  0  0  0
   53.8856  199.7448  165.2416 H   0  0  0  0  0  0  0  0  0  0  0  0
   51.4796  198.6187  166.3395 H   0  0  0  0  0  0  0  0  0  0  0  0
   52.0982  200.3273  166.5816 H   0  0  0  0  0  0  0  0  0  0  0  0
   52.0886  203.9966  164.9675 H   0  0  0  0  0  0  0  0  0  0  0  0
   54.4250  204.1197  164.9159 H   0  0  0  0  0  0  0  0  0  0  0  0
   56.0854  202.0255  166.2177 H   0  0  0  0  0  0  0  0  0  0  0  0
   55.2514  201.5361  164.7039 H   0  0  0  0  0  0  0  0  0  0  0  0
   56.3535  202.9546  164.7039 H   0  0  0  0  0  0  0  0  0  0  0  0
   54.8582  203.1624  167.7364 H   0  0  0  0  0  0  0  0  0  0  0  0
   57.3801  204.3862  166.3226 H   0  0  0  0  0  0  0  0  0  0  0  0
   55.7010  204.0963  169.7013 H   0  0  0  0  0  0  0  0  0  0  0  0
   57.0103  202.6692  171.3211 H   0  0  0  0  0  0  0  0  0  0  0  0
   56.2956  201.7606  169.9463 H   0  0  0  0  0  0  0  0  0  0  0  0
   58.0473  202.1582  169.9463 H   0  0  0  0  0  0  0  0  0  0  0  0
   58.6492  204.7147  169.9297 H   0  0  0  0  0  0  0  0  0  0  0  0
   57.9701  204.6832  171.9750 H   0  0  0  0  0  0  0  0  0  0  0  0
   55.7540  206.6307  170.4565 H   0  0  0  0  0  0  0  0  0  0  0  0
   58.1891  207.4573  170.8215 H   0  0  0  0  0  0  0  0  0  0  0  0
   59.1949  207.3132  169.3402 H   0  0  0  0  0  0  0  0  0  0  0  0
   57.7421  208.3697  169.3402 H   0  0  0  0  0  0  0  0  0  0  0  0
   58.6238  205.8771  167.5969 H   0  0  0  0  0  0  0  0  0  0  0  0
   57.0826  206.8113  167.2225 H   0  0  0  0  0  0  0  0  0  0  0  0
   53.1489  205.4686  166.6544 H   0  0  0  0  0  0  0  0  0  0  0  0
   53.2550  204.9757  170.7746 H   0  0  0  0  0  0  0  0  0  0  0  0
   51.9816  204.1899  169.7809 H   0  0  0  0  0  0  0  0  0  0  0  0
   53.6536  203.5334  169.7809 H   0  0  0  0  0  0  0  0  0  0  0  0
   52.5018  206.8336  169.8639 H   0  0  0  0  0  0  0  0  0  0  0  0
   53.2215  207.3815  168.3120 H   0  0  0  0  0  0  0  0  0  0  0  0
   51.6732  206.4708  168.3120 H   0  0  0  0  0  0  0  0  0  0  0  0
   51.9301  203.0629  167.9123 H   0  0  0  0  0  0  0  0  0  0  0  0
   50.6558  204.8600  168.1936 H   0  0  0  0  0  0  0  0  0  0  0  0
   49.4922  203.8938  164.6161 H   0  0  0  0  0  0  0  0  0  0  0  0
   50.3845  203.9963  163.0605 H   0  0  0  0  0  0  0  0  0  0  0  0
   48.6009  203.7832  163.0605 H   0  0  0  0  0  0  0  0  0  0  0  0
   47.8087  202.2118  157.4782 H   0  0  0  0  0  0  0  0  0  0  0  0
   47.8613  201.0475  156.1113 H   0  0  0  0  0  0  0  0  0  0  0  0
   46.6552  202.3786  156.1113 H   0  0  0  0  0  0  0  0  0  0  0  0
   47.6854  199.0977  168.3736 H   0  0  0  0  0  0  0  0  0  0  0  0
   46.9767  200.1513  167.1031 H   0  0  0  0  0  0  0  0  0  0  0  0
   46.6322  198.3884  167.1031 H   0  0  0  0  0  0  0  0  0  0  0  0
   45.5402  200.3948  163.5873 H   0  0  0  0  0  0  0  0  0  0  0  0
   45.9976  201.2973  162.1031 H   0  0  0  0  0  0  0  0  0  0  0  0
   44.5388  200.2491  162.1031 H   0  0  0  0  0  0  0  0  0  0  0  0
   44.2281  198.6568  158.2558 H   0  0  0  0  0  0  0  0  0  0  0  0
   44.6013  197.5217  159.5797 H   0  0  0  0  0  0  0  0  0  0  0  0
   45.0377  195.7933  158.6948 H   0  0  0  0  0  0  0  0  0  0  0  0
   46.2005  193.7599  159.1898 H   0  0  0  0  0  0  0  0  0  0  0  0
   47.9328  193.9408  160.7507 H   0  0  0  0  0  0  0  0  0  0  0  0
   48.5522  192.7911  159.5173 H   0  0  0  0  0  0  0  0  0  0  0  0
   49.1143  194.4971  159.5173 H   0  0  0  0  0  0  0  0  0  0  0  0
   48.1987  194.0802  156.9270 H   0  0  0  0  0  0  0  0  0  0  0  0
   47.3643  191.9363  158.3161 H   0  0  0  0  0  0  0  0  0  0  0  0
   46.2141  193.8904  155.4896 H   0  0  0  0  0  0  0  0  0  0  0  0
   44.9269  193.3113  158.0069 H   0  0  0  0  0  0  0  0  0  0  0  0
   46.5960  196.0839  156.0920 H   0  0  0  0  0  0  0  0  0  0  0  0
   44.5212  197.8776  155.5063 H   0  0  0  0  0  0  0  0  0  0  0  0
   45.4157  196.7247  154.4587 H   0  0  0  0  0  0  0  0  0  0  0  0
   43.6194  196.7303  154.4587 H   0  0  0  0  0  0  0  0  0  0  0  0
 63 62  1  0
 62 61  1  0
 59 61  1  0
 59 60  1  0
 59 57  1  0
 61 53  1  0
 47  1  1  0
 57 58  1  0
 57 55  1  0
  1  3  1  0
 52 53  1  0
 52 51  1  0
 53 54  1  0
  3  4  1  0
  3  5  1  0
 54 55  1  0
 55 56  1  0
 51  5  1  0
  4 19  1  0
  5  7  1  0
  2 19  2  0
 19 18  1  0
  7  8  2  0
 18 17  1  0
  6 17  1  0
  8 50  1  0
  8  9  1  0
 17 16  1  0
  9 10  2  0
 46 16  1  0
 16 15  1  0
 20 21  2  0
 10 11  1  0
 15 14  1  0
 15 23  1  0
 49 11  2  0
 21 22  1  0
 14 22  1  0
 14 13  1  0
 11 12  1  0
 27 26  1  0
 25 26  1  0
 25 24  1  0
 23 24  1  0
 26 28  1  0
 24 44  1  0
 13 12  1  0
 12 48  1  0
 29 28  1  0
 29 30  1  0
 28 40  1  0
 44 45  1  0
 44 40  1  0
 30 39  1  0
 30 31  1  0
 40 41  1  0
 39 36  1  0
 31 32  1  0
 41 43  1  0
 41 42  1  0
 36 37  1  0
 36 38  1  0
 36 34  1  0
 32 34  1  0
 32 33  1  0
 34 35  1  0
  1 64  1  0
  1 65  1  0
  3 66  1  0
  5 67  1  0
  6 68  1  0
  7 69  1  0
  9 70  1  0
 10 71  1  0
 12 72  1  0
 13 73  1  0
 13 74  1  0
 14 75  1  0
 15 76  1  0
 16 77  1  0
 17 78  1  0
 18 79  1  0
 18 80  1  0
 21 81  1  0
 22 82  1  0
 22 83  1  0
 24 84  1  0
 26 85  1  0
 27 86  1  0
 27 87  1  0
 27 88  1  0
 28 89  1  0
 30 90  1  0
 32 91  1  0
 33 92  1  0
 33 93  1  0
 33 94  1  0
 34 95  1  0
 35 96  1  0
 37 97  1  0
 38 98  1  0
 38 99  1  0
 38100  1  0
 39101  1  0
 39102  1  0
 40103  1  0
 42104  1  0
 42105  1  0
 42106  1  0
 43107  1  0
 43108  1  0
 43109  1  0
 44110  1  0
 45111  1  0
 46112  1  0
 46113  1  0
 46114  1  0
 47115  1  0
 47116  1  0
 47117  1  0
 48118  1  0
 48119  1  0
 48120  1  0
 50121  1  0
 50122  1  0
 50123  1  0
 51124  1  0
 51125  1  0
 53126  1  0
 55127  1  0
 56128  1  0
 56129  1  0
 56130  1  0
 57131  1  0
 58132  1  0
 59133  1  0
 60134  1  0
 61135  1  0
 63136  1  0
 63137  1  0
 63138  1  0
A    1
C1
A    2
O1
A    3
C2
A    4
O2
A    5
C3
A    6
O3
A    7
C4
A    8
C5
A    9
C6
A   10
C7
A   11
C8
A   12
C9
A   13
C10
A   14
C11
A   15
C12
A   16
C13
A   17
C14
A   18
C15
A   19
C16
A   20
O11
A   21
C34
A   22
C33
A   23
O4
A   24
C18
A   25
O5
A   26
C22
A   27
C23
A   28
C21
A   29
O6
A   30
C24
A   31
O7
A   32
C28
A   33
C29
A   34
C27
A   35
O8
A   36
C26
A   37
O9
A   38
C30
A   39
C25
A   40
C20
A   41
N
A   42
C32
A   43
C31
A   44
C19
A   45
O10
A   46
C17
A   47
C
A   48
C35
A   49
O
A   50
C36
A   51
C37
A   52
O12
A   53
C38
A   54
O13
A   55
C42
A   56
C43
A   57
C41
A   58
O14
A   59
C40
A   60
O15
A   61
C39
A   62
O16
A   63
C44
M  END
