2Y5Z_ZM3_A_460
     RDKit          3D

 84 85  0  0  0  0  0  0  0  0999 V2000
  -16.3500   11.7350   50.0830 N   0  0  0  0  0  0  0  0  0  0  0  0
  -14.2120   -0.0140   55.3680 C   0  0  0  0  0  0  0  0  0  0  0  0
  -18.4100    1.7730   52.9020 O   0  0  0  0  0  0  0  0  0  0  0  0
  -14.5080    0.7200   54.2490 C   0  0  0  0  0  0  0  0  0  0  0  0
  -16.3830    7.3700   52.1160 O   0  0  0  0  0  0  0  0  0  0  0  0
  -15.8670    1.1040   53.7720 C   0  0  0  0  0  0  0  0  0  0  0  0
  -14.7540    9.5590   50.9440 O   0  0  0  0  0  0  0  0  0  0  0  0
  -16.0970    2.0490   52.8040 C   0  0  0  0  0  0  0  0  0  0  0  0
  -18.1070    8.8160   52.5480 O   0  0  0  0  0  0  0  0  0  0  0  0
  -17.4960    2.3930   52.4110 C   0  0  0  0  0  0  0  0  0  0  0  0
  -14.1440    2.9230   56.3560 O   0  0  0  0  0  0  0  0  0  0  0  0
  -17.9460    3.4750   51.4950 C   0  0  0  0  0  0  0  0  0  0  0  0
  -12.3630    1.9890   55.1390 O   0  0  0  0  0  0  0  0  0  0  0  0
  -18.0360    2.9600   50.0580 C   0  0  0  0  0  0  0  0  0  0  0  0
  -13.5950   -2.2740   57.3920 O   0  0  0  0  0  0  0  0  0  0  0  0
  -17.0750    4.7010   51.6840 C   0  0  0  0  0  0  0  0  0  0  0  0
  -17.3700    5.3880   53.0350 C   0  0  0  0  0  0  0  0  0  0  0  0
  -18.8230    5.9090   53.1600 C   0  0  0  0  0  0  0  0  0  0  0  0
  -16.3740    6.5240   53.2770 C   0  0  0  0  0  0  0  0  0  0  0  0
  -16.6760    8.7480   52.3870 C   0  0  0  0  0  0  0  0  0  0  0  0
  -16.1890    9.6290   51.2170 C   0  0  0  0  0  0  0  0  0  0  0  0
  -16.6360   11.0880   51.3990 C   0  0  0  0  0  0  0  0  0  0  0  0
  -15.2480   12.7500   50.1150 C   0  0  0  0  0  0  0  0  0  0  0  0
  -17.5490   12.3110   49.4710 C   0  0  0  0  0  0  0  0  0  0  0  0
  -18.1520   11.1420   51.6600 C   0  0  0  0  0  0  0  0  0  0  0  0
  -18.6870   10.1140   52.6770 C   0  0  0  0  0  0  0  0  0  0  0  0
  -20.1720    9.8850   52.4750 C   0  0  0  0  0  0  0  0  0  0  0  0
  -14.9220    6.0970   53.5490 C   0  0  0  0  0  0  0  0  0  0  0  0
  -14.3050    7.2790   54.3220 C   0  0  0  0  0  0  0  0  0  0  0  0
  -14.7970    4.8750   54.4410 C   0  0  0  0  0  0  0  0  0  0  0  0
  -13.6550    4.1650   54.4340 C   0  0  0  0  0  0  0  0  0  0  0  0
  -13.4280    3.0060   55.3530 C   0  0  0  0  0  0  0  0  0  0  0  0
  -12.1700    1.0350   56.2060 C   0  0  0  0  0  0  0  0  0  0  0  0
  -10.6810    0.9390   56.5610 C   0  0  0  0  0  0  0  0  0  0  0  0
  -10.0200    2.2810   56.3230 C   0  0  0  0  0  0  0  0  0  0  0  0
  -12.7700   -0.3340   55.8310 C   0  0  0  0  0  0  0  0  0  0  0  0
  -12.5480   -1.3170   57.0370 C   0  0  0  0  0  0  0  0  0  0  0  0
  -15.0474   -0.3979   55.9719 H   0  0  0  0  0  0  0  0  0  0  0  0
  -13.6565    1.0602   53.6414 H   0  0  0  0  0  0  0  0  0  0  0  0
  -16.7356    0.6008   54.2219 H   0  0  0  0  0  0  0  0  0  0  0  0
  -14.2562    9.5347   51.7994 H   0  0  0  0  0  0  0  0  0  0  0  0
  -15.2497    2.5538   52.3169 H   0  0  0  0  0  0  0  0  0  0  0  0
  -18.9688    3.7942   51.7440 H   0  0  0  0  0  0  0  0  0  0  0  0
  -18.2254    1.8765   50.0680 H   0  0  0  0  0  0  0  0  0  0  0  0
  -18.8584    3.4711   49.5361 H   0  0  0  0  0  0  0  0  0  0  0  0
  -17.0890    3.1619   49.5361 H   0  0  0  0  0  0  0  0  0  0  0  0
  -13.6640   -2.3371   58.3776 H   0  0  0  0  0  0  0  0  0  0  0  0
  -16.0178    4.3984   51.6579 H   0  0  0  0  0  0  0  0  0  0  0  0
  -17.2928    5.4131   50.8744 H   0  0  0  0  0  0  0  0  0  0  0  0
  -17.2528    4.6159   53.8097 H   0  0  0  0  0  0  0  0  0  0  0  0
  -19.0882    6.0041   54.2233 H   0  0  0  0  0  0  0  0  0  0  0  0
  -18.9033    6.8919   52.6727 H   0  0  0  0  0  0  0  0  0  0  0  0
  -19.5096    5.2010   52.6727 H   0  0  0  0  0  0  0  0  0  0  0  0
  -16.7084    7.0264   54.1967 H   0  0  0  0  0  0  0  0  0  0  0  0
  -16.1656    9.1177   53.2886 H   0  0  0  0  0  0  0  0  0  0  0  0
  -16.6730    9.2019   50.3263 H   0  0  0  0  0  0  0  0  0  0  0  0
  -16.1254   11.5769   52.2418 H   0  0  0  0  0  0  0  0  0  0  0  0
  -14.9947   12.9833   51.1597 H   0  0  0  0  0  0  0  0  0  0  0  0
  -14.3617   12.3452   49.6044 H   0  0  0  0  0  0  0  0  0  0  0  0
  -15.5787   13.6665   49.6044 H   0  0  0  0  0  0  0  0  0  0  0  0
  -18.2400   12.6429   50.2599 H   0  0  0  0  0  0  0  0  0  0  0  0
  -17.2650   13.1710   48.8467 H   0  0  0  0  0  0  0  0  0  0  0  0
  -18.0428   11.5518   48.8467 H   0  0  0  0  0  0  0  0  0  0  0  0
  -18.3960   12.1473   52.0339 H   0  0  0  0  0  0  0  0  0  0  0  0
  -18.6326   10.8970   50.7014 H   0  0  0  0  0  0  0  0  0  0  0  0
  -18.4364   10.5500   53.6553 H   0  0  0  0  0  0  0  0  0  0  0  0
  -20.6677    9.8086   53.4540 H   0  0  0  0  0  0  0  0  0  0  0  0
  -20.5998   10.7278   51.9122 H   0  0  0  0  0  0  0  0  0  0  0  0
  -20.3260    8.9525   51.9122 H   0  0  0  0  0  0  0  0  0  0  0  0
  -14.4385    5.8460   52.5934 H   0  0  0  0  0  0  0  0  0  0  0  0
  -14.3989    7.0991   55.4031 H   0  0  0  0  0  0  0  0  0  0  0  0
  -13.2417    7.3752   54.0573 H   0  0  0  0  0  0  0  0  0  0  0  0
  -14.8341    8.2064   54.0573 H   0  0  0  0  0  0  0  0  0  0  0  0
  -15.6338    4.5728   55.0878 H   0  0  0  0  0  0  0  0  0  0  0  0
  -12.8597    4.4460   53.7279 H   0  0  0  0  0  0  0  0  0  0  0  0
  -12.7048    1.3818   57.1025 H   0  0  0  0  0  0  0  0  0  0  0  0
  -10.5733    0.6593   57.6194 H   0  0  0  0  0  0  0  0  0  0  0  0
  -10.2012    0.1759   55.9305 H   0  0  0  0  0  0  0  0  0  0  0  0
   -9.7880    2.7520   57.2896 H   0  0  0  0  0  0  0  0  0  0  0  0
   -9.0903    2.1359   55.7533 H   0  0  0  0  0  0  0  0  0  0  0  0
  -10.7017    2.9296   55.7533 H   0  0  0  0  0  0  0  0  0  0  0  0
  -12.3019   -0.8823   55.0002 H   0  0  0  0  0  0  0  0  0  0  0  0
  -12.3686   -0.6955   57.9267 H   0  0  0  0  0  0  0  0  0  0  0  0
  -11.7198   -1.9566   56.6979 H   0  0  0  0  0  0  0  0  0  0  0  0
  1 22  1  0
  1 23  1  0
  1 24  1  0
  2  4  2  0
  2 36  1  0
  3 10  2  0
  4  6  1  0
  5 19  1  0
  5 20  1  0
  6  8  2  0
  7 21  1  0
  8 10  1  0
  9 20  1  0
  9 26  1  0
 10 12  1  0
 11 32  2  0
 12 14  1  0
 12 16  1  0
 13 32  1  0
 13 33  1  0
 15 37  1  0
 16 17  1  0
 17 18  1  0
 17 19  1  0
 19 28  1  0
 20 21  1  0
 21 22  1  0
 22 25  1  0
 25 26  1  0
 26 27  1  0
 28 29  1  0
 28 30  1  0
 30 31  2  0
 31 32  1  0
 33 34  1  0
 33 36  1  0
 34 35  1  0
 36 37  1  0
  2 38  1  0
  4 39  1  0
  6 40  1  0
  7 41  1  0
  8 42  1  0
 12 43  1  0
 14 44  1  0
 14 45  1  0
 14 46  1  0
 15 47  1  0
 16 48  1  0
 16 49  1  0
 17 50  1  0
 18 51  1  0
 18 52  1  0
 18 53  1  0
 19 54  1  0
 20 55  1  0
 21 56  1  0
 22 57  1  0
 23 58  1  0
 23 59  1  0
 23 60  1  0
 24 61  1  0
 24 62  1  0
 24 63  1  0
 25 64  1  0
 25 65  1  0
 26 66  1  0
 27 67  1  0
 27 68  1  0
 27 69  1  0
 28 70  1  0
 29 71  1  0
 29 72  1  0
 29 73  1  0
 30 74  1  0
 31 75  1  0
 33 76  1  0
 34 77  1  0
 34 78  1  0
 35 79  1  0
 35 80  1  0
 35 81  1  0
 36 82  1  0
 37 83  1  0
 37 84  1  0
A    1
N
A    2
C1
A    3
O1
A    4
C2
A    5
O2
A    6
C3
A    7
O3
A    8
C4
A    9
O4
A   10
C5
A   11
O5
A   12
C6
A   13
O6
A   14
C7
A   15
O7
A   16
C8
A   17
C9
A   18
C10
A   19
C11
A   20
C12
A   21
C13
A   22
C14
A   23
C15
A   24
C16
A   25
C17
A   26
C18
A   27
C19
A   28
C20
A   29
C21
A   30
C22
A   31
C23
A   32
C24
A   33
C25
A   34
C26
A   35
C27
A   36
C28
A   37
C29
M  END
