4X8C_3YZ_A_703
     RDKit          3D

 65 70  0  0  0  0  0  0  0  0999 V2000
   31.9140   45.1400   31.6720 C   0  0  0  0  0  0  0  0  0  0  0  0
   30.6050   44.8110   31.4320 C   0  0  0  0  0  0  0  0  0  0  0  0
   28.9990   44.1970   29.4960 C   0  0  0  0  0  0  0  0  0  0  0  0
   27.3440   42.1660   24.1800 C   0  0  0  0  0  0  0  0  0  0  0  0
   25.1950   43.2940   24.0010 C   0  0  0  0  0  0  0  0  0  0  0  0
   32.7710   45.1990   30.6000 C   0  0  0  0  0  0  0  0  0  0  0  0
   30.2090   44.5550   30.1380 C   0  0  0  0  0  0  0  0  0  0  0  0
   26.1390   42.3980   23.5600 C   0  0  0  0  0  0  0  0  0  0  0  0
   27.5910   42.8990   25.3240 C   0  0  0  0  0  0  0  0  0  0  0  0
   26.6520   43.8010   25.7750 C   0  0  0  0  0  0  0  0  0  0  0  0
   25.4570   44.0150   25.1390 C   0  0  0  0  0  0  0  0  0  0  0  0
   29.2770   44.0900   28.1520 C   0  0  0  0  0  0  0  0  0  0  0  0
   31.1750   44.6520   29.1620 C   0  0  0  0  0  0  0  0  0  0  0  0
   28.4230   43.7610   27.0790 C   0  0  0  0  0  0  0  0  0  0  0  0
   25.8500   41.6380   22.3500 C   0  0  0  0  0  0  0  0  0  0  0  0
   31.1610   46.6450   25.5330 C   0  0  0  0  0  0  0  0  0  0  0  0
   31.1790   46.8930   27.0110 C   0  0  0  0  0  0  0  0  0  0  0  0
   24.3160   44.3730   20.6440 C   0  0  0  0  0  0  0  0  0  0  0  0
   25.5720   43.7880   21.2400 C   0  0  0  0  0  0  0  0  0  0  0  0
   25.1620   41.6830   20.0110 C   0  0  0  0  0  0  0  0  0  0  0  0
   31.8770   45.6940   26.4440 C   0  0  0  0  0  0  0  0  0  0  0  0
   23.9050   42.2750   19.4220 C   0  0  0  0  0  0  0  0  0  0  0  0
   24.0650   43.7690   19.2860 C   0  0  0  0  0  0  0  0  0  0  0  0
   26.6040   45.3440   27.7430 C   0  0  0  0  0  0  0  0  0  0  0  0
   24.3930   46.1530   24.9810 C   0  0  0  0  0  0  0  0  0  0  0  0
   31.2790   44.3590   26.6810 C   0  0  0  0  0  0  0  0  0  0  0  0
   32.4600   44.9660   29.3240 N   0  0  0  0  0  0  0  0  0  0  0  0
   28.6920   42.8800   26.1420 N   0  0  0  0  0  0  0  0  0  0  0  0
   27.2040   44.3380   26.8970 N   0  0  0  0  0  0  0  0  0  0  0  0
   30.6000   44.3670   27.9570 N   0  0  0  0  0  0  0  0  0  0  0  0
   25.4950   42.3540   21.2370 N   0  0  0  0  0  0  0  0  0  0  0  0
   23.7740   41.7250   18.0530 N   0  0  0  0  0  0  0  0  0  0  0  0
   25.9480   40.4200   22.4050 O   0  0  0  0  0  0  0  0  0  0  0  0
   25.1980   44.0260   18.4740 O   0  0  0  0  0  0  0  0  0  0  0  0
   24.6040   44.9430   25.6920 O   0  0  0  0  0  0  0  0  0  0  0  0
   32.2674   45.3504   32.6922 H   0  0  0  0  0  0  0  0  0  0  0  0
   29.8827   44.7524   32.2595 H   0  0  0  0  0  0  0  0  0  0  0  0
   28.0238   44.0354   29.9786 H   0  0  0  0  0  0  0  0  0  0  0  0
   28.0696   41.4384   23.7874 H   0  0  0  0  0  0  0  0  0  0  0  0
   24.2504   43.4303   23.4541 H   0  0  0  0  0  0  0  0  0  0  0  0
   33.8166   45.4645   30.8150 H   0  0  0  0  0  0  0  0  0  0  0  0
   31.7346   47.2979   24.8587 H   0  0  0  0  0  0  0  0  0  0  0  0
   30.3745   46.5481   24.7701 H   0  0  0  0  0  0  0  0  0  0  0  0
   31.7658   47.7280   27.4215 H   0  0  0  0  0  0  0  0  0  0  0  0
   30.4111   47.0535   27.7821 H   0  0  0  0  0  0  0  0  0  0  0  0
   24.4328   45.4621   20.5432 H   0  0  0  0  0  0  0  0  0  0  0  0
   23.4639   44.1506   21.3032 H   0  0  0  0  0  0  0  0  0  0  0  0
   26.4405   44.1075   20.6453 H   0  0  0  0  0  0  0  0  0  0  0  0
   25.6789   44.1418   22.2760 H   0  0  0  0  0  0  0  0  0  0  0  0
   25.0007   40.6139   20.2134 H   0  0  0  0  0  0  0  0  0  0  0  0
   25.9885   41.8075   19.2959 H   0  0  0  0  0  0  0  0  0  0  0  0
   32.8985   45.2894   26.4967 H   0  0  0  0  0  0  0  0  0  0  0  0
   23.0379   42.0439   20.0582 H   0  0  0  0  0  0  0  0  0  0  0  0
   23.1553   44.2009   18.8435 H   0  0  0  0  0  0  0  0  0  0  0  0
   26.7628   45.0778   28.7984 H   0  0  0  0  0  0  0  0  0  0  0  0
   27.0676   46.3201   27.5373 H   0  0  0  0  0  0  0  0  0  0  0  0
   25.5249   45.4000   27.5373 H   0  0  0  0  0  0  0  0  0  0  0  0
   24.2492   46.9775   25.6949 H   0  0  0  0  0  0  0  0  0  0  0  0
   25.2679   46.3640   24.3485 H   0  0  0  0  0  0  0  0  0  0  0  0
   23.4983   46.0554   24.3485 H   0  0  0  0  0  0  0  0  0  0  0  0
   30.5589   44.1303   25.8815 H   0  0  0  0  0  0  0  0  0  0  0  0
   32.0690   43.5935   26.6853 H   0  0  0  0  0  0  0  0  0  0  0  0
   23.5357   40.7244   18.1064 H   0  0  0  0  0  0  0  0  0  0  0  0
   23.0295   42.2289   17.5503 H   0  0  0  0  0  0  0  0  0  0  0  0
   25.9832   44.2041   19.0500 H   0  0  0  0  0  0  0  0  0  0  0  0
 32 22  1  0
 34 23  1  0
 23 22  1  0
 23 18  1  0
 22 20  1  0
 20 31  1  0
 18 19  1  0
 31 19  1  0
 31 15  1  0
 15 33  2  0
 15  8  1  0
  8  5  1  0
  8  4  2  0
  5 11  2  0
  4  9  1  0
 25 35  1  0
 11 35  1  0
 11 10  1  0
  9 10  2  0
  9 28  1  0
 16 21  1  0
 16 17  1  0
 10 29  1  0
 28 14  2  0
 21 26  1  0
 21 17  1  0
 26 30  1  0
 29 14  1  0
 29 24  1  0
 14 12  1  0
 30 12  1  0
 30 13  1  0
 12  3  2  0
 13 27  2  0
 13  7  1  0
 27  6  1  0
  3  7  1  0
  7  2  2  0
  6  1  2  0
  2  1  1  0
  1 36  1  0
  2 37  1  0
  3 38  1  0
  4 39  1  0
  5 40  1  0
  6 41  1  0
 16 42  1  0
 16 43  1  0
 17 44  1  0
 17 45  1  0
 18 46  1  0
 18 47  1  0
 19 48  1  0
 19 49  1  0
 20 50  1  0
 20 51  1  0
 21 52  1  0
 22 53  1  0
 23 54  1  0
 24 55  1  0
 24 56  1  0
 24 57  1  0
 25 58  1  0
 25 59  1  0
 25 60  1  0
 26 61  1  0
 26 62  1  0
 32 63  1  0
 32 64  1  0
 34 65  1  0
A    1
C14
A    2
C13
A    3
C11
A    4
C6
A    5
C4
A    6
C15
A    7
C12
A    8
C5
A    9
C7
A   10
C25
A   11
C3
A   12
C10
A   13
C17
A   14
C9
A   15
C26
A   16
C21
A   17
C22
A   18
C30
A   19
C29
A   20
C35
A   21
C20
A   22
C33
A   23
C31
A   24
C24
A   25
C1
A   26
C19
A   27
N16
A   28
N8
A   29
N23
A   30
N18
A   31
N28
A   32
N34
A   33
O27
A   34
O32
A   35
O2
M  END
