4X8E_AVJ_A_501
     RDKit          3D

 30 30  0  0  0  0  0  0  0  0999 V2000
   25.2580   66.5260   40.7780 C   0  0  0  0  0  0  0  0  0  0  0  0
   27.1420   65.5080   41.8620 C   0  0  0  0  0  0  0  0  0  0  0  0
   25.6960   67.0180   43.0030 C   0  0  0  0  0  0  0  0  0  0  0  0
   24.3870   64.4640   44.7490 O   0  0  0  0  0  0  0  0  0  0  0  0
   26.2920   63.6560   44.0010 O   0  0  0  0  0  0  0  0  0  0  0  0
   24.1220   61.2740   42.2730 C   0  0  0  0  0  0  0  0  0  0  0  0
   24.8330   63.6490   41.4310 C   0  0  0  0  0  0  0  0  0  0  0  0
   22.5090   62.8400   42.1490 N   0  0  0  0  0  0  0  0  0  0  0  0
   22.9080   60.7270   42.6830 N   0  0  0  0  0  0  0  0  0  0  0  0
   25.2060   64.2930   43.7950 C   0  0  0  0  0  0  0  0  0  0  0  0
   23.8450   62.5810   41.9410 C   0  0  0  0  0  0  0  0  0  0  0  0
   21.9260   61.6570   42.6070 C   0  0  0  0  0  0  0  0  0  0  0  0
   24.8500   64.8050   42.4390 C   0  0  0  0  0  0  0  0  0  0  0  0
   25.7260   65.9380   42.0390 N   0  0  0  0  0  0  0  0  0  0  0  0
   24.5863   67.3699   40.9940 H   0  0  0  0  0  0  0  0  0  0  0  0
   26.1212   66.8837   40.1976 H   0  0  0  0  0  0  0  0  0  0  0  0
   24.7158   65.7650   40.1976 H   0  0  0  0  0  0  0  0  0  0  0  0
   27.6082   65.3664   42.8482 H   0  0  0  0  0  0  0  0  0  0  0  0
   27.1705   64.5607   41.3036 H   0  0  0  0  0  0  0  0  0  0  0  0
   27.6924   66.2795   41.3036 H   0  0  0  0  0  0  0  0  0  0  0  0
   25.7076   66.6013   44.0209 H   0  0  0  0  0  0  0  0  0  0  0  0
   26.5766   67.6615   42.8602 H   0  0  0  0  0  0  0  0  0  0  0  0
   24.7810   67.6116   42.8602 H   0  0  0  0  0  0  0  0  0  0  0  0
   26.5940   63.4789   44.9270 H   0  0  0  0  0  0  0  0  0  0  0  0
   25.0973   60.7677   42.2247 H   0  0  0  0  0  0  0  0  0  0  0  0
   25.8399   63.2145   41.3455 H   0  0  0  0  0  0  0  0  0  0  0  0
   24.5222   64.0126   40.4404 H   0  0  0  0  0  0  0  0  0  0  0  0
   22.0293   63.7384   41.9955 H   0  0  0  0  0  0  0  0  0  0  0  0
   20.8658   61.5078   42.8594 H   0  0  0  0  0  0  0  0  0  0  0  0
   23.8324   65.2222   42.4610 H   0  0  0  0  0  0  0  0  0  0  0  0
  1 14  1  0
  2 14  1  0
  3 14  1  0
  4 10  2  0
  5 10  1  0
  6  9  1  0
  6 11  2  0
  7 11  1  0
  7 13  1  0
  8 11  1  0
  8 12  1  0
  9 12  2  0
 10 13  1  0
 13 14  1  0
  1 15  1  0
  1 16  1  0
  1 17  1  0
  2 18  1  0
  2 19  1  0
  2 20  1  0
  3 21  1  0
  3 22  1  0
  3 23  1  0
  5 24  1  0
  6 25  1  0
  7 26  1  0
  7 27  1  0
  8 28  1  0
 12 29  1  0
 13 30  1  0
M  CHG  1  14   1
A    1
CAA
A    2
CAB
A    3
CAC
A    4
OAH
A    5
OAL
A    6
CAM
A    7
CAP
A    8
NAR
A    9
NAT
A   10
CAX
A   11
CAY
A   12
CAZ
A   13
CBC
A   14
NBE
M  END
