4X8G_3Z0_A_705
     RDKit          3D

 60 64  0  0  0  0  0  0  0  0999 V2000
   31.8690   45.2580   32.8880 C   0  0  0  0  0  0  0  0  0  0  0  0
   30.6480   44.6680   32.6810 C   0  0  0  0  0  0  0  0  0  0  0  0
   28.9830   44.0640   30.7870 C   0  0  0  0  0  0  0  0  0  0  0  0
   27.1370   42.5140   25.4140 C   0  0  0  0  0  0  0  0  0  0  0  0
   24.9560   43.5890   25.3320 C   0  0  0  0  0  0  0  0  0  0  0  0
   32.5460   45.7350   31.7930 C   0  0  0  0  0  0  0  0  0  0  0  0
   30.1540   44.5780   31.3980 C   0  0  0  0  0  0  0  0  0  0  0  0
   25.9140   42.7450   24.8270 C   0  0  0  0  0  0  0  0  0  0  0  0
   27.3850   43.1920   26.5910 C   0  0  0  0  0  0  0  0  0  0  0  0
   26.4330   44.0440   27.1100 C   0  0  0  0  0  0  0  0  0  0  0  0
   25.2220   44.2530   26.5020 C   0  0  0  0  0  0  0  0  0  0  0  0
   29.0990   44.2920   29.4340 C   0  0  0  0  0  0  0  0  0  0  0  0
   30.9450   45.1020   30.3990 C   0  0  0  0  0  0  0  0  0  0  0  0
   28.2230   43.9870   28.3710 C   0  0  0  0  0  0  0  0  0  0  0  0
   25.6180   42.0490   23.5830 C   0  0  0  0  0  0  0  0  0  0  0  0
   24.3420   44.9150   21.8780 C   0  0  0  0  0  0  0  0  0  0  0  0
   24.1400   44.3650   20.4890 C   0  0  0  0  0  0  0  0  0  0  0  0
   25.5220   44.2320   22.5200 C   0  0  0  0  0  0  0  0  0  0  0  0
   25.0460   42.1900   21.2150 C   0  0  0  0  0  0  0  0  0  0  0  0
   23.8730   42.8830   20.5670 C   0  0  0  0  0  0  0  0  0  0  0  0
   32.1130   44.6610   27.6630 C   0  0  0  0  0  0  0  0  0  0  0  0
   26.3780   45.4840   29.1650 C   0  0  0  0  0  0  0  0  0  0  0  0
   23.6590   46.0430   26.2840 C   0  0  0  0  0  0  0  0  0  0  0  0
   30.7870   45.3300   27.9220 C   0  0  0  0  0  0  0  0  0  0  0  0
   32.1360   45.6870   30.5240 N   0  0  0  0  0  0  0  0  0  0  0  0
   28.5020   43.1650   27.3860 N   0  0  0  0  0  0  0  0  0  0  0  0
   26.9850   44.5430   28.2510 N   0  0  0  0  0  0  0  0  0  0  0  0
   30.2910   44.9200   29.2160 N   0  0  0  0  0  0  0  0  0  0  0  0
   25.3490   42.8080   22.4750 N   0  0  0  0  0  0  0  0  0  0  0  0
   23.8140   42.3950   19.1700 N   0  0  0  0  0  0  0  0  0  0  0  0
   25.6240   40.8270   23.5560 O   0  0  0  0  0  0  0  0  0  0  0  0
   24.3540   45.1260   27.1130 O   0  0  0  0  0  0  0  0  0  0  0  0
   32.2923   45.3461   33.8994 H   0  0  0  0  0  0  0  0  0  0  0  0
   30.0703   44.2716   33.5290 H   0  0  0  0  0  0  0  0  0  0  0  0
   28.1402   43.5750   31.2975 H   0  0  0  0  0  0  0  0  0  0  0  0
   27.8746   41.8286   24.9710 H   0  0  0  0  0  0  0  0  0  0  0  0
   23.9977   43.7293   24.8104 H   0  0  0  0  0  0  0  0  0  0  0  0
   33.5236   46.2033   31.9803 H   0  0  0  0  0  0  0  0  0  0  0  0
   24.5310   45.9971   21.8204 H   0  0  0  0  0  0  0  0  0  0  0  0
   23.4397   44.7329   22.4802 H   0  0  0  0  0  0  0  0  0  0  0  0
   25.0448   44.5431   19.8893 H   0  0  0  0  0  0  0  0  0  0  0  0
   23.2820   44.8670   20.0180 H   0  0  0  0  0  0  0  0  0  0  0  0
   26.4398   44.5048   21.9784 H   0  0  0  0  0  0  0  0  0  0  0  0
   25.5985   44.5535   23.5692 H   0  0  0  0  0  0  0  0  0  0  0  0
   24.7976   41.1311   21.3794 H   0  0  0  0  0  0  0  0  0  0  0  0
   25.9218   42.2705   20.5544 H   0  0  0  0  0  0  0  0  0  0  0  0
   22.9522   42.6877   21.1363 H   0  0  0  0  0  0  0  0  0  0  0  0
   32.5946   44.4180   28.6217 H   0  0  0  0  0  0  0  0  0  0  0  0
   31.9514   43.7366   27.0892 H   0  0  0  0  0  0  0  0  0  0  0  0
   32.7605   45.3403   27.0892 H   0  0  0  0  0  0  0  0  0  0  0  0
   26.5795   45.1716   30.2003 H   0  0  0  0  0  0  0  0  0  0  0  0
   26.8010   46.4851   28.9951 H   0  0  0  0  0  0  0  0  0  0  0  0
   25.2915   45.5114   28.9951 H   0  0  0  0  0  0  0  0  0  0  0  0
   23.1131   46.7632   26.9111 H   0  0  0  0  0  0  0  0  0  0  0  0
   24.3782   46.5810   25.6489 H   0  0  0  0  0  0  0  0  0  0  0  0
   22.9466   45.4960   25.6489 H   0  0  0  0  0  0  0  0  0  0  0  0
   30.9172   46.4222   27.9074 H   0  0  0  0  0  0  0  0  0  0  0  0
   30.0681   45.0385   27.1421 H   0  0  0  0  0  0  0  0  0  0  0  0
   23.6904   41.3724   19.1685 H   0  0  0  0  0  0  0  0  0  0  0  0
   23.0204   42.8375   18.6850 H   0  0  0  0  0  0  0  0  0  0  0  0
 30 20  1  0
 17 20  1  0
 17 16  1  0
 20 19  1  0
 19 29  1  0
 16 18  1  0
 29 18  1  0
 29 15  1  0
 31 15  2  0
 15  8  1  0
  8  5  1  0
  8  4  2  0
  5 11  2  0
  4  9  1  0
 23 32  1  0
 11 10  1  0
 11 32  1  0
  9 10  2  0
  9 26  1  0
 10 27  1  0
 26 14  2  0
 21 24  1  0
 24 28  1  0
 27 14  1  0
 27 22  1  0
 14 12  1  0
 28 12  1  0
 28 13  1  0
 12  3  2  0
 13 25  2  0
 13  7  1  0
 25  6  1  0
  3  7  1  0
  7  2  2  0
  6  1  2  0
  2  1  1  0
  1 33  1  0
  2 34  1  0
  3 35  1  0
  4 36  1  0
  5 37  1  0
  6 38  1  0
 16 39  1  0
 16 40  1  0
 17 41  1  0
 17 42  1  0
 18 43  1  0
 18 44  1  0
 19 45  1  0
 19 46  1  0
 20 47  1  0
 21 48  1  0
 21 49  1  0
 21 50  1  0
 22 51  1  0
 22 52  1  0
 22 53  1  0
 23 54  1  0
 23 55  1  0
 23 56  1  0
 24 57  1  0
 24 58  1  0
 30 59  1  0
 30 60  1  0
A    1
C8
A    2
C7
A    3
C5
A    4
C15
A    5
C17
A    6
C9
A    7
C6
A    8
C16
A    9
C14
A   10
C21
A   11
C18
A   12
C4
A   13
C11
A   14
C12
A   15
C24
A   16
C28
A   17
C29
A   18
C27
A   19
C32
A   20
C30
A   21
C1
A   22
C23
A   23
C20
A   24
C2
A   25
N10
A   26
N13
A   27
N22
A   28
N3
A   29
N26
A   30
N31
A   31
O25
A   32
O19
M  END
