4X8T_3Z8_H_301
     RDKit          3D

 20 21  0  0  0  0  0  0  0  0999 V2000
   10.9770   31.5150   29.4090 C   0  0  0  0  0  0  0  0  0  0  0  0
    9.8170   34.1060   30.2030 C   0  0  0  0  0  0  0  0  0  0  0  0
    9.9990   33.7720   28.7790 C   0  0  0  0  0  0  0  0  0  0  0  0
   10.0340   33.1020   31.0740 N   0  0  0  0  0  0  0  0  0  0  0  0
   10.5160   32.5240   28.3850 C   0  0  0  0  0  0  0  0  0  0  0  0
    9.5190   34.6630   27.8090 C   0  0  0  0  0  0  0  0  0  0  0  0
    9.4250   35.2050   30.5820 O   0  0  0  0  0  0  0  0  0  0  0  0
   10.5570   32.2150   27.0280 C   0  0  0  0  0  0  0  0  0  0  0  0
    9.5370   34.2940   26.4790 C   0  0  0  0  0  0  0  0  0  0  0  0
   10.2620   31.7040   30.7260 C   0  0  0  0  0  0  0  0  0  0  0  0
   10.0870   33.0990   26.0730 C   0  0  0  0  0  0  0  0  0  0  0  0
    8.7010   35.2870   25.3140 Cl  0  0  0  0  0  0  0  0  0  0  0  0
   10.7717   30.5023   29.0319 H   0  0  0  0  0  0  0  0  0  0  0  0
   12.0550   31.6570   29.5756 H   0  0  0  0  0  0  0  0  0  0  0  0
   10.0394   33.3429   32.0754 H   0  0  0  0  0  0  0  0  0  0  0  0
    9.1310   35.6487   28.1055 H   0  0  0  0  0  0  0  0  0  0  0  0
   10.9718   31.2476   26.7084 H   0  0  0  0  0  0  0  0  0  0  0  0
    9.2874   31.1972   30.6679 H   0  0  0  0  0  0  0  0  0  0  0  0
   10.9098   31.2798   31.5073 H   0  0  0  0  0  0  0  0  0  0  0  0
   10.1519   32.8503   25.0035 H   0  0  0  0  0  0  0  0  0  0  0  0
 12  9  1  0
 11  9  2  0
 11  8  1  0
  9  6  1  0
  8  5  2  0
  6  3  2  0
  5  3  1  0
  5  1  1  0
  3  2  1  0
  1 10  1  0
  2  7  2  0
  2  4  1  0
 10  4  1  0
  1 13  1  0
  1 14  1  0
  4 15  1  0
  6 16  1  0
  8 17  1  0
 10 18  1  0
 10 19  1  0
 11 20  1  0
A    1
C12
A    2
C1
A    3
C2
A    4
N3
A    5
C4
A    6
C5
A    7
O6
A    8
C7
A    9
C8
A   10
C9
A   11
C10
A   12
CL
M  END
