4X8U_3ZB_H_301
     RDKit          3D

 19 20  0  0  0  0  0  0  0  0999 V2000
    9.5280   34.7820   29.1230 C   0  0  0  0  0  0  0  0  0  0  0  0
    9.4010   34.4110   27.7720 C   0  0  0  0  0  0  0  0  0  0  0  0
    9.1780   36.1130   29.2330 N   0  0  0  0  0  0  0  0  0  0  0  0
    9.8970   33.8630   30.1000 C   0  0  0  0  0  0  0  0  0  0  0  0
    8.9740   35.5840   27.0640 C   0  0  0  0  0  0  0  0  0  0  0  0
    9.6220   33.0850   27.4180 C   0  0  0  0  0  0  0  0  0  0  0  0
    8.8310   36.5880   27.9840 C   0  0  0  0  0  0  0  0  0  0  0  0
   10.1030   32.5360   29.7280 C   0  0  0  0  0  0  0  0  0  0  0  0
    9.9520   32.1670   28.3990 C   0  0  0  0  0  0  0  0  0  0  0  0
    8.4150   38.0030   27.8630 C   0  0  0  0  0  0  0  0  0  0  0  0
   10.1280   30.4900   27.9580 Cl  0  0  0  0  0  0  0  0  0  0  0  0
    8.2460   38.4230   26.6330 O   0  0  0  0  0  0  0  0  0  0  0  0
    8.1910   38.6930   28.8590 O   0  0  0  0  0  0  0  0  0  0  0  0
    9.1761   36.6619   30.1045 H   0  0  0  0  0  0  0  0  0  0  0  0
   10.0238   34.1779   31.1463 H   0  0  0  0  0  0  0  0  0  0  0  0
    8.7946   35.6621   25.9815 H   0  0  0  0  0  0  0  0  0  0  0  0
    9.5353   32.7687   26.3680 H   0  0  0  0  0  0  0  0  0  0  0  0
   10.3833   31.7863   30.4826 H   0  0  0  0  0  0  0  0  0  0  0  0
    7.8818   39.3281   26.4646 H   0  0  0  0  0  0  0  0  0  0  0  0
 12 10  1  0
  5  2  1  0
  5  7  2  0
  6  2  1  0
  6  9  2  0
  2  1  2  0
 10  7  1  0
 10 13  2  0
 11  9  1  0
  7  3  1  0
  9  8  1  0
  1  3  1  0
  1  4  1  0
  8  4  2  0
  3 14  1  0
  4 15  1  0
  5 16  1  0
  6 17  1  0
  8 18  1  0
 12 19  1  0
A    1
C1
A    2
C2
A    3
N3
A    4
C4
A    5
C5
A    6
C6
A    7
C7
A    8
C8
A    9
C9
A   10
C10
A   11
CL
A   12
O12
A   13
O13
M  END
