4XAD_3ZW_A_207
     RDKit          3D

 51 52  0  0  0  0  0  0  0  0999 V2000
   70.1780   53.5990   42.3740 C   0  0  0  0  0  0  0  0  0  0  0  0
   70.2110   53.3740   40.8630 C   0  0  0  0  0  0  0  0  0  0  0  0
   68.7970   53.4910   40.2790 C   0  0  0  0  0  0  0  0  0  0  0  0
   74.5130   55.4080   43.2970 C   0  0  0  0  0  0  0  0  0  0  0  0
   75.9730   55.0830   43.5940 C   0  0  0  0  0  0  0  0  0  0  0  0
   73.8710   54.4850   42.5660 N   0  0  0  0  0  0  0  0  0  0  0  0
   71.5950   53.6350   42.9310 C   0  0  0  0  0  0  0  0  0  0  0  0
   74.0070   56.4390   43.7250 O   0  0  0  0  0  0  0  0  0  0  0  0
   72.4690   54.6140   42.1450 C   0  0  0  0  0  0  0  0  0  0  0  0
   71.5370   54.0510   44.3080 O   0  0  0  0  0  0  0  0  0  0  0  0
   72.4110   54.3200   40.6470 C   0  0  0  0  0  0  0  0  0  0  0  0
   72.9740   53.0350   40.3630 O   0  0  0  0  0  0  0  0  0  0  0  0
   71.0350   54.3610   40.2120 O   0  0  0  0  0  0  0  0  0  0  0  0
   68.8320   53.2280   38.8730 O   0  0  0  0  0  0  0  0  0  0  0  0
   69.4650   52.4990   42.9700 O   0  0  0  0  0  0  0  0  0  0  0  0
   68.3050   52.8120   43.7310 C   0  0  0  0  0  0  0  0  0  0  0  0
   68.7440   52.9820   45.0960 O   0  0  0  0  0  0  0  0  0  0  0  0
   67.4470   51.5770   43.8200 C   0  0  0  0  0  0  0  0  0  0  0  0
   66.6130   51.4490   42.6420 O   0  0  0  0  0  0  0  0  0  0  0  0
   66.6280   51.9530   45.0150 C   0  0  0  0  0  0  0  0  0  0  0  0
   65.9380   50.8090   45.5720 O   0  0  0  0  0  0  0  0  0  0  0  0
   67.7330   52.4030   45.9530 C   0  0  0  0  0  0  0  0  0  0  0  0
   67.1950   53.4680   46.9210 C   0  0  0  0  0  0  0  0  0  0  0  0
   66.7470   54.6080   46.1850 O   0  0  0  0  0  0  0  0  0  0  0  0
   68.3080   53.9250   47.8630 C   0  0  0  0  0  0  0  0  0  0  0  0
   68.5250   52.9380   48.8700 O   0  0  0  0  0  0  0  0  0  0  0  0
   69.6852   54.5562   42.5997 H   0  0  0  0  0  0  0  0  0  0  0  0
   70.6221   52.3685   40.6897 H   0  0  0  0  0  0  0  0  0  0  0  0
   68.4133   54.5074   40.4513 H   0  0  0  0  0  0  0  0  0  0  0  0
   68.1387   52.7592   40.7699 H   0  0  0  0  0  0  0  0  0  0  0  0
   76.1269   55.0487   44.6826 H   0  0  0  0  0  0  0  0  0  0  0  0
   76.2275   54.1062   43.1568 H   0  0  0  0  0  0  0  0  0  0  0  0
   76.6178   55.8596   43.1568 H   0  0  0  0  0  0  0  0  0  0  0  0
   74.3885   53.6401   42.2845 H   0  0  0  0  0  0  0  0  0  0  0  0
   72.0376   52.6316   42.8457 H   0  0  0  0  0  0  0  0  0  0  0  0
   72.0894   55.6272   42.3435 H   0  0  0  0  0  0  0  0  0  0  0  0
   71.6470   53.2621   44.8960 H   0  0  0  0  0  0  0  0  0  0  0  0
   72.9963   55.0793   40.1076 H   0  0  0  0  0  0  0  0  0  0  0  0
   73.1781   52.5691   41.2124 H   0  0  0  0  0  0  0  0  0  0  0  0
   68.9611   52.2582   38.7218 H   0  0  0  0  0  0  0  0  0  0  0  0
   67.7886   53.6776   43.2904 H   0  0  0  0  0  0  0  0  0  0  0  0
   67.9855   50.6205   43.8917 H   0  0  0  0  0  0  0  0  0  0  0  0
   65.6730   51.3047   42.9172 H   0  0  0  0  0  0  0  0  0  0  0  0
   65.8374   52.6906   44.8126 H   0  0  0  0  0  0  0  0  0  0  0  0
   65.9662   50.8558   46.5605 H   0  0  0  0  0  0  0  0  0  0  0  0
   68.1279   51.5731   46.5575 H   0  0  0  0  0  0  0  0  0  0  0  0
   66.3649   53.0300   47.4946 H   0  0  0  0  0  0  0  0  0  0  0  0
   66.4677   55.3187   46.8151 H   0  0  0  0  0  0  0  0  0  0  0  0
   69.2350   54.0710   47.2891 H   0  0  0  0  0  0  0  0  0  0  0  0
   68.0141   54.8717   48.3399 H   0  0  0  0  0  0  0  0  0  0  0  0
   68.4337   53.3532   49.7641 H   0  0  0  0  0  0  0  0  0  0  0  0
 14  3  1  0
 13 11  1  0
 13  2  1  0
  3  2  1  0
 12 11  1  0
 11  9  1  0
  2  1  1  0
  9  6  1  0
  9  7  1  0
  1  7  1  0
  1 15  1  0
  6  4  1  0
 19 18  1  0
  7 10  1  0
 15 16  1  0
  4  5  1  0
  4  8  2  0
 16 18  1  0
 16 17  1  0
 18 20  1  0
 20 21  1  0
 20 22  1  0
 17 22  1  0
 22 23  1  0
 24 23  1  0
 23 25  1  0
 25 26  1  0
  1 27  1  0
  2 28  1  0
  3 29  1  0
  3 30  1  0
  5 31  1  0
  5 32  1  0
  5 33  1  0
  6 34  1  0
  7 35  1  0
  9 36  1  0
 10 37  1  0
 11 38  1  0
 12 39  1  0
 14 40  1  0
 16 41  1  0
 18 42  1  0
 19 43  1  0
 20 44  1  0
 21 45  1  0
 22 46  1  0
 23 47  1  0
 24 48  1  0
 25 49  1  0
 25 50  1  0
 26 51  1  0
A    1
C4
A    2
C5
A    3
C6
A    4
C7
A    5
C8
A    6
N2
A    7
C3
A    8
O7
A    9
C2
A   10
O3
A   11
C1
A   12
O1
A   13
O5
A   14
O6
A   15
O4
A   16
CAW
A   17
OAN
A   18
CAT
A   19
OAG
A   20
CAU
A   21
OAH
A   22
CAY
A   23
CAQ
A   24
OAE
A   25
CAJ
A   26
OAC
M  END
