4XAQ_40F_A_601
     RDKit          3D

 24 25  0  0  0  0  0  0  0  0999 V2000
   -5.5750   35.7600   26.9370 O   0  0  0  0  0  0  0  0  0  0  0  0
   -8.1450   37.0440   27.8960 C   0  0  0  0  0  0  0  0  0  0  0  0
   -9.2460   32.3630   29.3640 O   0  0  0  0  0  0  0  0  0  0  0  0
   -7.7210   36.5030   29.3140 C   0  0  0  0  0  0  0  0  0  0  0  0
   -8.0470   35.8370   26.9130 C   0  0  0  0  0  0  0  0  0  0  0  0
   -7.9940   35.0120   29.2480 C   0  0  0  0  0  0  0  0  0  0  0  0
  -10.0660   33.3980   29.0580 C   0  0  0  0  0  0  0  0  0  0  0  0
   -9.3880   34.6630   28.7190 C   0  0  0  0  0  0  0  0  0  0  0  0
   -8.2120   34.6260   27.7880 C   0  0  0  0  0  0  0  0  0  0  0  0
  -11.2780   33.2560   29.0670 O   0  0  0  0  0  0  0  0  0  0  0  0
   -9.0700   35.8490   25.8450 N   0  0  0  0  0  0  0  0  0  0  0  0
   -6.6190   35.7900   26.3010 C   0  0  0  0  0  0  0  0  0  0  0  0
   -6.5010   35.8060   24.9570 O   0  0  0  0  0  0  0  0  0  0  0  0
   -5.5981   35.7607   27.9267 H   0  0  0  0  0  0  0  0  0  0  0  0
   -7.4661   37.8490   27.5780 H   0  0  0  0  0  0  0  0  0  0  0  0
   -9.1640   37.4578   27.9169 H   0  0  0  0  0  0  0  0  0  0  0  0
   -9.0667   32.1367   30.3110 H   0  0  0  0  0  0  0  0  0  0  0  0
   -6.6541   36.6952   29.5006 H   0  0  0  0  0  0  0  0  0  0  0  0
   -8.2708   36.9935   30.1308 H   0  0  0  0  0  0  0  0  0  0  0  0
   -7.3982   34.6696   30.1069 H   0  0  0  0  0  0  0  0  0  0  0  0
  -10.3593   35.1780   28.7546 H   0  0  0  0  0  0  0  0  0  0  0  0
   -7.8384   33.8641   27.0880 H   0  0  0  0  0  0  0  0  0  0  0  0
  -10.0087   35.8600   26.2688 H   0  0  0  0  0  0  0  0  0  0  0  0
   -8.9470   36.6886   25.2612 H   0  0  0  0  0  0  0  0  0  0  0  0
 13 12  2  0
 11  5  1  0
 12  5  1  0
 12  1  1  0
  5  9  1  0
  5  2  1  0
  9  8  1  0
  9  6  1  0
  2  4  1  0
  8  7  1  0
  8  6  1  0
  7 10  2  0
  7  3  1  0
  6  4  1  0
  1 14  1  0
  2 15  1  0
  2 16  1  0
  3 17  1  0
  4 18  1  0
  4 19  1  0
  6 20  1  0
  8 21  1  0
  9 22  1  0
 11 23  1  0
 11 24  1  0
A    1
O1
A    2
C7
A    3
O2
A    4
C6
A    5
C1
A    6
C5
A    7
C4
A    8
C3
A    9
C2
A   10
O3
A   11
N
A   12
C
A   13
O
M  END
