4XAS_40H_A_601
     RDKit          3D

 28 30  0  0  0  0  0  0  0  0999 V2000
  -24.2620   28.7320  -26.8920 O   0  0  0  0  0  0  0  0  0  0  0  0
  -29.1540   32.4510  -27.9990 C   0  0  0  0  0  0  0  0  0  0  0  0
  -30.0500   30.7770  -25.0910 O   0  0  0  0  0  0  0  0  0  0  0  0
  -27.7360   32.8450  -28.3750 C   0  0  0  0  0  0  0  0  0  0  0  0
  -27.6890   31.2160  -24.9170 C   0  0  0  0  0  0  0  0  0  0  0  0
  -27.9680   31.9400  -27.2220 C   0  0  0  0  0  0  0  0  0  0  0  0
  -27.5610   30.4760  -27.2860 C   0  0  0  0  0  0  0  0  0  0  0  0
  -26.1780   30.1220  -26.7540 C   0  0  0  0  0  0  0  0  0  0  0  0
  -27.4090   30.0110  -25.8460 C   0  0  0  0  0  0  0  0  0  0  0  0
  -29.2740   31.2220  -23.0980 O   0  0  0  0  0  0  0  0  0  0  0  0
  -29.0430   31.0780  -24.2600 C   0  0  0  0  0  0  0  0  0  0  0  0
  -26.6630   31.3450  -23.8670 N   0  0  0  0  0  0  0  0  0  0  0  0
  -25.5930   28.7970  -27.0430 C   0  0  0  0  0  0  0  0  0  0  0  0
  -26.2220   27.7590  -27.3630 O   0  0  0  0  0  0  0  0  0  0  0  0
  -27.7490   32.4610  -25.8430 C   0  0  0  0  0  0  0  0  0  0  0  0
  -23.8672   28.7127  -25.9844 H   0  0  0  0  0  0  0  0  0  0  0  0
  -29.8332   33.1904  -27.5496 H   0  0  0  0  0  0  0  0  0  0  0  0
  -30.0065   31.9930  -28.5219 H   0  0  0  0  0  0  0  0  0  0  0  0
  -27.2836   32.4537  -29.2982 H   0  0  0  0  0  0  0  0  0  0  0  0
  -27.2076   33.7989  -28.5193 H   0  0  0  0  0  0  0  0  0  0  0  0
  -28.0740   30.1818  -28.2135 H   0  0  0  0  0  0  0  0  0  0  0  0
  -25.2191   30.6598  -26.7884 H   0  0  0  0  0  0  0  0  0  0  0  0
  -27.7726   29.2047  -25.1920 H   0  0  0  0  0  0  0  0  0  0  0  0
  -28.6614   30.8401  -22.4205 H   0  0  0  0  0  0  0  0  0  0  0  0
  -27.1105   31.2887  -22.9410 H   0  0  0  0  0  0  0  0  0  0  0  0
  -25.9758   30.5838  -23.9631 H   0  0  0  0  0  0  0  0  0  0  0  0
  -26.8034   33.0207  -25.7920 H   0  0  0  0  0  0  0  0  0  0  0  0
  -28.5528   33.1484  -25.5407 H   0  0  0  0  0  0  0  0  0  0  0  0
  4  2  1  0
  4  6  1  0
  2  6  1  0
 14 13  2  0
  7  6  1  0
  7  8  1  0
  7  9  1  0
  6 15  1  0
 13  1  1  0
 13  8  1  0
  8  9  1  0
  9  5  1  0
 15  5  1  0
  3 11  2  0
  5 11  1  0
  5 12  1  0
 11 10  1  0
  1 16  1  0
  2 17  1  0
  2 18  1  0
  4 19  1  0
  4 20  1  0
  7 21  1  0
  8 22  1  0
  9 23  1  0
 10 24  1  0
 12 25  1  0
 12 26  1  0
 15 27  1  0
 15 28  1  0
A    1
O1
A    2
C7
A    3
O2
A    4
C6
A    5
C1
A    6
C5
A    7
C4
A    8
C3
A    9
C2
A   10
O3
A   11
C9
A   12
N
A   13
C8
A   14
O
A   15
C
M  END
