1BD0_IN5_A_389
     RDKit          3D

 40 40  0  0  0  0  0  0  0  0999 V2000
   22.0110   10.4550   68.6300 C   0  0  0  0  0  0  0  0  0  0  0  0
   24.4090   10.6550   69.0910 C   0  0  0  0  0  0  0  0  0  0  0  0
   24.3510   12.0370   68.8320 C   0  0  0  0  0  0  0  0  0  0  0  0
   18.2590   13.0270   66.0390 O   0  0  0  0  0  0  0  0  0  0  0  0
   19.9910   14.4190   64.6920 O   0  0  0  0  0  0  0  0  0  0  0  0
   20.5900   12.3820   67.9800 C   0  0  0  0  0  0  0  0  0  0  0  0
   23.0230   14.0860   68.1890 C   0  0  0  0  0  0  0  0  0  0  0  0
   24.1760   16.0850   67.4540 C   0  0  0  0  0  0  0  0  0  0  0  0
   23.2130   17.1490   68.0300 C   0  0  0  0  0  0  0  0  0  0  0  0
   23.2450    9.8780   68.9890 N   0  0  0  0  0  0  0  0  0  0  0  0
   23.1130   12.6330   68.4690 C   0  0  0  0  0  0  0  0  0  0  0  0
   21.9350   11.8260   68.3710 C   0  0  0  0  0  0  0  0  0  0  0  0
   25.4990   12.8120   68.9280 O   0  0  0  0  0  0  0  0  0  0  0  0
   25.7350   10.0470   69.4680 C   0  0  0  0  0  0  0  0  0  0  0  0
   20.7190   12.9560   66.6750 O   0  0  0  0  0  0  0  0  0  0  0  0
   24.1090   14.8780   68.2310 N   0  0  0  0  0  0  0  0  0  0  0  0
   19.5940   13.8840   66.1360 P   0  0  0  0  0  0  0  0  0  0  0  0
   19.3890   15.1350   67.0950 O   0  0  0  0  0  0  0  0  0  0  0  0
   25.7820   16.8880   67.7780 P   0  0  0  0  0  0  0  0  0  0  0  0
   25.9330   18.3420   67.2930 O   0  0  0  0  0  0  0  0  0  0  0  0
   26.7320   15.8420   67.1480 O   0  0  0  0  0  0  0  0  0  0  0  0
   26.0950   16.7400   69.3110 O   0  0  0  0  0  0  0  0  0  0  0  0
   21.1102    9.8283   68.5538 H   0  0  0  0  0  0  0  0  0  0  0  0
   20.5784   15.2106   64.7834 H   0  0  0  0  0  0  0  0  0  0  0  0
   19.8420   11.5756   67.9623 H   0  0  0  0  0  0  0  0  0  0  0  0
   20.2619   13.1420   68.7044 H   0  0  0  0  0  0  0  0  0  0  0  0
   22.6082   14.1815   67.1747 H   0  0  0  0  0  0  0  0  0  0  0  0
   22.4287   14.4542   69.0383 H   0  0  0  0  0  0  0  0  0  0  0  0
   23.9739   15.8087   66.4086 H   0  0  0  0  0  0  0  0  0  0  0  0
   23.2439   17.1149   69.1290 H   0  0  0  0  0  0  0  0  0  0  0  0
   23.5209   18.1472   67.6853 H   0  0  0  0  0  0  0  0  0  0  0  0
   22.1891   16.9418   67.6853 H   0  0  0  0  0  0  0  0  0  0  0  0
   25.8591   13.0551   69.8175 H   0  0  0  0  0  0  0  0  0  0  0  0
   25.8218   10.0072   70.5638 H   0  0  0  0  0  0  0  0  0  0  0  0
   25.8013    9.0285   69.0577 H   0  0  0  0  0  0  0  0  0  0  0  0
   26.5500   10.6614   69.0577 H   0  0  0  0  0  0  0  0  0  0  0  0
   24.2304   15.1563   69.2152 H   0  0  0  0  0  0  0  0  0  0  0  0
   19.4375   14.8390   68.0385 H   0  0  0  0  0  0  0  0  0  0  0  0
   27.1902   15.3375   67.8661 H   0  0  0  0  0  0  0  0  0  0  0  0
   25.3376   17.0981   69.8385 H   0  0  0  0  0  0  0  0  0  0  0  0
  1 10  2  0
  1 12  1  0
  2  3  2  0
  2 10  1  0
  2 14  1  0
  3 11  1  0
  3 13  1  0
  4 17  2  0
  5 17  1  0
  6 12  1  0
  6 15  1  0
  7 11  1  0
  7 16  1  0
  8  9  1  0
  8 16  1  0
  8 19  1  0
 11 12  2  0
 15 17  1  0
 17 18  1  0
 19 20  2  0
 19 21  1  0
 19 22  1  0
  1 23  1  0
  5 24  1  0
  6 25  1  0
  6 26  1  0
  7 27  1  0
  7 28  1  0
  8 29  1  0
  9 30  1  0
  9 31  1  0
  9 32  1  0
 13 33  1  0
 14 34  1  0
 14 35  1  0
 14 36  1  0
 16 37  1  0
 18 38  1  0
 21 39  1  0
 22 40  1  0
A    1
C1
A    2
C2
A    3
C3
A    4
O4
A    5
O5
A    6
C7
A    7
C8
A    8
C9
A    9
C10
A   10
N1
A   11
C4
A   12
C5
A   13
O1
A   14
C6
A   15
O2
A   16
N2
A   17
P1
A   18
O3
A   19
P2
A   20
O6
A   21
O7
A   22
O8
M  END
