4XDG_3ZU_A_303
     RDKit          3D

 32 34  0  0  0  0  0  0  0  0999 V2000
   -1.2050    4.7080   17.5780 C   0  0  0  0  0  0  0  0  0  0  0  0
   -2.0450    5.7530   17.2320 O   0  0  0  0  0  0  0  0  0  0  0  0
   -3.2510    4.2010   15.9040 C   0  0  0  0  0  0  0  0  0  0  0  0
   -4.3310    3.8680   15.0640 C   0  0  0  0  0  0  0  0  0  0  0  0
   -5.2100    4.9030   14.7600 C   0  0  0  0  0  0  0  0  0  0  0  0
   -7.1440    6.0140   14.1740 C   0  0  0  0  0  0  0  0  0  0  0  0
   -6.2440    6.9960   14.8940 C   0  0  0  0  0  0  0  0  0  0  0  0
  -11.3240    6.6360   13.2960 C   0  0  0  0  0  0  0  0  0  0  0  0
   -5.0370    6.2200   15.2400 C   0  0  0  0  0  0  0  0  0  0  0  0
   -3.9550    6.5760   16.0130 C   0  0  0  0  0  0  0  0  0  0  0  0
   -3.0800    5.5400   16.3660 C   0  0  0  0  0  0  0  0  0  0  0  0
   -6.4930    4.8180   14.0680 N   0  0  0  0  0  0  0  0  0  0  0  0
   -6.8030    3.7930   13.4680 O   0  0  0  0  0  0  0  0  0  0  0  0
   -6.4050    8.1710   15.1900 O   0  0  0  0  0  0  0  0  0  0  0  0
  -12.6650    6.8760   13.0420 N   0  0  0  0  0  0  0  0  0  0  0  0
  -10.8070    5.3080   13.3100 C   0  0  0  0  0  0  0  0  0  0  0  0
   -9.4380    5.1170   13.5630 C   0  0  0  0  0  0  0  0  0  0  0  0
   -8.5580    6.2220   13.8120 C   0  0  0  0  0  0  0  0  0  0  0  0
   -9.0930    7.5250   13.7800 C   0  0  0  0  0  0  0  0  0  0  0  0
  -10.4520    7.7270   13.5300 C   0  0  0  0  0  0  0  0  0  0  0  0
   -1.1449    4.6333   18.6738 H   0  0  0  0  0  0  0  0  0  0  0  0
   -1.6014    3.7676   17.1675 H   0  0  0  0  0  0  0  0  0  0  0  0
   -0.2014    4.8930   17.1675 H   0  0  0  0  0  0  0  0  0  0  0  0
   -2.5341    3.4233   16.2061 H   0  0  0  0  0  0  0  0  0  0  0  0
   -4.4715    2.8501   14.6714 H   0  0  0  0  0  0  0  0  0  0  0  0
   -3.7869    7.6143   16.3351 H   0  0  0  0  0  0  0  0  0  0  0  0
  -13.3243    6.9940   13.8245 H   0  0  0  0  0  0  0  0  0  0  0  0
  -13.0024    6.9364   12.0707 H   0  0  0  0  0  0  0  0  0  0  0  0
  -11.4677    4.4480   13.1261 H   0  0  0  0  0  0  0  0  0  0  0  0
   -9.0312    4.0950   13.5703 H   0  0  0  0  0  0  0  0  0  0  0  0
   -8.4354    8.3896   13.9532 H   0  0  0  0  0  0  0  0  0  0  0  0
  -10.8521    8.7515   13.5146 H   0  0  0  0  0  0  0  0  0  0  0  0
 15  8  1  0
  8 16  2  0
  8 20  1  0
 16 17  1  0
 13 12  1  0
 20 19  2  0
 17 18  2  0
 19 18  1  0
 18  6  1  0
 12  6  2  0
 12  5  1  0
  6  7  1  0
  5  4  1  0
  5  9  2  0
  7 14  2  0
  7  9  1  0
  4  3  2  0
  9 10  1  0
  3 11  1  0
 10 11  2  0
 11  2  1  0
  2  1  1  0
  1 21  1  0
  1 22  1  0
  1 23  1  0
  3 24  1  0
  4 25  1  0
 10 26  1  0
 15 27  1  0
 15 28  1  0
 16 29  1  0
 17 30  1  0
 19 31  1  0
 20 32  1  0
M  CHG  2  12   1  13  -1
A    1
C1
A    2
O1
A    3
C2
A    4
C3
A    5
C4
A    6
C5
A    7
C6
A    8
C7
A    9
C8
A   10
C9
A   11
C10
A   12
N1
A   13
O2
A   14
O3
A   15
N2
A   16
C11
A   17
C12
A   18
C13
A   19
C14
A   20
C15
M  END
