4XDL_40D_A_605
     RDKit          3D

 16 16  0  0  0  0  0  0  0  0999 V2000
   -8.4770  140.5620   10.4310 F   0  0  0  0  0  0  0  0  0  0  0  0
   -8.1170  139.9840   11.5640 C   0  0  0  0  0  0  0  0  0  0  0  0
   -8.5630  138.7280   11.4910 F   0  0  0  0  0  0  0  0  0  0  0  0
   -6.8020  139.9150   11.5100 F   0  0  0  0  0  0  0  0  0  0  0  0
   -8.6070  140.7040   12.7770 C   0  0  0  0  0  0  0  0  0  0  0  0
   -8.3940  142.0690   12.9340 C   0  0  0  0  0  0  0  0  0  0  0  0
   -8.8630  142.7460   14.0510 C   0  0  0  0  0  0  0  0  0  0  0  0
   -9.2970  140.0110   13.7650 C   0  0  0  0  0  0  0  0  0  0  0  0
   -9.7610  140.6750   14.8830 C   0  0  0  0  0  0  0  0  0  0  0  0
  -10.6920  139.6810   16.2040 Br  0  0  0  0  0  0  0  0  0  0  0  0
   -9.5530  142.0530   15.0430 C   0  0  0  0  0  0  0  0  0  0  0  0
  -10.0470  142.6560   16.1760 O   0  0  0  0  0  0  0  0  0  0  0  0
   -7.8437  142.6224   12.1587 H   0  0  0  0  0  0  0  0  0  0  0  0
   -8.6902  143.8276   14.1528 H   0  0  0  0  0  0  0  0  0  0  0  0
   -9.4738  138.9308   13.6557 H   0  0  0  0  0  0  0  0  0  0  0  0
   -9.7772  142.3266   17.0698 H   0  0  0  0  0  0  0  0  0  0  0  0
  1  2  1  0
  3  2  1  0
  4  2  1  0
  2  5  1  0
  5  6  2  0
  5  8  1  0
  6  7  1  0
  8  9  2  0
  7 11  2  0
  9 11  1  0
  9 10  1  0
 11 12  1  0
  6 13  1  0
  7 14  1  0
  8 15  1  0
 12 16  1  0
A    1
F2
A    2
C16
A    3
F
A    4
F1
A    5
C13
A    6
C12
A    7
C11
A    8
C14
A    9
C15
A   10
BR
A   11
C10
A   12
O
M  END
