4XEW_40N_A_502
     RDKit          3D

 31 34  0  0  0  0  0  0  0  0999 V2000
  -11.4010   27.1310  -22.0050 F   0  0  0  0  0  0  0  0  0  0  0  0
  -12.5730   28.0740  -22.1450 C   0  0  0  0  0  0  0  0  0  0  0  0
  -13.2320   28.1750  -23.3710 C   0  0  0  0  0  0  0  0  0  0  0  0
  -14.3150   29.0380  -23.5140 C   0  0  0  0  0  0  0  0  0  0  0  0
  -14.7430   29.8050  -22.4310 C   0  0  0  0  0  0  0  0  0  0  0  0
  -14.0840   29.7280  -21.1990 C   0  0  0  0  0  0  0  0  0  0  0  0
  -12.9930   28.8590  -21.0590 C   0  0  0  0  0  0  0  0  0  0  0  0
  -12.3230   28.7500  -19.8300 C   0  0  0  0  0  0  0  0  0  0  0  0
  -13.0470   28.6610  -18.6370 C   0  0  0  0  0  0  0  0  0  0  0  0
  -12.3890   28.5580  -17.4140 C   0  0  0  0  0  0  0  0  0  0  0  0
  -13.0940   28.4850  -16.3990 O   0  0  0  0  0  0  0  0  0  0  0  0
  -10.9690   28.5330  -17.3730 C   0  0  0  0  0  0  0  0  0  0  0  0
  -10.2430   28.4180  -16.1860 C   0  0  0  0  0  0  0  0  0  0  0  0
   -8.8990   28.4040  -16.2190 C   0  0  0  0  0  0  0  0  0  0  0  0
   -8.0340   28.2970  -15.1820 O   0  0  0  0  0  0  0  0  0  0  0  0
   -6.7700   27.9410  -15.7980 C   0  0  0  0  0  0  0  0  0  0  0  0
   -6.8610   28.4570  -17.1260 O   0  0  0  0  0  0  0  0  0  0  0  0
   -8.2050   28.5010  -17.3680 C   0  0  0  0  0  0  0  0  0  0  0  0
   -8.8360   28.6070  -18.5370 C   0  0  0  0  0  0  0  0  0  0  0  0
  -10.2330   28.6220  -18.5690 C   0  0  0  0  0  0  0  0  0  0  0  0
  -10.9070   28.7300  -19.8000 N   0  0  0  0  0  0  0  0  0  0  0  0
  -12.8949   27.5712  -24.2265 H   0  0  0  0  0  0  0  0  0  0  0  0
  -14.8331   29.1148  -24.4813 H   0  0  0  0  0  0  0  0  0  0  0  0
  -15.6065   30.4767  -22.5462 H   0  0  0  0  0  0  0  0  0  0  0  0
  -14.4183   30.3424  -20.3500 H   0  0  0  0  0  0  0  0  0  0  0  0
  -14.1466   28.6725  -18.6648 H   0  0  0  0  0  0  0  0  0  0  0  0
  -10.7705   28.3389  -15.2240 H   0  0  0  0  0  0  0  0  0  0  0  0
   -5.9306   28.4033  -15.2580 H   0  0  0  0  0  0  0  0  0  0  0  0
   -6.5883   26.8562  -15.7826 H   0  0  0  0  0  0  0  0  0  0  0  0
   -8.2605   28.6823  -19.4714 H   0  0  0  0  0  0  0  0  0  0  0  0
  -10.3715   28.7944  -20.6775 H   0  0  0  0  0  0  0  0  0  0  0  0
  5  4  2  0
  5  6  1  0
  4  3  1  0
  6  7  2  0
  3  2  2  0
  7  2  1  0
  7  8  1  0
  2  1  1  0
  9  8  2  0
  9 10  1  0
  8 21  1  0
 11 10  2  0
 10 12  1  0
 21 20  1  0
 12 20  2  0
 12 13  1  0
 20 19  1  0
 13 14  2  0
 19 18  2  0
 14 18  1  0
 14 15  1  0
 18 17  1  0
 15 16  1  0
 17 16  1  0
  3 22  1  0
  4 23  1  0
  5 24  1  0
  6 25  1  0
  9 26  1  0
 13 27  1  0
 16 28  1  0
 16 29  1  0
 19 30  1  0
 21 31  1  0
A    1
FAB
A    2
CAN
A    3
CAE
A    4
CAC
A    5
CAD
A    6
CAF
A    7
CAR
A    8
CAO
A    9
CAG
A   10
CAS
A   11
OAA
A   12
CAU
A   13
CAI
A   14
CAQ
A   15
OAM
A   16
CAJ
A   17
OAL
A   18
CAP
A   19
CAH
A   20
CAT
A   21
NAK
M  END
