4XG9_X9G_A_700
     RDKit          3D

 55 59  0  0  0  0  0  0  0  0999 V2000
    4.1180    6.4280    4.1420 C   0  0  0  0  0  0  0  0  0  0  0  0
    5.2660    5.7010    3.8020 C   0  0  0  0  0  0  0  0  0  0  0  0
    5.2220    4.8700    2.6910 C   0  0  0  0  0  0  0  0  0  0  0  0
    4.0400    4.7660    1.9390 N   0  0  0  0  0  0  0  0  0  0  0  0
    3.0080    6.2600    3.3800 N   0  0  0  0  0  0  0  0  0  0  0  0
    1.0720    8.1800    9.7520 C   0  0  0  0  0  0  0  0  0  0  0  0
    0.2580    6.9410    9.3400 C   0  0  0  0  0  0  0  0  0  0  0  0
   -1.1640    7.2420    9.2780 O   0  0  0  0  0  0  0  0  0  0  0  0
    0.8990    7.0210    7.9770 C   0  0  0  0  0  0  0  0  0  0  0  0
    1.1560    8.4540    8.2860 N   0  0  0  0  0  0  0  0  0  0  0  0
    2.3470    9.1850    7.7940 C   0  0  0  0  0  0  0  0  0  0  0  0
    3.3220    8.3980    6.8720 C   0  0  0  0  0  0  0  0  0  0  0  0
    2.9730    7.7160    5.7880 C   0  0  0  0  0  0  0  0  0  0  0  0
    4.6470    8.3260    6.9400 C   0  0  0  0  0  0  0  0  0  0  0  0
    5.5720    8.9620    7.9860 C   0  0  0  0  0  0  0  0  0  0  0  0
    5.0710    7.5780    5.9260 N   0  0  0  0  0  0  0  0  0  0  0  0
    4.0870    7.2200    5.2310 N   0  0  0  0  0  0  0  0  0  0  0  0
    2.9380    5.4580    2.2910 C   0  0  0  0  0  0  0  0  0  0  0  0
    1.8380    5.3080    1.5180 N   0  0  0  0  0  0  0  0  0  0  0  0
    0.5870    5.7560    1.8270 C   0  0  0  0  0  0  0  0  0  0  0  0
    0.1840    6.6230    2.8770 C   0  0  0  0  0  0  0  0  0  0  0  0
   -1.1050    6.9890    3.0370 C   0  0  0  0  0  0  0  0  0  0  0  0
   -1.7250    7.7730    3.9240 C   0  0  0  0  0  0  0  0  0  0  0  0
   -0.9820    8.6210    5.2280 Cl  0  0  0  0  0  0  0  0  0  0  0  0
   -3.0200    7.8080    3.6460 C   0  0  0  0  0  0  0  0  0  0  0  0
   -4.0960    8.5830    4.4130 C   0  0  0  0  0  0  0  0  0  0  0  0
   -3.2450    7.0500    2.5840 N   0  0  0  0  0  0  0  0  0  0  0  0
   -4.5540    6.7890    1.9270 C   0  0  0  0  0  0  0  0  0  0  0  0
   -2.0660    6.5450    2.2050 C   0  0  0  0  0  0  0  0  0  0  0  0
   -1.7490    5.7270    1.1980 C   0  0  0  0  0  0  0  0  0  0  0  0
   -0.4310    5.3200    0.9800 C   0  0  0  0  0  0  0  0  0  0  0  0
    6.1833    5.7868    4.4029 H   0  0  0  0  0  0  0  0  0  0  0  0
    6.1122    4.2932    2.3996 H   0  0  0  0  0  0  0  0  0  0  0  0
    2.0325    7.9664   10.2438 H   0  0  0  0  0  0  0  0  0  0  0  0
    0.7087    8.9204   10.4798 H   0  0  0  0  0  0  0  0  0  0  0  0
    0.2784    6.0134    9.9309 H   0  0  0  0  0  0  0  0  0  0  0  0
   -1.5255    7.3185   10.1965 H   0  0  0  0  0  0  0  0  0  0  0  0
    0.2160    6.8446    7.1330 H   0  0  0  0  0  0  0  0  0  0  0  0
    1.6988    6.3346    7.6619 H   0  0  0  0  0  0  0  0  0  0  0  0
    2.9177    9.5207    8.6724 H   0  0  0  0  0  0  0  0  0  0  0  0
    1.9481    9.9953    7.1660 H   0  0  0  0  0  0  0  0  0  0  0  0
    1.9480    7.5813    5.4121 H   0  0  0  0  0  0  0  0  0  0  0  0
    5.2105    8.7134    8.9947 H   0  0  0  0  0  0  0  0  0  0  0  0
    6.5932    8.5742    7.8566 H   0  0  0  0  0  0  0  0  0  0  0  0
    5.5755   10.0544    7.8566 H   0  0  0  0  0  0  0  0  0  0  0  0
    1.9547    4.8145    0.6215 H   0  0  0  0  0  0  0  0  0  0  0  0
    0.9412    7.0057    3.5772 H   0  0  0  0  0  0  0  0  0  0  0  0
   -3.9322    8.4650    5.4943 H   0  0  0  0  0  0  0  0  0  0  0  0
   -4.0393    9.6490    4.1477 H   0  0  0  0  0  0  0  0  0  0  0  0
   -5.0891    8.1915    4.1477 H   0  0  0  0  0  0  0  0  0  0  0  0
   -5.3258    6.6351    2.6956 H   0  0  0  0  0  0  0  0  0  0  0  0
   -4.8277    7.6503    1.2998 H   0  0  0  0  0  0  0  0  0  0  0  0
   -4.4764    5.8886    1.2998 H   0  0  0  0  0  0  0  0  0  0  0  0
   -2.5422    5.3665    0.5266 H   0  0  0  0  0  0  0  0  0  0  0  0
   -0.1953    4.6533    0.1374 H   0  0  0  0  0  0  0  0  0  0  0  0
 31 30  2  0
 31 20  1  0
 30 29  1  0
 19 20  1  0
 19 18  1  0
 20 21  2  0
 28 27  1  0
  4 18  2  0
  4  3  1  0
 29 27  1  0
 29 22  2  0
 18  5  1  0
 27 25  1  0
  3  2  2  0
 21 22  1  0
 22 23  1  0
  5  1  2  0
 25 23  2  0
 25 26  1  0
  2  1  1  0
 23 24  1  0
  1 17  1  0
 17 13  1  0
 17 16  1  0
 13 12  2  0
 16 14  2  0
 12 14  1  0
 12 11  1  0
 14 15  1  0
 11 10  1  0
  9 10  1  0
  9  7  1  0
 10  6  1  0
  8  7  1  0
  7  6  1  0
  2 32  1  0
  3 33  1  0
  6 34  1  0
  6 35  1  0
  7 36  1  0
  8 37  1  0
  9 38  1  0
  9 39  1  0
 11 40  1  0
 11 41  1  0
 13 42  1  0
 15 43  1  0
 15 44  1  0
 15 45  1  0
 19 46  1  0
 21 47  1  0
 26 48  1  0
 26 49  1  0
 26 50  1  0
 28 51  1  0
 28 52  1  0
 28 53  1  0
 30 54  1  0
 31 55  1  0
A    1
C4
A    2
C5
A    3
C6
A    4
N1
A    5
N3
A    6
CAM
A    7
CBB
A    8
OAD
A    9
CAN
A   10
NBC
A   11
CAL
A   12
CAV
A   13
CAK
A   14
CAS
A   15
CAA
A   16
NAQ
A   17
NBE
A   18
C2
A   19
NAR
A   20
CAT
A   21
CAJ
A   22
CAZ
A   23
CAW
A   24
CL1
A   25
CAU
A   26
CAB
A   27
NBD
A   28
CAC
A   29
CBA
A   30
CAI
A   31
CAH
M  END
