4XH6_HUL_A_401
     RDKit          3D

 34 36  0  0  0  0  0  0  0  0999 V2000
   16.9430  -35.3710    1.9250 C   0  0  0  0  0  0  0  0  0  0  0  0
   17.8330  -36.4150    2.2390 C   0  0  0  0  0  0  0  0  0  0  0  0
   18.6450  -37.0140    1.2780 C   0  0  0  0  0  0  0  0  0  0  0  0
   18.5390  -36.5580   -0.0380 C   0  0  0  0  0  0  0  0  0  0  0  0
   17.6630  -35.5110   -0.3710 C   0  0  0  0  0  0  0  0  0  0  0  0
   16.8610  -34.9210    0.6130 C   0  0  0  0  0  0  0  0  0  0  0  0
   15.7650  -35.6910    3.9690 C   0  0  0  0  0  0  0  0  0  0  0  0
   19.5080  -38.0630    1.6000 C   0  0  0  0  0  0  0  0  0  0  0  0
   20.2430  -38.6760    0.6240 C   0  0  0  0  0  0  0  0  0  0  0  0
   20.1360  -38.1880   -0.6640 C   0  0  0  0  0  0  0  0  0  0  0  0
   20.7460  -38.8260   -1.7180 C   0  0  0  0  0  0  0  0  0  0  0  0
   21.7220  -39.8210   -1.4880 C   0  0  0  0  0  0  0  0  0  0  0  0
   22.2800  -40.4530   -2.5950 C   0  0  0  0  0  0  0  0  0  0  0  0
   21.8300  -40.1090   -3.8810 C   0  0  0  0  0  0  0  0  0  0  0  0
   20.8410  -39.1560   -4.1310 C   0  0  0  0  0  0  0  0  0  0  0  0
   16.1450  -34.7850    2.8850 O   0  0  0  0  0  0  0  0  0  0  0  0
   17.9270  -36.8820    3.5100 O   0  0  0  0  0  0  0  0  0  0  0  0
   15.9860  -33.9010    0.3590 O   0  0  0  0  0  0  0  0  0  0  0  0
   19.3110  -37.1470   -0.9990 O   0  0  0  0  0  0  0  0  0  0  0  0
   19.6400  -38.5140    2.7320 O   0  0  0  0  0  0  0  0  0  0  0  0
   22.3740  -40.7440   -4.9530 O   0  0  0  0  0  0  0  0  0  0  0  0
   20.2910  -38.5170   -3.0220 C   0  0  0  0  0  0  0  0  0  0  0  0
   17.6072  -35.1533   -1.4097 H   0  0  0  0  0  0  0  0  0  0  0  0
   15.9670  -35.2094    4.9371 H   0  0  0  0  0  0  0  0  0  0  0  0
   14.6929  -35.9250    3.8925 H   0  0  0  0  0  0  0  0  0  0  0  0
   16.3494  -36.6198    3.8925 H   0  0  0  0  0  0  0  0  0  0  0  0
   20.8975  -39.5290    0.8563 H   0  0  0  0  0  0  0  0  0  0  0  0
   22.0310  -40.0876   -0.4665 H   0  0  0  0  0  0  0  0  0  0  0  0
   23.0644  -41.2132   -2.4649 H   0  0  0  0  0  0  0  0  0  0  0  0
   20.5120  -38.9210   -5.1540 H   0  0  0  0  0  0  0  0  0  0  0  0
   17.8029  -36.2653    4.2744 H   0  0  0  0  0  0  0  0  0  0  0  0
   15.5656  -33.4110    1.1095 H   0  0  0  0  0  0  0  0  0  0  0  0
   23.0119  -41.4886   -4.8160 H   0  0  0  0  0  0  0  0  0  0  0  0
   19.4980  -37.7674   -3.1607 H   0  0  0  0  0  0  0  0  0  0  0  0
  7 16  1  0
 17  2  1  0
 20  8  2  0
 16  1  1  0
  2  1  2  0
  2  3  1  0
  8  3  1  0
  8  9  1  0
  1  6  1  0
  3  4  2  0
  9 10  2  0
  6 18  1  0
  6  5  2  0
  4  5  1  0
  4 19  1  0
 10 19  1  0
 10 11  1  0
 12 11  2  0
 12 13  1  0
 11 22  1  0
 13 14  2  0
 22 15  2  0
 14 15  1  0
 14 21  1  0
  5 23  1  0
  7 24  1  0
  7 25  1  0
  7 26  1  0
  9 27  1  0
 12 28  1  0
 13 29  1  0
 15 30  1  0
 17 31  1  0
 18 32  1  0
 21 33  1  0
 22 34  1  0
A    1
C1
A    2
C2
A    3
C3
A    4
C4
A    5
C5
A    6
C6
A    7
C7
A    8
C8
A    9
C9
A   10
C10
A   11
C11
A   12
C12
A   13
C13
A   14
C14
A   15
C15
A   16
O21
A   17
O19
A   18
O20
A   19
O17
A   20
O18
A   21
O22
A   22
C16
M  END
