4XHB_17Y_A_701
     RDKit          3D

 17 17  0  0  0  0  0  0  0  0999 V2000
   -8.9510  -27.0970  -27.1710 O   0  0  0  0  0  0  0  0  0  0  0  0
  -10.2440  -27.5940  -27.2410 C   0  0  0  0  0  0  0  0  0  0  0  0
  -10.4510  -28.5760  -26.2110 C   0  0  0  0  0  0  0  0  0  0  0  0
  -11.8780  -28.4540  -25.7830 C   0  0  0  0  0  0  0  0  0  0  0  0
  -12.4120  -27.1970  -26.4000 C   0  0  0  0  0  0  0  0  0  0  0  0
  -11.1970  -26.4480  -26.8300 C   0  0  0  0  0  0  0  0  0  0  0  0
  -10.6200  -25.6450  -25.9150 O   0  0  0  0  0  0  0  0  0  0  0  0
   -8.6873  -26.9957  -26.2222 H   0  0  0  0  0  0  0  0  0  0  0  0
  -10.4118  -28.0008  -28.2491 H   0  0  0  0  0  0  0  0  0  0  0  0
  -10.2580  -29.5849  -26.6046 H   0  0  0  0  0  0  0  0  0  0  0  0
   -9.7682  -28.4119  -25.3643 H   0  0  0  0  0  0  0  0  0  0  0  0
  -11.9401  -28.3930  -24.6864 H   0  0  0  0  0  0  0  0  0  0  0  0
  -12.4616  -29.3291  -26.1048 H   0  0  0  0  0  0  0  0  0  0  0  0
  -12.9868  -26.6160  -25.6637 H   0  0  0  0  0  0  0  0  0  0  0  0
  -13.0969  -27.3995  -27.2366 H   0  0  0  0  0  0  0  0  0  0  0  0
  -11.4542  -25.7227  -27.6160 H   0  0  0  0  0  0  0  0  0  0  0  0
  -10.8486  -25.9631  -25.0058 H   0  0  0  0  0  0  0  0  0  0  0  0
  2  1  1  0
  2  6  1  0
  2  3  1  0
  6  5  1  0
  6  7  1  0
  5  4  1  0
  3  4  1  0
  1  8  1  0
  2  9  1  0
  3 10  1  0
  3 11  1  0
  4 12  1  0
  4 13  1  0
  5 14  1  0
  5 15  1  0
  6 16  1  0
  7 17  1  0
A    1
OAA
A    2
CAF
A    3
CAD
A    4
CAC
A    5
CAE
A    6
CAG
A    7
OAB
M  END
