4XIR_40X_A_301
     RDKit          3D

 56 59  0  0  0  0  0  0  0  0999 V2000
   -2.4120  -11.5430  -24.0540 N   0  0  0  0  0  0  0  0  0  0  0  0
    4.2440   -8.6760  -23.1650 C   0  0  0  0  0  0  0  0  0  0  0  0
    4.8030   -9.9760  -23.5230 C   0  0  0  0  0  0  0  0  0  0  0  0
    6.1460  -10.2340  -23.5500 C   0  0  0  0  0  0  0  0  0  0  0  0
    6.2850  -11.5990  -24.0070 C   0  0  0  0  0  0  0  0  0  0  0  0
    5.0130  -12.0890  -24.2590 C   0  0  0  0  0  0  0  0  0  0  0  0
    1.9270  -12.1320  -23.6670 C   0  0  0  0  0  0  0  0  0  0  0  0
    0.6860   -9.9920  -25.0000 C   0  0  0  0  0  0  0  0  0  0  0  0
   -1.5390  -11.0990  -24.9480 C   0  0  0  0  0  0  0  0  0  0  0  0
    5.8310  -14.1220  -25.5440 C   0  0  0  0  0  0  0  0  0  0  0  0
    5.9800  -13.5170  -26.9450 C   0  0  0  0  0  0  0  0  0  0  0  0
    5.5320  -15.6110  -25.6750 C   0  0  0  0  0  0  0  0  0  0  0  0
    7.2980   -9.3090  -23.2580 C   0  0  0  0  0  0  0  0  0  0  0  0
    8.5800  -12.1290  -24.1750 O   0  0  0  0  0  0  0  0  0  0  0  0
    7.4140  -12.5030  -24.2870 C   0  0  0  0  0  0  0  0  0  0  0  0
    7.1250  -13.9200  -24.7350 C   0  0  0  0  0  0  0  0  0  0  0  0
    4.6740  -13.4420  -24.8050 C   0  0  0  0  0  0  0  0  0  0  0  0
    4.1140  -11.0940  -23.9580 N   0  0  0  0  0  0  0  0  0  0  0  0
    2.6850  -11.0600  -24.1130 C   0  0  0  0  0  0  0  0  0  0  0  0
    2.0590   -9.9930  -24.7770 C   0  0  0  0  0  0  0  0  0  0  0  0
   -0.0770  -11.1060  -24.5970 C   0  0  0  0  0  0  0  0  0  0  0  0
   -1.9020  -10.6660  -26.0370 O   0  0  0  0  0  0  0  0  0  0  0  0
    0.5720  -12.1640  -23.9380 C   0  0  0  0  0  0  0  0  0  0  0  0
   -0.2490  -13.6240  -23.5110 Cl  0  0  0  0  0  0  0  0  0  0  0  0
    2.8220   -8.9630  -25.3080 O   0  0  0  0  0  0  0  0  0  0  0  0
    3.4700   -8.0820  -24.3390 C   0  0  0  0  0  0  0  0  0  0  0  0
    2.6630   -6.8430  -24.0790 C   0  0  0  0  0  0  0  0  0  0  0  0
    3.4700   -5.5820  -24.2060 C   0  0  0  0  0  0  0  0  0  0  0  0
    3.9390   -5.3000  -25.6350 C   0  0  0  0  0  0  0  0  0  0  0  0
   -2.2150  -11.4428  -23.0480 H   0  0  0  0  0  0  0  0  0  0  0  0
   -3.2871  -11.9880  -24.3656 H   0  0  0  0  0  0  0  0  0  0  0  0
    5.0621   -7.9942  -22.8894 H   0  0  0  0  0  0  0  0  0  0  0  0
    3.5560   -8.8073  -22.3169 H   0  0  0  0  0  0  0  0  0  0  0  0
    2.3997  -12.9494  -23.1027 H   0  0  0  0  0  0  0  0  0  0  0  0
    0.2016   -9.1318  -25.4852 H   0  0  0  0  0  0  0  0  0  0  0  0
    6.2422  -12.4522  -26.8586 H   0  0  0  0  0  0  0  0  0  0  0  0
    6.7744  -14.0472  -27.4907 H   0  0  0  0  0  0  0  0  0  0  0  0
    5.0302  -13.6176  -27.4907 H   0  0  0  0  0  0  0  0  0  0  0  0
    5.4425  -16.0565  -24.6733 H   0  0  0  0  0  0  0  0  0  0  0  0
    4.5883  -15.7486  -26.2231 H   0  0  0  0  0  0  0  0  0  0  0  0
    6.3494  -16.1023  -26.2231 H   0  0  0  0  0  0  0  0  0  0  0  0
    7.4217   -9.2097  -22.1695 H   0  0  0  0  0  0  0  0  0  0  0  0
    8.2192   -9.7212  -23.6956 H   0  0  0  0  0  0  0  0  0  0  0  0
    7.0946   -8.3205  -23.6956 H   0  0  0  0  0  0  0  0  0  0  0  0
    7.0616  -14.5507  -23.8360 H   0  0  0  0  0  0  0  0  0  0  0  0
    7.9455  -14.1884  -25.4167 H   0  0  0  0  0  0  0  0  0  0  0  0
    3.8330  -13.3319  -25.5054 H   0  0  0  0  0  0  0  0  0  0  0  0
    4.4265  -14.0804  -23.9441 H   0  0  0  0  0  0  0  0  0  0  0  0
    4.3771   -7.7628  -24.8731 H   0  0  0  0  0  0  0  0  0  0  0  0
    1.8357   -6.8046  -24.8030 H   0  0  0  0  0  0  0  0  0  0  0  0
    2.2980   -6.8983  -23.0428 H   0  0  0  0  0  0  0  0  0  0  0  0
    4.3557   -5.6686  -23.5594 H   0  0  0  0  0  0  0  0  0  0  0  0
    2.8170   -4.7481  -23.9088 H   0  0  0  0  0  0  0  0  0  0  0  0
    4.8814   -4.7334  -25.6065 H   0  0  0  0  0  0  0  0  0  0  0  0
    4.0992   -6.2517  -26.1629 H   0  0  0  0  0  0  0  0  0  0  0  0
    3.1736   -4.7122  -26.1629 H   0  0  0  0  0  0  0  0  0  0  0  0
 11 10  1  0
 22  9  2  0
 12 10  1  0
 29 28  1  0
 10 17  1  0
 10 16  1  0
 25 20  1  0
 25 26  1  0
  8 20  2  0
  8 21  1  0
  9 21  1  0
  9  1  1  0
 17  6  1  0
 20 19  1  0
 16 15  1  0
 21 23  2  0
 26 27  1  0
 26  2  1  0
 15 14  2  0
 15  5  1  0
  6  5  2  0
  6 18  1  0
 28 27  1  0
 19 18  1  0
 19  7  2  0
  5  4  1  0
 18  3  1  0
 23  7  1  0
 23 24  1  0
  4  3  2  0
  4 13  1  0
  3  2  1  0
  1 30  1  0
  1 31  1  0
  2 32  1  0
  2 33  1  0
  7 34  1  0
  8 35  1  0
 11 36  1  0
 11 37  1  0
 11 38  1  0
 12 39  1  0
 12 40  1  0
 12 41  1  0
 13 42  1  0
 13 43  1  0
 13 44  1  0
 16 45  1  0
 16 46  1  0
 17 47  1  0
 17 48  1  0
 26 49  1  0
 27 50  1  0
 27 51  1  0
 28 52  1  0
 28 53  1  0
 29 54  1  0
 29 55  1  0
 29 56  1  0
A    1
N1
A    2
C4
A    3
C5
A    4
C6
A    5
C7
A    6
C8
A    7
C10
A    8
C13
A    9
C15
A   10
C17
A   11
C20
A   12
C21
A   13
C22
A   14
O2
A   15
C19
A   16
C18
A   17
C16
A   18
N
A   19
C9
A   20
C14
A   21
C12
A   22
O1
A   23
C11
A   24
CL
A   25
O
A   26
C3
A   27
C2
A   28
C1
A   29
C
M  END
