4XJ0_41B_A_401
     RDKit          3D

 53 56  0  0  0  0  0  0  0  0999 V2000
  -14.7300  -36.6540  -19.8010 C   0  0  0  0  0  0  0  0  0  0  0  0
  -13.9410  -35.8310  -20.5970 C   0  0  0  0  0  0  0  0  0  0  0  0
  -13.0400  -36.3920  -21.4980 C   0  0  0  0  0  0  0  0  0  0  0  0
  -12.2920  -35.4440  -22.4140 C   0  0  0  0  0  0  0  0  0  0  0  0
  -14.2550  -36.0750  -25.5030 C   0  0  0  0  0  0  0  0  0  0  0  0
  -14.6020  -33.7440  -24.8880 C   0  0  0  0  0  0  0  0  0  0  0  0
  -17.1120  -33.5500  -28.5050 C   0  0  0  0  0  0  0  0  0  0  0  0
  -16.6190  -35.7980  -28.8410 C   0  0  0  0  0  0  0  0  0  0  0  0
  -16.8070  -39.3560  -30.0970 C   0  0  0  0  0  0  0  0  0  0  0  0
  -12.9610  -37.7870  -21.6250 C   0  0  0  0  0  0  0  0  0  0  0  0
  -13.7410  -38.6140  -20.8250 C   0  0  0  0  0  0  0  0  0  0  0  0
  -14.6200  -38.0330  -19.9200 C   0  0  0  0  0  0  0  0  0  0  0  0
  -10.8720  -35.8900  -22.7740 C   0  0  0  0  0  0  0  0  0  0  0  0
  -10.1260  -35.9080  -21.5620 O   0  0  0  0  0  0  0  0  0  0  0  0
  -13.1550  -35.1720  -23.5850 N   0  0  0  0  0  0  0  0  0  0  0  0
  -13.4290  -36.2120  -24.4480 C   0  0  0  0  0  0  0  0  0  0  0  0
  -14.8770  -34.8200  -25.7460 C   0  0  0  0  0  0  0  0  0  0  0  0
  -13.7300  -33.9420  -23.7800 C   0  0  0  0  0  0  0  0  0  0  0  0
  -13.5050  -32.9990  -23.0320 O   0  0  0  0  0  0  0  0  0  0  0  0
  -15.7600  -34.7210  -26.9410 C   0  0  0  0  0  0  0  0  0  0  0  0
  -16.3940  -33.5250  -27.3170 C   0  0  0  0  0  0  0  0  0  0  0  0
  -17.2180  -34.6740  -29.2200 N   0  0  0  0  0  0  0  0  0  0  0  0
  -15.9020  -35.8090  -27.7250 N   0  0  0  0  0  0  0  0  0  0  0  0
  -16.7100  -36.9340  -29.6460 N   0  0  0  0  0  0  0  0  0  0  0  0
  -16.1110  -38.2330  -29.2960 C   0  0  0  0  0  0  0  0  0  0  0  0
  -16.1020  -40.7150  -29.9030 C   0  0  0  0  0  0  0  0  0  0  0  0
  -14.6690  -40.6150  -30.0410 O   0  0  0  0  0  0  0  0  0  0  0  0
  -14.0010  -39.6170  -29.2470 C   0  0  0  0  0  0  0  0  0  0  0  0
  -14.5940  -38.2350  -29.5780 C   0  0  0  0  0  0  0  0  0  0  0  0
  -15.5990  -36.1360  -18.9040 F   0  0  0  0  0  0  0  0  0  0  0  0
  -15.6240  -39.0120  -18.9170 Cl  0  0  0  0  0  0  0  0  0  0  0  0
  -14.0286  -34.7376  -20.5149 H   0  0  0  0  0  0  0  0  0  0  0  0
  -12.1007  -34.5053  -21.8735 H   0  0  0  0  0  0  0  0  0  0  0  0
  -14.4468  -36.9274  -26.1713 H   0  0  0  0  0  0  0  0  0  0  0  0
  -15.0552  -32.7583  -25.0695 H   0  0  0  0  0  0  0  0  0  0  0  0
  -17.6005  -32.6317  -28.8628 H   0  0  0  0  0  0  0  0  0  0  0  0
  -16.7905  -39.0949  -31.1654 H   0  0  0  0  0  0  0  0  0  0  0  0
  -17.8400  -39.4496  -29.7306 H   0  0  0  0  0  0  0  0  0  0  0  0
  -12.2764  -38.2298  -22.3634 H   0  0  0  0  0  0  0  0  0  0  0  0
  -13.6635  -39.7082  -20.9071 H   0  0  0  0  0  0  0  0  0  0  0  0
  -10.8927  -36.8950  -23.2207 H   0  0  0  0  0  0  0  0  0  0  0  0
  -10.4178  -35.2065  -23.5065 H   0  0  0  0  0  0  0  0  0  0  0  0
  -10.7476  -35.8930  -20.7916 H   0  0  0  0  0  0  0  0  0  0  0  0
  -12.9559  -37.1887  -24.2683 H   0  0  0  0  0  0  0  0  0  0  0  0
  -16.3251  -32.6157  -26.7019 H   0  0  0  0  0  0  0  0  0  0  0  0
  -17.2250  -36.8599  -30.5349 H   0  0  0  0  0  0  0  0  0  0  0  0
  -16.2553  -38.4094  -28.2199 H   0  0  0  0  0  0  0  0  0  0  0  0
  -16.3346  -41.0934  -28.8966 H   0  0  0  0  0  0  0  0  0  0  0  0
  -16.4678  -41.3976  -30.6842 H   0  0  0  0  0  0  0  0  0  0  0  0
  -14.1485  -39.8356  -28.1791 H   0  0  0  0  0  0  0  0  0  0  0  0
  -12.9240  -39.6230  -29.4709 H   0  0  0  0  0  0  0  0  0  0  0  0
  -14.4202  -38.0085  -30.6403 H   0  0  0  0  0  0  0  0  0  0  0  0
  -14.1082  -37.4729  -28.9509 H   0  0  0  0  0  0  0  0  0  0  0  0
  9 26  1  0
  9 25  1  0
 27 26  1  0
 27 28  1  0
 24 25  1  0
 24  8  1  0
 29 25  1  0
 29 28  1  0
 22  8  1  0
 22  7  2  0
  8 23  2  0
  7 21  1  0
 23 20  1  0
 21 20  2  0
 20 17  1  0
 17  5  1  0
 17  6  2  0
  5 16  2  0
  6 18  1  0
 16 15  1  0
 18 15  1  0
 18 19  2  0
 15  4  1  0
 13  4  1  0
 13 14  1  0
  4  3  1  0
 10  3  2  0
 10 11  1  0
  3  2  1  0
 11 12  2  0
  2  1  2  0
 12  1  1  0
 12 31  1  0
  1 30  1  0
  2 32  1  0
  4 33  1  0
  5 34  1  0
  6 35  1  0
  7 36  1  0
  9 37  1  0
  9 38  1  0
 10 39  1  0
 11 40  1  0
 13 41  1  0
 13 42  1  0
 14 43  1  0
 16 44  1  0
 21 45  1  0
 24 46  1  0
 25 47  1  0
 26 48  1  0
 26 49  1  0
 28 50  1  0
 28 51  1  0
 29 52  1  0
 29 53  1  0
A    1
C4
A    2
C5
A    3
C6
A    4
C7
A    5
C13
A    6
C15
A    7
C20
A    8
C22
A    9
C26
A   10
C1
A   11
C2
A   12
C3
A   13
C9
A   14
O10
A   15
N11
A   16
C12
A   17
C14
A   18
C16
A   19
O17
A   20
C18
A   21
C19
A   22
N21
A   23
N23
A   24
N24
A   25
C25
A   26
C27
A   27
O28
A   28
C29
A   29
C30
A   30
F31
A   31
CL1
M  END
