4XJL_41F_B_501
     RDKit          3D

 41 44  0  0  0  0  0  0  0  0999 V2000
   13.7930    1.3150  -31.3810 C   0  0  0  0  0  0  0  0  0  0  0  0
   14.5470    0.7340  -30.4230 C   0  0  0  0  0  0  0  0  0  0  0  0
   14.1260    0.0500  -29.3110 N   0  0  0  0  0  0  0  0  0  0  0  0
   14.8710   -0.3410  -28.6690 N   0  0  0  0  0  0  0  0  0  0  0  0
   16.4400    0.0270  -29.2400 S   0  0  0  0  0  0  0  0  0  0  0  0
   15.8960    0.7980  -30.5230 C   0  0  0  0  0  0  0  0  0  0  0  0
   16.5260    1.4180  -31.5310 C   0  0  0  0  0  0  0  0  0  0  0  0
   15.7760    2.0250  -32.5370 C   0  0  0  0  0  0  0  0  0  0  0  0
   14.3810    1.9570  -32.4840 C   0  0  0  0  0  0  0  0  0  0  0  0
   13.6270    2.5800  -33.4090 N   0  0  0  0  0  0  0  0  0  0  0  0
   13.9270    2.6840  -34.7280 C   0  0  0  0  0  0  0  0  0  0  0  0
   14.8290    2.0400  -35.2640 O   0  0  0  0  0  0  0  0  0  0  0  0
   13.1370    3.4970  -35.4710 N   0  0  0  0  0  0  0  0  0  0  0  0
   12.0400    4.2720  -34.8250 C   0  0  0  0  0  0  0  0  0  0  0  0
   12.0070    5.6990  -35.3500 C   0  0  0  0  0  0  0  0  0  0  0  0
   13.3350    3.5630  -36.9570 C   0  0  0  0  0  0  0  0  0  0  0  0
   12.9230    4.8880  -37.6290 C   0  0  0  0  0  0  0  0  0  0  0  0
   11.9730    5.7100  -36.8310 N   0  0  0  0  0  0  0  0  0  0  0  0
   11.0530    6.5040  -37.4040 C   0  0  0  0  0  0  0  0  0  0  0  0
   11.3130    7.8690  -37.5340 C   0  0  0  0  0  0  0  0  0  0  0  0
   10.3580    8.7190  -38.0940 C   0  0  0  0  0  0  0  0  0  0  0  0
    9.1320    8.1850  -38.5050 C   0  0  0  0  0  0  0  0  0  0  0  0
    8.8600    6.8220  -38.3600 C   0  0  0  0  0  0  0  0  0  0  0  0
    9.8170    5.9720  -37.8080 C   0  0  0  0  0  0  0  0  0  0  0  0
   12.6967    1.2851  -31.2962 H   0  0  0  0  0  0  0  0  0  0  0  0
   17.6251    1.4474  -31.5639 H   0  0  0  0  0  0  0  0  0  0  0  0
   16.2763    2.5515  -33.3631 H   0  0  0  0  0  0  0  0  0  0  0  0
   12.7494    3.0138  -33.0887 H   0  0  0  0  0  0  0  0  0  0  0  0
   12.2038    4.2913  -33.7374 H   0  0  0  0  0  0  0  0  0  0  0  0
   11.0804    3.7875  -35.0585 H   0  0  0  0  0  0  0  0  0  0  0  0
   12.9055    6.2317  -35.0052 H   0  0  0  0  0  0  0  0  0  0  0  0
   11.1012    6.1950  -34.9712 H   0  0  0  0  0  0  0  0  0  0  0  0
   12.7439    2.7550  -37.4128 H   0  0  0  0  0  0  0  0  0  0  0  0
   14.4190    3.4694  -37.1191 H   0  0  0  0  0  0  0  0  0  0  0  0
   12.4489    4.6524  -38.5932 H   0  0  0  0  0  0  0  0  0  0  0  0
   13.8408    5.4845  -37.7383 H   0  0  0  0  0  0  0  0  0  0  0  0
   12.2759    8.2773  -37.1932 H   0  0  0  0  0  0  0  0  0  0  0  0
   10.5663    9.7928  -38.2104 H   0  0  0  0  0  0  0  0  0  0  0  0
    8.3726    8.8463  -38.9478 H   0  0  0  0  0  0  0  0  0  0  0  0
    7.8885    6.4190  -38.6822 H   0  0  0  0  0  0  0  0  0  0  0  0
    9.6072    4.8986  -37.6902 H   0  0  0  0  0  0  0  0  0  0  0  0
 22 23  2  0
 22 21  1  0
 23 24  1  0
 21 20  2  0
 24 19  2  0
 20 19  1  0
 19 18  1  0
 18 15  1  0
 18 17  1  0
 15 14  1  0
 17 16  1  0
 14 13  1  0
 16 13  1  0
 13 11  1  0
 11 10  1  0
 11 12  2  0
 10  9  1  0
  8  9  1  0
  8  7  2  0
  9  1  2  0
  7  6  1  0
  1  2  1  0
  6  2  2  0
  6  5  1  0
  2  3  1  0
  5  4  1  0
  3  4  2  0
  1 25  1  0
  7 26  1  0
  8 27  1  0
 10 28  1  0
 14 29  1  0
 14 30  1  0
 15 31  1  0
 15 32  1  0
 16 33  1  0
 16 34  1  0
 17 35  1  0
 17 36  1  0
 20 37  1  0
 21 38  1  0
 22 39  1  0
 23 40  1  0
 24 41  1  0
A    1
CAI
A    2
CAU
A    3
NAO
A    4
NAN
A    5
SAQ
A    6
CAV
A    7
CAH
A    8
CAG
A    9
CAS
A   10
NAP
A   11
CAR
A   12
OAA
A   13
NAW
A   14
CAK
A   15
CAM
A   16
CAJ
A   17
CAL
A   18
NAX
A   19
CAT
A   20
CAE
A   21
CAC
A   22
CAB
A   23
CAD
A   24
CAF
M  END
