4XJM_41E_A_501
     RDKit          3D

 55 57  0  0  0  0  0  0  0  0999 V2000
    6.7880  -28.0320  -16.2750 C   0  0  0  0  0  0  0  0  0  0  0  0
    8.2690  -28.1020  -15.9170 C   0  0  0  0  0  0  0  0  0  0  0  0
    8.6340  -27.9590  -14.7480 O   0  0  0  0  0  0  0  0  0  0  0  0
    9.1420  -28.3330  -16.9090 C   0  0  0  0  0  0  0  0  0  0  0  0
   10.7610  -28.2440  -16.7220 S   0  0  0  0  0  0  0  0  0  0  0  0
    8.8810  -28.6700  -18.1870 C   0  0  0  0  0  0  0  0  0  0  0  0
    9.9950  -28.8430  -18.9450 C   0  0  0  0  0  0  0  0  0  0  0  0
   11.1390  -28.6180  -18.2730 C   0  0  0  0  0  0  0  0  0  0  0  0
   12.4090  -28.7310  -18.7040 C   0  0  0  0  0  0  0  0  0  0  0  0
   13.1880  -29.3290  -17.9580 O   0  0  0  0  0  0  0  0  0  0  0  0
   12.8450  -28.2480  -19.8930 N   0  0  0  0  0  0  0  0  0  0  0  0
   11.9750  -27.4940  -20.8490 C   0  0  0  0  0  0  0  0  0  0  0  0
   12.3230  -27.7300  -22.3250 C   0  0  0  0  0  0  0  0  0  0  0  0
   14.2900  -28.4660  -20.2280 C   0  0  0  0  0  0  0  0  0  0  0  0
   14.4740  -28.8290  -21.7000 C   0  0  0  0  0  0  0  0  0  0  0  0
   13.8430  -27.7030  -22.5260 C   0  0  0  0  0  0  0  0  0  0  0  0
   14.1560  -27.7880  -24.0280 C   0  0  0  0  0  0  0  0  0  0  0  0
   15.4080  -28.6200  -24.3410 C   0  0  0  0  0  0  0  0  0  0  0  0
   14.9840  -29.8270  -25.1810 C   0  0  0  0  0  0  0  0  0  0  0  0
   13.8400  -29.8960  -25.6400 O   0  0  0  0  0  0  0  0  0  0  0  0
   15.9400  -30.7650  -25.3400 N   0  0  0  0  0  0  0  0  0  0  0  0
   15.6870  -31.8610  -26.0720 C   0  0  0  0  0  0  0  0  0  0  0  0
   14.4700  -32.0190  -26.7360 C   0  0  0  0  0  0  0  0  0  0  0  0
   16.6600  -32.8530  -26.1940 C   0  0  0  0  0  0  0  0  0  0  0  0
   16.4090  -33.9960  -26.9570 C   0  0  0  0  0  0  0  0  0  0  0  0
   15.1830  -34.1450  -27.6110 C   0  0  0  0  0  0  0  0  0  0  0  0
   14.2070  -33.1520  -27.4980 C   0  0  0  0  0  0  0  0  0  0  0  0
   13.0060  -33.2660  -28.1360 O   0  0  0  0  0  0  0  0  0  0  0  0
   11.9390  -33.5970  -27.2460 C   0  0  0  0  0  0  0  0  0  0  0  0
    6.1888  -28.0037  -15.3529 H   0  0  0  0  0  0  0  0  0  0  0  0
    6.5959  -27.1238  -16.8651 H   0  0  0  0  0  0  0  0  0  0  0  0
    6.5111  -28.9181  -16.8651 H   0  0  0  0  0  0  0  0  0  0  0  0
    7.8611  -28.7935  -18.5800 H   0  0  0  0  0  0  0  0  0  0  0  0
    9.9649  -29.1381  -20.0043 H   0  0  0  0  0  0  0  0  0  0  0  0
   10.9319  -27.8027  -20.6854 H   0  0  0  0  0  0  0  0  0  0  0  0
   12.1348  -26.4239  -20.6504 H   0  0  0  0  0  0  0  0  0  0  0  0
   11.8623  -26.9405  -22.9369 H   0  0  0  0  0  0  0  0  0  0  0  0
   11.9400  -28.7153  -22.6291 H   0  0  0  0  0  0  0  0  0  0  0  0
   14.6816  -29.2845  -19.6062 H   0  0  0  0  0  0  0  0  0  0  0  0
   14.8349  -27.5307  -20.0322 H   0  0  0  0  0  0  0  0  0  0  0  0
   15.5449  -28.9151  -21.9360 H   0  0  0  0  0  0  0  0  0  0  0  0
   13.9977  -29.7942  -21.9269 H   0  0  0  0  0  0  0  0  0  0  0  0
   14.2816  -26.7602  -22.1672 H   0  0  0  0  0  0  0  0  0  0  0  0
   14.3096  -26.7683  -24.4110 H   0  0  0  0  0  0  0  0  0  0  0  0
   13.3034  -28.2878  -24.5109 H   0  0  0  0  0  0  0  0  0  0  0  0
   15.8708  -28.9629  -23.4039 H   0  0  0  0  0  0  0  0  0  0  0  0
   16.1395  -28.0117  -24.8931 H   0  0  0  0  0  0  0  0  0  0  0  0
   16.8630  -30.6403  -24.9002 H   0  0  0  0  0  0  0  0  0  0  0  0
   13.7047  -31.2330  -26.6552 H   0  0  0  0  0  0  0  0  0  0  0  0
   17.6291  -32.7348  -25.6872 H   0  0  0  0  0  0  0  0  0  0  0  0
   17.1767  -34.7791  -27.0430 H   0  0  0  0  0  0  0  0  0  0  0  0
   14.9867  -35.0436  -28.2143 H   0  0  0  0  0  0  0  0  0  0  0  0
   12.2823  -33.4905  -26.2064 H   0  0  0  0  0  0  0  0  0  0  0  0
   11.0904  -32.9199  -27.4231 H   0  0  0  0  0  0  0  0  0  0  0  0
   11.6226  -34.6355  -27.4231 H   0  0  0  0  0  0  0  0  0  0  0  0
 25 26  2  0
 25 24  1  0
 26 27  1  0
 24 22  2  0
 27 28  1  0
 27 23  2  0
 28 29  1  0
 22 23  1  0
 22 21  1  0
 20 19  2  0
 21 19  1  0
 19 18  1  0
 18 17  1  0
 15 14  1  0
 15 16  1  0
 17 16  1  0
 14 11  1  0
 16 13  1  0
 10  9  2  0
 11  9  1  0
 11 12  1  0
 13 12  1  0
  9  8  1  0
  8  7  2  0
  8  5  1  0
  7  6  1  0
  5  4  1  0
  6  4  2  0
  4  2  1  0
  2  3  2  0
  2  1  1  0
  1 30  1  0
  1 31  1  0
  1 32  1  0
  6 33  1  0
  7 34  1  0
 12 35  1  0
 12 36  1  0
 13 37  1  0
 13 38  1  0
 14 39  1  0
 14 40  1  0
 15 41  1  0
 15 42  1  0
 16 43  1  0
 17 44  1  0
 17 45  1  0
 18 46  1  0
 18 47  1  0
 21 48  1  0
 23 49  1  0
 24 50  1  0
 25 51  1  0
 26 52  1  0
 29 53  1  0
 29 54  1  0
 29 55  1  0
A    1
CAB
A    2
CAU
A    3
OAC
A    4
CAZ
A    5
SAT
A    6
CAI
A    7
CAJ
A    8
CBA
A    9
CAW
A   10
OAE
A   11
NBC
A   12
CAQ
A   13
CAO
A   14
CAP
A   15
CAN
A   16
CBB
A   17
CAM
A   18
CAL
A   19
CAV
A   20
OAD
A   21
NAR
A   22
CAX
A   23
CAK
A   24
CAG
A   25
CAF
A   26
CAH
A   27
CAY
A   28
OAS
A   29
CAA
M  END
