4XE9_OPX_A_701
     RDKit          3D

 42 43  0  0  0  0  0  0  0  0999 V2000
   -9.0590  -32.7590  -21.9200 C   0  0  0  0  0  0  0  0  0  0  0  0
  -10.3320  -33.3860  -22.3960 C   0  0  0  0  0  0  0  0  0  0  0  0
   -8.4240  -31.9770  -23.0230 C   0  0  0  0  0  0  0  0  0  0  0  0
  -11.2760  -32.3670  -22.9570 C   0  0  0  0  0  0  0  0  0  0  0  0
   -9.3540  -30.9580  -23.6140 C   0  0  0  0  0  0  0  0  0  0  0  0
  -11.1030  -29.8210  -25.7050 C   0  0  0  0  0  0  0  0  0  0  0  0
  -11.5290  -27.4340  -25.2870 C   0  0  0  0  0  0  0  0  0  0  0  0
  -11.3360  -28.2010  -27.5250 C   0  0  0  0  0  0  0  0  0  0  0  0
  -11.2560  -26.2870  -26.1990 C   0  0  0  0  0  0  0  0  0  0  0  0
  -10.5110  -26.9810  -27.3360 C   0  0  0  0  0  0  0  0  0  0  0  0
  -10.6510  -31.5590  -24.0510 C   0  0  0  0  0  0  0  0  0  0  0  0
  -11.8550  -28.5670  -26.1840 C   0  0  0  0  0  0  0  0  0  0  0  0
  -11.5750  -30.4720  -24.4640 N   0  0  0  0  0  0  0  0  0  0  0  0
  -13.9310  -29.8320  -27.3120 O   0  0  0  0  0  0  0  0  0  0  0  0
  -14.2430  -27.5410  -26.6740 O   0  0  0  0  0  0  0  0  0  0  0  0
  -10.4730  -25.3950  -25.5990 O   0  0  0  0  0  0  0  0  0  0  0  0
   -9.2770  -27.3250  -26.9620 O   0  0  0  0  0  0  0  0  0  0  0  0
  -14.0960  -29.2500  -24.9690 O   0  0  0  0  0  0  0  0  0  0  0  0
  -13.6140  -28.8170  -26.2860 S   0  0  0  0  0  0  0  0  0  0  0  0
   -9.2782  -32.0865  -21.0776 H   0  0  0  0  0  0  0  0  0  0  0  0
   -8.3674  -33.5516  -21.5983 H   0  0  0  0  0  0  0  0  0  0  0  0
  -10.0959  -34.1221  -23.1786 H   0  0  0  0  0  0  0  0  0  0  0  0
  -10.8194  -33.8678  -21.5356 H   0  0  0  0  0  0  0  0  0  0  0  0
   -7.5398  -31.4583  -22.6240 H   0  0  0  0  0  0  0  0  0  0  0  0
   -8.1523  -32.6841  -23.8206 H   0  0  0  0  0  0  0  0  0  0  0  0
  -12.1586  -32.8855  -23.3596 H   0  0  0  0  0  0  0  0  0  0  0  0
  -11.5519  -31.6788  -22.1444 H   0  0  0  0  0  0  0  0  0  0  0  0
   -9.5590  -30.1857  -22.8580 H   0  0  0  0  0  0  0  0  0  0  0  0
   -8.8649  -30.5313  -24.5021 H   0  0  0  0  0  0  0  0  0  0  0  0
  -10.0529  -29.5343  -25.5469 H   0  0  0  0  0  0  0  0  0  0  0  0
  -11.2754  -30.5676  -26.4942 H   0  0  0  0  0  0  0  0  0  0  0  0
  -12.3780  -27.2082  -24.6250 H   0  0  0  0  0  0  0  0  0  0  0  0
  -10.6718  -27.6566  -24.6346 H   0  0  0  0  0  0  0  0  0  0  0  0
  -10.7205  -29.0175  -27.9307 H   0  0  0  0  0  0  0  0  0  0  0  0
  -12.1567  -28.0216  -28.2351 H   0  0  0  0  0  0  0  0  0  0  0  0
  -12.1511  -25.7326  -26.5175 H   0  0  0  0  0  0  0  0  0  0  0  0
  -10.3920  -26.3565  -28.2337 H   0  0  0  0  0  0  0  0  0  0  0  0
  -10.4556  -32.2338  -24.8974 H   0  0  0  0  0  0  0  0  0  0  0  0
  -12.5114  -30.8690  -24.6266 H   0  0  0  0  0  0  0  0  0  0  0  0
  -10.5565  -25.4901  -24.6171 H   0  0  0  0  0  0  0  0  0  0  0  0
   -9.2238  -27.3398  -25.9735 H   0  0  0  0  0  0  0  0  0  0  0  0
  -13.5813  -28.7877  -24.2609 H   0  0  0  0  0  0  0  0  0  0  0  0
  1  2  1  0
  1  3  1  0
  2  4  1  0
  4 11  1  0
  3  5  1  0
  5 11  1  0
 11 13  1  0
 13  6  1  0
 14 19  2  0
  7 12  1  0
  7  9  1  0
 16  9  1  0
  6 12  1  0
 12 19  1  0
 12  8  1  0
  9 10  1  0
 19 15  2  0
 19 18  1  0
 17 10  1  0
 10  8  1  0
  1 20  1  0
  1 21  1  0
  2 22  1  0
  2 23  1  0
  3 24  1  0
  3 25  1  0
  4 26  1  0
  4 27  1  0
  5 28  1  0
  5 29  1  0
  6 30  1  0
  6 31  1  0
  7 32  1  0
  7 33  1  0
  8 34  1  0
  8 35  1  0
  9 36  1  0
 10 37  1  0
 11 38  1  0
 13 39  1  0
 16 40  1  0
 17 41  1  0
 18 42  1  0
A    1
CAF
A    2
CAG
A    3
CAH
A    4
CAI
A    5
CAJ
A    6
CAK
A    7
CAL
A    8
CAM
A    9
CAO
A   10
CAP
A   11
CAQ
A   12
CAR
A   13
NAN
A   14
OAA
A   15
OAB
A   16
OAC
A   17
OAD
A   18
OAE
A   19
SAS
M  END
