4XM8_41T_A_801
     RDKit          3D

 53 53  0  0  0  0  0  0  0  0999 V2000
   11.0890   19.1830   27.4260 C   0  0  0  0  0  0  0  0  0  0  0  0
   11.9960   19.2410   28.6280 C   0  0  0  0  0  0  0  0  0  0  0  0
   13.8480   20.2620   29.7040 O   0  0  0  0  0  0  0  0  0  0  0  0
    9.6840   19.5490   27.6710 N   0  0  0  0  0  0  0  0  0  0  0  0
    9.0700   18.9590   28.8660 C   0  0  0  0  0  0  0  0  0  0  0  0
    8.3190   20.0310   29.6580 C   0  0  0  0  0  0  0  0  0  0  0  0
    9.2740   21.0090   30.3280 C   0  0  0  0  0  0  0  0  0  0  0  0
    7.3720   19.4220   30.6870 C   0  0  0  0  0  0  0  0  0  0  0  0
    8.7690   21.9670   27.0900 C   0  0  0  0  0  0  0  0  0  0  0  0
    7.4920   22.5120   27.1490 C   0  0  0  0  0  0  0  0  0  0  0  0
    7.3120   23.8460   27.4880 C   0  0  0  0  0  0  0  0  0  0  0  0
    9.8770   22.7600   27.3640 C   0  0  0  0  0  0  0  0  0  0  0  0
    5.9110   24.4130   27.5430 C   0  0  0  0  0  0  0  0  0  0  0  0
    4.4800   26.0720   26.6770 C   0  0  0  0  0  0  0  0  0  0  0  0
   12.5540   17.3520   26.5240 C   0  0  0  0  0  0  0  0  0  0  0  0
   11.9210   18.2160   29.6780 O   0  0  0  0  0  0  0  0  0  0  0  0
   12.9200   20.2400   28.7170 N   0  0  0  0  0  0  0  0  0  0  0  0
    8.9170   20.4320   26.6850 S   0  0  0  0  0  0  0  0  0  0  0  0
    7.5970   19.8970   26.5110 O   0  0  0  0  0  0  0  0  0  0  0  0
    9.5890   20.4010   25.4180 O   0  0  0  0  0  0  0  0  0  0  0  0
    8.4190   24.6410   27.7600 C   0  0  0  0  0  0  0  0  0  0  0  0
    9.7000   24.0990   27.7010 C   0  0  0  0  0  0  0  0  0  0  0  0
    5.8360   25.6820   26.8990 O   0  0  0  0  0  0  0  0  0  0  0  0
   11.1360   17.7260   26.9480 C   0  0  0  0  0  0  0  0  0  0  0  0
   10.1450   17.3530   25.8470 C   0  0  0  0  0  0  0  0  0  0  0  0
   11.4486   19.9238   26.6966 H   0  0  0  0  0  0  0  0  0  0  0  0
   13.3943   20.2512   30.5838 H   0  0  0  0  0  0  0  0  0  0  0  0
    8.3649   18.1717   28.5612 H   0  0  0  0  0  0  0  0  0  0  0  0
    9.8595   18.5307   29.5010 H   0  0  0  0  0  0  0  0  0  0  0  0
    7.7123   20.5891   28.9297 H   0  0  0  0  0  0  0  0  0  0  0  0
    9.1851   20.9180   31.4206 H   0  0  0  0  0  0  0  0  0  0  0  0
   10.3061   20.7804   30.0238 H   0  0  0  0  0  0  0  0  0  0  0  0
    9.0209   22.0353   30.0238 H   0  0  0  0  0  0  0  0  0  0  0  0
    7.7328   19.6540   31.6999 H   0  0  0  0  0  0  0  0  0  0  0  0
    6.3643   19.8418   30.5516 H   0  0  0  0  0  0  0  0  0  0  0  0
    7.3359   18.3310   30.5516 H   0  0  0  0  0  0  0  0  0  0  0  0
    6.6182   21.8822   26.9256 H   0  0  0  0  0  0  0  0  0  0  0  0
   10.8890   22.3316   27.3148 H   0  0  0  0  0  0  0  0  0  0  0  0
    5.6129   24.5281   28.5956 H   0  0  0  0  0  0  0  0  0  0  0  0
    5.2369   23.7194   27.0190 H   0  0  0  0  0  0  0  0  0  0  0  0
    3.9770   26.2167   27.6445 H   0  0  0  0  0  0  0  0  0  0  0  0
    4.4576   27.0130   26.1078 H   0  0  0  0  0  0  0  0  0  0  0  0
    3.9611   25.2867   26.1078 H   0  0  0  0  0  0  0  0  0  0  0  0
   13.1731   17.1887   27.4184 H   0  0  0  0  0  0  0  0  0  0  0  0
   12.5263   16.4305   25.9240 H   0  0  0  0  0  0  0  0  0  0  0  0
   12.9844   18.1673   25.9240 H   0  0  0  0  0  0  0  0  0  0  0  0
   12.9123   20.9958   28.0173 H   0  0  0  0  0  0  0  0  0  0  0  0
    8.2828   25.7005   28.0224 H   0  0  0  0  0  0  0  0  0  0  0  0
   10.5738   24.7299   27.9211 H   0  0  0  0  0  0  0  0  0  0  0  0
   10.8183   17.1395   27.8227 H   0  0  0  0  0  0  0  0  0  0  0  0
    9.2075   17.0002   26.3016 H   0  0  0  0  0  0  0  0  0  0  0  0
    9.9405   18.2357   25.2233 H   0  0  0  0  0  0  0  0  0  0  0  0
   10.5733   16.5545   25.2233 H   0  0  0  0  0  0  0  0  0  0  0  0
 20 18  2  0
 25 24  1  0
 19 18  2  0
 15 24  1  0
 14 23  1  0
 18  9  1  0
 18  4  1  0
 23 13  1  0
 24  1  1  0
  9 10  2  0
  9 12  1  0
 10 11  1  0
 12 22  2  0
  1  4  1  0
  1  2  1  0
 11 13  1  0
 11 21  2  0
  4  5  1  0
 22 21  1  0
  2 17  1  0
  2 16  2  0
 17  3  1  0
  5  6  1  0
  6  7  1  0
  6  8  1  0
  1 26  1  0
  3 27  1  0
  5 28  1  0
  5 29  1  0
  6 30  1  0
  7 31  1  0
  7 32  1  0
  7 33  1  0
  8 34  1  0
  8 35  1  0
  8 36  1  0
 10 37  1  0
 12 38  1  0
 13 39  1  0
 13 40  1  0
 14 41  1  0
 14 42  1  0
 14 43  1  0
 15 44  1  0
 15 45  1  0
 15 46  1  0
 17 47  1  0
 21 48  1  0
 22 49  1  0
 24 50  1  0
 25 51  1  0
 25 52  1  0
 25 53  1  0
A    1
C1
A    2
C2
A    3
O5
A    4
N6
A    5
C7
A    6
C8
A    7
C9
A    8
C10
A    9
C14
A   10
C15
A   11
C16
A   12
C19
A   13
C20
A   14
C22
A   15
C24
A   16
O3
A   17
N4
A   18
S11
A   19
O12
A   20
O13
A   21
C17
A   22
C18
A   23
O21
A   24
C23
A   25
C25
M  END
