4XMB_41P_A_701
     RDKit          3D

 70 73  0  0  0  0  0  0  0  0999 V2000
    2.8590   -2.9350  -21.5040 C   0  0  0  0  0  0  0  0  0  0  0  0
    1.6970   -3.6440  -20.7610 C   0  0  0  0  0  0  0  0  0  0  0  0
    5.0630   -1.7830  -29.8170 C   0  0  0  0  0  0  0  0  0  0  0  0
    5.5550   -1.6680  -28.5060 O   0  0  0  0  0  0  0  0  0  0  0  0
    4.6500   -1.6960  -27.3920 C   0  0  0  0  0  0  0  0  0  0  0  0
    4.2360   -2.9870  -26.8220 C   0  0  0  0  0  0  0  0  0  0  0  0
    3.3270   -3.0240  -25.7020 C   0  0  0  0  0  0  0  0  0  0  0  0
    4.1780   -0.5390  -26.8590 C   0  0  0  0  0  0  0  0  0  0  0  0
    3.2580   -0.5800  -25.7200 C   0  0  0  0  0  0  0  0  0  0  0  0
    2.8490   -1.8560  -25.1670 C   0  0  0  0  0  0  0  0  0  0  0  0
    1.7090   -1.9220  -23.7470 S   0  0  0  0  0  0  0  0  0  0  0  0
    2.5700   -1.7970  -22.3590 N   0  0  0  0  0  0  0  0  0  0  0  0
    1.9920   -4.7670  -19.9010 N   0  0  0  0  0  0  0  0  0  0  0  0
    0.6170   -3.2750  -20.8890 O   0  0  0  0  0  0  0  0  0  0  0  0
    3.1260   -0.4860  -21.9840 C   0  0  0  0  0  0  0  0  0  0  0  0
    4.4340   -0.2000  -22.3890 C   0  0  0  0  0  0  0  0  0  0  0  0
    5.0320    1.0660  -22.0520 C   0  0  0  0  0  0  0  0  0  0  0  0
    4.3220    1.9770  -21.3260 C   0  0  0  0  0  0  0  0  0  0  0  0
    4.9470    3.2360  -21.0390 N   0  0  0  0  0  0  0  0  0  0  0  0
    5.9070    3.4150  -19.9470 C   0  0  0  0  0  0  0  0  0  0  0  0
    5.6460    2.8340  -18.6440 C   0  0  0  0  0  0  0  0  0  0  0  0
    5.3590    3.7210  -17.5020 N   0  0  0  0  0  0  0  0  0  0  0  0
    5.6720    1.6710  -18.4990 O   0  0  0  0  0  0  0  0  0  0  0  0
    4.5880    4.4460  -22.0780 S   0  0  0  0  0  0  0  0  0  0  0  0
    5.5490    4.0970  -23.5700 C   0  0  0  0  0  0  0  0  0  0  0  0
    6.7860    4.6410  -23.7190 C   0  0  0  0  0  0  0  0  0  0  0  0
    7.5270    4.3660  -24.8520 C   0  0  0  0  0  0  0  0  0  0  0  0
    7.0120    3.5230  -25.8410 C   0  0  0  0  0  0  0  0  0  0  0  0
    7.7510    3.2640  -26.9470 O   0  0  0  0  0  0  0  0  0  0  0  0
    8.9620    2.5400  -26.8120 C   0  0  0  0  0  0  0  0  0  0  0  0
    5.7730    2.9660  -25.6920 C   0  0  0  0  0  0  0  0  0  0  0  0
    5.0290    3.2360  -24.5620 C   0  0  0  0  0  0  0  0  0  0  0  0
    4.8630    5.7230  -21.5270 O   0  0  0  0  0  0  0  0  0  0  0  0
    3.1750    4.5460  -22.3780 O   0  0  0  0  0  0  0  0  0  0  0  0
    2.9740    1.6950  -20.9190 C   0  0  0  0  0  0  0  0  0  0  0  0
    2.3890    0.4520  -21.2490 C   0  0  0  0  0  0  0  0  0  0  0  0
    1.0770    0.1660  -20.8410 C   0  0  0  0  0  0  0  0  0  0  0  0
    0.3420    1.1140  -20.1070 C   0  0  0  0  0  0  0  0  0  0  0  0
    0.9360    2.3820  -19.7690 C   0  0  0  0  0  0  0  0  0  0  0  0
    2.2220    2.6650  -20.1660 C   0  0  0  0  0  0  0  0  0  0  0  0
    0.8940   -3.1520  -23.7770 O   0  0  0  0  0  0  0  0  0  0  0  0
    0.6920   -0.9100  -23.8510 O   0  0  0  0  0  0  0  0  0  0  0  0
    3.3464   -3.6935  -22.1341 H   0  0  0  0  0  0  0  0  0  0  0  0
    3.4607   -2.5023  -20.6911 H   0  0  0  0  0  0  0  0  0  0  0  0
    3.9923   -2.0333  -29.7862 H   0  0  0  0  0  0  0  0  0  0  0  0
    5.2013   -0.8283  -30.3456 H   0  0  0  0  0  0  0  0  0  0  0  0
    5.6102   -2.5775  -30.3456 H   0  0  0  0  0  0  0  0  0  0  0  0
    4.6196   -3.9250  -27.2498 H   0  0  0  0  0  0  0  0  0  0  0  0
    3.0174   -3.9903  -25.2772 H   0  0  0  0  0  0  0  0  0  0  0  0
    4.4866    0.4281  -27.2826 H   0  0  0  0  0  0  0  0  0  0  0  0
    2.8780    0.3561  -25.2849 H   0  0  0  0  0  0  0  0  0  0  0  0
    1.9623   -4.6538  -18.8777 H   0  0  0  0  0  0  0  0  0  0  0  0
    2.2320   -5.6808  -20.3113 H   0  0  0  0  0  0  0  0  0  0  0  0
    5.0060   -0.9423  -22.9651 H   0  0  0  0  0  0  0  0  0  0  0  0
    6.0566    1.2974  -22.3785 H   0  0  0  0  0  0  0  0  0  0  0  0
    6.8633    2.9968  -20.2944 H   0  0  0  0  0  0  0  0  0  0  0  0
    5.8662    4.4968  -19.7520 H   0  0  0  0  0  0  0  0  0  0  0  0
    5.4715    3.3734  -16.5390 H   0  0  0  0  0  0  0  0  0  0  0  0
    5.0460    4.6883  -17.6671 H   0  0  0  0  0  0  0  0  0  0  0  0
    7.1961    5.2990  -22.9387 H   0  0  0  0  0  0  0  0  0  0  0  0
    8.5250    4.8116  -24.9762 H   0  0  0  0  0  0  0  0  0  0  0  0
    9.1905    2.4034  -25.7447 H   0  0  0  0  0  0  0  0  0  0  0  0
    8.8568    1.5565  -27.2933 H   0  0  0  0  0  0  0  0  0  0  0  0
    9.7785    3.0982  -27.2933 H   0  0  0  0  0  0  0  0  0  0  0  0
    5.3695    2.3034  -26.4718 H   0  0  0  0  0  0  0  0  0  0  0  0
    4.0349    2.7827  -24.4340 H   0  0  0  0  0  0  0  0  0  0  0  0
    0.6222   -0.8026  -21.0961 H   0  0  0  0  0  0  0  0  0  0  0  0
   -0.6869    0.8871  -19.7909 H   0  0  0  0  0  0  0  0  0  0  0  0
    0.3616    3.1232  -19.1939 H   0  0  0  0  0  0  0  0  0  0  0  0
    2.6764    3.6330  -19.9081 H   0  0  0  0  0  0  0  0  0  0  0  0
  3  4  1  0
  4  5  1  0
  5  8  2  0
  5  6  1  0
 29 30  1  0
 29 28  1  0
  8  9  1  0
  6  7  2  0
 28 31  2  0
 28 27  1  0
  9 10  2  0
  7 10  1  0
 31 32  1  0
 10 11  1  0
 27 26  2  0
 32 25  2  0
 42 11  2  0
 41 11  2  0
 11 12  1  0
 26 25  1  0
 25 24  1  0
 16 17  2  0
 16 15  1  0
 34 24  2  0
 12 15  1  0
 12  1  1  0
 24 33  2  0
 24 19  1  0
 17 18  1  0
 15 36  2  0
  1  2  1  0
 18 19  1  0
 18 35  2  0
 36 35  1  0
 36 37  1  0
 19 20  1  0
 35 40  1  0
 14  2  2  0
 37 38  2  0
  2 13  1  0
 40 39  2  0
 38 39  1  0
 20 21  1  0
 21 23  2  0
 21 22  1  0
  1 43  1  0
  1 44  1  0
  3 45  1  0
  3 46  1  0
  3 47  1  0
  6 48  1  0
  7 49  1  0
  8 50  1  0
  9 51  1  0
 13 52  1  0
 13 53  1  0
 16 54  1  0
 17 55  1  0
 20 56  1  0
 20 57  1  0
 22 58  1  0
 22 59  1  0
 26 60  1  0
 27 61  1  0
 30 62  1  0
 30 63  1  0
 30 64  1  0
 31 65  1  0
 32 66  1  0
 37 67  1  0
 38 68  1  0
 39 69  1  0
 40 70  1  0
A    1
C11
A    2
C12
A    3
C01
A    4
O02
A    5
C03
A    6
C04
A    7
C05
A    8
C06
A    9
C07
A   10
C08
A   11
S09
A   12
N10
A   13
N13
A   14
O14
A   15
C15
A   16
C16
A   17
C17
A   18
C18
A   19
N19
A   20
C20
A   21
C21
A   22
N22
A   23
O23
A   24
S24
A   25
C25
A   26
C26
A   27
C27
A   28
C28
A   29
O29
A   30
C30
A   31
C31
A   32
C32
A   33
O33
A   34
O34
A   35
C35
A   36
C36
A   37
C37
A   38
C38
A   39
C39
A   40
C40
A   41
O41
A   42
O42
M  END
