4XMO_46G_A_1401
     RDKit          3D

 48 52  0  0  0  0  0  0  0  0999 V2000
   28.2660   32.0700   60.4490 C   0  0  0  0  0  0  0  0  0  0  0  0
   27.0260   31.8420   59.6040 C   0  0  0  0  0  0  0  0  0  0  0  0
   26.2650   30.7420   59.6180 C   0  0  0  0  0  0  0  0  0  0  0  0
   26.5630   32.7450   58.7550 N   0  0  0  0  0  0  0  0  0  0  0  0
   25.4180   32.1930   58.1870 O   0  0  0  0  0  0  0  0  0  0  0  0
   25.2570   30.9680   58.7640 C   0  0  0  0  0  0  0  0  0  0  0  0
   24.2370   30.1360   58.3300 C   0  0  0  0  0  0  0  0  0  0  0  0
   24.1480   28.8190   58.7730 C   0  0  0  0  0  0  0  0  0  0  0  0
   23.1630   27.9680   58.2880 C   0  0  0  0  0  0  0  0  0  0  0  0
   23.0760   26.7020   58.7280 F   0  0  0  0  0  0  0  0  0  0  0  0
   23.3490   30.5980   57.3500 C   0  0  0  0  0  0  0  0  0  0  0  0
   22.3660   29.7250   56.8800 N   0  0  0  0  0  0  0  0  0  0  0  0
   22.2660   28.4160   57.3240 C   0  0  0  0  0  0  0  0  0  0  0  0
   21.2430   27.8560   56.6830 N   0  0  0  0  0  0  0  0  0  0  0  0
   20.7070   28.6720   55.8940 N   0  0  0  0  0  0  0  0  0  0  0  0
   21.3450   29.8320   55.9660 C   0  0  0  0  0  0  0  0  0  0  0  0
   21.0470   31.1090   55.2020 C   0  0  0  0  0  0  0  0  0  0  0  0
   20.2060   30.7610   53.9500 C   0  0  0  0  0  0  0  0  0  0  0  0
   22.2070   31.6750   54.9090 F   0  0  0  0  0  0  0  0  0  0  0  0
   20.2560   32.0380   56.1450 C   0  0  0  0  0  0  0  0  0  0  0  0
   20.8140   33.2190   56.6260 C   0  0  0  0  0  0  0  0  0  0  0  0
   20.0710   34.0410   57.4860 C   0  0  0  0  0  0  0  0  0  0  0  0
   20.5990   35.2330   57.9820 C   0  0  0  0  0  0  0  0  0  0  0  0
   19.8000   36.0040   58.8410 C   0  0  0  0  0  0  0  0  0  0  0  0
   20.1890   37.1910   59.3960 O   0  0  0  0  0  0  0  0  0  0  0  0
   21.6070   37.3390   59.6110 C   0  0  0  0  0  0  0  0  0  0  0  0
   18.5220   35.5620   59.1520 C   0  0  0  0  0  0  0  0  0  0  0  0
   18.0360   34.4350   58.6660 N   0  0  0  0  0  0  0  0  0  0  0  0
   18.7700   33.6680   57.8450 C   0  0  0  0  0  0  0  0  0  0  0  0
   18.2200   32.4860   57.3740 C   0  0  0  0  0  0  0  0  0  0  0  0
   18.9580   31.6720   56.5200 C   0  0  0  0  0  0  0  0  0  0  0  0
   27.9977   32.0207   61.5146 H   0  0  0  0  0  0  0  0  0  0  0  0
   29.0119   31.2940   60.2224 H   0  0  0  0  0  0  0  0  0  0  0  0
   28.6871   33.0606   60.2224 H   0  0  0  0  0  0  0  0  0  0  0  0
   26.4332   29.8320   60.2127 H   0  0  0  0  0  0  0  0  0  0  0  0
   24.8676   28.4473   59.5173 H   0  0  0  0  0  0  0  0  0  0  0  0
   23.4244   31.6238   56.9602 H   0  0  0  0  0  0  0  0  0  0  0  0
   19.2317   30.3578   54.2632 H   0  0  0  0  0  0  0  0  0  0  0  0
   20.0509   31.6688   53.3485 H   0  0  0  0  0  0  0  0  0  0  0  0
   20.7377   30.0090   53.3485 H   0  0  0  0  0  0  0  0  0  0  0  0
   21.8344   33.5067   56.3326 H   0  0  0  0  0  0  0  0  0  0  0  0
   21.6129   35.5597   57.7078 H   0  0  0  0  0  0  0  0  0  0  0  0
   21.8138   37.3606   60.6912 H   0  0  0  0  0  0  0  0  0  0  0  0
   22.1378   36.4914   59.1529 H   0  0  0  0  0  0  0  0  0  0  0  0
   21.9513   38.2780   59.1529 H   0  0  0  0  0  0  0  0  0  0  0  0
   17.8957   36.1683   59.8230 H   0  0  0  0  0  0  0  0  0  0  0  0
   17.2034   32.1924   57.6744 H   0  0  0  0  0  0  0  0  0  0  0  0
   18.5199   30.7379   56.1384 H   0  0  0  0  0  0  0  0  0  0  0  0
 18 17  1  0
 19 17  1  0
 17 16  1  0
 17 20  1  0
 15 16  2  0
 15 14  1  0
 16 12  1  0
 20 31  1  0
 20 21  2  0
 31 30  2  0
 21 22  1  0
 14 13  2  0
 12 13  1  0
 12 11  1  0
 13  9  1  0
 11  7  2  0
 30 29  1  0
 22 29  2  0
 22 23  1  0
 29 28  1  0
 23 24  2  0
  5  4  1  0
  5  6  1  0
  9 10  1  0
  9  8  2  0
  7  6  1  0
  7  8  1  0
 28 27  2  0
  4  2  2  0
  6  3  2  0
 24 27  1  0
 24 25  1  0
 25 26  1  0
  2  3  1  0
  2  1  1  0
  1 32  1  0
  1 33  1  0
  1 34  1  0
  3 35  1  0
  8 36  1  0
 11 37  1  0
 18 38  1  0
 18 39  1  0
 18 40  1  0
 21 41  1  0
 23 42  1  0
 26 43  1  0
 26 44  1  0
 26 45  1  0
 27 46  1  0
 30 47  1  0
 31 48  1  0
A    1
C22
A    2
C21
A    3
C20
A    4
N5
A    5
O2
A    6
C7
A    7
C1
A    8
C2
A    9
C3
A   10
F1
A   11
C5
A   12
N1
A   13
C4
A   14
N2
A   15
N3
A   16
C6
A   17
C8
A   18
C18
A   19
F2
A   20
C9
A   21
C14
A   22
C13
A   23
C17
A   24
C16
A   25
O1
A   26
C19
A   27
C15
A   28
N4
A   29
C12
A   30
C11
A   31
C10
M  END
