3D3S_DAB_D_167
     RDKit          3D

 18 17  0  0  0  0  0  0  0  0999 V2000
  -20.5700   12.2690   65.9310 N   0  0  0  0  0  0  0  0  0  0  0  0
  -19.8090   11.0610   65.4900 C   0  0  0  0  0  0  0  0  0  0  0  0
  -18.7310   10.7180   66.5560 C   0  0  0  0  0  0  0  0  0  0  0  0
  -17.6650   10.0160   66.3630 O   0  0  0  0  0  0  0  0  0  0  0  0
  -19.3670   11.5000   64.1030 C   0  0  0  0  0  0  0  0  0  0  0  0
  -20.4050   11.1150   62.9890 C   0  0  0  0  0  0  0  0  0  0  0  0
  -20.5560   12.0770   61.9100 N   0  0  0  0  0  0  0  0  0  0  0  0
  -18.8440   11.1020   67.8010 O   0  0  0  0  0  0  0  0  0  0  0  0
  -20.5921   12.3041   66.9602 H   0  0  0  0  0  0  0  0  0  0  0  0
  -20.1097   13.1161   65.5684 H   0  0  0  0  0  0  0  0  0  0  0  0
  -20.3318   10.0962   65.4144 H   0  0  0  0  0  0  0  0  0  0  0  0
  -19.2392   12.5926   64.1032 H   0  0  0  0  0  0  0  0  0  0  0  0
  -18.4243   10.9816   63.8738 H   0  0  0  0  0  0  0  0  0  0  0  0
  -20.0881   10.1586   62.5475 H   0  0  0  0  0  0  0  0  0  0  0  0
  -21.3825   11.0715   63.4915 H   0  0  0  0  0  0  0  0  0  0  0  0
  -20.7035   13.0164   62.3057 H   0  0  0  0  0  0  0  0  0  0  0  0
  -19.7050   12.0786   61.3298 H   0  0  0  0  0  0  0  0  0  0  0  0
  -18.6564   10.4643   68.5347 H   0  0  0  0  0  0  0  0  0  0  0  0
  1  2  1  0
  2  3  1  0
  2  5  1  0
  3  4  2  0
  3  8  1  0
  5  6  1  0
  6  7  1  0
  1  9  1  0
  1 10  1  0
  2 11  1  0
  5 12  1  0
  5 13  1  0
  6 14  1  0
  6 15  1  0
  7 16  1  0
  7 17  1  0
  8 18  1  0
A    1
N
A    2
CA
A    3
C
A    4
O
A    5
CB
A    6
CG
A    7
ND
A    8
OXT
M  END
