1AT1_MLI_A_312
     RDKit          3D

  9  8  0  0  0  0  0  0  0  0999 V2000
   42.4560   31.4390   19.4120 C   0  0  0  0  0  0  0  0  0  0  0  0
   41.5500   31.4300   18.1720 C   0  0  0  0  0  0  0  0  0  0  0  0
   42.3690   30.0080   20.1830 C   0  0  0  0  0  0  0  0  0  0  0  0
   42.0340   31.7250   17.0550 O   0  0  0  0  0  0  0  0  0  0  0  0
   40.3630   31.3310   18.4360 O   0  0  0  0  0  0  0  0  0  0  0  0
   41.6240   29.0990   20.0130 O   0  0  0  0  0  0  0  0  0  0  0  0
   43.0470   29.5780   21.0240 O   0  0  0  0  0  0  0  0  0  0  0  0
   43.4953   31.6216   19.1012 H   0  0  0  0  0  0  0  0  0  0  0  0
   42.1224   32.2348   20.0942 H   0  0  0  0  0  0  0  0  0  0  0  0
  1  2  1  0
  1  3  1  0
  2  4  2  0
  2  5  1  0
  3  6  2  0
  3  7  1  0
  1  8  1  0
  1  9  1  0
M  CHG  2   5  -1   7  -1
A    1
C1
A    2
C2
A    3
C3
A    4
O6
A    5
O7
A    6
O8
A    7
O9
M  END
