4XOZ_620_A_401
     RDKit          3D

 38 40  0  0  0  0  0  0  0  0999 V2000
   -8.9050    9.7920   35.9380 C   0  0  0  0  0  0  0  0  0  0  0  0
   -7.9220    9.0660   35.2720 C   0  0  0  0  0  0  0  0  0  0  0  0
   -6.8180    9.7070   34.6990 C   0  0  0  0  0  0  0  0  0  0  0  0
   -6.6910   11.0830   34.8500 C   0  0  0  0  0  0  0  0  0  0  0  0
   -7.6610   11.7890   35.5470 C   0  0  0  0  0  0  0  0  0  0  0  0
   -8.7200   11.1410   36.1720 C   0  0  0  0  0  0  0  0  0  0  0  0
   -9.8190   12.0030   36.7950 C   0  0  0  0  0  0  0  0  0  0  0  0
  -11.0310   11.4120   36.8210 O   0  0  0  0  0  0  0  0  0  0  0  0
  -12.1540   11.9980   37.3320 C   0  0  0  0  0  0  0  0  0  0  0  0
  -12.1100   12.6350   38.5650 C   0  0  0  0  0  0  0  0  0  0  0  0
  -13.3800   11.8360   36.6520 C   0  0  0  0  0  0  0  0  0  0  0  0
  -14.5550   12.3660   37.2000 C   0  0  0  0  0  0  0  0  0  0  0  0
  -14.4920   13.0100   38.4550 C   0  0  0  0  0  0  0  0  0  0  0  0
  -13.2620   13.1820   39.1280 C   0  0  0  0  0  0  0  0  0  0  0  0
  -13.2650   13.8520   40.5270 C   0  0  0  0  0  0  0  0  0  0  0  0
  -14.3390   12.9260   40.8720 N   0  0  0  0  0  0  0  0  0  0  0  0
  -15.4230   13.0120   41.4140 N   0  0  0  0  0  0  0  0  0  0  0  0
  -16.0090   13.9690   41.9060 N   0  0  0  0  0  0  0  0  0  0  0  0
  -17.1120   13.5590   42.2960 N   0  0  0  0  0  0  0  0  0  0  0  0
  -17.2640   12.3450   42.0640 N   0  0  0  0  0  0  0  0  0  0  0  0
  -16.1350   11.9320   41.5420 C   0  0  0  0  0  0  0  0  0  0  0  0
  -15.8340   10.7290   41.0210 N   0  0  0  0  0  0  0  0  0  0  0  0
   -9.8254    9.2938   36.2767 H   0  0  0  0  0  0  0  0  0  0  0  0
   -8.0142    7.9726   35.1949 H   0  0  0  0  0  0  0  0  0  0  0  0
   -6.0648    9.1328   34.1396 H   0  0  0  0  0  0  0  0  0  0  0  0
   -5.8263   11.6092   34.4193 H   0  0  0  0  0  0  0  0  0  0  0  0
   -7.5904   12.8851   35.6062 H   0  0  0  0  0  0  0  0  0  0  0  0
   -9.5278   12.2408   37.8288 H   0  0  0  0  0  0  0  0  0  0  0  0
   -9.9156   12.8997   36.1653 H   0  0  0  0  0  0  0  0  0  0  0  0
  -11.1541   12.7089   39.1043 H   0  0  0  0  0  0  0  0  0  0  0  0
  -13.4127   11.2952   35.6947 H   0  0  0  0  0  0  0  0  0  0  0  0
  -15.5107   12.2820   36.6618 H   0  0  0  0  0  0  0  0  0  0  0  0
  -15.4174   13.3845   38.9169 H   0  0  0  0  0  0  0  0  0  0  0  0
  -12.3380   13.7205   41.1045 H   0  0  0  0  0  0  0  0  0  0  0  0
  -13.3647   14.9399   40.6559 H   0  0  0  0  0  0  0  0  0  0  0  0
  -14.1250   11.9603   40.5849 H   0  0  0  0  0  0  0  0  0  0  0  0
  -15.6349    9.9332   41.6439 H   0  0  0  0  0  0  0  0  0  0  0  0
  -15.8026   10.6036   39.9991 H   0  0  0  0  0  0  0  0  0  0  0  0
  3  4  2  0
  3  2  1  0
  4  5  1  0
  2  1  2  0
  5  6  2  0
  1  6  1  0
  6  7  1  0
 11 12  2  0
 11  9  1  0
  7  8  1  0
  8  9  1  0
 12 13  1  0
  9 10  2  0
 13 14  2  0
 10 14  1  0
 14 15  1  0
 15 16  1  0
 16 17  1  0
 22 21  1  0
 17 21  1  0
 17 18  1  0
 21 20  2  0
 18 19  2  0
 20 19  1  0
  1 23  1  0
  2 24  1  0
  3 25  1  0
  4 26  1  0
  5 27  1  0
  7 28  1  0
  7 29  1  0
 10 30  1  0
 11 31  1  0
 12 32  1  0
 13 33  1  0
 15 34  1  0
 15 35  1  0
 16 36  1  0
 22 37  1  0
 22 38  1  0
A    1
CAR
A    2
CAU
A    3
CAV
A    4
CAT
A    5
CAS
A    6
CAN
A    7
CAM
A    8
OAH
A    9
CAJ
A   10
CAK
A   11
CAP
A   12
CAO
A   13
CAQ
A   14
CAL
A   15
CAI
A   16
NAF
A   17
NAA
A   18
NAC
A   19
NAE
A   20
NAD
A   21
CAB
A   22
NAG
M  END
