4XT9_43V_A_601
     RDKit          3D

 54 57  0  0  0  0  0  0  0  0999 V2000
   -3.3620   27.1630   12.2080 N   0  0  0  0  0  0  0  0  0  0  0  0
    0.7060   26.1890   14.0580 C   0  0  0  0  0  0  0  0  0  0  0  0
   -0.2410   26.7240   13.1930 C   0  0  0  0  0  0  0  0  0  0  0  0
   -0.2300   26.3970   11.8380 C   0  0  0  0  0  0  0  0  0  0  0  0
   -1.3180   26.9900   10.9210 C   0  0  0  0  0  0  0  0  0  0  0  0
   -2.6310   26.3690   11.4300 C   0  0  0  0  0  0  0  0  0  0  0  0
   -6.1740   26.9440   14.3600 C   0  0  0  0  0  0  0  0  0  0  0  0
   -7.7130   24.4850   15.6390 C   0  0  0  0  0  0  0  0  0  0  0  0
   -9.5020   22.9600   15.0330 C   0  0  0  0  0  0  0  0  0  0  0  0
   -8.2280   24.1040   13.3230 C   0  0  0  0  0  0  0  0  0  0  0  0
   -6.6530   28.8830   17.4440 C   0  0  0  0  0  0  0  0  0  0  0  0
   -8.0280   29.0790   17.4700 C   0  0  0  0  0  0  0  0  0  0  0  0
   -8.8210   28.5640   16.4450 C   0  0  0  0  0  0  0  0  0  0  0  0
    0.7340   25.5110   11.3490 C   0  0  0  0  0  0  0  0  0  0  0  0
    0.7740   23.1770   15.8070 C   0  0  0  0  0  0  0  0  0  0  0  0
    2.2170   23.0390   15.2960 C   0  0  0  0  0  0  0  0  0  0  0  0
    2.8650   24.6460   14.7060 S   0  0  0  0  0  0  0  0  0  0  0  0
    4.1690   24.4300   14.0040 O   0  0  0  0  0  0  0  0  0  0  0  0
    3.0320   25.5240   15.9140 O   0  0  0  0  0  0  0  0  0  0  0  0
    1.6810   25.3230   13.5790 C   0  0  0  0  0  0  0  0  0  0  0  0
    1.6880   24.9800   12.2190 C   0  0  0  0  0  0  0  0  0  0  0  0
   -2.9150   25.2080   11.1590 O   0  0  0  0  0  0  0  0  0  0  0  0
   -4.4680   26.7460   12.8460 C   0  0  0  0  0  0  0  0  0  0  0  0
   -5.0830   27.4890   13.7710 N   0  0  0  0  0  0  0  0  0  0  0  0
   -5.2680   25.2500   12.7370 S   0  0  0  0  0  0  0  0  0  0  0  0
   -6.4420   25.6340   13.9040 C   0  0  0  0  0  0  0  0  0  0  0  0
   -7.4630   24.7530   14.2890 C   0  0  0  0  0  0  0  0  0  0  0  0
   -9.2480   23.2170   13.6850 C   0  0  0  0  0  0  0  0  0  0  0  0
   -8.7300   23.5980   16.0080 C   0  0  0  0  0  0  0  0  0  0  0  0
   -6.8790   27.6370   15.3550 C   0  0  0  0  0  0  0  0  0  0  0  0
   -6.1000   28.1680   16.3850 C   0  0  0  0  0  0  0  0  0  0  0  0
   -5.6350   29.5220   18.7030 Cl  0  0  0  0  0  0  0  0  0  0  0  0
   -8.2620   27.8480   15.3880 C   0  0  0  0  0  0  0  0  0  0  0  0
   -9.3320   27.2550   14.1680 Cl  0  0  0  0  0  0  0  0  0  0  0  0
   -3.0662   28.1425   12.3265 H   0  0  0  0  0  0  0  0  0  0  0  0
    0.6835   26.4522   15.1258 H   0  0  0  0  0  0  0  0  0  0  0  0
   -1.0065   27.4120   13.5812 H   0  0  0  0  0  0  0  0  0  0  0  0
   -1.1370   26.7114    9.8724 H   0  0  0  0  0  0  0  0  0  0  0  0
   -1.3362   28.0895   10.9503 H   0  0  0  0  0  0  0  0  0  0  0  0
   -7.1063   24.9746   16.4151 H   0  0  0  0  0  0  0  0  0  0  0  0
  -10.3012   22.2628   15.3250 H   0  0  0  0  0  0  0  0  0  0  0  0
   -8.0271   24.2917   12.2579 H   0  0  0  0  0  0  0  0  0  0  0  0
   -8.4899   29.6388   18.2966 H   0  0  0  0  0  0  0  0  0  0  0  0
   -9.9087   28.7260   16.4712 H   0  0  0  0  0  0  0  0  0  0  0  0
    0.7410   25.2336   10.2846 H   0  0  0  0  0  0  0  0  0  0  0  0
    0.7730   23.1771   16.9070 H   0  0  0  0  0  0  0  0  0  0  0  0
    0.3436   24.1204   15.4399 H   0  0  0  0  0  0  0  0  0  0  0  0
    0.1726   22.3323   15.4399 H   0  0  0  0  0  0  0  0  0  0  0  0
    2.2365   22.3174   14.4660 H   0  0  0  0  0  0  0  0  0  0  0  0
    2.8494   22.6914   16.1262 H   0  0  0  0  0  0  0  0  0  0  0  0
    2.4512   24.2872   11.8349 H   0  0  0  0  0  0  0  0  0  0  0  0
   -9.8491   22.7227   12.9076 H   0  0  0  0  0  0  0  0  0  0  0  0
   -8.9234   23.4013   17.0728 H   0  0  0  0  0  0  0  0  0  0  0  0
   -5.0109   28.0160   16.3588 H   0  0  0  0  0  0  0  0  0  0  0  0
  5  6  1  0
  5  4  1  0
 22  6  2  0
 14  4  2  0
 14 21  1  0
  6  1  1  0
  4  3  1  0
  1 23  1  0
 21 20  2  0
 25 23  1  0
 25 26  1  0
 23 24  2  0
  3  2  2  0
 10 28  2  0
 10 27  1  0
 20  2  1  0
 20 17  1  0
 28  9  1  0
 24  7  1  0
 26 27  1  0
 26  7  2  0
 18 17  2  0
 34 33  1  0
 27  8  2  0
  7 30  1  0
 17 16  1  0
 17 19  2  0
  9 29  2  0
 16 15  1  0
 30 33  2  0
 30 31  1  0
 33 13  1  0
  8 29  1  0
 31 11  2  0
 13 12  2  0
 11 12  1  0
 11 32  1  0
  1 35  1  0
  2 36  1  0
  3 37  1  0
  5 38  1  0
  5 39  1  0
  8 40  1  0
  9 41  1  0
 10 42  1  0
 12 43  1  0
 13 44  1  0
 14 45  1  0
 15 46  1  0
 15 47  1  0
 15 48  1  0
 16 49  1  0
 16 50  1  0
 21 51  1  0
 28 52  1  0
 29 53  1  0
 31 54  1  0
A    1
N1
A    2
C4
A    3
C5
A    4
C6
A    5
C7
A    6
C8
A    7
C10
A    8
C13
A    9
C15
A   10
C17
A   11
C20
A   12
C21
A   13
C22
A   14
C24
A   15
C1
A   16
C2
A   17
S1
A   18
O1
A   19
O2
A   20
C3
A   21
C25
A   22
O3
A   23
C9
A   24
N2
A   25
S2
A   26
C11
A   27
C12
A   28
C16
A   29
C14
A   30
C18
A   31
C19
A   32
CL1
A   33
C23
A   34
CL2
M  END
