4XUA_43C_A_2005
     RDKit          3D

 45 48  0  0  0  0  0  0  0  0999 V2000
   72.5370   37.0250    4.0010 C   0  0  0  0  0  0  0  0  0  0  0  0
   72.4180   38.3070    3.2060 C   0  0  0  0  0  0  0  0  0  0  0  0
   73.1530   38.5950    2.1350 C   0  0  0  0  0  0  0  0  0  0  0  0
   71.5480   39.2940    3.4460 N   0  0  0  0  0  0  0  0  0  0  0  0
   71.7230   40.1460    2.5730 N   0  0  0  0  0  0  0  0  0  0  0  0
   72.6930   39.7800    1.7360 N   0  0  0  0  0  0  0  0  0  0  0  0
   73.0880   40.6780    0.6220 C   0  0  0  0  0  0  0  0  0  0  0  0
   72.7070   40.0420   -0.7140 C   0  0  0  0  0  0  0  0  0  0  0  0
   71.2240   40.1480   -0.8530 N   0  0  0  0  0  0  0  0  0  0  0  0
   70.6380   41.2330   -1.3080 C   0  0  0  0  0  0  0  0  0  0  0  0
   69.2960   41.0750   -1.3000 N   0  0  0  0  0  0  0  0  0  0  0  0
   69.0420   39.8310   -0.8140 C   0  0  0  0  0  0  0  0  0  0  0  0
   67.7680   39.3710   -0.7060 C   0  0  0  0  0  0  0  0  0  0  0  0
   66.7390   40.2780   -0.6830 C   0  0  0  0  0  0  0  0  0  0  0  0
   65.4120   39.9320   -0.6400 C   0  0  0  0  0  0  0  0  0  0  0  0
   65.1000   38.5900   -0.5400 C   0  0  0  0  0  0  0  0  0  0  0  0
   66.1210   37.6600   -0.5260 C   0  0  0  0  0  0  0  0  0  0  0  0
   67.4260   38.0060   -0.6440 C   0  0  0  0  0  0  0  0  0  0  0  0
   70.2290   39.2530   -0.5110 C   0  0  0  0  0  0  0  0  0  0  0  0
   70.4410   38.0060   -0.0010 C   0  0  0  0  0  0  0  0  0  0  0  0
   69.8060   37.6270    1.2070 C   0  0  0  0  0  0  0  0  0  0  0  0
   70.0070   36.3650    1.7570 C   0  0  0  0  0  0  0  0  0  0  0  0
   70.8340   35.4570    1.1250 C   0  0  0  0  0  0  0  0  0  0  0  0
   71.0280   34.1100    1.6740 C   0  0  0  0  0  0  0  0  0  0  0  0
   71.1670   33.0910    2.0990 N   0  0  0  0  0  0  0  0  0  0  0  0
   71.4510   35.8040   -0.0850 C   0  0  0  0  0  0  0  0  0  0  0  0
   71.2520   37.0750   -0.6390 C   0  0  0  0  0  0  0  0  0  0  0  0
   72.5155   37.2569    5.0761 H   0  0  0  0  0  0  0  0  0  0  0  0
   71.6967   36.3601    3.7524 H   0  0  0  0  0  0  0  0  0  0  0  0
   73.4853   36.5261    3.7524 H   0  0  0  0  0  0  0  0  0  0  0  0
   73.9555   37.9934    1.6831 H   0  0  0  0  0  0  0  0  0  0  0  0
   74.1754   40.8410    0.6521 H   0  0  0  0  0  0  0  0  0  0  0  0
   72.5663   41.6406    0.7284 H   0  0  0  0  0  0  0  0  0  0  0  0
   73.0112   38.9850   -0.7274 H   0  0  0  0  0  0  0  0  0  0  0  0
   73.2124   40.5544   -1.5459 H   0  0  0  0  0  0  0  0  0  0  0  0
   71.1637   42.1382   -1.6462 H   0  0  0  0  0  0  0  0  0  0  0  0
   66.9934   41.3481   -0.7001 H   0  0  0  0  0  0  0  0  0  0  0  0
   64.6232   40.6974   -0.6837 H   0  0  0  0  0  0  0  0  0  0  0  0
   64.0510   38.2660   -0.4723 H   0  0  0  0  0  0  0  0  0  0  0  0
   65.8647   36.5961   -0.4146 H   0  0  0  0  0  0  0  0  0  0  0  0
   68.2066   37.2323   -0.6907 H   0  0  0  0  0  0  0  0  0  0  0  0
   69.1438   38.3414    1.7181 H   0  0  0  0  0  0  0  0  0  0  0  0
   69.5063   36.0898    2.6970 H   0  0  0  0  0  0  0  0  0  0  0  0
   72.0937   35.0756   -0.6012 H   0  0  0  0  0  0  0  0  0  0  0  0
   71.7421   37.3387   -1.5878 H   0  0  0  0  0  0  0  0  0  0  0  0
 10 11  2  0
 10  9  1  0
 11 12  1  0
  9  8  1  0
  9 19  1  0
 12 13  1  0
 12 19  2  0
  8  7  1  0
 13 14  2  0
 13 18  1  0
 14 15  1  0
 18 17  2  0
 15 16  2  0
 27 26  2  0
 27 20  1  0
 16 17  1  0
 19 20  1  0
 26 23  1  0
 20 21  2  0
  7  6  1  0
 23 24  1  0
 23 22  2  0
 21 22  1  0
 24 25  3  0
  6  3  1  0
  6  5  1  0
  3  2  2  0
  5  4  2  0
  2  4  1  0
  2  1  1  0
  1 28  1  0
  1 29  1  0
  1 30  1  0
  3 31  1  0
  7 32  1  0
  7 33  1  0
  8 34  1  0
  8 35  1  0
 10 36  1  0
 14 37  1  0
 15 38  1  0
 16 39  1  0
 17 40  1  0
 18 41  1  0
 21 42  1  0
 22 43  1  0
 26 44  1  0
 27 45  1  0
A    1
CAA
A    2
CAT
A    3
CAN
A    4
NAR
A    5
NAS
A    6
NAZ
A    7
CAO
A    8
CAP
A    9
NBA
A   10
CAM
A   11
NAQ
A   12
CAX
A   13
CAV
A   14
CAG
A   15
CAE
A   16
CAD
A   17
CAF
A   18
CAH
A   19
CAY
A   20
CAW
A   21
CAK
A   22
CAI
A   23
CAU
A   24
CAC
A   25
NAB
A   26
CAJ
A   27
CAL
M  END
