4PI4_2VC_A_301
     RDKit          3D

 81 83  0  0  0  0  0  0  0  0999 V2000
   15.9520    9.6050  -13.0240 C   0  0  0  0  0  0  0  0  0  0  0  0
   20.2950    7.7320  -15.9890 C   0  0  0  0  0  0  0  0  0  0  0  0
   12.0640   12.2450  -13.9740 C   0  0  0  0  0  0  0  0  0  0  0  0
   10.5570   12.3060  -13.6620 C   0  0  0  0  0  0  0  0  0  0  0  0
   20.6000   14.8340  -18.6350 C   0  0  0  0  0  0  0  0  0  0  0  0
   19.7570   14.0380  -17.7690 N   0  0  0  0  0  0  0  0  0  0  0  0
   18.3310   14.2120  -17.9430 C   0  0  0  0  0  0  0  0  0  0  0  0
   17.6540   14.3960  -16.6260 C   0  0  0  0  0  0  0  0  0  0  0  0
   17.8460   13.2440  -15.8260 N   0  0  0  0  0  0  0  0  0  0  0  0
   16.7140   12.4440  -15.4320 C   0  0  0  0  0  0  0  0  0  0  0  0
   15.6380   12.8330  -15.8200 O   0  0  0  0  0  0  0  0  0  0  0  0
   16.8050   11.2280  -14.6140 N   0  0  0  0  0  0  0  0  0  0  0  0
   15.6110   10.4680  -14.2110 C   0  0  0  0  0  0  0  0  0  0  0  0
   16.7090    8.3020  -13.2900 C   0  0  0  0  0  0  0  0  0  0  0  0
   18.1630    8.2320  -12.9430 C   0  0  0  0  0  0  0  0  0  0  0  0
   19.0470    7.5670  -13.8660 O   0  0  0  0  0  0  0  0  0  0  0  0
   19.1320    7.9950  -15.1630 N   0  0  0  0  0  0  0  0  0  0  0  0
   21.3240    7.0420  -15.5100 N   0  0  0  0  0  0  0  0  0  0  0  0
   20.3400    8.2060  -17.3250 N   0  0  0  0  0  0  0  0  0  0  0  0
   14.4020   11.4180  -13.8770 C   0  0  0  0  0  0  0  0  0  0  0  0
   14.6050   12.4620  -13.2160 O   0  0  0  0  0  0  0  0  0  0  0  0
   13.0740   11.2010  -14.3310 N   0  0  0  0  0  0  0  0  0  0  0  0
    9.6050   11.6750  -14.4460 C   0  0  0  0  0  0  0  0  0  0  0  0
    8.2170   10.8530  -13.6270 S   0  0  0  0  0  0  0  0  0  0  0  0
    8.0820    9.5230  -14.0920 O   0  0  0  0  0  0  0  0  0  0  0  0
    8.4330   10.6340  -12.1860 O   0  0  0  0  0  0  0  0  0  0  0  0
    6.8060   11.8680  -13.8590 C   0  0  0  0  0  0  0  0  0  0  0  0
    6.9520   13.0230  -14.5680 N   0  0  0  0  0  0  0  0  0  0  0  0
    5.9140   13.8660  -14.7830 C   0  0  0  0  0  0  0  0  0  0  0  0
    4.6460   13.5180  -14.2390 C   0  0  0  0  0  0  0  0  0  0  0  0
    4.5140   12.3220  -13.4970 C   0  0  0  0  0  0  0  0  0  0  0  0
    5.5860   11.5210  -13.3120 N   0  0  0  0  0  0  0  0  0  0  0  0
   11.7800   12.6760  -15.4520 C   0  0  0  0  0  0  0  0  0  0  0  0
   11.9080   14.1010  -15.8320 C   0  0  0  0  0  0  0  0  0  0  0  0
   10.9110   14.5940  -16.8420 C   0  0  0  0  0  0  0  0  0  0  0  0
   10.7460   13.8990  -18.0580 C   0  0  0  0  0  0  0  0  0  0  0  0
    9.8150   14.3370  -19.0180 C   0  0  0  0  0  0  0  0  0  0  0  0
    9.0630   15.4780  -18.7590 C   0  0  0  0  0  0  0  0  0  0  0  0
    9.2220   16.1650  -17.5420 C   0  0  0  0  0  0  0  0  0  0  0  0
   10.1400   15.7280  -16.5700 C   0  0  0  0  0  0  0  0  0  0  0  0
   19.2170   13.0170  -15.5180 C   0  0  0  0  0  0  0  0  0  0  0  0
   20.1340   13.8700  -16.3580 C   0  0  0  0  0  0  0  0  0  0  0  0
   16.5681   10.2105  -12.3430 H   0  0  0  0  0  0  0  0  0  0  0  0
   14.9792    9.2859  -12.6218 H   0  0  0  0  0  0  0  0  0  0  0  0
   12.5241   12.6087  -13.0434 H   0  0  0  0  0  0  0  0  0  0  0  0
   10.2231   12.8736  -12.7809 H   0  0  0  0  0  0  0  0  0  0  0  0
   21.2648   15.4618  -18.0235 H   0  0  0  0  0  0  0  0  0  0  0  0
   21.2046   14.1696  -19.2699 H   0  0  0  0  0  0  0  0  0  0  0  0
   19.9714   15.4757  -19.2699 H   0  0  0  0  0  0  0  0  0  0  0  0
   18.1497   15.0985  -18.5684 H   0  0  0  0  0  0  0  0  0  0  0  0
   17.9228   13.3120  -18.4261 H   0  0  0  0  0  0  0  0  0  0  0  0
   18.0806   15.2715  -16.1147 H   0  0  0  0  0  0  0  0  0  0  0  0
   16.5772   14.5515  -16.7884 H   0  0  0  0  0  0  0  0  0  0  0  0
   17.7328   10.8969  -14.3131 H   0  0  0  0  0  0  0  0  0  0  0  0
   15.2987    9.8331  -15.0533 H   0  0  0  0  0  0  0  0  0  0  0  0
   16.6224    8.0912  -14.3661 H   0  0  0  0  0  0  0  0  0  0  0  0
   16.2373    7.5758  -12.6117 H   0  0  0  0  0  0  0  0  0  0  0  0
   18.2444    7.7099  -11.9782 H   0  0  0  0  0  0  0  0  0  0  0  0
   18.4977    9.2798  -12.9483 H   0  0  0  0  0  0  0  0  0  0  0  0
   18.3438    8.5215  -15.5662 H   0  0  0  0  0  0  0  0  0  0  0  0
   21.4558    6.9536  -14.4923 H   0  0  0  0  0  0  0  0  0  0  0  0
   21.9901    6.5953  -16.1563 H   0  0  0  0  0  0  0  0  0  0  0  0
   19.5484    8.7422  -17.7081 H   0  0  0  0  0  0  0  0  0  0  0  0
   12.8191   10.3667  -14.8786 H   0  0  0  0  0  0  0  0  0  0  0  0
    9.6911   11.6738  -15.5426 H   0  0  0  0  0  0  0  0  0  0  0  0
    6.0472   14.7923  -15.3611 H   0  0  0  0  0  0  0  0  0  0  0  0
    3.7765   14.1736  -14.3944 H   0  0  0  0  0  0  0  0  0  0  0  0
    3.5390   12.0437  -13.0705 H   0  0  0  0  0  0  0  0  0  0  0  0
   10.7468   12.3753  -15.6803 H   0  0  0  0  0  0  0  0  0  0  0  0
   12.5799   12.1828  -16.0237 H   0  0  0  0  0  0  0  0  0  0  0  0
   12.9149   14.2513  -16.2487 H   0  0  0  0  0  0  0  0  0  0  0  0
   11.7170   14.6763  -14.9141 H   0  0  0  0  0  0  0  0  0  0  0  0
   11.3525   13.0035  -18.2585 H   0  0  0  0  0  0  0  0  0  0  0  0
    9.6838   13.7847  -19.9602 H   0  0  0  0  0  0  0  0  0  0  0  0
    8.3434   15.8434  -19.5065 H   0  0  0  0  0  0  0  0  0  0  0  0
    8.6162   17.0621  -17.3464 H   0  0  0  0  0  0  0  0  0  0  0  0
   10.2488   16.2665  -15.6170 H   0  0  0  0  0  0  0  0  0  0  0  0
   19.4512   11.9578  -15.7005 H   0  0  0  0  0  0  0  0  0  0  0  0
   19.3767   13.2841  -14.4629 H   0  0  0  0  0  0  0  0  0  0  0  0
   21.1345   13.4138  -16.3306 H   0  0  0  0  0  0  0  0  0  0  0  0
   20.0816   14.8771  -15.9187 H   0  0  0  0  0  0  0  0  0  0  0  0
 37 38  1  0
 37 36  2  0
 38 39  2  0
  5  6  1  0
 36 35  1  0
  7  6  1  0
  7  8  1  0
 39 40  1  0
  6 42  1  0
 19  2  2  3
 35 40  2  0
 35 34  1  0
  8  9  1  0
 42 41  1  0
 34 33  1  0
  2 18  1  0
  2 17  1  0
 11 10  2  0
  9 10  1  0
  9 41  1  0
 29 28  2  0
 29 30  1  0
 33  3  1  0
 10 12  1  0
 28 27  1  0
 17 16  1  0
 30 31  2  0
 12 13  1  0
 23  4  2  0
 23 24  1  0
 22  3  1  0
 22 20  1  0
 13 20  1  0
 13  1  1  0
 27 24  1  0
 27 32  2  0
 25 24  2  0
  3  4  1  0
 20 21  2  0
 16 15  1  0
 24 26  2  0
 31 32  1  0
 15 14  1  0
  1 14  1  0
  1 43  1  0
  1 44  1  0
  3 45  1  0
  4 46  1  0
  5 47  1  0
  5 48  1  0
  5 49  1  0
  7 50  1  0
  7 51  1  0
  8 52  1  0
  8 53  1  0
 12 54  1  0
 13 55  1  0
 14 56  1  0
 14 57  1  0
 15 58  1  0
 15 59  1  0
 17 60  1  0
 18 61  1  0
 18 62  1  0
 19 63  1  0
 22 64  1  0
 23 65  1  0
 29 66  1  0
 30 67  1  0
 31 68  1  0
 33 69  1  0
 33 70  1  0
 34 71  1  0
 34 72  1  0
 36 73  1  0
 37 74  1  0
 38 75  1  0
 39 76  1  0
 40 77  1  0
 41 78  1  0
 41 79  1  0
 42 80  1  0
 42 81  1  0
A    1
C10
A    2
C15
A    3
C21
A    4
C22
A    5
C01
A    6
N02
A    7
C03
A    8
C04
A    9
N05
A   10
C06
A   11
O07
A   12
N08
A   13
C09
A   14
C11
A   15
C12
A   16
O13
A   17
N14
A   18
N16
A   19
N17
A   20
C18
A   21
O19
A   22
N20
A   23
C23
A   24
S24
A   25
O25
A   26
O26
A   27
C27
A   28
N28
A   29
C29
A   30
C30
A   31
C31
A   32
N32
A   33
C33
A   34
C34
A   35
C35
A   36
C36
A   37
C37
A   38
C38
A   39
C39
A   40
C40
A   41
C41
A   42
C42
M  END
