4XV3_P02_A_801
     RDKit          3D

 56 58  0  0  0  0  0  0  0  0999 V2000
   -5.2790   -3.6290  -16.5960 C   0  0  0  0  0  0  0  0  0  0  0  0
   -5.6230   -1.8970  -18.6680 C   0  0  0  0  0  0  0  0  0  0  0  0
   -4.7080   -4.0590  -17.9330 C   0  0  0  0  0  0  0  0  0  0  0  0
   -5.3330   -4.8930  -21.1000 O   0  0  0  0  0  0  0  0  0  0  0  0
   -4.9460   -2.4520  -21.4730 O   0  0  0  0  0  0  0  0  0  0  0  0
   -5.4020   -3.3240  -19.0430 N   0  0  0  0  0  0  0  0  0  0  0  0
   -4.7860   -3.6320  -20.6430 S   0  0  0  0  0  0  0  0  0  0  0  0
    6.5380   -1.5380  -19.1610 N   0  0  0  0  0  0  0  0  0  0  0  0
    5.1560   -1.6210  -19.1640 C   0  0  0  0  0  0  0  0  0  0  0  0
    4.5390   -2.1710  -20.2400 N   0  0  0  0  0  0  0  0  0  0  0  0
    3.1830   -2.2310  -20.2200 C   0  0  0  0  0  0  0  0  0  0  0  0
    2.5530   -2.8440  -21.3920 C   0  0  0  0  0  0  0  0  0  0  0  0
    1.2480   -2.8890  -21.8660 C   0  0  0  0  0  0  0  0  0  0  0  0
    0.0340   -2.3210  -21.3400 C   0  0  0  0  0  0  0  0  0  0  0  0
   -0.2180   -0.9500  -21.2180 C   0  0  0  0  0  0  0  0  0  0  0  0
   -1.4560   -0.5280  -20.7250 C   0  0  0  0  0  0  0  0  0  0  0  0
   -2.4360   -1.4590  -20.3730 C   0  0  0  0  0  0  0  0  0  0  0  0
   -2.1830   -2.8250  -20.5240 C   0  0  0  0  0  0  0  0  0  0  0  0
   -3.1320   -3.8560  -20.1830 N   0  0  0  0  0  0  0  0  0  0  0  0
   -0.9540   -3.2370  -21.0060 C   0  0  0  0  0  0  0  0  0  0  0  0
   -0.7170   -4.5500  -21.1400 F   0  0  0  0  0  0  0  0  0  0  0  0
    1.0360   -3.5980  -23.0230 N   0  0  0  0  0  0  0  0  0  0  0  0
    2.1480   -4.1040  -23.4750 C   0  0  0  0  0  0  0  0  0  0  0  0
    2.1810   -4.9420  -24.7450 C   0  0  0  0  0  0  0  0  0  0  0  0
    2.7750   -4.1670  -25.9370 C   0  0  0  0  0  0  0  0  0  0  0  0
    0.7270   -5.3300  -25.0990 C   0  0  0  0  0  0  0  0  0  0  0  0
    2.9550   -6.2460  -24.4840 C   0  0  0  0  0  0  0  0  0  0  0  0
    3.5260   -3.7510  -22.4960 S   0  0  0  0  0  0  0  0  0  0  0  0
    2.4390   -1.7750  -19.1500 C   0  0  0  0  0  0  0  0  0  0  0  0
    3.1530   -1.2350  -18.1070 C   0  0  0  0  0  0  0  0  0  0  0  0
    4.4980   -1.1450  -18.0860 N   0  0  0  0  0  0  0  0  0  0  0  0
   -4.6865   -4.0752  -15.7837 H   0  0  0  0  0  0  0  0  0  0  0  0
   -5.2421   -2.5325  -16.5171 H   0  0  0  0  0  0  0  0  0  0  0  0
   -6.3227   -3.9674  -16.5171 H   0  0  0  0  0  0  0  0  0  0  0  0
   -5.6374   -1.8039  -17.5720 H   0  0  0  0  0  0  0  0  0  0  0  0
   -4.8097   -1.2800  -19.0777 H   0  0  0  0  0  0  0  0  0  0  0  0
   -6.5848   -1.5549  -19.0777 H   0  0  0  0  0  0  0  0  0  0  0  0
   -4.8570   -5.1411  -18.0626 H   0  0  0  0  0  0  0  0  0  0  0  0
   -3.6332   -3.8267  -17.9603 H   0  0  0  0  0  0  0  0  0  0  0  0
    7.0501   -1.5072  -18.2679 H   0  0  0  0  0  0  0  0  0  0  0  0
    7.0540   -1.5070  -20.0519 H   0  0  0  0  0  0  0  0  0  0  0  0
    0.5476   -0.2145  -21.5061 H   0  0  0  0  0  0  0  0  0  0  0  0
   -1.6604    0.5471  -20.6132 H   0  0  0  0  0  0  0  0  0  0  0  0
   -3.4043   -1.1178  -19.9780 H   0  0  0  0  0  0  0  0  0  0  0  0
   -2.8336   -4.7033  -19.6791 H   0  0  0  0  0  0  0  0  0  0  0  0
    3.4044   -3.3458  -25.5634 H   0  0  0  0  0  0  0  0  0  0  0  0
    3.3852   -4.8473  -26.5492 H   0  0  0  0  0  0  0  0  0  0  0  0
    1.9595   -3.7546  -26.5492 H   0  0  0  0  0  0  0  0  0  0  0  0
    0.1527   -5.4833  -24.1734 H   0  0  0  0  0  0  0  0  0  0  0  0
    0.2653   -4.5236  -25.6877 H   0  0  0  0  0  0  0  0  0  0  0  0
    0.7284   -6.2592  -25.6877 H   0  0  0  0  0  0  0  0  0  0  0  0
    3.0496   -6.4055  -23.3997 H   0  0  0  0  0  0  0  0  0  0  0  0
    2.4120   -7.0908  -24.9328 H   0  0  0  0  0  0  0  0  0  0  0  0
    3.9567   -6.1739  -24.9328 H   0  0  0  0  0  0  0  0  0  0  0  0
    1.3410   -1.8400  -19.1333 H   0  0  0  0  0  0  0  0  0  0  0  0
    2.5946   -0.8542  -17.2391 H   0  0  0  0  0  0  0  0  0  0  0  0
 25 24  1  0
 26 24  1  0
 24 27  1  0
 24 23  1  0
 23 22  2  0
 23 28  1  0
 22 13  1  0
 28 12  1  0
 13 12  2  0
 13 14  1  0
  5  7  2  0
 12 11  1  0
 14 15  2  0
 14 20  1  0
 15 16  1  0
 21 20  1  0
  4  7  2  0
 20 18  2  0
 16 17  2  0
  7 19  1  0
  7  6  1  0
 18 17  1  0
 18 19  1  0
 10 11  1  0
 10  9  2  0
 11 29  2  0
  9  8  1  0
  9 31  1  0
 29 30  1  0
  6  2  1  0
  6  3  1  0
 30 31  2  0
  3  1  1  0
  1 32  1  0
  1 33  1  0
  1 34  1  0
  2 35  1  0
  2 36  1  0
  2 37  1  0
  3 38  1  0
  3 39  1  0
  8 40  1  0
  8 41  1  0
 15 42  1  0
 16 43  1  0
 17 44  1  0
 19 45  1  0
 25 46  1  0
 25 47  1  0
 25 48  1  0
 26 49  1  0
 26 50  1  0
 26 51  1  0
 27 52  1  0
 27 53  1  0
 27 54  1  0
 29 55  1  0
 30 56  1  0
A    1
C1
A    2
C5
A    3
C9
A    4
O12
A    5
O13
A    6
N14
A    7
S15
A    8
N16
A    9
C19
A   10
N20
A   11
C21
A   12
C22
A   13
C23
A   14
C24
A   15
C25
A   16
C27
A   17
C29
A   18
C31
A   19
N32
A   20
C34
A   21
F35
A   22
N36
A   23
C37
A   24
C38
A   25
C39
A   26
C43
A   27
C47
A   28
S51
A   29
C52
A   30
C54
A   31
N56
M  END
