4XX9_RF4_A_402
     RDKit          3D

 45 47  0  0  0  0  0  0  0  0999 V2000
  -13.1870   18.9980  -13.5710 C   0  0  0  0  0  0  0  0  0  0  0  0
  -14.2870   18.5730  -14.2270 C   0  0  0  0  0  0  0  0  0  0  0  0
  -15.2520   17.7700  -13.5680 C   0  0  0  0  0  0  0  0  0  0  0  0
  -15.0810   17.4340  -12.2240 C   0  0  0  0  0  0  0  0  0  0  0  0
  -13.9830   17.8640  -11.5550 C   0  0  0  0  0  0  0  0  0  0  0  0
  -13.0040   18.6560  -12.2190 C   0  0  0  0  0  0  0  0  0  0  0  0
  -11.8160   19.1330  -11.5160 O   0  0  0  0  0  0  0  0  0  0  0  0
  -10.7190   18.2020  -11.3910 C   0  0  0  0  0  0  0  0  0  0  0  0
  -12.1420   19.8570  -14.2910 C   0  0  0  0  0  0  0  0  0  0  0  0
  -13.7980   17.4650  -10.0600 C   0  0  0  0  0  0  0  0  0  0  0  0
   -9.5950   18.9320  -10.5530 C   0  0  0  0  0  0  0  0  0  0  0  0
   -8.6700   17.8320   -9.4650 S   0  0  0  0  0  0  0  0  0  0  0  0
   -9.4880   16.2280   -9.2490 C   0  0  0  0  0  0  0  0  0  0  0  0
   -8.9960   15.0940   -9.7610 N   0  0  0  0  0  0  0  0  0  0  0  0
   -9.8650   14.0850   -9.4160 C   0  0  0  0  0  0  0  0  0  0  0  0
  -10.9240   14.7020   -8.6830 C   0  0  0  0  0  0  0  0  0  0  0  0
  -10.6450   16.0380   -8.5980 N   0  0  0  0  0  0  0  0  0  0  0  0
   -9.8640   12.7200   -9.6660 C   0  0  0  0  0  0  0  0  0  0  0  0
  -10.9280   11.9510   -9.1520 C   0  0  0  0  0  0  0  0  0  0  0  0
  -11.9980   12.5730   -8.4260 C   0  0  0  0  0  0  0  0  0  0  0  0
  -12.0080   13.9270   -8.1850 C   0  0  0  0  0  0  0  0  0  0  0  0
   -7.7640   14.9740  -10.4850 C   0  0  0  0  0  0  0  0  0  0  0  0
   -6.6360   14.5710   -9.5070 C   0  0  0  0  0  0  0  0  0  0  0  0
   -5.4280   14.4500   -9.9300 O   0  0  0  0  0  0  0  0  0  0  0  0
   -6.8970   14.3380   -8.2600 O   0  0  0  0  0  0  0  0  0  0  0  0
  -14.4361   18.8516  -15.2806 H   0  0  0  0  0  0  0  0  0  0  0  0
  -16.1358   17.4116  -14.1161 H   0  0  0  0  0  0  0  0  0  0  0  0
  -15.8356   16.8216  -11.7087 H   0  0  0  0  0  0  0  0  0  0  0  0
  -11.0512   17.2930  -10.8681 H   0  0  0  0  0  0  0  0  0  0  0  0
  -10.3420   17.9007  -12.3795 H   0  0  0  0  0  0  0  0  0  0  0  0
  -11.5155   20.3720  -13.5478 H   0  0  0  0  0  0  0  0  0  0  0  0
  -11.5098   19.2140  -14.9210 H   0  0  0  0  0  0  0  0  0  0  0  0
  -12.6505   20.6016  -14.9210 H   0  0  0  0  0  0  0  0  0  0  0  0
  -14.1730   18.2737   -9.4156 H   0  0  0  0  0  0  0  0  0  0  0  0
  -14.3600   16.5420   -9.8546 H   0  0  0  0  0  0  0  0  0  0  0  0
  -12.7304   17.2976   -9.8546 H   0  0  0  0  0  0  0  0  0  0  0  0
   -8.8889   19.4009  -11.2541 H   0  0  0  0  0  0  0  0  0  0  0  0
  -10.1008   19.6677   -9.9105 H   0  0  0  0  0  0  0  0  0  0  0  0
   -9.0567   12.2517  -10.2482 H   0  0  0  0  0  0  0  0  0  0  0  0
  -10.9380   10.8623   -9.3092 H   0  0  0  0  0  0  0  0  0  0  0  0
  -12.8278   11.9538   -8.0544 H   0  0  0  0  0  0  0  0  0  0  0  0
  -12.8295   14.3966   -7.6240 H   0  0  0  0  0  0  0  0  0  0  0  0
   -7.8684   14.2039  -11.2635 H   0  0  0  0  0  0  0  0  0  0  0  0
   -7.5175   15.9367  -10.9566 H   0  0  0  0  0  0  0  0  0  0  0  0
   -6.3809   14.7987   -7.5518 H   0  0  0  0  0  0  0  0  0  0  0  0
  9  1  1  0
  2  1  2  0
  2  3  1  0
  1  6  1  0
  3  4  2  0
  4  5  1  0
  6  5  2  0
  6  7  1  0
  5 10  1  0
  7  8  1  0
  8 11  1  0
 11 12  1  0
 22 14  1  0
 22 23  1  0
 24 23  2  0
 14 15  1  0
 14 13  1  0
 18 15  2  0
 18 19  1  0
 23 25  1  0
 12 13  1  0
 15 16  1  0
 13 17  2  0
 19 20  2  0
 16 17  1  0
 16 21  2  0
 20 21  1  0
  2 26  1  0
  3 27  1  0
  4 28  1  0
  8 29  1  0
  8 30  1  0
  9 31  1  0
  9 32  1  0
  9 33  1  0
 10 34  1  0
 10 35  1  0
 10 36  1  0
 11 37  1  0
 11 38  1  0
 18 39  1  0
 19 40  1  0
 20 41  1  0
 21 42  1  0
 22 43  1  0
 22 44  1  0
 25 45  1  0
A    1
C01
A    2
C02
A    3
C03
A    4
C04
A    5
C05
A    6
C06
A    7
O07
A    8
C08
A    9
C09
A   10
C10
A   11
C11
A   12
S12
A   13
C13
A   14
N14
A   15
C15
A   16
C16
A   17
N17
A   18
C18
A   19
C19
A   20
C20
A   21
C21
A   22
C22
A   23
C23
A   24
O24
A   25
O25
M  END
