4XYF_44X_A_1401
     RDKit          3D

 55 59  0  0  0  0  0  0  0  0999 V2000
   28.2610   32.2070   60.4780 C   0  0  0  0  0  0  0  0  0  0  0  0
   26.9960   31.9090   59.6670 C   0  0  0  0  0  0  0  0  0  0  0  0
   26.2970   30.7660   59.6630 C   0  0  0  0  0  0  0  0  0  0  0  0
   26.4540   32.8140   58.8550 N   0  0  0  0  0  0  0  0  0  0  0  0
   25.3160   32.2250   58.2960 O   0  0  0  0  0  0  0  0  0  0  0  0
   25.2460   30.9750   58.8430 C   0  0  0  0  0  0  0  0  0  0  0  0
   24.2400   30.1400   58.4010 C   0  0  0  0  0  0  0  0  0  0  0  0
   24.1130   28.8330   58.8540 C   0  0  0  0  0  0  0  0  0  0  0  0
   23.1220   28.0010   58.3460 C   0  0  0  0  0  0  0  0  0  0  0  0
   22.9840   26.7310   58.7800 F   0  0  0  0  0  0  0  0  0  0  0  0
   23.3820   30.6310   57.4080 C   0  0  0  0  0  0  0  0  0  0  0  0
   22.3850   29.7920   56.9320 N   0  0  0  0  0  0  0  0  0  0  0  0
   22.2550   28.4810   57.3690 C   0  0  0  0  0  0  0  0  0  0  0  0
   21.2430   27.9400   56.7030 N   0  0  0  0  0  0  0  0  0  0  0  0
   20.7400   28.7640   55.9120 N   0  0  0  0  0  0  0  0  0  0  0  0
   21.3960   29.9170   55.9870 C   0  0  0  0  0  0  0  0  0  0  0  0
   21.1160   31.2100   55.2240 C   0  0  0  0  0  0  0  0  0  0  0  0
   20.2910   30.9270   53.9510 C   0  0  0  0  0  0  0  0  0  0  0  0
   20.2940   32.1170   56.1640 C   0  0  0  0  0  0  0  0  0  0  0  0
   20.8010   33.3120   56.6510 C   0  0  0  0  0  0  0  0  0  0  0  0
   20.0100   34.1090   57.4950 C   0  0  0  0  0  0  0  0  0  0  0  0
   20.5010   35.3060   57.9970 C   0  0  0  0  0  0  0  0  0  0  0  0
   19.0020   31.7290   56.5340 C   0  0  0  0  0  0  0  0  0  0  0  0
   18.2160   32.5170   57.3770 C   0  0  0  0  0  0  0  0  0  0  0  0
   18.7150   33.7150   57.8560 C   0  0  0  0  0  0  0  0  0  0  0  0
   17.9710   34.4840   58.6700 N   0  0  0  0  0  0  0  0  0  0  0  0
   18.4270   35.6360   59.1560 C   0  0  0  0  0  0  0  0  0  0  0  0
   19.7070   36.0800   58.8390 C   0  0  0  0  0  0  0  0  0  0  0  0
   20.2230   37.2530   59.2960 O   0  0  0  0  0  0  0  0  0  0  0  0
   19.7610   37.7980   60.5560 C   0  0  0  0  0  0  0  0  0  0  0  0
   20.9740   38.2010   61.3980 C   0  0  0  0  0  0  0  0  0  0  0  0
   21.4980   37.0520   62.1190 O   0  0  0  0  0  0  0  0  0  0  0  0
   22.0700   37.4820   63.3780 C   0  0  0  0  0  0  0  0  0  0  0  0
   28.0294   32.1524   61.5519 H   0  0  0  0  0  0  0  0  0  0  0  0
   29.0369   31.4671   60.2322 H   0  0  0  0  0  0  0  0  0  0  0  0
   28.6250   33.2155   60.2322 H   0  0  0  0  0  0  0  0  0  0  0  0
   26.5321   29.8445   60.2158 H   0  0  0  0  0  0  0  0  0  0  0  0
   24.8030   28.4529   59.6218 H   0  0  0  0  0  0  0  0  0  0  0  0
   23.4958   31.6528   57.0169 H   0  0  0  0  0  0  0  0  0  0  0  0
   22.0615   31.6832   54.9205 H   0  0  0  0  0  0  0  0  0  0  0  0
   19.2857   30.5822   54.2347 H   0  0  0  0  0  0  0  0  0  0  0  0
   20.2082   31.8481   53.3554 H   0  0  0  0  0  0  0  0  0  0  0  0
   20.7910   30.1490   53.3554 H   0  0  0  0  0  0  0  0  0  0  0  0
   21.8167   33.6341   56.3781 H   0  0  0  0  0  0  0  0  0  0  0  0
   21.5139   35.6421   57.7306 H   0  0  0  0  0  0  0  0  0  0  0  0
   18.5957   30.7809   56.1519 H   0  0  0  0  0  0  0  0  0  0  0  0
   17.2052   32.1869   57.6588 H   0  0  0  0  0  0  0  0  0  0  0  0
   17.7867   36.2421   59.8137 H   0  0  0  0  0  0  0  0  0  0  0  0
   19.1326   38.6810   60.3678 H   0  0  0  0  0  0  0  0  0  0  0  0
   19.1693   37.0424   61.0936 H   0  0  0  0  0  0  0  0  0  0  0  0
   21.7567   38.6012   60.7368 H   0  0  0  0  0  0  0  0  0  0  0  0
   20.6640   38.9661   62.1250 H   0  0  0  0  0  0  0  0  0  0  0  0
   21.4941   37.0491   64.2092 H   0  0  0  0  0  0  0  0  0  0  0  0
   23.1149   37.1439   63.4405 H   0  0  0  0  0  0  0  0  0  0  0  0
   22.0355   38.5797   63.4405 H   0  0  0  0  0  0  0  0  0  0  0  0
 18 17  1  0
 17 16  1  0
 17 19  1  0
 15 16  2  0
 15 14  1  0
 16 12  1  0
 19 23  1  0
 19 20  2  0
 23 24  2  0
 20 21  1  0
 14 13  2  0
 12 13  1  0
 12 11  1  0
 13  9  1  0
 24 25  1  0
 11  7  2  0
 21 25  2  0
 21 22  1  0
 25 26  1  0
 22 28  2  0
  5  6  1  0
  5  4  1  0
  9 10  1  0
  9  8  2  0
  7  6  1  0
  7  8  1  0
 26 27  2  0
 28 27  1  0
 28 29  1  0
  6  3  2  0
  4  2  2  0
 29 30  1  0
  3  2  1  0
  2  1  1  0
 30 31  1  0
 31 32  1  0
 32 33  1  0
  1 34  1  0
  1 35  1  0
  1 36  1  0
  3 37  1  0
  8 38  1  0
 11 39  1  0
 17 40  1  0
 18 41  1  0
 18 42  1  0
 18 43  1  0
 20 44  1  0
 22 45  1  0
 23 46  1  0
 24 47  1  0
 27 48  1  0
 30 49  1  0
 30 50  1  0
 31 51  1  0
 31 52  1  0
 33 53  1  0
 33 54  1  0
 33 55  1  0
A    1
C21
A    2
C19
A    3
C20
A    4
N5
A    5
O1
A    6
C18
A    7
C15
A    8
C16
A    9
C17
A   10
F1
A   11
C14
A   12
N2
A   13
C13
A   14
N3
A   15
N4
A   16
C11
A   17
C10
A   18
C12
A   19
C7
A   20
C6
A   21
C4
A   22
C3
A   23
C8
A   24
C9
A   25
C5
A   26
N1
A   27
C1
A   28
C2
A   29
O2
A   30
C22
A   31
C23
A   32
O3
A   33
C24
M  END
