1MT1_AG2_A_7005
     RDKit          3D

 23 22  0  0  0  0  0  0  0  0999 V2000
   15.5900   -3.5450    4.9800 N   0  0  0  0  0  0  0  0  0  0  0  0
   17.0150   -3.8460    5.3050 C   0  0  0  0  0  0  0  0  0  0  0  0
   17.8780   -3.7100    4.0520 C   0  0  0  0  0  0  0  0  0  0  0  0
   19.3690   -3.6710    4.3150 C   0  0  0  0  0  0  0  0  0  0  0  0
   20.1130   -3.2240    3.0690 C   0  0  0  0  0  0  0  0  0  0  0  0
   19.5330   -2.0050    2.5080 N   0  0  0  0  0  0  0  0  0  0  0  0
   20.2110   -0.8930    2.2380 C   0  0  0  0  0  0  0  0  0  0  0  0
   21.5160   -0.8250    2.4750 N   0  0  0  0  0  0  0  0  0  0  0  0
   19.5840    0.1480    1.7080 N   0  0  0  0  0  0  0  0  0  0  0  0
   15.0552   -3.4320    5.8530 H   0  0  0  0  0  0  0  0  0  0  0  0
   15.5394   -2.6748    4.4313 H   0  0  0  0  0  0  0  0  0  0  0  0
   17.3707   -3.1405    6.0703 H   0  0  0  0  0  0  0  0  0  0  0  0
   17.0886   -4.8763    5.6834 H   0  0  0  0  0  0  0  0  0  0  0  0
   17.6676   -4.5673    3.3957 H   0  0  0  0  0  0  0  0  0  0  0  0
   17.6163   -2.7436    3.5964 H   0  0  0  0  0  0  0  0  0  0  0  0
   19.5747   -2.9651    5.1332 H   0  0  0  0  0  0  0  0  0  0  0  0
   19.7097   -4.6795    4.5924 H   0  0  0  0  0  0  0  0  0  0  0  0
   21.1644   -3.0326    3.3297 H   0  0  0  0  0  0  0  0  0  0  0  0
   20.0357   -4.0218    2.3156 H   0  0  0  0  0  0  0  0  0  0  0  0
   18.5229   -2.0074    2.3066 H   0  0  0  0  0  0  0  0  0  0  0  0
   22.0335    0.0399    2.2630 H   0  0  0  0  0  0  0  0  0  0  0  0
   19.1565    0.8578    2.3198 H   0  0  0  0  0  0  0  0  0  0  0  0
   19.5244    0.2469    0.6845 H   0  0  0  0  0  0  0  0  0  0  0  0
  1  2  1  0
  2  3  1  0
  3  4  1  0
  4  5  1  0
  5  6  1  0
  6  7  1  0
  7  8  2  3
  7  9  1  0
  1 10  1  0
  1 11  1  0
  2 12  1  0
  2 13  1  0
  3 14  1  0
  3 15  1  0
  4 16  1  0
  4 17  1  0
  5 18  1  0
  5 19  1  0
  6 20  1  0
  8 21  1  0
  9 22  1  0
  9 23  1  0
A    1
N
A    2
CA
A    3
CB
A    4
CG
A    5
CD
A    6
NE
A    7
CZ
A    8
NH1
A    9
NH2
M  END
