4Y14_C0A_A_407
     RDKit          3D

 41 41  0  0  0  0  0  0  0  0999 V2000
  -12.6370  -24.4770  -11.5320 C   0  0  0  0  0  0  0  0  0  0  0  0
  -11.3600  -24.4410  -10.8950 N   0  0  0  0  0  0  0  0  0  0  0  0
  -11.2770  -24.5790   -9.4900 C   0  0  0  0  0  0  0  0  0  0  0  0
  -12.2880  -24.7130   -8.8300 O   0  0  0  0  0  0  0  0  0  0  0  0
   -9.9260  -24.5380   -8.8160 C   0  0  0  0  0  0  0  0  0  0  0  0
   -9.3560  -23.1540   -9.0050 C   0  0  0  0  0  0  0  0  0  0  0  0
  -10.1910  -22.0530   -8.3920 C   0  0  0  0  0  0  0  0  0  0  0  0
  -10.6270  -20.9840   -9.1630 C   0  0  0  0  0  0  0  0  0  0  0  0
  -11.3820  -19.9820   -8.5740 C   0  0  0  0  0  0  0  0  0  0  0  0
  -11.6940  -20.0230   -7.2180 C   0  0  0  0  0  0  0  0  0  0  0  0
  -12.5410  -18.8790   -6.6760 C   0  0  0  0  0  0  0  0  0  0  0  0
  -13.3520  -19.3100   -5.7080 F   0  0  0  0  0  0  0  0  0  0  0  0
  -13.3070  -18.4400   -7.6890 F   0  0  0  0  0  0  0  0  0  0  0  0
  -11.5860  -17.4590   -6.0310 P   0  0  0  0  0  0  0  0  0  0  0  0
  -10.6970  -17.9350   -4.9070 O   0  0  0  0  0  0  0  0  0  0  0  0
  -10.7560  -16.8810   -7.1450 O   0  0  0  0  0  0  0  0  0  0  0  0
  -12.5760  -16.4420   -5.5090 O   0  0  0  0  0  0  0  0  0  0  0  0
  -11.2610  -21.1130   -6.4530 C   0  0  0  0  0  0  0  0  0  0  0  0
  -11.6310  -21.3380   -4.5800 Br  0  0  0  0  0  0  0  0  0  0  0  0
  -10.5110  -22.1110   -7.0500 C   0  0  0  0  0  0  0  0  0  0  0  0
   -9.0410  -25.4500   -9.4450 N   0  0  0  0  0  0  0  0  0  0  0  0
   -9.1310  -27.0680   -9.1720 S   0  0  0  0  0  0  0  0  0  0  0  0
  -10.3450  -27.7970  -10.2330 C   0  0  0  0  0  0  0  0  0  0  0  0
   -9.3740  -27.3480   -7.7880 O   0  0  0  0  0  0  0  0  0  0  0  0
   -7.8420  -27.6770   -9.3500 O   0  0  0  0  0  0  0  0  0  0  0  0
  -13.4276  -24.4993  -10.7675 H   0  0  0  0  0  0  0  0  0  0  0  0
  -12.7590  -23.5819  -12.1597 H   0  0  0  0  0  0  0  0  0  0  0  0
  -12.7084  -25.3775  -12.1597 H   0  0  0  0  0  0  0  0  0  0  0  0
  -10.5047  -24.3153  -11.4550 H   0  0  0  0  0  0  0  0  0  0  0  0
  -10.0385  -24.7967   -7.7528 H   0  0  0  0  0  0  0  0  0  0  0  0
   -8.3569  -23.1263   -8.5455 H   0  0  0  0  0  0  0  0  0  0  0  0
   -9.3309  -22.9668  -10.0887 H   0  0  0  0  0  0  0  0  0  0  0  0
  -10.3753  -20.9326  -10.2326 H   0  0  0  0  0  0  0  0  0  0  0  0
  -11.7400  -19.1419   -9.1872 H   0  0  0  0  0  0  0  0  0  0  0  0
  -11.1152  -17.7111   -4.0381 H   0  0  0  0  0  0  0  0  0  0  0  0
  -12.5673  -16.4509   -4.5191 H   0  0  0  0  0  0  0  0  0  0  0  0
  -10.1646  -22.9630   -6.4466 H   0  0  0  0  0  0  0  0  0  0  0  0
   -8.0893  -25.1631   -9.1750 H   0  0  0  0  0  0  0  0  0  0  0  0
  -11.1297  -28.2682   -9.6229 H   0  0  0  0  0  0  0  0  0  0  0  0
  -10.7924  -27.0180  -10.8678 H   0  0  0  0  0  0  0  0  0  0  0  0
   -9.8676  -28.5580  -10.8678 H   0  0  0  0  0  0  0  0  0  0  0  0
  1  2  1  0
  2  3  1  0
 23 22  1  0
 25 22  2  0
 21 22  1  0
 21  5  1  0
  3  5  1  0
  3  4  2  0
 22 24  2  0
  6  5  1  0
  6  7  1  0
  8  9  1  0
  8  7  2  0
  9 10  2  0
  7 20  1  0
 13 11  1  0
 16 14  2  0
 20 18  2  0
 10 18  1  0
 10 11  1  0
 18 19  1  0
 11 14  1  0
 11 12  1  0
 14 15  1  0
 14 17  1  0
  1 26  1  0
  1 27  1  0
  1 28  1  0
  2 29  1  0
  5 30  1  0
  6 31  1  0
  6 32  1  0
  8 33  1  0
  9 34  1  0
 15 35  1  0
 17 36  1  0
 20 37  1  0
 21 38  1  0
 23 39  1  0
 23 40  1  0
 23 41  1  0
A    1
C01
A    2
N02
A    3
C03
A    4
O04
A    5
C05
A    6
C06
A    7
C07
A    8
C08
A    9
C09
A   10
C10
A   11
C11
A   12
F12
A   13
F13
A   14
P14
A   15
O15
A   16
O16
A   17
O17
A   18
C18
A   19
BR1
A   20
C20
A   21
N21
A   22
S22
A   23
C23
A   24
O24
A   25
O25
M  END
