4Y2A_1FS_A_501
     RDKit          3D

 40 42  0  0  0  0  0  0  0  0999 V2000
   59.0660   44.9140   59.5330 O   0  0  0  0  0  0  0  0  0  0  0  0
   65.9450   41.7910   58.7290 O   0  0  0  0  0  0  0  0  0  0  0  0
   56.9570   46.4800   58.8920 C   0  0  0  0  0  0  0  0  0  0  0  0
   58.3900   46.9370   58.5220 C   0  0  0  0  0  0  0  0  0  0  0  0
   58.6650   48.1150   57.8070 C   0  0  0  0  0  0  0  0  0  0  0  0
   59.9440   48.4320   57.5380 C   0  0  0  0  0  0  0  0  0  0  0  0
   61.0890   47.6220   57.8990 C   0  0  0  0  0  0  0  0  0  0  0  0
   60.8170   46.4440   58.5870 C   0  0  0  0  0  0  0  0  0  0  0  0
   59.4720   46.1120   58.9310 C   0  0  0  0  0  0  0  0  0  0  0  0
   59.1610   44.1470   58.3750 C   0  0  0  0  0  0  0  0  0  0  0  0
   58.8860   44.7280   57.1140 C   0  0  0  0  0  0  0  0  0  0  0  0
   59.0270   44.0490   55.9520 C   0  0  0  0  0  0  0  0  0  0  0  0
   59.4430   42.7580   55.9800 C   0  0  0  0  0  0  0  0  0  0  0  0
   59.7410   42.1430   57.2550 C   0  0  0  0  0  0  0  0  0  0  0  0
   63.9630   42.1540   59.9090 C   0  0  0  0  0  0  0  0  0  0  0  0
   63.2590   41.1410   59.4710 C   0  0  0  0  0  0  0  0  0  0  0  0
   61.8810   41.2810   59.4550 C   0  0  0  0  0  0  0  0  0  0  0  0
   61.2700   42.4420   59.8700 C   0  0  0  0  0  0  0  0  0  0  0  0
   59.6000   42.8460   58.4470 C   0  0  0  0  0  0  0  0  0  0  0  0
   63.3970   43.3520   60.3460 C   0  0  0  0  0  0  0  0  0  0  0  0
   62.0310   43.5080   60.3130 C   0  0  0  0  0  0  0  0  0  0  0  0
   61.4820   44.8260   60.8170 C   0  0  0  0  0  0  0  0  0  0  0  0
   65.3200   42.0260   59.9380 N   0  0  0  0  0  0  0  0  0  0  0  0
   65.8650   42.1610   61.1330 O   0  0  0  0  0  0  0  0  0  0  0  0
   62.2420   45.9090   60.9530 N   0  0  0  0  0  0  0  0  0  0  0  0
   59.8670   42.3890   59.7330 O   0  0  0  0  0  0  0  0  0  0  0  0
   59.5300   42.0940   54.3610 Cl  0  0  0  0  0  0  0  0  0  0  0  0
   60.0810   49.5950   56.8580 N   0  0  0  0  0  0  0  0  0  0  0  0
   60.4520   50.6880   57.5050 O   0  0  0  0  0  0  0  0  0  0  0  0
   59.7820   49.5160   55.5790 O   0  0  0  0  0  0  0  0  0  0  0  0
   56.7530   46.1510   60.1700 N   0  0  0  0  0  0  0  0  0  0  0  0
   57.8460   48.7685   57.4721 H   0  0  0  0  0  0  0  0  0  0  0  0
   62.1161   47.9215   57.6435 H   0  0  0  0  0  0  0  0  0  0  0  0
   61.6387   45.7680   58.8661 H   0  0  0  0  0  0  0  0  0  0  0  0
   58.5441   45.7729   57.0771 H   0  0  0  0  0  0  0  0  0  0  0  0
   58.8061   44.5398   54.9926 H   0  0  0  0  0  0  0  0  0  0  0  0
   60.0859   41.0988   57.2824 H   0  0  0  0  0  0  0  0  0  0  0  0
   63.7430   40.2144   59.1289 H   0  0  0  0  0  0  0  0  0  0  0  0
   61.2604   40.4442   59.1021 H   0  0  0  0  0  0  0  0  0  0  0  0
   64.0387   44.1659   60.7143 H   0  0  0  0  0  0  0  0  0  0  0  0
 27 13  1  0
 30 28  1  0
 12 13  1  0
 12 11  2  0
 13 14  2  0
 11 10  1  0
 28  6  1  0
 28 29  2  0
 14 19  1  0
  6  7  2  0
  6  5  1  0
  7  8  1  0
  5  4  2  0
  8  9  2  0
 10 19  2  0
 10  1  1  0
 19 26  1  0
  2 23  2  0
  4  9  1  0
  4  3  1  0
  9  1  1  0
  3 31  3  0
 16 17  1  0
 16 15  2  0
 17 18  2  0
 23 15  1  0
 23 24  1  0
 15 20  1  0
 26 18  1  0
 18 21  1  0
 20 21  2  0
 21 22  1  0
 22 25  3  0
  5 32  1  0
  7 33  1  0
  8 34  1  0
 11 35  1  0
 12 36  1  0
 14 37  1  0
 16 38  1  0
 17 39  1  0
 20 40  1  0
M  CHG  4  23   1  24  -1  28   1  30  -1
A    1
O3
A    2
O5
A    3
C1
A    4
C2
A    5
C3
A    6
C4
A    7
C5
A    8
C6
A    9
C7
A   10
C8
A   11
C9
A   12
C10
A   13
C11
A   14
C12
A   15
C17
A   16
C16
A   17
C15
A   18
C14
A   19
C13
A   20
C18
A   21
C19
A   22
C20
A   23
N3
A   24
O6
A   25
N4
A   26
O4
A   27
CL
A   28
N2
A   29
O2
A   30
O1
A   31
N1
M  END
