4Y2B_EPK_A_503
     RDKit          3D

 40 42  0  0  0  0  0  0  0  0999 V2000
  -45.6810   25.0970   -0.6960 C   0  0  0  0  0  0  0  0  0  0  0  0
  -46.0270   26.2260   -1.3900 C   0  0  0  0  0  0  0  0  0  0  0  0
  -43.6650   26.8250   -1.4480 C   0  0  0  0  0  0  0  0  0  0  0  0
  -43.3200   25.6250   -0.7300 N   0  0  0  0  0  0  0  0  0  0  0  0
  -45.0390   27.1110   -1.7960 N   0  0  0  0  0  0  0  0  0  0  0  0
  -44.3350   24.7630   -0.3840 C   0  0  0  0  0  0  0  0  0  0  0  0
  -47.4490   26.3640   -1.6310 C   0  0  0  0  0  0  0  0  0  0  0  0
  -47.1480   24.2310   -0.3050 S   0  0  0  0  0  0  0  0  0  0  0  0
  -48.2050   25.3340   -1.1010 C   0  0  0  0  0  0  0  0  0  0  0  0
  -42.6890   27.7630   -1.8830 N   0  0  0  0  0  0  0  0  0  0  0  0
  -43.9990   23.6280    0.3080 O   0  0  0  0  0  0  0  0  0  0  0  0
  -48.0410   27.4590   -2.4100 C   0  0  0  0  0  0  0  0  0  0  0  0
  -48.2760   29.6560   -3.3950 N   0  0  0  0  0  0  0  0  0  0  0  0
  -41.9370   25.2830   -0.3840 C   0  0  0  0  0  0  0  0  0  0  0  0
  -47.5160   28.7450   -2.5170 C   0  0  0  0  0  0  0  0  0  0  0  0
  -43.1930   28.9960   -2.4960 C   0  0  0  0  0  0  0  0  0  0  0  0
  -49.3460   29.2270   -4.0410 C   0  0  0  0  0  0  0  0  0  0  0  0
  -49.2200   26.9790   -3.1260 C   0  0  0  0  0  0  0  0  0  0  0  0
  -41.3210   24.5580   -1.5650 C   0  0  0  0  0  0  0  0  0  0  0  0
  -43.4670   29.9290   -1.3470 C   0  0  0  0  0  0  0  0  0  0  0  0
  -42.0800   29.5570   -3.3330 C   0  0  0  0  0  0  0  0  0  0  0  0
  -49.8800   27.8440   -3.8800 C   0  0  0  0  0  0  0  0  0  0  0  0
  -49.2981   25.2357   -1.1754 H   0  0  0  0  0  0  0  0  0  0  0  0
  -41.6803   27.5856   -1.7732 H   0  0  0  0  0  0  0  0  0  0  0  0
  -41.9247   24.6306    0.5016 H   0  0  0  0  0  0  0  0  0  0  0  0
  -41.3649   26.1944   -0.1559 H   0  0  0  0  0  0  0  0  0  0  0  0
  -46.6041   29.0578   -1.9872 H   0  0  0  0  0  0  0  0  0  0  0  0
  -44.0894   28.8445   -3.1153 H   0  0  0  0  0  0  0  0  0  0  0  0
  -49.8629   29.9170   -4.7242 H   0  0  0  0  0  0  0  0  0  0  0  0
  -49.5488   25.9327   -3.0415 H   0  0  0  0  0  0  0  0  0  0  0  0
  -40.6491   23.7672   -1.1999 H   0  0  0  0  0  0  0  0  0  0  0  0
  -42.1180   24.1089   -2.1758 H   0  0  0  0  0  0  0  0  0  0  0  0
  -40.7491   25.2720   -2.1758 H   0  0  0  0  0  0  0  0  0  0  0  0
  -43.3107   29.3967   -0.3971 H   0  0  0  0  0  0  0  0  0  0  0  0
  -42.7835   30.7891   -1.4021 H   0  0  0  0  0  0  0  0  0  0  0  0
  -44.5070   30.2830   -1.4021 H   0  0  0  0  0  0  0  0  0  0  0  0
  -41.2919   29.9542   -2.6764 H   0  0  0  0  0  0  0  0  0  0  0  0
  -41.6621   28.7619   -3.9679 H   0  0  0  0  0  0  0  0  0  0  0  0
  -42.4706   30.3659   -3.9679 H   0  0  0  0  0  0  0  0  0  0  0  0
  -50.8121   27.5459   -4.3823 H   0  0  0  0  0  0  0  0  0  0  0  0
 17 22  1  0
 17 13  2  0
 22 18  2  0
 13 15  1  0
 21 16  1  0
 18 12  1  0
 15 12  2  0
 16 10  1  0
 16 20  1  0
 12  7  1  0
 10  3  1  0
  5  3  2  0
  5  2  1  0
  7  2  1  0
  7  9  2  0
 19 14  1  0
  3  4  1  0
  2  1  2  0
  9  8  1  0
  4 14  1  0
  4  6  1  0
  1  6  1  0
  1  8  1  0
  6 11  2  0
  9 23  1  0
 10 24  1  0
 14 25  1  0
 14 26  1  0
 15 27  1  0
 16 28  1  0
 17 29  1  0
 18 30  1  0
 19 31  1  0
 19 32  1  0
 19 33  1  0
 20 34  1  0
 20 35  1  0
 20 36  1  0
 21 37  1  0
 21 38  1  0
 21 39  1  0
 22 40  1  0
A    1
C1
A    2
C2
A    3
C3
A    4
N1
A    5
N2
A    6
C4
A    7
C5
A    8
S1
A    9
C6
A   10
N3
A   11
O1
A   12
C7
A   13
N4
A   14
C8
A   15
C9
A   16
C10
A   17
C11
A   18
C12
A   19
C13
A   20
C14
A   21
C15
A   22
C16
M  END
