4Y2S_49P_A_602
     RDKit          3D

 23 24  0  0  0  0  0  0  0  0999 V2000
  -17.5180   -8.9490   68.2100 C   0  0  0  0  0  0  0  0  0  0  0  0
  -17.8540  -10.2710   68.0150 C   0  0  0  0  0  0  0  0  0  0  0  0
  -16.9740   -8.5340   69.4150 C   0  0  0  0  0  0  0  0  0  0  0  0
  -17.1120  -10.7740   70.2660 C   0  0  0  0  0  0  0  0  0  0  0  0
  -15.7710   -8.8770   73.7520 C   0  0  0  0  0  0  0  0  0  0  0  0
  -15.5810   -7.7500   71.8240 C   0  0  0  0  0  0  0  0  0  0  0  0
  -17.6400  -11.1700   69.0390 C   0  0  0  0  0  0  0  0  0  0  0  0
  -16.7790   -9.4380   70.4430 C   0  0  0  0  0  0  0  0  0  0  0  0
  -15.2570   -7.6840   73.1660 C   0  0  0  0  0  0  0  0  0  0  0  0
  -18.0090  -12.5830   68.8020 C   0  0  0  0  0  0  0  0  0  0  0  0
  -16.3740   -9.6440   72.8320 N   0  0  0  0  0  0  0  0  0  0  0  0
  -16.2530   -8.9520   71.6680 N   0  0  0  0  0  0  0  0  0  0  0  0
  -14.5780   -6.6740   73.7590 O   0  0  0  0  0  0  0  0  0  0  0  0
  -17.9240  -12.9620   67.5180 F   0  0  0  0  0  0  0  0  0  0  0  0
  -17.2470  -13.4650   69.5050 F   0  0  0  0  0  0  0  0  0  0  0  0
  -19.3030  -12.8250   69.0790 F   0  0  0  0  0  0  0  0  0  0  0  0
  -17.6826   -8.2186   67.4042 H   0  0  0  0  0  0  0  0  0  0  0  0
  -18.2854  -10.6036   67.0594 H   0  0  0  0  0  0  0  0  0  0  0  0
  -16.6956   -7.4790   69.5546 H   0  0  0  0  0  0  0  0  0  0  0  0
  -16.9624  -11.5032   71.0759 H   0  0  0  0  0  0  0  0  0  0  0  0
  -15.6846   -9.1346   74.8179 H   0  0  0  0  0  0  0  0  0  0  0  0
  -15.3539   -7.0068   71.0455 H   0  0  0  0  0  0  0  0  0  0  0  0
  -14.5393   -6.6164   74.7466 H   0  0  0  0  0  0  0  0  0  0  0  0
 14 10  1  0
  2  1  2  0
  2  7  1  0
  1  3  1  0
 10  7  1  0
 10 16  1  0
 10 15  1  0
  7  4  2  0
  3  8  2  0
  4  8  1  0
  8 12  1  0
 12  6  1  0
 12 11  1  0
  6  9  2  0
 11  5  2  0
  9  5  1  0
  9 13  1  0
  1 17  1  0
  2 18  1  0
  3 19  1  0
  4 20  1  0
  5 21  1  0
  6 22  1  0
 13 23  1  0
A    1
C16
A    2
C15
A    3
C14
A    4
C9
A    5
C6
A    6
C3
A    7
C8
A    8
C7
A    9
C5
A   10
C4
A   11
N2
A   12
N1
A   13
O13
A   14
F10
A   15
F11
A   16
F12
M  END
