4Y2Y_49Z_A_602
     RDKit          3D

 33 34  0  0  0  0  0  0  0  0999 V2000
  -17.2030  -13.4440   68.5860 C   0  0  0  0  0  0  0  0  0  0  0  0
  -17.1350  -13.0410   69.9040 C   0  0  0  0  0  0  0  0  0  0  0  0
  -17.7260  -12.6300   67.6080 C   0  0  0  0  0  0  0  0  0  0  0  0
  -17.5980  -11.8020   70.2790 C   0  0  0  0  0  0  0  0  0  0  0  0
  -16.5140   -6.9280   61.4350 C   0  0  0  0  0  0  0  0  0  0  0  0
  -16.2420   -7.4590   62.7050 C   0  0  0  0  0  0  0  0  0  0  0  0
  -18.1980  -11.3830   67.9590 C   0  0  0  0  0  0  0  0  0  0  0  0
  -18.1300  -10.9950   69.2890 C   0  0  0  0  0  0  0  0  0  0  0  0
  -17.6850   -6.2200   61.4240 C   0  0  0  0  0  0  0  0  0  0  0  0
  -17.1950   -7.1810   63.6630 C   0  0  0  0  0  0  0  0  0  0  0  0
  -18.3020   -5.5330   60.2950 C   0  0  0  0  0  0  0  0  0  0  0  0
  -18.7720  -10.4720   66.9230 C   0  0  0  0  0  0  0  0  0  0  0  0
  -17.2210   -7.5790   65.0860 C   0  0  0  0  0  0  0  0  0  0  0  0
  -17.8160   -9.3240   66.6390 C   0  0  0  0  0  0  0  0  0  0  0  0
  -17.9230   -8.8420   65.2650 N   0  0  0  0  0  0  0  0  0  0  0  0
  -18.5850   -9.7820   69.6470 F   0  0  0  0  0  0  0  0  0  0  0  0
  -18.4310   -6.2060   62.9730 S   0  0  0  0  0  0  0  0  0  0  0  0
  -16.8296  -14.4413   68.3104 H   0  0  0  0  0  0  0  0  0  0  0  0
  -16.7073  -13.7159   70.6600 H   0  0  0  0  0  0  0  0  0  0  0  0
  -17.7670  -12.9687   66.5623 H   0  0  0  0  0  0  0  0  0  0  0  0
  -17.5475  -11.4655   71.3250 H   0  0  0  0  0  0  0  0  0  0  0  0
  -15.8659   -7.0640   60.5566 H   0  0  0  0  0  0  0  0  0  0  0  0
  -15.3398   -8.0505   62.9199 H   0  0  0  0  0  0  0  0  0  0  0  0
  -18.9935   -4.7630   60.6678 H   0  0  0  0  0  0  0  0  0  0  0  0
  -17.5207   -5.0588   59.6829 H   0  0  0  0  0  0  0  0  0  0  0  0
  -18.8571   -6.2591   59.6829 H   0  0  0  0  0  0  0  0  0  0  0  0
  -19.7278  -10.0664   67.2863 H   0  0  0  0  0  0  0  0  0  0  0  0
  -18.9315  -11.0416   65.9956 H   0  0  0  0  0  0  0  0  0  0  0  0
  -16.1878   -7.6881   65.4473 H   0  0  0  0  0  0  0  0  0  0  0  0
  -17.7504   -6.8015   65.6563 H   0  0  0  0  0  0  0  0  0  0  0  0
  -16.7864   -9.6694   66.8137 H   0  0  0  0  0  0  0  0  0  0  0  0
  -18.0795   -8.4925   67.3092 H   0  0  0  0  0  0  0  0  0  0  0  0
  -18.9177   -8.7076   65.0340 H   0  0  0  0  0  0  0  0  0  0  0  0
 11  9  1  0
  9  5  2  0
  9 17  1  0
  5  6  1  0
  6 10  2  0
 17 10  1  0
 10 13  1  0
 13 15  1  0
 15 14  1  0
 14 12  1  0
 12  7  1  0
  3  7  1  0
  3  1  2  0
  7  8  2  0
  1  2  1  0
  8 16  1  0
  8  4  1  0
  2  4  2  0
  1 18  1  0
  2 19  1  0
  3 20  1  0
  4 21  1  0
  5 22  1  0
  6 23  1  0
 11 24  1  0
 11 25  1  0
 11 26  1  0
 12 27  1  0
 12 28  1  0
 13 29  1  0
 13 30  1  0
 14 31  1  0
 14 32  1  0
 15 33  1  0
A    1
C16
A    2
C17
A    3
C14
A    4
C13
A    5
C4
A    6
C5
A    7
C7
A    8
C6
A    9
C3
A   10
C2
A   11
C11
A   12
C12
A   13
C10
A   14
C15
A   15
N9
A   16
F8
A   17
S1
M  END
