4Y34_45Z_A_501
     RDKit          3D

 40 42  0  0  0  0  0  0  0  0999 V2000
   61.1350   40.5330   60.6000 N   0  0  0  0  0  0  0  0  0  0  0  0
   61.8200   41.3390   60.1610 C   0  0  0  0  0  0  0  0  0  0  0  0
   62.5470   42.2960   59.8060 C   0  0  0  0  0  0  0  0  0  0  0  0
   63.8080   42.0160   59.3730 C   0  0  0  0  0  0  0  0  0  0  0  0
   64.5750   43.0860   58.9820 C   0  0  0  0  0  0  0  0  0  0  0  0
   65.8430   42.8090   58.5420 N   0  0  0  0  0  0  0  0  0  0  0  0
   66.0260   41.7260   58.0210 O   0  0  0  0  0  0  0  0  0  0  0  0
   66.7300   43.6380   58.6830 O   0  0  0  0  0  0  0  0  0  0  0  0
   64.1200   44.4030   59.0050 C   0  0  0  0  0  0  0  0  0  0  0  0
   62.8330   44.6660   59.4470 C   0  0  0  0  0  0  0  0  0  0  0  0
   62.0470   43.5890   59.8460 C   0  0  0  0  0  0  0  0  0  0  0  0
   60.7660   43.8170   60.2900 O   0  0  0  0  0  0  0  0  0  0  0  0
   59.7260   43.6490   59.4240 C   0  0  0  0  0  0  0  0  0  0  0  0
   59.6090   42.4000   58.8380 C   0  0  0  0  0  0  0  0  0  0  0  0
   58.5970   42.1480   57.9430 C   0  0  0  0  0  0  0  0  0  0  0  0
   57.7020   43.1580   57.6420 C   0  0  0  0  0  0  0  0  0  0  0  0
   56.7150   42.9190   56.7810 F   0  0  0  0  0  0  0  0  0  0  0  0
   57.7950   44.4100   58.2210 C   0  0  0  0  0  0  0  0  0  0  0  0
   58.8160   44.6750   59.1250 C   0  0  0  0  0  0  0  0  0  0  0  0
   58.8810   45.9530   59.6580 O   0  0  0  0  0  0  0  0  0  0  0  0
   59.1550   47.0190   58.8120 C   0  0  0  0  0  0  0  0  0  0  0  0
   60.1090   47.9930   59.1600 C   0  0  0  0  0  0  0  0  0  0  0  0
   60.7980   47.9760   60.2540 C   0  0  0  0  0  0  0  0  0  0  0  0
   61.4100   48.0120   61.2470 N   0  0  0  0  0  0  0  0  0  0  0  0
   60.3530   49.0310   58.2760 C   0  0  0  0  0  0  0  0  0  0  0  0
   58.4720   47.1150   57.5720 C   0  0  0  0  0  0  0  0  0  0  0  0
   58.7160   48.1560   56.6910 C   0  0  0  0  0  0  0  0  0  0  0  0
   59.6580   49.0910   57.0800 C   0  0  0  0  0  0  0  0  0  0  0  0
   59.9340   50.1510   56.2700 N   0  0  0  0  0  0  0  0  0  0  0  0
   60.0200   51.2790   56.7830 O   0  0  0  0  0  0  0  0  0  0  0  0
   60.0590   49.9430   55.0760 O   0  0  0  0  0  0  0  0  0  0  0  0
   64.1921   40.9858   59.3383 H   0  0  0  0  0  0  0  0  0  0  0  0
   64.7744   45.2239   58.6763 H   0  0  0  0  0  0  0  0  0  0  0  0
   62.4446   45.6946   59.4814 H   0  0  0  0  0  0  0  0  0  0  0  0
   60.3284   41.6068   59.0896 H   0  0  0  0  0  0  0  0  0  0  0  0
   58.5005   41.1580   57.4733 H   0  0  0  0  0  0  0  0  0  0  0  0
   57.0644   45.1922   57.9672 H   0  0  0  0  0  0  0  0  0  0  0  0
   61.0955   49.8041   58.5230 H   0  0  0  0  0  0  0  0  0  0  0  0
   57.7325   46.3459   57.3043 H   0  0  0  0  0  0  0  0  0  0  0  0
   58.1868   48.2350   55.7299 H   0  0  0  0  0  0  0  0  0  0  0  0
 31 29  1  0
 29 30  2  0
 29 28  1  0
 27 28  2  0
 27 26  1  0
 17 16  1  0
 28 25  1  0
 26 21  2  0
 16 15  1  0
 16 18  2  0
 15 14  2  0
  7  6  1  0
 18 19  1  0
 25 22  2  0
  6  8  2  0
  6  5  1  0
 21 22  1  0
 21 20  1  0
 14 13  1  0
  5  9  2  0
  5  4  1  0
  9 10  1  0
 19 13  2  0
 19 20  1  0
 22 23  1  0
  4  3  2  0
 13 12  1  0
 10 11  2  0
  3 11  1  0
  3  2  1  0
 11 12  1  0
  2  1  3  0
 23 24  3  0
  4 32  1  0
  9 33  1  0
 10 34  1  0
 14 35  1  0
 15 36  1  0
 18 37  1  0
 25 38  1  0
 26 39  1  0
 27 40  1  0
M  CHG  4   6   1   7  -1  29   1  31  -1
A    1
N1
A    2
C1
A    3
C2
A    4
C3
A    5
C4
A    6
N2
A    7
O1
A    8
O2
A    9
C5
A   10
C6
A   11
C7
A   12
O3
A   13
C8
A   14
C9
A   15
C10
A   16
C11
A   17
F
A   18
C12
A   19
C13
A   20
O4
A   21
C14
A   22
C19
A   23
C20
A   24
N4
A   25
C18
A   26
C15
A   27
C16
A   28
C17
A   29
N3
A   30
O5
A   31
O6
M  END
