4Y37_45J_A_402
     RDKit          3D

 15 16  0  0  0  0  0  0  0  0999 V2000
   19.6390    9.1590  175.6480 C   0  0  0  0  0  0  0  0  0  0  0  0
   18.7600   11.0030  174.2120 C   0  0  0  0  0  0  0  0  0  0  0  0
   16.1310   11.2780  173.2870 N   0  0  0  0  0  0  0  0  0  0  0  0
   15.2130    9.1160  174.4040 Cl  0  0  0  0  0  0  0  0  0  0  0  0
   16.4440   10.2690  174.0380 C   0  0  0  0  0  0  0  0  0  0  0  0
   17.7840   10.0530  174.5670 C   0  0  0  0  0  0  0  0  0  0  0  0
   20.2830   10.5610  174.8980 S   0  0  0  0  0  0  0  0  0  0  0  0
   18.3020    9.0040  175.3940 C   0  0  0  0  0  0  0  0  0  0  0  0
   18.3640   12.1220  173.3800 B   0  0  0  0  0  0  0  0  0  0  0  0
   19.2110   13.1160  173.0150 O   0  0  0  0  0  0  0  0  0  0  0  0
   17.0420   12.1940  172.9520 N   0  0  0  0  0  0  0  0  0  0  0  0
   20.2314    8.4647  176.2620 H   0  0  0  0  0  0  0  0  0  0  0  0
   17.6963    8.1709  175.7801 H   0  0  0  0  0  0  0  0  0  0  0  0
   19.5801   13.5491  173.8251 H   0  0  0  0  0  0  0  0  0  0  0  0
   16.7560   12.9830  172.3549 H   0  0  0  0  0  0  0  0  0  0  0  0
 11  3  1  0
 11  9  1  0
 10  9  1  0
  3  5  2  0
  9  2  1  0
  5  4  1  0
  5  6  1  0
  2  6  2  0
  2  7  1  0
  6  8  1  0
  7  1  1  0
  8  1  2  0
  1 12  1  0
  8 13  1  0
 10 14  1  0
 11 15  1  0
A    1
C4
A    2
C5
A    3
N1
A    4
CL
A    5
C1
A    6
C2
A    7
S
A    8
C3
A    9
B
A   10
O
A   11
N
M  END
