4Y3G_463_A_401
     RDKit          3D

 24 24  0  0  0  0  0  0  0  0999 V2000
   25.1070    3.7670  113.8580 C   0  0  0  0  0  0  0  0  0  0  0  0
   24.6630    5.0520  114.1010 C   0  0  0  0  0  0  0  0  0  0  0  0
   25.5310    6.1310  114.0330 C   0  0  0  0  0  0  0  0  0  0  0  0
   24.7380    7.6330  115.7360 N   0  0  0  0  0  0  0  0  0  0  0  0
   25.0510    7.5310  114.3110 C   0  0  0  0  0  0  0  0  0  0  0  0
   26.8620    5.8900  113.7050 C   0  0  0  0  0  0  0  0  0  0  0  0
   28.9520    2.1930  113.2030 O   0  0  0  0  0  0  0  0  0  0  0  0
   29.3990    3.3050  112.9410 C   0  0  0  0  0  0  0  0  0  0  0  0
   30.7940    3.4980  112.4210 C   0  0  0  0  0  0  0  0  0  0  0  0
   28.6770    4.4460  113.0800 N   0  0  0  0  0  0  0  0  0  0  0  0
   27.3160    4.6040  113.4500 C   0  0  0  0  0  0  0  0  0  0  0  0
   26.4360    3.5340  113.5330 C   0  0  0  0  0  0  0  0  0  0  0  0
   24.4036    2.9238  113.9224 H   0  0  0  0  0  0  0  0  0  0  0  0
   23.6056    5.2218  114.3521 H   0  0  0  0  0  0  0  0  0  0  0  0
   25.5641    7.3638  116.2891 H   0  0  0  0  0  0  0  0  0  0  0  0
   24.4753    8.6031  115.9612 H   0  0  0  0  0  0  0  0  0  0  0  0
   25.8387    8.2532  114.0503 H   0  0  0  0  0  0  0  0  0  0  0  0
   24.1573    7.7525  113.7092 H   0  0  0  0  0  0  0  0  0  0  0  0
   27.5658    6.7334  113.6470 H   0  0  0  0  0  0  0  0  0  0  0  0
   31.4906    3.5944  113.2669 H   0  0  0  0  0  0  0  0  0  0  0  0
   31.0799    2.6309  111.8075 H   0  0  0  0  0  0  0  0  0  0  0  0
   30.8337    4.4102  111.8075 H   0  0  0  0  0  0  0  0  0  0  0  0
   29.1886    5.3196  112.8904 H   0  0  0  0  0  0  0  0  0  0  0  0
   26.7890    2.5097  113.3428 H   0  0  0  0  0  0  0  0  0  0  0  0
  9  8  1  0
  8 10  1  0
  8  7  2  0
 10 11  1  0
 11 12  1  0
 11  6  2  0
 12  1  2  0
  6  3  1  0
  1  2  1  0
  3  2  2  0
  3  5  1  0
  5  4  1  0
  1 13  1  0
  2 14  1  0
  4 15  1  0
  4 16  1  0
  5 17  1  0
  5 18  1  0
  6 19  1  0
  9 20  1  0
  9 21  1  0
  9 22  1  0
 10 23  1  0
 12 24  1  0
A    1
C4
A    2
C5
A    3
C6
A    4
N1
A    5
C7
A    6
C8
A    7
O
A    8
C1
A    9
C
A   10
N
A   11
C2
A   12
C3
M  END
