4Y3S_46L_A_403
     RDKit          3D

 22 22  0  0  0  0  0  0  0  0999 V2000
   25.9190    3.3400  113.8470 C   0  0  0  0  0  0  0  0  0  0  0  0
   25.9220    4.7260  113.9180 C   0  0  0  0  0  0  0  0  0  0  0  0
   24.6640    5.4870  114.1630 C   0  0  0  0  0  0  0  0  0  0  0  0
   28.2870    4.7450  113.4960 N   0  0  0  0  0  0  0  0  0  0  0  0
   27.1280    5.3780  113.7360 C   0  0  0  0  0  0  0  0  0  0  0  0
   24.6600    6.7070  114.2640 O   0  0  0  0  0  0  0  0  0  0  0  0
   23.5940    4.7520  114.2740 O   0  0  0  0  0  0  0  0  0  0  0  0
   27.0980    2.6550  113.6050 C   0  0  0  0  0  0  0  0  0  0  0  0
   28.2550    3.4090  113.4370 C   0  0  0  0  0  0  0  0  0  0  0  0
   29.5010    2.8020  113.1850 N   0  0  0  0  0  0  0  0  0  0  0  0
   30.5780    3.5620  112.5740 C   0  0  0  0  0  0  0  0  0  0  0  0
   29.6090    1.3580  113.0760 C   0  0  0  0  0  0  0  0  0  0  0  0
   24.9791    2.7849  113.9831 H   0  0  0  0  0  0  0  0  0  0  0  0
   27.1379    6.4766  113.7910 H   0  0  0  0  0  0  0  0  0  0  0  0
   23.2477    4.5141  115.1704 H   0  0  0  0  0  0  0  0  0  0  0  0
   27.1189    1.5567  113.5478 H   0  0  0  0  0  0  0  0  0  0  0  0
   31.2062    4.0053  113.3607 H   0  0  0  0  0  0  0  0  0  0  0  0
   31.1895    2.8942  111.9493 H   0  0  0  0  0  0  0  0  0  0  0  0
   30.1538    4.3619  111.9493 H   0  0  0  0  0  0  0  0  0  0  0  0
   29.6421    0.9158  114.0826 H   0  0  0  0  0  0  0  0  0  0  0  0
   28.7377    0.9652  112.5314 H   0  0  0  0  0  0  0  0  0  0  0  0
   30.5290    1.0992  112.5314 H   0  0  0  0  0  0  0  0  0  0  0  0
 11 10  1  0
 12 10  1  0
 10  9  1  0
  9  4  2  0
  9  8  1  0
  4  5  1  0
  8  1  2  0
  5  2  2  0
  1  2  1  0
  2  3  1  0
  3  6  2  0
  3  7  1  0
  1 13  1  0
  5 14  1  0
  7 15  1  0
  8 16  1  0
 11 17  1  0
 11 18  1  0
 11 19  1  0
 12 20  1  0
 12 21  1  0
 12 22  1  0
A    1
C4
A    2
C5
A    3
C6
A    4
N1
A    5
C7
A    6
O1
A    7
O
A    8
C3
A    9
C2
A   10
N
A   11
C1
A   12
C
M  END
