4Y3T_46J_A_416
     RDKit          3D

 34 35  0  0  0  0  0  0  0  0999 V2000
   28.9420    6.3870   59.1420 C   0  0  0  0  0  0  0  0  0  0  0  0
   27.5880    5.6800   59.2320 C   0  0  0  0  0  0  0  0  0  0  0  0
   29.7550    8.6180   59.6790 N   0  0  0  0  0  0  0  0  0  0  0  0
   27.5780    4.4050   58.3950 C   0  0  0  0  0  0  0  0  0  0  0  0
   28.2810    7.6480   61.0480 O   0  0  0  0  0  0  0  0  0  0  0  0
   28.9590    7.5990   60.0410 C   0  0  0  0  0  0  0  0  0  0  0  0
   29.8460    9.8580   60.4540 C   0  0  0  0  0  0  0  0  0  0  0  0
   29.3100   11.0070   59.6270 C   0  0  0  0  0  0  0  0  0  0  0  0
   30.0340   11.1050   58.2940 C   0  0  0  0  0  0  0  0  0  0  0  0
   30.0300    9.7720   57.5640 C   0  0  0  0  0  0  0  0  0  0  0  0
   30.5560    8.6710   58.4530 C   0  0  0  0  0  0  0  0  0  0  0  0
   30.0760    5.4170   59.5300 C   0  0  0  0  0  0  0  0  0  0  0  0
   30.0150    4.2140   58.6510 N   0  0  0  0  0  0  0  0  0  0  0  0
   28.7200    3.4990   58.7880 C   0  0  0  0  0  0  0  0  0  0  0  0
   29.1002    6.7168   58.1046 H   0  0  0  0  0  0  0  0  0  0  0  0
   26.8036    6.3577   58.8639 H   0  0  0  0  0  0  0  0  0  0  0  0
   27.4038    5.4101   60.2823 H   0  0  0  0  0  0  0  0  0  0  0  0
   27.6769    4.6702   57.3320 H   0  0  0  0  0  0  0  0  0  0  0  0
   26.6301    3.8749   58.5698 H   0  0  0  0  0  0  0  0  0  0  0  0
   30.8970   10.0520   60.7144 H   0  0  0  0  0  0  0  0  0  0  0  0
   29.2534    9.7602   61.3755 H   0  0  0  0  0  0  0  0  0  0  0  0
   29.4508   11.9460   60.1824 H   0  0  0  0  0  0  0  0  0  0  0  0
   28.2419   10.8297   59.4327 H   0  0  0  0  0  0  0  0  0  0  0  0
   31.0749   11.4122   58.4733 H   0  0  0  0  0  0  0  0  0  0  0  0
   29.5121   11.8446   57.6690 H   0  0  0  0  0  0  0  0  0  0  0  0
   29.0005    9.5300   57.2613 H   0  0  0  0  0  0  0  0  0  0  0  0
   30.6806    9.8524   56.6807 H   0  0  0  0  0  0  0  0  0  0  0  0
   30.4866    7.7079   57.9262 H   0  0  0  0  0  0  0  0  0  0  0  0
   31.6074    8.8712   58.7067 H   0  0  0  0  0  0  0  0  0  0  0  0
   29.9559    5.1118   60.5800 H   0  0  0  0  0  0  0  0  0  0  0  0
   31.0481    5.9165   59.4055 H   0  0  0  0  0  0  0  0  0  0  0  0
   30.7791    3.5732   58.9086 H   0  0  0  0  0  0  0  0  0  0  0  0
   28.5890    3.1823   59.8332 H   0  0  0  0  0  0  0  0  0  0  0  0
   28.7242    2.6204   58.1262 H   0  0  0  0  0  0  0  0  0  0  0  0
 10  9  1  0
 10 11  1  0
  9  8  1  0
  4 14  1  0
  4  2  1  0
 11  3  1  0
 13 14  1  0
 13 12  1  0
  1  2  1  0
  1 12  1  0
  1  6  1  0
  8  7  1  0
  3  6  1  0
  3  7  1  0
  6  5  2  0
  1 15  1  0
  2 16  1  0
  2 17  1  0
  4 18  1  0
  4 19  1  0
  7 20  1  0
  7 21  1  0
  8 22  1  0
  8 23  1  0
  9 24  1  0
  9 25  1  0
 10 26  1  0
 10 27  1  0
 11 28  1  0
 11 29  1  0
 12 30  1  0
 12 31  1  0
 13 32  1  0
 14 33  1  0
 14 34  1  0
A    1
C1
A    2
C2
A    3
N1
A    4
C3
A    5
O
A    6
C
A    7
C10
A    8
C9
A    9
C8
A   10
C7
A   11
C6
A   12
C5
A   13
N
A   14
C4
M  END
