4Y3T_46H_A_417
     RDKit          3D

 34 35  0  0  0  0  0  0  0  0999 V2000
   20.0390   12.0880   54.8610 C   0  0  0  0  0  0  0  0  0  0  0  0
   20.5400   10.1120   56.2640 C   0  0  0  0  0  0  0  0  0  0  0  0
   24.7120    9.4360   55.1090 C   0  0  0  0  0  0  0  0  0  0  0  0
   23.6960    8.4060   55.3530 N   0  0  0  0  0  0  0  0  0  0  0  0
   25.7570    9.4130   56.2040 C   0  0  0  0  0  0  0  0  0  0  0  0
   26.3670    8.0290   56.3480 C   0  0  0  0  0  0  0  0  0  0  0  0
   25.2870    6.9890   56.5450 C   0  0  0  0  0  0  0  0  0  0  0  0
   24.2650    7.0580   55.4330 C   0  0  0  0  0  0  0  0  0  0  0  0
   21.6450    7.6540   55.8180 O   0  0  0  0  0  0  0  0  0  0  0  0
   22.3770    8.5870   55.5460 C   0  0  0  0  0  0  0  0  0  0  0  0
   21.8340    9.9900   55.4340 C   0  0  0  0  0  0  0  0  0  0  0  0
   19.9430   11.4770   56.2160 N   0  0  0  0  0  0  0  0  0  0  0  0
   20.2060   11.0170   53.8140 C   0  0  0  0  0  0  0  0  0  0  0  0
   21.5460   10.3080   53.9690 C   0  0  0  0  0  0  0  0  0  0  0  0
   20.9055   12.7649   54.8289 H   0  0  0  0  0  0  0  0  0  0  0  0
   19.1149   12.6481   54.6552 H   0  0  0  0  0  0  0  0  0  0  0  0
   19.8041    9.3938   55.8733 H   0  0  0  0  0  0  0  0  0  0  0  0
   20.8009    9.9040   57.3122 H   0  0  0  0  0  0  0  0  0  0  0  0
   25.1971    9.2450   54.1404 H   0  0  0  0  0  0  0  0  0  0  0  0
   24.2260   10.4227   55.0989 H   0  0  0  0  0  0  0  0  0  0  0  0
   26.5519   10.1322   55.9573 H   0  0  0  0  0  0  0  0  0  0  0  0
   25.2735    9.6826   57.1545 H   0  0  0  0  0  0  0  0  0  0  0  0
   26.9381    7.7893   55.4389 H   0  0  0  0  0  0  0  0  0  0  0  0
   27.0293    8.0231   57.2262 H   0  0  0  0  0  0  0  0  0  0  0  0
   24.7853    7.1681   57.5074 H   0  0  0  0  0  0  0  0  0  0  0  0
   25.7519    5.9921   56.5349 H   0  0  0  0  0  0  0  0  0  0  0  0
   23.4605    6.3351   55.6333 H   0  0  0  0  0  0  0  0  0  0  0  0
   24.7559    6.8179   54.4783 H   0  0  0  0  0  0  0  0  0  0  0  0
   22.5763   10.7042   55.8199 H   0  0  0  0  0  0  0  0  0  0  0  0
   20.4400   12.0798   56.8872 H   0  0  0  0  0  0  0  0  0  0  0  0
   20.1558   11.4778   52.8164 H   0  0  0  0  0  0  0  0  0  0  0  0
   19.4012   10.2773   53.9369 H   0  0  0  0  0  0  0  0  0  0  0  0
   21.5243    9.3697   53.3954 H   0  0  0  0  0  0  0  0  0  0  0  0
   22.3381   10.9727   53.5938 H   0  0  0  0  0  0  0  0  0  0  0  0
 13 14  1  0
 13  1  1  0
 14 11  1  0
  1 12  1  0
  3  4  1  0
  3  5  1  0
  4  8  1  0
  4 10  1  0
  8  7  1  0
 11 10  1  0
 11  2  1  0
 10  9  2  0
  5  6  1  0
 12  2  1  0
  6  7  1  0
  1 15  1  0
  1 16  1  0
  2 17  1  0
  2 18  1  0
  3 19  1  0
  3 20  1  0
  5 21  1  0
  5 22  1  0
  6 23  1  0
  6 24  1  0
  7 25  1  0
  7 26  1  0
  8 27  1  0
  8 28  1  0
 11 29  1  0
 12 30  1  0
 13 31  1  0
 13 32  1  0
 14 33  1  0
 14 34  1  0
A    1
C4
A    2
C5
A    3
C6
A    4
N1
A    5
C7
A    6
C8
A    7
C9
A    8
C10
A    9
O
A   10
C
A   11
C1
A   12
N
A   13
C3
A   14
C2
M  END
