4Y3W_46Q_A_402
     RDKit          3D

 32 32  0  0  0  0  0  0  0  0999 V2000
   36.1150    1.5720    9.3200 C   0  0  0  0  0  0  0  0  0  0  0  0
   37.4310    0.1260    7.5330 C   0  0  0  0  0  0  0  0  0  0  0  0
   37.9660   -1.1800    7.0100 C   0  0  0  0  0  0  0  0  0  0  0  0
   38.1940    0.5200    8.7240 N   0  0  0  0  0  0  0  0  0  0  0  0
   40.0960   -0.6820    7.8100 C   0  0  0  0  0  0  0  0  0  0  0  0
   39.6130    0.6350    8.3640 C   0  0  0  0  0  0  0  0  0  0  0  0
   35.4960    0.4860   10.0960 N   0  0  0  0  0  0  0  0  0  0  0  0
   37.6450    1.7110    9.4320 C   0  0  0  0  0  0  0  0  0  0  0  0
   38.0970    2.9760    8.7140 C   0  0  0  0  0  0  0  0  0  0  0  0
   37.9680    1.7990   10.9290 C   0  0  0  0  0  0  0  0  0  0  0  0
   39.3630    2.2780   11.2770 C   0  0  0  0  0  0  0  0  0  0  0  0
   39.3420   -1.0780    6.6660 O   0  0  0  0  0  0  0  0  0  0  0  0
   35.6679    2.5194    9.6555 H   0  0  0  0  0  0  0  0  0  0  0  0
   35.9216    1.3236    8.2660 H   0  0  0  0  0  0  0  0  0  0  0  0
   37.5318    0.9009    6.7589 H   0  0  0  0  0  0  0  0  0  0  0  0
   36.3693    0.0105    7.7967 H   0  0  0  0  0  0  0  0  0  0  0  0
   37.3942   -1.4682    6.1156 H   0  0  0  0  0  0  0  0  0  0  0  0
   37.8627   -1.9374    7.8010 H   0  0  0  0  0  0  0  0  0  0  0  0
   39.9975   -1.4540    8.5873 H   0  0  0  0  0  0  0  0  0  0  0  0
   41.1464   -0.5630    7.5057 H   0  0  0  0  0  0  0  0  0  0  0  0
   40.1989    0.8944    9.2581 H   0  0  0  0  0  0  0  0  0  0  0  0
   39.7376    1.4215    7.6051 H   0  0  0  0  0  0  0  0  0  0  0  0
   35.6052    0.6776   11.1021 H   0  0  0  0  0  0  0  0  0  0  0  0
   34.4941    0.4265    9.8646 H   0  0  0  0  0  0  0  0  0  0  0  0
   38.3703    3.7409    9.4558 H   0  0  0  0  0  0  0  0  0  0  0  0
   38.9693    2.7481    8.0838 H   0  0  0  0  0  0  0  0  0  0  0  0
   37.2778    3.3525    8.0838 H   0  0  0  0  0  0  0  0  0  0  0  0
   37.2487    2.4926   11.3890 H   0  0  0  0  0  0  0  0  0  0  0  0
   37.9030    0.7688   11.3091 H   0  0  0  0  0  0  0  0  0  0  0  0
   39.4753    2.3166   12.3706 H   0  0  0  0  0  0  0  0  0  0  0  0
   40.1048    1.5831   10.8565 H   0  0  0  0  0  0  0  0  0  0  0  0
   39.5215    3.2820   10.8565 H   0  0  0  0  0  0  0  0  0  0  0  0
 12  3  1  0
 12  5  1  0
  3  2  1  0
  2  4  1  0
  5  6  1  0
  6  4  1  0
  9  8  1  0
  4  8  1  0
  1  8  1  0
  1  7  1  0
  8 10  1  0
 10 11  1  0
  1 13  1  0
  1 14  1  0
  2 15  1  0
  2 16  1  0
  3 17  1  0
  3 18  1  0
  5 19  1  0
  5 20  1  0
  6 21  1  0
  6 22  1  0
  7 23  1  0
  7 24  1  0
  9 25  1  0
  9 26  1  0
  9 27  1  0
 10 28  1  0
 10 29  1  0
 11 30  1  0
 11 31  1  0
 11 32  1  0
A    1
C4
A    2
C5
A    3
C6
A    4
N1
A    5
C7
A    6
C8
A    7
N
A    8
C2
A    9
C3
A   10
C1
A   11
C
A   12
O
M  END
