4Y41_46O_A_404
     RDKit          3D

 30 32  0  0  0  0  0  0  0  0999 V2000
  -20.4910    6.2970   56.4420 C   0  0  0  0  0  0  0  0  0  0  0  0
  -19.2980    6.1390   58.5300 C   0  0  0  0  0  0  0  0  0  0  0  0
  -19.5570    4.7740   58.5760 C   0  0  0  0  0  0  0  0  0  0  0  0
  -20.2940    4.1900   57.5530 C   0  0  0  0  0  0  0  0  0  0  0  0
  -20.0200    3.0510   60.4690 C   0  0  0  0  0  0  0  0  0  0  0  0
  -19.1410    2.0140   61.1080 C   0  0  0  0  0  0  0  0  0  0  0  0
  -18.0030    1.7790   60.1070 C   0  0  0  0  0  0  0  0  0  0  0  0
  -18.0000    2.9880   59.2130 N   0  0  0  0  0  0  0  0  0  0  0  0
  -19.0350    3.9490   59.7300 C   0  0  0  0  0  0  0  0  0  0  0  0
  -19.7570    6.8980   57.4710 C   0  0  0  0  0  0  0  0  0  0  0  0
  -19.4570    8.2340   57.4660 O   0  0  0  0  0  0  0  0  0  0  0  0
  -20.7610    4.9390   56.4870 C   0  0  0  0  0  0  0  0  0  0  0  0
  -20.9530    7.0090   55.3670 O   0  0  0  0  0  0  0  0  0  0  0  0
  -20.3180    8.2850   55.2110 C   0  0  0  0  0  0  0  0  0  0  0  0
  -20.1900    8.9990   56.4970 C   0  0  0  0  0  0  0  0  0  0  0  0
  -18.7258    6.6162   59.3393 H   0  0  0  0  0  0  0  0  0  0  0  0
  -20.5103    3.1122   57.5911 H   0  0  0  0  0  0  0  0  0  0  0  0
  -20.5745    3.6191   61.2304 H   0  0  0  0  0  0  0  0  0  0  0  0
  -20.7822    2.6157   59.8060 H   0  0  0  0  0  0  0  0  0  0  0  0
  -18.7430    2.3824   62.0650 H   0  0  0  0  0  0  0  0  0  0  0  0
  -19.6918    1.0879   61.3290 H   0  0  0  0  0  0  0  0  0  0  0  0
  -17.0412    1.6870   60.6327 H   0  0  0  0  0  0  0  0  0  0  0  0
  -18.1460    0.8494   59.5366 H   0  0  0  0  0  0  0  0  0  0  0  0
  -18.2313    2.7104   58.2485 H   0  0  0  0  0  0  0  0  0  0  0  0
  -18.6916    4.7212   60.4342 H   0  0  0  0  0  0  0  0  0  0  0  0
  -21.3407    4.4609   55.6837 H   0  0  0  0  0  0  0  0  0  0  0  0
  -19.3142    8.1329   54.7876 H   0  0  0  0  0  0  0  0  0  0  0  0
  -20.9426    8.8964   54.5431 H   0  0  0  0  0  0  0  0  0  0  0  0
  -19.6650    9.9501   56.3245 H   0  0  0  0  0  0  0  0  0  0  0  0
  -21.2019    9.1694   56.8933 H   0  0  0  0  0  0  0  0  0  0  0  0
 12  4  2  0
 12  1  1  0
 13  1  1  0
 13 14  1  0
  4  3  1  0
  1 10  2  0
 14 15  1  0
  3  9  1  0
  3  2  2  0
 15 11  1  0
  5  9  1  0
  5  6  1  0
 10  2  1  0
 10 11  1  0
  9  8  1  0
  6  7  1  0
  8  7  1  0
  2 16  1  0
  4 17  1  0
  5 18  1  0
  5 19  1  0
  6 20  1  0
  6 21  1  0
  7 22  1  0
  7 23  1  0
  8 24  1  0
  9 25  1  0
 12 26  1  0
 14 27  1  0
 14 28  1  0
 15 29  1  0
 15 30  1  0
A    1
C2
A    2
C4
A    3
C5
A    4
C6
A    5
C11
A    6
C10
A    7
C9
A    8
N
A    9
C8
A   10
C3
A   11
O
A   12
C7
A   13
O1
A   14
C1
A   15
C
M  END
