4Y44_46Y_A_403
     RDKit          3D

 22 22  0  0  0  0  0  0  0  0999 V2000
   53.8060    8.9380   73.8600 C   0  0  0  0  0  0  0  0  0  0  0  0
   54.6620    8.1150   74.6480 C   0  0  0  0  0  0  0  0  0  0  0  0
   56.0360    8.4470   74.9090 C   0  0  0  0  0  0  0  0  0  0  0  0
   54.3390   10.0470   73.3250 N   0  0  0  0  0  0  0  0  0  0  0  0
   50.5590    7.2470   73.8640 C   0  0  0  0  0  0  0  0  0  0  0  0
   54.1140    6.9420   75.1850 C   0  0  0  0  0  0  0  0  0  0  0  0
   54.9280    6.0100   76.0330 C   0  0  0  0  0  0  0  0  0  0  0  0
   52.5150    8.6550   73.6200 N   0  0  0  0  0  0  0  0  0  0  0  0
   51.9960    7.5230   74.1470 C   0  0  0  0  0  0  0  0  0  0  0  0
   52.7760    6.6730   74.9130 C   0  0  0  0  0  0  0  0  0  0  0  0
   56.2034    8.4875   75.9954 H   0  0  0  0  0  0  0  0  0  0  0  0
   56.6890    7.6808   74.4657 H   0  0  0  0  0  0  0  0  0  0  0  0
   56.2671    9.4268   74.4657 H   0  0  0  0  0  0  0  0  0  0  0  0
   54.6977   10.7933   73.9377 H   0  0  0  0  0  0  0  0  0  0  0  0
   54.3895   10.1521   72.3016 H   0  0  0  0  0  0  0  0  0  0  0  0
   50.0121    7.1420   74.8126 H   0  0  0  0  0  0  0  0  0  0  0  0
   50.1328    8.0797   73.2853 H   0  0  0  0  0  0  0  0  0  0  0  0
   50.4716    6.3156   73.2853 H   0  0  0  0  0  0  0  0  0  0  0  0
   54.7413    6.2238   77.0958 H   0  0  0  0  0  0  0  0  0  0  0  0
   54.6433    4.9706   75.8125 H   0  0  0  0  0  0  0  0  0  0  0  0
   55.9963    6.1522   75.8125 H   0  0  0  0  0  0  0  0  0  0  0  0
   52.3237    5.7563   75.3193 H   0  0  0  0  0  0  0  0  0  0  0  0
  4  1  1  0
  8  1  2  0
  8  9  1  0
  1  2  1  0
  5  9  1  0
  9 10  2  0
  2  3  1  0
  2  6  2  0
 10  6  1  0
  6  7  1  0
  3 11  1  0
  3 12  1  0
  3 13  1  0
  4 14  1  0
  4 15  1  0
  5 16  1  0
  5 17  1  0
  5 18  1  0
  7 19  1  0
  7 20  1  0
  7 21  1  0
 10 22  1  0
A    1
C4
A    2
C5
A    3
C6
A    4
N2
A    5
C14
A    6
C1
A    7
C
A    8
N
A    9
C3
A   10
C2
M  END
