4Y46_4F2_A_501
     RDKit          3D

 62 65  0  0  0  0  0  0  0  0999 V2000
    2.2840  -30.3820  -29.6930 C   0  0  0  0  0  0  0  0  0  0  0  0
    2.2940  -30.5100  -31.2000 C   0  0  0  0  0  0  0  0  0  0  0  0
    1.3970  -31.7200  -31.5790 C   0  0  0  0  0  0  0  0  0  0  0  0
    0.0050  -31.7100  -30.9610 C   0  0  0  0  0  0  0  0  0  0  0  0
    6.0390  -27.3170  -32.8170 C   0  0  0  0  0  0  0  0  0  0  0  0
    6.7780  -26.1730  -33.1650 C   0  0  0  0  0  0  0  0  0  0  0  0
    6.3200  -24.9070  -32.9820 C   0  0  0  0  0  0  0  0  0  0  0  0
    4.9950  -24.6180  -32.4060 C   0  0  0  0  0  0  0  0  0  0  0  0
    2.9280  -25.5440  -31.4100 C   0  0  0  0  0  0  0  0  0  0  0  0
    2.9720  -25.8750  -29.8730 C   0  0  0  0  0  0  0  0  0  0  0  0
    1.7760  -26.7240  -29.4800 C   0  0  0  0  0  0  0  0  0  0  0  0
    1.6920  -26.2760  -31.8470 C   0  0  0  0  0  0  0  0  0  0  0  0
    4.7490  -27.1240  -32.2550 C   0  0  0  0  0  0  0  0  0  0  0  0
    4.4860  -29.4840  -32.0470 C   0  0  0  0  0  0  0  0  0  0  0  0
   -2.5420  -35.7890  -29.7390 C   0  0  0  0  0  0  0  0  0  0  0  0
   -3.0700  -34.5950  -28.8930 C   0  0  0  0  0  0  0  0  0  0  0  0
   -4.5570  -34.3300  -29.3120 C   0  0  0  0  0  0  0  0  0  0  0  0
   -2.1230  -33.4610  -29.0410 N   0  0  0  0  0  0  0  0  0  0  0  0
   -2.3670  -32.0660  -28.6550 C   0  0  0  0  0  0  0  0  0  0  0  0
   -3.4340  -31.7070  -28.1580 O   0  0  0  0  0  0  0  0  0  0  0  0
   -1.3600  -31.0960  -28.8750 N   0  0  0  0  0  0  0  0  0  0  0  0
   -0.0170  -31.3910  -29.4480 C   0  0  0  0  0  0  0  0  0  0  0  0
    0.9210  -30.2110  -29.1210 C   0  0  0  0  0  0  0  0  0  0  0  0
    3.6830  -30.5750  -31.7100 N   0  0  0  0  0  0  0  0  0  0  0  0
    5.7430  -29.6920  -32.5880 N   0  0  0  0  0  0  0  0  0  0  0  0
    6.4410  -28.6170  -32.9460 C   0  0  0  0  0  0  0  0  0  0  0  0
    4.5940  -23.4740  -32.2520 O   0  0  0  0  0  0  0  0  0  0  0  0
    4.2620  -25.8070  -32.0760 N   0  0  0  0  0  0  0  0  0  0  0  0
    0.8150  -26.3700  -30.5980 C   0  0  0  0  0  0  0  0  0  0  0  0
    4.0130  -28.2080  -31.8930 N   0  0  0  0  0  0  0  0  0  0  0  0
    2.7304  -31.2909  -29.2634 H   0  0  0  0  0  0  0  0  0  0  0  0
    2.8565  -29.4771  -29.4413 H   0  0  0  0  0  0  0  0  0  0  0  0
    1.8687  -29.6221  -31.6907 H   0  0  0  0  0  0  0  0  0  0  0  0
    1.2842  -31.7312  -32.6731 H   0  0  0  0  0  0  0  0  0  0  0  0
    1.9024  -32.6127  -31.1819 H   0  0  0  0  0  0  0  0  0  0  0  0
   -0.5978  -30.9515  -31.4818 H   0  0  0  0  0  0  0  0  0  0  0  0
   -0.3974  -32.7274  -31.0744 H   0  0  0  0  0  0  0  0  0  0  0  0
    7.7760  -26.3094  -33.6071 H   0  0  0  0  0  0  0  0  0  0  0  0
    6.9637  -24.0647  -33.2754 H   0  0  0  0  0  0  0  0  0  0  0  0
    2.8242  -24.4902  -31.7077 H   0  0  0  0  0  0  0  0  0  0  0  0
    3.8972  -26.4255  -29.6471 H   0  0  0  0  0  0  0  0  0  0  0  0
    2.9438  -24.9338  -29.3043 H   0  0  0  0  0  0  0  0  0  0  0  0
    1.3787  -26.4367  -28.4953 H   0  0  0  0  0  0  0  0  0  0  0  0
    1.9875  -27.7986  -29.3770 H   0  0  0  0  0  0  0  0  0  0  0  0
    1.1738  -25.7174  -32.6404 H   0  0  0  0  0  0  0  0  0  0  0  0
    1.9275  -27.2688  -32.2581 H   0  0  0  0  0  0  0  0  0  0  0  0
   -2.1895  -36.5862  -29.0681 H   0  0  0  0  0  0  0  0  0  0  0  0
   -3.3530  -36.1758  -30.3736 H   0  0  0  0  0  0  0  0  0  0  0  0
   -1.7102  -35.4493  -30.3736 H   0  0  0  0  0  0  0  0  0  0  0  0
   -3.1039  -34.7913  -27.8112 H   0  0  0  0  0  0  0  0  0  0  0  0
   -5.1778  -34.2194  -28.4107 H   0  0  0  0  0  0  0  0  0  0  0  0
   -4.6108  -33.4081  -29.9097 H   0  0  0  0  0  0  0  0  0  0  0  0
   -4.9260  -35.1765  -29.9097 H   0  0  0  0  0  0  0  0  0  0  0  0
   -1.2044  -33.6742  -29.4553 H   0  0  0  0  0  0  0  0  0  0  0  0
   -1.5700  -30.1200  -28.6217 H   0  0  0  0  0  0  0  0  0  0  0  0
    0.3272  -32.3238  -28.9775 H   0  0  0  0  0  0  0  0  0  0  0  0
    1.0071  -30.1230  -28.0279 H   0  0  0  0  0  0  0  0  0  0  0  0
    0.4845  -29.3067  -29.5701 H   0  0  0  0  0  0  0  0  0  0  0  0
    4.0946  -31.5119  -31.8268 H   0  0  0  0  0  0  0  0  0  0  0  0
    7.4338  -28.7908  -33.3867 H   0  0  0  0  0  0  0  0  0  0  0  0
    0.3226  -25.4073  -30.3962 H   0  0  0  0  0  0  0  0  0  0  0  0
    0.0118  -27.1134  -30.7079 H   0  0  0  0  0  0  0  0  0  0  0  0
  6  7  2  0
  6  5  1  0
  7  8  1  0
 26  5  2  0
 26 25  1  0
  5 13  1  0
 25 14  2  0
  8 27  2  0
  8 28  1  0
 13 28  1  0
 13 30  2  0
 28  9  1  0
 14 30  1  0
 14 24  1  0
 12  9  1  0
 12 29  1  0
 24  2  1  0
  3  2  1  0
  3  4  1  0
  9 10  1  0
  2  1  1  0
  4 22  1  0
 29 11  1  0
 10 11  1  0
 15 16  1  0
  1 23  1  0
 22 23  1  0
 22 21  1  0
 17 16  1  0
 18 16  1  0
 18 19  1  0
 21 19  1  0
 19 20  2  0
  1 31  1  0
  1 32  1  0
  2 33  1  0
  3 34  1  0
  3 35  1  0
  4 36  1  0
  4 37  1  0
  6 38  1  0
  7 39  1  0
  9 40  1  0
 10 41  1  0
 10 42  1  0
 11 43  1  0
 11 44  1  0
 12 45  1  0
 12 46  1  0
 15 47  1  0
 15 48  1  0
 15 49  1  0
 16 50  1  0
 17 51  1  0
 17 52  1  0
 17 53  1  0
 18 54  1  0
 21 55  1  0
 22 56  1  0
 23 57  1  0
 23 58  1  0
 24 59  1  0
 26 60  1  0
 29 61  1  0
 29 62  1  0
A    1
C10
A    2
C11
A    3
C12
A    4
C13
A    5
C18
A    6
C19
A    7
C20
A    8
C21
A    9
C24
A   10
C25
A   11
C26
A   12
C28
A   13
C29
A   14
C15
A   15
C01
A   16
C02
A   17
C03
A   18
N04
A   19
C05
A   20
O06
A   21
N07
A   22
C08
A   23
C09
A   24
N14
A   25
N16
A   26
C17
A   27
O22
A   28
N23
A   29
C27
A   30
N30
M  END
