4Y47_479_A_401
     RDKit          3D

 36 37  0  0  0  0  0  0  0  0999 V2000
   39.9910   11.1460   65.5880 C   0  0  0  0  0  0  0  0  0  0  0  0
   40.8530   12.3790   65.5990 C   0  0  0  0  0  0  0  0  0  0  0  0
   40.2640   13.6060   65.0820 C   0  0  0  0  0  0  0  0  0  0  0  0
   41.4320    5.1930   63.6210 N   0  0  0  0  0  0  0  0  0  0  0  0
   38.9660   13.8350   64.6350 C   0  0  0  0  0  0  0  0  0  0  0  0
   38.7810   15.2020   64.2460 C   0  0  0  0  0  0  0  0  0  0  0  0
   39.9000   15.9380   64.3970 C   0  0  0  0  0  0  0  0  0  0  0  0
   43.1400    6.5560   64.6220 C   0  0  0  0  0  0  0  0  0  0  0  0
   44.0810    5.9160   63.8300 C   0  0  0  0  0  0  0  0  0  0  0  0
   43.6950    4.9320   62.9430 C   0  0  0  0  0  0  0  0  0  0  0  0
   42.3650    4.6040   62.8750 C   0  0  0  0  0  0  0  0  0  0  0  0
   41.8250    6.1440   64.4700 C   0  0  0  0  0  0  0  0  0  0  0  0
   41.9990   12.3670   66.0380 O   0  0  0  0  0  0  0  0  0  0  0  0
   41.2100   15.0300   65.0070 S   0  0  0  0  0  0  0  0  0  0  0  0
   40.6280    9.9740   66.3100 C   0  0  0  0  0  0  0  0  0  0  0  0
   41.7180    9.2960   65.5100 C   0  0  0  0  0  0  0  0  0  0  0  0
   41.9490    9.5940   64.3370 O   0  0  0  0  0  0  0  0  0  0  0  0
   42.4010    8.3500   66.1610 N   0  0  0  0  0  0  0  0  0  0  0  0
   43.5510    7.6430   65.5940 C   0  0  0  0  0  0  0  0  0  0  0  0
   44.4030    7.0860   66.7290 C   0  0  0  0  0  0  0  0  0  0  0  0
   39.0346   11.3820   66.0775 H   0  0  0  0  0  0  0  0  0  0  0  0
   39.8513   10.8503   64.5377 H   0  0  0  0  0  0  0  0  0  0  0  0
   38.1820   13.0650   64.5864 H   0  0  0  0  0  0  0  0  0  0  0  0
   37.8309   15.6058   63.8662 H   0  0  0  0  0  0  0  0  0  0  0  0
   39.9622   17.0088   64.1533 H   0  0  0  0  0  0  0  0  0  0  0  0
   45.1422    6.1945   63.9093 H   0  0  0  0  0  0  0  0  0  0  0  0
   44.4348    4.4238   62.3070 H   0  0  0  0  0  0  0  0  0  0  0  0
   42.0543    3.8176   62.1714 H   0  0  0  0  0  0  0  0  0  0  0  0
   41.0573    6.6320   65.0884 H   0  0  0  0  0  0  0  0  0  0  0  0
   39.8453    9.2332   66.5305 H   0  0  0  0  0  0  0  0  0  0  0  0
   41.0947   10.3704   67.2238 H   0  0  0  0  0  0  0  0  0  0  0  0
   42.1017    8.1043   67.1154 H   0  0  0  0  0  0  0  0  0  0  0  0
   44.1457    8.3596   65.0085 H   0  0  0  0  0  0  0  0  0  0  0  0
   43.9617    7.3745   67.6944 H   0  0  0  0  0  0  0  0  0  0  0  0
   44.4396    5.9891   66.6558 H   0  0  0  0  0  0  0  0  0  0  0  0
   45.4225    7.4926   66.6558 H   0  0  0  0  0  0  0  0  0  0  0  0
 11 10  1  0
 11  4  2  0
 10  9  2  0
  4 12  1  0
  9  8  1  0
  6  7  2  0
  6  5  1  0
 17 16  2  0
  7 14  1  0
 12  8  2  0
  8 19  1  0
  5  3  2  0
 14  3  1  0
  3  2  1  0
 16 18  1  0
 16 15  1  0
  1  2  1  0
  1 15  1  0
 19 18  1  0
 19 20  1  0
  2 13  2  0
  1 21  1  0
  1 22  1  0
  5 23  1  0
  6 24  1  0
  7 25  1  0
  9 26  1  0
 10 27  1  0
 11 28  1  0
 12 29  1  0
 15 30  1  0
 15 31  1  0
 18 32  1  0
 19 33  1  0
 20 34  1  0
 20 35  1  0
 20 36  1  0
A    1
C4
A    2
C5
A    3
C6
A    4
N1
A    5
C7
A    6
C8
A    7
C9
A    8
C10
A    9
C11
A   10
C12
A   11
C13
A   12
C14
A   13
O1
A   14
S
A   15
C3
A   16
C2
A   17
O
A   18
N
A   19
C1
A   20
C
M  END
