4Y4A_47G_A_404
     RDKit          3D

 22 22  0  0  0  0  0  0  0  0999 V2000
   -1.8210    2.3770   10.6390 C   0  0  0  0  0  0  0  0  0  0  0  0
   -3.0080    3.0230   10.9450 C   0  0  0  0  0  0  0  0  0  0  0  0
   -0.5250    3.1360   10.5820 C   0  0  0  0  0  0  0  0  0  0  0  0
   -6.5100    0.7530   11.4660 C   0  0  0  0  0  0  0  0  0  0  0  0
   -3.0430   -1.0630   10.3720 O   0  0  0  0  0  0  0  0  0  0  0  0
   -3.0300    0.2900   10.5170 C   0  0  0  0  0  0  0  0  0  0  0  0
   -4.2140    0.9610   10.8290 C   0  0  0  0  0  0  0  0  0  0  0  0
   -5.3110    0.1570   10.9580 O   0  0  0  0  0  0  0  0  0  0  0  0
   -1.8500    1.0040   10.4170 C   0  0  0  0  0  0  0  0  0  0  0  0
   -4.2000    2.3290   11.0350 C   0  0  0  0  0  0  0  0  0  0  0  0
   -0.4180    4.0030    9.3780 N   0  0  0  0  0  0  0  0  0  0  0  0
   -3.0016    4.1090   11.1197 H   0  0  0  0  0  0  0  0  0  0  0  0
    0.3050    2.4142   10.5704 H   0  0  0  0  0  0  0  0  0  0  0  0
   -0.4845    3.7896   11.4658 H   0  0  0  0  0  0  0  0  0  0  0  0
   -6.4876    0.7418   12.5657 H   0  0  0  0  0  0  0  0  0  0  0  0
   -6.5819    1.7917   11.1112 H   0  0  0  0  0  0  0  0  0  0  0  0
   -7.3815    0.1832   11.1112 H   0  0  0  0  0  0  0  0  0  0  0  0
   -3.0486   -1.6465   11.1717 H   0  0  0  0  0  0  0  0  0  0  0  0
   -0.9194    0.4779   10.1578 H   0  0  0  0  0  0  0  0  0  0  0  0
   -5.1333    2.8620   11.2694 H   0  0  0  0  0  0  0  0  0  0  0  0
   -0.2970    4.9832    9.6704 H   0  0  0  0  0  0  0  0  0  0  0  0
    0.3932    3.7101    8.8150 H   0  0  0  0  0  0  0  0  0  0  0  0
 11  3  1  0
  5  6  1  0
  9  6  1  0
  9  1  2  0
  6  7  2  0
  3  1  1  0
  1  2  1  0
  7  8  1  0
  7 10  1  0
  2 10  2  0
  8  4  1  0
  2 12  1  0
  3 13  1  0
  3 14  1  0
  4 15  1  0
  4 16  1  0
  4 17  1  0
  5 18  1  0
  9 19  1  0
 10 20  1  0
 11 21  1  0
 11 22  1  0
A    1
C4
A    2
C5
A    3
C6
A    4
C7
A    5
O
A    6
C2
A    7
C1
A    8
O1
A    9
C3
A   10
C
A   11
N
M  END
