1C8L_CFF_A_940
     RDKit          3D

 24 25  0  0  0  0  0  0  0  0999 V2000
   38.4310   36.4870   29.6380 N   0  0  0  0  0  0  0  0  0  0  0  0
   37.7800   35.3150   28.8680 C   0  0  0  0  0  0  0  0  0  0  0  0
   39.3480   37.3680   28.8290 C   0  0  0  0  0  0  0  0  0  0  0  0
   38.2230   36.7450   31.0120 C   0  0  0  0  0  0  0  0  0  0  0  0
   36.9830   34.5730   29.6570 N   0  0  0  0  0  0  0  0  0  0  0  0
   38.0540   35.1990   27.7010 O   0  0  0  0  0  0  0  0  0  0  0  0
   36.2820   33.4100   29.0560 C   0  0  0  0  0  0  0  0  0  0  0  0
   36.7380   34.8030   31.0380 C   0  0  0  0  0  0  0  0  0  0  0  0
   37.3230   35.8550   31.7070 C   0  0  0  0  0  0  0  0  0  0  0  0
   35.9620   34.1000   31.8300 N   0  0  0  0  0  0  0  0  0  0  0  0
   38.8080   37.7500   31.5740 O   0  0  0  0  0  0  0  0  0  0  0  0
   36.8760   35.7580   33.0260 N   0  0  0  0  0  0  0  0  0  0  0  0
   36.0730   34.7060   33.0220 C   0  0  0  0  0  0  0  0  0  0  0  0
   37.2230   36.6340   34.1610 C   0  0  0  0  0  0  0  0  0  0  0  0
   39.9725   37.9680   29.5072 H   0  0  0  0  0  0  0  0  0  0  0  0
   39.9926   36.7418   28.1947 H   0  0  0  0  0  0  0  0  0  0  0  0
   38.7481   38.0372   28.1947 H   0  0  0  0  0  0  0  0  0  0  0  0
   35.8922   32.7634   29.8560 H   0  0  0  0  0  0  0  0  0  0  0  0
   35.4480   33.7662   28.4334 H   0  0  0  0  0  0  0  0  0  0  0  0
   36.9865   32.8389   28.4334 H   0  0  0  0  0  0  0  0  0  0  0  0
   35.5415   34.3579   33.9200 H   0  0  0  0  0  0  0  0  0  0  0  0
   37.0154   36.1099   35.1055 H   0  0  0  0  0  0  0  0  0  0  0  0
   38.2912   36.8919   34.1119 H   0  0  0  0  0  0  0  0  0  0  0  0
   36.6212   37.5535   34.1119 H   0  0  0  0  0  0  0  0  0  0  0  0
  1  2  1  0
  1  3  1  0
  1  4  1  0
  2  5  1  0
  2  6  2  0
  4  9  1  0
  4 11  2  0
  5  7  1  0
  5  8  1  0
  8  9  2  0
  8 10  1  0
  9 12  1  0
 10 13  2  0
 12 13  1  0
 12 14  1  0
  3 15  1  0
  3 16  1  0
  3 17  1  0
  7 18  1  0
  7 19  1  0
  7 20  1  0
 13 21  1  0
 14 22  1  0
 14 23  1  0
 14 24  1  0
A    1
N1
A    2
C2
A    3
C10
A    4
C6
A    5
N3
A    6
O11
A    7
C12
A    8
C4
A    9
C5
A   10
N9
A   11
O13
A   12
N7
A   13
C8
A   14
C14
M  END
