4Y50_47S_A_401
     RDKit          3D

 26 26  0  0  0  0  0  0  0  0999 V2000
  -15.0190    9.8000   58.5380 C   0  0  0  0  0  0  0  0  0  0  0  0
  -15.0510    8.4260   58.6770 C   0  0  0  0  0  0  0  0  0  0  0  0
  -15.6020    7.8530   59.8120 C   0  0  0  0  0  0  0  0  0  0  0  0
  -15.2710    5.6370   58.9410 N   0  0  0  0  0  0  0  0  0  0  0  0
  -16.1290    8.6690   60.8080 C   0  0  0  0  0  0  0  0  0  0  0  0
  -15.6430    6.3700   59.9910 C   0  0  0  0  0  0  0  0  0  0  0  0
  -15.3270    4.2260   58.9590 N   0  0  0  0  0  0  0  0  0  0  0  0
  -16.0170    5.8640   61.0450 O   0  0  0  0  0  0  0  0  0  0  0  0
  -15.5360   10.6170   59.5280 C   0  0  0  0  0  0  0  0  0  0  0  0
  -16.1000   10.0600   60.6780 C   0  0  0  0  0  0  0  0  0  0  0  0
  -16.6140   10.8600   61.6610 N   0  0  0  0  0  0  0  0  0  0  0  0
  -16.8860   10.3310   62.9840 C   0  0  0  0  0  0  0  0  0  0  0  0
  -16.5900   12.3070   61.5280 C   0  0  0  0  0  0  0  0  0  0  0  0
  -14.5796   10.2476   57.6344 H   0  0  0  0  0  0  0  0  0  0  0  0
  -14.6379    7.7849   57.8844 H   0  0  0  0  0  0  0  0  0  0  0  0
  -14.9332    6.1135   58.0926 H   0  0  0  0  0  0  0  0  0  0  0  0
  -16.5727    8.2149   61.7063 H   0  0  0  0  0  0  0  0  0  0  0  0
  -15.3401    3.8953   59.9344 H   0  0  0  0  0  0  0  0  0  0  0  0
  -16.1812    3.9101   58.4779 H   0  0  0  0  0  0  0  0  0  0  0  0
  -15.5026   11.7100   59.4087 H   0  0  0  0  0  0  0  0  0  0  0  0
  -16.5222   11.0385   63.7437 H   0  0  0  0  0  0  0  0  0  0  0  0
  -17.9698   10.1874   63.1058 H   0  0  0  0  0  0  0  0  0  0  0  0
  -16.3723    9.3660   63.1058 H   0  0  0  0  0  0  0  0  0  0  0  0
  -16.5824   12.7670   62.5272 H   0  0  0  0  0  0  0  0  0  0  0  0
  -15.6867   12.6097   60.9781 H   0  0  0  0  0  0  0  0  0  0  0  0
  -17.4828   12.6395   60.9781 H   0  0  0  0  0  0  0  0  0  0  0  0
  1  2  2  0
  1  9  1  0
  2  3  1  0
  4  7  1  0
  4  6  1  0
  9 10  2  0
  3  6  1  0
  3  5  2  0
  6  8  2  0
 10  5  1  0
 10 11  1  0
 13 11  1  0
 11 12  1  0
  1 14  1  0
  2 15  1  0
  4 16  1  0
  5 17  1  0
  7 18  1  0
  7 19  1  0
  9 20  1  0
 12 21  1  0
 12 22  1  0
 12 23  1  0
 13 24  1  0
 13 25  1  0
 13 26  1  0
A    1
C4
A    2
C5
A    3
C6
A    4
N1
A    5
C7
A    6
C8
A    7
N2
A    8
O
A    9
C3
A   10
C2
A   11
N
A   12
C1
A   13
C
M  END
