4Y5C_47V_A_405
     RDKit          3D

 28 29  0  0  0  0  0  0  0  0999 V2000
   -4.5160    0.4730   10.4510 C   0  0  0  0  0  0  0  0  0  0  0  0
   -2.6530    2.1410   10.3140 C   0  0  0  0  0  0  0  0  0  0  0  0
   -1.6630    1.3680   10.9020 C   0  0  0  0  0  0  0  0  0  0  0  0
   -0.0370    2.9080   10.1870 N   0  0  0  0  0  0  0  0  0  0  0  0
   -0.3580    1.7760   10.8190 C   0  0  0  0  0  0  0  0  0  0  0  0
   -0.9730    3.6770    9.6230 C   0  0  0  0  0  0  0  0  0  0  0  0
   -2.2930    3.3180    9.6740 C   0  0  0  0  0  0  0  0  0  0  0  0
   -6.7450   -0.7170   10.4930 C   0  0  0  0  0  0  0  0  0  0  0  0
   -6.5350   -1.9480   11.2930 C   0  0  0  0  0  0  0  0  0  0  0  0
   -3.8510   -0.5080   10.7890 O   0  0  0  0  0  0  0  0  0  0  0  0
   -5.9620    0.3340   10.1350 C   0  0  0  0  0  0  0  0  0  0  0  0
   -6.7950    1.2040    9.3610 C   0  0  0  0  0  0  0  0  0  0  0  0
   -8.0070   -0.5520    9.9750 O   0  0  0  0  0  0  0  0  0  0  0  0
   -8.0060    0.6370    9.2830 C   0  0  0  0  0  0  0  0  0  0  0  0
   -9.2850    1.0070    8.6230 C   0  0  0  0  0  0  0  0  0  0  0  0
   -4.0090    1.7290   10.2990 N   0  0  0  0  0  0  0  0  0  0  0  0
   -1.9227    0.4380   11.4289 H   0  0  0  0  0  0  0  0  0  0  0  0
    0.4336    1.1651   11.2775 H   0  0  0  0  0  0  0  0  0  0  0  0
   -0.6802    4.6067    9.1132 H   0  0  0  0  0  0  0  0  0  0  0  0
   -3.0606    3.9564    9.2121 H   0  0  0  0  0  0  0  0  0  0  0  0
   -6.5772   -1.7009   12.3641 H   0  0  0  0  0  0  0  0  0  0  0  0
   -7.3214   -2.6791   11.0542 H   0  0  0  0  0  0  0  0  0  0  0  0
   -5.5507   -2.3770   11.0542 H   0  0  0  0  0  0  0  0  0  0  0  0
   -6.4953    2.1626    8.9125 H   0  0  0  0  0  0  0  0  0  0  0  0
  -10.0430    1.2263    9.3893 H   0  0  0  0  0  0  0  0  0  0  0  0
   -9.1298    1.8971    7.9956 H   0  0  0  0  0  0  0  0  0  0  0  0
   -9.6289    0.1715    7.9956 H   0  0  0  0  0  0  0  0  0  0  0  0
   -4.7023    2.4769   10.1542 H   0  0  0  0  0  0  0  0  0  0  0  0
 15 14  1  0
 14 12  2  0
 14 13  1  0
 12 11  1  0
  6  7  2  0
  6  4  1  0
  7  2  1  0
 13  8  1  0
 11  1  1  0
 11  8  2  0
  4  5  2  0
 16  2  1  0
 16  1  1  0
  2  3  2  0
  1 10  2  0
  8  9  1  0
  5  3  1  0
  3 17  1  0
  5 18  1  0
  6 19  1  0
  7 20  1  0
  9 21  1  0
  9 22  1  0
  9 23  1  0
 12 24  1  0
 15 25  1  0
 15 26  1  0
 15 27  1  0
 16 28  1  0
A    1
C4
A    2
C5
A    3
C6
A    4
N1
A    5
C7
A    6
C8
A    7
C9
A    8
C10
A    9
C11
A   10
O
A   11
C3
A   12
C2
A   13
O1
A   14
C1
A   15
C
A   16
N
M  END
