4Y62_48E_A_402
     RDKit          3D

 55 58  0  0  0  0  0  0  0  0999 V2000
   18.2070   24.3720    7.0300 O   0  0  0  0  0  0  0  0  0  0  0  0
   17.6740   23.6750    7.8910 C   0  0  0  0  0  0  0  0  0  0  0  0
   18.2420   23.6720    9.1700 N   0  0  0  0  0  0  0  0  0  0  0  0
   17.6960   22.9090   10.2010 C   0  0  0  0  0  0  0  0  0  0  0  0
   18.2310   22.9360   11.3060 O   0  0  0  0  0  0  0  0  0  0  0  0
   16.5750   22.1280    9.9510 C   0  0  0  0  0  0  0  0  0  0  0  0
   16.0230   22.1390    8.6710 C   0  0  0  0  0  0  0  0  0  0  0  0
   16.5850   22.9210    7.6270 N   0  0  0  0  0  0  0  0  0  0  0  0
   15.9780   22.9300    6.2590 C   0  0  0  0  0  0  0  0  0  0  0  0
   14.6880   22.2510    6.1920 O   0  0  0  0  0  0  0  0  0  0  0  0
   16.8720   22.2440    5.2360 C   0  0  0  0  0  0  0  0  0  0  0  0
   16.7090   22.8450    3.9430 O   0  0  0  0  0  0  0  0  0  0  0  0
   16.3450   20.8580    5.2490 C   0  0  0  0  0  0  0  0  0  0  0  0
   16.6440   20.1850    4.0210 O   0  0  0  0  0  0  0  0  0  0  0  0
   14.8500   21.0380    5.4090 C   0  0  0  0  0  0  0  0  0  0  0  0
   14.2990   19.7490    6.0330 C   0  0  0  0  0  0  0  0  0  0  0  0
   12.8580   19.7990    6.3410 N   0  0  0  0  0  0  0  0  0  0  0  0
   12.3860   20.1270    7.5590 C   0  0  0  0  0  0  0  0  0  0  0  0
   13.1050   20.4450    8.5020 O   0  0  0  0  0  0  0  0  0  0  0  0
   10.8610   20.0420    7.7400 C   0  0  0  0  0  0  0  0  0  0  0  0
   10.5370   18.6180    8.2300 C   0  0  0  0  0  0  0  0  0  0  0  0
    9.2050   18.5420    8.7510 O   0  0  0  0  0  0  0  0  0  0  0  0
   10.3870   21.0840    8.7150 N   0  0  0  0  0  0  0  0  0  0  0  0
   10.4880   21.1030   10.0470 C   0  0  0  0  0  0  0  0  0  0  0  0
    9.8090   22.1060    8.3480 N   0  0  0  0  0  0  0  0  0  0  0  0
    9.5070   22.8230    9.2880 N   0  0  0  0  0  0  0  0  0  0  0  0
    9.9130   22.2380   10.4020 C   0  0  0  0  0  0  0  0  0  0  0  0
    9.7530   22.7320   11.6350 C   0  0  0  0  0  0  0  0  0  0  0  0
   10.1420   24.0440   11.9210 C   0  0  0  0  0  0  0  0  0  0  0  0
    9.9710   24.5710   13.2030 C   0  0  0  0  0  0  0  0  0  0  0  0
    9.4050   23.7880   14.2100 C   0  0  0  0  0  0  0  0  0  0  0  0
    9.0110   22.4790   13.9310 C   0  0  0  0  0  0  0  0  0  0  0  0
    9.1850   21.9580   12.6480 C   0  0  0  0  0  0  0  0  0  0  0  0
   19.0788   24.2440    9.3529 H   0  0  0  0  0  0  0  0  0  0  0  0
   16.1314   21.5127   10.7476 H   0  0  0  0  0  0  0  0  0  0  0  0
   15.1318   21.5281    8.4648 H   0  0  0  0  0  0  0  0  0  0  0  0
   15.8516   23.9988    6.0318 H   0  0  0  0  0  0  0  0  0  0  0  0
   17.9469   22.3103    5.4599 H   0  0  0  0  0  0  0  0  0  0  0  0
   16.4514   23.7948    4.0507 H   0  0  0  0  0  0  0  0  0  0  0  0
   16.7891   20.2455    6.0475 H   0  0  0  0  0  0  0  0  0  0  0  0
   17.0379   19.2984    4.2180 H   0  0  0  0  0  0  0  0  0  0  0  0
   14.2782   21.1752    4.4794 H   0  0  0  0  0  0  0  0  0  0  0  0
   14.4735   18.9220    5.3289 H   0  0  0  0  0  0  0  0  0  0  0  0
   14.8238   19.6095    6.9896 H   0  0  0  0  0  0  0  0  0  0  0  0
   12.1850   19.5740    5.5944 H   0  0  0  0  0  0  0  0  0  0  0  0
   10.3402   20.2389    6.7913 H   0  0  0  0  0  0  0  0  0  0  0  0
   10.6336   17.9176    7.3874 H   0  0  0  0  0  0  0  0  0  0  0  0
   11.2415   18.3564    9.0332 H   0  0  0  0  0  0  0  0  0  0  0  0
    9.2371   18.5438    9.7405 H   0  0  0  0  0  0  0  0  0  0  0  0
   10.9460   20.3454   10.6999 H   0  0  0  0  0  0  0  0  0  0  0  0
   10.5863   24.6661   11.1301 H   0  0  0  0  0  0  0  0  0  0  0  0
   10.2826   25.6036   13.4191 H   0  0  0  0  0  0  0  0  0  0  0  0
    9.2699   24.2015   15.2203 H   0  0  0  0  0  0  0  0  0  0  0  0
    8.5637   21.8583   14.7214 H   0  0  0  0  0  0  0  0  0  0  0  0
    8.8710   20.9260   12.4328 H   0  0  0  0  0  0  0  0  0  0  0  0
 12 11  1  0
 14 13  1  0
 11 13  1  0
 11  9  1  0
 13 15  1  0
 15 16  1  0
 15 10  1  0
 16 17  1  0
 10  9  1  0
  9  8  1  0
 17 18  1  0
  1  2  2  0
 18 20  1  0
 18 19  2  0
  8  2  1  0
  8  7  1  0
 20 21  1  0
 20 23  1  0
  2  3  1  0
 21 22  1  0
 25 23  1  0
 25 26  2  0
  7  6  2  0
 23 24  1  0
  3  4  1  0
 26 27  1  0
  6  4  1  0
 24 27  2  0
  4  5  2  0
 27 28  1  0
 28 29  2  0
 28 33  1  0
 29 30  1  0
 33 32  2  0
 30 31  2  0
 32 31  1  0
  3 34  1  0
  6 35  1  0
  7 36  1  0
  9 37  1  0
 11 38  1  0
 12 39  1  0
 13 40  1  0
 14 41  1  0
 15 42  1  0
 16 43  1  0
 16 44  1  0
 17 45  1  0
 20 46  1  0
 21 47  1  0
 21 48  1  0
 22 49  1  0
 24 50  1  0
 29 51  1  0
 30 52  1  0
 31 53  1  0
 32 54  1  0
 33 55  1  0
A    1
OAG
A    2
CAB
A    3
NAA
A    4
CAC
A    5
OAH
A    6
CAE
A    7
CAF
A    8
NAD
A    9
CAI
A   10
OAL
A   11
CAK
A   12
OAN
A   13
CAJ
A   14
OAO
A   15
CAM
A   16
CAP
A   17
NAQ
A   18
C
A   19
O
A   20
CA
A   21
CB
A   22
OG
A   23
N
A   24
CAY
A   25
NAX
A   26
NAZ
A   27
CBA
A   28
CBB
A   29
CBF
A   30
CBD
A   31
CBC
A   32
CBE
A   33
CBG
M  END
