2RIY_BHE_A_452
     RDKit          3D

 62 63  0  0  0  0  0  0  0  0999 V2000
  -14.5560  -12.5010   -5.7360 C   0  0  0  0  0  0  0  0  0  0  0  0
  -17.3320  -10.0060   -5.6650 O   0  0  0  0  0  0  0  0  0  0  0  0
  -13.1810  -12.2500   -6.3780 C   0  0  0  0  0  0  0  0  0  0  0  0
  -13.1640  -12.7900   -7.7290 O   0  0  0  0  0  0  0  0  0  0  0  0
  -12.9560  -10.7270   -6.4420 C   0  0  0  0  0  0  0  0  0  0  0  0
  -11.6660  -10.4250   -7.0180 O   0  0  0  0  0  0  0  0  0  0  0  0
  -13.0390  -10.1090   -5.0300 C   0  0  0  0  0  0  0  0  0  0  0  0
  -11.9950  -10.6210   -4.2190 O   0  0  0  0  0  0  0  0  0  0  0  0
  -14.4020  -10.4280   -4.4020 C   0  0  0  0  0  0  0  0  0  0  0  0
  -14.6180  -11.8790   -4.4350 O   0  0  0  0  0  0  0  0  0  0  0  0
  -14.4850   -9.9440   -2.9630 C   0  0  0  0  0  0  0  0  0  0  0  0
  -21.8490  -11.4150   -6.9690 O   0  0  0  0  0  0  0  0  0  0  0  0
  -13.0360   -6.6570   -9.1780 C   0  0  0  0  0  0  0  0  0  0  0  0
  -14.1190   -7.7460   -9.2260 C   0  0  0  0  0  0  0  0  0  0  0  0
  -15.3930   -7.2400   -8.5390 C   0  0  0  0  0  0  0  0  0  0  0  0
  -16.0450   -8.3720   -7.7260 C   0  0  0  0  0  0  0  0  0  0  0  0
  -16.9100   -7.7920   -6.5930 C   0  0  0  0  0  0  0  0  0  0  0  0
  -17.9770   -8.7970   -6.1360 C   0  0  0  0  0  0  0  0  0  0  0  0
  -17.8100  -11.1140   -6.4020 C   0  0  0  0  0  0  0  0  0  0  0  0
  -19.1770  -11.3770   -6.0380 O   0  0  0  0  0  0  0  0  0  0  0  0
  -19.7140  -12.4750   -6.7560 C   0  0  0  0  0  0  0  0  0  0  0  0
  -21.2000  -12.5780   -6.4330 C   0  0  0  0  0  0  0  0  0  0  0  0
  -18.9690  -13.7760   -6.3890 C   0  0  0  0  0  0  0  0  0  0  0  0
  -19.0480  -14.0700   -4.9570 O   0  0  0  0  0  0  0  0  0  0  0  0
  -17.4870  -13.5870   -6.7780 C   0  0  0  0  0  0  0  0  0  0  0  0
  -16.7290  -14.7290   -6.3710 O   0  0  0  0  0  0  0  0  0  0  0  0
  -16.9170  -12.3200   -6.1180 C   0  0  0  0  0  0  0  0  0  0  0  0
  -15.5970  -12.0200   -6.6190 O   0  0  0  0  0  0  0  0  0  0  0  0
  -14.7095  -13.5803   -5.5891 H   0  0  0  0  0  0  0  0  0  0  0  0
  -12.3920  -12.7366   -5.7858 H   0  0  0  0  0  0  0  0  0  0  0  0
  -13.1329  -13.7787   -7.6888 H   0  0  0  0  0  0  0  0  0  0  0  0
  -13.7445  -10.2959   -7.0763 H   0  0  0  0  0  0  0  0  0  0  0  0
  -11.0090  -10.2712   -6.2936 H   0  0  0  0  0  0  0  0  0  0  0  0
  -12.9284   -9.0171   -5.1050 H   0  0  0  0  0  0  0  0  0  0  0  0
  -12.2314  -10.5051   -3.2647 H   0  0  0  0  0  0  0  0  0  0  0  0
  -15.1768   -9.9060   -4.9827 H   0  0  0  0  0  0  0  0  0  0  0  0
  -14.3391  -10.7947   -2.2810 H   0  0  0  0  0  0  0  0  0  0  0  0
  -13.7027   -9.1918   -2.7835 H   0  0  0  0  0  0  0  0  0  0  0  0
  -15.4732   -9.4954   -2.7835 H   0  0  0  0  0  0  0  0  0  0  0  0
  -22.1680  -10.8434   -6.2263 H   0  0  0  0  0  0  0  0  0  0  0  0
  -12.8004   -6.4201   -8.1300 H   0  0  0  0  0  0  0  0  0  0  0  0
  -12.1293   -7.0190   -9.6848 H   0  0  0  0  0  0  0  0  0  0  0  0
  -13.4030   -5.7523   -9.6848 H   0  0  0  0  0  0  0  0  0  0  0  0
  -14.3426   -7.9931  -10.2743 H   0  0  0  0  0  0  0  0  0  0  0  0
  -13.7559   -8.6435   -8.7038 H   0  0  0  0  0  0  0  0  0  0  0  0
  -15.1366   -6.4097   -7.8646 H   0  0  0  0  0  0  0  0  0  0  0  0
  -16.1017   -6.8959   -9.3067 H   0  0  0  0  0  0  0  0  0  0  0  0
  -16.6782   -8.9773   -8.3913 H   0  0  0  0  0  0  0  0  0  0  0  0
  -15.2531   -8.9957   -7.2856 H   0  0  0  0  0  0  0  0  0  0  0  0
  -16.2626   -7.5435   -5.7391 H   0  0  0  0  0  0  0  0  0  0  0  0
  -17.4188   -6.8926   -6.9700 H   0  0  0  0  0  0  0  0  0  0  0  0
  -18.6381   -9.0395   -6.9811 H   0  0  0  0  0  0  0  0  0  0  0  0
  -18.5701   -8.3566   -5.3210 H   0  0  0  0  0  0  0  0  0  0  0  0
  -17.7793  -10.9018   -7.4809 H   0  0  0  0  0  0  0  0  0  0  0  0
  -19.5857  -12.3213   -7.8376 H   0  0  0  0  0  0  0  0  0  0  0  0
  -21.3439  -12.6175   -5.3432 H   0  0  0  0  0  0  0  0  0  0  0  0
  -21.6257  -13.4918   -6.8732 H   0  0  0  0  0  0  0  0  0  0  0  0
  -19.4341  -14.6160   -6.9256 H   0  0  0  0  0  0  0  0  0  0  0  0
  -18.8289  -13.2546   -4.4401 H   0  0  0  0  0  0  0  0  0  0  0  0
  -17.4200  -13.4768   -7.8704 H   0  0  0  0  0  0  0  0  0  0  0  0
  -16.7010  -14.7712   -5.3823 H   0  0  0  0  0  0  0  0  0  0  0  0
  -16.8712  -12.5153   -5.0364 H   0  0  0  0  0  0  0  0  0  0  0  0
  1  3  1  0
  1 10  1  0
  1 28  1  0
  2 18  1  0
  2 19  1  0
  3  4  1  0
  3  5  1  0
  5  6  1  0
  5  7  1  0
  7  8  1  0
  7  9  1  0
  9 10  1  0
  9 11  1  0
 12 22  1  0
 13 14  1  0
 14 15  1  0
 15 16  1  0
 16 17  1  0
 17 18  1  0
 19 20  1  0
 19 27  1  0
 20 21  1  0
 21 22  1  0
 21 23  1  0
 23 24  1  0
 23 25  1  0
 25 26  1  0
 25 27  1  0
 27 28  1  0
  1 29  1  0
  3 30  1  0
  4 31  1  0
  5 32  1  0
  6 33  1  0
  7 34  1  0
  8 35  1  0
  9 36  1  0
 11 37  1  0
 11 38  1  0
 11 39  1  0
 12 40  1  0
 13 41  1  0
 13 42  1  0
 13 43  1  0
 14 44  1  0
 14 45  1  0
 15 46  1  0
 15 47  1  0
 16 48  1  0
 16 49  1  0
 17 50  1  0
 17 51  1  0
 18 52  1  0
 18 53  1  0
 19 54  1  0
 21 55  1  0
 22 56  1  0
 22 57  1  0
 23 58  1  0
 24 59  1  0
 25 60  1  0
 26 61  1  0
 27 62  1  0
A    1
C1
A    2
O1
A    3
C2
A    4
O2
A    5
C3
A    6
O3
A    7
C4
A    8
O4
A    9
C5
A   10
O5
A   11
C6
A   12
O6
A   13
C6B
A   14
C5B
A   15
C4B
A   16
C3B
A   17
C2B
A   18
C1B
A   19
C1A
A   20
O5A
A   21
C5A
A   22
C6A
A   23
C4A
A   24
O4A
A   25
C3A
A   26
O3A
A   27
C2A
A   28
O2A
M  END
