4Y6D_48U_A_301
     RDKit          3D

 49 51  0  0  0  0  0  0  0  0999 V2000
   10.3300    1.1120   18.3110 C   0  0  0  0  0  0  0  0  0  0  0  0
    8.5910    8.5240   25.4240 C   0  0  0  0  0  0  0  0  0  0  0  0
    8.3000    8.9000   24.1790 C   0  0  0  0  0  0  0  0  0  0  0  0
    6.0940    8.4010   22.6710 N   0  0  0  0  0  0  0  0  0  0  0  0
   11.4380    7.1060   27.3800 C   0  0  0  0  0  0  0  0  0  0  0  0
    9.4470    1.2580   17.1420 N   0  0  0  0  0  0  0  0  0  0  0  0
    9.9030    8.0890   25.9170 C   0  0  0  0  0  0  0  0  0  0  0  0
    9.7350    0.4360   15.9560 C   0  0  0  0  0  0  0  0  0  0  0  0
    8.3950    2.0740   17.0290 C   0  0  0  0  0  0  0  0  0  0  0  0
    7.8260    2.2120   15.9580 O   0  0  0  0  0  0  0  0  0  0  0  0
    7.8750    2.8450   18.1970 C   0  0  0  0  0  0  0  0  0  0  0  0
    7.5430    2.2570   19.4180 C   0  0  0  0  0  0  0  0  0  0  0  0
    7.0510    3.0730   20.4240 C   0  0  0  0  0  0  0  0  0  0  0  0
    6.7240    2.5340   21.6100 F   0  0  0  0  0  0  0  0  0  0  0  0
    6.8800    4.4390   20.2540 C   0  0  0  0  0  0  0  0  0  0  0  0
    7.2100    4.9880   19.0230 C   0  0  0  0  0  0  0  0  0  0  0  0
    7.7040    4.2070   17.9980 C   0  0  0  0  0  0  0  0  0  0  0  0
    6.3520    5.2470   21.3100 N   0  0  0  0  0  0  0  0  0  0  0  0
    7.0130    6.3020   21.8490 C   0  0  0  0  0  0  0  0  0  0  0  0
    8.1490    6.6640   21.5810 O   0  0  0  0  0  0  0  0  0  0  0  0
    6.0890    6.9690   22.8610 C   0  0  0  0  0  0  0  0  0  0  0  0
    4.7230    6.3220   22.6100 C   0  0  0  0  0  0  0  0  0  0  0  0
    5.0350    5.0170   21.8860 C   0  0  0  0  0  0  0  0  0  0  0  0
    6.6570    9.3580   23.8440 S   0  0  0  0  0  0  0  0  0  0  0  0
    6.6210   10.6570   23.2330 O   0  0  0  0  0  0  0  0  0  0  0  0
    5.8400    9.0460   24.9760 O   0  0  0  0  0  0  0  0  0  0  0  0
   11.4120    8.3260   25.1020 S   0  0  0  0  0  0  0  0  0  0  0  0
   12.2450    7.5280   26.3770 C   0  0  0  0  0  0  0  0  0  0  0  0
   13.9640    7.3430   26.2800 Cl  0  0  0  0  0  0  0  0  0  0  0  0
   10.1020    7.4240   27.1210 C   0  0  0  0  0  0  0  0  0  0  0  0
    9.7375    1.2100   19.2326 H   0  0  0  0  0  0  0  0  0  0  0  0
   10.8096    0.1224   18.2869 H   0  0  0  0  0  0  0  0  0  0  0  0
   11.1026    1.8946   18.2869 H   0  0  0  0  0  0  0  0  0  0  0  0
    7.7675    8.5414   26.1531 H   0  0  0  0  0  0  0  0  0  0  0  0
    9.0699    8.9198   23.3936 H   0  0  0  0  0  0  0  0  0  0  0  0
    6.6614    8.5898   21.8324 H   0  0  0  0  0  0  0  0  0  0  0  0
   11.7887    6.5813   28.2810 H   0  0  0  0  0  0  0  0  0  0  0  0
   10.0832   -0.5577   16.2743 H   0  0  0  0  0  0  0  0  0  0  0  0
    8.8209    0.3286   15.3535 H   0  0  0  0  0  0  0  0  0  0  0  0
   10.5162    0.9226   15.3535 H   0  0  0  0  0  0  0  0  0  0  0  0
    7.6683    1.1759   19.5775 H   0  0  0  0  0  0  0  0  0  0  0  0
    7.0751    6.0676   18.8609 H   0  0  0  0  0  0  0  0  0  0  0  0
    7.9604    4.6616   17.0297 H   0  0  0  0  0  0  0  0  0  0  0  0
    6.3964    6.8257   23.9074 H   0  0  0  0  0  0  0  0  0  0  0  0
    4.0959    6.9725   21.9826 H   0  0  0  0  0  0  0  0  0  0  0  0
    4.1657    6.1550   23.5436 H   0  0  0  0  0  0  0  0  0  0  0  0
    4.2924    4.8178   21.0993 H   0  0  0  0  0  0  0  0  0  0  0  0
    5.0088    4.1430   22.5534 H   0  0  0  0  0  0  0  0  0  0  0  0
    9.2815    7.1707   27.8085 H   0  0  0  0  0  0  0  0  0  0  0  0
  8  6  1  0
 10  9  2  0
  9  6  1  0
  9 11  1  0
  6  1  1  0
 17 11  2  0
 17 16  1  0
 11 12  1  0
 16 15  2  0
 12 13  2  0
 15 13  1  0
 15 18  1  0
 13 14  1  0
 18 19  1  0
 18 23  1  0
 20 19  2  0
 19 21  1  0
 23 22  1  0
 22 21  1  0
  4 21  1  0
  4 24  1  0
 25 24  2  0
 24  3  1  0
 24 26  2  0
  3  2  2  0
 27  7  1  0
 27 28  1  0
  2  7  1  0
  7 30  2  0
 29 28  1  0
 28  5  2  0
 30  5  1  0
  1 31  1  0
  1 32  1  0
  1 33  1  0
  2 34  1  0
  3 35  1  0
  4 36  1  0
  5 37  1  0
  8 38  1  0
  8 39  1  0
  8 40  1  0
 12 41  1  0
 16 42  1  0
 17 43  1  0
 21 44  1  0
 22 45  1  0
 22 46  1  0
 23 47  1  0
 23 48  1  0
 30 49  1  0
A    1
C8
A    2
C5
A    3
C6
A    4
N1
A    5
C2
A    6
N3
A    7
C4
A    8
C7
A    9
C28
A   10
O4
A   11
C27
A   12
C26
A   13
C22
A   14
F1
A   15
C15
A   16
C21
A   17
C24
A   18
N2
A   19
C50
A   20
O3
A   21
C12
A   22
C13
A   23
C14
A   24
S1
A   25
O2
A   26
O1
A   27
S2
A   28
C1
A   29
CL1
A   30
C3
M  END
