4Y6Q_OMR_A_502
     RDKit          3D

100103  0  0  0  0  0  0  0  0999 V2000
   12.5110   -9.6350   13.1810 O   0  0  0  0  0  0  0  0  0  0  0  0
    8.3330   -6.8450   18.1390 O   0  0  0  0  0  0  0  0  0  0  0  0
    8.6480   -8.2970   18.3350 P   0  0  0  0  0  0  0  0  0  0  0  0
    9.1450   -8.7610   19.6810 O   0  0  0  0  0  0  0  0  0  0  0  0
    7.3690   -9.1600   17.8640 O   0  0  0  0  0  0  0  0  0  0  0  0
    6.9930  -10.6380   18.3550 P   0  0  0  0  0  0  0  0  0  0  0  0
    5.8330  -11.0910   17.5550 O   0  0  0  0  0  0  0  0  0  0  0  0
    8.2590  -11.6100   18.2990 O   0  0  0  0  0  0  0  0  0  0  0  0
    6.5570  -10.4940   19.8890 O   0  0  0  0  0  0  0  0  0  0  0  0
    5.3900   -9.7500   20.2050 C   0  0  0  0  0  0  0  0  0  0  0  0
    5.0290   -9.9860   21.6620 C   0  0  0  0  0  0  0  0  0  0  0  0
    4.6330  -11.4330   21.9520 C   0  0  0  0  0  0  0  0  0  0  0  0
    5.2550  -11.8120   23.1800 O   0  0  0  0  0  0  0  0  0  0  0  0
    3.1210  -11.3780   22.0500 C   0  0  0  0  0  0  0  0  0  0  0  0
    2.5450  -12.2830   22.9640 O   0  0  0  0  0  0  0  0  0  0  0  0
    2.9190  -10.0050   22.6160 C   0  0  0  0  0  0  0  0  0  0  0  0
    1.6510   -9.3560   22.3230 N   0  0  0  0  0  0  0  0  0  0  0  0
    1.0330   -8.6010   23.2160 C   0  0  0  0  0  0  0  0  0  0  0  0
    1.2800   -8.2640   24.4920 N   0  0  0  0  0  0  0  0  0  0  0  0
    0.4260   -7.4410   25.1440 C   0  0  0  0  0  0  0  0  0  0  0  0
   -0.6810   -6.9400   24.5820 N   0  0  0  0  0  0  0  0  0  0  0  0
   -1.0290   -7.2040   23.2980 C   0  0  0  0  0  0  0  0  0  0  0  0
   -2.1450   -6.6930   22.7270 N   0  0  0  0  0  0  0  0  0  0  0  0
   -0.1580   -8.0890   22.5260 C   0  0  0  0  0  0  0  0  0  0  0  0
   -0.1370   -8.5820   21.2730 N   0  0  0  0  0  0  0  0  0  0  0  0
    0.9620   -9.3400   21.1650 C   0  0  0  0  0  0  0  0  0  0  0  0
    3.8990   -9.1870   21.9880 O   0  0  0  0  0  0  0  0  0  0  0  0
    9.7190   -8.7540   17.2220 O   0  0  0  0  0  0  0  0  0  0  0  0
   10.9010   -7.9800   17.0500 C   0  0  0  0  0  0  0  0  0  0  0  0
   11.3160   -8.0070   15.5940 C   0  0  0  0  0  0  0  0  0  0  0  0
   10.2660   -7.4550   14.6460 C   0  0  0  0  0  0  0  0  0  0  0  0
   10.4460   -6.0480   14.4360 O   0  0  0  0  0  0  0  0  0  0  0  0
   11.5040   -9.3570   15.2230 O   0  0  0  0  0  0  0  0  0  0  0  0
   11.2460   -9.5420   13.8510 C   0  0  0  0  0  0  0  0  0  0  0  0
   10.4250   -8.3310   13.4170 C   0  0  0  0  0  0  0  0  0  0  0  0
   11.0380   -7.6260   12.3480 O   0  0  0  0  0  0  0  0  0  0  0  0
   10.9030   -8.2280   11.0320 C   0  0  0  0  0  0  0  0  0  0  0  0
   10.4320   -9.3510   10.8560 O   0  0  0  0  0  0  0  0  0  0  0  0
   11.4080   -7.4060    9.8870 C   0  0  0  0  0  0  0  0  0  0  0  0
   10.8360   -5.9810    9.9180 C   0  0  0  0  0  0  0  0  0  0  0  0
   10.1320   -5.6260    8.6170 C   0  0  0  0  0  0  0  0  0  0  0  0
    8.8930   -4.7640    8.8300 C   0  0  0  0  0  0  0  0  0  0  0  0
    7.6330   -5.5650    8.5460 C   0  0  0  0  0  0  0  0  0  0  0  0
    6.4440   -4.6610    8.3050 C   0  0  0  0  0  0  0  0  0  0  0  0
    6.1520   -4.4970    6.8190 C   0  0  0  0  0  0  0  0  0  0  0  0
    4.6530   -4.4400    6.5160 C   0  0  0  0  0  0  0  0  0  0  0  0
    4.1920   -3.0190    6.2100 C   0  0  0  0  0  0  0  0  0  0  0  0
    2.7540   -2.7490    6.6410 C   0  0  0  0  0  0  0  0  0  0  0  0
    2.6570   -1.6940    7.7460 C   0  0  0  0  0  0  0  0  0  0  0  0
    2.5390   -0.2920    7.1690 C   0  0  0  0  0  0  0  0  0  0  0  0
    2.7390    0.7640    8.2470 C   0  0  0  0  0  0  0  0  0  0  0  0
   13.2368   -9.6884   13.8522 H   0  0  0  0  0  0  0  0  0  0  0  0
    8.6448   -8.2940   20.3964 H   0  0  0  0  0  0  0  0  0  0  0  0
    8.5465  -11.8308   19.2202 H   0  0  0  0  0  0  0  0  0  0  0  0
    5.5805   -8.6790   20.0416 H   0  0  0  0  0  0  0  0  0  0  0  0
    4.5591  -10.0727   19.5605 H   0  0  0  0  0  0  0  0  0  0  0  0
    5.9223   -9.7346   22.2527 H   0  0  0  0  0  0  0  0  0  0  0  0
    4.9437  -12.1703   21.1971 H   0  0  0  0  0  0  0  0  0  0  0  0
    4.7132  -11.4819   23.9400 H   0  0  0  0  0  0  0  0  0  0  0  0
    2.6629  -11.6180   21.0792 H   0  0  0  0  0  0  0  0  0  0  0  0
    2.7352  -11.9842   23.8885 H   0  0  0  0  0  0  0  0  0  0  0  0
    2.9707  -10.1176   23.7090 H   0  0  0  0  0  0  0  0  0  0  0  0
    0.6524   -7.1707   26.1860 H   0  0  0  0  0  0  0  0  0  0  0  0
   -2.9116   -6.3420   23.3186 H   0  0  0  0  0  0  0  0  0  0  0  0
   -2.2275   -6.6552   21.7010 H   0  0  0  0  0  0  0  0  0  0  0  0
    1.2619   -9.8774   20.2533 H   0  0  0  0  0  0  0  0  0  0  0  0
   11.7075   -8.4003   17.6688 H   0  0  0  0  0  0  0  0  0  0  0  0
   10.7064   -6.9415   17.3561 H   0  0  0  0  0  0  0  0  0  0  0  0
   12.2190   -7.3840   15.5131 H   0  0  0  0  0  0  0  0  0  0  0  0
    9.2320   -7.5004   15.0184 H   0  0  0  0  0  0  0  0  0  0  0  0
   10.5048   -5.5886   15.3110 H   0  0  0  0  0  0  0  0  0  0  0  0
   10.6848  -10.4578   13.6138 H   0  0  0  0  0  0  0  0  0  0  0  0
    9.4453   -8.6484   13.0305 H   0  0  0  0  0  0  0  0  0  0  0  0
   11.1128   -7.8886    8.9436 H   0  0  0  0  0  0  0  0  0  0  0  0
   12.5029   -7.3389    9.9684 H   0  0  0  0  0  0  0  0  0  0  0  0
   11.6594   -5.2704   10.0826 H   0  0  0  0  0  0  0  0  0  0  0  0
   10.0979   -5.9266   10.7318 H   0  0  0  0  0  0  0  0  0  0  0  0
    9.8298   -6.5574    8.1158 H   0  0  0  0  0  0  0  0  0  0  0  0
   10.8386   -5.0440    8.0071 H   0  0  0  0  0  0  0  0  0  0  0  0
    8.9327   -3.8989    8.1517 H   0  0  0  0  0  0  0  0  0  0  0  0
    8.8709   -4.4245    9.8761 H   0  0  0  0  0  0  0  0  0  0  0  0
    7.4198   -6.2137    9.4084 H   0  0  0  0  0  0  0  0  0  0  0  0
    7.8015   -6.1631    7.6383 H   0  0  0  0  0  0  0  0  0  0  0  0
    6.6547   -3.6720    8.7380 H   0  0  0  0  0  0  0  0  0  0  0  0
    5.5634   -5.1196    8.7786 H   0  0  0  0  0  0  0  0  0  0  0  0
    6.5885   -5.3496    6.2781 H   0  0  0  0  0  0  0  0  0  0  0  0
    6.5934   -3.5425    6.4963 H   0  0  0  0  0  0  0  0  0  0  0  0
    4.0985   -4.8142    7.3892 H   0  0  0  0  0  0  0  0  0  0  0  0
    4.4590   -5.0614    5.6293 H   0  0  0  0  0  0  0  0  0  0  0  0
    4.8532   -2.3156    6.7373 H   0  0  0  0  0  0  0  0  0  0  0  0
    4.2367   -2.8882    5.1187 H   0  0  0  0  0  0  0  0  0  0  0  0
    2.1849   -2.3974    5.7678 H   0  0  0  0  0  0  0  0  0  0  0  0
    2.3451   -3.6884    7.0415 H   0  0  0  0  0  0  0  0  0  0  0  0
    1.7702   -1.9026    8.3625 H   0  0  0  0  0  0  0  0  0  0  0  0
    3.5745   -1.7423    8.3508 H   0  0  0  0  0  0  0  0  0  0  0  0
    3.3038   -0.1589    6.3897 H   0  0  0  0  0  0  0  0  0  0  0  0
    1.5306   -0.1724    6.7462 H   0  0  0  0  0  0  0  0  0  0  0  0
    2.6505    0.2968    9.2389 H   0  0  0  0  0  0  0  0  0  0  0  0
    3.7380    1.2120    8.1405 H   0  0  0  0  0  0  0  0  0  0  0  0
    1.9731    1.5463    8.1405 H   0  0  0  0  0  0  0  0  0  0  0  0
 47 46  1  0
 47 48  1  0
 46 45  1  0
 48 49  1  0
 45 44  1  0
 50 49  1  0
 50 51  1  0
 44 43  1  0
 43 42  1  0
 41 42  1  0
 41 40  1  0
 39 40  1  0
 39 37  1  0
 38 37  2  0
 37 36  1  0
 36 35  1  0
  1 34  1  0
 35 34  1  0
 35 31  1  0
 34 33  1  0
 32 31  1  0
 31 30  1  0
 33 30  1  0
 30 29  1  0
 29 28  1  0
 28  3  1  0
  7  6  2  0
  5  3  1  0
  5  6  1  0
  2  3  2  0
  8  6  1  0
  3  4  1  0
  6  9  1  0
  9 10  1  0
 10 11  1  0
 26 25  2  0
 26 17  1  0
 25 24  1  0
 11 12  1  0
 11 27  1  0
 12 14  1  0
 12 13  1  0
 27 16  1  0
 14 16  1  0
 14 15  1  0
 17 16  1  0
 17 18  1  0
 24 18  1  0
 24 22  2  0
 23 22  1  0
 18 19  2  0
 22 21  1  0
 19 20  1  0
 21 20  2  0
  1 52  1  0
  4 53  1  0
  8 54  1  0
 10 55  1  0
 10 56  1  0
 11 57  1  0
 12 58  1  0
 13 59  1  0
 14 60  1  0
 15 61  1  0
 16 62  1  0
 20 63  1  0
 23 64  1  0
 23 65  1  0
 26 66  1  0
 29 67  1  0
 29 68  1  0
 30 69  1  0
 31 70  1  0
 32 71  1  0
 34 72  1  0
 35 73  1  0
 39 74  1  0
 39 75  1  0
 40 76  1  0
 40 77  1  0
 41 78  1  0
 41 79  1  0
 42 80  1  0
 42 81  1  0
 43 82  1  0
 43 83  1  0
 44 84  1  0
 44 85  1  0
 45 86  1  0
 45 87  1  0
 46 88  1  0
 46 89  1  0
 47 90  1  0
 47 91  1  0
 48 92  1  0
 48 93  1  0
 49 94  1  0
 49 95  1  0
 50 96  1  0
 50 97  1  0
 51 98  1  0
 51 99  1  0
 51100  1  0
A    1
O3
A    2
O14
A    3
P
A    4
O13
A    5
O6
A    6
P1
A    7
O12
A    8
O11
A    9
O7
A   10
C21
A   11
C22
A   12
C23
A   13
O9
A   14
C24
A   15
O10
A   16
C25
A   17
N
A   18
C27
A   19
N4
A   20
C30
A   21
N3
A   22
C29
A   23
N2
A   24
C28
A   25
N1
A   26
C26
A   27
O8
A   28
O5
A   29
C20
A   30
C19
A   31
C
A   32
O
A   33
O4
A   34
C18
A   35
C1
A   36
O1
A   37
C2
A   38
O2
A   39
C3
A   40
C4
A   41
C5
A   42
C6
A   43
C7
A   44
C8
A   45
C9
A   46
C10
A   47
C11
A   48
C12
A   49
C13
A   50
C14
A   51
C15
M  END
