4Y6R_RF7_A_501
     RDKit          3D

 34 34  0  0  0  0  0  0  0  0999 V2000
    0.3340   15.3960   23.1770 O   0  0  0  0  0  0  0  0  0  0  0  0
   -0.5340   14.6220   22.2160 P   0  0  0  0  0  0  0  0  0  0  0  0
   -1.7420   14.0970   22.9330 O   0  0  0  0  0  0  0  0  0  0  0  0
   -0.9940   15.5250   21.0900 O   0  0  0  0  0  0  0  0  0  0  0  0
    0.3580   13.2240   21.4690 C   0  0  0  0  0  0  0  0  0  0  0  0
    1.2440   12.4450   22.4410 C   0  0  0  0  0  0  0  0  0  0  0  0
    2.2900   11.6700   21.6390 C   0  0  0  0  0  0  0  0  0  0  0  0
    3.3860   12.5130   21.0220 C   0  0  0  0  0  0  0  0  0  0  0  0
    3.9970   12.0910   19.9120 N   0  0  0  0  0  0  0  0  0  0  0  0
    5.0030   12.8710   19.3520 O   0  0  0  0  0  0  0  0  0  0  0  0
    3.6190   10.8420   19.2620 C   0  0  0  0  0  0  0  0  0  0  0  0
    3.7420   13.5670   21.5340 O   0  0  0  0  0  0  0  0  0  0  0  0
    0.4880   11.4120   23.2240 C   0  0  0  0  0  0  0  0  0  0  0  0
   -0.7930   11.0050   22.8670 C   0  0  0  0  0  0  0  0  0  0  0  0
   -1.4480   10.0270   23.6110 C   0  0  0  0  0  0  0  0  0  0  0  0
   -0.8270    9.4430   24.7080 C   0  0  0  0  0  0  0  0  0  0  0  0
    0.4520    9.8380   25.0610 C   0  0  0  0  0  0  0  0  0  0  0  0
    1.1040   10.8150   24.3220 C   0  0  0  0  0  0  0  0  0  0  0  0
    0.0801   15.1696   24.1067 H   0  0  0  0  0  0  0  0  0  0  0  0
   -1.5985   14.1593   23.9106 H   0  0  0  0  0  0  0  0  0  0  0  0
   -0.3834   12.5292   21.0477 H   0  0  0  0  0  0  0  0  0  0  0  0
    1.0282   13.6511   20.7085 H   0  0  0  0  0  0  0  0  0  0  0  0
    1.6753   13.1855   23.1307 H   0  0  0  0  0  0  0  0  0  0  0  0
    1.7713   11.1394   20.8270 H   0  0  0  0  0  0  0  0  0  0  0  0
    2.7879   10.9998   22.3552 H   0  0  0  0  0  0  0  0  0  0  0  0
    5.5387   13.2864   20.0735 H   0  0  0  0  0  0  0  0  0  0  0  0
    3.3900   10.0853   20.0268 H   0  0  0  0  0  0  0  0  0  0  0  0
    2.7313   11.0093   18.6344 H   0  0  0  0  0  0  0  0  0  0  0  0
    4.4505   10.4890   18.6344 H   0  0  0  0  0  0  0  0  0  0  0  0
   -1.2896   11.4564   21.9955 H   0  0  0  0  0  0  0  0  0  0  0  0
   -2.4641    9.7147   23.3282 H   0  0  0  0  0  0  0  0  0  0  0  0
   -1.3487    8.6711   25.2928 H   0  0  0  0  0  0  0  0  0  0  0  0
    0.9510    9.3778   25.9266 H   0  0  0  0  0  0  0  0  0  0  0  0
    2.1210   11.1223   24.6069 H   0  0  0  0  0  0  0  0  0  0  0  0
 11  9  1  0
 10  9  1  0
  9  8  1  0
  8 12  2  0
  8  7  1  0
  4  2  2  0
  5  2  1  0
  5  6  1  0
  7  6  1  0
  2  3  1  0
  2  1  1  0
  6 13  1  0
 14 13  2  0
 14 15  1  0
 13 18  1  0
 15 16  2  0
 18 17  2  0
 16 17  1  0
  1 19  1  0
  3 20  1  0
  5 21  1  0
  5 22  1  0
  6 23  1  0
  7 24  1  0
  7 25  1  0
 10 26  1  0
 11 27  1  0
 11 28  1  0
 11 29  1  0
 14 30  1  0
 15 31  1  0
 16 32  1  0
 17 33  1  0
 18 34  1  0
A    1
O6
A    2
P4
A    3
O5
A    4
O7
A    5
C1
A    6
C2
A    7
C3
A    8
C8
A    9
N9
A   10
O10
A   11
C11
A   12
O12
A   13
C13
A   14
C15
A   15
C16
A   16
C18
A   17
C17
A   18
C14
M  END
