4Y71_48W_A_302
     RDKit          3D

 61 64  0  0  0  0  0  0  0  0999 V2000
    6.8290    2.7040   21.1420 C   0  0  0  0  0  0  0  0  0  0  0  0
    7.0420    4.1200   20.6630 C   0  0  0  0  0  0  0  0  0  0  0  0
    6.2350    5.0810   21.3680 N   0  0  0  0  0  0  0  0  0  0  0  0
    4.8860    4.7440   21.8350 C   0  0  0  0  0  0  0  0  0  0  0  0
    4.5490    5.8650   22.7940 C   0  0  0  0  0  0  0  0  0  0  0  0
    5.8350    6.6220   23.0560 C   0  0  0  0  0  0  0  0  0  0  0  0
    5.7180    8.0920   23.0180 N   0  0  0  0  0  0  0  0  0  0  0  0
    6.0860    9.0510   24.2750 S   0  0  0  0  0  0  0  0  0  0  0  0
    5.3990    8.5520   25.4480 O   0  0  0  0  0  0  0  0  0  0  0  0
    5.8500   10.4020   23.8200 O   0  0  0  0  0  0  0  0  0  0  0  0
    7.8250    8.8730   24.5930 C   0  0  0  0  0  0  0  0  0  0  0  0
    8.7220    9.4410   23.7230 C   0  0  0  0  0  0  0  0  0  0  0  0
   10.0670    9.2880   23.9720 C   0  0  0  0  0  0  0  0  0  0  0  0
   10.4970    8.5810   25.0740 C   0  0  0  0  0  0  0  0  0  0  0  0
   11.8830    8.4310   25.3240 C   0  0  0  0  0  0  0  0  0  0  0  0
   12.3100    7.7240   26.4230 C   0  0  0  0  0  0  0  0  0  0  0  0
   14.0090    7.5360   26.7120 Cl  0  0  0  0  0  0  0  0  0  0  0  0
   11.3860    7.1700   27.2830 C   0  0  0  0  0  0  0  0  0  0  0  0
   10.0370    7.3170   27.0390 C   0  0  0  0  0  0  0  0  0  0  0  0
    9.5880    8.0150   25.9400 C   0  0  0  0  0  0  0  0  0  0  0  0
    8.2360    8.1610   25.6970 C   0  0  0  0  0  0  0  0  0  0  0  0
    6.8110    6.0960   22.0440 C   0  0  0  0  0  0  0  0  0  0  0  0
    7.9490    6.5090   21.8760 O   0  0  0  0  0  0  0  0  0  0  0  0
    6.6640    4.1810   19.1790 C   0  0  0  0  0  0  0  0  0  0  0  0
    5.5020    4.2290   18.8100 O   0  0  0  0  0  0  0  0  0  0  0  0
    7.6440    4.1980   18.2620 N   0  0  0  0  0  0  0  0  0  0  0  0
    9.0300    3.8910   18.6210 C   0  0  0  0  0  0  0  0  0  0  0  0
    9.7010    3.0110   17.6010 C   0  0  0  0  0  0  0  0  0  0  0  0
    8.9800    1.7750   17.4960 N   0  0  0  0  0  0  0  0  0  0  0  0
    9.3110    0.7570   18.4540 C   0  0  0  0  0  0  0  0  0  0  0  0
    7.7240    1.7780   16.9490 C   0  0  0  0  0  0  0  0  0  0  0  0
    6.9690    0.8300   17.1070 O   0  0  0  0  0  0  0  0  0  0  0  0
    7.2950    2.9730   16.1410 C   0  0  0  0  0  0  0  0  0  0  0  0
    7.3280    4.3330   16.8340 C   0  0  0  0  0  0  0  0  0  0  0  0
    6.8262    2.6855   22.2418 H   0  0  0  0  0  0  0  0  0  0  0  0
    5.8647    2.3311   20.7666 H   0  0  0  0  0  0  0  0  0  0  0  0
    7.6410    2.0639   20.7666 H   0  0  0  0  0  0  0  0  0  0  0  0
    8.0966    4.3762   20.8423 H   0  0  0  0  0  0  0  0  0  0  0  0
    4.1752    4.7184   20.9959 H   0  0  0  0  0  0  0  0  0  0  0  0
    4.8327    3.7506   22.3043 H   0  0  0  0  0  0  0  0  0  0  0  0
    3.8007    6.5347   22.3450 H   0  0  0  0  0  0  0  0  0  0  0  0
    4.1277    5.4691   23.7298 H   0  0  0  0  0  0  0  0  0  0  0  0
    6.1646    6.4483   24.0910 H   0  0  0  0  0  0  0  0  0  0  0  0
    6.3189    8.4026   22.2412 H   0  0  0  0  0  0  0  0  0  0  0  0
    8.3735   10.0061   22.8460 H   0  0  0  0  0  0  0  0  0  0  0  0
   10.8036    9.7330   23.2868 H   0  0  0  0  0  0  0  0  0  0  0  0
   12.6174    8.8800   24.6391 H   0  0  0  0  0  0  0  0  0  0  0  0
   11.7258    6.6092   28.1662 H   0  0  0  0  0  0  0  0  0  0  0  0
    9.3089    6.8703   27.7321 H   0  0  0  0  0  0  0  0  0  0  0  0
    7.4967    7.7136   26.3776 H   0  0  0  0  0  0  0  0  0  0  0  0
    9.0382    3.3761   19.5930 H   0  0  0  0  0  0  0  0  0  0  0  0
    9.5850    4.8397   18.6652 H   0  0  0  0  0  0  0  0  0  0  0  0
   10.7357    2.8078   17.9143 H   0  0  0  0  0  0  0  0  0  0  0  0
    9.7095    3.5176   16.6247 H   0  0  0  0  0  0  0  0  0  0  0  0
    9.1816    1.1549   19.4713 H   0  0  0  0  0  0  0  0  0  0  0  0
    8.6483   -0.1094   18.3121 H   0  0  0  0  0  0  0  0  0  0  0  0
   10.3565    0.4460   18.3121 H   0  0  0  0  0  0  0  0  0  0  0  0
    6.2610    2.7950   15.8107 H   0  0  0  0  0  0  0  0  0  0  0  0
    8.0367    3.0492   15.3323 H   0  0  0  0  0  0  0  0  0  0  0  0
    8.0944    4.9603   16.3554 H   0  0  0  0  0  0  0  0  0  0  0  0
    6.3335    4.7937   16.7410 H   0  0  0  0  0  0  0  0  0  0  0  0
 33 34  1  0
 33 31  1  0
 34 26  1  0
 31 32  2  0
 31 29  1  0
 29 28  1  0
 29 30  1  0
 28 27  1  0
 26 27  1  0
 26 24  1  0
 25 24  2  0
 24  2  1  0
  2  1  1  0
  2  3  1  0
  3  4  1  0
  3 22  1  0
  4  5  1  0
 23 22  2  0
 22  6  1  0
  5  6  1  0
  7  6  1  0
  7  8  1  0
 12 13  2  0
 12 11  1  0
 10  8  2  0
 13 14  1  0
  8 11  1  0
  8  9  2  0
 11 21  2  0
 14 15  2  0
 14 20  1  0
 15 16  1  0
 21 20  1  0
 20 19  2  0
 16 17  1  0
 16 18  2  0
 19 18  1  0
  1 35  1  0
  1 36  1  0
  1 37  1  0
  2 38  1  0
  4 39  1  0
  4 40  1  0
  5 41  1  0
  5 42  1  0
  6 43  1  0
  7 44  1  0
 12 45  1  0
 13 46  1  0
 15 47  1  0
 18 48  1  0
 19 49  1  0
 21 50  1  0
 27 51  1  0
 27 52  1  0
 28 53  1  0
 28 54  1  0
 30 55  1  0
 30 56  1  0
 30 57  1  0
 33 58  1  0
 33 59  1  0
 34 60  1  0
 34 61  1  0
A    1
C1
A    2
C2
A    3
N3
A    4
C4
A    5
C5
A    6
C6
A    7
N7
A    8
S8
A    9
O9
A   10
O10
A   11
C11
A   12
C12
A   13
C13
A   14
C14
A   15
C15
A   16
C16
A   17
CL1
A   18
C18
A   19
C19
A   20
C20
A   21
C21
A   22
C22
A   23
O23
A   24
C24
A   25
O25
A   26
N26
A   27
C27
A   28
C28
A   29
N29
A   30
C30
A   31
C31
A   32
O32
A   33
C33
A   34
C34
M  END
