4Y7F_48X_A_402
     RDKit          3D

 17 16  0  0  0  0  0  0  0  0999 V2000
    7.1520   -1.5700  -32.7880 P   0  0  0  0  0  0  0  0  0  0  0  0
    9.1560   -2.1220  -27.7600 O   0  0  0  0  0  0  0  0  0  0  0  0
    7.9650   -0.4040  -28.3190 O   0  0  0  0  0  0  0  0  0  0  0  0
    8.2020   -0.4950  -32.9660 O   0  0  0  0  0  0  0  0  0  0  0  0
    5.9440   -0.9980  -32.0860 O   0  0  0  0  0  0  0  0  0  0  0  0
    6.6880   -2.0770  -34.1370 O   0  0  0  0  0  0  0  0  0  0  0  0
    7.7950   -2.7450  -31.9330 O   0  0  0  0  0  0  0  0  0  0  0  0
    8.5010   -2.4230  -30.7570 C   0  0  0  0  0  0  0  0  0  0  0  0
    7.5860   -2.4390  -29.5550 C   0  0  0  0  0  0  0  0  0  0  0  0
    8.2680   -1.6140  -28.4840 C   0  0  0  0  0  0  0  0  0  0  0  0
    9.0768   -2.0767  -26.7742 H   0  0  0  0  0  0  0  0  0  0  0  0
    8.5077   -0.1820  -32.0779 H   0  0  0  0  0  0  0  0  0  0  0  0
    6.0722   -1.0587  -31.1062 H   0  0  0  0  0  0  0  0  0  0  0  0
    9.3048   -3.1588  -30.6071 H   0  0  0  0  0  0  0  0  0  0  0  0
    8.9198   -1.4116  -30.8653 H   0  0  0  0  0  0  0  0  0  0  0  0
    6.6123   -1.9968  -29.8128 H   0  0  0  0  0  0  0  0  0  0  0  0
    7.4025   -3.4668  -29.2086 H   0  0  0  0  0  0  0  0  0  0  0  0
  6  1  2  0
  4  1  1  0
  1  5  1  0
  1  7  1  0
  7  8  1  0
  8  9  1  0
  9 10  1  0
 10  3  2  0
 10  2  1  0
  2 11  1  0
  4 12  1  0
  5 13  1  0
  8 14  1  0
  8 15  1  0
  9 16  1  0
  9 17  1  0
A    1
P
A    2
O1
A    3
O2
A    4
O4P
A    5
O2P
A    6
O3P
A    7
O1P
A    8
C3
A    9
C2
A   10
C1
M  END
