4Y7U_491_A_307
     RDKit          3D

 44 44  0  0  0  0  0  0  0  0999 V2000
  -20.5730  -36.8540   17.5150 C   0  0  0  0  0  0  0  0  0  0  0  0
  -19.4710  -37.1730   16.5270 C   0  0  0  0  0  0  0  0  0  0  0  0
  -18.2540  -36.4350   16.9060 C   0  0  0  0  0  0  0  0  0  0  0  0
  -17.2040  -37.0610   17.1630 O   0  0  0  0  0  0  0  0  0  0  0  0
  -18.2710  -35.1790   16.9740 O   0  0  0  0  0  0  0  0  0  0  0  0
  -19.8750  -36.7930   15.2030 O   0  0  0  0  0  0  0  0  0  0  0  0
  -19.2720  -37.6120   14.1300 C   0  0  0  0  0  0  0  0  0  0  0  0
  -18.8340  -36.7540   13.0310 C   0  0  0  0  0  0  0  0  0  0  0  0
  -18.0880  -37.5640   12.0040 C   0  0  0  0  0  0  0  0  0  0  0  0
  -18.9550  -38.6720   11.4860 O   0  0  0  0  0  0  0  0  0  0  0  0
  -19.5960  -39.4640   12.5290 C   0  0  0  0  0  0  0  0  0  0  0  0
  -20.2400  -38.6290   13.6120 C   0  0  0  0  0  0  0  0  0  0  0  0
  -20.6710  -39.4720   14.6640 O   0  0  0  0  0  0  0  0  0  0  0  0
  -20.6320  -40.3250   11.8720 C   0  0  0  0  0  0  0  0  0  0  0  0
  -19.9630  -41.1560   10.9520 O   0  0  0  0  0  0  0  0  0  0  0  0
  -16.9670  -38.0750   12.5620 O   0  0  0  0  0  0  0  0  0  0  0  0
  -16.0280  -39.0350   11.7650 P   0  0  0  0  0  0  0  0  0  0  0  0
  -14.6990  -39.1120   12.4860 O   0  0  0  0  0  0  0  0  0  0  0  0
  -16.6330  -40.4160   11.7040 O   0  0  0  0  0  0  0  0  0  0  0  0
  -15.7980  -38.5260   10.3650 O   0  0  0  0  0  0  0  0  0  0  0  0
  -18.0010  -35.6520   13.5760 N   0  0  0  0  0  0  0  0  0  0  0  0
  -17.5350  -34.5650   12.7270 C   0  0  0  0  0  0  0  0  0  0  0  0
  -17.8110  -34.5460   11.5430 O   0  0  0  0  0  0  0  0  0  0  0  0
  -16.6730  -33.4230   13.3430 C   0  0  0  0  0  0  0  0  0  0  0  0
  -20.1898  -36.9649   18.5401 H   0  0  0  0  0  0  0  0  0  0  0  0
  -20.9152  -35.8199   17.3614 H   0  0  0  0  0  0  0  0  0  0  0  0
  -21.4147  -37.5454   17.3614 H   0  0  0  0  0  0  0  0  0  0  0  0
  -19.2684  -38.2541   16.5408 H   0  0  0  0  0  0  0  0  0  0  0  0
  -16.9394  -37.2187   18.1039 H   0  0  0  0  0  0  0  0  0  0  0  0
  -18.4069  -38.1408   14.5566 H   0  0  0  0  0  0  0  0  0  0  0  0
  -19.7065  -36.3124   12.5272 H   0  0  0  0  0  0  0  0  0  0  0  0
  -17.8126  -36.9128   11.1614 H   0  0  0  0  0  0  0  0  0  0  0  0
  -18.8197  -40.0610   13.0299 H   0  0  0  0  0  0  0  0  0  0  0  0
  -21.1076  -38.1000   13.1908 H   0  0  0  0  0  0  0  0  0  0  0  0
  -20.4557  -39.0508   15.5337 H   0  0  0  0  0  0  0  0  0  0  0  0
  -21.3662  -39.6963   11.3469 H   0  0  0  0  0  0  0  0  0  0  0  0
  -21.1707  -40.9257   12.6196 H   0  0  0  0  0  0  0  0  0  0  0  0
  -19.4240  -41.8255   11.4433 H   0  0  0  0  0  0  0  0  0  0  0  0
  -14.8531  -39.1031   13.4639 H   0  0  0  0  0  0  0  0  0  0  0  0
  -16.7805  -40.7526   12.6233 H   0  0  0  0  0  0  0  0  0  0  0  0
  -17.7479  -35.6568   14.5744 H   0  0  0  0  0  0  0  0  0  0  0  0
  -16.7172  -33.4815   14.4406 H   0  0  0  0  0  0  0  0  0  0  0  0
  -15.6297  -33.5316   13.0117 H   0  0  0  0  0  0  0  0  0  0  0  0
  -17.0634  -32.4494   13.0117 H   0  0  0  0  0  0  0  0  0  0  0  0
 20 17  2  0
 15 14  1  0
 10  9  1  0
 10 11  1  0
 23 22  2  0
 19 17  1  0
 17 18  1  0
 17 16  1  0
 14 11  1  0
  9 16  1  0
  9  8  1  0
 11 12  1  0
 22 24  1  0
 22 21  1  0
  8 21  1  0
  8  7  1  0
 12  7  1  0
 12 13  1  0
  7  6  1  0
  6  2  1  0
  2  3  1  0
  2  1  1  0
  3  5  2  0
  3  4  1  0
  1 25  1  0
  1 26  1  0
  1 27  1  0
  2 28  1  0
  4 29  1  0
  7 30  1  0
  8 31  1  0
  9 32  1  0
 11 33  1  0
 12 34  1  0
 13 35  1  0
 14 36  1  0
 14 37  1  0
 15 38  1  0
 18 39  1  0
 19 40  1  0
 21 41  1  0
 24 42  1  0
 24 43  1  0
 24 44  1  0
A    1
C01
A    2
C02
A    3
C03
A    4
O04
A    5
O05
A    6
O06
A    7
C07
A    8
C08
A    9
C09
A   10
O10
A   11
C11
A   12
C12
A   13
O13
A   14
C14
A   15
O15
A   16
O16
A   17
P17
A   18
O18
A   19
O19
A   20
O20
A   21
N21
A   22
C22
A   23
O23
A   24
C24
M  END
