4Y8X_4GR_A_301
     RDKit          3D

 66 70  0  0  0  0  0  0  0  0999 V2000
   39.1580  -18.6420   29.5000 C   0  0  0  0  0  0  0  0  0  0  0  0
   37.4050  -14.8120   26.9790 C   0  0  0  0  0  0  0  0  0  0  0  0
   37.0980  -15.7730   27.9560 C   0  0  0  0  0  0  0  0  0  0  0  0
   37.8610  -17.0190   28.1030 C   0  0  0  0  0  0  0  0  0  0  0  0
   38.4140  -17.3940   29.2450 C   0  0  0  0  0  0  0  0  0  0  0  0
   36.6890  -13.6170   26.9340 C   0  0  0  0  0  0  0  0  0  0  0  0
   35.6160  -13.3990   27.8030 C   0  0  0  0  0  0  0  0  0  0  0  0
   35.2600  -14.3850   28.7000 C   0  0  0  0  0  0  0  0  0  0  0  0
   35.9900  -15.5590   28.7990 C   0  0  0  0  0  0  0  0  0  0  0  0
   40.9800  -23.9490   27.5350 C   0  0  0  0  0  0  0  0  0  0  0  0
   40.0400  -23.3120   28.3400 C   0  0  0  0  0  0  0  0  0  0  0  0
   38.7380  -14.9010   24.7720 C   0  0  0  0  0  0  0  0  0  0  0  0
   40.5310  -24.9190   30.1020 C   0  0  0  0  0  0  0  0  0  0  0  0
   45.7600  -20.6750   30.2360 C   0  0  0  0  0  0  0  0  0  0  0  0
   33.8490  -14.1580   29.7050 Cl  0  0  0  0  0  0  0  0  0  0  0  0
   44.6650  -20.4530   27.0650 Cl  0  0  0  0  0  0  0  0  0  0  0  0
   41.3290  -20.7510   28.7720 C   0  0  0  0  0  0  0  0  0  0  0  0
   42.0620  -20.5130   27.6910 N   0  0  0  0  0  0  0  0  0  0  0  0
   43.3350  -20.6350   28.1410 C   0  0  0  0  0  0  0  0  0  0  0  0
   43.3970  -20.9190   29.4760 C   0  0  0  0  0  0  0  0  0  0  0  0
   42.0860  -20.9850   29.8610 N   0  0  0  0  0  0  0  0  0  0  0  0
   44.4810  -21.2120   30.4170 C   0  0  0  0  0  0  0  0  0  0  0  0
   39.8370  -20.8730   28.8020 C   0  0  0  0  0  0  0  0  0  0  0  0
   39.3830  -22.0150   27.8780 C   0  0  0  0  0  0  0  0  0  0  0  0
   39.2000  -19.5820   28.4910 N   0  0  0  0  0  0  0  0  0  0  0  0
   39.7400  -18.8080   30.5760 O   0  0  0  0  0  0  0  0  0  0  0  0
   38.4780  -15.0370   26.0650 N   0  0  0  0  0  0  0  0  0  0  0  0
   41.6940  -25.0470   28.0130 C   0  0  0  0  0  0  0  0  0  0  0  0
   41.4660  -25.5320   29.2990 C   0  0  0  0  0  0  0  0  0  0  0  0
   39.8180  -23.8170   29.6240 C   0  0  0  0  0  0  0  0  0  0  0  0
   44.2570  -22.0630   31.4950 C   0  0  0  0  0  0  0  0  0  0  0  0
   45.2650  -22.3710   32.3790 C   0  0  0  0  0  0  0  0  0  0  0  0
   46.5590  -21.8810   32.1820 C   0  0  0  0  0  0  0  0  0  0  0  0
   46.8010  -21.0270   31.0920 C   0  0  0  0  0  0  0  0  0  0  0  0
   40.0060  -15.0580   24.5310 N   0  0  0  0  0  0  0  0  0  0  0  0
   40.5730  -15.2540   25.7430 N   0  0  0  0  0  0  0  0  0  0  0  0
   39.6720  -15.2410   26.6800 N   0  0  0  0  0  0  0  0  0  0  0  0
   47.5340  -22.3200   33.1190 N   0  0  0  0  0  0  0  0  0  0  0  0
   48.8700  -22.0220   33.1330 C   0  0  0  0  0  0  0  0  0  0  0  0
   49.4590  -21.3520   32.3170 O   0  0  0  0  0  0  0  0  0  0  0  0
   49.4450  -22.5680   34.2200 O   0  0  0  0  0  0  0  0  0  0  0  0
   50.8590  -22.2420   34.4440 C   0  0  0  0  0  0  0  0  0  0  0  0
   37.9781  -17.6700   27.2241 H   0  0  0  0  0  0  0  0  0  0  0  0
   38.3078  -16.7023   30.0937 H   0  0  0  0  0  0  0  0  0  0  0  0
   36.9705  -12.8392   26.2089 H   0  0  0  0  0  0  0  0  0  0  0  0
   35.0606  -12.4500   27.7720 H   0  0  0  0  0  0  0  0  0  0  0  0
   35.7040  -16.3238   29.5361 H   0  0  0  0  0  0  0  0  0  0  0  0
   41.1610  -23.5832   26.5135 H   0  0  0  0  0  0  0  0  0  0  0  0
   37.9807  -14.6839   24.0043 H   0  0  0  0  0  0  0  0  0  0  0  0
   40.3456  -25.2963   31.1185 H   0  0  0  0  0  0  0  0  0  0  0  0
   45.9449  -19.9700   29.4121 H   0  0  0  0  0  0  0  0  0  0  0  0
   41.7404  -21.1786   30.8118 H   0  0  0  0  0  0  0  0  0  0  0  0
   39.5088  -21.1360   29.8184 H   0  0  0  0  0  0  0  0  0  0  0  0
   39.6852  -21.7957   26.8433 H   0  0  0  0  0  0  0  0  0  0  0  0
   38.2883  -22.1156   27.9183 H   0  0  0  0  0  0  0  0  0  0  0  0
   38.8030  -19.3892   27.5603 H   0  0  0  0  0  0  0  0  0  0  0  0
   42.4425  -25.5337   27.3704 H   0  0  0  0  0  0  0  0  0  0  0  0
   42.0301  -26.4001   29.6707 H   0  0  0  0  0  0  0  0  0  0  0  0
   39.0679  -23.3378   30.2703 H   0  0  0  0  0  0  0  0  0  0  0  0
   43.2570  -22.4967   31.6428 H   0  0  0  0  0  0  0  0  0  0  0  0
   45.0506  -23.0089   33.2491 H   0  0  0  0  0  0  0  0  0  0  0  0
   47.8138  -20.6362   30.9148 H   0  0  0  0  0  0  0  0  0  0  0  0
   47.1961  -22.9331   33.8746 H   0  0  0  0  0  0  0  0  0  0  0  0
   51.0579  -22.1961   35.5249 H   0  0  0  0  0  0  0  0  0  0  0  0
   51.4910  -23.0180   33.9875 H   0  0  0  0  0  0  0  0  0  0  0  0
   51.0874  -21.2676   33.9875 H   0  0  0  0  0  0  0  0  0  0  0  0
 35 12  2  0
 35 36  1  0
 12 27  1  0
 36 37  2  0
 27 37  1  0
 27  2  1  0
  6  2  2  0
  6  7  1  0
  2  3  1  0
 16 19  1  0
 10 28  2  0
 10 11  1  0
 18 19  1  0
 18 17  2  0
  7  8  2  0
 24 11  1  0
 24 23  1  0
  3  4  1  0
  3  9  2  0
 28 29  1  0
  4  5  2  0
 19 20  2  0
 11 30  2  0
 25 23  1  0
 25  1  1  0
  8  9  1  0
  8 15  1  0
 17 23  1  0
 17 21  1  0
  5  1  1  0
 29 13  2  0
 20 21  1  0
 20 22  1  0
  1 26  2  0
 30 13  1  0
 14 22  2  0
 14 34  1  0
 22 31  1  0
 34 33  2  0
 31 32  2  0
 33 32  1  0
 33 38  1  0
 40 39  2  0
 38 39  1  0
 39 41  1  0
 41 42  1  0
  4 43  1  0
  5 44  1  0
  6 45  1  0
  7 46  1  0
  9 47  1  0
 10 48  1  0
 12 49  1  0
 13 50  1  0
 14 51  1  0
 21 52  1  0
 23 53  1  0
 24 54  1  0
 24 55  1  0
 25 56  1  0
 28 57  1  0
 29 58  1  0
 30 59  1  0
 31 60  1  0
 32 61  1  0
 34 62  1  0
 38 63  1  0
 42 64  1  0
 42 65  1  0
 42 66  1  0
A    1
C13
A    2
C18
A    3
C17
A    4
C16
A    5
C15
A    6
C19
A    7
C20
A    8
C21
A    9
C22
A   10
C24
A   11
C11
A   12
C34
A   13
C27
A   14
C33
A   15
CL1
A   16
CL2
A   17
C3
A   18
N4
A   19
C5
A   20
C6
A   21
N7
A   22
C8
A   23
C9
A   24
C10
A   25
N12
A   26
O14
A   27
N23
A   28
C25
A   29
C26
A   30
C28
A   31
C29
A   32
C30
A   33
C31
A   34
C32
A   35
N35
A   36
N36
A   37
N37
A   38
N38
A   39
C39
A   40
O40
A   41
O41
A   42
C42
M  END
