3OCS_746_A_999
     RDKit          3D

 80 84  0  0  0  0  0  0  0  0999 V2000
  -43.4850   19.2770    8.9010 C   0  0  0  0  0  0  0  0  0  0  0  0
  -43.5110   19.8210    7.5870 C   0  0  0  0  0  0  0  0  0  0  0  0
  -42.8960   19.0380    6.4330 C   0  0  0  0  0  0  0  0  0  0  0  0
  -44.0810   21.0980    7.3600 C   0  0  0  0  0  0  0  0  0  0  0  0
  -44.6190   21.8310    8.3990 C   0  0  0  0  0  0  0  0  0  0  0  0
  -44.6160   21.2870    9.6830 C   0  0  0  0  0  0  0  0  0  0  0  0
  -44.0610   20.0290    9.9420 C   0  0  0  0  0  0  0  0  0  0  0  0
  -42.9260   17.9460    9.2810 C   0  0  0  0  0  0  0  0  0  0  0  0
  -42.3180   17.7850   10.5020 N   0  0  0  0  0  0  0  0  0  0  0  0
  -41.8140   16.5890   10.8750 C   0  0  0  0  0  0  0  0  0  0  0  0
  -41.9410   15.4880   10.0310 C   0  0  0  0  0  0  0  0  0  0  0  0
  -41.4760   14.3530   10.3900 O   0  0  0  0  0  0  0  0  0  0  0  0
  -42.5430   15.6340    8.8460 N   0  0  0  0  0  0  0  0  0  0  0  0
  -43.0560   16.8260    8.4530 C   0  0  0  0  0  0  0  0  0  0  0  0
  -44.0360   21.5980    6.0870 N   0  0  0  0  0  0  0  0  0  0  0  0
  -44.8470   21.1770    5.1150 C   0  0  0  0  0  0  0  0  0  0  0  0
  -45.7550   20.3660    5.2980 O   0  0  0  0  0  0  0  0  0  0  0  0
  -44.5750   21.6650    3.7080 C   0  0  0  0  0  0  0  0  0  0  0  0
  -45.5540   21.6330    2.7010 C   0  0  0  0  0  0  0  0  0  0  0  0
  -45.2420   22.0560    1.4020 C   0  0  0  0  0  0  0  0  0  0  0  0
  -43.9290   22.4650    1.0910 C   0  0  0  0  0  0  0  0  0  0  0  0
  -42.9390   22.4550    2.1060 C   0  0  0  0  0  0  0  0  0  0  0  0
  -43.2550   22.0560    3.4110 C   0  0  0  0  0  0  0  0  0  0  0  0
  -43.5940   22.9400   -0.3100 C   0  0  0  0  0  0  0  0  0  0  0  0
  -43.3710   24.4520   -0.2580 C   0  0  0  0  0  0  0  0  0  0  0  0
  -44.7350   22.6520   -1.2770 C   0  0  0  0  0  0  0  0  0  0  0  0
  -42.3130   22.2910   -0.8480 C   0  0  0  0  0  0  0  0  0  0  0  0
  -40.9550   17.2220   13.1040 C   0  0  0  0  0  0  0  0  0  0  0  0
  -41.2010   16.3770   12.0640 N   0  0  0  0  0  0  0  0  0  0  0  0
  -41.2650   18.5810   13.1100 C   0  0  0  0  0  0  0  0  0  0  0  0
  -40.9350   19.3540   14.2240 C   0  0  0  0  0  0  0  0  0  0  0  0
  -40.3160   18.7610   15.3350 C   0  0  0  0  0  0  0  0  0  0  0  0
  -40.0420   17.3980   15.3360 C   0  0  0  0  0  0  0  0  0  0  0  0
  -40.3580   16.6430   14.2220 C   0  0  0  0  0  0  0  0  0  0  0  0
  -42.6850   14.4990    7.9120 C   0  0  0  0  0  0  0  0  0  0  0  0
  -39.9420   19.5750   16.5520 C   0  0  0  0  0  0  0  0  0  0  0  0
  -40.7860   20.3290   17.0010 O   0  0  0  0  0  0  0  0  0  0  0  0
  -37.7260   19.3120   19.2880 C   0  0  0  0  0  0  0  0  0  0  0  0
  -38.3390   20.2710   18.2700 C   0  0  0  0  0  0  0  0  0  0  0  0
  -38.7090   19.4680   17.0930 N   0  0  0  0  0  0  0  0  0  0  0  0
  -37.6350   18.6040   16.5350 C   0  0  0  0  0  0  0  0  0  0  0  0
  -36.9880   17.7860   17.6500 C   0  0  0  0  0  0  0  0  0  0  0  0
  -36.5880   18.6800   18.6860 O   0  0  0  0  0  0  0  0  0  0  0  0
  -42.2630   18.2321    6.8329 H   0  0  0  0  0  0  0  0  0  0  0  0
  -43.6969   18.6036    5.8166 H   0  0  0  0  0  0  0  0  0  0  0  0
  -42.2842   19.7132    5.8166 H   0  0  0  0  0  0  0  0  0  0  0  0
  -45.0437   22.8292    8.2167 H   0  0  0  0  0  0  0  0  0  0  0  0
  -45.0599   21.8597   10.5107 H   0  0  0  0  0  0  0  0  0  0  0  0
  -44.0749   19.6254   10.9652 H   0  0  0  0  0  0  0  0  0  0  0  0
  -43.5729   16.9121    7.4859 H   0  0  0  0  0  0  0  0  0  0  0  0
  -43.3460   22.3312    5.8698 H   0  0  0  0  0  0  0  0  0  0  0  0
  -46.5680   21.2750    2.9328 H   0  0  0  0  0  0  0  0  0  0  0  0
  -46.0210   22.0689    0.6254 H   0  0  0  0  0  0  0  0  0  0  0  0
  -41.9110   22.7641    1.8659 H   0  0  0  0  0  0  0  0  0  0  0  0
  -42.4822   22.0482    4.1937 H   0  0  0  0  0  0  0  0  0  0  0  0
  -43.3227   24.7796    0.7910 H   0  0  0  0  0  0  0  0  0  0  0  0
  -42.4264   24.7009   -0.7638 H   0  0  0  0  0  0  0  0  0  0  0  0
  -44.2035   24.9630   -0.7638 H   0  0  0  0  0  0  0  0  0  0  0  0
  -45.6481   22.4215   -0.7085 H   0  0  0  0  0  0  0  0  0  0  0  0
  -44.9103   23.5341   -1.9104 H   0  0  0  0  0  0  0  0  0  0  0  0
  -44.4707   21.7924   -1.9104 H   0  0  0  0  0  0  0  0  0  0  0  0
  -41.6821   21.9714   -0.0055 H   0  0  0  0  0  0  0  0  0  0  0  0
  -42.5749   21.4169   -1.4622 H   0  0  0  0  0  0  0  0  0  0  0  0
  -41.7631   23.0192   -1.4622 H   0  0  0  0  0  0  0  0  0  0  0  0
  -40.8638   15.4142   12.2059 H   0  0  0  0  0  0  0  0  0  0  0  0
  -41.7652   19.0400   12.2445 H   0  0  0  0  0  0  0  0  0  0  0  0
  -41.1606   20.4306   14.2312 H   0  0  0  0  0  0  0  0  0  0  0  0
  -39.5784   16.9252   16.2144 H   0  0  0  0  0  0  0  0  0  0  0  0
  -40.1342   15.5660   14.2181 H   0  0  0  0  0  0  0  0  0  0  0  0
  -42.8017   13.5663    8.4834 H   0  0  0  0  0  0  0  0  0  0  0  0
  -43.5707   14.6541    7.2784 H   0  0  0  0  0  0  0  0  0  0  0  0
  -41.7883   14.4311    7.2784 H   0  0  0  0  0  0  0  0  0  0  0  0
  -37.4112   19.8705   20.1819 H   0  0  0  0  0  0  0  0  0  0  0  0
  -38.4654   18.5542   19.5865 H   0  0  0  0  0  0  0  0  0  0  0  0
  -39.2319   20.7530   18.6947 H   0  0  0  0  0  0  0  0  0  0  0  0
  -37.6262   21.0632   17.9972 H   0  0  0  0  0  0  0  0  0  0  0  0
  -38.0676   17.9225   15.7878 H   0  0  0  0  0  0  0  0  0  0  0  0
  -36.8703   19.2389   16.0638 H   0  0  0  0  0  0  0  0  0  0  0  0
  -37.7118   17.0582   18.0455 H   0  0  0  0  0  0  0  0  0  0  0  0
  -36.1153   17.2400   17.2623 H   0  0  0  0  0  0  0  0  0  0  0  0
  2  1  2  0
  1  8  1  0
  1  7  1  0
  3  2  1  0
  4  2  1  0
 15  4  1  0
  4  5  2  0
  5  6  1  0
  6  7  2  0
 14  8  2  0
  8  9  1  0
  9 10  2  0
 11 10  1  0
 10 29  1  0
 13 11  1  0
 11 12  2  0
 35 13  1  0
 14 13  1  0
 16 15  1  0
 18 16  1  0
 16 17  2  0
 19 18  2  0
 23 18  1  0
 20 19  1  0
 21 20  2  0
 24 21  1  0
 21 22  1  0
 22 23  2  0
 26 24  1  0
 27 24  1  0
 24 25  1  0
 29 28  1  0
 28 30  2  0
 28 34  1  0
 30 31  1  0
 31 32  2  0
 32 33  1  0
 32 36  1  0
 34 33  2  0
 36 37  2  0
 36 40  1  0
 39 38  1  0
 43 38  1  0
 40 39  1  0
 41 40  1  0
 41 42  1  0
 42 43  1  0
  3 44  1  0
  3 45  1  0
  3 46  1  0
  5 47  1  0
  6 48  1  0
  7 49  1  0
 14 50  1  0
 15 51  1  0
 19 52  1  0
 20 53  1  0
 22 54  1  0
 23 55  1  0
 25 56  1  0
 25 57  1  0
 25 58  1  0
 26 59  1  0
 26 60  1  0
 26 61  1  0
 27 62  1  0
 27 63  1  0
 27 64  1  0
 29 65  1  0
 30 66  1  0
 31 67  1  0
 33 68  1  0
 34 69  1  0
 35 70  1  0
 35 71  1  0
 35 72  1  0
 38 73  1  0
 38 74  1  0
 39 75  1  0
 39 76  1  0
 41 77  1  0
 41 78  1  0
 42 79  1  0
 42 80  1  0
A    1
C1
A    2
C2
A    3
C3
A    4
C4
A    5
C5
A    6
C7
A    7
C9
A    8
C11
A    9
N12
A   10
C13
A   11
C14
A   12
O15
A   13
N16
A   14
C17
A   15
N19
A   16
C21
A   17
O22
A   18
C23
A   19
C24
A   20
C26
A   21
C28
A   22
C29
A   23
C31
A   24
C33
A   25
C34
A   26
C38
A   27
C42
A   28
C46
A   29
N47
A   30
C48
A   31
C49
A   32
C50
A   33
C51
A   34
C52
A   35
C60
A   36
C71
A   37
O72
A   38
C81
A   39
C82
A   40
N83
A   41
C84
A   42
C85
A   43
O86
M  END
