4Y9G_MKU_A_201
     RDKit          3D

 56 59  0  0  0  0  0  0  0  0999 V2000
  -21.9280    0.4850  -10.5420 C   0  0  0  0  0  0  0  0  0  0  0  0
  -21.6760    1.6660   -9.6220 C   0  0  0  0  0  0  0  0  0  0  0  0
  -21.4390    3.0480  -10.2190 C   0  0  0  0  0  0  0  0  0  0  0  0
  -21.6050    1.4790   -8.1020 C   0  0  0  0  0  0  0  0  0  0  0  0
  -21.9060    0.0780   -7.5650 C   0  0  0  0  0  0  0  0  0  0  0  0
  -21.1760   -0.2010   -6.4080 C   0  0  0  0  0  0  0  0  0  0  0  0
  -21.5430    0.1430   -5.0740 C   0  0  0  0  0  0  0  0  0  0  0  0
  -22.7160    0.8440   -4.7460 C   0  0  0  0  0  0  0  0  0  0  0  0
  -23.3510    1.4180   -5.6280 O   0  0  0  0  0  0  0  0  0  0  0  0
  -23.1220    0.9270   -3.4060 C   0  0  0  0  0  0  0  0  0  0  0  0
  -24.3900    1.4030   -3.0380 C   0  0  0  0  0  0  0  0  0  0  0  0
  -25.2580    1.7990   -4.0040 O   0  0  0  0  0  0  0  0  0  0  0  0
  -24.8210    1.5090   -1.7200 C   0  0  0  0  0  0  0  0  0  0  0  0
  -26.1790    1.6010   -1.4800 C   0  0  0  0  0  0  0  0  0  0  0  0
  -26.6390    1.3490   -0.1970 C   0  0  0  0  0  0  0  0  0  0  0  0
  -25.7700    1.5330    0.8930 C   0  0  0  0  0  0  0  0  0  0  0  0
  -26.2740    0.6450    2.0340 C   0  0  0  0  0  0  0  0  0  0  0  0
  -25.8070    2.9950    1.3870 C   0  0  0  0  0  0  0  0  0  0  0  0
  -24.3670    1.2030    0.5850 O   0  0  0  0  0  0  0  0  0  0  0  0
  -23.9380    1.1200   -0.7160 C   0  0  0  0  0  0  0  0  0  0  0  0
  -22.6600    0.6300   -1.0360 C   0  0  0  0  0  0  0  0  0  0  0  0
  -22.2630    0.5360   -2.3790 C   0  0  0  0  0  0  0  0  0  0  0  0
  -21.0060    0.0880   -2.7280 O   0  0  0  0  0  0  0  0  0  0  0  0
  -20.6800   -0.2340   -4.0200 C   0  0  0  0  0  0  0  0  0  0  0  0
  -19.4990   -0.9320   -4.2690 C   0  0  0  0  0  0  0  0  0  0  0  0
  -19.1620   -1.2690   -5.5780 C   0  0  0  0  0  0  0  0  0  0  0  0
  -18.0290   -1.9530   -5.9200 O   0  0  0  0  0  0  0  0  0  0  0  0
  -19.9960   -0.9010   -6.6190 C   0  0  0  0  0  0  0  0  0  0  0  0
  -19.6470   -1.2230   -7.9060 O   0  0  0  0  0  0  0  0  0  0  0  0
  -19.7530   -0.0120   -8.6590 C   0  0  0  0  0  0  0  0  0  0  0  0
  -22.1200   -0.4149   -9.9392 H   0  0  0  0  0  0  0  0  0  0  0  0
  -22.8017    0.6945  -11.1767 H   0  0  0  0  0  0  0  0  0  0  0  0
  -21.0449    0.3197  -11.1767 H   0  0  0  0  0  0  0  0  0  0  0  0
  -21.3133    3.7809   -9.4084 H   0  0  0  0  0  0  0  0  0  0  0  0
  -20.5311    3.0285  -10.8397 H   0  0  0  0  0  0  0  0  0  0  0  0
  -22.3015    3.3321  -10.8397 H   0  0  0  0  0  0  0  0  0  0  0  0
  -21.3500    2.3116   -7.4299 H   0  0  0  0  0  0  0  0  0  0  0  0
  -22.9793    0.0079   -7.3345 H   0  0  0  0  0  0  0  0  0  0  0  0
  -21.6188   -0.6528   -8.3354 H   0  0  0  0  0  0  0  0  0  0  0  0
  -26.1294    2.1966   -3.7537 H   0  0  0  0  0  0  0  0  0  0  0  0
  -26.4871    2.6242   -1.7411 H   0  0  0  0  0  0  0  0  0  0  0  0
  -26.6168    0.7956   -2.0879 H   0  0  0  0  0  0  0  0  0  0  0  0
  -27.5053    2.0064   -0.0316 H   0  0  0  0  0  0  0  0  0  0  0  0
  -26.8321    0.2661   -0.1969 H   0  0  0  0  0  0  0  0  0  0  0  0
  -26.0132    1.1045    2.9988 H   0  0  0  0  0  0  0  0  0  0  0  0
  -27.3665    0.5396    1.9614 H   0  0  0  0  0  0  0  0  0  0  0  0
  -25.8043   -0.3470    1.9614 H   0  0  0  0  0  0  0  0  0  0  0  0
  -25.8074    3.0105    2.4869 H   0  0  0  0  0  0  0  0  0  0  0  0
  -24.9221    3.5309    1.0131 H   0  0  0  0  0  0  0  0  0  0  0  0
  -26.7178    3.4854    1.0131 H   0  0  0  0  0  0  0  0  0  0  0  0
  -21.9721    0.3207   -0.2352 H   0  0  0  0  0  0  0  0  0  0  0  0
  -18.8374   -1.2148   -3.4369 H   0  0  0  0  0  0  0  0  0  0  0  0
  -17.4351   -2.3116   -5.2137 H   0  0  0  0  0  0  0  0  0  0  0  0
  -19.8278    0.8426   -7.9704 H   0  0  0  0  0  0  0  0  0  0  0  0
  -18.8616    0.1048   -9.2929 H   0  0  0  0  0  0  0  0  0  0  0  0
  -20.6511   -0.0518   -9.2929 H   0  0  0  0  0  0  0  0  0  0  0  0
  1  2  1  0
  3  2  1  0
  2  4  2  0
 30 29  1  0
  4  5  1  0
 29 28  1  0
  5  6  1  0
 28  6  2  0
 28 26  1  0
  6  7  1  0
 27 26  1  0
  9  8  2  0
 26 25  2  0
  7  8  1  0
  7 24  2  0
  8 10  1  0
 25 24  1  0
 24 23  1  0
 12 11  1  0
 10 11  2  0
 10 22  1  0
 11 13  1  0
 23 22  1  0
 22 21  2  0
 13 14  1  0
 13 20  2  0
 14 15  1  0
 21 20  1  0
 20 19  1  0
 15 16  1  0
 19 16  1  0
 16 18  1  0
 16 17  1  0
  1 31  1  0
  1 32  1  0
  1 33  1  0
  3 34  1  0
  3 35  1  0
  3 36  1  0
  4 37  1  0
  5 38  1  0
  5 39  1  0
 12 40  1  0
 14 41  1  0
 14 42  1  0
 15 43  1  0
 15 44  1  0
 17 45  1  0
 17 46  1  0
 17 47  1  0
 18 48  1  0
 18 49  1  0
 18 50  1  0
 21 51  1  0
 25 52  1  0
 27 53  1  0
 30 54  1  0
 30 55  1  0
 30 56  1  0
A    1
CAB
A    2
CAR
A    3
CAC
A    4
CAK
A    5
CAN
A    6
CAW
A    7
CBC
A    8
CAY
A    9
OAF
A   10
CBB
A   11
CAT
A   12
OAH
A   13
CAV
A   14
CAI
A   15
CAJ
A   16
CBD
A   17
CAD
A   18
CAE
A   19
OAP
A   20
CAU
A   21
CAM
A   22
CBA
A   23
OAQ
A   24
CAZ
A   25
CAL
A   26
CAS
A   27
OAG
A   28
CAX
A   29
OAO
A   30
CAA
M  END
