4YCM_7BS_A_1004
     RDKit          3D

 95 96  0  0  0  0  0  0  0  0999 V2000
   27.5030  -19.3610   64.5460 C   0  0  0  0  0  0  0  0  0  0  0  0
   27.6550  -18.1220   63.8600 O   0  0  0  0  0  0  0  0  0  0  0  0
   28.0450  -18.2970   62.4890 C   0  0  0  0  0  0  0  0  0  0  0  0
   27.6070  -16.9730   61.8450 C   0  0  0  0  0  0  0  0  0  0  0  0
   27.0960  -16.9840   60.4370 C   0  0  0  0  0  0  0  0  0  0  0  0
   26.6620  -15.8180   59.9530 C   0  0  0  0  0  0  0  0  0  0  0  0
   26.6650  -15.5680   58.4780 C   0  0  0  0  0  0  0  0  0  0  0  0
   25.7030  -16.5210   57.9630 O   0  0  0  0  0  0  0  0  0  0  0  0
   25.4570  -16.9430   56.5990 C   0  0  0  0  0  0  0  0  0  0  0  0
   26.7480  -17.5160   55.9470 C   0  0  0  0  0  0  0  0  0  0  0  0
   27.8170  -16.5570   55.8840 O   0  0  0  0  0  0  0  0  0  0  0  0
   26.4730  -17.9950   54.4930 C   0  0  0  0  0  0  0  0  0  0  0  0
   27.5510  -18.8070   53.9760 O   0  0  0  0  0  0  0  0  0  0  0  0
   28.7440  -18.1310   53.5250 C   0  0  0  0  0  0  0  0  0  0  0  0
   25.2840  -18.9810   54.4800 C   0  0  0  0  0  0  0  0  0  0  0  0
   24.8700  -19.1930   53.1110 O   0  0  0  0  0  0  0  0  0  0  0  0
   24.0760  -18.4270   55.2760 C   0  0  0  0  0  0  0  0  0  0  0  0
   22.9760  -19.5190   55.3780 C   0  0  0  0  0  0  0  0  0  0  0  0
   23.4920  -20.7150   55.9890 O   0  0  0  0  0  0  0  0  0  0  0  0
   24.4460  -17.9690   56.6030 O   0  0  0  0  0  0  0  0  0  0  0  0
   26.3410  -14.0830   58.1470 C   0  0  0  0  0  0  0  0  0  0  0  0
   27.0380  -13.7530   56.8610 C   0  0  0  0  0  0  0  0  0  0  0  0
   26.4590  -13.5400   55.8070 O   0  0  0  0  0  0  0  0  0  0  0  0
   28.3560  -13.6260   57.0490 O   0  0  0  0  0  0  0  0  0  0  0  0
   29.1510  -13.6440   55.8550 C   0  0  0  0  0  0  0  0  0  0  0  0
   30.5360  -14.0660   56.4010 C   0  0  0  0  0  0  0  0  0  0  0  0
   30.6100  -15.5190   56.8080 C   0  0  0  0  0  0  0  0  0  0  0  0
   31.0800  -15.9610   57.9820 C   0  0  0  0  0  0  0  0  0  0  0  0
   31.1980  -17.4010   58.3000 C   0  0  0  0  0  0  0  0  0  0  0  0
   31.7270  -17.8740   59.4380 C   0  0  0  0  0  0  0  0  0  0  0  0
   31.8390  -19.3510   59.7500 C   0  0  0  0  0  0  0  0  0  0  0  0
   31.5150  -19.6710   61.2360 C   0  0  0  0  0  0  0  0  0  0  0  0
   31.7200  -21.1780   61.5440 C   0  0  0  0  0  0  0  0  0  0  0  0
   30.0680  -19.3110   61.4900 C   0  0  0  0  0  0  0  0  0  0  0  0
   29.5540  -18.4590   62.3970 C   0  0  0  0  0  0  0  0  0  0  0  0
   30.3560  -17.6600   63.4130 C   0  0  0  0  0  0  0  0  0  0  0  0
   29.1490  -12.2760   55.2050 C   0  0  0  0  0  0  0  0  0  0  0  0
   29.5580  -11.8710   53.9810 C   0  0  0  0  0  0  0  0  0  0  0  0
   29.3060  -10.4320   53.5710 C   0  0  0  0  0  0  0  0  0  0  0  0
   30.2310  -12.6520   52.8610 C   0  0  0  0  0  0  0  0  0  0  0  0
   30.7070  -14.0750   52.9950 C   0  0  0  0  0  0  0  0  0  0  0  0
   31.9370  -14.4750   52.6550 C   0  0  0  0  0  0  0  0  0  0  0  0
   32.4740  -15.7960   53.1150 C   0  0  0  0  0  0  0  0  0  0  0  0
   27.5247  -19.1842   65.6315 H   0  0  0  0  0  0  0  0  0  0  0  0
   26.5420  -19.8185   64.2682 H   0  0  0  0  0  0  0  0  0  0  0  0
   28.3249  -20.0372   64.2682 H   0  0  0  0  0  0  0  0  0  0  0  0
   27.6047  -19.1835   62.0091 H   0  0  0  0  0  0  0  0  0  0  0  0
   28.4773  -16.3006   61.8667 H   0  0  0  0  0  0  0  0  0  0  0  0
   26.7340  -16.6666   62.4399 H   0  0  0  0  0  0  0  0  0  0  0  0
   27.0792  -17.9038   59.8340 H   0  0  0  0  0  0  0  0  0  0  0  0
   26.3012  -15.0389   60.6406 H   0  0  0  0  0  0  0  0  0  0  0  0
   27.6488  -15.7140   58.0080 H   0  0  0  0  0  0  0  0  0  0  0  0
   25.1274  -16.0692   56.0177 H   0  0  0  0  0  0  0  0  0  0  0  0
   27.0510  -18.3542   56.5917 H   0  0  0  0  0  0  0  0  0  0  0  0
   28.0929  -16.3095   56.8020 H   0  0  0  0  0  0  0  0  0  0  0  0
   26.3156  -17.0770   53.9078 H   0  0  0  0  0  0  0  0  0  0  0  0
   29.3290  -17.7995   54.3956 H   0  0  0  0  0  0  0  0  0  0  0  0
   29.3489  -18.8206   52.9179 H   0  0  0  0  0  0  0  0  0  0  0  0
   28.4633  -17.2577   52.9179 H   0  0  0  0  0  0  0  0  0  0  0  0
   25.6118  -19.9202   54.9495 H   0  0  0  0  0  0  0  0  0  0  0  0
   23.9889  -19.6442   53.0988 H   0  0  0  0  0  0  0  0  0  0  0  0
   23.6929  -17.5527   54.7293 H   0  0  0  0  0  0  0  0  0  0  0  0
   22.1433  -19.1351   55.9856 H   0  0  0  0  0  0  0  0  0  0  0  0
   22.6310  -19.7648   54.3629 H   0  0  0  0  0  0  0  0  0  0  0  0
   23.4533  -20.6254   56.9742 H   0  0  0  0  0  0  0  0  0  0  0  0
   26.7065  -13.4290   58.9524 H   0  0  0  0  0  0  0  0  0  0  0  0
   25.2555  -13.9319   58.0527 H   0  0  0  0  0  0  0  0  0  0  0  0
   28.7949  -14.3183   55.0622 H   0  0  0  0  0  0  0  0  0  0  0  0
   31.2877  -13.8856   55.6185 H   0  0  0  0  0  0  0  0  0  0  0  0
   30.7212  -13.4684   57.3057 H   0  0  0  0  0  0  0  0  0  0  0  0
   30.2517  -16.2690   56.0875 H   0  0  0  0  0  0  0  0  0  0  0  0
   31.3901  -15.2251   58.7385 H   0  0  0  0  0  0  0  0  0  0  0  0
   30.8302  -18.1265   57.5594 H   0  0  0  0  0  0  0  0  0  0  0  0
   32.0978  -17.1530   60.1814 H   0  0  0  0  0  0  0  0  0  0  0  0
   31.1348  -19.9015   59.1088 H   0  0  0  0  0  0  0  0  0  0  0  0
   32.8793  -19.6547   59.5616 H   0  0  0  0  0  0  0  0  0  0  0  0
   32.1909  -19.0925   61.8830 H   0  0  0  0  0  0  0  0  0  0  0  0
   31.7407  -21.3301   62.6332 H   0  0  0  0  0  0  0  0  0  0  0  0
   30.8924  -21.7571   61.1085 H   0  0  0  0  0  0  0  0  0  0  0  0
   32.6723  -21.5150   61.1085 H   0  0  0  0  0  0  0  0  0  0  0  0
   29.3339  -19.8151   60.8442 H   0  0  0  0  0  0  0  0  0  0  0  0
   30.0586  -17.9563   64.4297 H   0  0  0  0  0  0  0  0  0  0  0  0
   31.4286  -17.8592   63.2720 H   0  0  0  0  0  0  0  0  0  0  0  0
   30.1608  -16.5867   63.2720 H   0  0  0  0  0  0  0  0  0  0  0  0
   28.7448  -11.4724   55.8382 H   0  0  0  0  0  0  0  0  0  0  0  0
   29.1968   -9.8082   54.4704 H   0  0  0  0  0  0  0  0  0  0  0  0
   30.1540  -10.0674   52.9727 H   0  0  0  0  0  0  0  0  0  0  0  0
   28.3846  -10.3772   52.9727 H   0  0  0  0  0  0  0  0  0  0  0  0
   31.1184  -12.0658   52.5801 H   0  0  0  0  0  0  0  0  0  0  0  0
   29.3927  -12.7768   52.1598 H   0  0  0  0  0  0  0  0  0  0  0  0
   30.0065  -14.8239   53.3932 H   0  0  0  0  0  0  0  0  0  0  0  0
   32.5641  -13.8242   52.0280 H   0  0  0  0  0  0  0  0  0  0  0  0
   32.4855  -15.8243   54.2146 H   0  0  0  0  0  0  0  0  0  0  0  0
   31.8333  -16.6050   52.7341 H   0  0  0  0  0  0  0  0  0  0  0  0
   33.4974  -15.9285   52.7341 H   0  0  0  0  0  0  0  0  0  0  0  0
 42 41  2  0
 42 43  1  0
 40 41  1  0
 40 38  1  0
 16 15  1  0
 14 13  1  0
 39 38  1  0
 13 12  1  0
 38 37  2  0
 15 12  1  0
 15 17  1  0
 12 10  1  0
 37 25  1  0
 17 18  1  0
 17 20  1  0
 18 19  1  0
 23 22  2  0
 25 26  1  0
 25 24  1  0
 11 10  1  0
 10  9  1  0
 26 27  1  0
  9 20  1  0
  9  8  1  0
 27 28  2  0
 22 24  1  0
 22 21  1  0
  8  7  1  0
 28 29  1  0
 21  7  1  0
 29 30  2  0
  7  6  1  0
 30 31  1  0
 31 32  1  0
  6  5  2  0
  5  4  1  0
 32 34  1  0
 32 33  1  0
 34 35  2  0
  4  3  1  0
 35  3  1  0
 35 36  1  0
  3  2  1  0
  2  1  1  0
  1 44  1  0
  1 45  1  0
  1 46  1  0
  3 47  1  0
  4 48  1  0
  4 49  1  0
  5 50  1  0
  6 51  1  0
  7 52  1  0
  9 53  1  0
 10 54  1  0
 11 55  1  0
 12 56  1  0
 14 57  1  0
 14 58  1  0
 14 59  1  0
 15 60  1  0
 16 61  1  0
 17 62  1  0
 18 63  1  0
 18 64  1  0
 19 65  1  0
 21 66  1  0
 21 67  1  0
 25 68  1  0
 26 69  1  0
 26 70  1  0
 27 71  1  0
 28 72  1  0
 29 73  1  0
 30 74  1  0
 31 75  1  0
 31 76  1  0
 32 77  1  0
 33 78  1  0
 33 79  1  0
 33 80  1  0
 34 81  1  0
 36 82  1  0
 36 83  1  0
 36 84  1  0
 37 85  1  0
 39 86  1  0
 39 87  1  0
 39 88  1  0
 40 89  1  0
 40 90  1  0
 41 91  1  0
 42 92  1  0
 43 93  1  0
 43 94  1  0
 43 95  1  0
A    1
C68
A    2
O67
A    3
C20
A    4
C21
A    5
C22
A    6
C23
A    7
C24
A    8
O29
A    9
C33
A   10
C32
A   11
O36
A   12
C31
A   13
O71
A   14
C72
A   15
C30
A   16
O37
A   17
C35
A   18
C38
A   19
O39
A   20
O34
A   21
C27
A   22
C26
A   23
O28
A   24
O25
A   25
C8
A   26
C9
A   27
C10
A   28
C11
A   29
C12
A   30
C13
A   31
C14
A   32
C15
A   33
C19
A   34
C16
A   35
C17
A   36
C18
A   37
C4
A   38
C1
A   39
C3
A   40
C2
A   41
C5
A   42
C6
A   43
C7
M  END
