4YCN_7BL_A_1004
     RDKit          3D

 71 71  0  0  0  0  0  0  0  0999 V2000
   32.4410  -15.7100   53.2880 C   0  0  0  0  0  0  0  0  0  0  0  0
   31.8900  -14.4210   52.7540 C   0  0  0  0  0  0  0  0  0  0  0  0
   30.6630  -14.0270   53.1140 C   0  0  0  0  0  0  0  0  0  0  0  0
   30.1770  -12.6070   53.0090 C   0  0  0  0  0  0  0  0  0  0  0  0
   29.5290  -11.8240   54.1430 C   0  0  0  0  0  0  0  0  0  0  0  0
   29.2520  -10.3950   53.7150 C   0  0  0  0  0  0  0  0  0  0  0  0
   29.0960  -12.2420   55.3550 C   0  0  0  0  0  0  0  0  0  0  0  0
   29.0670  -13.6120   55.9930 C   0  0  0  0  0  0  0  0  0  0  0  0
   30.4450  -14.0560   56.5380 C   0  0  0  0  0  0  0  0  0  0  0  0
   30.4810  -15.5050   56.9660 C   0  0  0  0  0  0  0  0  0  0  0  0
   31.0020  -15.9430   58.1230 C   0  0  0  0  0  0  0  0  0  0  0  0
   31.1070  -17.3840   58.4510 C   0  0  0  0  0  0  0  0  0  0  0  0
   31.6620  -17.8550   59.5740 C   0  0  0  0  0  0  0  0  0  0  0  0
   31.7540  -19.3310   59.8990 C   0  0  0  0  0  0  0  0  0  0  0  0
   31.4190  -19.6300   61.3820 C   0  0  0  0  0  0  0  0  0  0  0  0
   29.9770  -19.2560   61.6360 C   0  0  0  0  0  0  0  0  0  0  0  0
   29.4340  -18.4570   62.5710 C   0  0  0  0  0  0  0  0  0  0  0  0
   30.2040  -17.6680   63.6200 C   0  0  0  0  0  0  0  0  0  0  0  0
   27.9070  -18.3070   62.6460 C   0  0  0  0  0  0  0  0  0  0  0  0
   27.4630  -17.0000   61.9800 C   0  0  0  0  0  0  0  0  0  0  0  0
   27.2160  -16.9850   60.5110 C   0  0  0  0  0  0  0  0  0  0  0  0
   26.9070  -15.7870   60.0050 C   0  0  0  0  0  0  0  0  0  0  0  0
   26.6010  -15.5910   58.5550 C   0  0  0  0  0  0  0  0  0  0  0  0
   26.2870  -14.0960   58.2680 C   0  0  0  0  0  0  0  0  0  0  0  0
   26.9620  -13.7480   56.9840 C   0  0  0  0  0  0  0  0  0  0  0  0
   28.2720  -13.5750   57.1820 O   0  0  0  0  0  0  0  0  0  0  0  0
   26.3670  -13.5000   55.9520 O   0  0  0  0  0  0  0  0  0  0  0  0
   25.5220  -16.4960   58.2110 O   0  0  0  0  0  0  0  0  0  0  0  0
   27.4870  -18.0940   64.0040 O   0  0  0  0  0  0  0  0  0  0  0  0
   27.4230  -19.2960   64.7620 C   0  0  0  0  0  0  0  0  0  0  0  0
   31.6250  -21.1270   61.7120 C   0  0  0  0  0  0  0  0  0  0  0  0
   32.4306  -15.6856   54.3877 H   0  0  0  0  0  0  0  0  0  0  0  0
   31.8224  -16.5478   52.9339 H   0  0  0  0  0  0  0  0  0  0  0  0
   33.4741  -15.8418   52.9339 H   0  0  0  0  0  0  0  0  0  0  0  0
   32.4911  -13.8033   52.0705 H   0  0  0  0  0  0  0  0  0  0  0  0
   29.9701  -14.7844   53.5092 H   0  0  0  0  0  0  0  0  0  0  0  0
   31.0553  -12.0169   52.7083 H   0  0  0  0  0  0  0  0  0  0  0  0
   29.3149  -12.7393   52.3387 H   0  0  0  0  0  0  0  0  0  0  0  0
   29.1294   -9.7624   54.6065 H   0  0  0  0  0  0  0  0  0  0  0  0
   30.0946  -10.0223   53.1141 H   0  0  0  0  0  0  0  0  0  0  0  0
   28.3312  -10.3642   53.1141 H   0  0  0  0  0  0  0  0  0  0  0  0
   28.6923  -11.4401   55.9906 H   0  0  0  0  0  0  0  0  0  0  0  0
   28.6989  -14.2822   55.2022 H   0  0  0  0  0  0  0  0  0  0  0  0
   31.1969  -13.9063   55.7492 H   0  0  0  0  0  0  0  0  0  0  0  0
   30.6532  -13.4478   57.4306 H   0  0  0  0  0  0  0  0  0  0  0  0
   30.0508  -16.2519   56.2826 H   0  0  0  0  0  0  0  0  0  0  0  0
   31.3641  -15.2052   58.8541 H   0  0  0  0  0  0  0  0  0  0  0  0
   30.7050  -18.1097   57.7287 H   0  0  0  0  0  0  0  0  0  0  0  0
   32.0717  -17.1341   60.2968 H   0  0  0  0  0  0  0  0  0  0  0  0
   31.0462  -19.8786   59.2594 H   0  0  0  0  0  0  0  0  0  0  0  0
   32.7907  -19.6509   59.7177 H   0  0  0  0  0  0  0  0  0  0  0  0
   32.0927  -19.0426   62.0232 H   0  0  0  0  0  0  0  0  0  0  0  0
   29.2541  -19.7116   60.9432 H   0  0  0  0  0  0  0  0  0  0  0  0
   29.8902  -17.9895   64.6241 H   0  0  0  0  0  0  0  0  0  0  0  0
   31.2820  -17.8494   63.4971 H   0  0  0  0  0  0  0  0  0  0  0  0
   29.9964  -16.5948   63.4971 H   0  0  0  0  0  0  0  0  0  0  0  0
   27.4930  -19.2146   62.1824 H   0  0  0  0  0  0  0  0  0  0  0  0
   28.2447  -16.2532   62.1830 H   0  0  0  0  0  0  0  0  0  0  0  0
   26.4720  -16.8055   62.4159 H   0  0  0  0  0  0  0  0  0  0  0  0
   27.2828  -17.8906   59.8901 H   0  0  0  0  0  0  0  0  0  0  0  0
   26.8769  -14.9170   60.6775 H   0  0  0  0  0  0  0  0  0  0  0  0
   27.4643  -15.8313   57.9170 H   0  0  0  0  0  0  0  0  0  0  0  0
   26.6747  -13.4655   59.0817 H   0  0  0  0  0  0  0  0  0  0  0  0
   25.2020  -13.9286   58.1994 H   0  0  0  0  0  0  0  0  0  0  0  0
   25.1067  -16.8443   59.0394 H   0  0  0  0  0  0  0  0  0  0  0  0
   27.4359  -19.0540   65.8350 H   0  0  0  0  0  0  0  0  0  0  0  0
   26.4949  -19.8340   64.5186 H   0  0  0  0  0  0  0  0  0  0  0  0
   28.2887  -19.9295   64.5186 H   0  0  0  0  0  0  0  0  0  0  0  0
   31.6437  -21.2627   62.8034 H   0  0  0  0  0  0  0  0  0  0  0  0
   30.7992  -21.7139   61.2836 H   0  0  0  0  0  0  0  0  0  0  0  0
   32.5787  -21.4690   61.2836 H   0  0  0  0  0  0  0  0  0  0  0  0
  2  3  2  0
  2  1  1  0
  4  3  1  0
  4  5  1  0
  6  5  1  0
  5  7  2  0
  7  8  1  0
 27 25  2  0
  8  9  1  0
  8 26  1  0
  9 10  1  0
 10 11  2  0
 25 26  1  0
 25 24  1  0
 11 12  1  0
 28 23  1  0
 24 23  1  0
 12 13  2  0
 23 22  1  0
 13 14  1  0
 14 15  1  0
 22 21  2  0
 21 20  1  0
 15 16  1  0
 15 31  1  0
 16 17  2  0
 20 19  1  0
 17 19  1  0
 17 18  1  0
 19 29  1  0
 29 30  1  0
  1 32  1  0
  1 33  1  0
  1 34  1  0
  2 35  1  0
  3 36  1  0
  4 37  1  0
  4 38  1  0
  6 39  1  0
  6 40  1  0
  6 41  1  0
  7 42  1  0
  8 43  1  0
  9 44  1  0
  9 45  1  0
 10 46  1  0
 11 47  1  0
 12 48  1  0
 13 49  1  0
 14 50  1  0
 14 51  1  0
 15 52  1  0
 16 53  1  0
 18 54  1  0
 18 55  1  0
 18 56  1  0
 19 57  1  0
 20 58  1  0
 20 59  1  0
 21 60  1  0
 22 61  1  0
 23 62  1  0
 24 63  1  0
 24 64  1  0
 28 65  1  0
 30 66  1  0
 30 67  1  0
 30 68  1  0
 31 69  1  0
 31 70  1  0
 31 71  1  0
A    1
C7
A    2
C6
A    3
C5
A    4
C2
A    5
C1
A    6
C3
A    7
C4
A    8
C8
A    9
C9
A   10
C10
A   11
C11
A   12
C12
A   13
C13
A   14
C14
A   15
C15
A   16
C16
A   17
C17
A   18
C18
A   19
C20
A   20
C21
A   21
C22
A   22
C23
A   23
C24
A   24
C27
A   25
C26
A   26
O25
A   27
O28
A   28
O29
A   29
O67
A   30
C68
A   31
C19
M  END
