4YD3_4AQ_A_401
     RDKit          3D

 38 40  0  0  0  0  0  0  0  0999 V2000
  -12.4990    3.8100    2.3240 C   0  0  0  0  0  0  0  0  0  0  0  0
  -11.8130    3.1650    3.4500 C   0  0  0  0  0  0  0  0  0  0  0  0
  -10.4600    1.1960    4.1770 C   0  0  0  0  0  0  0  0  0  0  0  0
  -11.1340    1.9020    3.0510 N   0  0  0  0  0  0  0  0  0  0  0  0
   -9.8480   -0.1060    3.7100 C   0  0  0  0  0  0  0  0  0  0  0  0
   -9.1910   -0.8690    4.8220 C   0  0  0  0  0  0  0  0  0  0  0  0
   -8.7860   -2.3650    6.4390 N   0  0  0  0  0  0  0  0  0  0  0  0
   -9.6960   -1.9290    5.5160 C   0  0  0  0  0  0  0  0  0  0  0  0
   -7.6560   -1.5880    6.3560 C   0  0  0  0  0  0  0  0  0  0  0  0
   -7.8770   -0.6300    5.3500 C   0  0  0  0  0  0  0  0  0  0  0  0
   -6.8600    0.2740    5.0560 C   0  0  0  0  0  0  0  0  0  0  0  0
   -5.6620    0.2110    5.7500 C   0  0  0  0  0  0  0  0  0  0  0  0
   -5.4620   -0.7430    6.7390 C   0  0  0  0  0  0  0  0  0  0  0  0
   -6.4560   -1.6550    7.0560 C   0  0  0  0  0  0  0  0  0  0  0  0
  -10.6320    5.4850    1.8150 C   0  0  0  0  0  0  0  0  0  0  0  0
  -11.9280    4.8540    1.5730 N   0  0  0  0  0  0  0  0  0  0  0  0
  -13.7260    3.5330    1.7740 C   0  0  0  0  0  0  0  0  0  0  0  0
  -13.9070    4.4130    0.6560 C   0  0  0  0  0  0  0  0  0  0  0  0
  -12.7990    5.1970    0.5680 C   0  0  0  0  0  0  0  0  0  0  0  0
  -11.0601    3.8599    3.8501 H   0  0  0  0  0  0  0  0  0  0  0  0
  -12.5714    2.9142    4.2063 H   0  0  0  0  0  0  0  0  0  0  0  0
   -9.6671    1.8412    4.5833 H   0  0  0  0  0  0  0  0  0  0  0  0
  -11.2095    0.9739    4.9509 H   0  0  0  0  0  0  0  0  0  0  0  0
  -11.8387    1.2688    2.6469 H   0  0  0  0  0  0  0  0  0  0  0  0
  -10.6413   -0.7315    3.2748 H   0  0  0  0  0  0  0  0  0  0  0  0
   -9.0710    0.1386    2.9708 H   0  0  0  0  0  0  0  0  0  0  0  0
   -8.9254   -3.1497    7.0915 H   0  0  0  0  0  0  0  0  0  0  0  0
  -10.6912   -2.3695    5.3564 H   0  0  0  0  0  0  0  0  0  0  0  0
   -7.0067    1.0354    4.2758 H   0  0  0  0  0  0  0  0  0  0  0  0
   -4.8596    0.9256    5.5144 H   0  0  0  0  0  0  0  0  0  0  0  0
   -4.5032   -0.7752    7.2772 H   0  0  0  0  0  0  0  0  0  0  0  0
   -6.3003   -2.4111    7.8396 H   0  0  0  0  0  0  0  0  0  0  0  0
  -10.4613    5.5681    2.8985 H   0  0  0  0  0  0  0  0  0  0  0  0
   -9.8365    4.8734    1.3643 H   0  0  0  0  0  0  0  0  0  0  0  0
  -10.6229    6.4884    1.3643 H   0  0  0  0  0  0  0  0  0  0  0  0
  -14.4402    2.7743    2.1266 H   0  0  0  0  0  0  0  0  0  0  0  0
  -14.7824    4.4476   -0.0091 H   0  0  0  0  0  0  0  0  0  0  0  0
  -12.6281    5.9793   -0.1862 H   0  0  0  0  0  0  0  0  0  0  0  0
 19 18  2  0
 19 16  1  0
 18 17  1  0
 16 15  1  0
 16  1  1  0
 17  1  2  0
  1  2  1  0
  4  2  1  0
  4  3  1  0
  5  3  1  0
  5  6  1  0
  6 10  1  0
  6  8  2  0
 11 10  1  0
 11 12  2  0
 10  9  2  0
  8  7  1  0
 12 13  1  0
  9  7  1  0
  9 14  1  0
 13 14  2  0
  2 20  1  0
  2 21  1  0
  3 22  1  0
  3 23  1  0
  4 24  1  0
  5 25  1  0
  5 26  1  0
  7 27  1  0
  8 28  1  0
 11 29  1  0
 12 30  1  0
 13 31  1  0
 14 32  1  0
 15 33  1  0
 15 34  1  0
 15 35  1  0
 17 36  1  0
 18 37  1  0
 19 38  1  0
A    1
C4
A    2
C5
A    3
C6
A    4
N1
A    5
C7
A    6
C8
A    7
N2
A    8
C9
A    9
C10
A   10
C11
A   11
C12
A   12
C13
A   13
C14
A   14
C15
A   15
C
A   16
N
A   17
C3
A   18
C2
A   19
C1
M  END
