4YD5_4AV_A_401
     RDKit          3D

 22 22  0  0  0  0  0  0  0  0999 V2000
   -1.0920    2.3440   10.4280 C   0  0  0  0  0  0  0  0  0  0  0  0
   -2.2210    2.9230   10.9570 C   0  0  0  0  0  0  0  0  0  0  0  0
   -2.4190    4.2750   10.7570 C   0  0  0  0  0  0  0  0  0  0  0  0
   -0.8900    0.9060   10.5950 N   0  0  0  0  0  0  0  0  0  0  0  0
   -1.5070    5.0010   10.0220 C   0  0  0  0  0  0  0  0  0  0  0  0
   -1.7700    0.2600   11.1400 O   0  0  0  0  0  0  0  0  0  0  0  0
    0.1300    0.4110   10.1440 O   0  0  0  0  0  0  0  0  0  0  0  0
   -0.1500    3.0650    9.7270 C   0  0  0  0  0  0  0  0  0  0  0  0
   -1.8470    6.6750    9.7140 Cl  0  0  0  0  0  0  0  0  0  0  0  0
   -0.3590    4.4210    9.4860 C   0  0  0  0  0  0  0  0  0  0  0  0
    0.5930    5.1730    8.6000 C   0  0  0  0  0  0  0  0  0  0  0  0
    2.0310    5.1780    9.1710 N   0  0  0  0  0  0  0  0  0  0  0  0
    2.1360    5.9000   10.4620 C   0  0  0  0  0  0  0  0  0  0  0  0
   -2.9483    2.3245   11.5252 H   0  0  0  0  0  0  0  0  0  0  0  0
   -3.3030    4.7715   11.1836 H   0  0  0  0  0  0  0  0  0  0  0  0
    0.7623    2.5724    9.3596 H   0  0  0  0  0  0  0  0  0  0  0  0
    0.2446    6.2120    8.5046 H   0  0  0  0  0  0  0  0  0  0  0  0
    0.6166    4.6712    7.6214 H   0  0  0  0  0  0  0  0  0  0  0  0
    2.3313    4.2032    9.3141 H   0  0  0  0  0  0  0  0  0  0  0  0
    2.0320    5.1850   11.2915 H   0  0  0  0  0  0  0  0  0  0  0  0
    3.1157    6.3960   10.5261 H   0  0  0  0  0  0  0  0  0  0  0  0
    1.3381    6.6545   10.5261 H   0  0  0  0  0  0  0  0  0  0  0  0
 11 12  1  0
 11 10  1  0
 12 13  1  0
 10  8  1  0
 10  5  2  0
  9  5  1  0
  8  1  2  0
  5  3  1  0
  7  4  1  0
  1  4  1  0
  1  2  1  0
  4  6  2  0
  3  2  2  0
  2 14  1  0
  3 15  1  0
  8 16  1  0
 11 17  1  0
 11 18  1  0
 12 19  1  0
 13 20  1  0
 13 21  1  0
 13 22  1  0
M  CHG  2   4   1   7  -1
A    1
C4
A    2
C5
A    3
C6
A    4
N1
A    5
C7
A    6
O1
A    7
O
A    8
C3
A    9
CL
A   10
C2
A   11
C1
A   12
N
A   13
C
M  END
