4YDN_2WN_A_201
     RDKit          3D

 32 34  0  0  0  0  0  0  0  0999 V2000
   -0.1280    0.1830  -11.9540 O   0  0  0  0  0  0  0  0  0  0  0  0
    0.0000    0.0000  -10.6000 C   0  0  0  0  0  0  0  0  0  0  0  0
   -0.3840    1.1880   -9.8270 C   0  0  0  0  0  0  0  0  0  0  0  0
   -0.3030    1.0960   -8.4450 C   0  0  0  0  0  0  0  0  0  0  0  0
    0.0000    0.0000   -7.8650 C   0  0  0  0  0  0  0  0  0  0  0  0
    0.4460   -1.1970   -8.6570 C   0  0  0  0  0  0  0  0  0  0  0  0
    0.3690   -1.1120  -10.0360 C   0  0  0  0  0  0  0  0  0  0  0  0
    0.7890   -2.4720  -10.9870 Cl  0  0  0  0  0  0  0  0  0  0  0  0
   -0.8940    2.6590  -10.5590 Cl  0  0  0  0  0  0  0  0  0  0  0  0
    0.2000   -0.2140   -6.5410 C   0  0  0  0  0  0  0  0  0  0  0  0
   -0.4850    0.4990   -5.6730 O   0  0  0  0  0  0  0  0  0  0  0  0
    0.0000    0.0000   -4.5360 C   0  0  0  0  0  0  0  0  0  0  0  0
    0.8580   -0.9160   -4.7310 N   0  0  0  0  0  0  0  0  0  0  0  0
    1.0080   -1.0610   -5.9060 N   0  0  0  0  0  0  0  0  0  0  0  0
   -0.4750    0.4510   -3.3510 C   0  0  0  0  0  0  0  0  0  0  0  0
   -0.9510    1.7440   -3.2040 C   0  0  0  0  0  0  0  0  0  0  0  0
   -1.3970    2.1830   -1.9660 C   0  0  0  0  0  0  0  0  0  0  0  0
   -1.3660    1.3240   -0.8720 C   0  0  0  0  0  0  0  0  0  0  0  0
   -0.8900    0.0260   -1.0240 C   0  0  0  0  0  0  0  0  0  0  0  0
   -0.4450   -0.4130   -2.2630 C   0  0  0  0  0  0  0  0  0  0  0  0
   -1.7990    1.7500    0.3450 O   0  0  0  0  0  0  0  0  0  0  0  0
   -0.6120    1.7540    1.3100 S   0  0  0  0  0  0  0  0  0  0  0  0
    0.6200    2.2710    0.5640 O   0  0  0  0  0  0  0  0  0  0  0  0
   -0.3480    0.3300    1.8040 O   0  0  0  0  0  0  0  0  0  0  0  0
   -0.8740    2.5440    2.3530 F   0  0  0  0  0  0  0  0  0  0  0  0
   -0.6590    0.9422  -12.3029 H   0  0  0  0  0  0  0  0  0  0  0  0
   -0.5047    1.9887   -7.8347 H   0  0  0  0  0  0  0  0  0  0  0  0
    0.8189   -2.1047   -8.1601 H   0  0  0  0  0  0  0  0  0  0  0  0
   -0.9752    2.4226   -4.0694 H   0  0  0  0  0  0  0  0  0  0  0  0
   -1.7749    3.2095   -1.8493 H   0  0  0  0  0  0  0  0  0  0  0  0
   -0.8662   -0.6543   -0.1599 H   0  0  0  0  0  0  0  0  0  0  0  0
   -0.0702   -1.4402   -2.3833 H   0  0  0  0  0  0  0  0  0  0  0  0
 23 22  2  0
 24 22  2  0
 22 25  1  0
 22 21  1  0
 21 18  1  0
 18 17  1  0
 18 19  2  0
 17 16  2  0
 19 20  1  0
 16 15  1  0
 20 15  2  0
 15 12  1  0
 12 13  2  0
 12 11  1  0
 13 14  1  0
 11 10  1  0
 14 10  2  0
 10  5  1  0
  5  4  2  0
  5  6  1  0
  4  3  1  0
  6  7  2  0
  3  9  1  0
  3  2  2  0
  7  2  1  0
  7  8  1  0
  2  1  1  0
  1 26  1  0
  4 27  1  0
  6 28  1  0
 16 29  1  0
 17 30  1  0
 19 31  1  0
 20 32  1  0
A    1
O1
A    2
C2
A    3
C3
A    4
C4
A    5
C5
A    6
C6
A    7
C7
A    8
CL8
A    9
CL9
A   10
C10
A   11
O11
A   12
C12
A   13
N13
A   14
N14
A   15
C15
A   16
C16
A   17
C17
A   18
C18
A   19
C19
A   20
C20
A   21
O21
A   22
S22
A   23
O23
A   24
O25
A   25
F26
M  END
