4YFF_4CV_A_801
     RDKit          3D

 47 50  0  0  0  0  0  0  0  0999 V2000
   46.6320    9.4650   84.2960 C   0  0  0  0  0  0  0  0  0  0  0  0
   43.9440    7.0170   84.8530 C   0  0  0  0  0  0  0  0  0  0  0  0
   44.1350    7.3740   82.5380 C   0  0  0  0  0  0  0  0  0  0  0  0
   47.7240    9.2730   85.1380 C   0  0  0  0  0  0  0  0  0  0  0  0
   50.3430    8.0900   88.3730 C   0  0  0  0  0  0  0  0  0  0  0  0
   48.0310    5.1160   87.0050 C   0  0  0  0  0  0  0  0  0  0  0  0
   48.7230    6.3330   87.2790 C   0  0  0  0  0  0  0  0  0  0  0  0
   51.7810   12.4030   84.1080 C   0  0  0  0  0  0  0  0  0  0  0  0
   50.9210   12.1840   85.2890 N   0  0  0  0  0  0  0  0  0  0  0  0
   49.3670   12.9250   85.2010 S   0  0  0  0  0  0  0  0  0  0  0  0
   49.0060   13.3050   86.5580 O   0  0  0  0  0  0  0  0  0  0  0  0
   49.2430   13.8570   84.0810 O   0  0  0  0  0  0  0  0  0  0  0  0
   48.3090   11.5620   84.8380 C   0  0  0  0  0  0  0  0  0  0  0  0
   47.2440   11.7730   84.0010 C   0  0  0  0  0  0  0  0  0  0  0  0
   46.4010   10.7120   83.7360 C   0  0  0  0  0  0  0  0  0  0  0  0
   45.7570    8.3860   84.0140 N   0  0  0  0  0  0  0  0  0  0  0  0
   44.8610    8.1890   85.1540 C   0  0  0  0  0  0  0  0  0  0  0  0
   43.2250    7.2620   83.6400 O   0  0  0  0  0  0  0  0  0  0  0  0
   45.0400    8.5780   82.7560 C   0  0  0  0  0  0  0  0  0  0  0  0
   47.9380    7.9890   85.6860 N   0  0  0  0  0  0  0  0  0  0  0  0
   48.7590    7.6300   86.7680 C   0  0  0  0  0  0  0  0  0  0  0  0
   49.5970    8.5000   87.3410 N   0  0  0  0  0  0  0  0  0  0  0  0
   50.3920    6.8880   88.9590 N   0  0  0  0  0  0  0  0  0  0  0  0
   49.5490    6.0460   88.3530 C   0  0  0  0  0  0  0  0  0  0  0  0
   49.3640    4.7370   88.7030 N   0  0  0  0  0  0  0  0  0  0  0  0
   48.4370    4.1510   87.8880 C   0  0  0  0  0  0  0  0  0  0  0  0
   46.7430    4.8400   85.6340 Br  0  0  0  0  0  0  0  0  0  0  0  0
   48.5660   10.3380   85.4070 C   0  0  0  0  0  0  0  0  0  0  0  0
   44.5449    6.1023   84.7427 H   0  0  0  0  0  0  0  0  0  0  0  0
   43.2292    6.8939   85.6800 H   0  0  0  0  0  0  0  0  0  0  0  0
   44.7461    6.4618   82.4714 H   0  0  0  0  0  0  0  0  0  0  0  0
   43.5692    7.5017   81.6033 H   0  0  0  0  0  0  0  0  0  0  0  0
   51.0125    8.8504   88.8015 H   0  0  0  0  0  0  0  0  0  0  0  0
   52.7979   12.6620   84.4379 H   0  0  0  0  0  0  0  0  0  0  0  0
   51.8144   11.4847   83.5034 H   0  0  0  0  0  0  0  0  0  0  0  0
   51.3711   13.2254   83.5034 H   0  0  0  0  0  0  0  0  0  0  0  0
   51.4088   12.5602   86.1145 H   0  0  0  0  0  0  0  0  0  0  0  0
   47.0657   12.7614   83.5524 H   0  0  0  0  0  0  0  0  0  0  0  0
   45.5358   10.8579   83.0726 H   0  0  0  0  0  0  0  0  0  0  0  0
   44.2612    9.0969   85.3150 H   0  0  0  0  0  0  0  0  0  0  0  0
   45.4475    7.9836   86.0616 H   0  0  0  0  0  0  0  0  0  0  0  0
   44.4344    9.4948   82.8084 H   0  0  0  0  0  0  0  0  0  0  0  0
   45.7519    8.6750   81.9230 H   0  0  0  0  0  0  0  0  0  0  0  0
   47.4268    7.2171   85.2346 H   0  0  0  0  0  0  0  0  0  0  0  0
   49.8545    4.2599   89.4728 H   0  0  0  0  0  0  0  0  0  0  0  0
   48.0860    3.1095   87.9323 H   0  0  0  0  0  0  0  0  0  0  0  0
   49.4333   10.2057   86.0705 H   0  0  0  0  0  0  0  0  0  0  0  0
 23 24  1  0
 23  5  2  0
 25 24  1  0
 25 26  1  0
 24  7  2  0
  5 22  1  0
 26  6  2  0
  7  6  1  0
  7 21  1  0
 22 21  2  0
  6 27  1  0
 21 20  1  0
 11 10  2  0
 20  4  1  0
 28  4  1  0
 28 13  2  0
 17  2  1  0
 17 16  1  0
  4  1  2  0
  9 10  1  0
  9  8  1  0
  2 18  1  0
 10 13  1  0
 10 12  2  0
 13 14  1  0
  1 16  1  0
  1 15  1  0
 16 19  1  0
 14 15  2  0
 18  3  1  0
 19  3  1  0
  2 29  1  0
  2 30  1  0
  3 31  1  0
  3 32  1  0
  5 33  1  0
  8 34  1  0
  8 35  1  0
  8 36  1  0
  9 37  1  0
 14 38  1  0
 15 39  1  0
 17 40  1  0
 17 41  1  0
 19 42  1  0
 19 43  1  0
 20 44  1  0
 25 45  1  0
 26 46  1  0
 28 47  1  0
A    1
C10
A    2
C13
A    3
C15
A    4
C17
A    5
C21
A    6
C26
A    7
C28
A    8
C02
A    9
N03
A   10
S04
A   11
O05
A   12
O06
A   13
C07
A   14
C08
A   15
C09
A   16
N11
A   17
C12
A   18
O14
A   19
C16
A   20
N18
A   21
C19
A   22
N20
A   23
N22
A   24
C23
A   25
N24
A   26
C25
A   27
BR2
A   28
C29
M  END
