4YH3_Y80_A_201
     RDKit          3D

 49 52  0  0  0  0  0  0  0  0999 V2000
  -15.6270    4.8530   -0.2890 O   0  0  0  0  0  0  0  0  0  0  0  0
  -14.9570    5.8940   -0.6130 C   0  0  0  0  0  0  0  0  0  0  0  0
  -15.0390    6.3250   -1.9210 N   0  0  0  0  0  0  0  0  0  0  0  0
  -14.3360    7.3720   -2.4010 C   0  0  0  0  0  0  0  0  0  0  0  0
  -14.6200    8.1200   -3.5380 C   0  0  0  0  0  0  0  0  0  0  0  0
  -13.7790    9.1740   -3.9170 C   0  0  0  0  0  0  0  0  0  0  0  0
  -12.6870    9.4950   -3.1480 C   0  0  0  0  0  0  0  0  0  0  0  0
  -12.3760    8.7630   -2.0030 C   0  0  0  0  0  0  0  0  0  0  0  0
  -13.1550    7.6890   -1.6110 C   0  0  0  0  0  0  0  0  0  0  0  0
  -12.9110    6.9130   -0.4250 N   0  0  0  0  0  0  0  0  0  0  0  0
  -14.0540    6.5490    0.3660 C   0  0  0  0  0  0  0  0  0  0  0  0
  -11.6380    6.4270   -0.0780 C   0  0  0  0  0  0  0  0  0  0  0  0
  -11.5090    5.8350    0.9710 O   0  0  0  0  0  0  0  0  0  0  0  0
  -10.4290    6.5900   -0.9440 C   0  0  0  0  0  0  0  0  0  0  0  0
   -9.1220    7.1660   -0.4740 C   0  0  0  0  0  0  0  0  0  0  0  0
   -8.5620    8.1890   -1.1860 C   0  0  0  0  0  0  0  0  0  0  0  0
   -7.4300    8.8290   -0.7340 C   0  0  0  0  0  0  0  0  0  0  0  0
   -6.8340    8.3730    0.4150 C   0  0  0  0  0  0  0  0  0  0  0  0
   -7.3340    7.3310    1.1280 C   0  0  0  0  0  0  0  0  0  0  0  0
   -8.5210    6.7250    0.6790 C   0  0  0  0  0  0  0  0  0  0  0  0
  -10.7180    6.1210   -2.1800 C   0  0  0  0  0  0  0  0  0  0  0  0
   -9.9880    5.8940   -3.4200 C   0  0  0  0  0  0  0  0  0  0  0  0
  -10.6830    5.8930   -4.6190 C   0  0  0  0  0  0  0  0  0  0  0  0
  -10.0390    5.5950   -5.8140 C   0  0  0  0  0  0  0  0  0  0  0  0
   -8.7180    5.1590   -5.7390 C   0  0  0  0  0  0  0  0  0  0  0  0
   -8.1030    4.8590   -6.9190 O   0  0  0  0  0  0  0  0  0  0  0  0
   -6.7800    4.3420   -7.0930 C   0  0  0  0  0  0  0  0  0  0  0  0
   -8.0800    5.0790   -4.5430 C   0  0  0  0  0  0  0  0  0  0  0  0
   -8.6900    5.4100   -3.3660 C   0  0  0  0  0  0  0  0  0  0  0  0
  -15.6683    5.8225   -2.5632 H   0  0  0  0  0  0  0  0  0  0  0  0
  -15.5083    7.8832   -4.1421 H   0  0  0  0  0  0  0  0  0  0  0  0
  -13.9934    9.7457   -4.8320 H   0  0  0  0  0  0  0  0  0  0  0  0
  -12.0486   10.3419   -3.4399 H   0  0  0  0  0  0  0  0  0  0  0  0
  -11.4982    9.0435   -1.4023 H   0  0  0  0  0  0  0  0  0  0  0  0
  -14.5286    7.4392    0.8045 H   0  0  0  0  0  0  0  0  0  0  0  0
  -13.7982    5.8986    1.2154 H   0  0  0  0  0  0  0  0  0  0  0  0
   -9.0221    8.5056   -2.1336 H   0  0  0  0  0  0  0  0  0  0  0  0
   -7.0125    9.6868   -1.2816 H   0  0  0  0  0  0  0  0  0  0  0  0
   -5.9190    8.8690    0.7710 H   0  0  0  0  0  0  0  0  0  0  0  0
   -6.8238    6.9703    2.0333 H   0  0  0  0  0  0  0  0  0  0  0  0
   -8.9676    5.8984    1.2511 H   0  0  0  0  0  0  0  0  0  0  0  0
  -11.7771    5.8383   -2.2721 H   0  0  0  0  0  0  0  0  0  0  0  0
  -11.7570    6.1309   -4.6249 H   0  0  0  0  0  0  0  0  0  0  0  0
  -10.5523    5.6993   -6.7813 H   0  0  0  0  0  0  0  0  0  0  0  0
   -6.3236    4.1636   -6.1082 H   0  0  0  0  0  0  0  0  0  0  0  0
   -6.8266    3.3959   -7.6523 H   0  0  0  0  0  0  0  0  0  0  0  0
   -6.1728    5.0690   -7.6523 H   0  0  0  0  0  0  0  0  0  0  0  0
   -7.0352    4.7356   -4.5209 H   0  0  0  0  0  0  0  0  0  0  0  0
   -8.1671    5.2959   -2.4050 H   0  0  0  0  0  0  0  0  0  0  0  0
 27 26  1  0
 26 25  1  0
 24 25  1  0
 24 23  2  0
 25 28  2  0
 23 22  1  0
 28 29  1  0
  6  5  2  0
  6  7  1  0
  5  4  1  0
 22 29  2  0
 22 21  1  0
  7  8  2  0
  4  3  1  0
  4  9  2  0
 21 14  2  0
  8  9  1  0
  3  2  1  0
  9 10  1  0
 16 17  2  0
 16 15  1  0
 14 15  1  0
 14 12  1  0
 17 18  1  0
  2  1  2  0
  2 11  1  0
 15 20  2  0
 10 12  1  0
 10 11  1  0
 12 13  2  0
 18 19  2  0
 20 19  1  0
  3 30  1  0
  5 31  1  0
  6 32  1  0
  7 33  1  0
  8 34  1  0
 11 35  1  0
 11 36  1  0
 16 37  1  0
 17 38  1  0
 18 39  1  0
 19 40  1  0
 20 41  1  0
 21 42  1  0
 23 43  1  0
 24 44  1  0
 27 45  1  0
 27 46  1  0
 27 47  1  0
 28 48  1  0
 29 49  1  0
A    1
O3
A    2
C1
A    3
N2
A    4
C4
A    5
C5
A    6
C6
A    7
C7
A    8
C8
A    9
C3
A   10
N1
A   11
C2
A   12
C9
A   13
O1
A   14
C10
A   15
C19
A   16
C24
A   17
C23
A   18
C22
A   19
C21
A   20
C20
A   21
C11
A   22
C12
A   23
C17
A   24
C16
A   25
C15
A   26
O2
A   27
C18
A   28
C14
A   29
C13
M  END
