4YIL_4D3_A_404
     RDKit          3D

 23 23  0  0  0  0  0  0  0  0999 V2000
    5.6270   35.6440   -8.8150 C   0  0  0  0  0  0  0  0  0  0  0  0
    4.3190   35.3240   -9.2840 O   0  0  0  0  0  0  0  0  0  0  0  0
    4.1190   35.7170  -10.5620 C   0  0  0  0  0  0  0  0  0  0  0  0
    4.9940   36.1600  -11.3140 O   0  0  0  0  0  0  0  0  0  0  0  0
    2.6690   35.5530  -10.9880 C   0  0  0  0  0  0  0  0  0  0  0  0
    2.1610   35.9610  -12.3550 C   0  0  0  0  0  0  0  0  0  0  0  0
    3.0470   36.5060  -13.3380 C   0  0  0  0  0  0  0  0  0  0  0  0
    3.7380   36.9430  -14.1390 N   0  0  0  0  0  0  0  0  0  0  0  0
    0.8230   35.7530  -12.6810 C   0  0  0  0  0  0  0  0  0  0  0  0
    0.2200   36.5410  -13.6510 C   0  0  0  0  0  0  0  0  0  0  0  0
   -1.1030   36.3230  -13.9920 C   0  0  0  0  0  0  0  0  0  0  0  0
   -1.8170   35.3170  -13.3650 C   0  0  0  0  0  0  0  0  0  0  0  0
   -3.1160   35.1220  -13.7040 F   0  0  0  0  0  0  0  0  0  0  0  0
   -1.2210   34.5160  -12.3990 C   0  0  0  0  0  0  0  0  0  0  0  0
    0.1040   34.7310  -12.0600 C   0  0  0  0  0  0  0  0  0  0  0  0
    5.6320   35.6452   -7.7150 H   0  0  0  0  0  0  0  0  0  0  0  0
    6.3425   34.8944   -9.1841 H   0  0  0  0  0  0  0  0  0  0  0  0
    5.9156   36.6392   -9.1841 H   0  0  0  0  0  0  0  0  0  0  0  0
    1.9568   35.1185  -10.2711 H   0  0  0  0  0  0  0  0  0  0  0  0
    0.7929   37.3377  -14.1480 H   0  0  0  0  0  0  0  0  0  0  0  0
   -1.5855   36.9470  -14.7587 H   0  0  0  0  0  0  0  0  0  0  0  0
   -1.7968   33.7179  -11.9077 H   0  0  0  0  0  0  0  0  0  0  0  0
    0.5889   34.0975  -11.3027 H   0  0  0  0  0  0  0  0  0  0  0  0
  8  7  3  0
 11 10  1  0
 11 12  2  0
 13 12  1  0
 10  9  2  0
 12 14  1  0
  7  6  1  0
  9  6  1  0
  9 15  1  0
 14 15  2  0
  6  5  2  0
  4  3  2  0
  5  3  1  0
  3  2  1  0
  2  1  1  0
  1 16  1  0
  1 17  1  0
  1 18  1  0
  5 19  1  0
 10 20  1  0
 11 21  1  0
 14 22  1  0
 15 23  1  0
A    1
CAM
A    2
OAK
A    3
CAJ
A    4
OAL
A    5
CAI
A    6
CAH
A    7
CAN
A    8
NAO
A    9
CAE
A   10
CAD
A   11
CAC
A   12
CAB
A   13
FAG
A   14
CAA
A   15
CAF
M  END
