4YK5_4DV_A_201
     RDKit          3D

 70 74  0  0  0  0  0  0  0  0999 V2000
   18.4020   18.7250   32.5390 O   0  0  0  0  0  0  0  0  0  0  0  0
   10.1030   17.7040   28.2370 C   0  0  0  0  0  0  0  0  0  0  0  0
   17.0480   17.2110   33.4570 O   0  0  0  0  0  0  0  0  0  0  0  0
   10.7920   17.1290   27.1530 C   0  0  0  0  0  0  0  0  0  0  0  0
   14.1770   17.1160   30.3720 C   0  0  0  0  0  0  0  0  0  0  0  0
   12.9270   17.6310   30.7180 N   0  0  0  0  0  0  0  0  0  0  0  0
   12.1390   16.7530   27.3500 C   0  0  0  0  0  0  0  0  0  0  0  0
   12.7860   16.9610   28.5880 C   0  0  0  0  0  0  0  0  0  0  0  0
   15.1830   16.0640   28.2140 C   0  0  0  0  0  0  0  0  0  0  0  0
   14.1070   16.6910   29.0480 C   0  0  0  0  0  0  0  0  0  0  0  0
   10.0960   12.7210   34.3900 Cl  0  0  0  0  0  0  0  0  0  0  0  0
   10.7580   14.1580   33.7310 C   0  0  0  0  0  0  0  0  0  0  0  0
    9.9230   15.0370   33.0440 C   0  0  0  0  0  0  0  0  0  0  0  0
   10.4590   16.2110   32.5040 C   0  0  0  0  0  0  0  0  0  0  0  0
   12.1170   14.4340   33.8970 C   0  0  0  0  0  0  0  0  0  0  0  0
   12.6510   15.6110   33.3590 C   0  0  0  0  0  0  0  0  0  0  0  0
   11.8260   16.5130   32.6580 C   0  0  0  0  0  0  0  0  0  0  0  0
   12.4230   17.7800   32.0880 C   0  0  0  0  0  0  0  0  0  0  0  0
   12.0690   17.5440   29.6320 C   0  0  0  0  0  0  0  0  0  0  0  0
   15.3560   17.0540   31.3160 C   0  0  0  0  0  0  0  0  0  0  0  0
   16.2810   18.3000   31.4070 C   0  0  0  0  0  0  0  0  0  0  0  0
   17.3450   18.1110   32.4970 C   0  0  0  0  0  0  0  0  0  0  0  0
   15.5440   19.6370   31.6130 C   0  0  0  0  0  0  0  0  0  0  0  0
   17.0370   18.4290   30.0570 C   0  0  0  0  0  0  0  0  0  0  0  0
   10.7210   17.9240   29.4770 C   0  0  0  0  0  0  0  0  0  0  0  0
   10.1250   16.8820   25.8620 C   0  0  0  0  0  0  0  0  0  0  0  0
    9.0470   17.6630   25.3880 C   0  0  0  0  0  0  0  0  0  0  0  0
    8.4330   17.3750   24.1540 C   0  0  0  0  0  0  0  0  0  0  0  0
    8.8820   16.2950   23.3690 C   0  0  0  0  0  0  0  0  0  0  0  0
    9.9430   15.5240   23.8530 C   0  0  0  0  0  0  0  0  0  0  0  0
   10.4010   14.4850   23.1390 F   0  0  0  0  0  0  0  0  0  0  0  0
   10.5560   15.8040   25.0720 C   0  0  0  0  0  0  0  0  0  0  0  0
    8.2670   15.9520   22.0770 C   0  0  0  0  0  0  0  0  0  0  0  0
    8.7020   16.4690   20.8250 C   0  0  0  0  0  0  0  0  0  0  0  0
    9.8370   17.4520   20.6790 C   0  0  0  0  0  0  0  0  0  0  0  0
    8.0410   16.0550   19.6500 C   0  0  0  0  0  0  0  0  0  0  0  0
    6.9770   15.1470   19.6890 C   0  0  0  0  0  0  0  0  0  0  0  0
    6.5540   14.6320   20.9110 C   0  0  0  0  0  0  0  0  0  0  0  0
    7.1950   15.0300   22.0870 C   0  0  0  0  0  0  0  0  0  0  0  0
    9.0485   17.9894   28.1082 H   0  0  0  0  0  0  0  0  0  0  0  0
   17.1302   17.4602   34.4116 H   0  0  0  0  0  0  0  0  0  0  0  0
   12.6954   16.2888   26.5224 H   0  0  0  0  0  0  0  0  0  0  0  0
   15.9448   15.6201   28.8717 H   0  0  0  0  0  0  0  0  0  0  0  0
   14.7447   15.2799   27.5791 H   0  0  0  0  0  0  0  0  0  0  0  0
   15.6491   16.8319   27.5791 H   0  0  0  0  0  0  0  0  0  0  0  0
    8.8530   14.8100   32.9274 H   0  0  0  0  0  0  0  0  0  0  0  0
    9.8065   16.9049   31.9538 H   0  0  0  0  0  0  0  0  0  0  0  0
   12.7624   13.7324   34.4459 H   0  0  0  0  0  0  0  0  0  0  0  0
   13.7211   15.8330   33.4843 H   0  0  0  0  0  0  0  0  0  0  0  0
   13.2579   18.0911   32.7331 H   0  0  0  0  0  0  0  0  0  0  0  0
   11.6170   18.5278   32.0541 H   0  0  0  0  0  0  0  0  0  0  0  0
   14.9587   16.8666   32.3245 H   0  0  0  0  0  0  0  0  0  0  0  0
   15.9988   16.2627   30.9030 H   0  0  0  0  0  0  0  0  0  0  0  0
   15.4355   19.8338   32.6898 H   0  0  0  0  0  0  0  0  0  0  0  0
   16.1217   20.4495   31.1481 H   0  0  0  0  0  0  0  0  0  0  0  0
   14.5485   19.5824   31.1481 H   0  0  0  0  0  0  0  0  0  0  0  0
   18.1044   18.6111   30.2505 H   0  0  0  0  0  0  0  0  0  0  0  0
   16.9222   17.4983   29.4820 H   0  0  0  0  0  0  0  0  0  0  0  0
   16.6200   19.2690   29.4820 H   0  0  0  0  0  0  0  0  0  0  0  0
   10.1662   18.3825   30.3089 H   0  0  0  0  0  0  0  0  0  0  0  0
    8.6825   18.5075   25.9913 H   0  0  0  0  0  0  0  0  0  0  0  0
    7.5975   17.9973   23.8008 H   0  0  0  0  0  0  0  0  0  0  0  0
   11.3874   15.1733   25.4199 H   0  0  0  0  0  0  0  0  0  0  0  0
   10.1887   17.7566   21.6757 H   0  0  0  0  0  0  0  0  0  0  0  0
   10.6629   16.9792   20.1274 H   0  0  0  0  0  0  0  0  0  0  0  0
    9.4869   18.3370   20.1274 H   0  0  0  0  0  0  0  0  0  0  0  0
    8.3697   16.4555   18.6796 H   0  0  0  0  0  0  0  0  0  0  0  0
    6.4771   14.8415   18.7580 H   0  0  0  0  0  0  0  0  0  0  0  0
    5.7200   13.9159   20.9507 H   0  0  0  0  0  0  0  0  0  0  0  0
    6.8562   14.6144   23.0475 H   0  0  0  0  0  0  0  0  0  0  0  0
 36 37  1  0
 36 34  2  0
 37 38  2  0
 35 34  1  0
 34 33  1  0
 38 39  1  0
 33 39  2  0
 33 29  1  0
 29 28  1  0
 29 30  2  0
 31 30  1  0
 28 27  2  0
 30 32  1  0
 27 26  1  0
 32 26  2  0
 26  4  1  0
  4  7  1  0
  4  2  2  0
  7  8  2  0
  9 10  1  0
  2 25  1  0
  8 10  1  0
  8 19  1  0
 10  5  2  0
 25 19  2  0
 19  6  1  0
 24 21  1  0
  5  6  1  0
  5 20  1  0
  6 18  1  0
 20 21  1  0
 21 23  1  0
 21 22  1  0
 18 17  1  0
 22  1  2  0
 22  3  1  0
 14 17  2  0
 14 13  1  0
 17 16  1  0
 13 12  2  0
 16 15  2  0
 12 15  1  0
 12 11  1  0
  2 40  1  0
  3 41  1  0
  7 42  1  0
  9 43  1  0
  9 44  1  0
  9 45  1  0
 13 46  1  0
 14 47  1  0
 15 48  1  0
 16 49  1  0
 18 50  1  0
 18 51  1  0
 20 52  1  0
 20 53  1  0
 23 54  1  0
 23 55  1  0
 23 56  1  0
 24 57  1  0
 24 58  1  0
 24 59  1  0
 25 60  1  0
 27 61  1  0
 28 62  1  0
 32 63  1  0
 35 64  1  0
 35 65  1  0
 35 66  1  0
 36 67  1  0
 37 68  1  0
 38 69  1  0
 39 70  1  0
A    1
O1
A    2
C7
A    3
O2
A    4
C6
A    5
C1
A    6
N1
A    7
C5
A    8
C4
A    9
C3
A   10
C2
A   11
CL1
A   12
C32
A   13
C31
A   14
C30
A   15
C33
A   16
C34
A   17
C29
A   18
C28
A   19
C9
A   20
C23
A   21
C24
A   22
C27
A   23
C26
A   24
C25
A   25
C8
A   26
C10
A   27
C15
A   28
C14
A   29
C13
A   30
C12
A   31
F1
A   32
C11
A   33
C16
A   34
C21
A   35
C22
A   36
C20
A   37
C19
A   38
C18
A   39
C17
M  END
