4YLJ_4E1_A_505
     RDKit          3D

 30 33  0  0  0  0  0  0  0  0999 V2000
    9.8000    9.9100   24.2540 C   0  0  0  0  0  0  0  0  0  0  0  0
   10.7670    9.5840   23.3300 C   0  0  0  0  0  0  0  0  0  0  0  0
    9.6740    9.2210   25.4520 C   0  0  0  0  0  0  0  0  0  0  0  0
    7.9440   11.2600   24.8820 N   0  0  0  0  0  0  0  0  0  0  0  0
    8.7350    9.5780   26.3830 C   0  0  0  0  0  0  0  0  0  0  0  0
    8.9360    8.6710   27.5060 C   0  0  0  0  0  0  0  0  0  0  0  0
    8.2730    8.5550   28.7110 C   0  0  0  0  0  0  0  0  0  0  0  0
    8.6840    7.5410   29.6060 C   0  0  0  0  0  0  0  0  0  0  0  0
    9.7470    6.6770   29.2840 C   0  0  0  0  0  0  0  0  0  0  0  0
   10.3850    6.8140   28.0620 C   0  0  0  0  0  0  0  0  0  0  0  0
    9.9870    7.8070   27.1790 C   0  0  0  0  0  0  0  0  0  0  0  0
    7.8550   10.6200   26.0770 C   0  0  0  0  0  0  0  0  0  0  0  0
    6.8090   11.1610   26.9320 C   0  0  0  0  0  0  0  0  0  0  0  0
   11.9610    5.5680   27.5840 I   0  0  0  0  0  0  0  0  0  0  0  0
   10.4180    8.1630   25.9200 N   0  0  0  0  0  0  0  0  0  0  0  0
    5.8590   11.8720   26.3050 O   0  0  0  0  0  0  0  0  0  0  0  0
    6.8820   11.0540   28.1450 O   0  0  0  0  0  0  0  0  0  0  0  0
    8.8980   10.9250   23.9800 C   0  0  0  0  0  0  0  0  0  0  0  0
   10.8370   10.2760   22.1380 C   0  0  0  0  0  0  0  0  0  0  0  0
    9.9520   11.3070   21.8780 C   0  0  0  0  0  0  0  0  0  0  0  0
    8.9770   11.6240   22.7990 C   0  0  0  0  0  0  0  0  0  0  0  0
   11.4815    8.7747   23.5411 H   0  0  0  0  0  0  0  0  0  0  0  0
    7.4465    9.2338   28.9681 H   0  0  0  0  0  0  0  0  0  0  0  0
    8.1649    7.4256   30.5689 H   0  0  0  0  0  0  0  0  0  0  0  0
   10.0679    5.9013   29.9949 H   0  0  0  0  0  0  0  0  0  0  0  0
   11.1837    7.7049   25.4055 H   0  0  0  0  0  0  0  0  0  0  0  0
    6.4312   11.7148   28.7282 H   0  0  0  0  0  0  0  0  0  0  0  0
   11.5992   10.0068   21.3920 H   0  0  0  0  0  0  0  0  0  0  0  0
   10.0264   11.8729   20.9377 H   0  0  0  0  0  0  0  0  0  0  0  0
    8.2636   12.4346   22.5895 H   0  0  0  0  0  0  0  0  0  0  0  0
 20 19  1  0
 20 21  2  0
 19  2  2  0
 21 18  1  0
  2  1  1  0
 18  1  2  0
 18  4  1  0
  1  3  1  0
  4 12  2  0
  3 15  1  0
  3  5  2  0
 15 11  1  0
 12  5  1  0
 12 13  1  0
 16 13  2  0
  5  6  1  0
 13 17  1  0
 11  6  2  0
 11 10  1  0
  6  7  1  0
 14 10  1  0
 10  9  2  0
  7  8  2  0
  9  8  1  0
  2 22  1  0
  7 23  1  0
  8 24  1  0
  9 25  1  0
 15 26  1  0
 17 27  1  0
 19 28  1  0
 20 29  1  0
 21 30  1  0
A    1
C4
A    2
C5
A    3
C6
A    4
N1
A    5
C7
A    6
C8
A    7
C9
A    8
C10
A    9
C11
A   10
C12
A   11
C13
A   12
C14
A   13
C15
A   14
I
A   15
N
A   16
O
A   17
O1
A   18
C3
A   19
C
A   20
C1
A   21
C2
M  END
