4YLK_4E2_A_519
     RDKit          3D

 30 33  0  0  0  0  0  0  0  0999 V2000
   20.7800   52.8510   34.1340 O   0  0  0  0  0  0  0  0  0  0  0  0
   20.1140   52.6970   35.2300 C   0  0  0  0  0  0  0  0  0  0  0  0
   20.1570   53.1630   36.3980 O   0  0  0  0  0  0  0  0  0  0  0  0
   19.3630   51.5910   35.2260 C   0  0  0  0  0  0  0  0  0  0  0  0
   19.7180   50.8270   34.1040 N   0  0  0  0  0  0  0  0  0  0  0  0
   19.1700   49.5850   33.9790 C   0  0  0  0  0  0  0  0  0  0  0  0
   19.5370   48.7250   32.9480 C   0  0  0  0  0  0  0  0  0  0  0  0
   18.9550   47.4790   32.8400 C   0  0  0  0  0  0  0  0  0  0  0  0
   17.9910   47.1180   33.7590 C   0  0  0  0  0  0  0  0  0  0  0  0
   17.0760   45.2670   33.5590 I   0  0  0  0  0  0  0  0  0  0  0  0
   17.6260   47.9720   34.7980 C   0  0  0  0  0  0  0  0  0  0  0  0
   18.2080   49.2160   34.9020 C   0  0  0  0  0  0  0  0  0  0  0  0
   17.8270   50.0740   35.9440 C   0  0  0  0  0  0  0  0  0  0  0  0
   18.3620   51.2810   36.2130 C   0  0  0  0  0  0  0  0  0  0  0  0
   17.6750   51.7890   37.3730 C   0  0  0  0  0  0  0  0  0  0  0  0
   17.7300   52.9650   38.1630 C   0  0  0  0  0  0  0  0  0  0  0  0
   16.8440   53.0830   39.2580 C   0  0  0  0  0  0  0  0  0  0  0  0
   15.9280   52.0850   39.5830 C   0  0  0  0  0  0  0  0  0  0  0  0
   15.8650   50.9410   38.8060 C   0  0  0  0  0  0  0  0  0  0  0  0
   14.7130   49.6320   39.1530 Cl  0  0  0  0  0  0  0  0  0  0  0  0
   16.7290   50.8240   37.7270 C   0  0  0  0  0  0  0  0  0  0  0  0
   16.8620   49.8000   36.8310 N   0  0  0  0  0  0  0  0  0  0  0  0
   20.1008   52.5538   37.1764 H   0  0  0  0  0  0  0  0  0  0  0  0
   20.2948   49.0404   32.2157 H   0  0  0  0  0  0  0  0  0  0  0  0
   19.2531   46.7876   32.0380 H   0  0  0  0  0  0  0  0  0  0  0  0
   16.8738   47.6529   35.5344 H   0  0  0  0  0  0  0  0  0  0  0  0
   18.4456   53.7670   37.9292 H   0  0  0  0  0  0  0  0  0  0  0  0
   16.8790   53.9935   39.8743 H   0  0  0  0  0  0  0  0  0  0  0  0
   15.2608   52.2049   40.4493 H   0  0  0  0  0  0  0  0  0  0  0  0
   16.2984   48.9379   36.8374 H   0  0  0  0  0  0  0  0  0  0  0  0
  8  7  1  0
  8  9  2  0
  7  6  2  0
 10  9  1  0
  9 11  1  0
  6  5  1  0
  6 12  1  0
  5  4  2  0
  1  2  2  0
 11 12  2  0
 12 13  1  0
  4  2  1  0
  4 14  1  0
  2  3  1  0
 13 14  2  0
 13 22  1  0
 14 15  1  0
 22 21  1  0
 15 21  2  0
 15 16  1  0
 21 19  1  0
 16 17  2  0
 19 20  1  0
 19 18  2  0
 17 18  1  0
  3 23  1  0
  7 24  1  0
  8 25  1  0
 11 26  1  0
 16 27  1  0
 17 28  1  0
 18 29  1  0
 22 30  1  0
A    1
OAA
A    2
CAM
A    3
OAB
A    4
CAP
A    5
NAK
A    6
CAQ
A    7
CAI
A    8
CAG
A    9
CAN
A   10
IAD
A   11
CAJ
A   12
CAR
A   13
CAU
A   14
CAV
A   15
CAS
A   16
CAH
A   17
CAE
A   18
CAF
A   19
CAO
A   20
CLA
A   21
CAT
A   22
NAL
M  END
