4YMA_4E5_B_304
     RDKit          3D

 31 32  0  0  0  0  0  0  0  0999 V2000
   -1.9930  -10.3060  -11.0510 N   0  0  0  0  0  0  0  0  0  0  0  0
   -2.3850  -10.9920   -9.8110 C   0  0  0  0  0  0  0  0  0  0  0  0
   -1.1950  -12.2950   -5.0310 C   0  0  0  0  0  0  0  0  0  0  0  0
   -1.3010   -9.0470  -10.6950 C   0  0  0  0  0  0  0  0  0  0  0  0
   -0.8460   -9.2130   -9.2320 C   0  0  0  0  0  0  0  0  0  0  0  0
    0.4640  -13.7250   -6.2200 C   0  0  0  0  0  0  0  0  0  0  0  0
   -2.1310  -11.2530   -5.0090 C   0  0  0  0  0  0  0  0  0  0  0  0
   -0.5150  -12.6040   -6.2210 C   0  0  0  0  0  0  0  0  0  0  0  0
   -3.9050  -11.2470   -9.8350 C   0  0  0  0  0  0  0  0  0  0  0  0
   -4.4300  -11.6700   -8.7810 O   0  0  0  0  0  0  0  0  0  0  0  0
    1.2220  -13.9080   -7.1950 O   0  0  0  0  0  0  0  0  0  0  0  0
    0.4890  -14.4730   -5.2160 O   0  0  0  0  0  0  0  0  0  0  0  0
   -2.7700  -10.9620   -3.8440 O   0  0  0  0  0  0  0  0  0  0  0  0
   -2.0060  -10.0400   -8.6580 C   0  0  0  0  0  0  0  0  0  0  0  0
   -1.7290  -10.8100   -7.3730 C   0  0  0  0  0  0  0  0  0  0  0  0
   -2.4050  -10.5090   -6.1760 C   0  0  0  0  0  0  0  0  0  0  0  0
   -0.7880  -11.8660   -7.3930 C   0  0  0  0  0  0  0  0  0  0  0  0
   -4.5460  -11.0150  -10.8940 O   0  0  0  0  0  0  0  0  0  0  0  0
   -1.3593  -10.9084  -11.5955 H   0  0  0  0  0  0  0  0  0  0  0  0
   -1.8835  -11.9639   -9.6931 H   0  0  0  0  0  0  0  0  0  0  0  0
   -0.9923  -12.8715   -4.1163 H   0  0  0  0  0  0  0  0  0  0  0  0
   -1.9886   -8.1934  -10.7871 H   0  0  0  0  0  0  0  0  0  0  0  0
   -0.4489   -8.8522  -11.3629 H   0  0  0  0  0  0  0  0  0  0  0  0
   -0.7527   -8.2413   -8.7250 H   0  0  0  0  0  0  0  0  0  0  0  0
    0.1443   -9.6772   -9.1144 H   0  0  0  0  0  0  0  0  0  0  0  0
   -4.0753  -11.3842   -7.9020 H   0  0  0  0  0  0  0  0  0  0  0  0
    0.4759  -14.0817   -4.3067 H   0  0  0  0  0  0  0  0  0  0  0  0
   -2.3343  -11.1604   -2.9775 H   0  0  0  0  0  0  0  0  0  0  0  0
   -2.8093   -9.3613   -8.3353 H   0  0  0  0  0  0  0  0  0  0  0  0
   -3.1452   -9.6957   -6.1503 H   0  0  0  0  0  0  0  0  0  0  0  0
   -0.2652  -12.1139   -8.3286 H   0  0  0  0  0  0  0  0  0  0  0  0
 13  7  1  0
  7  3  2  0
  7 16  1  0
  3  8  1  0
 11  6  2  0
 16 15  2  0
  8  6  1  0
  8 17  2  0
  6 12  1  0
 15 17  1  0
 15 14  1  0
 18  9  2  0
 14  5  1  0
 14  2  1  0
  5  4  1  0
  9  2  1  0
  9 10  1  0
  2  1  1  0
  4  1  1  0
  1 19  1  0
  2 20  1  0
  3 21  1  0
  4 22  1  0
  4 23  1  0
  5 24  1  0
  5 25  1  0
 10 26  1  0
 12 27  1  0
 13 28  1  0
 14 29  1  0
 16 30  1  0
 17 31  1  0
A    1
N
A    2
CA
A    3
CAM
A    4
CAQ
A    5
CAR
A    6
CAV
A    7
CAY
A    8
CAZ
A    9
C
A   10
O
A   11
OAA
A   12
OAC
A   13
OAU
A   14
CB
A   15
CG
A   16
CD1
A   17
CD2
A   18
OXT
M  END
