4YMJ_4EJ_A_901
     RDKit          3D

 40 43  0  0  0  0  0  0  0  0999 V2000
  -29.2550   -9.1720   -5.7260 C   0  0  0  0  0  0  0  0  0  0  0  0
  -30.3940   -8.3800   -5.6430 C   0  0  0  0  0  0  0  0  0  0  0  0
  -30.6120   -7.3800   -6.5720 C   0  0  0  0  0  0  0  0  0  0  0  0
  -27.6180   -4.2630  -11.3560 C   0  0  0  0  0  0  0  0  0  0  0  0
  -27.0210   -5.1240  -10.4140 C   0  0  0  0  0  0  0  0  0  0  0  0
  -24.9650   -5.6160   -9.1290 C   0  0  0  0  0  0  0  0  0  0  0  0
  -24.6470   -7.0920   -9.1440 C   0  0  0  0  0  0  0  0  0  0  0  0
  -24.4080   -7.7790   -7.9650 C   0  0  0  0  0  0  0  0  0  0  0  0
  -24.1200   -9.1330   -7.9790 C   0  0  0  0  0  0  0  0  0  0  0  0
  -24.0660   -9.8180   -9.1740 C   0  0  0  0  0  0  0  0  0  0  0  0
  -24.3010   -9.1450  -10.3540 C   0  0  0  0  0  0  0  0  0  0  0  0
  -24.5920   -7.7920  -10.3390 C   0  0  0  0  0  0  0  0  0  0  0  0
  -28.8810  -11.1100   -4.0610 N   0  0  0  0  0  0  0  0  0  0  0  0
  -29.0440  -10.2440   -4.7850 C   0  0  0  0  0  0  0  0  0  0  0  0
  -28.3360   -8.9400   -6.7390 C   0  0  0  0  0  0  0  0  0  0  0  0
  -28.5640   -7.9410   -7.6670 C   0  0  0  0  0  0  0  0  0  0  0  0
  -29.7040   -7.1520   -7.5990 C   0  0  0  0  0  0  0  0  0  0  0  0
  -29.9700   -6.1110   -8.6120 C   0  0  0  0  0  0  0  0  0  0  0  0
  -29.0340   -5.5640   -9.4660 N   0  0  0  0  0  0  0  0  0  0  0  0
  -29.7070   -4.6960  -10.3100 C   0  0  0  0  0  0  0  0  0  0  0  0
  -31.0040   -4.6560  -10.0200 N   0  0  0  0  0  0  0  0  0  0  0  0
  -31.1580   -5.5280   -8.9730 C   0  0  0  0  0  0  0  0  0  0  0  0
  -27.6850   -5.8280   -9.4640 N   0  0  0  0  0  0  0  0  0  0  0  0
  -28.9450   -4.0370  -11.3050 C   0  0  0  0  0  0  0  0  0  0  0  0
  -25.6420   -5.1820  -10.3430 N   0  0  0  0  0  0  0  0  0  0  0  0
  -31.1231   -8.5492   -4.8369 H   0  0  0  0  0  0  0  0  0  0  0  0
  -31.5154   -6.7569   -6.4975 H   0  0  0  0  0  0  0  0  0  0  0  0
  -27.0038   -3.7779  -12.1290 H   0  0  0  0  0  0  0  0  0  0  0  0
  -24.0253   -5.0531   -9.0280 H   0  0  0  0  0  0  0  0  0  0  0  0
  -25.6409   -5.4270   -8.2820 H   0  0  0  0  0  0  0  0  0  0  0  0
  -24.4476   -7.2420   -7.0058 H   0  0  0  0  0  0  0  0  0  0  0  0
  -23.9337   -9.6638   -7.0337 H   0  0  0  0  0  0  0  0  0  0  0  0
  -23.8371  -10.8938   -9.1860 H   0  0  0  0  0  0  0  0  0  0  0  0
  -24.2571   -9.6854  -11.3111 H   0  0  0  0  0  0  0  0  0  0  0  0
  -24.7818   -7.2662  -11.2864 H   0  0  0  0  0  0  0  0  0  0  0  0
  -27.4243   -9.5520   -6.8039 H   0  0  0  0  0  0  0  0  0  0  0  0
  -27.8322   -7.7691   -8.4701 H   0  0  0  0  0  0  0  0  0  0  0  0
  -32.1198   -5.7353   -8.4811 H   0  0  0  0  0  0  0  0  0  0  0  0
  -29.4265   -3.3549  -12.0212 H   0  0  0  0  0  0  0  0  0  0  0  0
  -25.0823   -4.9130  -11.1647 H   0  0  0  0  0  0  0  0  0  0  0  0
  4 24  2  0
  4  5  1  0
 24 20  1  0
  5 25  1  0
  5 23  2  0
 11 12  2  0
 11 10  1  0
 25  6  1  0
 12  7  1  0
 20 21  2  0
 20 19  1  0
 21 22  1  0
 19 23  1  0
 19 18  1  0
 10  9  2  0
  7  6  1  0
  7  8  2  0
 22 18  2  0
 18 17  1  0
  9  8  1  0
 16 17  2  0
 16 15  1  0
 17  3  1  0
 15  1  2  0
  3  2  2  0
  1  2  1  0
  1 14  1  0
 14 13  3  0
  2 26  1  0
  3 27  1  0
  4 28  1  0
  6 29  1  0
  6 30  1  0
  8 31  1  0
  9 32  1  0
 10 33  1  0
 11 34  1  0
 12 35  1  0
 15 36  1  0
 16 37  1  0
 22 38  1  0
 24 39  1  0
 25 40  1  0
A    1
C1
A    2
C2
A    3
C3
A    4
C11
A    5
C12
A    6
C13
A    7
C14
A    8
C15
A    9
C16
A   10
C17
A   11
C18
A   12
C19
A   13
N
A   14
C
A   15
C6
A   16
C5
A   17
C4
A   18
C7
A   19
N4
A   20
C9
A   21
N1
A   22
C8
A   23
N3
A   24
C10
A   25
N2
M  END
