4YML_4F0_A_301
     RDKit          3D

 39 41  0  0  0  0  0  0  0  0999 V2000
  -25.0430    2.5000  -21.9420 C   0  0  0  0  0  0  0  0  0  0  0  0
  -23.1990    1.3020  -22.5890 C   0  0  0  0  0  0  0  0  0  0  0  0
  -22.4560    2.5220  -22.8970 C   0  0  0  0  0  0  0  0  0  0  0  0
  -23.1640    3.7810  -22.6240 C   0  0  0  0  0  0  0  0  0  0  0  0
  -26.7830   -0.5720  -28.4360 C   0  0  0  0  0  0  0  0  0  0  0  0
  -26.1860   -0.4270  -26.7880 S   0  0  0  0  0  0  0  0  0  0  0  0
  -25.7850   -1.9960  -26.0450 C   0  0  0  0  0  0  0  0  0  0  0  0
  -25.0160   -1.8100  -24.7370 C   0  0  0  0  0  0  0  0  0  0  0  0
  -23.6780   -1.1860  -25.0360 C   0  0  0  0  0  0  0  0  0  0  0  0
  -22.7440   -1.8670  -24.1420 N   0  0  0  0  0  0  0  0  0  0  0  0
  -22.6970   -1.2620  -22.7920 C   0  0  0  0  0  0  0  0  0  0  0  0
  -22.3300    0.1890  -22.9110 C   0  0  0  0  0  0  0  0  0  0  0  0
  -21.1460    0.7720  -23.3690 C   0  0  0  0  0  0  0  0  0  0  0  0
  -21.2290    2.1410  -23.3500 N   0  0  0  0  0  0  0  0  0  0  0  0
  -22.5820    4.9920  -22.8550 N   0  0  0  0  0  0  0  0  0  0  0  0
  -24.4410    3.6870  -22.1710 N   0  0  0  0  0  0  0  0  0  0  0  0
  -24.4720    1.3000  -22.1320 N   0  0  0  0  0  0  0  0  0  0  0  0
  -23.2080   -3.2620  -24.0670 C   0  0  0  0  0  0  0  0  0  0  0  0
  -24.7110   -3.1160  -23.9930 C   0  0  0  0  0  0  0  0  0  0  0  0
  -25.0900   -3.0580  -22.6030 O   0  0  0  0  0  0  0  0  0  0  0  0
  -26.0788    2.5178  -21.5721 H   0  0  0  0  0  0  0  0  0  0  0  0
  -27.8518   -0.8316  -28.4173 H   0  0  0  0  0  0  0  0  0  0  0  0
  -26.6473    0.3852  -28.9607 H   0  0  0  0  0  0  0  0  0  0  0  0
  -26.2233   -1.3603  -28.9607 H   0  0  0  0  0  0  0  0  0  0  0  0
  -26.7165   -2.5433  -25.8384 H   0  0  0  0  0  0  0  0  0  0  0  0
  -25.1499   -2.5595  -26.7444 H   0  0  0  0  0  0  0  0  0  0  0  0
  -25.6659   -1.1881  -24.1039 H   0  0  0  0  0  0  0  0  0  0  0  0
  -23.3991   -1.3509  -26.0872 H   0  0  0  0  0  0  0  0  0  0  0  0
  -23.6827   -0.0968  -24.8823 H   0  0  0  0  0  0  0  0  0  0  0  0
  -23.6834   -1.3535  -22.3138 H   0  0  0  0  0  0  0  0  0  0  0  0
  -21.9456   -1.7832  -22.1806 H   0  0  0  0  0  0  0  0  0  0  0  0
  -20.2626    0.2071  -23.7014 H   0  0  0  0  0  0  0  0  0  0  0  0
  -20.4768    2.7842  -23.6353 H   0  0  0  0  0  0  0  0  0  0  0  0
  -22.2967    5.5857  -22.0632 H   0  0  0  0  0  0  0  0  0  0  0  0
  -22.4276    5.3132  -23.8214 H   0  0  0  0  0  0  0  0  0  0  0  0
  -22.9091   -3.8269  -24.9623 H   0  0  0  0  0  0  0  0  0  0  0  0
  -22.7835   -3.8153  -23.2163 H   0  0  0  0  0  0  0  0  0  0  0  0
  -25.2692   -3.9498  -24.4438 H   0  0  0  0  0  0  0  0  0  0  0  0
  -24.2873   -3.1808  -22.0367 H   0  0  0  0  0  0  0  0  0  0  0  0
  5  6  1  0
  6  7  1  0
  7  8  1  0
  9  8  1  0
  9 10  1  0
  8 19  1  0
 10 18  1  0
 10 11  1  0
 18 19  1  0
 19 20  1  0
 13 14  1  0
 13 12  2  0
 14  3  1  0
 12 11  1  0
 12  2  1  0
  3  4  2  0
  3  2  1  0
 15  4  1  0
  4 16  1  0
  2 17  2  0
 16  1  2  0
 17  1  1  0
  1 21  1  0
  5 22  1  0
  5 23  1  0
  5 24  1  0
  7 25  1  0
  7 26  1  0
  8 27  1  0
  9 28  1  0
  9 29  1  0
 11 30  1  0
 11 31  1  0
 13 32  1  0
 14 33  1  0
 15 34  1  0
 15 35  1  0
 18 36  1  0
 18 37  1  0
 19 38  1  0
 20 39  1  0
A    1
C2
A    2
C4
A    3
C5
A    4
C6
A    5
CS5
A    6
S
A    7
C5'
A    8
C4'
A    9
C1'
A   10
N1'
A   11
C10
A   12
C9
A   13
C8
A   14
N7
A   15
N6
A   16
N1
A   17
N3
A   18
C2'
A   19
C3'
A   20
O3'
M  END
