4YNE_4EK_A_801
     RDKit          3D

 45 49  0  0  0  0  0  0  0  0999 V2000
  -19.9980  -44.3260  -16.1310 C   0  0  0  0  0  0  0  0  0  0  0  0
  -20.4380  -45.3830  -15.3240 C   0  0  0  0  0  0  0  0  0  0  0  0
  -15.2790  -42.6470  -17.0400 C   0  0  0  0  0  0  0  0  0  0  0  0
  -16.0250  -42.1760  -14.7560 C   0  0  0  0  0  0  0  0  0  0  0  0
  -16.3250  -40.4720  -12.6020 C   0  0  0  0  0  0  0  0  0  0  0  0
  -15.8040  -39.8990  -13.8410 C   0  0  0  0  0  0  0  0  0  0  0  0
  -15.6720  -40.7300  -14.8990 C   0  0  0  0  0  0  0  0  0  0  0  0
  -17.0510  -40.8720  -10.5780 C   0  0  0  0  0  0  0  0  0  0  0  0
  -17.0680  -41.9980  -11.3300 C   0  0  0  0  0  0  0  0  0  0  0  0
  -17.5620  -43.3280  -10.7750 C   0  0  0  0  0  0  0  0  0  0  0  0
  -17.6680  -44.4910  -11.5560 C   0  0  0  0  0  0  0  0  0  0  0  0
  -18.1470  -45.6830  -10.9860 C   0  0  0  0  0  0  0  0  0  0  0  0
  -18.5280  -45.6970   -9.6310 C   0  0  0  0  0  0  0  0  0  0  0  0
  -18.4150  -44.5110   -8.8920 C   0  0  0  0  0  0  0  0  0  0  0  0
  -20.8920  -43.6110  -16.7900 F   0  0  0  0  0  0  0  0  0  0  0  0
  -19.4980  -46.1480  -14.6320 C   0  0  0  0  0  0  0  0  0  0  0  0
  -18.1350  -45.8380  -14.7570 C   0  0  0  0  0  0  0  0  0  0  0  0
  -17.6970  -44.7740  -15.5530 C   0  0  0  0  0  0  0  0  0  0  0  0
  -18.6380  -44.0040  -16.2280 C   0  0  0  0  0  0  0  0  0  0  0  0
  -16.1910  -44.4510  -15.6380 C   0  0  0  0  0  0  0  0  0  0  0  0
  -15.5150  -45.0850  -16.9000 C   0  0  0  0  0  0  0  0  0  0  0  0
  -15.3980  -43.9260  -17.9010 C   0  0  0  0  0  0  0  0  0  0  0  0
  -15.8600  -43.0260  -15.7490 N   0  0  0  0  0  0  0  0  0  0  0  0
  -16.4630  -42.5590  -13.6030 N   0  0  0  0  0  0  0  0  0  0  0  0
  -16.6300  -41.7330  -12.5490 N   0  0  0  0  0  0  0  0  0  0  0  0
  -16.5410  -39.8950  -11.5020 N   0  0  0  0  0  0  0  0  0  0  0  0
  -17.9510  -43.3750   -9.4720 N   0  0  0  0  0  0  0  0  0  0  0  0
  -21.5113  -45.6074  -15.2368 H   0  0  0  0  0  0  0  0  0  0  0  0
  -14.2256  -42.3528  -16.9222 H   0  0  0  0  0  0  0  0  0  0  0  0
  -15.7892  -41.7848  -17.4943 H   0  0  0  0  0  0  0  0  0  0  0  0
  -15.5306  -38.8358  -13.9100 H   0  0  0  0  0  0  0  0  0  0  0  0
  -15.3062  -40.3438  -15.8618 H   0  0  0  0  0  0  0  0  0  0  0  0
  -17.3508  -40.7386   -9.5281 H   0  0  0  0  0  0  0  0  0  0  0  0
  -17.3754  -44.4686  -12.6161 H   0  0  0  0  0  0  0  0  0  0  0  0
  -18.2235  -46.5969  -11.5934 H   0  0  0  0  0  0  0  0  0  0  0  0
  -18.9059  -46.6177   -9.1625 H   0  0  0  0  0  0  0  0  0  0  0  0
  -18.7054  -44.5010   -7.8311 H   0  0  0  0  0  0  0  0  0  0  0  0
  -19.8219  -46.9847  -13.9956 H   0  0  0  0  0  0  0  0  0  0  0  0
  -17.3940  -46.4455  -14.2168 H   0  0  0  0  0  0  0  0  0  0  0  0
  -18.3158  -43.1456  -16.8356 H   0  0  0  0  0  0  0  0  0  0  0  0
  -15.8237  -44.8621  -14.6861 H   0  0  0  0  0  0  0  0  0  0  0  0
  -16.1398  -45.8915  -17.3112 H   0  0  0  0  0  0  0  0  0  0  0  0
  -14.5387  -45.5356  -16.6679 H   0  0  0  0  0  0  0  0  0  0  0  0
  -16.2924  -43.8777  -18.5395 H   0  0  0  0  0  0  0  0  0  0  0  0
  -14.5333  -44.0499  -18.5695 H   0  0  0  0  0  0  0  0  0  0  0  0
 22  3  1  0
 22 21  1  0
  3 23  1  0
 21 20  1  0
 15  1  1  0
 19  1  2  0
 19 18  1  0
  1  2  1  0
 23 20  1  0
 23  4  1  0
 20 18  1  0
 18 17  2  0
  2 16  2  0
  7  4  1  0
  7  6  2  0
 17 16  1  0
  4 24  2  0
  6  5  1  0
 24 25  1  0
  5 25  1  0
  5 26  2  0
 25  9  1  0
 11 12  2  0
 11 10  1  0
 26  8  1  0
  9 10  1  0
  9  8  2  0
 12 13  1  0
 10 27  2  0
 13 14  2  0
 27 14  1  0
  2 28  1  0
  3 29  1  0
  3 30  1  0
  6 31  1  0
  7 32  1  0
  8 33  1  0
 11 34  1  0
 12 35  1  0
 13 36  1  0
 14 37  1  0
 16 38  1  0
 17 39  1  0
 19 40  1  0
 20 41  1  0
 21 42  1  0
 21 43  1  0
 22 44  1  0
 22 45  1  0
A    1
C2
A    2
C3
A    3
C11
A    4
C13
A    5
C16
A    6
C17
A    7
C18
A    8
C20
A    9
C21
A   10
C22
A   11
C23
A   12
C24
A   13
C25
A   14
C26
A   15
F1
A   16
C4
A   17
C5
A   18
C6
A   19
C7
A   20
C8
A   21
C9
A   22
C10
A   23
N12
A   24
N14
A   25
N15
A   26
N19
A   27
N27
M  END
