4YNK_YW2_A_500
     RDKit          3D

 81 86  0  0  0  0  0  0  0  0999 V2000
   13.7930    3.9110   26.7430 C   0  0  0  0  0  0  0  0  0  0  0  0
   13.0370    2.7450   27.1870 C   0  0  0  0  0  0  0  0  0  0  0  0
   12.3880    1.7820   27.4410 C   0  0  0  0  0  0  0  0  0  0  0  0
   11.5020    0.5700   27.5790 C   0  0  0  0  0  0  0  0  0  0  0  0
    9.9190   -2.3110   28.4840 O   0  0  0  0  0  0  0  0  0  0  0  0
   10.7500   -0.3450   27.5440 C   0  0  0  0  0  0  0  0  0  0  0  0
    9.7700   -1.4190   27.3720 C   0  0  0  0  0  0  0  0  0  0  0  0
    6.5440    0.5770   25.9510 C   0  0  0  0  0  0  0  0  0  0  0  0
    6.1340    1.2830   27.3150 C   0  0  0  0  0  0  0  0  0  0  0  0
    5.6240   -0.6900   25.7320 C   0  0  0  0  0  0  0  0  0  0  0  0
    8.0430    0.1000   26.0330 C   0  0  0  0  0  0  0  0  0  0  0  0
    7.7890   -0.1910   28.6410 C   0  0  0  0  0  0  0  0  0  0  0  0
    6.2840    0.2780   28.5400 C   0  0  0  0  0  0  0  0  0  0  0  0
    5.3770   -1.0010   28.2910 C   0  0  0  0  0  0  0  0  0  0  0  0
    5.7890   -1.7180   26.9350 C   0  0  0  0  0  0  0  0  0  0  0  0
    7.2980   -2.1780   27.0310 C   0  0  0  0  0  0  0  0  0  0  0  0
    8.2760   -0.9200   27.2760 C   0  0  0  0  0  0  0  0  0  0  0  0
   12.9890    5.0230   25.9490 C   0  0  0  0  0  0  0  0  0  0  0  0
   14.2190    5.7060   25.2590 C   0  0  0  0  0  0  0  0  0  0  0  0
   14.9500    4.4850   24.6510 C   0  0  0  0  0  0  0  0  0  0  0  0
   14.9830    3.5080   25.8210 C   0  0  0  0  0  0  0  0  0  0  0  0
   12.2930    6.0830   26.8750 C   0  0  0  0  0  0  0  0  0  0  0  0
   11.9370    7.4300   26.1510 C   0  0  0  0  0  0  0  0  0  0  0  0
   13.0920    8.0090   25.2760 C   0  0  0  0  0  0  0  0  0  0  0  0
   13.7550    6.9210   24.3960 C   0  0  0  0  0  0  0  0  0  0  0  0
   11.9110    4.4270   24.9180 C   0  0  0  0  0  0  0  0  0  0  0  0
   13.9000    6.9590   23.0820 C   0  0  0  0  0  0  0  0  0  0  0  0
   13.6560    8.0220   22.1720 C   0  0  0  0  0  0  0  0  0  0  0  0
   13.5340    7.8800   20.8650 C   0  0  0  0  0  0  0  0  0  0  0  0
   13.3760    9.1390   19.9800 C   0  0  0  0  0  0  0  0  0  0  0  0
   14.1540    9.0090   18.6190 C   0  0  0  0  0  0  0  0  0  0  0  0
   13.7680    7.6950   17.9040 C   0  0  0  0  0  0  0  0  0  0  0  0
   14.1240    6.4550   18.7400 C   0  0  0  0  0  0  0  0  0  0  0  0
   13.4070    6.5130   20.0920 C   0  0  0  0  0  0  0  0  0  0  0  0
   13.1190    7.6780   16.7160 C   0  0  0  0  0  0  0  0  0  0  0  0
   13.7370    5.2120   18.1260 O   0  0  0  0  0  0  0  0  0  0  0  0
   15.5700    9.0090   18.9040 O   0  0  0  0  0  0  0  0  0  0  0  0
   14.1116    4.3449   27.7023 H   0  0  0  0  0  0  0  0  0  0  0  0
    9.8340   -1.8021   29.3289 H   0  0  0  0  0  0  0  0  0  0  0  0
    9.9704   -1.9131   26.4098 H   0  0  0  0  0  0  0  0  0  0  0  0
    6.4236    1.2878   25.1202 H   0  0  0  0  0  0  0  0  0  0  0  0
    6.7861    2.1532   27.4807 H   0  0  0  0  0  0  0  0  0  0  0  0
    5.0828    1.5994   27.2457 H   0  0  0  0  0  0  0  0  0  0  0  0
    4.5738   -0.3681   25.6733 H   0  0  0  0  0  0  0  0  0  0  0  0
    5.9229   -1.1875   24.7976 H   0  0  0  0  0  0  0  0  0  0  0  0
    8.3069   -0.4122   25.0960 H   0  0  0  0  0  0  0  0  0  0  0  0
    8.6786    0.9842   26.1883 H   0  0  0  0  0  0  0  0  0  0  0  0
    7.8881   -0.8971   29.4786 H   0  0  0  0  0  0  0  0  0  0  0  0
    8.4178    0.6971   28.8019 H   0  0  0  0  0  0  0  0  0  0  0  0
    5.9754    0.7841   29.4667 H   0  0  0  0  0  0  0  0  0  0  0  0
    4.3231   -0.6916   28.2315 H   0  0  0  0  0  0  0  0  0  0  0  0
    5.5183   -1.7056   29.1238 H   0  0  0  0  0  0  0  0  0  0  0  0
    5.1464   -2.5940   26.7630 H   0  0  0  0  0  0  0  0  0  0  0  0
    7.4054   -2.8843   27.8674 H   0  0  0  0  0  0  0  0  0  0  0  0
    7.5775   -2.6569   26.0810 H   0  0  0  0  0  0  0  0  0  0  0  0
   14.9568    6.2461   25.8705 H   0  0  0  0  0  0  0  0  0  0  0  0
   14.3901    4.0688   23.8005 H   0  0  0  0  0  0  0  0  0  0  0  0
   15.9458    4.7238   24.2493 H   0  0  0  0  0  0  0  0  0  0  0  0
   14.8572    2.4759   25.4620 H   0  0  0  0  0  0  0  0  0  0  0  0
   15.9428    3.5495   26.3567 H   0  0  0  0  0  0  0  0  0  0  0  0
   11.3628    5.6438   27.2647 H   0  0  0  0  0  0  0  0  0  0  0  0
   13.0114    6.3302   27.6705 H   0  0  0  0  0  0  0  0  0  0  0  0
   11.6772    8.1755   26.9170 H   0  0  0  0  0  0  0  0  0  0  0  0
   11.1019    7.2119   25.4691 H   0  0  0  0  0  0  0  0  0  0  0  0
   13.8552    8.4439   25.9381 H   0  0  0  0  0  0  0  0  0  0  0  0
   12.6631    8.7709   24.6085 H   0  0  0  0  0  0  0  0  0  0  0  0
   11.0824    3.9689   25.4779 H   0  0  0  0  0  0  0  0  0  0  0  0
   11.5216    5.2380   24.2850 H   0  0  0  0  0  0  0  0  0  0  0  0
   12.3908    3.6660   24.2850 H   0  0  0  0  0  0  0  0  0  0  0  0
   14.2644    6.0271   22.6250 H   0  0  0  0  0  0  0  0  0  0  0  0
   13.5619    9.0367   22.5861 H   0  0  0  0  0  0  0  0  0  0  0  0
   13.7651   10.0092   20.5289 H   0  0  0  0  0  0  0  0  0  0  0  0
   12.3072    9.2575   19.7484 H   0  0  0  0  0  0  0  0  0  0  0  0
   13.8951    9.8516   17.9609 H   0  0  0  0  0  0  0  0  0  0  0  0
   15.2193    6.4766   18.8390 H   0  0  0  0  0  0  0  0  0  0  0  0
   12.3382    6.3192   19.9182 H   0  0  0  0  0  0  0  0  0  0  0  0
   13.8949    5.7588   20.7269 H   0  0  0  0  0  0  0  0  0  0  0  0
   12.8637    6.7185   16.2424 H   0  0  0  0  0  0  0  0  0  0  0  0
   12.8470    8.6236   16.2243 H   0  0  0  0  0  0  0  0  0  0  0  0
   13.5299    4.5469   18.8294 H   0  0  0  0  0  0  0  0  0  0  0  0
   15.8935    8.0756   18.9691 H   0  0  0  0  0  0  0  0  0  0  0  0
 35 32  2  3
 32 31  1  0
 32 33  1  0
 36 33  1  0
 31 37  1  0
 31 30  1  0
 33 34  1  0
 30 29  1  0
 34 29  1  0
 29 28  2  0
 28 27  1  0
 27 25  2  0
 25 19  1  0
 25 24  1  0
 20 19  1  0
 20 21  1  0
 26 18  1  0
 19 18  1  0
 24 23  1  0
 10  8  1  0
 10 15  1  0
 21  1  1  0
 18  1  1  0
 18 22  1  0
  8 11  1  0
  8  9  1  0
 11 17  1  0
 23 22  1  0
  1  2  1  0
 15 16  1  0
 15 14  1  0
 16 17  1  0
  2  3  3  0
 17  7  1  0
 17 12  1  0
  9 13  1  0
  7  6  1  0
  7  5  1  0
  3  4  1  0
  6  4  3  0
 14 13  1  0
 13 12  1  0
  1 38  1  0
  5 39  1  0
  7 40  1  0
  8 41  1  0
  9 42  1  0
  9 43  1  0
 10 44  1  0
 10 45  1  0
 11 46  1  0
 11 47  1  0
 12 48  1  0
 12 49  1  0
 13 50  1  0
 14 51  1  0
 14 52  1  0
 15 53  1  0
 16 54  1  0
 16 55  1  0
 19 56  1  0
 20 57  1  0
 20 58  1  0
 21 59  1  0
 21 60  1  0
 22 61  1  0
 22 62  1  0
 23 63  1  0
 23 64  1  0
 24 65  1  0
 24 66  1  0
 26 67  1  0
 26 68  1  0
 26 69  1  0
 27 70  1  0
 28 71  1  0
 30 72  1  0
 30 73  1  0
 31 74  1  0
 33 75  1  0
 34 76  1  0
 34 77  1  0
 35 78  1  0
 35 79  1  0
 36 80  1  0
 37 81  1  0
A    1
C17
A    2
C20
A    3
C22
A    4
C23
A    5
O03
A    6
C24
A    7
C25
A    8
C35
A    9
C38
A   10
C36
A   11
C37
A   12
C34
A   13
C33
A   14
C32
A   15
C31
A   16
C30
A   17
C29
A   18
C13
A   19
C14
A   20
C15
A   21
C16
A   22
C12
A   23
C11
A   24
C09
A   25
C08
A   26
C18
A   27
C07
A   28
C06
A   29
C05
A   30
C04
A   31
C03
A   32
C02
A   33
C01
A   34
C10
A   35
C28
A   36
O01
A   37
O02
M  END
