4YO6_4GD_A_501
     RDKit          3D

 38 41  0  0  0  0  0  0  0  0999 V2000
   30.1570    6.6200   -7.1810 N   0  0  0  0  0  0  0  0  0  0  0  0
   30.8010    5.6690   -7.8870 C   0  0  0  0  0  0  0  0  0  0  0  0
   30.7530    4.4300   -7.7000 O   0  0  0  0  0  0  0  0  0  0  0  0
   31.6980    6.1510   -8.9800 C   0  0  0  0  0  0  0  0  0  0  0  0
   32.6730    5.3670   -9.6810 C   0  0  0  0  0  0  0  0  0  0  0  0
   33.3240    6.0860  -10.5850 N   0  0  0  0  0  0  0  0  0  0  0  0
   32.7740    7.3670  -10.4940 N   0  0  0  0  0  0  0  0  0  0  0  0
   31.7730    7.4200   -9.4770 C   0  0  0  0  0  0  0  0  0  0  0  0
   31.1260    8.5850   -9.1760 N   0  0  0  0  0  0  0  0  0  0  0  0
   31.5040    9.6740   -9.9100 C   0  0  0  0  0  0  0  0  0  0  0  0
   32.4880    9.6590  -10.9590 C   0  0  0  0  0  0  0  0  0  0  0  0
   33.1260    8.4590  -11.2330 C   0  0  0  0  0  0  0  0  0  0  0  0
   29.3770    6.4690   -6.0810 C   0  0  0  0  0  0  0  0  0  0  0  0
   29.0750    5.2880   -5.3620 C   0  0  0  0  0  0  0  0  0  0  0  0
   28.2840    5.7430   -4.2680 C   0  0  0  0  0  0  0  0  0  0  0  0
   28.1080    7.1060   -4.3280 N   0  0  0  0  0  0  0  0  0  0  0  0
   28.7920    7.5430   -5.4390 N   0  0  0  0  0  0  0  0  0  0  0  0
   27.7200    4.9190   -3.1520 C   0  0  0  0  0  0  0  0  0  0  0  0
   28.8480    8.9120   -5.7450 C   0  0  0  0  0  0  0  0  0  0  0  0
   29.3460    9.8340   -4.7480 C   0  0  0  0  0  0  0  0  0  0  0  0
   29.4170   11.2310   -5.0530 C   0  0  0  0  0  0  0  0  0  0  0  0
   29.0120   11.7160   -6.3470 C   0  0  0  0  0  0  0  0  0  0  0  0
   28.5210   10.8000   -7.3380 C   0  0  0  0  0  0  0  0  0  0  0  0
   28.4290    9.4000   -7.0410 C   0  0  0  0  0  0  0  0  0  0  0  0
   30.2719    7.5857   -7.5204 H   0  0  0  0  0  0  0  0  0  0  0  0
   32.8582    4.2993   -9.4918 H   0  0  0  0  0  0  0  0  0  0  0  0
   31.0191   10.6345   -9.6813 H   0  0  0  0  0  0  0  0  0  0  0  0
   32.7268   10.5709  -11.5260 H   0  0  0  0  0  0  0  0  0  0  0  0
   33.8910    8.3893  -12.0204 H   0  0  0  0  0  0  0  0  0  0  0  0
   29.3804    4.2571   -5.5942 H   0  0  0  0  0  0  0  0  0  0  0  0
   28.0184    5.3550   -2.1872 H   0  0  0  0  0  0  0  0  0  0  0  0
   26.6225    4.9056   -3.2245 H   0  0  0  0  0  0  0  0  0  0  0  0
   28.1048    3.8911   -3.2245 H   0  0  0  0  0  0  0  0  0  0  0  0
   29.6677    9.4647   -3.7631 H   0  0  0  0  0  0  0  0  0  0  0  0
   29.7832   11.9382   -4.2942 H   0  0  0  0  0  0  0  0  0  0  0  0
   29.0788   12.7897   -6.5767 H   0  0  0  0  0  0  0  0  0  0  0  0
   28.2149   11.1728   -8.3266 H   0  0  0  0  0  0  0  0  0  0  0  0
   28.0413    8.6998   -7.7957 H   0  0  0  0  0  0  0  0  0  0  0  0
 12 11  2  0
 12  7  1  0
 11 10  1  0
  6  7  1  0
  6  5  2  0
  7  8  1  0
 10  9  2  0
  5  4  1  0
  8  9  1  0
  8  4  2  0
  4  2  1  0
  2  3  2  0
  2  1  1  0
 23 24  2  0
 23 22  1  0
  1 13  1  0
 24 19  1  0
 22 21  2  0
 13 17  1  0
 13 14  2  0
 19 17  1  0
 19 20  2  0
 17 16  1  0
 14 15  1  0
 21 20  1  0
 16 15  2  0
 15 18  1  0
  1 25  1  0
  5 26  1  0
 10 27  1  0
 11 28  1  0
 12 29  1  0
 14 30  1  0
 18 31  1  0
 18 32  1  0
 18 33  1  0
 20 34  1  0
 21 35  1  0
 22 36  1  0
 23 37  1  0
 24 38  1  0
A    1
N01
A    2
C02
A    3
O03
A    4
C04
A    5
C05
A    6
N06
A    7
N07
A    8
C08
A    9
N09
A   10
C10
A   11
C11
A   12
C12
A   13
C13
A   14
C14
A   15
C15
A   16
N16
A   17
N17
A   18
C18
A   19
C19
A   20
C20
A   21
C21
A   22
C22
A   23
C23
A   24
C24
M  END
