4YOJ_RFM_A_401
     RDKit          3D

 55 59  0  0  0  0  0  0  0  0999 V2000
   -7.2430  -21.3800   29.1620 O   0  0  0  0  0  0  0  0  0  0  0  0
   -7.1720  -22.2470   28.2890 C   0  0  0  0  0  0  0  0  0  0  0  0
   -5.9340  -22.9520   28.0780 N   0  0  0  0  0  0  0  0  0  0  0  0
   -5.8890  -23.9870   27.0560 C   0  0  0  0  0  0  0  0  0  0  0  0
   -6.1110  -25.2840   27.4670 C   0  0  0  0  0  0  0  0  0  0  0  0
   -6.0660  -26.3340   26.5300 C   0  0  0  0  0  0  0  0  0  0  0  0
   -5.8270  -26.0580   25.2230 C   0  0  0  0  0  0  0  0  0  0  0  0
   -5.7380  -27.1000   24.2740 N   0  0  0  0  0  0  0  0  0  0  0  0
   -6.4850  -28.3320   24.2740 C   0  0  0  0  0  0  0  0  0  0  0  0
   -6.1560  -29.3070   23.1450 C   0  0  0  0  0  0  0  0  0  0  0  0
   -4.8740  -29.2630   22.6120 C   0  0  0  0  0  0  0  0  0  0  0  0
   -4.5150  -30.1510   21.5470 C   0  0  0  0  0  0  0  0  0  0  0  0
   -5.4660  -31.0620   21.0580 C   0  0  0  0  0  0  0  0  0  0  0  0
   -6.7590  -31.1050   21.5980 C   0  0  0  0  0  0  0  0  0  0  0  0
   -7.1190  -30.2180   22.6610 C   0  0  0  0  0  0  0  0  0  0  0  0
   -7.3500  -28.6070   25.1170 O   0  0  0  0  0  0  0  0  0  0  0  0
   -5.5860  -24.7420   24.8090 C   0  0  0  0  0  0  0  0  0  0  0  0
   -5.6240  -23.7000   25.7340 C   0  0  0  0  0  0  0  0  0  0  0  0
   -4.7460  -22.6620   28.8600 C   0  0  0  0  0  0  0  0  0  0  0  0
   -3.6100  -22.4580   27.8530 C   0  0  0  0  0  0  0  0  0  0  0  0
   -2.5760  -23.4450   27.5160 C   0  0  0  0  0  0  0  0  0  0  0  0
   -1.6020  -22.8570   26.3850 S   0  0  0  0  0  0  0  0  0  0  0  0
   -2.2520  -21.3850   26.1480 C   0  0  0  0  0  0  0  0  0  0  0  0
   -3.4050  -21.2120   27.0040 C   0  0  0  0  0  0  0  0  0  0  0  0
   -8.3670  -22.6100   27.4090 C   0  0  0  0  0  0  0  0  0  0  0  0
   -9.5580  -21.9350   27.8030 N   0  0  0  0  0  0  0  0  0  0  0  0
  -10.5200  -22.4960   28.6230 C   0  0  0  0  0  0  0  0  0  0  0  0
  -10.6240  -23.7560   29.2770 C   0  0  0  0  0  0  0  0  0  0  0  0
  -11.7490  -24.0230   30.0610 C   0  0  0  0  0  0  0  0  0  0  0  0
  -12.7690  -23.0660   30.1980 C   0  0  0  0  0  0  0  0  0  0  0  0
  -12.6580  -21.8240   29.5470 C   0  0  0  0  0  0  0  0  0  0  0  0
  -11.5290  -21.5440   28.7570 C   0  0  0  0  0  0  0  0  0  0  0  0
  -11.1210  -20.4310   28.0020 N   0  0  0  0  0  0  0  0  0  0  0  0
   -9.9430  -20.6900   27.4400 N   0  0  0  0  0  0  0  0  0  0  0  0
   -6.3229  -25.4982   28.5249 H   0  0  0  0  0  0  0  0  0  0  0  0
   -6.2238  -27.3727   26.8558 H   0  0  0  0  0  0  0  0  0  0  0  0
   -5.0698  -26.9653   23.5018 H   0  0  0  0  0  0  0  0  0  0  0  0
   -4.1367  -28.5484   23.0066 H   0  0  0  0  0  0  0  0  0  0  0  0
   -3.5035  -30.1199   21.1158 H   0  0  0  0  0  0  0  0  0  0  0  0
   -5.1933  -31.7486   20.2430 H   0  0  0  0  0  0  0  0  0  0  0  0
   -7.4962  -31.8203   21.2046 H   0  0  0  0  0  0  0  0  0  0  0  0
   -8.1298  -30.2456   23.0940 H   0  0  0  0  0  0  0  0  0  0  0  0
   -5.3664  -24.5303   23.7521 H   0  0  0  0  0  0  0  0  0  0  0  0
   -5.4450  -22.6631   25.4135 H   0  0  0  0  0  0  0  0  0  0  0  0
   -4.5154  -23.5038   29.5294 H   0  0  0  0  0  0  0  0  0  0  0  0
   -4.8883  -21.7711   29.4893 H   0  0  0  0  0  0  0  0  0  0  0  0
   -2.4830  -24.4416   27.9723 H   0  0  0  0  0  0  0  0  0  0  0  0
   -1.8712  -20.6327   25.4416 H   0  0  0  0  0  0  0  0  0  0  0  0
   -4.0391  -20.3137   27.0364 H   0  0  0  0  0  0  0  0  0  0  0  0
   -8.5376  -23.6947   27.4752 H   0  0  0  0  0  0  0  0  0  0  0  0
   -8.1314  -22.3004   26.3801 H   0  0  0  0  0  0  0  0  0  0  0  0
   -9.8297  -24.5089   29.1666 H   0  0  0  0  0  0  0  0  0  0  0  0
  -11.8373  -24.9911   30.5758 H   0  0  0  0  0  0  0  0  0  0  0  0
  -13.6532  -23.2879   30.8136 H   0  0  0  0  0  0  0  0  0  0  0  0
  -13.4538  -21.0724   29.6559 H   0  0  0  0  0  0  0  0  0  0  0  0
 13 12  1  0
 13 14  2  0
 12 11  2  0
 14 15  1  0
 11 10  1  0
 15 10  2  0
 10  9  1  0
  8  9  1  0
  8  7  1  0
  9 16  2  0
 17  7  2  0
 17 18  1  0
  7  6  1  0
 18  4  2  0
 23 22  1  0
 23 24  2  0
 22 21  1  0
  6  5  2  0
 24 20  1  0
  4  5  1  0
  4  3  1  0
 25 26  1  0
 25  2  1  0
 34 26  1  0
 34 33  2  0
 21 20  2  0
 26 27  1  0
 20 19  1  0
 33 32  1  0
  3  2  1  0
  3 19  1  0
  2  1  2  0
 27 32  1  0
 27 28  2  0
 32 31  2  0
 28 29  1  0
 31 30  1  0
 29 30  2  0
  5 35  1  0
  6 36  1  0
  8 37  1  0
 11 38  1  0
 12 39  1  0
 13 40  1  0
 14 41  1  0
 15 42  1  0
 17 43  1  0
 18 44  1  0
 19 45  1  0
 19 46  1  0
 21 47  1  0
 23 48  1  0
 24 49  1  0
 25 50  1  0
 25 51  1  0
 28 52  1  0
 29 53  1  0
 30 54  1  0
 31 55  1  0
A    1
O01
A    2
C02
A    3
N03
A    4
C04
A    5
C05
A    6
C06
A    7
C07
A    8
N08
A    9
C09
A   10
C10
A   11
C11
A   12
C12
A   13
C13
A   14
C14
A   15
C15
A   16
O16
A   17
C17
A   18
C18
A   19
C19
A   20
C20
A   21
C21
A   22
S22
A   23
C23
A   24
C24
A   25
C25
A   26
N26
A   27
C27
A   28
C28
A   29
C29
A   30
C30
A   31
C31
A   32
C32
A   33
N33
A   34
N34
M  END
