4YP8_4GF_A_501
     RDKit          3D

 66 71  0  0  0  0  0  0  0  0999 V2000
   29.4320    6.2310   -7.5490 N   0  0  0  0  0  0  0  0  0  0  0  0
   30.1040    5.2090   -8.1600 C   0  0  0  0  0  0  0  0  0  0  0  0
   29.9790    4.0280   -7.8390 O   0  0  0  0  0  0  0  0  0  0  0  0
   31.0240    5.6150   -9.2250 C   0  0  0  0  0  0  0  0  0  0  0  0
   31.8980    4.6910   -9.8740 C   0  0  0  0  0  0  0  0  0  0  0  0
   32.7100    5.2760  -10.7720 N   0  0  0  0  0  0  0  0  0  0  0  0
   32.3280    6.6030  -10.7890 N   0  0  0  0  0  0  0  0  0  0  0  0
   31.2480    6.8580   -9.8480 C   0  0  0  0  0  0  0  0  0  0  0  0
   30.7580    8.1670   -9.6690 N   0  0  0  0  0  0  0  0  0  0  0  0
   31.3260    9.1420  -10.4340 C   0  0  0  0  0  0  0  0  0  0  0  0
   32.3250    8.9260  -11.3670 C   0  0  0  0  0  0  0  0  0  0  0  0
   32.8760    7.6610  -11.5590 C   0  0  0  0  0  0  0  0  0  0  0  0
   28.6990    6.1680   -6.3580 C   0  0  0  0  0  0  0  0  0  0  0  0
   28.2600    5.1490   -5.5320 C   0  0  0  0  0  0  0  0  0  0  0  0
   27.5210    5.7830   -4.4820 C   0  0  0  0  0  0  0  0  0  0  0  0
   27.4780    7.1380   -4.6550 N   0  0  0  0  0  0  0  0  0  0  0  0
   28.2270    7.3540   -5.7890 N   0  0  0  0  0  0  0  0  0  0  0  0
   26.7850    5.1370   -3.3490 C   0  0  0  0  0  0  0  0  0  0  0  0
   27.4910    3.9050   -2.7680 C   0  0  0  0  0  0  0  0  0  0  0  0
   26.6550    3.3430   -1.6230 C   0  0  0  0  0  0  0  0  0  0  0  0
   26.4920    4.3330   -0.5460 N   0  0  0  0  0  0  0  0  0  0  0  0
   25.7400    5.4730   -1.0990 C   0  0  0  0  0  0  0  0  0  0  0  0
   26.5090    6.1520   -2.2300 C   0  0  0  0  0  0  0  0  0  0  0  0
   25.8970    3.7830    0.6900 C   0  0  0  0  0  0  0  0  0  0  0  0
   25.2810    4.8600    1.5790 C   0  0  0  0  0  0  0  0  0  0  0  0
   26.8840    2.9110    1.4620 C   0  0  0  0  0  0  0  0  0  0  0  0
   28.4250    8.6810   -6.2650 C   0  0  0  0  0  0  0  0  0  0  0  0
   29.6650    9.3370   -6.1880 C   0  0  0  0  0  0  0  0  0  0  0  0
   29.8970   10.5750   -6.7280 C   0  0  0  0  0  0  0  0  0  0  0  0
   28.8730   11.2060   -7.4300 C   0  0  0  0  0  0  0  0  0  0  0  0
   27.6450   10.5640   -7.5520 C   0  0  0  0  0  0  0  0  0  0  0  0
   27.4290    9.3040   -7.0150 C   0  0  0  0  0  0  0  0  0  0  0  0
   30.6660    8.7260   -5.5220 F   0  0  0  0  0  0  0  0  0  0  0  0
   29.0840   12.5740   -8.0500 C   0  0  0  0  0  0  0  0  0  0  0  0
   29.9150   13.6350   -7.3750 C   0  0  0  0  0  0  0  0  0  0  0  0
   28.4380   13.7340   -7.3400 C   0  0  0  0  0  0  0  0  0  0  0  0
   29.4692    7.1481   -8.0164 H   0  0  0  0  0  0  0  0  0  0  0  0
   31.9062    3.6118   -9.6613 H   0  0  0  0  0  0  0  0  0  0  0  0
   30.9650   10.1724  -10.3003 H   0  0  0  0  0  0  0  0  0  0  0  0
   32.6915    9.7704  -11.9693 H   0  0  0  0  0  0  0  0  0  0  0  0
   33.6957    7.4909  -12.2726 H   0  0  0  0  0  0  0  0  0  0  0  0
   28.4416    4.0712   -5.6564 H   0  0  0  0  0  0  0  0  0  0  0  0
   25.8372    4.7818   -3.7797 H   0  0  0  0  0  0  0  0  0  0  0  0
   27.6029    3.1411   -3.5516 H   0  0  0  0  0  0  0  0  0  0  0  0
   28.4857    4.1902   -2.3947 H   0  0  0  0  0  0  0  0  0  0  0  0
   25.6626    3.0640   -2.0068 H   0  0  0  0  0  0  0  0  0  0  0  0
   27.1736    2.4642   -1.2122 H   0  0  0  0  0  0  0  0  0  0  0  0
   25.5604    6.2055   -0.2982 H   0  0  0  0  0  0  0  0  0  0  0  0
   24.7892    5.0965   -1.5042 H   0  0  0  0  0  0  0  0  0  0  0  0
   27.4634    6.5384   -1.8430 H   0  0  0  0  0  0  0  0  0  0  0  0
   25.9100    6.9830   -2.6309 H   0  0  0  0  0  0  0  0  0  0  0  0
   25.0697    3.1338    0.3673 H   0  0  0  0  0  0  0  0  0  0  0  0
   25.4329    4.5944    2.6356 H   0  0  0  0  0  0  0  0  0  0  0  0
   25.7627    5.8268    1.3711 H   0  0  0  0  0  0  0  0  0  0  0  0
   24.2034    4.9350    1.3711 H   0  0  0  0  0  0  0  0  0  0  0  0
   26.7280    3.0488    2.5421 H   0  0  0  0  0  0  0  0  0  0  0  0
   26.7229    1.8549    1.2001 H   0  0  0  0  0  0  0  0  0  0  0  0
   27.9122    3.2010    1.2001 H   0  0  0  0  0  0  0  0  0  0  0  0
   30.8760   11.0623   -6.6089 H   0  0  0  0  0  0  0  0  0  0  0  0
   26.8263   11.0676   -8.0869 H   0  0  0  0  0  0  0  0  0  0  0  0
   26.4685    8.7944   -7.1814 H   0  0  0  0  0  0  0  0  0  0  0  0
   29.0968   12.1387   -9.0601 H   0  0  0  0  0  0  0  0  0  0  0  0
   30.4706   13.3948   -6.4565 H   0  0  0  0  0  0  0  0  0  0  0  0
   30.7289   14.3021   -7.6953 H   0  0  0  0  0  0  0  0  0  0  0  0
   27.9270   14.5163   -7.9204 H   0  0  0  0  0  0  0  0  0  0  0  0
   27.6874   13.8324   -6.5419 H   0  0  0  0  0  0  0  0  0  0  0  0
 12 11  2  0
 12  7  1  0
 11 10  1  0
  7  6  1  0
  7  8  1  0
  6  5  2  0
 10  9  2  0
  5  4  1  0
  8  9  1  0
  8  4  2  0
  4  2  1  0
  2  3  2  0
  2  1  1  0
 34 30  1  0
 34 35  1  0
 34 36  1  0
 31 30  2  0
 31 32  1  0
  1 13  1  0
 30 29  1  0
 35 36  1  0
 32 27  2  0
 29 28  2  0
 13 17  1  0
 13 14  2  0
 27 28  1  0
 27 17  1  0
 28 33  1  0
 17 16  1  0
 14 15  1  0
 16 15  2  0
 15 18  1  0
 18 19  1  0
 18 23  1  0
 19 20  1  0
 23 22  1  0
 20 21  1  0
 22 21  1  0
 21 24  1  0
 24 26  1  0
 24 25  1  0
  1 37  1  0
  5 38  1  0
 10 39  1  0
 11 40  1  0
 12 41  1  0
 14 42  1  0
 18 43  1  0
 19 44  1  0
 19 45  1  0
 20 46  1  0
 20 47  1  0
 22 48  1  0
 22 49  1  0
 23 50  1  0
 23 51  1  0
 24 52  1  0
 25 53  1  0
 25 54  1  0
 25 55  1  0
 26 56  1  0
 26 57  1  0
 26 58  1  0
 29 59  1  0
 31 60  1  0
 32 61  1  0
 34 62  1  0
 35 63  1  0
 35 64  1  0
 36 65  1  0
 36 66  1  0
A    1
N01
A    2
C02
A    3
O03
A    4
C04
A    5
C05
A    6
N06
A    7
N07
A    8
C08
A    9
N09
A   10
C10
A   11
C11
A   12
C12
A   13
C13
A   14
C14
A   15
C15
A   16
N16
A   17
N17
A   18
C18
A   19
C19
A   20
C20
A   21
N21
A   22
C22
A   23
C23
A   24
C24
A   25
C25
A   26
C26
A   27
C27
A   28
C28
A   29
C29
A   30
C30
A   31
C31
A   32
C32
A   33
F33
A   34
C34
A   35
C35
A   36
C36
M  END
