4YPS_4F6_A_801
     RDKit          3D

 48 52  0  0  0  0  0  0  0  0999 V2000
  -20.4270  -45.9490  -14.8480 C   0  0  0  0  0  0  0  0  0  0  0  0
  -20.0520  -46.8820  -15.8130 C   0  0  0  0  0  0  0  0  0  0  0  0
  -18.9890  -47.7390  -15.5730 C   0  0  0  0  0  0  0  0  0  0  0  0
  -18.1650  -44.3580  -11.0930 C   0  0  0  0  0  0  0  0  0  0  0  0
  -17.4940  -41.6530  -11.3270 C   0  0  0  0  0  0  0  0  0  0  0  0
  -18.0530  -42.1390  -10.1440 C   0  0  0  0  0  0  0  0  0  0  0  0
  -18.3990  -43.4780  -10.0330 C   0  0  0  0  0  0  0  0  0  0  0  0
  -16.5940  -40.5180  -12.9810 C   0  0  0  0  0  0  0  0  0  0  0  0
  -16.7330  -41.8340  -13.3530 C   0  0  0  0  0  0  0  0  0  0  0  0
  -16.3880  -42.4920  -14.6610 C   0  0  0  0  0  0  0  0  0  0  0  0
  -16.2890  -41.6770  -15.7830 C   0  0  0  0  0  0  0  0  0  0  0  0
  -15.9710  -42.2060  -17.0360 C   0  0  0  0  0  0  0  0  0  0  0  0
  -15.7220  -43.5630  -17.1680 C   0  0  0  0  0  0  0  0  0  0  0  0
  -15.8100  -44.3920  -16.0590 C   0  0  0  0  0  0  0  0  0  0  0  0
  -16.1390  -43.8660  -14.8080 C   0  0  0  0  0  0  0  0  0  0  0  0
  -15.4450  -44.0600  -18.3190 C   0  0  0  0  0  0  0  0  0  0  0  0
  -15.2000  -44.4760  -19.3690 N   0  0  0  0  0  0  0  0  0  0  0  0
  -17.2960  -42.4980  -12.3290 N   0  0  0  0  0  0  0  0  0  0  0  0
  -17.6290  -43.8500  -12.2220 N   0  0  0  0  0  0  0  0  0  0  0  0
  -17.0710  -40.4260  -11.7220 N   0  0  0  0  0  0  0  0  0  0  0  0
  -18.5190  -45.7310  -11.0880 N   0  0  0  0  0  0  0  0  0  0  0  0
  -19.5790  -46.2390  -10.2110 C   0  0  0  0  0  0  0  0  0  0  0  0
  -19.4690  -47.7400  -10.0000 C   0  0  0  0  0  0  0  0  0  0  0  0
  -18.1190  -48.1180  -10.1320 O   0  0  0  0  0  0  0  0  0  0  0  0
  -17.7610  -48.0620  -11.4960 C   0  0  0  0  0  0  0  0  0  0  0  0
  -17.9080  -46.6540  -12.0730 C   0  0  0  0  0  0  0  0  0  0  0  0
  -18.6790  -46.7180  -13.3590 C   0  0  0  0  0  0  0  0  0  0  0  0
  -19.7480  -45.8620  -13.6280 C   0  0  0  0  0  0  0  0  0  0  0  0
  -21.4600  -45.1180  -15.1010 F   0  0  0  0  0  0  0  0  0  0  0  0
  -18.3130  -47.6450  -14.3510 C   0  0  0  0  0  0  0  0  0  0  0  0
  -20.5996  -46.9384  -16.7653 H   0  0  0  0  0  0  0  0  0  0  0  0
  -18.6829  -48.4782  -16.3279 H   0  0  0  0  0  0  0  0  0  0  0  0
  -18.2198  -41.4579   -9.2965 H   0  0  0  0  0  0  0  0  0  0  0  0
  -18.8600  -43.8489   -9.1057 H   0  0  0  0  0  0  0  0  0  0  0  0
  -16.1767  -39.7018  -13.5890 H   0  0  0  0  0  0  0  0  0  0  0  0
  -16.4643  -40.5958  -15.6821 H   0  0  0  0  0  0  0  0  0  0  0  0
  -15.9183  -41.5475  -17.9155 H   0  0  0  0  0  0  0  0  0  0  0  0
  -15.6195  -45.4701  -16.1658 H   0  0  0  0  0  0  0  0  0  0  0  0
  -16.2034  -44.5309  -13.9340 H   0  0  0  0  0  0  0  0  0  0  0  0
  -19.5048  -45.7363   -9.2354 H   0  0  0  0  0  0  0  0  0  0  0  0
  -20.5469  -46.0322  -10.6910 H   0  0  0  0  0  0  0  0  0  0  0  0
  -19.8291  -47.9994   -8.9935 H   0  0  0  0  0  0  0  0  0  0  0  0
  -20.0803  -48.2686  -10.7463 H   0  0  0  0  0  0  0  0  0  0  0  0
  -18.4106  -48.7464  -12.0614 H   0  0  0  0  0  0  0  0  0  0  0  0
  -16.7037  -48.3534  -11.5804 H   0  0  0  0  0  0  0  0  0  0  0  0
  -16.9115  -46.2449  -12.2955 H   0  0  0  0  0  0  0  0  0  0  0  0
  -20.0572  -45.1177  -12.8794 H   0  0  0  0  0  0  0  0  0  0  0  0
  -17.4657  -48.3200  -14.1599 H   0  0  0  0  0  0  0  0  0  0  0  0
 17 16  3  0
 16 13  1  0
 13 12  1  0
 13 14  2  0
 12 11  2  0
 14 15  1  0
  2  3  1  0
  2  1  2  0
 11 10  1  0
  3 30  2  0
 29  1  1  0
  1 28  1  0
 15 10  2  0
 10  9  1  0
 30 27  1  0
 28 27  2  0
 27 26  1  0
  9  8  2  0
  9 18  1  0
  8 20  1  0
 18 19  1  0
 18  5  1  0
 19  4  2  0
 26 25  1  0
 26 21  1  0
 20  5  2  0
 25 24  1  0
  5  6  1  0
  4 21  1  0
  4  7  1  0
 21 22  1  0
 22 23  1  0
  6  7  2  0
 24 23  1  0
  2 31  1  0
  3 32  1  0
  6 33  1  0
  7 34  1  0
  8 35  1  0
 11 36  1  0
 12 37  1  0
 14 38  1  0
 15 39  1  0
 22 40  1  0
 22 41  1  0
 23 42  1  0
 23 43  1  0
 25 44  1  0
 25 45  1  0
 26 46  1  0
 28 47  1  0
 30 48  1  0
A    1
C1
A    2
C2
A    3
C3
A    4
C11
A    5
C12
A    6
C13
A    7
C14
A    8
C15
A    9
C16
A   10
C17
A   11
C18
A   12
C19
A   13
C20
A   14
C21
A   15
C22
A   16
C23
A   17
N5
A   18
N3
A   19
N2
A   20
N4
A   21
N1
A   22
C10
A   23
C9
A   24
O
A   25
C8
A   26
C7
A   27
C5
A   28
C6
A   29
F
A   30
C4
M  END
