4YPX_4FG_A_301
     RDKit          3D

 17 17  0  0  0  0  0  0  0  0999 V2000
  -21.1710   40.7010   -8.4360 C   0  0  0  0  0  0  0  0  0  0  0  0
  -20.0510   40.3120   -9.1350 C   0  0  0  0  0  0  0  0  0  0  0  0
  -19.8230   42.2800   -7.1850 C   0  0  0  0  0  0  0  0  0  0  0  0
  -21.0750   41.6990   -7.4440 C   0  0  0  0  0  0  0  0  0  0  0  0
  -18.8160   40.9470   -8.8130 C   0  0  0  0  0  0  0  0  0  0  0  0
  -22.2430   42.1540   -6.6630 C   0  0  0  0  0  0  0  0  0  0  0  0
  -18.6950   41.9410   -7.8290 N   0  0  0  0  0  0  0  0  0  0  0  0
  -17.6610   40.6080   -9.4690 N   0  0  0  0  0  0  0  0  0  0  0  0
  -22.1380   43.3520   -5.9970 N   0  0  0  0  0  0  0  0  0  0  0  0
  -23.2940   41.5080   -6.5870 O   0  0  0  0  0  0  0  0  0  0  0  0
  -22.1427   40.2327   -8.6514 H   0  0  0  0  0  0  0  0  0  0  0  0
  -20.1069   39.5382   -9.9148 H   0  0  0  0  0  0  0  0  0  0  0  0
  -19.7632   43.0579   -6.4096 H   0  0  0  0  0  0  0  0  0  0  0  0
  -16.8175   40.3604   -8.9322 H   0  0  0  0  0  0  0  0  0  0  0  0
  -17.6367   40.6009  -10.4987 H   0  0  0  0  0  0  0  0  0  0  0  0
  -22.1364   43.3703   -4.9672 H   0  0  0  0  0  0  0  0  0  0  0  0
  -22.0609   44.2313   -6.5278 H   0  0  0  0  0  0  0  0  0  0  0  0
  8  5  1  0
  2  5  1  0
  2  1  2  0
  5  7  2  0
  1  4  1  0
  7  3  1  0
  4  3  2  0
  4  6  1  0
  6 10  2  0
  6  9  1  0
  1 11  1  0
  2 12  1  0
  3 13  1  0
  8 14  1  0
  8 15  1  0
  9 16  1  0
  9 17  1  0
A    1
C2
A    2
C3
A    3
C5
A    4
C1
A    5
C4
A    6
C
A    7
N2
A    8
N1
A    9
N
A   10
O
M  END
