4YPZ_4FL_A_301
     RDKit          3D

 18 19  0  0  0  0  0  0  0  0999 V2000
  -21.7620   40.3050   -8.6110 C   0  0  0  0  0  0  0  0  0  0  0  0
  -20.5350   41.9400   -7.3140 C   0  0  0  0  0  0  0  0  0  0  0  0
  -22.8760   40.5760   -7.8120 C   0  0  0  0  0  0  0  0  0  0  0  0
  -21.6960   42.1480   -6.5670 C   0  0  0  0  0  0  0  0  0  0  0  0
  -17.9690   39.8000  -10.5800 C   0  0  0  0  0  0  0  0  0  0  0  0
  -17.3270   40.8370   -9.9050 C   0  0  0  0  0  0  0  0  0  0  0  0
  -20.5830   41.0000   -8.3440 C   0  0  0  0  0  0  0  0  0  0  0  0
  -19.3740   40.7520   -9.1160 C   0  0  0  0  0  0  0  0  0  0  0  0
  -22.8590   41.4800   -6.7960 N   0  0  0  0  0  0  0  0  0  0  0  0
  -19.2720   39.7520  -10.0730 N   0  0  0  0  0  0  0  0  0  0  0  0
  -18.1940   41.4380   -8.9910 N   0  0  0  0  0  0  0  0  0  0  0  0
  -21.8136   39.5668   -9.4248 H   0  0  0  0  0  0  0  0  0  0  0  0
  -19.6126   42.4989   -7.0976 H   0  0  0  0  0  0  0  0  0  0  0  0
  -23.8107   40.0325   -8.0143 H   0  0  0  0  0  0  0  0  0  0  0  0
  -21.6692   42.8881   -5.7536 H   0  0  0  0  0  0  0  0  0  0  0  0
  -17.5377   39.1500  -11.3555 H   0  0  0  0  0  0  0  0  0  0  0  0
  -16.2824   41.1396  -10.0697 H   0  0  0  0  0  0  0  0  0  0  0  0
  -20.0154   39.0979  -10.3565 H   0  0  0  0  0  0  0  0  0  0  0  0
  5 10  1  0
  5  6  2  0
 10  8  1  0
  6 11  1  0
  8 11  2  0
  8  7  1  0
  1  7  2  0
  1  3  1  0
  7  2  1  0
  3  9  2  0
  2  4  2  0
  9  4  1  0
  1 12  1  0
  2 13  1  0
  3 14  1  0
  4 15  1  0
  5 16  1  0
  6 17  1  0
 10 18  1  0
A    1
C4
A    2
C7
A    3
C5
A    4
C6
A    5
C1
A    6
C
A    7
C3
A    8
C2
A    9
N2
A   10
N
A   11
N1
M  END
