4YQ0_4FM_A_301
     RDKit          3D

 26 27  0  0  0  0  0  0  0  0999 V2000
  -16.7160   40.1370  -11.2400 C   0  0  0  0  0  0  0  0  0  0  0  0
  -19.1340   40.1340  -11.4310 C   0  0  0  0  0  0  0  0  0  0  0  0
  -16.5970   39.8340  -12.5900 C   0  0  0  0  0  0  0  0  0  0  0  0
  -19.0220   39.8260  -12.8120 C   0  0  0  0  0  0  0  0  0  0  0  0
  -17.9620   40.2930  -10.6640 C   0  0  0  0  0  0  0  0  0  0  0  0
  -17.7530   39.7000  -13.3410 C   0  0  0  0  0  0  0  0  0  0  0  0
  -21.2870   41.5230   -7.5790 C   0  0  0  0  0  0  0  0  0  0  0  0
  -22.0650   42.4010   -6.6900 C   0  0  0  0  0  0  0  0  0  0  0  0
  -19.8690   41.6640   -7.9140 C   0  0  0  0  0  0  0  0  0  0  0  0
  -18.0150   40.6600   -9.2070 C   0  0  0  0  0  0  0  0  0  0  0  0
  -22.1170   40.5430   -7.9980 N   0  0  0  0  0  0  0  0  0  0  0  0
  -23.3170   41.8720   -6.6370 N   0  0  0  0  0  0  0  0  0  0  0  0
  -21.6110   43.5090   -6.0610 N   0  0  0  0  0  0  0  0  0  0  0  0
  -19.4030   40.6820   -8.7500 N   0  0  0  0  0  0  0  0  0  0  0  0
  -19.1650   42.5750   -7.4640 O   0  0  0  0  0  0  0  0  0  0  0  0
  -23.2970   40.7570   -7.4430 O   0  0  0  0  0  0  0  0  0  0  0  0
  -17.5370   39.3960  -15.0360 Cl  0  0  0  0  0  0  0  0  0  0  0  0
  -15.8116   40.2536  -10.6248 H   0  0  0  0  0  0  0  0  0  0  0  0
  -20.1238   40.2473  -10.9647 H   0  0  0  0  0  0  0  0  0  0  0  0
  -15.6074   39.7034  -13.0523 H   0  0  0  0  0  0  0  0  0  0  0  0
  -19.9157   39.6923  -13.4393 H   0  0  0  0  0  0  0  0  0  0  0  0
  -17.4505   39.9181   -8.6232 H   0  0  0  0  0  0  0  0  0  0  0  0
  -17.5721   41.6573   -9.0683 H   0  0  0  0  0  0  0  0  0  0  0  0
  -21.5954   43.5470   -5.0318 H   0  0  0  0  0  0  0  0  0  0  0  0
  -21.2809   44.3147   -6.6112 H   0  0  0  0  0  0  0  0  0  0  0  0
  -20.0470   39.9418   -9.0635 H   0  0  0  0  0  0  0  0  0  0  0  0
 17  6  1  0
  6  4  2  0
  6  3  1  0
  4  2  1  0
  3  1  2  0
  2  5  2  0
  1  5  1  0
  5 10  1  0
 10 14  1  0
 14  9  1  0
 11  7  2  0
 11 16  1  0
  9  7  1  0
  9 15  2  0
  7  8  1  0
 16 12  1  0
  8 12  2  0
  8 13  1  0
  1 18  1  0
  2 19  1  0
  3 20  1  0
  4 21  1  0
 10 22  1  0
 10 23  1  0
 13 24  1  0
 13 25  1  0
 14 26  1  0
A    1
C5
A    2
C9
A    3
C6
A    4
C8
A    5
C4
A    6
C7
A    7
C1
A    8
C
A    9
C2
A   10
C3
A   11
N2
A   12
N1
A   13
N
A   14
N3
A   15
O1
A   16
O
A   17
CL
M  END
