4YQ1_4FN_A_301
     RDKit          3D

 63 66  0  0  0  0  0  0  0  0999 V2000
   43.9570    6.2230    8.7160 N   0  0  0  0  0  0  0  0  0  0  0  0
   49.6860    8.7510    7.8270 C   0  0  0  0  0  0  0  0  0  0  0  0
   50.1020    9.5790    8.8740 C   0  0  0  0  0  0  0  0  0  0  0  0
   49.1960   10.0510    9.8260 C   0  0  0  0  0  0  0  0  0  0  0  0
   47.8580    9.7090    9.7380 C   0  0  0  0  0  0  0  0  0  0  0  0
   47.4380    8.8990    8.6900 C   0  0  0  0  0  0  0  0  0  0  0  0
   46.0010    8.5860    8.5290 C   0  0  0  0  0  0  0  0  0  0  0  0
   41.7400    6.9210    9.6080 C   0  0  0  0  0  0  0  0  0  0  0  0
   41.4470    6.8860   12.1030 C   0  0  0  0  0  0  0  0  0  0  0  0
   43.7220    6.4960   11.1340 C   0  0  0  0  0  0  0  0  0  0  0  0
   45.2460    5.0600    6.5700 C   0  0  0  0  0  0  0  0  0  0  0  0
   46.0950    4.4460    5.5930 C   0  0  0  0  0  0  0  0  0  0  0  0
   46.2570    3.0890    5.5160 C   0  0  0  0  0  0  0  0  0  0  0  0
   44.1280    1.7910    8.1280 C   0  0  0  0  0  0  0  0  0  0  0  0
   48.3330    8.4100    7.7380 C   0  0  0  0  0  0  0  0  0  0  0  0
   44.6750    2.8650    7.4260 C   0  0  0  0  0  0  0  0  0  0  0  0
   44.5690    4.2730    7.4710 C   0  0  0  0  0  0  0  0  0  0  0  0
   45.5400    2.2630    6.4340 C   0  0  0  0  0  0  0  0  0  0  0  0
   43.7750    4.8710    8.5600 C   0  0  0  0  0  0  0  0  0  0  0  0
   40.9840    7.5090   10.7940 C   0  0  0  0  0  0  0  0  0  0  0  0
   42.9320    7.0940   12.2940 C   0  0  0  0  0  0  0  0  0  0  0  0
   43.2700    7.0190    9.7590 C   0  0  0  0  0  0  0  0  0  0  0  0
   50.4770    6.6730    6.6020 C   0  0  0  0  0  0  0  0  0  0  0  0
   52.0490    8.4410    7.2680 C   0  0  0  0  0  0  0  0  0  0  0  0
   50.3970    8.8930    5.4660 C   0  0  0  0  0  0  0  0  0  0  0  0
   43.7350    8.5130    9.5480 C   0  0  0  0  0  0  0  0  0  0  0  0
   50.6270    8.1890    6.8080 C   0  0  0  0  0  0  0  0  0  0  0  0
   45.4850    0.9120    6.5730 N   0  0  0  0  0  0  0  0  0  0  0  0
   45.1870    8.7680    9.6630 N   0  0  0  0  0  0  0  0  0  0  0  0
   45.5310    8.1800    7.4660 O   0  0  0  0  0  0  0  0  0  0  0  0
   43.0290    4.1600    9.2410 O   0  0  0  0  0  0  0  0  0  0  0  0
   44.6350    0.6440    7.5990 O   0  0  0  0  0  0  0  0  0  0  0  0
   44.6029    6.7073    8.0764 H   0  0  0  0  0  0  0  0  0  0  0  0
   51.1619    9.8637    8.9491 H   0  0  0  0  0  0  0  0  0  0  0  0
   49.5460   10.6950   10.6462 H   0  0  0  0  0  0  0  0  0  0  0  0
   47.1381   10.0727   10.4860 H   0  0  0  0  0  0  0  0  0  0  0  0
   41.4423    7.4640    8.6989 H   0  0  0  0  0  0  0  0  0  0  0  0
   41.4833    5.8528    9.5519 H   0  0  0  0  0  0  0  0  0  0  0  0
   40.9057    7.3547   12.9381 H   0  0  0  0  0  0  0  0  0  0  0  0
   41.2404    5.8059   12.0749 H   0  0  0  0  0  0  0  0  0  0  0  0
   43.5954    5.4034   11.1513 H   0  0  0  0  0  0  0  0  0  0  0  0
   44.7729    6.7925   11.2671 H   0  0  0  0  0  0  0  0  0  0  0  0
   45.1366    6.1542    6.5990 H   0  0  0  0  0  0  0  0  0  0  0  0
   46.6351    5.0868    4.8805 H   0  0  0  0  0  0  0  0  0  0  0  0
   46.9249    2.6445    4.7634 H   0  0  0  0  0  0  0  0  0  0  0  0
   43.4134    1.8590    8.9615 H   0  0  0  0  0  0  0  0  0  0  0  0
   47.9771    7.7614    6.9240 H   0  0  0  0  0  0  0  0  0  0  0  0
   41.1608    8.5941   10.8304 H   0  0  0  0  0  0  0  0  0  0  0  0
   39.9126    7.2956   10.6655 H   0  0  0  0  0  0  0  0  0  0  0  0
   43.2455    6.6093   13.2303 H   0  0  0  0  0  0  0  0  0  0  0  0
   43.1320    8.1749   12.3336 H   0  0  0  0  0  0  0  0  0  0  0  0
   50.4275    6.1731    7.5806 H   0  0  0  0  0  0  0  0  0  0  0  0
   49.5543    6.4690    6.0390 H   0  0  0  0  0  0  0  0  0  0  0  0
   51.3418    6.2921    6.0390 H   0  0  0  0  0  0  0  0  0  0  0  0
   52.0831    8.4470    8.3675 H   0  0  0  0  0  0  0  0  0  0  0  0
   52.7047    7.6451    6.8852 H   0  0  0  0  0  0  0  0  0  0  0  0
   52.3913    9.4138    6.8852 H   0  0  0  0  0  0  0  0  0  0  0  0
   50.0600    9.9245    5.6461 H   0  0  0  0  0  0  0  0  0  0  0  0
   51.3367    8.9088    4.8944 H   0  0  0  0  0  0  0  0  0  0  0  0
   49.6292    8.3509    4.8944 H   0  0  0  0  0  0  0  0  0  0  0  0
   43.2250    9.1325   10.3004 H   0  0  0  0  0  0  0  0  0  0  0  0
   43.4750    8.7577    8.5076 H   0  0  0  0  0  0  0  0  0  0  0  0
   45.5959    9.0736   10.5576 H   0  0  0  0  0  0  0  0  0  0  0  0
 25 27  1  0
 13 12  2  0
 13 18  1  0
 12 11  1  0
 18 28  2  0
 18 16  1  0
 11 17  2  0
 28 32  1  0
 23 27  1  0
 27 24  1  0
 27  2  1  0
 16 17  1  0
 16 14  2  0
 30  7  2  0
 17 19  1  0
 32 14  1  0
 15  2  2  0
 15  6  1  0
  2  3  1  0
  7  6  1  0
  7 29  1  0
 19  1  1  0
 19 31  2  0
  6  5  2  0
  1 22  1  0
  3  4  2  0
 26 29  1  0
 26 22  1  0
  8 22  1  0
  8 20  1  0
  5  4  1  0
 22 10  1  0
 20  9  1  0
 10 21  1  0
  9 21  1  0
  1 33  1  0
  3 34  1  0
  4 35  1  0
  5 36  1  0
  8 37  1  0
  8 38  1  0
  9 39  1  0
  9 40  1  0
 10 41  1  0
 10 42  1  0
 11 43  1  0
 12 44  1  0
 13 45  1  0
 14 46  1  0
 15 47  1  0
 20 48  1  0
 20 49  1  0
 21 50  1  0
 21 51  1  0
 23 52  1  0
 23 53  1  0
 23 54  1  0
 24 55  1  0
 24 56  1  0
 24 57  1  0
 25 58  1  0
 25 59  1  0
 25 60  1  0
 26 61  1  0
 26 62  1  0
 29 63  1  0
A    1
N1
A    2
C4
A    3
C5
A    4
C6
A    5
C7
A    6
C8
A    7
C10
A    8
C13
A    9
C15
A   10
C17
A   11
C20
A   12
C21
A   13
C22
A   14
C24
A   15
C9
A   16
C25
A   17
C19
A   18
C23
A   19
C18
A   20
C14
A   21
C16
A   22
C12
A   23
C
A   24
C2
A   25
C3
A   26
C11
A   27
C1
A   28
N2
A   29
N
A   30
O
A   31
O1
A   32
O2
M  END
