4YQ4_4G3_A_301
     RDKit          3D

 31 32  0  0  0  0  0  0  0  0999 V2000
  -19.6330   41.2170  -13.6100 C   0  0  0  0  0  0  0  0  0  0  0  0
  -21.1370   40.5190   -8.5210 C   0  0  0  0  0  0  0  0  0  0  0  0
  -19.2180   40.2760  -12.6570 C   0  0  0  0  0  0  0  0  0  0  0  0
  -18.9140   42.3870  -13.8160 C   0  0  0  0  0  0  0  0  0  0  0  0
  -20.0470   40.1030   -9.2710 C   0  0  0  0  0  0  0  0  0  0  0  0
  -17.3040   41.6440  -12.1020 C   0  0  0  0  0  0  0  0  0  0  0  0
  -19.6690   41.8510   -7.1390 C   0  0  0  0  0  0  0  0  0  0  0  0
  -20.9550   41.4050   -7.4540 C   0  0  0  0  0  0  0  0  0  0  0  0
  -18.0620   40.5030  -11.9000 C   0  0  0  0  0  0  0  0  0  0  0  0
  -17.7580   42.5880  -13.0650 C   0  0  0  0  0  0  0  0  0  0  0  0
  -18.7790   40.5960   -8.8750 C   0  0  0  0  0  0  0  0  0  0  0  0
  -22.1200   41.8700   -6.6970 C   0  0  0  0  0  0  0  0  0  0  0  0
  -17.6560   39.5460  -10.7950 C   0  0  0  0  0  0  0  0  0  0  0  0
  -18.5840   41.4670   -7.8050 N   0  0  0  0  0  0  0  0  0  0  0  0
  -21.9930   43.1030   -6.0750 N   0  0  0  0  0  0  0  0  0  0  0  0
  -17.6370   40.3130   -9.5390 N   0  0  0  0  0  0  0  0  0  0  0  0
  -23.1760   41.2310   -6.6200 O   0  0  0  0  0  0  0  0  0  0  0  0
  -17.0100   43.7050  -13.1810 O   0  0  0  0  0  0  0  0  0  0  0  0
  -20.5400   41.0259  -14.2023 H   0  0  0  0  0  0  0  0  0  0  0  0
  -22.1448   40.1521   -8.7653 H   0  0  0  0  0  0  0  0  0  0  0  0
  -19.8022   39.3567  -12.5035 H   0  0  0  0  0  0  0  0  0  0  0  0
  -19.2478   43.1339  -14.5513 H   0  0  0  0  0  0  0  0  0  0  0  0
  -20.1611   39.4249  -10.1295 H   0  0  0  0  0  0  0  0  0  0  0  0
  -16.3776   41.8157  -11.5344 H   0  0  0  0  0  0  0  0  0  0  0  0
  -19.5483   42.5528   -6.3006 H   0  0  0  0  0  0  0  0  0  0  0  0
  -18.3828   38.7234  -10.7231 H   0  0  0  0  0  0  0  0  0  0  0  0
  -16.6674   39.1096  -11.0006 H   0  0  0  0  0  0  0  0  0  0  0  0
  -21.9868   43.1629   -5.0468 H   0  0  0  0  0  0  0  0  0  0  0  0
  -21.9048   43.9588   -6.6413 H   0  0  0  0  0  0  0  0  0  0  0  0
  -16.7370   40.6398   -9.1595 H   0  0  0  0  0  0  0  0  0  0  0  0
  -16.6946   44.1760  -12.3694 H   0  0  0  0  0  0  0  0  0  0  0  0
  4  1  2  0
  4 10  1  0
  1  3  1  0
 18 10  1  0
 10  6  2  0
  3  9  2  0
  6  9  1  0
  9 13  1  0
 13 16  1  0
 16 11  1  0
  5 11  1  0
  5  2  2  0
 11 14  2  0
  2  8  1  0
 14  7  1  0
  8  7  2  0
  8 12  1  0
 12 17  2  0
 12 15  1  0
  1 19  1  0
  2 20  1  0
  3 21  1  0
  4 22  1  0
  5 23  1  0
  6 24  1  0
  7 25  1  0
 13 26  1  0
 13 27  1  0
 15 28  1  0
 15 29  1  0
 16 30  1  0
 18 31  1  0
A    1
C8
A    2
C2
A    3
C7
A    4
C9
A    5
C3
A    6
C11
A    7
C12
A    8
C1
A    9
C6
A   10
C10
A   11
C4
A   12
C
A   13
C5
A   14
N2
A   15
N
A   16
N1
A   17
O
A   18
O1
M  END
