4YQ5_4G0_A_301
     RDKit          3D

 38 39  0  0  0  0  0  0  0  0999 V2000
  -19.6180   41.6370  -13.5680 C   0  0  0  0  0  0  0  0  0  0  0  0
  -21.1520   40.6960   -8.4350 C   0  0  0  0  0  0  0  0  0  0  0  0
  -19.2450   40.6700  -12.6280 C   0  0  0  0  0  0  0  0  0  0  0  0
  -18.8470   42.7780  -13.7550 C   0  0  0  0  0  0  0  0  0  0  0  0
  -20.0560   40.2760   -9.1560 C   0  0  0  0  0  0  0  0  0  0  0  0
  -17.3000   41.9960  -12.0440 C   0  0  0  0  0  0  0  0  0  0  0  0
  -19.6880   42.0440   -7.0860 C   0  0  0  0  0  0  0  0  0  0  0  0
  -20.9830   41.6010   -7.3800 C   0  0  0  0  0  0  0  0  0  0  0  0
  -18.0860   40.8590  -11.8670 C   0  0  0  0  0  0  0  0  0  0  0  0
  -17.6820   42.9690  -12.9970 C   0  0  0  0  0  0  0  0  0  0  0  0
  -18.7650   40.7790   -8.7940 C   0  0  0  0  0  0  0  0  0  0  0  0
  -22.1480   42.0550   -6.6080 C   0  0  0  0  0  0  0  0  0  0  0  0
  -17.2490   45.1510  -14.1810 C   0  0  0  0  0  0  0  0  0  0  0  0
  -15.6580   44.3770  -12.4520 C   0  0  0  0  0  0  0  0  0  0  0  0
  -17.6640   39.8570  -10.8080 C   0  0  0  0  0  0  0  0  0  0  0  0
  -18.5880   41.6660   -7.7440 N   0  0  0  0  0  0  0  0  0  0  0  0
  -22.0170   43.2520   -5.8970 N   0  0  0  0  0  0  0  0  0  0  0  0
  -17.6150   40.5440   -9.5160 N   0  0  0  0  0  0  0  0  0  0  0  0
  -16.9020   44.1150  -13.1930 N   0  0  0  0  0  0  0  0  0  0  0  0
  -23.1980   41.4170   -6.5540 O   0  0  0  0  0  0  0  0  0  0  0  0
  -20.5306   41.4926  -14.1649 H   0  0  0  0  0  0  0  0  0  0  0  0
  -22.1554   40.3221   -8.6869 H   0  0  0  0  0  0  0  0  0  0  0  0
  -19.8584   39.7677  -12.4882 H   0  0  0  0  0  0  0  0  0  0  0  0
  -19.1501   43.5312  -14.4972 H   0  0  0  0  0  0  0  0  0  0  0  0
  -20.1700   39.5697   -9.9915 H   0  0  0  0  0  0  0  0  0  0  0  0
  -16.3875   42.1361  -11.4459 H   0  0  0  0  0  0  0  0  0  0  0  0
  -19.5673   42.7537   -6.2543 H   0  0  0  0  0  0  0  0  0  0  0  0
  -17.5563   46.0685  -13.6577 H   0  0  0  0  0  0  0  0  0  0  0  0
  -16.3733   45.3643  -14.8115 H   0  0  0  0  0  0  0  0  0  0  0  0
  -18.0766   44.7938  -14.8115 H   0  0  0  0  0  0  0  0  0  0  0  0
  -15.8591   44.3347  -11.3714 H   0  0  0  0  0  0  0  0  0  0  0  0
  -14.9074   43.6172  -12.7154 H   0  0  0  0  0  0  0  0  0  0  0  0
  -15.2776   45.3750  -12.7154 H   0  0  0  0  0  0  0  0  0  0  0  0
  -18.3925   39.0340  -10.7639 H   0  0  0  0  0  0  0  0  0  0  0  0
  -16.6754   39.4414  -11.0531 H   0  0  0  0  0  0  0  0  0  0  0  0
  -22.0181   43.2420   -4.8670 H   0  0  0  0  0  0  0  0  0  0  0  0
  -21.9194   44.1437   -6.4033 H   0  0  0  0  0  0  0  0  0  0  0  0
  -16.7078   40.8562   -9.1413 H   0  0  0  0  0  0  0  0  0  0  0  0
 13 19  1  0
  4  1  2  0
  4 10  1  0
  1  3  1  0
 19 10  1  0
 19 14  1  0
 10  6  2  0
  3  9  2  0
  6  9  1  0
  9 15  1  0
 15 18  1  0
 18 11  1  0
  5 11  1  0
  5  2  2  0
 11 16  2  0
  2  8  1  0
 16  7  1  0
  8  7  2  0
  8 12  1  0
 12 20  2  0
 12 17  1  0
  1 21  1  0
  2 22  1  0
  3 23  1  0
  4 24  1  0
  5 25  1  0
  6 26  1  0
  7 27  1  0
 13 28  1  0
 13 29  1  0
 13 30  1  0
 14 31  1  0
 14 32  1  0
 14 33  1  0
 15 34  1  0
 15 35  1  0
 17 36  1  0
 17 37  1  0
 18 38  1  0
A    1
C4
A    2
C10
A    3
C5
A    4
C3
A    5
C9
A    6
C14
A    7
C12
A    8
C11
A    9
C6
A   10
C2
A   11
C8
A   12
C13
A   13
C
A   14
C1
A   15
C7
A   16
N2
A   17
N3
A   18
N1
A   19
N
A   20
O
M  END
