4YQ6_4FX_A_301
     RDKit          3D

 34 35  0  0  0  0  0  0  0  0999 V2000
  -19.7140   40.9180  -13.5370 C   0  0  0  0  0  0  0  0  0  0  0  0
  -19.0530   42.0960  -13.8720 C   0  0  0  0  0  0  0  0  0  0  0  0
  -21.0550   40.4920   -8.4610 C   0  0  0  0  0  0  0  0  0  0  0  0
  -19.2320   40.1160  -12.5170 C   0  0  0  0  0  0  0  0  0  0  0  0
  -17.9070   42.4730  -13.1850 C   0  0  0  0  0  0  0  0  0  0  0  0
  -19.8850   40.0920   -9.1210 C   0  0  0  0  0  0  0  0  0  0  0  0
  -19.7120   42.0280   -7.1740 C   0  0  0  0  0  0  0  0  0  0  0  0
  -20.9580   41.4790   -7.4740 C   0  0  0  0  0  0  0  0  0  0  0  0
  -18.0880   40.4910  -11.8310 C   0  0  0  0  0  0  0  0  0  0  0  0
  -17.4260   41.6720  -12.1580 C   0  0  0  0  0  0  0  0  0  0  0  0
  -18.6760   40.6880   -8.7700 C   0  0  0  0  0  0  0  0  0  0  0  0
  -22.1530   41.9600   -6.7260 C   0  0  0  0  0  0  0  0  0  0  0  0
  -15.7490   43.2980  -11.6020 C   0  0  0  0  0  0  0  0  0  0  0  0
  -17.5740   39.6320  -10.7250 C   0  0  0  0  0  0  0  0  0  0  0  0
  -18.6050   41.6300   -7.8170 N   0  0  0  0  0  0  0  0  0  0  0  0
  -22.1140   43.2120   -6.0160 N   0  0  0  0  0  0  0  0  0  0  0  0
  -17.4660   40.2750   -9.4410 N   0  0  0  0  0  0  0  0  0  0  0  0
  -23.1680   41.2760   -6.7160 O   0  0  0  0  0  0  0  0  0  0  0  0
  -16.2900   42.0270  -11.4610 O   0  0  0  0  0  0  0  0  0  0  0  0
  -20.6217   40.6235  -14.0841 H   0  0  0  0  0  0  0  0  0  0  0  0
  -19.4396   42.7302  -14.6834 H   0  0  0  0  0  0  0  0  0  0  0  0
  -22.0261   40.0409   -8.7129 H   0  0  0  0  0  0  0  0  0  0  0  0
  -19.7548   39.1851  -12.2522 H   0  0  0  0  0  0  0  0  0  0  0  0
  -17.3825   43.4020  -13.4531 H   0  0  0  0  0  0  0  0  0  0  0  0
  -19.9210   39.3198   -9.9036 H   0  0  0  0  0  0  0  0  0  0  0  0
  -19.6359   42.8016   -6.3957 H   0  0  0  0  0  0  0  0  0  0  0  0
  -15.5649   43.7305  -10.6075 H   0  0  0  0  0  0  0  0  0  0  0  0
  -14.8004   43.2334  -12.1551 H   0  0  0  0  0  0  0  0  0  0  0  0
  -16.4532   43.9369  -12.1551 H   0  0  0  0  0  0  0  0  0  0  0  0
  -18.2537   38.7737  -10.6183 H   0  0  0  0  0  0  0  0  0  0  0  0
  -16.5491   39.3524  -11.0104 H   0  0  0  0  0  0  0  0  0  0  0  0
  -22.1137   43.2202   -4.9860 H   0  0  0  0  0  0  0  0  0  0  0  0
  -22.0864   44.0995   -6.5381 H   0  0  0  0  0  0  0  0  0  0  0  0
  -16.5446   40.4370   -9.0101 H   0  0  0  0  0  0  0  0  0  0  0  0
  2  1  2  0
  2  5  1  0
  1  4  1  0
  5 10  2  0
  4  9  2  0
 10  9  1  0
 10 19  1  0
  9 14  1  0
 13 19  1  0
 14 17  1  0
 17 11  1  0
  6 11  1  0
  6  3  2  0
 11 15  2  0
  3  8  1  0
 15  7  1  0
  8  7  2  0
  8 12  1  0
 12 18  2  0
 12 16  1  0
  1 20  1  0
  2 21  1  0
  3 22  1  0
  4 23  1  0
  5 24  1  0
  6 25  1  0
  7 26  1  0
 13 27  1  0
 13 28  1  0
 13 29  1  0
 14 30  1  0
 14 31  1  0
 16 32  1  0
 16 33  1  0
 17 34  1  0
A    1
C6
A    2
C5
A    3
C13
A    4
C7
A    5
C4
A    6
C12
A    7
C15
A    8
C14
A    9
C8
A   10
C3
A   11
C11
A   12
C17
A   13
C1
A   14
C9
A   15
N16
A   16
N18
A   17
N10
A   18
O19
A   19
O2
M  END
