4YQ8_4FV_A_301
     RDKit          3D

 27 28  0  0  0  0  0  0  0  0999 V2000
  -20.9210   41.2590   -7.8450 C   0  0  0  0  0  0  0  0  0  0  0  0
  -21.7690   41.9570   -6.8780 C   0  0  0  0  0  0  0  0  0  0  0  0
  -19.5360   41.6080   -8.1810 C   0  0  0  0  0  0  0  0  0  0  0  0
  -17.6230   42.2730  -10.9330 C   0  0  0  0  0  0  0  0  0  0  0  0
  -16.3180   41.9190  -11.6570 C   0  0  0  0  0  0  0  0  0  0  0  0
  -17.0350   40.0260  -10.2950 C   0  0  0  0  0  0  0  0  0  0  0  0
  -17.6730   41.3150   -9.7680 C   0  0  0  0  0  0  0  0  0  0  0  0
  -16.0120   40.4640  -11.3390 C   0  0  0  0  0  0  0  0  0  0  0  0
  -21.6350   40.2400   -8.3420 N   0  0  0  0  0  0  0  0  0  0  0  0
  -22.9650   41.2910   -6.8560 N   0  0  0  0  0  0  0  0  0  0  0  0
  -21.4070   43.0470   -6.1580 N   0  0  0  0  0  0  0  0  0  0  0  0
  -19.0500   41.0360   -9.3370 N   0  0  0  0  0  0  0  0  0  0  0  0
  -18.8800   42.3550   -7.4710 O   0  0  0  0  0  0  0  0  0  0  0  0
  -22.8340   40.2710   -7.7500 O   0  0  0  0  0  0  0  0  0  0  0  0
  -16.1700   39.6740  -12.5210 O   0  0  0  0  0  0  0  0  0  0  0  0
  -17.6031   43.3148  -10.5806 H   0  0  0  0  0  0  0  0  0  0  0  0
  -18.5036   42.1871  -11.5866 H   0  0  0  0  0  0  0  0  0  0  0  0
  -15.5013   42.5634  -11.2996 H   0  0  0  0  0  0  0  0  0  0  0  0
  -16.4182   42.0704  -12.7419 H   0  0  0  0  0  0  0  0  0  0  0  0
  -17.7985   39.3809  -10.7542 H   0  0  0  0  0  0  0  0  0  0  0  0
  -16.5651   39.4473   -9.4862 H   0  0  0  0  0  0  0  0  0  0  0  0
  -17.1552   41.7364   -8.8938 H   0  0  0  0  0  0  0  0  0  0  0  0
  -14.9828   40.3407  -10.9709 H   0  0  0  0  0  0  0  0  0  0  0  0
  -21.4188   43.0115   -5.1287 H   0  0  0  0  0  0  0  0  0  0  0  0
  -21.1201   43.9107   -6.6402 H   0  0  0  0  0  0  0  0  0  0  0  0
  -19.6505   40.4145   -9.8974 H   0  0  0  0  0  0  0  0  0  0  0  0
  -16.3577   38.7355  -12.2680 H   0  0  0  0  0  0  0  0  0  0  0  0
 15  8  1  0
  5  8  1  0
  5  4  1  0
  8  6  1  0
  4  7  1  0
  6  7  1  0
  7 12  1  0
 12  3  1  0
  9  1  2  0
  9 14  1  0
  3  1  1  0
  3 13  2  0
  1  2  1  0
 14 10  1  0
  2 10  2  0
  2 11  1  0
  4 16  1  0
  4 17  1  0
  5 18  1  0
  5 19  1  0
  6 20  1  0
  6 21  1  0
  7 22  1  0
  8 23  1  0
 11 24  1  0
 11 25  1  0
 12 26  1  0
 15 27  1  0
A    1
C1
A    2
C
A    3
C2
A    4
C4
A    5
C5
A    6
C7
A    7
C3
A    8
C6
A    9
N2
A   10
N1
A   11
N
A   12
N3
A   13
O1
A   14
O
A   15
O2
M  END
