4YQ9_4GO_A_301
     RDKit          3D

 30 31  0  0  0  0  0  0  0  0999 V2000
  -21.4260   40.8770   -8.2690 C   0  0  0  0  0  0  0  0  0  0  0  0
  -20.3650   40.4840   -9.0840 C   0  0  0  0  0  0  0  0  0  0  0  0
  -19.9270   42.4360   -7.1870 C   0  0  0  0  0  0  0  0  0  0  0  0
  -21.2010   41.8860   -7.3190 C   0  0  0  0  0  0  0  0  0  0  0  0
  -19.0760   41.1310   -8.9070 C   0  0  0  0  0  0  0  0  0  0  0  0
  -22.3370   42.3300   -6.5300 C   0  0  0  0  0  0  0  0  0  0  0  0
  -18.8510   42.1210   -7.9120 N   0  0  0  0  0  0  0  0  0  0  0  0
  -22.1580   43.4840   -5.7870 N   0  0  0  0  0  0  0  0  0  0  0  0
  -17.9910   40.9530   -9.7090 N   0  0  0  0  0  0  0  0  0  0  0  0
  -23.4070   41.7050   -6.4610 O   0  0  0  0  0  0  0  0  0  0  0  0
  -18.2000   41.4000  -12.8590 C   0  0  0  0  0  0  0  0  0  0  0  0
  -16.7220   41.1890  -12.5730 C   0  0  0  0  0  0  0  0  0  0  0  0
  -18.9680   40.4320  -11.9800 C   0  0  0  0  0  0  0  0  0  0  0  0
  -16.6120   40.0930  -11.5200 C   0  0  0  0  0  0  0  0  0  0  0  0
  -17.9790   40.0390  -10.8810 C   0  0  0  0  0  0  0  0  0  0  0  0
  -22.4159   40.4076   -8.3680 H   0  0  0  0  0  0  0  0  0  0  0  0
  -20.5009   39.7010   -9.8446 H   0  0  0  0  0  0  0  0  0  0  0  0
  -19.7954   43.2038   -6.4104 H   0  0  0  0  0  0  0  0  0  0  0  0
  -22.1648   43.4402   -4.7580 H   0  0  0  0  0  0  0  0  0  0  0  0
  -22.0180   44.3865   -6.2631 H   0  0  0  0  0  0  0  0  0  0  0  0
  -17.1327   41.4796   -9.4923 H   0  0  0  0  0  0  0  0  0  0  0  0
  -18.4864   42.4349  -12.6201 H   0  0  0  0  0  0  0  0  0  0  0  0
  -18.4218   41.2234  -13.9218 H   0  0  0  0  0  0  0  0  0  0  0  0
  -16.2018   40.8808  -13.4919 H   0  0  0  0  0  0  0  0  0  0  0  0
  -16.2598   42.1201  -12.2133 H   0  0  0  0  0  0  0  0  0  0  0  0
  -19.8545   40.9194  -11.5482 H   0  0  0  0  0  0  0  0  0  0  0  0
  -19.3349   39.5602  -12.5417 H   0  0  0  0  0  0  0  0  0  0  0  0
  -16.3638   39.1288  -11.9877 H   0  0  0  0  0  0  0  0  0  0  0  0
  -15.8172   40.2971  -10.7874 H   0  0  0  0  0  0  0  0  0  0  0  0
  -18.2533   39.0462  -10.4948 H   0  0  0  0  0  0  0  0  0  0  0  0
 11 12  1  0
 11 13  1  0
 12 14  1  0
 13 15  1  0
 14 15  1  0
 15  9  1  0
  9  5  1  0
  2  5  1  0
  2  1  2  0
  5  7  2  0
  1  4  1  0
  7  3  1  0
  4  3  2  0
  4  6  1  0
  6 10  2  0
  6  8  1  0
  1 16  1  0
  2 17  1  0
  3 18  1  0
  8 19  1  0
  8 20  1  0
  9 21  1  0
 11 22  1  0
 11 23  1  0
 12 24  1  0
 12 25  1  0
 13 26  1  0
 13 27  1  0
 14 28  1  0
 14 29  1  0
 15 30  1  0
A    1
C2
A    2
C3
A    3
C10
A    4
C1
A    5
C4
A    6
C
A    7
N2
A    8
N
A    9
N1
A   10
O
A   11
C7
A   12
C8
A   13
C6
A   14
C9
A   15
C5
M  END
