4YQA_4GN_A_301
     RDKit          3D

 33 34  0  0  0  0  0  0  0  0999 V2000
  -21.4290   40.9370   -8.2730 C   0  0  0  0  0  0  0  0  0  0  0  0
  -20.3660   40.5090   -9.0430 C   0  0  0  0  0  0  0  0  0  0  0  0
  -19.9700   42.4570   -7.1300 C   0  0  0  0  0  0  0  0  0  0  0  0
  -21.2350   41.9320   -7.3210 C   0  0  0  0  0  0  0  0  0  0  0  0
  -19.0880   41.1230   -8.8010 C   0  0  0  0  0  0  0  0  0  0  0  0
  -22.4030   42.3920   -6.5750 C   0  0  0  0  0  0  0  0  0  0  0  0
  -17.9000   39.9310  -10.6310 C   0  0  0  0  0  0  0  0  0  0  0  0
  -18.8970   42.0870   -7.8280 N   0  0  0  0  0  0  0  0  0  0  0  0
  -22.2760   43.5590   -5.8430 N   0  0  0  0  0  0  0  0  0  0  0  0
  -17.9420   40.8760   -9.5140 N   0  0  0  0  0  0  0  0  0  0  0  0
  -23.4700   41.7810   -6.5810 O   0  0  0  0  0  0  0  0  0  0  0  0
  -16.8420   41.9820  -13.1500 C   0  0  0  0  0  0  0  0  0  0  0  0
  -16.8550   40.5580  -13.5820 C   0  0  0  0  0  0  0  0  0  0  0  0
  -17.6330   42.0350  -11.8550 C   0  0  0  0  0  0  0  0  0  0  0  0
  -18.1740   40.0140  -13.1300 C   0  0  0  0  0  0  0  0  0  0  0  0
  -18.4170   40.7210  -11.8110 C   0  0  0  0  0  0  0  0  0  0  0  0
  -22.4256   40.4927   -8.4120 H   0  0  0  0  0  0  0  0  0  0  0  0
  -20.4913   39.7305   -9.8100 H   0  0  0  0  0  0  0  0  0  0  0  0
  -19.8418   43.2268   -6.3548 H   0  0  0  0  0  0  0  0  0  0  0  0
  -18.5452   39.0629  -10.4309 H   0  0  0  0  0  0  0  0  0  0  0  0
  -16.8900   39.5310  -10.8042 H   0  0  0  0  0  0  0  0  0  0  0  0
  -22.2798   43.5242   -4.8136 H   0  0  0  0  0  0  0  0  0  0  0  0
  -22.1777   44.4626   -6.3274 H   0  0  0  0  0  0  0  0  0  0  0  0
  -17.0790   41.3742   -9.2535 H   0  0  0  0  0  0  0  0  0  0  0  0
  -15.8091   42.3205  -12.9808 H   0  0  0  0  0  0  0  0  0  0  0  0
  -17.2797   42.6389  -13.9161 H   0  0  0  0  0  0  0  0  0  0  0  0
  -16.7648   40.4875  -14.6760 H   0  0  0  0  0  0  0  0  0  0  0  0
  -16.0131   39.9943  -13.1536 H   0  0  0  0  0  0  0  0  0  0  0  0
  -16.9554   42.1093  -10.9916 H   0  0  0  0  0  0  0  0  0  0  0  0
  -18.2962   42.9116  -11.8133 H   0  0  0  0  0  0  0  0  0  0  0  0
  -18.9663   40.2517  -13.8550 H   0  0  0  0  0  0  0  0  0  0  0  0
  -18.1747   38.9182  -13.0345 H   0  0  0  0  0  0  0  0  0  0  0  0
  -19.5008   40.8606  -11.6851 H   0  0  0  0  0  0  0  0  0  0  0  0
 13 12  1  0
 13 15  1  0
 12 14  1  0
 15 16  1  0
 14 16  1  0
 16  7  1  0
  7 10  1  0
 10  5  1  0
  2  5  1  0
  2  1  2  0
  5  8  2  0
  1  4  1  0
  8  3  1  0
  4  3  2  0
  4  6  1  0
 11  6  2  0
  6  9  1  0
  1 17  1  0
  2 18  1  0
  3 19  1  0
  7 20  1  0
  7 21  1  0
  9 22  1  0
  9 23  1  0
 10 24  1  0
 12 25  1  0
 12 26  1  0
 13 27  1  0
 13 28  1  0
 14 29  1  0
 14 30  1  0
 15 31  1  0
 15 32  1  0
 16 33  1  0
A    1
C2
A    2
C3
A    3
C11
A    4
C1
A    5
C4
A    6
C
A    7
C5
A    8
N2
A    9
N
A   10
N1
A   11
O
A   12
C8
A   13
C9
A   14
C7
A   15
C10
A   16
C6
M  END
