4YQI_4GX_A_301
     RDKit          3D

 37 39  0  0  0  0  0  0  0  0999 V2000
  -23.0720   41.4880   -6.7600 N   0  0  0  0  0  0  0  0  0  0  0  0
  -18.9680   40.6590   -9.0570 N   0  0  0  0  0  0  0  0  0  0  0  0
  -19.4170   40.1980  -11.3070 C   0  0  0  0  0  0  0  0  0  0  0  0
  -17.5550   40.1320  -13.0470 C   0  0  0  0  0  0  0  0  0  0  0  0
  -18.0170   41.4110  -13.7580 C   0  0  0  0  0  0  0  0  0  0  0  0
  -17.2180   42.5620  -13.8000 C   0  0  0  0  0  0  0  0  0  0  0  0
  -17.7520   43.7210  -14.3680 C   0  0  0  0  0  0  0  0  0  0  0  0
  -19.7810   42.5120  -14.8210 C   0  0  0  0  0  0  0  0  0  0  0  0
  -19.0470   43.7130  -14.8880 C   0  0  0  0  0  0  0  0  0  0  0  0
  -21.0420   41.1880   -7.7330 C   0  0  0  0  0  0  0  0  0  0  0  0
  -21.8410   42.0600   -6.8390 C   0  0  0  0  0  0  0  0  0  0  0  0
  -19.6130   41.4100   -8.0510 C   0  0  0  0  0  0  0  0  0  0  0  0
  -17.5590   40.7530   -9.3230 C   0  0  0  0  0  0  0  0  0  0  0  0
  -19.5120   39.6290   -9.9130 C   0  0  0  0  0  0  0  0  0  0  0  0
  -17.2430   41.1700  -10.7420 C   0  0  0  0  0  0  0  0  0  0  0  0
  -19.2810   41.3750  -14.2670 N   0  0  0  0  0  0  0  0  0  0  0  0
  -21.8460   40.1910   -8.1140 N   0  0  0  0  0  0  0  0  0  0  0  0
  -18.0140   40.3870  -11.7230 N   0  0  0  0  0  0  0  0  0  0  0  0
  -21.4100   43.2040   -6.2340 N   0  0  0  0  0  0  0  0  0  0  0  0
  -19.0000   42.2510   -7.4010 O   0  0  0  0  0  0  0  0  0  0  0  0
  -23.0310   40.3740   -7.5420 O   0  0  0  0  0  0  0  0  0  0  0  0
  -19.9304   41.1705  -11.3312 H   0  0  0  0  0  0  0  0  0  0  0  0
  -19.8885   39.4869  -12.0013 H   0  0  0  0  0  0  0  0  0  0  0  0
  -18.0288   39.2363  -13.4750 H   0  0  0  0  0  0  0  0  0  0  0  0
  -16.4767   39.9292  -13.1259 H   0  0  0  0  0  0  0  0  0  0  0  0
  -16.1952   42.5527  -13.3954 H   0  0  0  0  0  0  0  0  0  0  0  0
  -17.1508   44.6414  -14.4055 H   0  0  0  0  0  0  0  0  0  0  0  0
  -20.8004   42.4933  -15.2338 H   0  0  0  0  0  0  0  0  0  0  0  0
  -19.4821   44.6179  -15.3371 H   0  0  0  0  0  0  0  0  0  0  0  0
  -17.1028   39.7692   -9.1387 H   0  0  0  0  0  0  0  0  0  0  0  0
  -17.1537   41.5298   -8.6580 H   0  0  0  0  0  0  0  0  0  0  0  0
  -20.5595   39.4198   -9.6502 H   0  0  0  0  0  0  0  0  0  0  0  0
  -18.9693   38.6773   -9.8146 H   0  0  0  0  0  0  0  0  0  0  0  0
  -16.1696   41.0174  -10.9281 H   0  0  0  0  0  0  0  0  0  0  0  0
  -17.5156   42.2294  -10.8575 H   0  0  0  0  0  0  0  0  0  0  0  0
  -21.3868   43.2657   -5.2061 H   0  0  0  0  0  0  0  0  0  0  0  0
  -21.1078   44.0062   -6.8050 H   0  0  0  0  0  0  0  0  0  0  0  0
  9  8  2  0
  9  7  1  0
  8 16  1  0
  7  6  2  0
 16  5  2  0
  6  5  1  0
  5  4  1  0
  4 18  1  0
 18  3  1  0
 18 15  1  0
  3 14  1  0
 15 13  1  0
 14  2  1  0
 13  2  1  0
  2 12  1  0
 17 10  2  0
 17 21  1  0
 12 10  1  0
 12 20  2  0
 10 11  1  0
 21  1  1  0
 11  1  2  0
 11 19  1  0
  3 22  1  0
  3 23  1  0
  4 24  1  0
  4 25  1  0
  6 26  1  0
  7 27  1  0
  8 28  1  0
  9 29  1  0
 13 30  1  0
 13 31  1  0
 14 32  1  0
 14 33  1  0
 15 34  1  0
 15 35  1  0
 19 36  1  0
 19 37  1  0
A    1
N1
A    2
N3
A    3
C4
A    4
C5
A    5
C6
A    6
C7
A    7
C8
A    8
C10
A    9
C9
A   10
C1
A   11
C
A   12
C2
A   13
C12
A   14
C3
A   15
C11
A   16
N5
A   17
N2
A   18
N4
A   19
N
A   20
O1
A   21
O
M  END
