4YQK_4GS_A_301
     RDKit          3D

 28 29  0  0  0  0  0  0  0  0999 V2000
  -20.9040   41.5290   -7.8480 C   0  0  0  0  0  0  0  0  0  0  0  0
  -21.7550   42.2380   -6.9460 C   0  0  0  0  0  0  0  0  0  0  0  0
  -19.5240   41.7950   -8.1590 C   0  0  0  0  0  0  0  0  0  0  0  0
  -17.6490   42.5980  -10.6620 C   0  0  0  0  0  0  0  0  0  0  0  0
  -17.1620   40.2860  -10.5130 C   0  0  0  0  0  0  0  0  0  0  0  0
  -16.2440   42.8360  -11.1670 C   0  0  0  0  0  0  0  0  0  0  0  0
  -15.7810   40.5590  -11.0880 C   0  0  0  0  0  0  0  0  0  0  0  0
  -17.6570   41.4480   -9.6800 C   0  0  0  0  0  0  0  0  0  0  0  0
  -21.5730   40.5210   -8.4180 N   0  0  0  0  0  0  0  0  0  0  0  0
  -22.9680   41.6830   -6.9370 N   0  0  0  0  0  0  0  0  0  0  0  0
  -15.8290   41.7060  -11.9830 N   0  0  0  0  0  0  0  0  0  0  0  0
  -21.3290   43.3040   -6.2270 N   0  0  0  0  0  0  0  0  0  0  0  0
  -19.0410   41.1850   -9.3060 N   0  0  0  0  0  0  0  0  0  0  0  0
  -18.8530   42.5540   -7.4800 O   0  0  0  0  0  0  0  0  0  0  0  0
  -22.8610   40.6090   -7.8490 O   0  0  0  0  0  0  0  0  0  0  0  0
  -18.0153   43.5067  -10.1620 H   0  0  0  0  0  0  0  0  0  0  0  0
  -18.3018   42.3516  -11.5124 H   0  0  0  0  0  0  0  0  0  0  0  0
  -17.8660   40.1144  -11.3406 H   0  0  0  0  0  0  0  0  0  0  0  0
  -17.0960   39.4003   -9.8640 H   0  0  0  0  0  0  0  0  0  0  0  0
  -15.5596   42.9433  -10.3125 H   0  0  0  0  0  0  0  0  0  0  0  0
  -16.2201   43.7552  -11.7708 H   0  0  0  0  0  0  0  0  0  0  0  0
  -15.4386   39.6756  -11.6469 H   0  0  0  0  0  0  0  0  0  0  0  0
  -15.0844   40.7743  -10.2643 H   0  0  0  0  0  0  0  0  0  0  0  0
  -17.0630   41.6290   -8.7720 H   0  0  0  0  0  0  0  0  0  0  0  0
  -16.5092   41.5417  -12.7388 H   0  0  0  0  0  0  0  0  0  0  0  0
  -21.3427   43.2696   -5.1977 H   0  0  0  0  0  0  0  0  0  0  0  0
  -20.9913   44.1490   -6.7096 H   0  0  0  0  0  0  0  0  0  0  0  0
  -19.6388   40.5678   -9.8739 H   0  0  0  0  0  0  0  0  0  0  0  0
 11  6  1  0
 11  7  1  0
  6  4  1  0
  7  5  1  0
  4  8  1  0
  5  8  1  0
  8 13  1  0
 13  3  1  0
  9 15  1  0
  9  1  2  0
  3  1  1  0
  3 14  2  0
 15 10  1  0
  1  2  1  0
  2 10  2  0
  2 12  1  0
  4 16  1  0
  4 17  1  0
  5 18  1  0
  5 19  1  0
  6 20  1  0
  6 21  1  0
  7 22  1  0
  7 23  1  0
  8 24  1  0
 11 25  1  0
 12 26  1  0
 12 27  1  0
 13 28  1  0
A    1
C1
A    2
C
A    3
C2
A    4
C7
A    5
C4
A    6
C6
A    7
C5
A    8
C3
A    9
N2
A   10
N1
A   11
N4
A   12
N
A   13
N3
A   14
O1
A   15
O
M  END
