4YQL_4H4_A_301
     RDKit          3D

 35 37  0  0  0  0  0  0  0  0999 V2000
  -16.6380   44.0120  -12.1590 C   0  0  0  0  0  0  0  0  0  0  0  0
  -14.9700   43.1650  -10.7260 C   0  0  0  0  0  0  0  0  0  0  0  0
  -15.8480   45.0950  -12.4690 C   0  0  0  0  0  0  0  0  0  0  0  0
  -14.1580   44.2400  -11.0190 C   0  0  0  0  0  0  0  0  0  0  0  0
  -16.2200   43.0280  -11.2900 C   0  0  0  0  0  0  0  0  0  0  0  0
  -14.6050   45.2020  -11.8950 C   0  0  0  0  0  0  0  0  0  0  0  0
  -20.5550   41.7260   -7.7490 C   0  0  0  0  0  0  0  0  0  0  0  0
  -21.4830   42.3070   -6.8420 C   0  0  0  0  0  0  0  0  0  0  0  0
  -19.1810   42.0440   -7.9850 C   0  0  0  0  0  0  0  0  0  0  0  0
  -16.6050   40.5990  -10.3840 C   0  0  0  0  0  0  0  0  0  0  0  0
  -17.1000   41.8860  -10.9820 C   0  0  0  0  0  0  0  0  0  0  0  0
  -17.3720   41.5720   -9.5380 C   0  0  0  0  0  0  0  0  0  0  0  0
  -21.1240   40.7370   -8.4410 N   0  0  0  0  0  0  0  0  0  0  0  0
  -22.6510   41.6780   -6.9740 N   0  0  0  0  0  0  0  0  0  0  0  0
  -21.2020   43.3240   -5.9940 N   0  0  0  0  0  0  0  0  0  0  0  0
  -14.4810   47.8780  -11.6150 N   0  0  0  0  0  0  0  0  0  0  0  0
  -18.6970   41.3630   -9.0740 N   0  0  0  0  0  0  0  0  0  0  0  0
  -18.5550   42.8110   -7.2660 O   0  0  0  0  0  0  0  0  0  0  0  0
  -12.3260   46.4370  -11.5820 O   0  0  0  0  0  0  0  0  0  0  0  0
  -13.6030   46.7340  -13.7450 O   0  0  0  0  0  0  0  0  0  0  0  0
  -22.4320   40.7090   -7.9590 O   0  0  0  0  0  0  0  0  0  0  0  0
  -13.5740   46.6050  -12.3020 S   0  0  0  0  0  0  0  0  0  0  0  0
  -17.6338   43.9293  -12.6190 H   0  0  0  0  0  0  0  0  0  0  0  0
  -14.6112   42.3974  -10.0245 H   0  0  0  0  0  0  0  0  0  0  0  0
  -16.2073   45.8651  -13.1675 H   0  0  0  0  0  0  0  0  0  0  0  0
  -13.1634   44.3276  -10.5573 H   0  0  0  0  0  0  0  0  0  0  0  0
  -17.0648   39.6437  -10.6773 H   0  0  0  0  0  0  0  0  0  0  0  0
  -15.6258   40.1039  -10.3057 H   0  0  0  0  0  0  0  0  0  0  0  0
  -17.6852   42.1142  -11.8850 H   0  0  0  0  0  0  0  0  0  0  0  0
  -17.1763   42.0482   -8.5659 H   0  0  0  0  0  0  0  0  0  0  0  0
  -21.2439   43.1723   -4.9761 H   0  0  0  0  0  0  0  0  0  0  0  0
  -20.9463   44.2495   -6.3667 H   0  0  0  0  0  0  0  0  0  0  0  0
  -14.4367   47.8158  -10.5878 H   0  0  0  0  0  0  0  0  0  0  0  0
  -14.0918   48.7811  -11.9214 H   0  0  0  0  0  0  0  0  0  0  0  0
  -19.3048   40.6898   -9.5621 H   0  0  0  0  0  0  0  0  0  0  0  0
 20 22  2  0
  3  1  2  0
  3  6  1  0
 22  6  1  0
 22 16  1  0
 22 19  2  0
  1  5  1  0
  6  4  2  0
  5 11  1  0
  5  2  2  0
  4  2  1  0
 11 10  1  0
 11 12  1  0
 10 12  1  0
 12 17  1  0
 17  9  1  0
 13 21  1  0
 13  7  2  0
  9  7  1  0
  9 18  2  0
 21 14  1  0
  7  8  1  0
 14  8  2  0
  8 15  1  0
  1 23  1  0
  2 24  1  0
  3 25  1  0
  4 26  1  0
 10 27  1  0
 10 28  1  0
 11 29  1  0
 12 30  1  0
 15 31  1  0
 15 32  1  0
 16 33  1  0
 16 34  1  0
 17 35  1  0
A    1
C14
A    2
C18
A    3
C15
A    4
C17
A    5
C13
A    6
C16
A    7
C6
A    8
C2
A    9
C7
A   10
C11
A   11
C12
A   12
C10
A   13
N5
A   14
N3
A   15
N1
A   16
N20
A   17
N9
A   18
O8
A   19
O21
A   20
O22
A   21
O4
A   22
S19
M  END
