4YQO_4H1_A_301
     RDKit          3D

 41 42  0  0  0  0  0  0  0  0999 V2000
  -21.2450   40.7310   -8.4750 C   0  0  0  0  0  0  0  0  0  0  0  0
  -20.0990   40.3190   -9.1140 C   0  0  0  0  0  0  0  0  0  0  0  0
  -19.8690   42.1050   -7.0600 C   0  0  0  0  0  0  0  0  0  0  0  0
  -21.1260   41.6450   -7.4110 C   0  0  0  0  0  0  0  0  0  0  0  0
  -18.8560   40.8140   -8.7110 C   0  0  0  0  0  0  0  0  0  0  0  0
  -22.3020   42.1650   -6.6670 C   0  0  0  0  0  0  0  0  0  0  0  0
  -18.3290   42.0530  -13.9840 C   0  0  0  0  0  0  0  0  0  0  0  0
  -17.2020   43.0200  -13.7800 C   0  0  0  0  0  0  0  0  0  0  0  0
  -18.1680   40.8130  -13.1360 C   0  0  0  0  0  0  0  0  0  0  0  0
  -16.9030   42.2610  -11.5150 C   0  0  0  0  0  0  0  0  0  0  0  0
  -17.1630   43.4890  -12.3350 C   0  0  0  0  0  0  0  0  0  0  0  0
  -18.0010   41.2500  -11.6920 C   0  0  0  0  0  0  0  0  0  0  0  0
  -16.0890   44.5410  -12.0760 C   0  0  0  0  0  0  0  0  0  0  0  0
  -17.6820   40.0640  -10.7880 C   0  0  0  0  0  0  0  0  0  0  0  0
  -18.7510   41.7040   -7.6590 N   0  0  0  0  0  0  0  0  0  0  0  0
  -22.1680   43.3700   -5.9300 N   0  0  0  0  0  0  0  0  0  0  0  0
  -16.0040   45.6420  -13.0050 N   0  0  0  0  0  0  0  0  0  0  0  0
  -17.6480   40.4050   -9.3700 N   0  0  0  0  0  0  0  0  0  0  0  0
  -23.3800   41.5870   -6.6800 O   0  0  0  0  0  0  0  0  0  0  0  0
  -22.2305   40.3555   -8.7877 H   0  0  0  0  0  0  0  0  0  0  0  0
  -20.1610   39.5990   -9.9433 H   0  0  0  0  0  0  0  0  0  0  0  0
  -19.7903   42.8392   -6.2447 H   0  0  0  0  0  0  0  0  0  0  0  0
  -19.2745   42.5471  -13.7156 H   0  0  0  0  0  0  0  0  0  0  0  0
  -18.3278   41.7461  -15.0403 H   0  0  0  0  0  0  0  0  0  0  0  0
  -16.2508   42.5256  -14.0266 H   0  0  0  0  0  0  0  0  0  0  0  0
  -17.3555   43.8908  -14.4343 H   0  0  0  0  0  0  0  0  0  0  0  0
  -19.0599   40.1765  -13.2325 H   0  0  0  0  0  0  0  0  0  0  0  0
  -17.2904   40.2369  -13.4646 H   0  0  0  0  0  0  0  0  0  0  0  0
  -15.9487   41.8139  -11.8302 H   0  0  0  0  0  0  0  0  0  0  0  0
  -16.8625   42.5509  -10.4547 H   0  0  0  0  0  0  0  0  0  0  0  0
  -18.1132   43.9777  -12.0738 H   0  0  0  0  0  0  0  0  0  0  0  0
  -18.9626   41.7054  -11.4130 H   0  0  0  0  0  0  0  0  0  0  0  0
  -15.1159   44.0281  -12.0813 H   0  0  0  0  0  0  0  0  0  0  0  0
  -16.3696   45.0013  -11.1172 H   0  0  0  0  0  0  0  0  0  0  0  0
  -18.4506   39.2923  -10.9421 H   0  0  0  0  0  0  0  0  0  0  0  0
  -16.6761   39.7116  -11.0600 H   0  0  0  0  0  0  0  0  0  0  0  0
  -22.1706   43.3469   -4.9003 H   0  0  0  0  0  0  0  0  0  0  0  0
  -22.0682   44.2679   -6.4247 H   0  0  0  0  0  0  0  0  0  0  0  0
  -15.9357   46.5272  -12.4829 H   0  0  0  0  0  0  0  0  0  0  0  0
  -15.1693   45.5276  -13.5976 H   0  0  0  0  0  0  0  0  0  0  0  0
  -16.7633   40.3527   -8.8452 H   0  0  0  0  0  0  0  0  0  0  0  0
  7  8  1  0
  7  9  1  0
  8 11  1  0
  9 12  1  0
 17 13  1  0
 11 13  1  0
 11 10  1  0
 12 10  1  0
 12 14  1  0
 14 18  1  0
 18  5  1  0
  2  5  1  0
  2  1  2  0
  5 15  2  0
  1  4  1  0
 15  3  1  0
  4  3  2  0
  4  6  1  0
 19  6  2  0
  6 16  1  0
  1 20  1  0
  2 21  1  0
  3 22  1  0
  7 23  1  0
  7 24  1  0
  8 25  1  0
  8 26  1  0
  9 27  1  0
  9 28  1  0
 10 29  1  0
 10 30  1  0
 11 31  1  0
 12 32  1  0
 13 33  1  0
 13 34  1  0
 14 35  1  0
 14 36  1  0
 16 37  1  0
 16 38  1  0
 17 39  1  0
 17 40  1  0
 18 41  1  0
A    1
C12
A    2
C11
A    3
C14
A    4
C13
A    5
C10
A    6
C16
A    7
C5
A    8
C4
A    9
C6
A   10
C19
A   11
C3
A   12
C7
A   13
C2
A   14
C8
A   15
N15
A   16
N17
A   17
N1
A   18
N9
A   19
O18
M  END
