4YRZ_A2B_A_401
     RDKit          3D

 23 24  0  0  0  0  0  0  0  0999 V2000
   -5.8870  -20.4360   14.8670 O   0  0  0  0  0  0  0  0  0  0  0  0
   -8.6180  -18.2690   14.0390 C   0  0  0  0  0  0  0  0  0  0  0  0
   -8.5100  -17.3630   13.0060 O   0  0  0  0  0  0  0  0  0  0  0  0
   -9.2620  -17.6500   15.1830 C   0  0  0  0  0  0  0  0  0  0  0  0
  -10.0120  -18.6350   15.8020 O   0  0  0  0  0  0  0  0  0  0  0  0
   -8.1880  -17.2450   16.0620 C   0  0  0  0  0  0  0  0  0  0  0  0
   -7.0620  -18.0510   15.7460 O   0  0  0  0  0  0  0  0  0  0  0  0
   -7.3190  -18.6210   14.4870 C   0  0  0  0  0  0  0  0  0  0  0  0
   -7.1970  -20.0790   14.6470 C   0  0  0  0  0  0  0  0  0  0  0  0
   -6.4070  -18.0980   13.5630 O   0  0  0  0  0  0  0  0  0  0  0  0
   -7.1920  -17.4180   12.5670 B   0  0  0  0  0  0  0  0  0  0  0  0
   -6.7500  -16.0590   12.3630 O   0  0  0  0  0  0  0  0  0  0  0  0
   -7.0940  -18.1810   11.3560 O   0  0  0  0  0  0  0  0  0  0  0  0
   -5.7167  -20.4824   15.8411 H   0  0  0  0  0  0  0  0  0  0  0  0
   -9.1883  -19.1349   13.6717 H   0  0  0  0  0  0  0  0  0  0  0  0
   -9.9033  -16.7966   14.9174 H   0  0  0  0  0  0  0  0  0  0  0  0
   -9.9379  -18.5377   16.7844 H   0  0  0  0  0  0  0  0  0  0  0  0
   -8.4804  -17.4001   17.1110 H   0  0  0  0  0  0  0  0  0  0  0  0
   -7.9550  -16.1782   15.9291 H   0  0  0  0  0  0  0  0  0  0  0  0
   -7.5576  -20.5740   13.7332 H   0  0  0  0  0  0  0  0  0  0  0  0
   -7.7989  -20.3913   15.5131 H   0  0  0  0  0  0  0  0  0  0  0  0
   -6.6082  -15.6229   13.2404 H   0  0  0  0  0  0  0  0  0  0  0  0
   -6.9711  -19.1379   11.5779 H   0  0  0  0  0  0  0  0  0  0  0  0
  6  7  1  0
  6  4  1  0
  5  4  1  0
  7  8  1  0
  4  2  1  0
  1  9  1  0
  9  8  1  0
  8  2  1  0
  8 10  1  0
  2  3  1  0
 10 11  1  0
  3 11  1  0
 11 12  1  0
 11 13  1  0
  1 14  1  0
  2 15  1  0
  4 16  1  0
  5 17  1  0
  6 18  1  0
  6 19  1  0
  9 20  1  0
  9 21  1  0
 12 22  1  0
 13 23  1  0
M  CHG  1  11  -1
A    1
O13
A    2
C8
A    3
O1
A    4
C7
A    5
O12
A    6
C6
A    7
O5
A    8
C4
A    9
C11
A   10
O3
A   11
B
A   12
O10
A   13
O9
M  END
