4YT6_4JY_H_301
     RDKit          3D

 66 69  0  0  0  0  0  0  0  0999 V2000
    9.3310   34.2950   28.7430 C   0  0  0  0  0  0  0  0  0  0  0  0
    9.8610   33.5230   29.9000 C   0  0  0  0  0  0  0  0  0  0  0  0
    9.1730   34.6640   26.3590 C   0  0  0  0  0  0  0  0  0  0  0  0
    3.6550   34.5520   22.9310 C   0  0  0  0  0  0  0  0  0  0  0  0
    2.8170   33.5790   22.2640 C   0  0  0  0  0  0  0  0  0  0  0  0
    1.6990   36.5460   28.7330 C   0  0  0  0  0  0  0  0  0  0  0  0
    8.0510   36.1470   27.8720 C   0  0  0  0  0  0  0  0  0  0  0  0
    8.5270   35.4130   28.9390 C   0  0  0  0  0  0  0  0  0  0  0  0
    9.4970   39.6360   18.7660 C   0  0  0  0  0  0  0  0  0  0  0  0
   10.0830   38.9680   19.8160 C   0  0  0  0  0  0  0  0  0  0  0  0
    7.8210   36.4780   25.4900 N   0  0  0  0  0  0  0  0  0  0  0  0
    6.9400   37.6340   25.6170 C   0  0  0  0  0  0  0  0  0  0  0  0
    5.4860   37.1780   25.7310 C   0  0  0  0  0  0  0  0  0  0  0  0
    7.0100   38.5320   24.4190 C   0  0  0  0  0  0  0  0  0  0  0  0
    4.7290   37.4820   26.8530 C   0  0  0  0  0  0  0  0  0  0  0  0
    3.4380   37.0190   27.0380 C   0  0  0  0  0  0  0  0  0  0  0  0
    2.8490   36.2590   26.0370 C   0  0  0  0  0  0  0  0  0  0  0  0
    3.5950   35.9150   24.9180 C   0  0  0  0  0  0  0  0  0  0  0  0
    4.8930   36.3770   24.7570 C   0  0  0  0  0  0  0  0  0  0  0  0
    8.3560   35.7740   26.5700 C   0  0  0  0  0  0  0  0  0  0  0  0
    9.6560   33.9360   27.4350 C   0  0  0  0  0  0  0  0  0  0  0  0
    2.8650   37.2930   28.2620 O   0  0  0  0  0  0  0  0  0  0  0  0
    9.7240   34.0510   31.1370 N   0  0  0  0  0  0  0  0  0  0  0  0
   10.3550   32.3570   29.6630 N   0  0  0  0  0  0  0  0  0  0  0  0
    5.2610   38.3100   27.7730 F   0  0  0  0  0  0  0  0  0  0  0  0
    2.9680   34.9970   24.1040 O   0  0  0  0  0  0  0  0  0  0  0  0
    1.7530   36.4150   30.2240 C   0  0  0  0  0  0  0  0  0  0  0  0
    0.5180   37.3360   28.2730 C   0  0  0  0  0  0  0  0  0  0  0  0
    6.1740   39.5780   24.2330 N   0  0  0  0  0  0  0  0  0  0  0  0
    6.4840   40.1310   23.0270 C   0  0  0  0  0  0  0  0  0  0  0  0
    7.5390   39.4170   22.5360 C   0  0  0  0  0  0  0  0  0  0  0  0
    7.8540   38.4010   23.4120 N   0  0  0  0  0  0  0  0  0  0  0  0
    8.2040   39.4810   21.2260 C   0  0  0  0  0  0  0  0  0  0  0  0
    9.4190   38.8390   21.0210 C   0  0  0  0  0  0  0  0  0  0  0  0
    8.2540   40.2110   18.9280 C   0  0  0  0  0  0  0  0  0  0  0  0
    7.6140   40.1530   20.1570 C   0  0  0  0  0  0  0  0  0  0  0  0
    9.4355   34.3646   25.3336 H   0  0  0  0  0  0  0  0  0  0  0  0
    4.6127   34.0896   23.2121 H   0  0  0  0  0  0  0  0  0  0  0  0
    3.8602   35.4015   22.2630 H   0  0  0  0  0  0  0  0  0  0  0  0
    2.2927   32.9702   23.0153 H   0  0  0  0  0  0  0  0  0  0  0  0
    2.0801   34.0997   21.6348 H   0  0  0  0  0  0  0  0  0  0  0  0
    3.4412   32.9274   21.6348 H   0  0  0  0  0  0  0  0  0  0  0  0
    1.6533   35.5199   28.3392 H   0  0  0  0  0  0  0  0  0  0  0  0
    7.4258   37.0335   28.0542 H   0  0  0  0  0  0  0  0  0  0  0  0
    8.2659   35.7175   29.9633 H   0  0  0  0  0  0  0  0  0  0  0  0
   10.0182   39.7113   17.8002 H   0  0  0  0  0  0  0  0  0  0  0  0
   11.0865   38.5338   19.6957 H   0  0  0  0  0  0  0  0  0  0  0  0
    8.0642   36.1605   24.5408 H   0  0  0  0  0  0  0  0  0  0  0  0
    7.2725   38.1772   26.5139 H   0  0  0  0  0  0  0  0  0  0  0  0
    1.8025   35.9329   26.1294 H   0  0  0  0  0  0  0  0  0  0  0  0
    5.4591   36.1088   23.8528 H   0  0  0  0  0  0  0  0  0  0  0  0
   10.3032   33.0649   27.2553 H   0  0  0  0  0  0  0  0  0  0  0  0
    9.8768   33.4621   31.9681 H   0  0  0  0  0  0  0  0  0  0  0  0
    9.4668   35.0421   31.2483 H   0  0  0  0  0  0  0  0  0  0  0  0
   10.7322   31.7906   30.4362 H   0  0  0  0  0  0  0  0  0  0  0  0
    1.3728   37.3375   30.6871 H   0  0  0  0  0  0  0  0  0  0  0  0
    1.1326   35.5634   30.5400 H   0  0  0  0  0  0  0  0  0  0  0  0
    2.7933   36.2480   30.5400 H   0  0  0  0  0  0  0  0  0  0  0  0
   -0.0375   37.7076   29.1467 H   0  0  0  0  0  0  0  0  0  0  0  0
    0.8602   38.1877   27.6667 H   0  0  0  0  0  0  0  0  0  0  0  0
   -0.1386   36.6946   27.6667 H   0  0  0  0  0  0  0  0  0  0  0  0
    5.4402   39.8971   24.8815 H   0  0  0  0  0  0  0  0  0  0  0  0
    5.9836   40.9836   22.5446 H   0  0  0  0  0  0  0  0  0  0  0  0
    9.8549   38.2245   21.8225 H   0  0  0  0  0  0  0  0  0  0  0  0
    7.7689   40.7169   18.0802 H   0  0  0  0  0  0  0  0  0  0  0  0
    6.6363   40.6396   20.2887 H   0  0  0  0  0  0  0  0  0  0  0  0
  9 35  2  0
  9 10  1  0
 35 36  1  0
 10 34  2  0
 36 33  2  0
 34 33  1  0
 33 31  1  0
  5  4  1  0
 31 30  2  0
 31 32  1  0
  4 26  1  0
 30 29  1  0
 32 14  2  0
 26 18  1  0
 29 14  1  0
 14 12  1  0
 19 18  2  0
 19 13  1  0
 18 17  1  0
 11 12  1  0
 11 20  1  0
 12 13  1  0
 13 15  2  0
 17 16  2  0
  3 20  2  0
  3 21  1  0
 20  7  1  0
 15 16  1  0
 15 25  1  0
 16 22  1  0
 21  1  2  0
  7  8  2  0
 22  6  1  0
 28  6  1  0
  6 27  1  0
  1  8  1  0
  1  2  1  0
 24  2  2  3
  2 23  1  0
  3 37  1  0
  4 38  1  0
  4 39  1  0
  5 40  1  0
  5 41  1  0
  5 42  1  0
  6 43  1  0
  7 44  1  0
  8 45  1  0
  9 46  1  0
 10 47  1  0
 11 48  1  0
 12 49  1  0
 17 50  1  0
 19 51  1  0
 21 52  1  0
 23 53  1  0
 23 54  1  0
 24 55  1  0
 27 56  1  0
 27 57  1  0
 27 58  1  0
 28 59  1  0
 28 60  1  0
 28 61  1  0
 29 62  1  0
 30 63  1  0
 34 64  1  0
 35 65  1  0
 36 66  1  0
A    1
C13
A    2
C16
A    3
C15
A    4
C22
A    5
C23
A    6
C24
A    7
C11
A    8
C12
A    9
C34
A   10
C33
A   11
N1
A   12
C2
A   13
C3
A   14
C4
A   15
C5
A   16
C6
A   17
C7
A   18
C8
A   19
C9
A   20
C10
A   21
C14
A   22
O17
A   23
N18
A   24
N19
A   25
F20
A   26
O21
A   27
C25
A   28
C26
A   29
N27
A   30
C28
A   31
C29
A   32
N30
A   33
C31
A   34
C32
A   35
C35
A   36
C36
M  END
