4YTF_4HZ_A_4000
     RDKit          3D

 41 43  0  0  0  0  0  0  0  0999 V2000
   14.6480   14.8140    5.7080 C   0  0  0  0  0  0  0  0  0  0  0  0
   17.3790   10.5010    5.1220 N   0  0  0  0  0  0  0  0  0  0  0  0
   15.8310   15.8110    2.1470 C   0  0  0  0  0  0  0  0  0  0  0  0
   15.7620   14.6950    1.1490 C   0  0  0  0  0  0  0  0  0  0  0  0
   16.4070   13.0350    5.7570 C   0  0  0  0  0  0  0  0  0  0  0  0
   17.7090   12.6140    6.2210 C   0  0  0  0  0  0  0  0  0  0  0  0
   16.1400   10.9440    4.6870 C   0  0  0  0  0  0  0  0  0  0  0  0
   15.3630   10.0350    3.8590 C   0  0  0  0  0  0  0  0  0  0  0  0
   15.7450    8.7490    3.5150 C   0  0  0  0  0  0  0  0  0  0  0  0
   11.8950    9.9320    1.4750 C   0  0  0  0  0  0  0  0  0  0  0  0
   18.4610   13.3900    6.9390 F   0  0  0  0  0  0  0  0  0  0  0  0
   18.1460   11.3330    5.8820 C   0  0  0  0  0  0  0  0  0  0  0  0
   15.6040   12.1790    4.9770 N   0  0  0  0  0  0  0  0  0  0  0  0
   15.9570   14.2820    6.0950 N   0  0  0  0  0  0  0  0  0  0  0  0
   14.6050   15.2330    4.2280 C   0  0  0  0  0  0  0  0  0  0  0  0
   15.8240   15.3730    3.5370 N   0  0  0  0  0  0  0  0  0  0  0  0
   16.7860   13.8670    1.2580 F   0  0  0  0  0  0  0  0  0  0  0  0
   15.7820   15.1370   -0.1050 F   0  0  0  0  0  0  0  0  0  0  0  0
   14.6450   13.9700    1.2680 F   0  0  0  0  0  0  0  0  0  0  0  0
   13.5010   15.3920    3.6510 O   0  0  0  0  0  0  0  0  0  0  0  0
   14.3450   16.0500    6.5540 C   0  0  0  0  0  0  0  0  0  0  0  0
   14.1370   10.2880    3.1910 C   0  0  0  0  0  0  0  0  0  0  0  0
   13.2030   11.3740    3.0860 C   0  0  0  0  0  0  0  0  0  0  0  0
   12.1050   11.1610    2.2230 C   0  0  0  0  0  0  0  0  0  0  0  0
   10.9610   12.4130    1.9810 Cl  0  0  0  0  0  0  0  0  0  0  0  0
   12.7750    8.8700    1.5670 N   0  0  0  0  0  0  0  0  0  0  0  0
   13.8430    9.0740    2.4120 C   0  0  0  0  0  0  0  0  0  0  0  0
   14.8270    8.1700    2.6500 N   0  0  0  0  0  0  0  0  0  0  0  0
   13.9071   14.0168    5.8679 H   0  0  0  0  0  0  0  0  0  0  0  0
   16.7576   16.3762    1.9684 H   0  0  0  0  0  0  0  0  0  0  0  0
   14.9255   16.4188    2.0034 H   0  0  0  0  0  0  0  0  0  0  0  0
   16.6561    8.2519    3.8794 H   0  0  0  0  0  0  0  0  0  0  0  0
   11.0152    9.8453    0.8205 H   0  0  0  0  0  0  0  0  0  0  0  0
   19.1289   10.9877    6.2350 H   0  0  0  0  0  0  0  0  0  0  0  0
   16.5766   14.8838    6.6561 H   0  0  0  0  0  0  0  0  0  0  0  0
   16.7125   15.1654    4.0149 H   0  0  0  0  0  0  0  0  0  0  0  0
   14.4090   15.7889    7.6207 H   0  0  0  0  0  0  0  0  0  0  0  0
   15.0763   16.8392    6.3252 H   0  0  0  0  0  0  0  0  0  0  0  0
   13.3316   16.4115    6.3252 H   0  0  0  0  0  0  0  0  0  0  0  0
   13.3345   12.3134    3.6430 H   0  0  0  0  0  0  0  0  0  0  0  0
   14.8828    7.2196    2.2570 H   0  0  0  0  0  0  0  0  0  0  0  0
 18  4  1  0
  4 17  1  0
  4 19  1  0
  4  3  1  0
 10 26  1  0
 10 24  2  0
 26 27  2  0
 25 24  1  0
  3 16  1  0
 24 23  1  0
 27 28  1  0
 27 22  1  0
 28  9  1  0
 23 22  2  0
 22  8  1  0
  9  8  2  0
 16 15  1  0
 20 15  2  0
  8  7  1  0
 15  1  1  0
  7 13  1  0
  7  2  2  0
 13  5  2  0
  2 12  1  0
  1 14  1  0
  1 21  1  0
  5 14  1  0
  5  6  1  0
 12  6  2  0
  6 11  1  0
  1 29  1  0
  3 30  1  0
  3 31  1  0
  9 32  1  0
 10 33  1  0
 12 34  1  0
 14 35  1  0
 16 36  1  0
 21 37  1  0
 21 38  1  0
 21 39  1  0
 23 40  1  0
 28 41  1  0
A    1
C1
A    2
N2
A    3
C3
A    4
C4
A    5
C5
A    6
C6
A    7
C8
A    8
C9
A    9
C10
A   10
C15
A   11
F3
A   12
C7
A   13
N3
A   14
N1
A   15
C2
A   16
N
A   17
F2
A   18
F1
A   19
F
A   20
O
A   21
C
A   22
C12
A   23
C13
A   24
C14
A   25
CL
A   26
N5
A   27
C11
A   28
N4
M  END
