4YTI_VJK_A_4000
     RDKit          3D

 47 49  0  0  0  0  0  0  0  0999 V2000
   13.9890   14.2990    5.1700 C   0  0  0  0  0  0  0  0  0  0  0  0
   15.3830   14.8910    5.4370 C   0  0  0  0  0  0  0  0  0  0  0  0
   15.4120   15.6390    6.7570 C   0  0  0  0  0  0  0  0  0  0  0  0
   15.7810   15.8880    4.3290 C   0  0  0  0  0  0  0  0  0  0  0  0
   16.8130   14.9170    2.2730 C   0  0  0  0  0  0  0  0  0  0  0  0
   15.7960   14.9090    1.1740 C   0  0  0  0  0  0  0  0  0  0  0  0
   16.5740   12.5180    4.9190 C   0  0  0  0  0  0  0  0  0  0  0  0
   17.8310   11.9080    5.1510 C   0  0  0  0  0  0  0  0  0  0  0  0
   18.0020   10.5950    4.7410 C   0  0  0  0  0  0  0  0  0  0  0  0
   15.7680   10.6110    3.9770 C   0  0  0  0  0  0  0  0  0  0  0  0
   14.6580    9.9230    3.3070 C   0  0  0  0  0  0  0  0  0  0  0  0
   14.7380    8.6070    2.9250 C   0  0  0  0  0  0  0  0  0  0  0  0
   12.7680    9.3290    2.1200 C   0  0  0  0  0  0  0  0  0  0  0  0
   16.2710   14.4300    0.1120 F   0  0  0  0  0  0  0  0  0  0  0  0
   15.3600   16.0570    0.8780 F   0  0  0  0  0  0  0  0  0  0  0  0
   14.7790   14.2390    1.4520 F   0  0  0  0  0  0  0  0  0  0  0  0
   16.8350   15.4880    3.6210 N   0  0  0  0  0  0  0  0  0  0  0  0
   15.1250   16.9110    4.1010 O   0  0  0  0  0  0  0  0  0  0  0  0
   13.0960   15.0560    4.1890 C   0  0  0  0  0  0  0  0  0  0  0  0
   16.3590   13.7910    5.4750 N   0  0  0  0  0  0  0  0  0  0  0  0
   15.5510   11.8890    4.3170 N   0  0  0  0  0  0  0  0  0  0  0  0
   17.0500    9.8600    4.1680 N   0  0  0  0  0  0  0  0  0  0  0  0
   13.3350   10.3990    2.8280 C   0  0  0  0  0  0  0  0  0  0  0  0
   12.6670   11.6200    2.7450 C   0  0  0  0  0  0  0  0  0  0  0  0
   11.5190   11.7300    1.9600 C   0  0  0  0  0  0  0  0  0  0  0  0
   11.0600   10.6240    1.2850 C   0  0  0  0  0  0  0  0  0  0  0  0
   11.6470    9.4060    1.3500 N   0  0  0  0  0  0  0  0  0  0  0  0
   13.6000    8.2440    2.2170 N   0  0  0  0  0  0  0  0  0  0  0  0
   13.4587   14.2491    6.1324 H   0  0  0  0  0  0  0  0  0  0  0  0
   14.1761   13.3242    4.6958 H   0  0  0  0  0  0  0  0  0  0  0  0
   15.3841   14.9183    7.5875 H   0  0  0  0  0  0  0  0  0  0  0  0
   16.3340   16.2357    6.8202 H   0  0  0  0  0  0  0  0  0  0  0  0
   14.5390   16.3053    6.8202 H   0  0  0  0  0  0  0  0  0  0  0  0
   16.9988   13.8475    2.4506 H   0  0  0  0  0  0  0  0  0  0  0  0
   17.4587   15.6832    1.8190 H   0  0  0  0  0  0  0  0  0  0  0  0
   18.6467   12.4594    5.6416 H   0  0  0  0  0  0  0  0  0  0  0  0
   18.9865   10.1303    4.8988 H   0  0  0  0  0  0  0  0  0  0  0  0
   15.5815    7.9370    3.1475 H   0  0  0  0  0  0  0  0  0  0  0  0
   17.7582   15.5904    4.0660 H   0  0  0  0  0  0  0  0  0  0  0  0
   12.3735   15.6684    4.7484 H   0  0  0  0  0  0  0  0  0  0  0  0
   13.7164   15.7075    3.5560 H   0  0  0  0  0  0  0  0  0  0  0  0
   12.5549   14.3373    3.5560 H   0  0  0  0  0  0  0  0  0  0  0  0
   17.1317   14.0299    6.1128 H   0  0  0  0  0  0  0  0  0  0  0  0
   13.0440   12.4938    3.2967 H   0  0  0  0  0  0  0  0  0  0  0  0
   10.9876   12.6900    1.8821 H   0  0  0  0  0  0  0  0  0  0  0  0
   10.1644   10.7351    0.6560 H   0  0  0  0  0  0  0  0  0  0  0  0
   13.4113    7.3094    1.8273 H   0  0  0  0  0  0  0  0  0  0  0  0
 14  6  1  0
 15  6  1  0
  6 16  1  0
  6  5  1  0
 26 27  1  0
 26 25  2  0
 27 13  2  0
 25 24  1  0
 13 28  1  0
 13 23  1  0
 28 12  1  0
  5 17  1  0
 24 23  2  0
 23 11  1  0
 12 11  2  0
 11 10  1  0
 17  4  1  0
 10 22  2  0
 10 21  1  0
 18  4  2  0
 22  9  1  0
 19  1  1  0
 21  7  2  0
  4  2  1  0
  9  8  2  0
  7  8  1  0
  7 20  1  0
  1  2  1  0
  2 20  1  0
  2  3  1  0
  1 29  1  0
  1 30  1  0
  3 31  1  0
  3 32  1  0
  3 33  1  0
  5 34  1  0
  5 35  1  0
  8 36  1  0
  9 37  1  0
 12 38  1  0
 17 39  1  0
 19 40  1  0
 19 41  1  0
 19 42  1  0
 20 43  1  0
 24 44  1  0
 25 45  1  0
 26 46  1  0
 28 47  1  0
A    1
C1
A    2
C2
A    3
C3
A    4
C4
A    5
C5
A    6
C6
A    7
C7
A    8
C8
A    9
C9
A   10
C10
A   11
C11
A   12
C12
A   13
C13
A   14
F2
A   15
F
A   16
F1
A   17
N
A   18
O
A   19
C
A   20
N1
A   21
N3
A   22
N2
A   23
C14
A   24
C15
A   25
C16
A   26
C17
A   27
N5
A   28
N4
M  END
