4YVC_4KH_A_501
     RDKit          3D

 31 33  0  0  0  0  0  0  0  0999 V2000
   50.0260  100.9640   25.3840 C   0  0  0  0  0  0  0  0  0  0  0  0
   49.9720   99.9920   24.3940 C   0  0  0  0  0  0  0  0  0  0  0  0
   50.5240   98.3160   25.9080 C   0  0  0  0  0  0  0  0  0  0  0  0
   51.3010  103.0180   32.1940 C   0  0  0  0  0  0  0  0  0  0  0  0
   51.3310  101.3440   34.0620 C   0  0  0  0  0  0  0  0  0  0  0  0
   51.4010  102.1230   31.1790 N   0  0  0  0  0  0  0  0  0  0  0  0
   52.3690  101.8500   36.1710 C   0  0  0  0  0  0  0  0  0  0  0  0
   52.7310  103.1050   35.6920 C   0  0  0  0  0  0  0  0  0  0  0  0
   51.6750  100.9710   35.3540 C   0  0  0  0  0  0  0  0  0  0  0  0
   50.9760  102.3020   29.8650 C   0  0  0  0  0  0  0  0  0  0  0  0
   50.4110  101.5930   27.7980 C   0  0  0  0  0  0  0  0  0  0  0  0
   50.3270  100.5780   26.7100 C   0  0  0  0  0  0  0  0  0  0  0  0
   50.5780   99.2150   26.9600 C   0  0  0  0  0  0  0  0  0  0  0  0
   51.7210  102.6080   33.5580 C   0  0  0  0  0  0  0  0  0  0  0  0
   52.4110  103.4960   34.4030 C   0  0  0  0  0  0  0  0  0  0  0  0
   50.8510  104.1380   32.0490 O   0  0  0  0  0  0  0  0  0  0  0  0
   50.8950  101.3290   29.0110 N   0  0  0  0  0  0  0  0  0  0  0  0
   50.0250  102.8740   27.6190 C   0  0  0  0  0  0  0  0  0  0  0  0
   50.3450  103.7660   29.1040 S   0  0  0  0  0  0  0  0  0  0  0  0
   50.2310   98.7190   24.6800 N   0  0  0  0  0  0  0  0  0  0  0  0
   50.6600  100.4720   33.2790 F   0  0  0  0  0  0  0  0  0  0  0  0
   49.8372  102.0198   25.1398 H   0  0  0  0  0  0  0  0  0  0  0  0
   49.7127  100.2772   23.3638 H   0  0  0  0  0  0  0  0  0  0  0  0
   50.7274   97.2512   26.0945 H   0  0  0  0  0  0  0  0  0  0  0  0
   51.8365  101.2171   31.4038 H   0  0  0  0  0  0  0  0  0  0  0  0
   52.6333  101.5554   37.1973 H   0  0  0  0  0  0  0  0  0  0  0  0
   53.2799  103.7972   36.3474 H   0  0  0  0  0  0  0  0  0  0  0  0
   51.3963   99.9757   35.7304 H   0  0  0  0  0  0  0  0  0  0  0  0
   50.8138   98.8691   27.9772 H   0  0  0  0  0  0  0  0  0  0  0  0
   52.6947  104.4955   34.0417 H   0  0  0  0  0  0  0  0  0  0  0  0
   49.5850  103.2906   26.7009 H   0  0  0  0  0  0  0  0  0  0  0  0
  2 20  1  0
  2  1  2  0
 20  3  2  0
  1 12  1  0
  3 13  1  0
 12 13  2  0
 12 11  1  0
 18 11  2  0
 18 19  1  0
 11 17  1  0
 17 10  2  0
 19 10  1  0
 10  6  1  0
  6  4  1  0
 16  4  2  0
  4 14  1  0
 21  5  1  0
 14  5  2  0
 14 15  1  0
  5  9  1  0
 15  8  2  0
  9  7  2  0
  8  7  1  0
  1 22  1  0
  2 23  1  0
  3 24  1  0
  6 25  1  0
  7 26  1  0
  8 27  1  0
  9 28  1  0
 13 29  1  0
 15 30  1  0
 18 31  1  0
A    1
C20
A    2
C19
A    3
C17
A    4
C7
A    5
C4
A    6
N9
A    7
C2
A    8
C1
A    9
C3
A   10
C10
A   11
C12
A   12
C15
A   13
C16
A   14
C5
A   15
C6
A   16
O8
A   17
N11
A   18
C13
A   19
S14
A   20
N18
A   21
F21
M  END
