4YVF_XFA_A_502
     RDKit          3D

 69 72  0  0  0  0  0  0  0  0999 V2000
   26.4340  160.2540   17.1720 C   0  0  0  0  0  0  0  0  0  0  0  0
   25.2090  158.1830   17.7640 C   0  0  0  0  0  0  0  0  0  0  0  0
   27.5490  158.5440   18.5360 C   0  0  0  0  0  0  0  0  0  0  0  0
   24.1850  160.4800   15.1410 C   0  0  0  0  0  0  0  0  0  0  0  0
   23.7270  161.8080   14.9160 C   0  0  0  0  0  0  0  0  0  0  0  0
   23.7120  162.3480   13.6060 C   0  0  0  0  0  0  0  0  0  0  0  0
   24.1530  161.5670   12.5160 C   0  0  0  0  0  0  0  0  0  0  0  0
   24.6110  160.2510   12.7280 C   0  0  0  0  0  0  0  0  0  0  0  0
   27.5820  159.7970   17.8870 C   0  0  0  0  0  0  0  0  0  0  0  0
   25.2340  159.4450   17.1020 C   0  0  0  0  0  0  0  0  0  0  0  0
   26.3650  157.7410   18.4760 C   0  0  0  0  0  0  0  0  0  0  0  0
   28.9390  157.9980   19.3900 Cl  0  0  0  0  0  0  0  0  0  0  0  0
   24.2010  159.9640   16.3930 O   0  0  0  0  0  0  0  0  0  0  0  0
   24.6280  159.7010   14.0460 C   0  0  0  0  0  0  0  0  0  0  0  0
   24.1330  162.2150   10.9380 Cl  0  0  0  0  0  0  0  0  0  0  0  0
   24.0580  157.3070   17.7520 N   0  0  0  0  0  0  0  0  0  0  0  0
   24.2100  155.8870   17.3460 C   0  0  0  0  0  0  0  0  0  0  0  0
   24.8320  155.4580   16.0610 C   0  0  0  0  0  0  0  0  0  0  0  0
   25.9980  154.7250   16.0010 N   0  0  0  0  0  0  0  0  0  0  0  0
   26.6300  154.3720   17.2420 N   0  0  0  0  0  0  0  0  0  0  0  0
   26.5460  154.3330   14.6780 C   0  0  0  0  0  0  0  0  0  0  0  0
   24.2720  155.7750   14.9930 O   0  0  0  0  0  0  0  0  0  0  0  0
   26.5150  153.0400   17.8170 C   0  0  0  0  0  0  0  0  0  0  0  0
   27.7300  152.8460   18.7090 C   0  0  0  0  0  0  0  0  0  0  0  0
   28.6690  153.8500   18.3850 C   0  0  0  0  0  0  0  0  0  0  0  0
   28.0770  154.7040   17.2880 C   0  0  0  0  0  0  0  0  0  0  0  0
   28.0190  151.8950   19.7090 C   0  0  0  0  0  0  0  0  0  0  0  0
   29.2600  151.9450   20.3920 C   0  0  0  0  0  0  0  0  0  0  0  0
   30.2050  152.9500   20.0690 C   0  0  0  0  0  0  0  0  0  0  0  0
   29.9080  153.9050   19.0640 C   0  0  0  0  0  0  0  0  0  0  0  0
   22.7190  157.7670   18.1820 C   0  0  0  0  0  0  0  0  0  0  0  0
   21.6580  157.7680   17.0770 C   0  0  0  0  0  0  0  0  0  0  0  0
   21.9640  157.3740   15.8060 N   0  0  0  0  0  0  0  0  0  0  0  0
   20.9830  157.3700   14.7100 C   0  0  0  0  0  0  0  0  0  0  0  0
   21.0730  158.7290   13.9840 C   0  0  0  0  0  0  0  0  0  0  0  0
   20.2160  158.7420   12.7970 N   0  0  0  0  0  0  0  0  0  0  0  0
   20.3290  160.0480   12.1330 C   0  0  0  0  0  0  0  0  0  0  0  0
   20.5280  158.1310   17.3420 O   0  0  0  0  0  0  0  0  0  0  0  0
   26.4608  161.2316   16.6684 H   0  0  0  0  0  0  0  0  0  0  0  0
   23.3827  162.4189   15.7635 H   0  0  0  0  0  0  0  0  0  0  0  0
   23.3568  163.3755   13.4385 H   0  0  0  0  0  0  0  0  0  0  0  0
   24.9561  159.6462   11.8765 H   0  0  0  0  0  0  0  0  0  0  0  0
   28.4884  160.4187   17.9320 H   0  0  0  0  0  0  0  0  0  0  0  0
   26.3457  156.7671   18.9871 H   0  0  0  0  0  0  0  0  0  0  0  0
   24.9849  158.6734   14.2096 H   0  0  0  0  0  0  0  0  0  0  0  0
   23.1940  155.4654   17.3430 H   0  0  0  0  0  0  0  0  0  0  0  0
   24.9579  155.5364   18.0724 H   0  0  0  0  0  0  0  0  0  0  0  0
   27.4330  153.6985   14.8219 H   0  0  0  0  0  0  0  0  0  0  0  0
   25.7830  153.7745   14.1159 H   0  0  0  0  0  0  0  0  0  0  0  0
   26.8281  155.2355   14.1159 H   0  0  0  0  0  0  0  0  0  0  0  0
   25.5921  152.9611   18.4103 H   0  0  0  0  0  0  0  0  0  0  0  0
   26.4726  152.2711   17.0315 H   0  0  0  0  0  0  0  0  0  0  0  0
   28.5529  154.4709   16.3240 H   0  0  0  0  0  0  0  0  0  0  0  0
   28.2373  155.7748   17.4820 H   0  0  0  0  0  0  0  0  0  0  0  0
   27.2833  151.1162   19.9585 H   0  0  0  0  0  0  0  0  0  0  0  0
   29.4892  151.2042   21.1722 H   0  0  0  0  0  0  0  0  0  0  0  0
   31.1688  152.9893   20.5978 H   0  0  0  0  0  0  0  0  0  0  0  0
   30.6398  154.6870   18.8131 H   0  0  0  0  0  0  0  0  0  0  0  0
   22.8159  158.7936   18.5651 H   0  0  0  0  0  0  0  0  0  0  0  0
   22.3742  157.0521   18.9436 H   0  0  0  0  0  0  0  0  0  0  0  0
   22.9260  157.0654   15.6055 H   0  0  0  0  0  0  0  0  0  0  0  0
   19.9703  157.2301   15.1160 H   0  0  0  0  0  0  0  0  0  0  0  0
   21.1954  156.5483   14.0102 H   0  0  0  0  0  0  0  0  0  0  0  0
   22.1148  158.9065   13.6786 H   0  0  0  0  0  0  0  0  0  0  0  0
   20.7356  159.5189   14.6712 H   0  0  0  0  0  0  0  0  0  0  0  0
   19.2378  158.5813   13.0767 H   0  0  0  0  0  0  0  0  0  0  0  0
   20.3976  160.8408   12.8925 H   0  0  0  0  0  0  0  0  0  0  0  0
   21.2318  160.0630   11.5047 H   0  0  0  0  0  0  0  0  0  0  0  0
   19.4422  160.2179   11.5047 H   0  0  0  0  0  0  0  0  0  0  0  0
 15  7  1  0
 37 36  1  0
  7  8  2  0
  7  6  1  0
  8 14  1  0
 36 35  1  0
  6  5  2  0
 35 34  1  0
 14  4  2  0
 21 19  1  0
 34 33  1  0
  5  4  1  0
 22 18  2  0
  4 13  1  0
 33 32  1  0
 19 18  1  0
 19 20  1  0
 18 17  1  0
 13 10  1  0
 32 38  2  0
 32 31  1  0
 10  1  2  0
 10  2  1  0
  1  9  1  0
 20 26  1  0
 20 23  1  0
 26 25  1  0
 17 16  1  0
 16  2  1  0
 16 31  1  0
  2 11  2  0
 23 24  1  0
  9  3  2  0
 25 24  2  0
 25 30  1  0
 11  3  1  0
  3 12  1  0
 24 27  1  0
 30 29  2  0
 27 28  2  0
 29 28  1  0
  1 39  1  0
  5 40  1  0
  6 41  1  0
  8 42  1  0
  9 43  1  0
 11 44  1  0
 14 45  1  0
 17 46  1  0
 17 47  1  0
 21 48  1  0
 21 49  1  0
 21 50  1  0
 23 51  1  0
 23 52  1  0
 26 53  1  0
 26 54  1  0
 27 55  1  0
 28 56  1  0
 29 57  1  0
 30 58  1  0
 31 59  1  0
 31 60  1  0
 33 61  1  0
 34 62  1  0
 34 63  1  0
 35 64  1  0
 35 65  1  0
 36 66  1  0
 37 67  1  0
 37 68  1  0
 37 69  1  0
A    1
C2
A    2
C4
A    3
C6
A    4
C9
A    5
C14
A    6
C13
A    7
C12
A    8
C11
A    9
C1
A   10
C3
A   11
C5
A   12
CL1
A   13
O8
A   14
C10
A   15
CL2
A   16
N16
A   17
C17
A   18
C18
A   19
N19
A   20
N20
A   21
C21
A   22
O22
A   23
C23
A   24
C24
A   25
C25
A   26
C26
A   27
C27
A   28
C28
A   29
C29
A   30
C30
A   31
C31
A   32
C32
A   33
N33
A   34
C34
A   35
C35
A   36
N36
A   37
C37
A   38
O38
M  END
