4YW6_G0P_A_902
     RDKit          3D

 69 71  0  0  0  0  0  0  0  0999 V2000
  -10.2370   13.6910   54.8850 C   0  0  0  0  0  0  0  0  0  0  0  0
  -10.7830   13.5840   53.4730 C   0  0  0  0  0  0  0  0  0  0  0  0
   -9.9890   12.4100   52.9540 C   0  0  0  0  0  0  0  0  0  0  0  0
   -8.6250   12.6120   53.6320 C   0  0  0  0  0  0  0  0  0  0  0  0
   -8.8130   13.5760   54.6980 N   0  0  0  0  0  0  0  0  0  0  0  0
   -7.7570   14.2940   55.4430 C   0  0  0  0  0  0  0  0  0  0  0  0
   -8.0370   15.0740   56.3300 O   0  0  0  0  0  0  0  0  0  0  0  0
   -6.3020   14.0000   55.1000 C   0  0  0  0  0  0  0  0  0  0  0  0
   -5.6080   13.4030   56.3370 C   0  0  0  0  0  0  0  0  0  0  0  0
   -4.8320   14.4040   57.2210 C   0  0  0  0  0  0  0  0  0  0  0  0
   -5.1760   14.2070   58.7210 C   0  0  0  0  0  0  0  0  0  0  0  0
   -4.0090   13.6030   59.4950 C   0  0  0  0  0  0  0  0  0  0  0  0
   -4.4630   13.0900   60.7540 N   0  0  0  0  0  0  0  0  0  0  0  0
   -5.5640   15.0930   54.5140 N   0  0  0  0  0  0  0  0  0  0  0  0
   -4.4680   14.6880   53.6740 C   0  0  0  0  0  0  0  0  0  0  0  0
   -4.2970   13.4910   53.5640 O   0  0  0  0  0  0  0  0  0  0  0  0
   -3.4600   15.5420   52.8760 C   0  0  0  0  0  0  0  0  0  0  0  0
   -3.5380   17.0340   52.5360 C   0  0  0  0  0  0  0  0  0  0  0  0
   -2.5310   17.6130   51.7780 C   0  0  0  0  0  0  0  0  0  0  0  0
   -1.3790   16.7490   51.3040 C   0  0  0  0  0  0  0  0  0  0  0  0
   -1.3300   15.4380   51.5960 C   0  0  0  0  0  0  0  0  0  0  0  0
   -2.4260   14.8060   52.4150 C   0  0  0  0  0  0  0  0  0  0  0  0
   -0.2560   17.1930   50.5110 O   0  0  0  0  0  0  0  0  0  0  0  0
   -0.3360   18.4390   49.8550 C   0  0  0  0  0  0  0  0  0  0  0  0
   -1.2320   18.3510   48.7610 O   0  0  0  0  0  0  0  0  0  0  0  0
   -1.3560   19.6070   48.1190 C   0  0  0  0  0  0  0  0  0  0  0  0
   -2.3600   19.4390   47.0080 C   0  0  0  0  0  0  0  0  0  0  0  0
   -3.6180   19.1050   47.5600 O   0  0  0  0  0  0  0  0  0  0  0  0
   -0.0340   20.0960   47.5640 C   0  0  0  0  0  0  0  0  0  0  0  0
    0.4570   19.2720   46.5240 O   0  0  0  0  0  0  0  0  0  0  0  0
    1.0000   20.0990   48.6680 C   0  0  0  0  0  0  0  0  0  0  0  0
    2.2490   20.3400   48.0950 O   0  0  0  0  0  0  0  0  0  0  0  0
    1.0360   18.7650   49.3590 C   0  0  0  0  0  0  0  0  0  0  0  0
    1.9590   18.8090   50.4280 O   0  0  0  0  0  0  0  0  0  0  0  0
  -10.4984   14.6594   55.3365 H   0  0  0  0  0  0  0  0  0  0  0  0
  -10.6455   12.9281   55.5640 H   0  0  0  0  0  0  0  0  0  0  0  0
  -10.5845   14.4964   52.8915 H   0  0  0  0  0  0  0  0  0  0  0  0
  -11.8743   13.4590   53.4138 H   0  0  0  0  0  0  0  0  0  0  0  0
  -10.4460   11.4557   53.2549 H   0  0  0  0  0  0  0  0  0  0  0  0
   -9.9332   12.3667   51.8563 H   0  0  0  0  0  0  0  0  0  0  0  0
   -8.2652   11.6584   54.0458 H   0  0  0  0  0  0  0  0  0  0  0  0
   -7.8793   12.9720   52.9079 H   0  0  0  0  0  0  0  0  0  0  0  0
   -6.3116   13.2629   54.2836 H   0  0  0  0  0  0  0  0  0  0  0  0
   -6.3799   12.9293   56.9613 H   0  0  0  0  0  0  0  0  0  0  0  0
   -4.8550   12.7020   55.9478 H   0  0  0  0  0  0  0  0  0  0  0  0
   -3.7526   14.2493   57.0765 H   0  0  0  0  0  0  0  0  0  0  0  0
   -5.1187   15.4247   56.9277 H   0  0  0  0  0  0  0  0  0  0  0  0
   -5.4269   15.1839   59.1600 H   0  0  0  0  0  0  0  0  0  0  0  0
   -6.0268   13.5130   58.7884 H   0  0  0  0  0  0  0  0  0  0  0  0
   -3.5676   12.7848   58.9070 H   0  0  0  0  0  0  0  0  0  0  0  0
   -3.2557   14.3839   59.6761 H   0  0  0  0  0  0  0  0  0  0  0  0
   -4.0064   13.6059   61.5197 H   0  0  0  0  0  0  0  0  0  0  0  0
   -5.4842   13.2051   60.8235 H   0  0  0  0  0  0  0  0  0  0  0  0
   -5.8019   16.0808   54.6829 H   0  0  0  0  0  0  0  0  0  0  0  0
   -4.3848   17.6404   52.8898 H   0  0  0  0  0  0  0  0  0  0  0  0
   -2.5677   18.6828   51.5246 H   0  0  0  0  0  0  0  0  0  0  0  0
   -0.4895   14.8259   51.2370 H   0  0  0  0  0  0  0  0  0  0  0  0
   -2.3830   13.7302   52.6404 H   0  0  0  0  0  0  0  0  0  0  0  0
   -0.7025   19.2183   50.5394 H   0  0  0  0  0  0  0  0  0  0  0  0
   -1.6850   20.3633   48.8469 H   0  0  0  0  0  0  0  0  0  0  0  0
   -2.0300   18.6354   46.3333 H   0  0  0  0  0  0  0  0  0  0  0  0
   -2.4441   20.3789   46.4428 H   0  0  0  0  0  0  0  0  0  0  0  0
   -3.5594   19.1206   48.5481 H   0  0  0  0  0  0  0  0  0  0  0  0
   -0.2103   21.1042   47.1609 H   0  0  0  0  0  0  0  0  0  0  0  0
    0.9227   18.4904   46.9142 H   0  0  0  0  0  0  0  0  0  0  0  0
    0.7450   20.8749   49.4048 H   0  0  0  0  0  0  0  0  0  0  0  0
    2.9208   20.4696   48.8105 H   0  0  0  0  0  0  0  0  0  0  0  0
    1.3584   17.9821   48.6568 H   0  0  0  0  0  0  0  0  0  0  0  0
    1.4692   18.7857   51.2880 H   0  0  0  0  0  0  0  0  0  0  0  0
 30 29  1  0
 27 28  1  0
 27 26  1  0
 29 26  1  0
 29 31  1  0
 32 31  1  0
 26 25  1  0
 31 33  1  0
 25 24  1  0
 33 24  1  0
 33 34  1  0
 24 23  1  0
 23 20  1  0
 20 21  2  0
 20 19  1  0
 21 22  1  0
 19 18  2  0
 22 17  2  0
 18 17  1  0
 17 15  1  0
  3  2  1  0
  3  4  1  0
  2  1  1  0
 16 15  2  0
  4  5  1  0
 15 14  1  0
 14  8  1  0
  5  1  1  0
  5  6  1  0
  8  6  1  0
  8  9  1  0
  6  7  2  0
  9 10  1  0
 10 11  1  0
 11 12  1  0
 12 13  1  0
  1 35  1  0
  1 36  1  0
  2 37  1  0
  2 38  1  0
  3 39  1  0
  3 40  1  0
  4 41  1  0
  4 42  1  0
  8 43  1  0
  9 44  1  0
  9 45  1  0
 10 46  1  0
 10 47  1  0
 11 48  1  0
 11 49  1  0
 12 50  1  0
 12 51  1  0
 13 52  1  0
 13 53  1  0
 14 54  1  0
 18 55  1  0
 19 56  1  0
 21 57  1  0
 22 58  1  0
 24 59  1  0
 26 60  1  0
 27 61  1  0
 27 62  1  0
 28 63  1  0
 29 64  1  0
 30 65  1  0
 31 66  1  0
 32 67  1  0
 33 68  1  0
 34 69  1  0
A    1
C12
A    2
C13
A    3
C14
A    4
C15
A    5
N16
A    6
C17
A    7
O18
A    8
C19
A    9
C20
A   10
C21
A   11
C22
A   12
C23
A   13
N24
A   14
N25
A   15
C26
A   16
O27
A   17
C28
A   18
C29
A   19
C30
A   20
C31
A   21
C32
A   22
C33
A   23
O34
A   24
C35
A   25
O36
A   26
C37
A   27
C38
A   28
O39
A   29
C40
A   30
O41
A   31
C42
A   32
O43
A   33
C44
A   34
O45
M  END
