1O4N_OXD_A_109
     RDKit          3D

  8  7  0  0  0  0  0  0  0  0999 V2000
   15.1570   28.5040   17.9410 C   0  0  0  0  0  0  0  0  0  0  0  0
   16.6000   28.3120   17.4930 C   0  0  0  0  0  0  0  0  0  0  0  0
   15.0390   28.1190   19.1740 O   0  0  0  0  0  0  0  0  0  0  0  0
   17.4950   28.2440   18.3880 O   0  0  0  0  0  0  0  0  0  0  0  0
   14.3100   28.7370   17.0430 O   0  0  0  0  0  0  0  0  0  0  0  0
   16.8690   28.0340   16.3790 O   0  0  0  0  0  0  0  0  0  0  0  0
   13.3853   28.9914   17.2887 H   0  0  0  0  0  0  0  0  0  0  0  0
   17.5451   27.3353   16.1926 H   0  0  0  0  0  0  0  0  0  0  0  0
  1  2  1  0
  1  3  2  0
  1  5  1  0
  2  4  2  0
  2  6  1  0
  5  7  1  0
  6  8  1  0
A    1
C1
A    2
C2
A    3
O3
A    4
O4
A    5
O5
A    6
O6
M  END
