4YYL_4KN_A_301
     RDKit          3D

 31 32  0  0  0  0  0  0  0  0999 V2000
  -35.9980    3.7930   15.7100 C   0  0  0  0  0  0  0  0  0  0  0  0
  -37.2240    3.1680   15.4680 C   0  0  0  0  0  0  0  0  0  0  0  0
  -37.5500    1.9090   15.9740 C   0  0  0  0  0  0  0  0  0  0  0  0
  -38.9680    1.2530   15.7150 F   0  0  0  0  0  0  0  0  0  0  0  0
  -36.5970    1.2380   16.7190 C   0  0  0  0  0  0  0  0  0  0  0  0
  -35.3690    1.8500   16.9410 C   0  0  0  0  0  0  0  0  0  0  0  0
  -35.0130    3.0990   16.4060 C   0  0  0  0  0  0  0  0  0  0  0  0
  -33.7750    3.6830   16.6530 O   0  0  0  0  0  0  0  0  0  0  0  0
  -32.8110    2.8440   17.3730 C   0  0  0  0  0  0  0  0  0  0  0  0
  -32.5010    1.6950   16.3570 C   0  0  0  0  0  0  0  0  0  0  0  0
  -32.7440    1.9060   15.1640 O   0  0  0  0  0  0  0  0  0  0  0  0
  -31.8160    0.5200   16.7360 C   0  0  0  0  0  0  0  0  0  0  0  0
  -31.0410    0.3890   17.9000 C   0  0  0  0  0  0  0  0  0  0  0  0
  -30.3440   -0.8010   18.1760 C   0  0  0  0  0  0  0  0  0  0  0  0
  -30.4130   -1.8730   17.2510 C   0  0  0  0  0  0  0  0  0  0  0  0
  -29.7710   -3.0800   17.3790 O   0  0  0  0  0  0  0  0  0  0  0  0
  -31.1270   -1.7280   16.0800 C   0  0  0  0  0  0  0  0  0  0  0  0
  -31.1680   -2.7690   15.2100 O   0  0  0  0  0  0  0  0  0  0  0  0
  -31.7820   -0.5320   15.8070 C   0  0  0  0  0  0  0  0  0  0  0  0
  -32.5360   -0.4420   14.6810 O   0  0  0  0  0  0  0  0  0  0  0  0
  -35.8143    4.8180   15.3557 H   0  0  0  0  0  0  0  0  0  0  0  0
  -37.9670    3.6930   14.8497 H   0  0  0  0  0  0  0  0  0  0  0  0
  -36.8071    0.2387   17.1281 H   0  0  0  0  0  0  0  0  0  0  0  0
  -34.6346    1.3268   17.5711 H   0  0  0  0  0  0  0  0  0  0  0  0
  -33.2514    2.4434   18.2980 H   0  0  0  0  0  0  0  0  0  0  0  0
  -31.9118    3.3948   17.6861 H   0  0  0  0  0  0  0  0  0  0  0  0
  -30.9782    1.2298   18.6064 H   0  0  0  0  0  0  0  0  0  0  0  0
  -29.7526   -0.8987   19.0983 H   0  0  0  0  0  0  0  0  0  0  0  0
  -29.5771   -3.4446   18.2788 H   0  0  0  0  0  0  0  0  0  0  0  0
  -31.2046   -3.6978   15.5508 H   0  0  0  0  0  0  0  0  0  0  0  0
  -33.5166   -0.3249   14.7500 H   0  0  0  0  0  0  0  0  0  0  0  0
 20 19  1  0
 11 10  2  0
 18 17  1  0
  2  1  2  0
  2  3  1  0
  1  7  1  0
  4  3  1  0
 19 17  2  0
 19 12  1  0
  3  5  2  0
 17 15  1  0
 10 12  1  0
 10  9  1  0
  7  8  1  0
  7  6  2  0
  8  9  1  0
  5  6  1  0
 12 13  2  0
 15 16  1  0
 15 14  2  0
 13 14  1  0
  1 21  1  0
  2 22  1  0
  5 23  1  0
  6 24  1  0
  9 25  1  0
  9 26  1  0
 13 27  1  0
 14 28  1  0
 16 29  1  0
 18 30  1  0
 20 31  1  0
A    1
CAO
A    2
CAQ
A    3
CAS
A    4
FAT
A    5
CAR
A    6
CAP
A    7
CAN
A    8
OAM
A    9
CAL
A   10
CAJ
A   11
OAK
A   12
CAC
A   13
CAB
A   14
CAA
A   15
CAF
A   16
OAI
A   17
CAE
A   18
OAH
A   19
CAD
A   20
OAG
M  END
