4YZ9_4K7_A_1001
     RDKit          3D

 59 62  0  0  0  0  0  0  0  0999 V2000
  -72.1360   17.4250  -18.1970 C   0  0  0  0  0  0  0  0  0  0  0  0
  -70.4360   18.9130  -17.3040 C   0  0  0  0  0  0  0  0  0  0  0  0
  -72.8920   18.5340  -18.5940 C   0  0  0  0  0  0  0  0  0  0  0  0
  -71.1920   20.0210  -17.7030 C   0  0  0  0  0  0  0  0  0  0  0  0
  -67.2500   22.9080  -14.5350 C   0  0  0  0  0  0  0  0  0  0  0  0
  -66.8930   21.5550  -14.5080 C   0  0  0  0  0  0  0  0  0  0  0  0
  -67.7600   22.7250  -16.8880 C   0  0  0  0  0  0  0  0  0  0  0  0
  -70.9090   17.6220  -17.5550 C   0  0  0  0  0  0  0  0  0  0  0  0
  -72.4180   19.8310  -18.3510 C   0  0  0  0  0  0  0  0  0  0  0  0
  -67.6890   23.4980  -15.7250 C   0  0  0  0  0  0  0  0  0  0  0  0
  -66.9690   20.7830  -15.6740 C   0  0  0  0  0  0  0  0  0  0  0  0
  -67.4050   21.3730  -16.8630 C   0  0  0  0  0  0  0  0  0  0  0  0
  -73.3730   22.1020  -16.5870 C   0  0  0  0  0  0  0  0  0  0  0  0
  -73.6020   24.3150  -13.5690 C   0  0  0  0  0  0  0  0  0  0  0  0
  -72.2920   25.1180  -13.6870 C   0  0  0  0  0  0  0  0  0  0  0  0
  -71.4120   26.5310  -15.6070 C   0  0  0  0  0  0  0  0  0  0  0  0
  -73.5790   22.9940  -14.3420 C   0  0  0  0  0  0  0  0  0  0  0  0
  -72.6520   24.4510  -16.1400 C   0  0  0  0  0  0  0  0  0  0  0  0
  -69.8910   26.5370  -15.8620 C   0  0  0  0  0  0  0  0  0  0  0  0
  -70.3450   24.3450  -15.1300 C   0  0  0  0  0  0  0  0  0  0  0  0
  -71.6980   25.0980  -15.1160 C   0  0  0  0  0  0  0  0  0  0  0  0
  -70.0900   16.4420  -17.1170 C   0  0  0  0  0  0  0  0  0  0  0  0
  -73.2420   21.0200  -18.7790 C   0  0  0  0  0  0  0  0  0  0  0  0
  -68.0800   24.9640  -15.7510 C   0  0  0  0  0  0  0  0  0  0  0  0
  -73.2090   23.1380  -15.7550 N   0  0  0  0  0  0  0  0  0  0  0  0
  -73.0330   22.1650  -17.8760 N   0  0  0  0  0  0  0  0  0  0  0  0
  -69.5180   25.1260  -16.0550 N   0  0  0  0  0  0  0  0  0  0  0  0
  -73.8660   21.0470  -16.1290 O   0  0  0  0  0  0  0  0  0  0  0  0
  -66.5300   19.1010  -15.6510 Cl  0  0  0  0  0  0  0  0  0  0  0  0
  -67.5120   20.4350  -18.3210 Cl  0  0  0  0  0  0  0  0  0  0  0  0
  -72.5040   16.4062  -18.3884 H   0  0  0  0  0  0  0  0  0  0  0  0
  -69.4721   19.0578  -16.7942 H   0  0  0  0  0  0  0  0  0  0  0  0
  -73.8592   18.3879  -19.0972 H   0  0  0  0  0  0  0  0  0  0  0  0
  -70.8236   21.0389  -17.5078 H   0  0  0  0  0  0  0  0  0  0  0  0
  -67.1851   23.5100  -13.6166 H   0  0  0  0  0  0  0  0  0  0  0  0
  -66.5517   21.0966  -13.5681 H   0  0  0  0  0  0  0  0  0  0  0  0
  -68.0975   23.1838  -17.8291 H   0  0  0  0  0  0  0  0  0  0  0  0
  -74.4252   24.9321  -13.9583 H   0  0  0  0  0  0  0  0  0  0  0  0
  -73.7347   24.0660  -12.5058 H   0  0  0  0  0  0  0  0  0  0  0  0
  -71.5536   24.6881  -12.9942 H   0  0  0  0  0  0  0  0  0  0  0  0
  -72.5241   26.1648  -13.4414 H   0  0  0  0  0  0  0  0  0  0  0  0
  -71.6832   27.2698  -14.8385 H   0  0  0  0  0  0  0  0  0  0  0  0
  -71.9939   26.7978  -16.5015 H   0  0  0  0  0  0  0  0  0  0  0  0
  -74.5820   22.5452  -14.2906 H   0  0  0  0  0  0  0  0  0  0  0  0
  -72.8094   22.3632  -13.8732 H   0  0  0  0  0  0  0  0  0  0  0  0
  -72.0990   24.3206  -17.0819 H   0  0  0  0  0  0  0  0  0  0  0  0
  -73.5132   25.1308  -16.2192 H   0  0  0  0  0  0  0  0  0  0  0  0
  -69.3582   26.9606  -14.9979 H   0  0  0  0  0  0  0  0  0  0  0  0
  -69.6264   27.1517  -16.7350 H   0  0  0  0  0  0  0  0  0  0  0  0
  -70.4738   23.3150  -15.4941 H   0  0  0  0  0  0  0  0  0  0  0  0
  -69.8968   24.2582  -14.1292 H   0  0  0  0  0  0  0  0  0  0  0  0
  -70.0625   16.4024  -16.0181 H   0  0  0  0  0  0  0  0  0  0  0  0
  -70.5416   15.5175  -17.5060 H   0  0  0  0  0  0  0  0  0  0  0  0
  -69.0659   16.5417  -17.5060 H   0  0  0  0  0  0  0  0  0  0  0  0
  -72.9509   21.3098  -19.7994 H   0  0  0  0  0  0  0  0  0  0  0  0
  -74.3047   20.7382  -18.7445 H   0  0  0  0  0  0  0  0  0  0  0  0
  -67.4894   25.4797  -16.5225 H   0  0  0  0  0  0  0  0  0  0  0  0
  -67.8817   25.3962  -14.7591 H   0  0  0  0  0  0  0  0  0  0  0  0
  -72.6164   23.0310  -18.2466 H   0  0  0  0  0  0  0  0  0  0  0  0
 23  9  1  0
 23 26  1  0
  4  9  2  0
  4  2  1  0
 30 12  1  0
  9  3  1  0
  2  8  2  0
  3  1  2  0
 26 13  1  0
  8  1  1  0
  8 22  1  0
 12  7  2  0
 12 11  1  0
  7 10  1  0
 13 28  2  0
 13 25  1  0
 18 25  1  0
 18 21  1  0
 27 19  1  0
 27 24  1  0
 27 20  1  0
 29 11  1  0
 19 16  1  0
 11  6  2  0
 16 21  1  0
 10 24  1  0
 10  5  2  0
 25 17  1  0
 21 20  1  0
 21 15  1  0
  6  5  1  0
 17 14  1  0
 15 14  1  0
  1 31  1  0
  2 32  1  0
  3 33  1  0
  4 34  1  0
  5 35  1  0
  6 36  1  0
  7 37  1  0
 14 38  1  0
 14 39  1  0
 15 40  1  0
 15 41  1  0
 16 42  1  0
 16 43  1  0
 17 44  1  0
 17 45  1  0
 18 46  1  0
 18 47  1  0
 19 48  1  0
 19 49  1  0
 20 50  1  0
 20 51  1  0
 22 52  1  0
 22 53  1  0
 22 54  1  0
 23 55  1  0
 23 56  1  0
 24 57  1  0
 24 58  1  0
 26 59  1  0
A    1
C1
A    2
C2
A    3
C3
A    4
C4
A    5
C5
A    6
C6
A    7
C7
A    8
C8
A    9
C9
A   10
C10
A   11
C11
A   12
C12
A   13
C13
A   14
C14
A   15
C15
A   16
C16
A   17
C17
A   18
C18
A   19
C19
A   20
C20
A   21
C21
A   22
C22
A   23
C23
A   24
C24
A   25
N25
A   26
N26
A   27
N27
A   28
O28
A   29
CL1
A   30
CL2
M  END
