4YZM_4K4_A_1301
     RDKit          3D

 80 85  0  0  0  0  0  0  0  0999 V2000
  -21.6110  -10.4730  -30.4760 C   0  0  0  0  0  0  0  0  0  0  0  0
  -22.4590  -10.0990  -29.4240 C   0  0  0  0  0  0  0  0  0  0  0  0
  -23.7990  -10.4460  -29.5550 C   0  0  0  0  0  0  0  0  0  0  0  0
  -24.2160  -11.1180  -30.7060 N   0  0  0  0  0  0  0  0  0  0  0  0
  -22.0750  -11.1100  -31.5840 N   0  0  0  0  0  0  0  0  0  0  0  0
  -14.3050  -14.8380  -37.2370 C   0  0  0  0  0  0  0  0  0  0  0  0
  -13.4100  -15.8890  -37.9410 C   0  0  0  0  0  0  0  0  0  0  0  0
  -14.1920  -17.1000  -38.2900 N   0  0  0  0  0  0  0  0  0  0  0  0
  -13.4550  -18.0020  -39.1970 C   0  0  0  0  0  0  0  0  0  0  0  0
  -14.5960  -17.8040  -37.0570 C   0  0  0  0  0  0  0  0  0  0  0  0
  -15.3670  -16.8770  -36.0710 C   0  0  0  0  0  0  0  0  0  0  0  0
  -15.4270  -15.4280  -36.4390 N   0  0  0  0  0  0  0  0  0  0  0  0
  -16.8150  -14.8850  -36.6240 C   0  0  0  0  0  0  0  0  0  0  0  0
  -17.1070  -13.6090  -35.7640 C   0  0  0  0  0  0  0  0  0  0  0  0
  -18.5380  -13.0120  -36.0210 C   0  0  0  0  0  0  0  0  0  0  0  0
  -17.1890  -14.6340  -38.1070 C   0  0  0  0  0  0  0  0  0  0  0  0
  -18.6870  -14.2670  -38.2870 C   0  0  0  0  0  0  0  0  0  0  0  0
  -19.3810  -13.7380  -37.0580 N   0  0  0  0  0  0  0  0  0  0  0  0
  -20.7470  -13.9290  -36.9670 C   0  0  0  0  0  0  0  0  0  0  0  0
  -21.3620  -14.5270  -37.8510 O   0  0  0  0  0  0  0  0  0  0  0  0
  -21.5280  -13.4560  -35.8870 C   0  0  0  0  0  0  0  0  0  0  0  0
  -22.5420  -14.2640  -35.3220 C   0  0  0  0  0  0  0  0  0  0  0  0
  -23.3320  -13.7580  -34.2620 C   0  0  0  0  0  0  0  0  0  0  0  0
  -24.3320  -14.4810  -33.5950 O   0  0  0  0  0  0  0  0  0  0  0  0
  -25.4000  -15.0370  -34.3090 C   0  0  0  0  0  0  0  0  0  0  0  0
  -21.3320  -12.1570  -35.3870 C   0  0  0  0  0  0  0  0  0  0  0  0
  -22.0770  -11.6580  -34.3250 C   0  0  0  0  0  0  0  0  0  0  0  0
  -23.0580  -12.4600  -33.7650 C   0  0  0  0  0  0  0  0  0  0  0  0
  -23.8310  -12.0550  -32.7650 N   0  0  0  0  0  0  0  0  0  0  0  0
  -23.3570  -11.4380  -31.6920 C   0  0  0  0  0  0  0  0  0  0  0  0
  -20.2960  -10.1830  -30.5790 N   0  0  0  0  0  0  0  0  0  0  0  0
  -19.2980  -11.1270  -31.1840 C   0  0  0  0  0  0  0  0  0  0  0  0
  -19.8690   -8.9650  -30.2680 C   0  0  0  0  0  0  0  0  0  0  0  0
  -19.0900   -8.4390  -31.2920 C   0  0  0  0  0  0  0  0  0  0  0  0
  -18.5740   -7.1780  -31.1660 C   0  0  0  0  0  0  0  0  0  0  0  0
  -18.8670   -6.4680  -30.0090 C   0  0  0  0  0  0  0  0  0  0  0  0
  -19.6780   -6.9710  -28.9960 C   0  0  0  0  0  0  0  0  0  0  0  0
  -20.1920   -8.2530  -29.1220 C   0  0  0  0  0  0  0  0  0  0  0  0
  -21.0410   -8.6490  -28.0660 C   0  0  0  0  0  0  0  0  0  0  0  0
  -20.9170   -8.1650  -26.9270 O   0  0  0  0  0  0  0  0  0  0  0  0
  -22.1270   -9.4560  -28.2480 N   0  0  0  0  0  0  0  0  0  0  0  0
  -22.9300   -9.7240  -26.9600 C   0  0  0  0  0  0  0  0  0  0  0  0
  -24.5203  -10.1948  -28.7634 H   0  0  0  0  0  0  0  0  0  0  0  0
  -14.7363  -14.1804  -38.0061 H   0  0  0  0  0  0  0  0  0  0  0  0
  -13.6615  -14.2964  -36.5281 H   0  0  0  0  0  0  0  0  0  0  0  0
  -12.5885  -16.1725  -37.2666 H   0  0  0  0  0  0  0  0  0  0  0  0
  -13.0116  -15.4484  -38.8669 H   0  0  0  0  0  0  0  0  0  0  0  0
  -12.8688  -18.7194  -38.6040 H   0  0  0  0  0  0  0  0  0  0  0  0
  -14.1690  -18.5476  -39.8314 H   0  0  0  0  0  0  0  0  0  0  0  0
  -12.7780  -17.4111  -39.8314 H   0  0  0  0  0  0  0  0  0  0  0  0
  -13.6938  -18.1823  -36.5542 H   0  0  0  0  0  0  0  0  0  0  0  0
  -15.2705  -18.6241  -37.3441 H   0  0  0  0  0  0  0  0  0  0  0  0
  -16.3999  -17.2483  -35.9990 H   0  0  0  0  0  0  0  0  0  0  0  0
  -14.8049  -16.9185  -35.1264 H   0  0  0  0  0  0  0  0  0  0  0  0
  -17.4650  -15.6904  -36.2514 H   0  0  0  0  0  0  0  0  0  0  0  0
  -17.0242  -13.8763  -34.7002 H   0  0  0  0  0  0  0  0  0  0  0  0
  -16.3730  -12.8420  -36.0519 H   0  0  0  0  0  0  0  0  0  0  0  0
  -18.4146  -11.9712  -36.3548 H   0  0  0  0  0  0  0  0  0  0  0  0
  -19.0803  -13.1151  -35.0695 H   0  0  0  0  0  0  0  0  0  0  0  0
  -16.9773  -15.5464  -38.6838 H   0  0  0  0  0  0  0  0  0  0  0  0
  -16.5905  -13.7829  -38.4639 H   0  0  0  0  0  0  0  0  0  0  0  0
  -18.7551  -13.4985  -39.0711 H   0  0  0  0  0  0  0  0  0  0  0  0
  -19.1986  -15.2075  -38.5397 H   0  0  0  0  0  0  0  0  0  0  0  0
  -22.7159  -15.2806  -35.7044 H   0  0  0  0  0  0  0  0  0  0  0  0
  -26.1489  -15.4269  -33.6040 H   0  0  0  0  0  0  0  0  0  0  0  0
  -25.8599  -14.2638  -34.9420 H   0  0  0  0  0  0  0  0  0  0  0  0
  -25.0304  -15.8572  -34.9420 H   0  0  0  0  0  0  0  0  0  0  0  0
  -20.5666  -11.5166  -35.8497 H   0  0  0  0  0  0  0  0  0  0  0  0
  -21.8912  -10.6457  -33.9366 H   0  0  0  0  0  0  0  0  0  0  0  0
  -24.8446  -12.2279  -32.8255 H   0  0  0  0  0  0  0  0  0  0  0  0
  -18.7505  -11.6448  -30.3827 H   0  0  0  0  0  0  0  0  0  0  0  0
  -19.8232  -11.8665  -31.8063 H   0  0  0  0  0  0  0  0  0  0  0  0
  -18.5889  -10.5615  -31.8063 H   0  0  0  0  0  0  0  0  0  0  0  0
  -18.8899   -9.0319  -32.1967 H   0  0  0  0  0  0  0  0  0  0  0  0
  -17.9467   -6.7403  -31.9565 H   0  0  0  0  0  0  0  0  0  0  0  0
  -18.4385   -5.4622  -29.8877 H   0  0  0  0  0  0  0  0  0  0  0  0
  -19.9077   -6.3615  -28.1096 H   0  0  0  0  0  0  0  0  0  0  0  0
  -22.2989   -9.5134  -26.0840 H   0  0  0  0  0  0  0  0  0  0  0  0
  -23.8164   -9.0730  -26.9384 H   0  0  0  0  0  0  0  0  0  0  0  0
  -23.2477  -10.7769  -26.9384 H   0  0  0  0  0  0  0  0  0  0  0  0
 16 17  1  0
 16 13  1  0
 17 18  1  0
 10 11  1  0
 10  8  1  0
 11 12  1  0
 20 19  2  0
  9  8  1  0
  8  7  1  0
 12 13  1  0
 12  6  1  0
 13 14  1  0
 18 19  1  0
 18 15  1  0
 19 21  1  0
 14 15  1  0
  7  6  1  0
 21 22  2  0
 21 26  1  0
 22 23  1  0
 26 27  2  0
 25 24  1  0
 23 24  1  0
 23 28  2  0
 27 28  1  0
 28 29  1  0
 29 30  1  0
 30  5  2  0
 30  4  1  0
  5  1  1  0
 34 35  2  0
 34 33  1  0
  4  3  2  0
 32 31  1  0
 35 36  1  0
  1 31  1  0
  1  2  2  0
 31 33  1  0
 33 38  2  0
  3  2  1  0
 36 37  2  0
  2 41  1  0
 38 37  1  0
 38 39  1  0
 41 39  1  0
 41 42  1  0
 39 40  2  0
  3 43  1  0
  6 44  1  0
  6 45  1  0
  7 46  1  0
  7 47  1  0
  9 48  1  0
  9 49  1  0
  9 50  1  0
 10 51  1  0
 10 52  1  0
 11 53  1  0
 11 54  1  0
 13 55  1  0
 14 56  1  0
 14 57  1  0
 15 58  1  0
 15 59  1  0
 16 60  1  0
 16 61  1  0
 17 62  1  0
 17 63  1  0
 22 64  1  0
 25 65  1  0
 25 66  1  0
 25 67  1  0
 26 68  1  0
 27 69  1  0
 29 70  1  0
 32 71  1  0
 32 72  1  0
 32 73  1  0
 34 74  1  0
 35 75  1  0
 36 76  1  0
 37 77  1  0
 42 78  1  0
 42 79  1  0
 42 80  1  0
A    1
C4
A    2
C5
A    3
C6
A    4
N1
A    5
N3
A    6
CAU
A    7
CAS
A    8
NBL
A    9
CAB
A   10
CAT
A   11
CAV
A   12
NBN
A   13
CBK
A   14
CAP
A   15
CAR
A   16
CAO
A   17
CAQ
A   18
NBM
A   19
CBA
A   20
OAE
A   21
CBB
A   22
CAN
A   23
CBE
A   24
OAZ
A   25
CAA
A   26
CAI
A   27
CAJ
A   28
CBC
A   29
NAY
A   30
C2
A   31
NBP
A   32
CAD
A   33
CBH
A   34
CAL
A   35
CAH
A   36
CAG
A   37
CAK
A   38
CBG
A   39
CBF
A   40
OAF
A   41
NBO
A   42
CAC
M  END
