4YZN_4K5_A_1301
     RDKit          3D

 53 56  0  0  0  0  0  0  0  0999 V2000
   -8.3450   12.5790   16.6080 C   0  0  0  0  0  0  0  0  0  0  0  0
   -9.2830   11.9080   15.7330 C   0  0  0  0  0  0  0  0  0  0  0  0
  -10.6130   12.3120   15.8760 C   0  0  0  0  0  0  0  0  0  0  0  0
  -11.0070   13.3420   16.6870 N   0  0  0  0  0  0  0  0  0  0  0  0
   -8.8130   13.6340   17.3460 N   0  0  0  0  0  0  0  0  0  0  0  0
   -5.7090   14.3530   17.3210 C   0  0  0  0  0  0  0  0  0  0  0  0
   -4.7710   13.1830   17.2960 C   0  0  0  0  0  0  0  0  0  0  0  0
   -6.2470   12.9610   17.6380 C   0  0  0  0  0  0  0  0  0  0  0  0
   -7.0580   12.2820   16.5710 N   0  0  0  0  0  0  0  0  0  0  0  0
   -8.9060   10.8800   14.8600 C   0  0  0  0  0  0  0  0  0  0  0  0
   -9.8780   10.3580   14.0930 F   0  0  0  0  0  0  0  0  0  0  0  0
   -7.9750   11.2920   13.9100 F   0  0  0  0  0  0  0  0  0  0  0  0
   -8.2930    9.8450   15.3900 F   0  0  0  0  0  0  0  0  0  0  0  0
  -10.0910   14.0070   17.4280 C   0  0  0  0  0  0  0  0  0  0  0  0
  -10.5360   15.0070   18.1550 N   0  0  0  0  0  0  0  0  0  0  0  0
   -9.7770   15.8800   18.9530 C   0  0  0  0  0  0  0  0  0  0  0  0
  -10.3920   17.1080   19.2660 C   0  0  0  0  0  0  0  0  0  0  0  0
   -9.7980   18.0310   20.1530 C   0  0  0  0  0  0  0  0  0  0  0  0
  -11.6070   17.3340   18.6530 O   0  0  0  0  0  0  0  0  0  0  0  0
  -12.3110   18.6090   19.0300 C   0  0  0  0  0  0  0  0  0  0  0  0
   -8.5590   15.5810   19.5810 C   0  0  0  0  0  0  0  0  0  0  0  0
   -7.9740   16.5200   20.4440 C   0  0  0  0  0  0  0  0  0  0  0  0
   -6.8010   16.2170   20.9500 F   0  0  0  0  0  0  0  0  0  0  0  0
   -8.5540   17.7680   20.7080 C   0  0  0  0  0  0  0  0  0  0  0  0
   -8.0400   18.7170   21.6330 C   0  0  0  0  0  0  0  0  0  0  0  0
   -8.5240   18.6890   22.7800 O   0  0  0  0  0  0  0  0  0  0  0  0
   -7.1520   19.6730   21.3320 N   0  0  0  0  0  0  0  0  0  0  0  0
   -6.7650   20.6240   22.4510 C   0  0  0  0  0  0  0  0  0  0  0  0
   -5.3430   21.2000   22.3170 C   0  0  0  0  0  0  0  0  0  0  0  0
   -5.0620   21.5360   20.9190 O   0  0  0  0  0  0  0  0  0  0  0  0
   -5.1210   20.3490   20.0300 C   0  0  0  0  0  0  0  0  0  0  0  0
   -6.5560   19.7880   19.9740 C   0  0  0  0  0  0  0  0  0  0  0  0
  -11.3847   11.7735   15.3064 H   0  0  0  0  0  0  0  0  0  0  0  0
   -5.6270   15.1038   18.1208 H   0  0  0  0  0  0  0  0  0  0  0  0
   -5.9803   15.1418   16.6039 H   0  0  0  0  0  0  0  0  0  0  0  0
   -4.3694   12.8220   16.3377 H   0  0  0  0  0  0  0  0  0  0  0  0
   -3.8167   12.9438   17.7880 H   0  0  0  0  0  0  0  0  0  0  0  0
   -6.8138   12.5192   18.4708 H   0  0  0  0  0  0  0  0  0  0  0  0
   -6.6483   11.6434   15.8744 H   0  0  0  0  0  0  0  0  0  0  0  0
  -11.5531   15.1689   18.1382 H   0  0  0  0  0  0  0  0  0  0  0  0
  -10.3239   18.9635   20.4056 H   0  0  0  0  0  0  0  0  0  0  0  0
  -12.3570   18.6922   20.1259 H   0  0  0  0  0  0  0  0  0  0  0  0
  -11.7591   19.4676   18.6199 H   0  0  0  0  0  0  0  0  0  0  0  0
  -13.3316   18.5994   18.6199 H   0  0  0  0  0  0  0  0  0  0  0  0
   -8.0650   14.6154   19.3979 H   0  0  0  0  0  0  0  0  0  0  0  0
   -7.4786   21.4611   22.4563 H   0  0  0  0  0  0  0  0  0  0  0  0
   -6.7875   20.0436   23.3852 H   0  0  0  0  0  0  0  0  0  0  0  0
   -4.6143   20.4529   22.6645 H   0  0  0  0  0  0  0  0  0  0  0  0
   -5.2666   22.1120   22.9273 H   0  0  0  0  0  0  0  0  0  0  0  0
   -4.4437   19.5731   20.4164 H   0  0  0  0  0  0  0  0  0  0  0  0
   -4.8157   20.6478   19.0163 H   0  0  0  0  0  0  0  0  0  0  0  0
   -7.1790   20.4609   19.3665 H   0  0  0  0  0  0  0  0  0  0  0  0
   -6.5154   18.7826   19.5297 H   0  0  0  0  0  0  0  0  0  0  0  0
 12 10  1  0
 11 10  1  0
 10 13  1  0
 10  2  1  0
  2  3  2  0
  2  1  1  0
  3  4  1  0
  9  1  1  0
  9  8  1  0
  1  5  2  0
  4 14  2  0
  7  6  1  0
  7  8  1  0
  6  8  1  0
  5 14  1  0
 14 15  1  0
 15 16  1  0
 19 20  1  0
 19 17  1  0
 16 17  2  0
 16 21  1  0
 17 18  1  0
 21 22  2  0
 32 31  1  0
 32 27  1  0
 31 30  1  0
 18 24  2  0
 22 24  1  0
 22 23  1  0
 24 25  1  0
 30 29  1  0
 27 25  1  0
 27 28  1  0
 25 26  2  0
 29 28  1  0
  3 33  1  0
  6 34  1  0
  6 35  1  0
  7 36  1  0
  7 37  1  0
  8 38  1  0
  9 39  1  0
 15 40  1  0
 18 41  1  0
 20 42  1  0
 20 43  1  0
 20 44  1  0
 21 45  1  0
 28 46  1  0
 28 47  1  0
 29 48  1  0
 29 49  1  0
 31 50  1  0
 31 51  1  0
 32 52  1  0
 32 53  1  0
A    1
C4
A    2
C5
A    3
C6
A    4
N1
A    5
N3
A    6
CAL
A    7
CAM
A    8
CBD
A    9
NAS
A   10
CBF
A   11
FAE
A   12
FAF
A   13
FAD
A   14
C2
A   15
NAR
A   16
CAY
A   17
CAZ
A   18
CAI
A   19
OAT
A   20
CAA
A   21
CAH
A   22
CAW
A   23
FAC
A   24
CBA
A   25
CAV
A   26
OAB
A   27
NBE
A   28
CAN
A   29
CAJ
A   30
OAU
A   31
CAK
A   32
CAO
M  END
