4Z0K_4LN_A_301
     RDKit          3D

 52 56  0  0  0  0  0  0  0  0999 V2000
  -15.0260  -38.4060  -14.0580 O   0  0  0  0  0  0  0  0  0  0  0  0
  -15.1220  -38.2890  -12.8360 C   0  0  0  0  0  0  0  0  0  0  0  0
  -15.1790  -39.4930  -11.9610 C   0  0  0  0  0  0  0  0  0  0  0  0
  -14.2760  -39.6580  -10.9130 C   0  0  0  0  0  0  0  0  0  0  0  0
  -14.2580  -40.8260  -10.1750 C   0  0  0  0  0  0  0  0  0  0  0  0
  -15.1600  -41.8390  -10.4600 C   0  0  0  0  0  0  0  0  0  0  0  0
  -15.1230  -43.0590   -9.7190 N   0  0  0  0  0  0  0  0  0  0  0  0
  -15.3060  -44.3220  -10.1870 C   0  0  0  0  0  0  0  0  0  0  0  0
  -15.1950  -45.1940   -9.2270 N   0  0  0  0  0  0  0  0  0  0  0  0
  -14.9250  -44.4840   -8.0640 N   0  0  0  0  0  0  0  0  0  0  0  0
  -14.8890  -43.2240   -8.3910 C   0  0  0  0  0  0  0  0  0  0  0  0
  -16.0810  -41.6760  -11.4840 C   0  0  0  0  0  0  0  0  0  0  0  0
  -16.0850  -40.5130  -12.2310 C   0  0  0  0  0  0  0  0  0  0  0  0
  -15.1980  -37.0930  -12.2110 N   0  0  0  0  0  0  0  0  0  0  0  0
  -15.1260  -35.7590  -12.8310 C   0  0  0  0  0  0  0  0  0  0  0  0
  -16.2850  -35.5730  -13.8060 C   0  0  0  0  0  0  0  0  0  0  0  0
  -15.1980  -34.7220  -11.6920 C   0  0  0  0  0  0  0  0  0  0  0  0
  -13.9380  -34.7500  -10.8830 C   0  0  0  0  0  0  0  0  0  0  0  0
  -13.6730  -34.2630   -9.6200 C   0  0  0  0  0  0  0  0  0  0  0  0
  -14.4520  -33.6890   -8.5800 C   0  0  0  0  0  0  0  0  0  0  0  0
  -15.7940  -33.5640   -8.7470 O   0  0  0  0  0  0  0  0  0  0  0  0
  -13.8200  -33.3370   -7.4050 C   0  0  0  0  0  0  0  0  0  0  0  0
  -12.4650  -33.5700   -7.2380 C   0  0  0  0  0  0  0  0  0  0  0  0
  -13.7910  -35.5930  -13.5730 C   0  0  0  0  0  0  0  0  0  0  0  0
  -12.5810  -35.9650  -12.7050 C   0  0  0  0  0  0  0  0  0  0  0  0
  -12.7270  -35.2830  -11.3820 C   0  0  0  0  0  0  0  0  0  0  0  0
  -11.7130  -35.1220  -10.4760 N   0  0  0  0  0  0  0  0  0  0  0  0
  -12.2960  -34.5000   -9.4130 N   0  0  0  0  0  0  0  0  0  0  0  0
  -11.6770  -34.1320   -8.2350 C   0  0  0  0  0  0  0  0  0  0  0  0
  -10.2030  -34.3100   -8.0760 C   0  0  0  0  0  0  0  0  0  0  0  0
  -13.5700  -38.8500  -10.6705 H   0  0  0  0  0  0  0  0  0  0  0  0
  -13.5281  -40.9518   -9.3617 H   0  0  0  0  0  0  0  0  0  0  0  0
  -15.5193  -44.5735  -11.2364 H   0  0  0  0  0  0  0  0  0  0  0  0
  -14.6949  -42.4025   -7.6857 H   0  0  0  0  0  0  0  0  0  0  0  0
  -16.8082  -42.4721  -11.7017 H   0  0  0  0  0  0  0  0  0  0  0  0
  -16.8123  -40.3930  -13.0475 H   0  0  0  0  0  0  0  0  0  0  0  0
  -15.3197  -37.1172  -11.1885 H   0  0  0  0  0  0  0  0  0  0  0  0
  -17.2178  -35.4233  -13.2425 H   0  0  0  0  0  0  0  0  0  0  0  0
  -16.0940  -34.6940  -14.4392 H   0  0  0  0  0  0  0  0  0  0  0  0
  -16.3787  -36.4676  -14.4392 H   0  0  0  0  0  0  0  0  0  0  0  0
  -15.3304  -33.7185  -12.1227 H   0  0  0  0  0  0  0  0  0  0  0  0
  -16.0483  -34.9668  -11.0385 H   0  0  0  0  0  0  0  0  0  0  0  0
  -16.3881  -33.5087   -7.9570 H   0  0  0  0  0  0  0  0  0  0  0  0
  -14.3969  -32.8676   -6.5945 H   0  0  0  0  0  0  0  0  0  0  0  0
  -11.9952  -33.3002   -6.2807 H   0  0  0  0  0  0  0  0  0  0  0  0
  -13.7993  -36.2412  -14.4617 H   0  0  0  0  0  0  0  0  0  0  0  0
  -13.6915  -34.5317  -13.8447 H   0  0  0  0  0  0  0  0  0  0  0  0
  -12.5476  -37.0549  -12.5603 H   0  0  0  0  0  0  0  0  0  0  0  0
  -11.6494  -35.6466  -13.1956 H   0  0  0  0  0  0  0  0  0  0  0  0
   -9.9507  -34.3405   -7.0058 H   0  0  0  0  0  0  0  0  0  0  0  0
   -9.8939  -35.2520   -8.5526 H   0  0  0  0  0  0  0  0  0  0  0  0
   -9.6786  -33.4687   -8.5526 H   0  0  0  0  0  0  0  0  0  0  0  0
  1  2  2  0
 16 15  1  0
 24 15  1  0
 24 25  1  0
  2 14  1  0
  2  3  1  0
 15 14  1  0
 15 17  1  0
 25 26  1  0
 13  3  1  0
 13 12  2  0
  3  4  2  0
 17 18  1  0
 12  6  1  0
 26 18  1  0
 26 27  2  0
  4  5  1  0
 18 19  2  0
 27 28  1  0
  6  5  2  0
  6  7  1  0
  8  7  1  0
  8  9  2  0
  7 11  1  0
 19 28  1  0
 19 20  1  0
 28 29  1  0
  9 10  1  0
 21 20  1  0
 20 22  2  0
 11 10  2  0
 29 30  1  0
 29 23  2  0
 22 23  1  0
  4 31  1  0
  5 32  1  0
  8 33  1  0
 11 34  1  0
 12 35  1  0
 13 36  1  0
 14 37  1  0
 16 38  1  0
 16 39  1  0
 16 40  1  0
 17 41  1  0
 17 42  1  0
 21 43  1  0
 22 44  1  0
 23 45  1  0
 24 46  1  0
 24 47  1  0
 25 48  1  0
 25 49  1  0
 30 50  1  0
 30 51  1  0
 30 52  1  0
A    1
O
A    2
C13
A    3
C14
A    4
C19
A    5
C18
A    6
C17
A    7
N3
A    8
C21
A    9
N5
A   10
N4
A   11
C20
A   12
C16
A   13
C15
A   14
N2
A   15
C9
A   16
C12
A   17
C8
A   18
C7
A   19
C5
A   20
C4
A   21
O1
A   22
C3
A   23
C2
A   24
C10
A   25
C11
A   26
C6
A   27
N1
A   28
N
A   29
C1
A   30
C
M  END
