3O6O_94M_A_214
     RDKit          3D

 37 39  0  0  0  0  0  0  0  0999 V2000
    7.3900   15.0890    7.2820 N   0  0  0  0  0  0  0  0  0  0  0  0
    6.1700   14.6930    7.7080 C   0  0  0  0  0  0  0  0  0  0  0  0
    5.0960   15.4090    7.3580 N   0  0  0  0  0  0  0  0  0  0  0  0
    6.0360   13.5610    8.4330 N   0  0  0  0  0  0  0  0  0  0  0  0
    7.1270   12.8570    8.8150 C   0  0  0  0  0  0  0  0  0  0  0  0
    8.3840   13.2440    8.3760 C   0  0  0  0  0  0  0  0  0  0  0  0
    8.4930   14.3850    7.5940 C   0  0  0  0  0  0  0  0  0  0  0  0
   10.0410   14.8460    6.9790 Cl  0  0  0  0  0  0  0  0  0  0  0  0
    9.2800   12.3920    8.8690 N   0  0  0  0  0  0  0  0  0  0  0  0
    8.6260   11.4480    9.5470 C   0  0  0  0  0  0  0  0  0  0  0  0
    7.3260   11.7460    9.5060 N   0  0  0  0  0  0  0  0  0  0  0  0
    6.4870    7.6010    5.5680 C   0  0  0  0  0  0  0  0  0  0  0  0
    6.6450    5.4220    8.0970 C   0  0  0  0  0  0  0  0  0  0  0  0
    5.2550   10.2320    7.2830 C   0  0  0  0  0  0  0  0  0  0  0  0
    6.9510    7.2540    9.8590 C   0  0  0  0  0  0  0  0  0  0  0  0
    6.2640   10.9110   10.1040 C   0  0  0  0  0  0  0  0  0  0  0  0
    6.8620    8.5250   10.2600 N   0  0  0  0  0  0  0  0  0  0  0  0
    5.4770    7.4820    6.5370 O   0  0  0  0  0  0  0  0  0  0  0  0
    6.5120    6.8740    8.5890 C   0  0  0  0  0  0  0  0  0  0  0  0
    5.8900    9.1710    8.1960 C   0  0  0  0  0  0  0  0  0  0  0  0
    6.3330    9.5010    9.4870 C   0  0  0  0  0  0  0  0  0  0  0  0
    5.9610    7.8420    7.7570 C   0  0  0  0  0  0  0  0  0  0  0  0
    4.4882   15.8142    8.0841 H   0  0  0  0  0  0  0  0  0  0  0  0
    4.8767   15.5552    6.3623 H   0  0  0  0  0  0  0  0  0  0  0  0
    9.0771   10.5798   10.0497 H   0  0  0  0  0  0  0  0  0  0  0  0
    7.4611    7.7158    6.0659 H   0  0  0  0  0  0  0  0  0  0  0  0
    6.5005    6.6982    4.9396 H   0  0  0  0  0  0  0  0  0  0  0  0
    6.2903    8.4822    4.9396 H   0  0  0  0  0  0  0  0  0  0  0  0
    6.7069    4.7458    8.9624 H   0  0  0  0  0  0  0  0  0  0  0  0
    5.7672    5.1592    7.4884 H   0  0  0  0  0  0  0  0  0  0  0  0
    7.5560    5.3230    7.4884 H   0  0  0  0  0  0  0  0  0  0  0  0
    4.7872   11.0137    7.8995 H   0  0  0  0  0  0  0  0  0  0  0  0
    6.0324   10.6820    6.6480 H   0  0  0  0  0  0  0  0  0  0  0  0
    4.4910    9.7596    6.6480 H   0  0  0  0  0  0  0  0  0  0  0  0
    7.3748    6.4983   10.5367 H   0  0  0  0  0  0  0  0  0  0  0  0
    6.4136   10.8460   11.1918 H   0  0  0  0  0  0  0  0  0  0  0  0
    5.2795   11.3587    9.9030 H   0  0  0  0  0  0  0  0  0  0  0  0
  1  2  2  0
  1  7  1  0
  2  3  1  0
  2  4  1  0
  4  5  2  0
  5  6  1  0
  5 11  1  0
  6  7  2  0
  6  9  1  0
  7  8  1  0
  9 10  2  0
 10 11  1  0
 11 16  1  0
 12 18  1  0
 13 19  1  0
 14 20  1  0
 15 17  2  0
 15 19  1  0
 16 21  1  0
 17 21  1  0
 18 22  1  0
 19 22  2  0
 20 21  2  0
 20 22  1  0
  3 23  1  0
  3 24  1  0
 10 25  1  0
 12 26  1  0
 12 27  1  0
 12 28  1  0
 13 29  1  0
 13 30  1  0
 13 31  1  0
 14 32  1  0
 14 33  1  0
 14 34  1  0
 15 35  1  0
 16 36  1  0
 16 37  1  0
A    1
N1
A    2
C2
A    3
N2
A    4
N3
A    5
C4
A    6
C5
A    7
C6
A    8
CL6
A    9
N7
A   10
C8
A   11
N9
A   12
CAA
A   13
CAB
A   14
CAC
A   15
CAF
A   16
CAH
A   17
NAI
A   18
OAM
A   19
CAN
A   20
CAP
A   21
CAR
A   22
CAS
M  END
