4Z2G_M6V_A_501
     RDKit          3D

111112  0  0  0  0  0  0  0  0999 V2000
  -20.7580    3.5640  -31.5190 N   0  0  0  0  0  0  0  0  0  0  0  0
  -24.3480    5.4910  -33.3780 C   0  0  0  0  0  0  0  0  0  0  0  0
  -18.6840   -1.8170  -29.8880 N   0  0  0  0  0  0  0  0  0  0  0  0
  -25.1990    3.1490  -32.6670 C   0  0  0  0  0  0  0  0  0  0  0  0
  -24.9270    1.6450  -32.9280 C   0  0  0  0  0  0  0  0  0  0  0  0
  -25.9070    1.0500  -33.9480 C   0  0  0  0  0  0  0  0  0  0  0  0
  -20.5400   -6.2790  -30.9110 C   0  0  0  0  0  0  0  0  0  0  0  0
  -20.9570   -5.0910  -30.1890 N   0  0  0  0  0  0  0  0  0  0  0  0
  -20.0430   -4.1390  -30.0380 C   0  0  0  0  0  0  0  0  0  0  0  0
  -18.9040   -4.2680  -30.5790 O   0  0  0  0  0  0  0  0  0  0  0  0
  -20.4640   -3.0950  -29.3120 N   0  0  0  0  0  0  0  0  0  0  0  0
  -19.7920   -1.9590  -29.2610 C   0  0  0  0  0  0  0  0  0  0  0  0
  -20.2830   -0.9500  -28.5390 N   0  0  0  0  0  0  0  0  0  0  0  0
  -19.0070    2.2950  -30.3420 C   0  0  0  0  0  0  0  0  0  0  0  0
  -19.4640    2.8880  -31.6910 C   0  0  0  0  0  0  0  0  0  0  0  0
  -21.6950    3.5870  -32.4550 C   0  0  0  0  0  0  0  0  0  0  0  0
  -21.4890    3.2500  -33.5900 O   0  0  0  0  0  0  0  0  0  0  0  0
  -23.0310    3.8980  -32.0500 O   0  0  0  0  0  0  0  0  0  0  0  0
  -24.0040    3.9930  -33.0950 C   0  0  0  0  0  0  0  0  0  0  0  0
  -25.6130    3.5310  -31.2420 C   0  0  0  0  0  0  0  0  0  0  0  0
  -23.2570    6.0940  -34.2690 C   0  0  0  0  0  0  0  0  0  0  0  0
  -25.6900    5.7250  -34.0430 C   0  0  0  0  0  0  0  0  0  0  0  0
  -25.7810    5.7310  -35.2370 O   0  0  0  0  0  0  0  0  0  0  0  0
  -26.9090    5.9080  -33.2700 O   0  0  0  0  0  0  0  0  0  0  0  0
  -28.0610    6.4430  -33.9310 C   0  0  0  0  0  0  0  0  0  0  0  0
  -28.3490    7.8470  -33.3830 C   0  0  0  0  0  0  0  0  0  0  0  0
  -27.2010    8.7810  -33.7270 C   0  0  0  0  0  0  0  0  0  0  0  0
  -29.2320    5.4990  -33.6910 C   0  0  0  0  0  0  0  0  0  0  0  0
  -30.4310    6.1090  -34.1430 O   0  0  0  0  0  0  0  0  0  0  0  0
  -29.5030    5.3190  -32.1930 C   0  0  0  0  0  0  0  0  0  0  0  0
  -28.8380    4.2170  -34.5110 C   0  0  0  0  0  0  0  0  0  0  0  0
  -29.4730    2.8870  -34.0840 C   0  0  0  0  0  0  0  0  0  0  0  0
  -30.9870    2.9130  -33.9180 C   0  0  0  0  0  0  0  0  0  0  0  0
  -28.9890    4.3580  -35.9330 O   0  0  0  0  0  0  0  0  0  0  0  0
  -28.3260    3.3720  -36.7380 C   0  0  0  0  0  0  0  0  0  0  0  0
  -27.0400    3.9070  -37.3520 C   0  0  0  0  0  0  0  0  0  0  0  0
  -29.2780    3.0140  -37.8780 C   0  0  0  0  0  0  0  0  0  0  0  0
  -27.9990    2.1930  -35.9750 O   0  0  0  0  0  0  0  0  0  0  0  0
  -29.0060    1.7600  -35.0310 C   0  0  0  0  0  0  0  0  0  0  0  0
  -28.4590    0.5220  -34.2630 C   0  0  0  0  0  0  0  0  0  0  0  0
  -29.5990   -0.1860  -33.5050 C   0  0  0  0  0  0  0  0  0  0  0  0
  -27.2820    0.8310  -33.3050 C   0  0  0  0  0  0  0  0  0  0  0  0
  -25.9780    1.9130  -35.0910 O   0  0  0  0  0  0  0  0  0  0  0  0
  -25.3340   -0.2830  -34.4040 C   0  0  0  0  0  0  0  0  0  0  0  0
  -24.9870    0.8470  -31.7200 O   0  0  0  0  0  0  0  0  0  0  0  0
  -23.7550    0.8960  -31.0250 C   0  0  0  0  0  0  0  0  0  0  0  0
  -22.8430   -0.0540  -31.6160 C   0  0  0  0  0  0  0  0  0  0  0  0
  -22.0350   -0.8840  -32.1250 C   0  0  0  0  0  0  0  0  0  0  0  0
  -19.4050    0.8350  -30.1110 C   0  0  0  0  0  0  0  0  0  0  0  0
  -19.6090    0.3670  -28.6260 C   0  0  0  0  0  0  0  0  0  0  0  0
  -20.9453    4.0433  -30.6268 H   0  0  0  0  0  0  0  0  0  0  0  0
  -24.4031    5.9739  -32.3912 H   0  0  0  0  0  0  0  0  0  0  0  0
  -18.1739   -0.9236  -29.8365 H   0  0  0  0  0  0  0  0  0  0  0  0
  -26.0838    3.3634  -33.2843 H   0  0  0  0  0  0  0  0  0  0  0  0
  -23.9043    1.6073  -33.3313 H   0  0  0  0  0  0  0  0  0  0  0  0
  -20.2638   -7.0659  -30.1937 H   0  0  0  0  0  0  0  0  0  0  0  0
  -21.3675   -6.6332  -31.5432 H   0  0  0  0  0  0  0  0  0  0  0  0
  -19.6726   -6.0383  -31.5432 H   0  0  0  0  0  0  0  0  0  0  0  0
  -21.9110   -4.9914  -29.8136 H   0  0  0  0  0  0  0  0  0  0  0  0
  -21.3396   -3.1808  -28.7765 H   0  0  0  0  0  0  0  0  0  0  0  0
  -21.1084   -1.0829  -27.9373 H   0  0  0  0  0  0  0  0  0  0  0  0
  -17.9101    2.3618  -30.2936 H   0  0  0  0  0  0  0  0  0  0  0  0
  -19.5141    2.8800  -29.5606 H   0  0  0  0  0  0  0  0  0  0  0  0
  -19.5685    2.0797  -32.4297 H   0  0  0  0  0  0  0  0  0  0  0  0
  -18.7164    3.6140  -32.0431 H   0  0  0  0  0  0  0  0  0  0  0  0
  -23.6299    3.6024  -34.0529 H   0  0  0  0  0  0  0  0  0  0  0  0
  -25.0032    2.9684  -30.5198 H   0  0  0  0  0  0  0  0  0  0  0  0
  -25.4574    4.6095  -31.0916 H   0  0  0  0  0  0  0  0  0  0  0  0
  -26.6755    3.2893  -31.0916 H   0  0  0  0  0  0  0  0  0  0  0  0
  -22.4681    6.5300  -33.6385 H   0  0  0  0  0  0  0  0  0  0  0  0
  -22.8254    5.3064  -34.9041 H   0  0  0  0  0  0  0  0  0  0  0  0
  -23.6943    6.8785  -34.9041 H   0  0  0  0  0  0  0  0  0  0  0  0
  -27.8924    6.5300  -35.0145 H   0  0  0  0  0  0  0  0  0  0  0  0
  -29.2778    8.2301  -33.8309 H   0  0  0  0  0  0  0  0  0  0  0  0
  -28.4581    7.7941  -32.2897 H   0  0  0  0  0  0  0  0  0  0  0  0
  -26.7418    9.1546  -32.7999 H   0  0  0  0  0  0  0  0  0  0  0  0
  -26.4482    8.2356  -34.3151 H   0  0  0  0  0  0  0  0  0  0  0  0
  -27.5818    9.6290  -34.3151 H   0  0  0  0  0  0  0  0  0  0  0  0
  -30.9748    6.3856  -33.3633 H   0  0  0  0  0  0  0  0  0  0  0  0
  -28.7236    5.8367  -31.6146 H   0  0  0  0  0  0  0  0  0  0  0  0
  -30.4869    5.7437  -31.9447 H   0  0  0  0  0  0  0  0  0  0  0  0
  -29.4930    4.2474  -31.9447 H   0  0  0  0  0  0  0  0  0  0  0  0
  -27.7718    4.1521  -34.2482 H   0  0  0  0  0  0  0  0  0  0  0  0
  -29.1113    2.6863  -33.0647 H   0  0  0  0  0  0  0  0  0  0  0  0
  -31.2384    2.9173  -32.8471 H   0  0  0  0  0  0  0  0  0  0  0  0
  -31.3925    3.8182  -34.3935 H   0  0  0  0  0  0  0  0  0  0  0  0
  -31.4234    2.0222  -34.3935 H   0  0  0  0  0  0  0  0  0  0  0  0
  -26.3440    4.1966  -36.5509 H   0  0  0  0  0  0  0  0  0  0  0  0
  -26.5784    3.1263  -37.9744 H   0  0  0  0  0  0  0  0  0  0  0  0
  -27.2683    4.7848  -37.9744 H   0  0  0  0  0  0  0  0  0  0  0  0
  -30.2308    2.6557  -37.4612 H   0  0  0  0  0  0  0  0  0  0  0  0
  -29.4604    3.9049  -38.4968 H   0  0  0  0  0  0  0  0  0  0  0  0
  -28.8282    2.2236  -38.4968 H   0  0  0  0  0  0  0  0  0  0  0  0
  -29.9134    1.4756  -35.5840 H   0  0  0  0  0  0  0  0  0  0  0  0
  -28.0458   -0.1464  -35.0327 H   0  0  0  0  0  0  0  0  0  0  0  0
  -29.4369   -0.0853  -32.4217 H   0  0  0  0  0  0  0  0  0  0  0  0
  -30.5607    0.2740  -33.7762 H   0  0  0  0  0  0  0  0  0  0  0  0
  -29.6130   -1.2520  -33.7762 H   0  0  0  0  0  0  0  0  0  0  0  0
  -27.5378    1.7438  -32.7470 H   0  0  0  0  0  0  0  0  0  0  0  0
  -27.1701   -0.0712  -32.6858 H   0  0  0  0  0  0  0  0  0  0  0  0
  -26.0553    2.8531  -34.7904 H   0  0  0  0  0  0  0  0  0  0  0  0
  -25.0731   -0.8900  -33.5246 H   0  0  0  0  0  0  0  0  0  0  0  0
  -26.0824   -0.8162  -35.0086 H   0  0  0  0  0  0  0  0  0  0  0  0
  -24.4321   -0.1068  -35.0086 H   0  0  0  0  0  0  0  0  0  0  0  0
  -23.3309    1.9084  -31.0975 H   0  0  0  0  0  0  0  0  0  0  0  0
  -23.9161    0.6466  -29.9658 H   0  0  0  0  0  0  0  0  0  0  0  0
  -21.3325   -1.6056  -32.5675 H   0  0  0  0  0  0  0  0  0  0  0  0
  -20.3517    0.6630  -30.6440 H   0  0  0  0  0  0  0  0  0  0  0  0
  -18.5480    0.2493  -30.4749 H   0  0  0  0  0  0  0  0  0  0  0  0
  -18.6250    0.2936  -28.1399 H   0  0  0  0  0  0  0  0  0  0  0  0
  -20.2503    1.1070  -28.1250 H   0  0  0  0  0  0  0  0  0  0  0  0
 37 35  1  0
 36 35  1  0
 35 38  1  0
 35 34  1  0
 38 39  1  0
 34 31  1  0
 23 22  2  0
 43  6  1  0
 39 40  1  0
 39 32  1  0
 31 32  1  0
 31 28  1  0
 44  6  1  0
 21  2  1  0
 40 41  1  0
 40 42  1  0
 29 28  1  0
 32 33  1  0
 22  2  1  0
 22 24  1  0
  6 42  1  0
  6  5  1  0
 25 28  1  0
 25 26  1  0
 25 24  1  0
 27 26  1  0
 28 30  1  0
 17 16  2  0
  2 19  1  0
 19  4  1  0
 19 18  1  0
  5  4  1  0
  5 45  1  0
  4 20  1  0
 16 18  1  0
 16  1  1  0
 48 47  3  0
 45 46  1  0
 15  1  1  0
 15 14  1  0
 47 46  1  0
  7  8  1  0
 10  9  2  0
 14 49  1  0
  8  9  1  0
 49 50  1  0
  9 11  1  0
  3 12  2  3
 11 12  1  0
 12 13  1  0
 50 13  1  0
  1 51  1  0
  2 52  1  0
  3 53  1  0
  4 54  1  0
  5 55  1  0
  7 56  1  0
  7 57  1  0
  7 58  1  0
  8 59  1  0
 11 60  1  0
 13 61  1  0
 14 62  1  0
 14 63  1  0
 15 64  1  0
 15 65  1  0
 19 66  1  0
 20 67  1  0
 20 68  1  0
 20 69  1  0
 21 70  1  0
 21 71  1  0
 21 72  1  0
 25 73  1  0
 26 74  1  0
 26 75  1  0
 27 76  1  0
 27 77  1  0
 27 78  1  0
 29 79  1  0
 30 80  1  0
 30 81  1  0
 30 82  1  0
 31 83  1  0
 32 84  1  0
 33 85  1  0
 33 86  1  0
 33 87  1  0
 36 88  1  0
 36 89  1  0
 36 90  1  0
 37 91  1  0
 37 92  1  0
 37 93  1  0
 39 94  1  0
 40 95  1  0
 41 96  1  0
 41 97  1  0
 41 98  1  0
 42 99  1  0
 42100  1  0
 43101  1  0
 44102  1  0
 44103  1  0
 44104  1  0
 46105  1  0
 46106  1  0
 48107  1  0
 49108  1  0
 49109  1  0
 50110  1  0
 50111  1  0
A    1
N1
A    2
C2
A    3
N3
A    4
C4
A    5
C5
A    6
C6
A    7
C21
A    8
N5
A    9
C20
A   10
O5
A   11
N4
A   12
C19
A   13
N2
A   14
C16
A   15
C15
A   16
C14
A   17
O4
A   18
O3
A   19
C3
A   20
C31
A   21
C30
A   22
C1
A   23
O1
A   24
O2
A   25
C13
A   26
C28
A   27
C29
A   28
C12
A   29
O10
A   30
C35
A   31
C11
A   32
C10
A   33
C34
A   34
O9
A   35
C25
A   36
C26
A   37
C27
A   38
O8
A   39
C9
A   40
C8
A   41
C33
A   42
C7
A   43
O7
A   44
C32
A   45
O6
A   46
C22
A   47
C23
A   48
C24
A   49
C17
A   50
C18
M  END
