4Z2H_M6A_A_501
     RDKit          3D

105106  0  0  0  0  0  0  0  0999 V2000
  -20.4980   -7.2570  -31.0630 C   0  0  0  0  0  0  0  0  0  0  0  0
  -21.0580   -6.1490  -30.3330 N   0  0  0  0  0  0  0  0  0  0  0  0
  -20.4210   -4.9820  -30.2190 C   0  0  0  0  0  0  0  0  0  0  0  0
  -19.3470   -4.7690  -30.8130 O   0  0  0  0  0  0  0  0  0  0  0  0
  -21.0290   -4.1290  -29.3680 N   0  0  0  0  0  0  0  0  0  0  0  0
  -20.6440   -2.8550  -29.1670 C   0  0  0  0  0  0  0  0  0  0  0  0
  -21.1480   -2.2520  -28.1800 N   0  0  0  0  0  0  0  0  0  0  0  0
  -19.6680   -2.2970  -29.9120 N   0  0  0  0  0  0  0  0  0  0  0  0
  -18.9220   -1.1090  -29.5430 C   0  0  0  0  0  0  0  0  0  0  0  0
  -19.0550    0.0150  -30.5770 C   0  0  0  0  0  0  0  0  0  0  0  0
  -20.3940    0.5700  -30.4700 N   0  0  0  0  0  0  0  0  0  0  0  0
  -21.1780    0.8960  -31.4860 C   0  0  0  0  0  0  0  0  0  0  0  0
  -20.9040    0.8830  -32.6890 O   0  0  0  0  0  0  0  0  0  0  0  0
  -22.5050    1.2500  -31.0340 O   0  0  0  0  0  0  0  0  0  0  0  0
  -23.2740    1.9860  -31.9970 C   0  0  0  0  0  0  0  0  0  0  0  0
  -24.6080    1.2890  -32.2480 C   0  0  0  0  0  0  0  0  0  0  0  0
  -25.3730    1.0970  -30.9340 C   0  0  0  0  0  0  0  0  0  0  0  0
  -23.4750    3.4200  -31.4380 C   0  0  0  0  0  0  0  0  0  0  0  0
  -22.1890    4.2330  -31.3950 C   0  0  0  0  0  0  0  0  0  0  0  0
  -24.4400    4.1920  -32.2690 C   0  0  0  0  0  0  0  0  0  0  0  0
  -24.1630    4.4790  -33.4180 O   0  0  0  0  0  0  0  0  0  0  0  0
  -25.7150    4.5090  -31.6500 O   0  0  0  0  0  0  0  0  0  0  0  0
  -26.6530    5.2940  -32.3900 C   0  0  0  0  0  0  0  0  0  0  0  0
  -26.8270    6.6520  -31.6970 C   0  0  0  0  0  0  0  0  0  0  0  0
  -25.5770    7.1900  -31.0260 C   0  0  0  0  0  0  0  0  0  0  0  0
  -27.9790    4.5100  -32.4950 C   0  0  0  0  0  0  0  0  0  0  0  0
  -29.0480    5.3930  -32.8230 O   0  0  0  0  0  0  0  0  0  0  0  0
  -28.3270    3.8160  -31.1770 C   0  0  0  0  0  0  0  0  0  0  0  0
  -27.8450    3.5580  -33.6680 C   0  0  0  0  0  0  0  0  0  0  0  0
  -28.9010    2.4630  -33.8160 C   0  0  0  0  0  0  0  0  0  0  0  0
  -30.3540    2.9540  -33.9130 C   0  0  0  0  0  0  0  0  0  0  0  0
  -27.7910    4.3790  -34.8340 O   0  0  0  0  0  0  0  0  0  0  0  0
  -27.5510    3.6530  -36.0520 C   0  0  0  0  0  0  0  0  0  0  0  0
  -26.1820    4.0560  -36.6260 C   0  0  0  0  0  0  0  0  0  0  0  0
  -28.6270    4.0080  -37.0930 C   0  0  0  0  0  0  0  0  0  0  0  0
  -27.4850    2.2210  -35.7820 O   0  0  0  0  0  0  0  0  0  0  0  0
  -28.5440    1.6430  -35.0560 C   0  0  0  0  0  0  0  0  0  0  0  0
  -28.1100    0.2120  -34.7710 C   0  0  0  0  0  0  0  0  0  0  0  0
  -29.3680   -0.5860  -34.4410 C   0  0  0  0  0  0  0  0  0  0  0  0
  -26.9950    0.0840  -33.6950 C   0  0  0  0  0  0  0  0  0  0  0  0
  -25.5270   -0.0290  -34.2080 C   0  0  0  0  0  0  0  0  0  0  0  0
  -25.1640    1.0630  -35.0710 O   0  0  0  0  0  0  0  0  0  0  0  0
  -25.3730   -1.3240  -34.9680 C   0  0  0  0  0  0  0  0  0  0  0  0
  -24.5030   -0.0160  -33.0560 C   0  0  0  0  0  0  0  0  0  0  0  0
  -24.7060   -1.1830  -32.2300 O   0  0  0  0  0  0  0  0  0  0  0  0
  -23.4720   -1.6380  -31.6970 C   0  0  0  0  0  0  0  0  0  0  0  0
  -23.5400   -3.0320  -31.2660 C   0  0  0  0  0  0  0  0  0  0  0  0
  -23.6070   -4.2440  -30.8650 C   0  0  0  0  0  0  0  0  0  0  0  0
  -20.1183   -8.0082  -30.3549 H   0  0  0  0  0  0  0  0  0  0  0  0
  -21.2756   -7.7096  -31.6959 H   0  0  0  0  0  0  0  0  0  0  0  0
  -19.6724   -6.8994  -31.6959 H   0  0  0  0  0  0  0  0  0  0  0  0
  -21.9787   -6.2608  -29.8850 H   0  0  0  0  0  0  0  0  0  0  0  0
  -21.8410   -4.4757  -28.8375 H   0  0  0  0  0  0  0  0  0  0  0  0
  -21.8924   -2.7009  -27.6275 H   0  0  0  0  0  0  0  0  0  0  0  0
  -19.4353   -2.7474  -30.8086 H   0  0  0  0  0  0  0  0  0  0  0  0
  -17.8592   -1.3759  -29.4474 H   0  0  0  0  0  0  0  0  0  0  0  0
  -19.3341   -0.7383  -28.5929 H   0  0  0  0  0  0  0  0  0  0  0  0
  -18.8981   -0.3881  -31.5884 H   0  0  0  0  0  0  0  0  0  0  0  0
  -18.3026    0.7955  -30.3907 H   0  0  0  0  0  0  0  0  0  0  0  0
  -20.7653    0.7230  -29.5215 H   0  0  0  0  0  0  0  0  0  0  0  0
  -22.7518    2.0369  -32.9638 H   0  0  0  0  0  0  0  0  0  0  0  0
  -25.1866    1.9635  -32.8963 H   0  0  0  0  0  0  0  0  0  0  0  0
  -24.6936    1.2675  -30.0859 H   0  0  0  0  0  0  0  0  0  0  0  0
  -26.2059    1.8140  -30.8865 H   0  0  0  0  0  0  0  0  0  0  0  0
  -25.7686    0.0717  -30.8865 H   0  0  0  0  0  0  0  0  0  0  0  0
  -23.8504    3.2720  -30.4147 H   0  0  0  0  0  0  0  0  0  0  0  0
  -21.9040    4.4132  -30.3480 H   0  0  0  0  0  0  0  0  0  0  0  0
  -21.3869    3.6775  -31.9030 H   0  0  0  0  0  0  0  0  0  0  0  0
  -22.3467    5.1958  -31.9030 H   0  0  0  0  0  0  0  0  0  0  0  0
  -26.2947    5.4889  -33.4116 H   0  0  0  0  0  0  0  0  0  0  0  0
  -27.1508    7.3826  -32.4528 H   0  0  0  0  0  0  0  0  0  0  0  0
  -27.5657    6.4982  -30.8966 H   0  0  0  0  0  0  0  0  0  0  0  0
  -25.6962    7.1387  -29.9337 H   0  0  0  0  0  0  0  0  0  0  0  0
  -24.7092    6.5857  -31.3289 H   0  0  0  0  0  0  0  0  0  0  0  0
  -25.4194    8.2356  -31.3289 H   0  0  0  0  0  0  0  0  0  0  0  0
  -29.4613    5.7344  -31.9907 H   0  0  0  0  0  0  0  0  0  0  0  0
  -28.0099    4.4484  -30.3347 H   0  0  0  0  0  0  0  0  0  0  0  0
  -29.4136    3.6528  -31.1243 H   0  0  0  0  0  0  0  0  0  0  0  0
  -27.8078    2.8477  -31.1243 H   0  0  0  0  0  0  0  0  0  0  0  0
  -26.9367    2.9619  -33.4959 H   0  0  0  0  0  0  0  0  0  0  0  0
  -28.8759    1.8684  -32.8909 H   0  0  0  0  0  0  0  0  0  0  0  0
  -30.7627    3.0921  -32.9011 H   0  0  0  0  0  0  0  0  0  0  0  0
  -30.3821    3.9115  -34.4537 H   0  0  0  0  0  0  0  0  0  0  0  0
  -30.9572    2.2098  -34.4537 H   0  0  0  0  0  0  0  0  0  0  0  0
  -25.4844    4.2614  -35.8006 H   0  0  0  0  0  0  0  0  0  0  0  0
  -25.7877    3.2358  -37.2439 H   0  0  0  0  0  0  0  0  0  0  0  0
  -26.2949    4.9590  -37.2439 H   0  0  0  0  0  0  0  0  0  0  0  0
  -29.5497    4.3124  -36.5774 H   0  0  0  0  0  0  0  0  0  0  0  0
  -28.2688    4.8356  -37.7229 H   0  0  0  0  0  0  0  0  0  0  0  0
  -28.8317    3.1298  -37.7229 H   0  0  0  0  0  0  0  0  0  0  0  0
  -29.4870    1.6350  -35.6223 H   0  0  0  0  0  0  0  0  0  0  0  0
  -27.6231   -0.2033  -35.6657 H   0  0  0  0  0  0  0  0  0  0  0  0
  -29.4809   -0.6576  -33.3492 H   0  0  0  0  0  0  0  0  0  0  0  0
  -30.2461   -0.0794  -34.8680 H   0  0  0  0  0  0  0  0  0  0  0  0
  -29.2839   -1.5963  -34.8680 H   0  0  0  0  0  0  0  0  0  0  0  0
  -27.0535    0.9724  -33.0490 H   0  0  0  0  0  0  0  0  0  0  0  0
  -27.1951   -0.8714  -33.1880 H   0  0  0  0  0  0  0  0  0  0  0  0
  -24.9041    1.8449  -34.5223 H   0  0  0  0  0  0  0  0  0  0  0  0
  -25.2739   -2.1571  -34.2566 H   0  0  0  0  0  0  0  0  0  0  0  0
  -26.2583   -1.4854  -35.6006 H   0  0  0  0  0  0  0  0  0  0  0  0
  -24.4746   -1.2733  -35.6006 H   0  0  0  0  0  0  0  0  0  0  0  0
  -23.4825   -0.0530  -33.4648 H   0  0  0  0  0  0  0  0  0  0  0  0
  -22.6953   -1.5433  -32.4702 H   0  0  0  0  0  0  0  0  0  0  0  0
  -23.2359   -1.0224  -30.8165 H   0  0  0  0  0  0  0  0  0  0  0  0
  -23.6647   -5.2869  -30.5200 H   0  0  0  0  0  0  0  0  0  0  0  0
 35 33  1  0
 34 33  1  0
 33 36  1  0
 33 32  1  0
 36 37  1  0
 42 41  1  0
 37 38  1  0
 37 30  1  0
 43 41  1  0
 32 29  1  0
 38 39  1  0
 38 40  1  0
 41 40  1  0
 41 44  1  0
 31 30  1  0
 30 29  1  0
 29 26  1  0
 21 20  2  0
 44 16  1  0
 44 45  1  0
 27 26  1  0
 13 12  2  0
 26 23  1  0
 26 28  1  0
 23 24  1  0
 23 22  1  0
 20 22  1  0
 20 18  1  0
 16 15  1  0
 16 17  1  0
 45 46  1  0
 15 18  1  0
 15 14  1  0
 24 25  1  0
 46 47  1  0
 12 14  1  0
 12 11  1  0
 18 19  1  0
 47 48  3  0
  1  2  1  0
  4  3  2  0
 10 11  1  0
 10  9  1  0
  2  3  1  0
  3  5  1  0
  8  9  1  0
  8  6  1  0
  5  6  1  0
  6  7  2  3
  1 49  1  0
  1 50  1  0
  1 51  1  0
  2 52  1  0
  5 53  1  0
  7 54  1  0
  8 55  1  0
  9 56  1  0
  9 57  1  0
 10 58  1  0
 10 59  1  0
 11 60  1  0
 15 61  1  0
 16 62  1  0
 17 63  1  0
 17 64  1  0
 17 65  1  0
 18 66  1  0
 19 67  1  0
 19 68  1  0
 19 69  1  0
 23 70  1  0
 24 71  1  0
 24 72  1  0
 25 73  1  0
 25 74  1  0
 25 75  1  0
 27 76  1  0
 28 77  1  0
 28 78  1  0
 28 79  1  0
 29 80  1  0
 30 81  1  0
 31 82  1  0
 31 83  1  0
 31 84  1  0
 34 85  1  0
 34 86  1  0
 34 87  1  0
 35 88  1  0
 35 89  1  0
 35 90  1  0
 37 91  1  0
 38 92  1  0
 39 93  1  0
 39 94  1  0
 39 95  1  0
 40 96  1  0
 40 97  1  0
 42 98  1  0
 43 99  1  0
 43100  1  0
 43101  1  0
 44102  1  0
 46103  1  0
 46104  1  0
 48105  1  0
A    1
C19
A    2
N5
A    3
C18
A    4
O5
A    5
N4
A    6
C17
A    7
N3
A    8
N2
A    9
C16
A   10
C15
A   11
N1
A   12
C14
A   13
O4
A   14
O3
A   15
C3
A   16
C4
A   17
C29
A   18
C2
A   19
C28
A   20
C1
A   21
O1
A   22
O2
A   23
C13
A   24
C26
A   25
C27
A   26
C12
A   27
O10
A   28
C33
A   29
C11
A   30
C10
A   31
C32
A   32
O9
A   33
C23
A   34
C24
A   35
C25
A   36
O8
A   37
C9
A   38
C8
A   39
C31
A   40
C7
A   41
C6
A   42
O7
A   43
C30
A   44
C5
A   45
O6
A   46
C20
A   47
C21
A   48
C22
M  END
