4Z3V_4L6_A_705
     RDKit          3D

 38 41  0  0  0  0  0  0  0  0999 V2000
  -20.6460   -9.9340    4.1900 C   0  0  0  0  0  0  0  0  0  0  0  0
  -21.7070   -9.1600    4.9520 C   0  0  0  0  0  0  0  0  0  0  0  0
  -21.8620   -9.4400    6.2850 C   0  0  0  0  0  0  0  0  0  0  0  0
  -22.8410   -8.7330    7.0180 C   0  0  0  0  0  0  0  0  0  0  0  0
  -23.2550   -8.7610    8.3790 C   0  0  0  0  0  0  0  0  0  0  0  0
  -24.2160   -7.8890    8.5370 N   0  0  0  0  0  0  0  0  0  0  0  0
  -24.4980   -7.2470    7.3310 N   0  0  0  0  0  0  0  0  0  0  0  0
  -23.6460   -7.7590    6.3750 C   0  0  0  0  0  0  0  0  0  0  0  0
  -23.4820   -7.4890    5.0200 C   0  0  0  0  0  0  0  0  0  0  0  0
  -22.5140   -8.1820    4.3060 C   0  0  0  0  0  0  0  0  0  0  0  0
  -22.3560   -7.8660    2.8570 C   0  0  0  0  0  0  0  0  0  0  0  0
  -23.2700   -8.3180    1.9080 C   0  0  0  0  0  0  0  0  0  0  0  0
  -23.1070   -8.0250    0.5590 C   0  0  0  0  0  0  0  0  0  0  0  0
  -22.0530   -7.2700    0.0980 C   0  0  0  0  0  0  0  0  0  0  0  0
  -21.1000   -6.8080    1.0270 C   0  0  0  0  0  0  0  0  0  0  0  0
  -19.9700   -6.0370    0.6060 C   0  0  0  0  0  0  0  0  0  0  0  0
  -19.7680   -5.7300   -0.7270 N   0  0  0  0  0  0  0  0  0  0  0  0
  -19.0790   -5.6450    1.6210 C   0  0  0  0  0  0  0  0  0  0  0  0
  -19.3080   -5.9820    2.9000 N   0  0  0  0  0  0  0  0  0  0  0  0
  -20.3360   -6.6590    3.2830 N   0  0  0  0  0  0  0  0  0  0  0  0
  -21.2470   -7.0990    2.4060 C   0  0  0  0  0  0  0  0  0  0  0  0
  -17.8430   -4.8890    1.3470 C   0  0  0  0  0  0  0  0  0  0  0  0
  -16.9070   -4.8410    2.3240 N   0  0  0  0  0  0  0  0  0  0  0  0
  -17.6450   -4.3560    0.2610 O   0  0  0  0  0  0  0  0  0  0  0  0
  -19.9693  -10.4276    4.9030 H   0  0  0  0  0  0  0  0  0  0  0  0
  -21.1293  -10.6931    3.5575 H   0  0  0  0  0  0  0  0  0  0  0  0
  -20.0707   -9.2420    3.5575 H   0  0  0  0  0  0  0  0  0  0  0  0
  -21.2360  -10.2006    6.7745 H   0  0  0  0  0  0  0  0  0  0  0  0
  -22.8371   -9.4070    9.1651 H   0  0  0  0  0  0  0  0  0  0  0  0
  -25.2136   -6.5214    7.1815 H   0  0  0  0  0  0  0  0  0  0  0  0
  -24.1108   -6.7367    4.5213 H   0  0  0  0  0  0  0  0  0  0  0  0
  -24.1346   -8.9164    2.2313 H   0  0  0  0  0  0  0  0  0  0  0  0
  -23.8435   -8.4086   -0.1624 H   0  0  0  0  0  0  0  0  0  0  0  0
  -21.9567   -7.0325   -0.9717 H   0  0  0  0  0  0  0  0  0  0  0  0
  -19.2201   -4.8973   -0.9864 H   0  0  0  0  0  0  0  0  0  0  0  0
  -20.1654   -6.3340   -1.4606 H   0  0  0  0  0  0  0  0  0  0  0  0
  -17.1938   -4.8557    3.3132 H   0  0  0  0  0  0  0  0  0  0  0  0
  -15.9081   -4.7898    2.0781 H   0  0  0  0  0  0  0  0  0  0  0  0
  1  2  1  0
 10  2  2  0
  2  3  1  0
  3  4  2  0
  8  4  1  0
  4  5  1  0
  5  6  2  0
  7  6  1  0
  8  7  1  0
  9  8  2  0
 10  9  1  0
 11 10  1  0
 12 11  2  0
 21 11  1  0
 13 12  1  0
 14 13  2  0
 14 15  1  0
 16 15  1  0
 15 21  2  0
 17 16  1  0
 16 18  2  0
 22 18  1  0
 18 19  1  0
 19 20  2  0
 21 20  1  0
 24 22  2  0
 22 23  1  0
  1 25  1  0
  1 26  1  0
  1 27  1  0
  3 28  1  0
  5 29  1  0
  7 30  1  0
  9 31  1  0
 12 32  1  0
 13 33  1  0
 14 34  1  0
 17 35  1  0
 17 36  1  0
 23 37  1  0
 23 38  1  0
A    1
C1
A    2
C2
A    3
C3
A    4
C4
A    5
C5
A    6
N6
A    7
N7
A    8
C9
A    9
C10
A   10
C11
A   11
C12
A   12
C13
A   13
C14
A   14
C15
A   15
C16
A   16
C17
A   17
N18
A   18
C19
A   19
N20
A   20
N21
A   21
C22
A   22
C23
A   23
N24
A   24
O25
M  END
