4Z55_4LO_A_1503
     RDKit          3D

 80 84  0  0  0  0  0  0  0  0999 V2000
  -27.5530    8.7110   -6.8680 C   0  0  0  0  0  0  0  0  0  0  0  0
  -26.2740    7.8450   -6.8660 C   0  0  0  0  0  0  0  0  0  0  0  0
  -26.3840    6.5750   -7.7300 C   0  0  0  0  0  0  0  0  0  0  0  0
  -23.4520    2.6730   -4.3340 C   0  0  0  0  0  0  0  0  0  0  0  0
  -21.1700    3.2350   -5.2800 C   0  0  0  0  0  0  0  0  0  0  0  0
  -21.5510    4.4260   -6.1920 C   0  0  0  0  0  0  0  0  0  0  0  0
  -21.1800    7.6670   -7.0370 C   0  0  0  0  0  0  0  0  0  0  0  0
  -19.6930    7.4180   -6.9570 C   0  0  0  0  0  0  0  0  0  0  0  0
  -21.6620    8.7060   -7.8330 C   0  0  0  0  0  0  0  0  0  0  0  0
  -22.9870    9.0030   -7.9690 C   0  0  0  0  0  0  0  0  0  0  0  0
  -22.7670   11.1320   -9.1290 C   0  0  0  0  0  0  0  0  0  0  0  0
  -20.8220   12.4260   -8.8200 C   0  0  0  0  0  0  0  0  0  0  0  0
  -19.0190   12.0230   -7.2430 C   0  0  0  0  0  0  0  0  0  0  0  0
  -19.7240   11.2040   -6.3930 C   0  0  0  0  0  0  0  0  0  0  0  0
  -19.1170   10.5750   -5.3280 C   0  0  0  0  0  0  0  0  0  0  0  0
  -17.7970   10.7410   -5.1070 C   0  0  0  0  0  0  0  0  0  0  0  0
  -17.0420   11.5180   -5.9380 C   0  0  0  0  0  0  0  0  0  0  0  0
  -17.6500   12.1560   -7.0010 C   0  0  0  0  0  0  0  0  0  0  0  0
  -25.1900    8.5870   -7.4180 O   0  0  0  0  0  0  0  0  0  0  0  0
  -23.8950    8.2380   -7.2640 C   0  0  0  0  0  0  0  0  0  0  0  0
  -23.4450    7.1950   -6.4590 C   0  0  0  0  0  0  0  0  0  0  0  0
  -22.0960    6.9230   -6.3360 C   0  0  0  0  0  0  0  0  0  0  0  0
  -21.6280    5.7550   -5.4290 C   0  0  0  0  0  0  0  0  0  0  0  0
  -22.5930    5.6110   -4.2470 C   0  0  0  0  0  0  0  0  0  0  0  0
  -22.0680    4.4470   -3.3640 C   0  0  0  0  0  0  0  0  0  0  0  0
  -22.0890    3.2220   -4.1270 N   0  0  0  0  0  0  0  0  0  0  0  0
  -23.4460   10.0120   -8.7580 N   0  0  0  0  0  0  0  0  0  0  0  0
  -21.6340   11.4050   -8.5360 N   0  0  0  0  0  0  0  0  0  0  0  0
  -19.6320   12.6750   -8.2490 N   0  0  0  0  0  0  0  0  0  0  0  0
  -16.6220   13.1790   -7.9980 S   0  0  0  0  0  0  0  0  0  0  0  0
  -17.3810   14.1420   -8.5340 O   0  0  0  0  0  0  0  0  0  0  0  0
  -15.5960   13.6390   -7.2290 O   0  0  0  0  0  0  0  0  0  0  0  0
  -15.8840   12.2430   -9.3340 C   0  0  0  0  0  0  0  0  0  0  0  0
  -15.0620   11.2150   -8.5720 C   0  0  0  0  0  0  0  0  0  0  0  0
  -16.9850   11.6700  -10.2470 C   0  0  0  0  0  0  0  0  0  0  0  0
  -21.3060   13.2450   -9.8150 C   0  0  0  0  0  0  0  0  0  0  0  0
  -20.8460   14.4810  -10.5270 C   0  0  0  0  0  0  0  0  0  0  0  0
  -21.7160   14.7840  -11.3400 N   0  0  0  0  0  0  0  0  0  0  0  0
  -22.7370   13.9460  -11.3200 N   0  0  0  0  0  0  0  0  0  0  0  0
  -22.5150   13.0040  -10.4200 C   0  0  0  0  0  0  0  0  0  0  0  0
  -23.2390   11.9430  -10.0630 N   0  0  0  0  0  0  0  0  0  0  0  0
  -27.8577    8.9173   -5.8314 H   0  0  0  0  0  0  0  0  0  0  0  0
  -27.3525    9.6599   -7.3870 H   0  0  0  0  0  0  0  0  0  0  0  0
  -28.3596    8.1725   -7.3870 H   0  0  0  0  0  0  0  0  0  0  0  0
  -26.1204    7.5608   -5.8145 H   0  0  0  0  0  0  0  0  0  0  0  0
  -26.4604    5.6929   -7.0772 H   0  0  0  0  0  0  0  0  0  0  0  0
  -27.2799    6.6400   -8.3650 H   0  0  0  0  0  0  0  0  0  0  0  0
  -25.4903    6.4850   -8.3650 H   0  0  0  0  0  0  0  0  0  0  0  0
  -23.9230    2.4833   -3.3582 H   0  0  0  0  0  0  0  0  0  0  0  0
  -24.0573    3.3975   -4.8986 H   0  0  0  0  0  0  0  0  0  0  0  0
  -23.3861    1.7313   -4.8986 H   0  0  0  0  0  0  0  0  0  0  0  0
  -21.2629    2.2930   -5.8403 H   0  0  0  0  0  0  0  0  0  0  0  0
  -20.1307    3.3393   -4.9350 H   0  0  0  0  0  0  0  0  0  0  0  0
  -22.5327    4.2227   -6.6446 H   0  0  0  0  0  0  0  0  0  0  0  0
  -20.7644    4.5256   -6.9544 H   0  0  0  0  0  0  0  0  0  0  0  0
  -19.3861    7.3666   -5.9019 H   0  0  0  0  0  0  0  0  0  0  0  0
  -19.4531    6.4672   -7.4554 H   0  0  0  0  0  0  0  0  0  0  0  0
  -19.1564    8.2388   -7.4554 H   0  0  0  0  0  0  0  0  0  0  0  0
  -20.9332    9.3205   -8.3819 H   0  0  0  0  0  0  0  0  0  0  0  0
  -20.7987   11.0471   -6.5674 H   0  0  0  0  0  0  0  0  0  0  0  0
  -19.7100    9.9363   -4.6569 H   0  0  0  0  0  0  0  0  0  0  0  0
  -17.3231   10.2447   -4.2473 H   0  0  0  0  0  0  0  0  0  0  0  0
  -15.9623   11.6343   -5.7628 H   0  0  0  0  0  0  0  0  0  0  0  0
  -24.1742    6.5785   -5.9129 H   0  0  0  0  0  0  0  0  0  0  0  0
  -20.6152    5.9930   -5.0718 H   0  0  0  0  0  0  0  0  0  0  0  0
  -22.6176    6.5440   -3.6649 H   0  0  0  0  0  0  0  0  0  0  0  0
  -23.6139    5.4033   -4.5999 H   0  0  0  0  0  0  0  0  0  0  0  0
  -21.0378    4.6636   -3.0451 H   0  0  0  0  0  0  0  0  0  0  0  0
  -22.7094    4.3394   -2.4769 H   0  0  0  0  0  0  0  0  0  0  0  0
  -24.4088    9.9185   -9.1119 H   0  0  0  0  0  0  0  0  0  0  0  0
  -19.1155   13.4781   -8.6352 H   0  0  0  0  0  0  0  0  0  0  0  0
  -15.2540   12.8072  -10.0375 H   0  0  0  0  0  0  0  0  0  0  0  0
  -15.1883   11.3730   -7.4908 H   0  0  0  0  0  0  0  0  0  0  0  0
  -15.4030   10.2034   -8.8371 H   0  0  0  0  0  0  0  0  0  0  0  0
  -14.0001   11.3252   -8.8371 H   0  0  0  0  0  0  0  0  0  0  0  0
  -17.7921   11.2499   -9.6288 H   0  0  0  0  0  0  0  0  0  0  0  0
  -17.3891   12.4722  -10.8820 H   0  0  0  0  0  0  0  0  0  0  0  0
  -16.5598   10.8788  -10.8820 H   0  0  0  0  0  0  0  0  0  0  0  0
  -19.9021   15.0186  -10.3535 H   0  0  0  0  0  0  0  0  0  0  0  0
  -21.6560   15.5994  -11.9664 H   0  0  0  0  0  0  0  0  0  0  0  0
 38 39  1  0
 38 37  1  0
 39 40  2  0
 37 36  2  0
 40 41  1  0
 40 36  1  0
 35 33  1  0
 41 11  2  0
 36 12  1  0
 33 34  1  0
 33 30  1  0
 11 27  1  0
 11 28  1  0
 12 28  2  0
 12 29  1  0
 27 10  1  0
 31 30  2  0
 29 13  1  0
 30 32  2  0
 30 18  1  0
 10  9  1  0
 10 20  2  0
  9  7  2  0
  3  2  1  0
 19 20  1  0
 19  2  1  0
 20 21  1  0
 13 18  1  0
 13 14  2  0
  7  8  1  0
  7 22  1  0
 18 17  2  0
  1  2  1  0
 21 22  2  0
 14 15  1  0
 22 23  1  0
  6 23  1  0
  6  5  1  0
 17 16  1  0
 23 24  1  0
 15 16  2  0
  5 26  1  0
  4 26  1  0
 24 25  1  0
 26 25  1  0
  1 42  1  0
  1 43  1  0
  1 44  1  0
  2 45  1  0
  3 46  1  0
  3 47  1  0
  3 48  1  0
  4 49  1  0
  4 50  1  0
  4 51  1  0
  5 52  1  0
  5 53  1  0
  6 54  1  0
  6 55  1  0
  8 56  1  0
  8 57  1  0
  8 58  1  0
  9 59  1  0
 14 60  1  0
 15 61  1  0
 16 62  1  0
 17 63  1  0
 21 64  1  0
 23 65  1  0
 24 66  1  0
 24 67  1  0
 25 68  1  0
 25 69  1  0
 27 70  1  0
 29 71  1  0
 33 72  1  0
 34 73  1  0
 34 74  1  0
 34 75  1  0
 35 76  1  0
 35 77  1  0
 35 78  1  0
 37 79  1  0
 38 80  1  0
A    1
C1
A    2
C2
A    3
C3
A    4
C12
A    5
C13
A    6
C14
A    7
C15
A    8
C16
A    9
C17
A   10
C18
A   11
C20
A   12
C22
A   13
C24
A   14
C25
A   15
C26
A   16
C27
A   17
C28
A   18
C29
A   19
O4
A   20
C5
A   21
C6
A   22
C7
A   23
C8
A   24
C9
A   25
C10
A   26
N11
A   27
N19
A   28
N21
A   29
N23
A   30
S30
A   31
O31
A   32
O32
A   33
C33
A   34
C34
A   35
C35
A   36
C36
A   37
C37
A   38
N38
A   39
N39
A   40
C40
A   41
N41
M  END
