1XV9_F15_A_1003
     RDKit          3D

 47 46  0  0  0  0  0  0  0  0999 V2000
   37.0030   31.3580   61.0800 C   0  0  0  0  0  0  0  0  0  0  0  0
   36.5050   31.0370   62.1650 O   0  0  0  0  0  0  0  0  0  0  0  0
   37.8830   30.6500   60.5950 O   0  0  0  0  0  0  0  0  0  0  0  0
   36.4740   32.6150   60.2490 C   0  0  0  0  0  0  0  0  0  0  0  0
   36.7550   34.0890   60.7850 C   0  0  0  0  0  0  0  0  0  0  0  0
   36.6400   36.5490   60.9450 C   0  0  0  0  0  0  0  0  0  0  0  0
   36.0140   37.9190   60.7280 C   0  0  0  0  0  0  0  0  0  0  0  0
   36.1140   35.3640   60.1170 C   0  0  0  0  0  0  0  0  0  0  0  0
   36.6950   38.6540   59.5420 C   0  0  0  0  0  0  0  0  0  0  0  0
   37.2360   40.0850   59.8070 C   0  0  0  0  0  0  0  0  0  0  0  0
   38.7430   40.2170   59.5640 C   0  0  0  0  0  0  0  0  0  0  0  0
   39.3150   41.0050   58.3270 C   0  0  0  0  0  0  0  0  0  0  0  0
   40.8770   40.8000   58.0530 C   0  0  0  0  0  0  0  0  0  0  0  0
   41.9650   41.3210   59.0700 C   0  0  0  0  0  0  0  0  0  0  0  0
   42.3930   40.4350   60.2660 C   0  0  0  0  0  0  0  0  0  0  0  0
   42.9650   39.1030   59.8170 C   0  0  0  0  0  0  0  0  0  0  0  0
   43.5140   38.4050   61.0470 C   0  0  0  0  0  0  0  0  0  0  0  0
   36.9381   31.3161   63.0104 H   0  0  0  0  0  0  0  0  0  0  0  0
   36.9244   32.5482   59.2477 H   0  0  0  0  0  0  0  0  0  0  0  0
   35.3797   32.5229   60.3129 H   0  0  0  0  0  0  0  0  0  0  0  0
   36.4329   34.0993   61.8367 H   0  0  0  0  0  0  0  0  0  0  0  0
   37.8210   34.2186   60.5468 H   0  0  0  0  0  0  0  0  0  0  0  0
   37.7144   36.6447   60.7294 H   0  0  0  0  0  0  0  0  0  0  0  0
   36.3758   36.2925   61.9816 H   0  0  0  0  0  0  0  0  0  0  0  0
   34.9431   37.7957   60.5089 H   0  0  0  0  0  0  0  0  0  0  0  0
   36.1514   38.5182   61.6402 H   0  0  0  0  0  0  0  0  0  0  0  0
   36.4323   35.4530   59.0678 H   0  0  0  0  0  0  0  0  0  0  0  0
   35.0149   35.3195   60.1081 H   0  0  0  0  0  0  0  0  0  0  0  0
   37.5433   38.0357   59.2134 H   0  0  0  0  0  0  0  0  0  0  0  0
   35.8969   38.7874   58.7969 H   0  0  0  0  0  0  0  0  0  0  0  0
   36.7120   40.7856   59.1402 H   0  0  0  0  0  0  0  0  0  0  0  0
   37.0558   40.3104   60.8685 H   0  0  0  0  0  0  0  0  0  0  0  0
   39.1595   40.7018   60.4593 H   0  0  0  0  0  0  0  0  0  0  0  0
   39.0357   39.1811   59.3378 H   0  0  0  0  0  0  0  0  0  0  0  0
   38.7665   40.6775   57.4315 H   0  0  0  0  0  0  0  0  0  0  0  0
   39.1827   42.0725   58.5571 H   0  0  0  0  0  0  0  0  0  0  0  0
   41.0359   39.7159   57.9561 H   0  0  0  0  0  0  0  0  0  0  0  0
   41.0496   41.4373   57.1732 H   0  0  0  0  0  0  0  0  0  0  0  0
   42.8739   41.5263   58.4854 H   0  0  0  0  0  0  0  0  0  0  0  0
   41.4709   42.1770   59.5530 H   0  0  0  0  0  0  0  0  0  0  0  0
   43.1574   40.9707   60.8480 H   0  0  0  0  0  0  0  0  0  0  0  0
   41.4982   40.2310   60.8724 H   0  0  0  0  0  0  0  0  0  0  0  0
   42.1748   38.4902   59.3587 H   0  0  0  0  0  0  0  0  0  0  0  0
   43.7586   39.2539   59.0704 H   0  0  0  0  0  0  0  0  0  0  0  0
   43.1269   38.8972   61.9514 H   0  0  0  0  0  0  0  0  0  0  0  0
   43.2007   37.3506   61.0407 H   0  0  0  0  0  0  0  0  0  0  0  0
   44.6126   38.4611   61.0407 H   0  0  0  0  0  0  0  0  0  0  0  0
  1  2  1  0
  1  3  2  0
  1  4  1  0
  4  5  1  0
  5  8  1  0
  6  7  1  0
  6  8  1  0
  7  9  1  0
  9 10  1  0
 10 11  1  0
 11 12  1  0
 12 13  1  0
 13 14  1  0
 14 15  1  0
 15 16  1  0
 16 17  1  0
  2 18  1  0
  4 19  1  0
  4 20  1  0
  5 21  1  0
  5 22  1  0
  6 23  1  0
  6 24  1  0
  7 25  1  0
  7 26  1  0
  8 27  1  0
  8 28  1  0
  9 29  1  0
  9 30  1  0
 10 31  1  0
 10 32  1  0
 11 33  1  0
 11 34  1  0
 12 35  1  0
 12 36  1  0
 13 37  1  0
 13 38  1  0
 14 39  1  0
 14 40  1  0
 15 41  1  0
 15 42  1  0
 16 43  1  0
 16 44  1  0
 17 45  1  0
 17 46  1  0
 17 47  1  0
A    1
C1
A    2
O2
A    3
O3
A    4
C4
A    5
C5
A    6
C6
A    7
C7
A    8
C8
A    9
C9
A   10
C10
A   11
C11
A   12
C12
A   13
C13
A   14
C2
A   15
C3
A   16
C14
A   17
C15
M  END
