4Z6I_4L3_A_201
     RDKit          3D

 65 68  0  0  0  0  0  0  0  0999 V2000
   46.2290   -1.0530   35.9320 C   0  0  0  0  0  0  0  0  0  0  0  0
   47.3760   -1.2700   35.0180 C   0  0  0  0  0  0  0  0  0  0  0  0
   48.6680   -1.3120   35.4840 C   0  0  0  0  0  0  0  0  0  0  0  0
   49.7660   -1.5110   34.6210 C   0  0  0  0  0  0  0  0  0  0  0  0
   50.9110   -1.5390   35.1010 O   0  0  0  0  0  0  0  0  0  0  0  0
   49.5500   -1.7640   33.2760 N   0  0  0  0  0  0  0  0  0  0  0  0
   50.6970   -2.0320   32.3530 C   0  0  0  0  0  0  0  0  0  0  0  0
   48.2610   -1.7960   32.7800 C   0  0  0  0  0  0  0  0  0  0  0  0
   48.0100   -2.0580   31.4200 C   0  0  0  0  0  0  0  0  0  0  0  0
   47.1720   -1.4930   33.6300 C   0  0  0  0  0  0  0  0  0  0  0  0
   45.8740   -1.4870   33.0910 C   0  0  0  0  0  0  0  0  0  0  0  0
   45.6330   -1.7530   31.7360 C   0  0  0  0  0  0  0  0  0  0  0  0
   46.7140   -2.0340   30.9080 C   0  0  0  0  0  0  0  0  0  0  0  0
   46.4600   -2.3800   29.6140 N   0  0  0  0  0  0  0  0  0  0  0  0
   45.8220   -3.5920   29.4210 C   0  0  0  0  0  0  0  0  0  0  0  0
   45.4260   -4.2630   30.4160 O   0  0  0  0  0  0  0  0  0  0  0  0
   45.4300   -4.1090   28.1410 C   0  0  0  0  0  0  0  0  0  0  0  0
   46.2560   -3.4430   27.0170 C   0  0  0  0  0  0  0  0  0  0  0  0
   46.3230   -1.9800   27.1950 C   0  0  0  0  0  0  0  0  0  0  0  0
   47.1560   -1.5220   26.0890 N   0  0  0  0  0  0  0  0  0  0  0  0
   46.5760   -1.1660   24.9310 C   0  0  0  0  0  0  0  0  0  0  0  0
   45.3470   -1.0860   24.8360 O   0  0  0  0  0  0  0  0  0  0  0  0
   47.3810   -0.9260   23.8800 O   0  0  0  0  0  0  0  0  0  0  0  0
   46.8650   -0.9500   22.5120 C   0  0  0  0  0  0  0  0  0  0  0  0
   45.9860   -2.2060   22.2310 C   0  0  0  0  0  0  0  0  0  0  0  0
   48.1300   -0.9150   21.6310 C   0  0  0  0  0  0  0  0  0  0  0  0
   46.0550    0.3250   22.2560 C   0  0  0  0  0  0  0  0  0  0  0  0
   47.0410   -1.6080   28.5410 C   0  0  0  0  0  0  0  0  0  0  0  0
   46.9990   -0.2340   28.7740 C   0  0  0  0  0  0  0  0  0  0  0  0
   48.2090    0.4950   28.8580 C   0  0  0  0  0  0  0  0  0  0  0  0
   48.1910    1.9070   29.0810 C   0  0  0  0  0  0  0  0  0  0  0  0
   46.9700    2.5650   29.2070 C   0  0  0  0  0  0  0  0  0  0  0  0
   45.7830    1.8350   29.1150 C   0  0  0  0  0  0  0  0  0  0  0  0
   45.7710    0.4420   28.8970 C   0  0  0  0  0  0  0  0  0  0  0  0
   46.5735   -1.1182   36.9746 H   0  0  0  0  0  0  0  0  0  0  0  0
   45.7982   -0.0574   35.7498 H   0  0  0  0  0  0  0  0  0  0  0  0
   45.4643   -1.8224   35.7498 H   0  0  0  0  0  0  0  0  0  0  0  0
   48.8514   -1.1868   36.5614 H   0  0  0  0  0  0  0  0  0  0  0  0
   51.6009   -2.2432   32.9432 H   0  0  0  0  0  0  0  0  0  0  0  0
   50.4622   -2.8995   31.7187 H   0  0  0  0  0  0  0  0  0  0  0  0
   50.8709   -1.1503   31.7187 H   0  0  0  0  0  0  0  0  0  0  0  0
   48.8517   -2.2857   30.7494 H   0  0  0  0  0  0  0  0  0  0  0  0
   45.0225   -1.2672   33.7517 H   0  0  0  0  0  0  0  0  0  0  0  0
   44.6086   -1.7397   31.3355 H   0  0  0  0  0  0  0  0  0  0  0  0
   44.3621   -3.9020   27.9777 H   0  0  0  0  0  0  0  0  0  0  0  0
   45.6109   -5.1939   28.1229 H   0  0  0  0  0  0  0  0  0  0  0  0
   45.7859   -3.6647   26.0476 H   0  0  0  0  0  0  0  0  0  0  0  0
   47.2795   -3.8442   27.0544 H   0  0  0  0  0  0  0  0  0  0  0  0
   45.3195   -1.5301   27.2173 H   0  0  0  0  0  0  0  0  0  0  0  0
   48.1793   -1.4720   26.1949 H   0  0  0  0  0  0  0  0  0  0  0  0
   45.6720   -2.6547   23.1850 H   0  0  0  0  0  0  0  0  0  0  0  0
   45.0970   -1.9099   21.6548 H   0  0  0  0  0  0  0  0  0  0  0  0
   46.5687   -2.9399   21.6548 H   0  0  0  0  0  0  0  0  0  0  0  0
   49.0231   -0.8903   22.2727 H   0  0  0  0  0  0  0  0  0  0  0  0
   48.1595   -1.8127   20.9959 H   0  0  0  0  0  0  0  0  0  0  0  0
   48.1098   -0.0171   20.9959 H   0  0  0  0  0  0  0  0  0  0  0  0
   45.7682    0.7764   23.2172 H   0  0  0  0  0  0  0  0  0  0  0  0
   46.6657    1.0386   21.6835 H   0  0  0  0  0  0  0  0  0  0  0  0
   45.1495    0.0754   21.6835 H   0  0  0  0  0  0  0  0  0  0  0  0
   48.1087   -1.8647   28.4774 H   0  0  0  0  0  0  0  0  0  0  0  0
   49.1704   -0.0286   28.7509 H   0  0  0  0  0  0  0  0  0  0  0  0
   49.1338    2.4691   29.1525 H   0  0  0  0  0  0  0  0  0  0  0  0
   46.9408    3.6513   29.3777 H   0  0  0  0  0  0  0  0  0  0  0  0
   44.8244    2.3650   29.2161 H   0  0  0  0  0  0  0  0  0  0  0  0
   44.8199   -0.1058   28.8245 H   0  0  0  0  0  0  0  0  0  0  0  0
 26 24  1  0
 25 24  1  0
 27 24  1  0
 24 23  1  0
 23 21  1  0
 22 21  2  0
 21 20  1  0
 20 19  1  0
 18 19  1  0
 18 17  1  0
 19 28  1  0
 17 15  1  0
 28 29  1  0
 28 14  1  0
 29 30  2  0
 29 34  1  0
 30 31  1  0
 34 33  2  0
 31 32  2  0
 33 32  1  0
 15 14  1  0
 15 16  2  0
 14 13  1  0
 13  9  2  0
 13 12  1  0
  9  8  1  0
 12 11  2  0
  7  6  1  0
  8  6  1  0
  8 10  2  0
 11 10  1  0
  6  4  1  0
 10  2  1  0
  4  5  2  0
  4  3  1  0
  2  3  2  0
  2  1  1  0
  1 35  1  0
  1 36  1  0
  1 37  1  0
  3 38  1  0
  7 39  1  0
  7 40  1  0
  7 41  1  0
  9 42  1  0
 11 43  1  0
 12 44  1  0
 17 45  1  0
 17 46  1  0
 18 47  1  0
 18 48  1  0
 19 49  1  0
 20 50  1  0
 25 51  1  0
 25 52  1  0
 25 53  1  0
 26 54  1  0
 26 55  1  0
 26 56  1  0
 27 57  1  0
 27 58  1  0
 27 59  1  0
 28 60  1  0
 30 61  1  0
 31 62  1  0
 32 63  1  0
 33 64  1  0
 34 65  1  0
A    1
CAK
A    2
CAJ
A    3
CAI
A    4
CAH
A    5
OAL
A    6
NAG
A    7
CAM
A    8
CAD
A    9
CAC
A   10
CAE
A   11
CAF
A   12
CAA
A   13
CAB
A   14
NAN
A   15
CAO
A   16
OAT
A   17
CAP
A   18
CAQ
A   19
CAR
A   20
NBA
A   21
CBB
A   22
OBH
A   23
OBC
A   24
CBD
A   25
CBF
A   26
CBG
A   27
CBE
A   28
CAS
A   29
CAU
A   30
CAV
A   31
CAW
A   32
CAX
A   33
CAY
A   34
CAZ
M  END
