4Z7H_4L5_A_1001
     RDKit          3D

 43 45  0  0  0  0  0  0  0  0999 V2000
   34.1820  -13.2100   10.5540 C   0  0  0  0  0  0  0  0  0  0  0  0
   36.1070  -17.4340   10.6420 C   0  0  0  0  0  0  0  0  0  0  0  0
   35.4030  -13.8670   10.4820 C   0  0  0  0  0  0  0  0  0  0  0  0
   36.6070  -11.8380   11.0360 C   0  0  0  0  0  0  0  0  0  0  0  0
   37.8880  -11.0980   11.4070 C   0  0  0  0  0  0  0  0  0  0  0  0
   38.1710  -14.6080    9.4980 C   0  0  0  0  0  0  0  0  0  0  0  0
   33.1380  -17.5890    9.8710 C   0  0  0  0  0  0  0  0  0  0  0  0
   31.8010  -17.8930    9.5140 C   0  0  0  0  0  0  0  0  0  0  0  0
   30.8870  -16.7880    9.4550 C   0  0  0  0  0  0  0  0  0  0  0  0
   31.3830  -15.4560    9.7340 C   0  0  0  0  0  0  0  0  0  0  0  0
   32.6440  -15.2820   10.0120 N   0  0  0  0  0  0  0  0  0  0  0  0
   33.5020  -16.3240   10.0690 N   0  0  0  0  0  0  0  0  0  0  0  0
   30.7280  -14.2540    9.8040 N   0  0  0  0  0  0  0  0  0  0  0  0
   31.6250  -13.3000   10.0960 C   0  0  0  0  0  0  0  0  0  0  0  0
   32.8770  -13.9170   10.2290 C   0  0  0  0  0  0  0  0  0  0  0  0
   34.0920  -18.6510    9.8350 N   0  0  0  0  0  0  0  0  0  0  0  0
   35.3020  -18.7080   10.6100 C   0  0  0  0  0  0  0  0  0  0  0  0
   36.1940  -19.8010   10.0480 C   0  0  0  0  0  0  0  0  0  0  0  0
   36.6090  -13.1980   10.7120 C   0  0  0  0  0  0  0  0  0  0  0  0
   35.3840  -11.1680   11.0950 C   0  0  0  0  0  0  0  0  0  0  0  0
   34.1890  -11.8460   10.8370 C   0  0  0  0  0  0  0  0  0  0  0  0
   37.8440   -9.9270   11.7360 O   0  0  0  0  0  0  0  0  0  0  0  0
   39.1540  -11.7460   11.4430 N   0  0  0  0  0  0  0  0  0  0  0  0
   37.8210  -13.9270   10.6890 O   0  0  0  0  0  0  0  0  0  0  0  0
   36.2911  -17.1427   11.6866 H   0  0  0  0  0  0  0  0  0  0  0  0
   37.0680  -17.5945   10.1314 H   0  0  0  0  0  0  0  0  0  0  0  0
   35.5494  -16.6350   10.1314 H   0  0  0  0  0  0  0  0  0  0  0  0
   35.4220  -14.9395   10.2382 H   0  0  0  0  0  0  0  0  0  0  0  0
   38.6604  -15.5602    9.7504 H   0  0  0  0  0  0  0  0  0  0  0  0
   37.2634  -14.8070    8.9092 H   0  0  0  0  0  0  0  0  0  0  0  0
   38.8611  -13.9859    8.9092 H   0  0  0  0  0  0  0  0  0  0  0  0
   31.4803  -18.9219    9.2936 H   0  0  0  0  0  0  0  0  0  0  0  0
   29.8287  -16.9498    9.2024 H   0  0  0  0  0  0  0  0  0  0  0  0
   31.4157  -12.2262   10.2105 H   0  0  0  0  0  0  0  0  0  0  0  0
   33.8976  -19.4404    9.2025 H   0  0  0  0  0  0  0  0  0  0  0  0
   34.9762  -18.9001   11.6429 H   0  0  0  0  0  0  0  0  0  0  0  0
   36.6520  -20.3623   10.8758 H   0  0  0  0  0  0  0  0  0  0  0  0
   35.5922  -20.4841    9.4306 H   0  0  0  0  0  0  0  0  0  0  0  0
   36.9839  -19.3484    9.4306 H   0  0  0  0  0  0  0  0  0  0  0  0
   35.3602  -10.0974   11.3466 H   0  0  0  0  0  0  0  0  0  0  0  0
   33.2382  -11.2932   10.8578 H   0  0  0  0  0  0  0  0  0  0  0  0
   39.5922  -11.9703   12.3478 H   0  0  0  0  0  0  0  0  0  0  0  0
   39.6324  -11.9909   10.5643 H   0  0  0  0  0  0  0  0  0  0  0  0
  9  8  2  0
  9 10  1  0
  6 24  1  0
  8  7  1  0
 10 13  2  0
 10 11  1  0
 13 14  1  0
 16  7  1  0
 16 17  1  0
  7 12  2  0
 11 12  1  0
 11 15  1  0
 18 17  1  0
 14 15  2  0
 15  1  1  0
  3  1  2  0
  3 19  1  0
  1 21  1  0
 17  2  1  0
 24 19  1  0
 19  4  2  0
 21 20  2  0
  4 20  1  0
  4  5  1  0
  5 23  1  0
  5 22  2  0
  2 25  1  0
  2 26  1  0
  2 27  1  0
  3 28  1  0
  6 29  1  0
  6 30  1  0
  6 31  1  0
  8 32  1  0
  9 33  1  0
 14 34  1  0
 16 35  1  0
 17 36  1  0
 18 37  1  0
 18 38  1  0
 18 39  1  0
 20 40  1  0
 21 41  1  0
 23 42  1  0
 23 43  1  0
A    1
C10
A    2
C13
A    3
C15
A    4
C17
A    5
C20
A    6
C24
A    7
C01
A    8
C02
A    9
C03
A   10
C04
A   11
N05
A   12
N06
A   13
N07
A   14
C08
A   15
C09
A   16
N11
A   17
C12
A   18
C14
A   19
C16
A   20
C18
A   21
C19
A   22
O21
A   23
N22
A   24
O23
M  END
