4Z93_4LD_A_501
     RDKit          3D

 54 59  0  0  0  0  0  0  0  0999 V2000
   16.3430   -7.4940    9.5250 C   0  0  0  0  0  0  0  0  0  0  0  0
   18.1460   -5.3920    8.7370 C   0  0  0  0  0  0  0  0  0  0  0  0
   19.0040   -4.4430    8.1980 C   0  0  0  0  0  0  0  0  0  0  0  0
   20.2450   -3.8670    8.6390 C   0  0  0  0  0  0  0  0  0  0  0  0
   21.0110   -3.9440    9.8000 C   0  0  0  0  0  0  0  0  0  0  0  0
   15.2480   -6.9180    5.6550 C   0  0  0  0  0  0  0  0  0  0  0  0
   14.4390   -4.8440    5.5870 C   0  0  0  0  0  0  0  0  0  0  0  0
   21.3190   -5.6440   11.6520 C   0  0  0  0  0  0  0  0  0  0  0  0
   13.5020   -5.6720    5.0880 N   0  0  0  0  0  0  0  0  0  0  0  0
   13.9930   -6.9580    5.1230 O   0  0  0  0  0  0  0  0  0  0  0  0
   20.6020   -4.6340   10.9890 C   0  0  0  0  0  0  0  0  0  0  0  0
   20.7100   -3.0580    7.5560 C   0  0  0  0  0  0  0  0  0  0  0  0
   16.0030   -8.1740    5.7520 C   0  0  0  0  0  0  0  0  0  0  0  0
   15.5740   -5.6330    5.9890 C   0  0  0  0  0  0  0  0  0  0  0  0
   16.7770   -5.2010    6.6980 C   0  0  0  0  0  0  0  0  0  0  0  0
   18.7580   -3.9110    6.9180 C   0  0  0  0  0  0  0  0  0  0  0  0
   17.0110   -5.7660    7.9700 C   0  0  0  0  0  0  0  0  0  0  0  0
   20.5160   -6.0370   12.6970 N   0  0  0  0  0  0  0  0  0  0  0  0
   14.2790   -3.3760    5.6710 C   0  0  0  0  0  0  0  0  0  0  0  0
   16.0530   -6.6700    8.4170 O   0  0  0  0  0  0  0  0  0  0  0  0
   22.6540   -6.2430   11.3800 C   0  0  0  0  0  0  0  0  0  0  0  0
   19.3770   -4.4860   11.7240 C   0  0  0  0  0  0  0  0  0  0  0  0
   18.2640   -3.5490   11.4640 C   0  0  0  0  0  0  0  0  0  0  0  0
   17.4220   -3.0260   12.6190 C   0  0  0  0  0  0  0  0  0  0  0  0
   16.8400   -4.0360   11.6930 C   0  0  0  0  0  0  0  0  0  0  0  0
   22.6470   -2.5870    8.7850 C   0  0  0  0  0  0  0  0  0  0  0  0
   21.9420   -2.4110    7.5900 C   0  0  0  0  0  0  0  0  0  0  0  0
   17.6740   -4.2630    6.1650 C   0  0  0  0  0  0  0  0  0  0  0  0
   19.3350   -5.3610   12.7590 N   0  0  0  0  0  0  0  0  0  0  0  0
   22.2240   -3.2870    9.8600 N   0  0  0  0  0  0  0  0  0  0  0  0
   19.8000   -3.0580    6.5410 N   0  0  0  0  0  0  0  0  0  0  0  0
   16.1480   -6.9399   10.4550 H   0  0  0  0  0  0  0  0  0  0  0  0
   15.7063   -8.3904    9.4919 H   0  0  0  0  0  0  0  0  0  0  0  0
   17.4008   -7.7941    9.4919 H   0  0  0  0  0  0  0  0  0  0  0  0
   18.3386   -5.8386    9.7236 H   0  0  0  0  0  0  0  0  0  0  0  0
   16.1562   -8.4289    6.8110 H   0  0  0  0  0  0  0  0  0  0  0  0
   15.4394   -8.9797    5.2588 H   0  0  0  0  0  0  0  0  0  0  0  0
   16.9789   -8.0542    5.2588 H   0  0  0  0  0  0  0  0  0  0  0  0
   20.7819   -6.7717   13.3681 H   0  0  0  0  0  0  0  0  0  0  0  0
   14.2457   -3.0706    6.7272 H   0  0  0  0  0  0  0  0  0  0  0  0
   15.1290   -2.8855    5.1741 H   0  0  0  0  0  0  0  0  0  0  0  0
   13.3433   -3.0801    5.1741 H   0  0  0  0  0  0  0  0  0  0  0  0
   23.1558   -6.4682   12.3326 H   0  0  0  0  0  0  0  0  0  0  0  0
   22.5288   -7.1712   10.8032 H   0  0  0  0  0  0  0  0  0  0  0  0
   23.2641   -5.5323   10.8032 H   0  0  0  0  0  0  0  0  0  0  0  0
   18.8235   -3.0848   10.6385 H   0  0  0  0  0  0  0  0  0  0  0  0
   17.6723   -3.3096   13.6519 H   0  0  0  0  0  0  0  0  0  0  0  0
   17.1177   -2.0268   12.9640 H   0  0  0  0  0  0  0  0  0  0  0  0
   16.0419   -3.7437   10.9947 H   0  0  0  0  0  0  0  0  0  0  0  0
   16.3710   -5.0228   11.8204 H   0  0  0  0  0  0  0  0  0  0  0  0
   23.6366   -2.1119    8.8559 H   0  0  0  0  0  0  0  0  0  0  0  0
   22.3273   -1.8136    6.7505 H   0  0  0  0  0  0  0  0  0  0  0  0
   17.5092   -3.8239    5.1700 H   0  0  0  0  0  0  0  0  0  0  0  0
   19.8674   -2.5283    5.6602 H   0  0  0  0  0  0  0  0  0  0  0  0
  9 10  1  0
  9  7  2  0
 10  6  1  0
  7 19  1  0
  7 14  1  0
  6 13  1  0
  6 14  2  0
 14 15  1  0
 28 15  2  0
 28 16  1  0
 31 16  1  0
 31 12  1  0
 15 17  1  0
 16  3  2  0
 12 27  1  0
 12  4  2  0
 27 26  2  0
 17 20  1  0
 17  2  2  0
  3  4  1  0
  3  2  1  0
 20  1  1  0
  4  5  1  0
 26 30  1  0
  5 30  2  0
  5 11  1  0
 11  8  2  0
 11 22  1  0
 21  8  1  0
 23 25  1  0
 23 22  1  0
 23 24  1  0
  8 18  1  0
 25 24  1  0
 22 29  2  0
 18 29  1  0
  1 32  1  0
  1 33  1  0
  1 34  1  0
  2 35  1  0
 13 36  1  0
 13 37  1  0
 13 38  1  0
 18 39  1  0
 19 40  1  0
 19 41  1  0
 19 42  1  0
 21 43  1  0
 21 44  1  0
 21 45  1  0
 23 46  1  0
 24 47  1  0
 24 48  1  0
 25 49  1  0
 25 50  1  0
 26 51  1  0
 27 52  1  0
 28 53  1  0
 31 54  1  0
A    1
C8
A    2
C9
A    3
C10
A    4
C13
A    5
C14
A    6
C3
A    7
C2
A    8
C16
A    9
N1
A   10
O1
A   11
C15
A   12
C12
A   13
C4
A   14
C5
A   15
C6
A   16
C11
A   17
C7
A   18
N3
A   19
C1
A   20
O2
A   21
C17
A   22
C18
A   23
C19
A   24
C20
A   25
C21
A   26
C22
A   27
C23
A   28
C24
A   29
N4
A   30
N5
A   31
N2
M  END
