1AUR_PMS_A_801
     RDKit          3D

 18 18  0  0  0  0  0  0  0  0999 V2000
   46.7930   23.8710   62.4350 C   0  0  0  0  0  0  0  0  0  0  0  0
   45.8120   23.1890   63.7750 S   0  0  0  0  0  0  0  0  0  0  0  0
   47.4400   25.1870   62.7400 C   0  0  0  0  0  0  0  0  0  0  0  0
   48.6990   25.4850   62.2100 C   0  0  0  0  0  0  0  0  0  0  0  0
   49.4060   26.6110   62.6290 C   0  0  0  0  0  0  0  0  0  0  0  0
   48.8510   27.4600   63.6020 C   0  0  0  0  0  0  0  0  0  0  0  0
   47.5810   27.1830   64.1280 C   0  0  0  0  0  0  0  0  0  0  0  0
   46.8820   26.0480   63.6910 C   0  0  0  0  0  0  0  0  0  0  0  0
   44.4730   24.0280   64.7430 O   0  0  0  0  0  0  0  0  0  0  0  0
   46.6820   22.5930   65.1010 O   0  0  0  0  0  0  0  0  0  0  0  0
   46.1356   24.0062   61.5635 H   0  0  0  0  0  0  0  0  0  0  0  0
   47.6104   23.1575   62.2540 H   0  0  0  0  0  0  0  0  0  0  0  0
   45.2419   22.3763   62.8309 H   0  0  0  0  0  0  0  0  0  0  0  0
   49.1383   24.8210   61.4510 H   0  0  0  0  0  0  0  0  0  0  0  0
   50.3940   26.8341   62.2000 H   0  0  0  0  0  0  0  0  0  0  0  0
   49.4118   28.3400   63.9502 H   0  0  0  0  0  0  0  0  0  0  0  0
   47.1354   27.8519   64.8790 H   0  0  0  0  0  0  0  0  0  0  0  0
   45.8841   25.8326   64.1006 H   0  0  0  0  0  0  0  0  0  0  0  0
  1  3  1  0
  1  2  1  0
  9  2  2  0
  2 10  2  0
  8  3  2  0
  3  4  1  0
  4  5  2  0
  6  5  1  0
  7  6  2  0
  8  7  1  0
  1 11  1  0
  1 12  1  0
  2 13  1  0
  4 14  1  0
  5 15  1  0
  6 16  1  0
  7 17  1  0
  8 18  1  0
A    1
C
A    2
S
A    3
C1
A    4
C2
A    5
C3
A    6
C4
A    7
C5
A    8
C6
A    9
O2S
A   10
O1S
M  END
