1PMQ_880_A_501
     RDKit          3D

 69 73  0  0  0  0  0  0  0  0999 V2000
   22.3400   10.9660   30.8020 N   0  0  0  0  0  0  0  0  0  0  0  0
   22.3960   12.3250   30.6660 C   0  0  0  0  0  0  0  0  0  0  0  0
   21.4840   12.9700   31.4520 N   0  0  0  0  0  0  0  0  0  0  0  0
   20.6970   12.0150   32.1950 C   0  0  0  0  0  0  0  0  0  0  0  0
   21.2380   10.6780   31.8090 C   0  0  0  0  0  0  0  0  0  0  0  0
   23.2200   10.0300   30.0330 C   0  0  0  0  0  0  0  0  0  0  0  0
   24.5600    9.6220   30.6780 C   0  0  0  0  0  0  0  0  0  0  0  0
   24.8020   10.2390   32.0430 C   0  0  0  0  0  0  0  0  0  0  0  0
   23.1420   13.1220   29.9410 C   0  0  0  0  0  0  0  0  0  0  0  0
   22.3790   13.8830   28.7930 C   0  0  0  0  0  0  0  0  0  0  0  0
   23.3330   14.8180   27.9400 C   0  0  0  0  0  0  0  0  0  0  0  0
   24.0890   15.7650   28.8000 N   0  0  0  0  0  0  0  0  0  0  0  0
   24.8720   15.1210   29.8960 C   0  0  0  0  0  0  0  0  0  0  0  0
   23.9760   14.1640   30.8050 C   0  0  0  0  0  0  0  0  0  0  0  0
   19.6320   12.4140   33.1430 C   0  0  0  0  0  0  0  0  0  0  0  0
   20.9570    9.1720   32.0770 C   0  0  0  0  0  0  0  0  0  0  0  0
   19.6270   11.8130   34.4300 C   0  0  0  0  0  0  0  0  0  0  0  0
   18.6450   12.1390   35.3720 C   0  0  0  0  0  0  0  0  0  0  0  0
   17.6130   13.0570   35.0810 C   0  0  0  0  0  0  0  0  0  0  0  0
   17.5740   13.7140   33.7790 C   0  0  0  0  0  0  0  0  0  0  0  0
   18.6100   13.3700   32.8010 C   0  0  0  0  0  0  0  0  0  0  0  0
   18.7700   11.3740   36.8540 Cl  0  0  0  0  0  0  0  0  0  0  0  0
   16.4250   13.4170   36.2560 Cl  0  0  0  0  0  0  0  0  0  0  0  0
   19.6650    8.8550   32.5960 C   0  0  0  0  0  0  0  0  0  0  0  0
   19.3860    7.4770   32.7790 C   0  0  0  0  0  0  0  0  0  0  0  0
   20.2980    6.4960   32.5120 N   0  0  0  0  0  0  0  0  0  0  0  0
   21.4760    6.8920   32.0000 C   0  0  0  0  0  0  0  0  0  0  0  0
   21.8010    8.1660   31.6980 N   0  0  0  0  0  0  0  0  0  0  0  0
   22.4500    5.9700   31.7930 N   0  0  0  0  0  0  0  0  0  0  0  0
   23.1200    5.5740   30.5870 C   0  0  0  0  0  0  0  0  0  0  0  0
   23.2620    6.5120   29.3610 C   0  0  0  0  0  0  0  0  0  0  0  0
   24.4500    6.1480   28.4190 C   0  0  0  0  0  0  0  0  0  0  0  0
   25.7050    5.6830   29.0930 C   0  0  0  0  0  0  0  0  0  0  0  0
   25.5020    4.6460   30.1380 C   0  0  0  0  0  0  0  0  0  0  0  0
   24.4910    5.1190   31.2440 C   0  0  0  0  0  0  0  0  0  0  0  0
   22.6457    9.1088   29.8553 H   0  0  0  0  0  0  0  0  0  0  0  0
   23.5026   10.5896   29.1291 H   0  0  0  0  0  0  0  0  0  0  0  0
   24.5725    8.5274   30.7862 H   0  0  0  0  0  0  0  0  0  0  0  0
   25.3570    9.9918   30.0162 H   0  0  0  0  0  0  0  0  0  0  0  0
   24.5198    9.5196   32.8258 H   0  0  0  0  0  0  0  0  0  0  0  0
   25.8669   10.4944   32.1464 H   0  0  0  0  0  0  0  0  0  0  0  0
   24.1947   11.1503   32.1464 H   0  0  0  0  0  0  0  0  0  0  0  0
   23.8395   12.4228   29.4566 H   0  0  0  0  0  0  0  0  0  0  0  0
   21.9219   13.1408   28.1221 H   0  0  0  0  0  0  0  0  0  0  0  0
   21.6212   14.5247   29.2663 H   0  0  0  0  0  0  0  0  0  0  0  0
   24.0476   14.1895   27.3884 H   0  0  0  0  0  0  0  0  0  0  0  0
   22.7092   15.4053   27.2501 H   0  0  0  0  0  0  0  0  0  0  0  0
   24.7442   16.2887   28.2022 H   0  0  0  0  0  0  0  0  0  0  0  0
   25.6818   14.5260   29.4486 H   0  0  0  0  0  0  0  0  0  0  0  0
   25.2665   15.9209   30.5399 H   0  0  0  0  0  0  0  0  0  0  0  0
   23.2763   14.7817   31.3871 H   0  0  0  0  0  0  0  0  0  0  0  0
   24.6499   13.5947   31.4621 H   0  0  0  0  0  0  0  0  0  0  0  0
   20.4060   11.0811   34.6898 H   0  0  0  0  0  0  0  0  0  0  0  0
   16.7895   14.4466   33.5382 H   0  0  0  0  0  0  0  0  0  0  0  0
   18.6072   13.8412   31.8070 H   0  0  0  0  0  0  0  0  0  0  0  0
   18.9286    9.6350   32.8398 H   0  0  0  0  0  0  0  0  0  0  0  0
   18.3930    7.1856   33.1518 H   0  0  0  0  0  0  0  0  0  0  0  0
   22.7592    5.4728   32.6404 H   0  0  0  0  0  0  0  0  0  0  0  0
   22.5214    4.8462   30.0195 H   0  0  0  0  0  0  0  0  0  0  0  0
   22.3305    6.4628   28.7780 H   0  0  0  0  0  0  0  0  0  0  0  0
   23.4634    7.5199   29.7528 H   0  0  0  0  0  0  0  0  0  0  0  0
   24.1124    5.3458   27.7463 H   0  0  0  0  0  0  0  0  0  0  0  0
   24.7184    7.0832   27.9058 H   0  0  0  0  0  0  0  0  0  0  0  0
   26.3732    5.2681   28.3240 H   0  0  0  0  0  0  0  0  0  0  0  0
   26.1260    6.5610   29.6048 H   0  0  0  0  0  0  0  0  0  0  0  0
   25.1091    3.7348   29.6633 H   0  0  0  0  0  0  0  0  0  0  0  0
   26.4714    4.4548   30.6215 H   0  0  0  0  0  0  0  0  0  0  0  0
   24.9270    5.9657   31.7945 H   0  0  0  0  0  0  0  0  0  0  0  0
   24.2959    4.2808   31.9291 H   0  0  0  0  0  0  0  0  0  0  0  0
  1  2  1  0
  1  5  1  0
  1  6  1  0
  2  3  2  0
  2  9  1  0
  3  4  1  0
  4  5  2  0
  4 15  1  0
  5 16  1  0
  6  7  1  0
  7  8  1  0
  9 10  1  0
  9 14  1  0
 10 11  1  0
 11 12  1  0
 12 13  1  0
 13 14  1  0
 15 17  2  0
 15 21  1  0
 16 24  2  0
 16 28  1  0
 17 18  1  0
 18 19  2  0
 18 22  1  0
 19 20  1  0
 19 23  1  0
 20 21  2  0
 24 25  1  0
 25 26  2  0
 26 27  1  0
 27 28  2  0
 27 29  1  0
 29 30  1  0
 30 31  1  0
 30 35  1  0
 31 32  1  0
 32 33  1  0
 33 34  1  0
 34 35  1  0
  6 36  1  0
  6 37  1  0
  7 38  1  0
  7 39  1  0
  8 40  1  0
  8 41  1  0
  8 42  1  0
  9 43  1  0
 10 44  1  0
 10 45  1  0
 11 46  1  0
 11 47  1  0
 12 48  1  0
 13 49  1  0
 13 50  1  0
 14 51  1  0
 14 52  1  0
 17 53  1  0
 20 54  1  0
 21 55  1  0
 24 56  1  0
 25 57  1  0
 29 58  1  0
 30 59  1  0
 31 60  1  0
 31 61  1  0
 32 62  1  0
 32 63  1  0
 33 64  1  0
 33 65  1  0
 34 66  1  0
 34 67  1  0
 35 68  1  0
 35 69  1  0
A    1
N1
A    2
C2
A    3
N3
A    4
C4
A    5
C5
A    6
C6
A    7
C7
A    8
C10
A    9
C16
A   10
C17
A   11
C18
A   12
N19
A   13
C20
A   14
C21
A   15
C35
A   16
C36
A   17
C37
A   18
C38
A   19
C39
A   20
C40
A   21
C41
A   22
CL45
A   23
CL46
A   24
C47
A   25
C48
A   26
N49
A   27
C50
A   28
N51
A   29
N54
A   30
C55
A   31
C56
A   32
C57
A   33
C58
A   34
C59
A   35
C60
M  END
