4ZA8_F5C_A_606
     RDKit          3D

 19 19  0  0  0  0  0  0  0  0999 V2000
   17.6080   12.5190   25.0160 C   0  0  0  0  0  0  0  0  0  0  0  0
   18.5810   12.7110   26.1550 C   0  0  0  0  0  0  0  0  0  0  0  0
   18.9410   11.4360   26.7750 C   0  0  0  0  0  0  0  0  0  0  0  0
   19.6130   11.4830   28.0380 C   0  0  0  0  0  0  0  0  0  0  0  0
   19.8090   12.6440   28.5480 F   0  0  0  0  0  0  0  0  0  0  0  0
   18.8780   10.2150   26.3020 C   0  0  0  0  0  0  0  0  0  0  0  0
   18.2500    9.9910   25.1630 F   0  0  0  0  0  0  0  0  0  0  0  0
   20.0690   10.4280   28.6750 C   0  0  0  0  0  0  0  0  0  0  0  0
   20.7390   10.5910   29.9180 F   0  0  0  0  0  0  0  0  0  0  0  0
   19.2460    9.0670   26.9840 C   0  0  0  0  0  0  0  0  0  0  0  0
   19.0970    7.8070   26.6310 F   0  0  0  0  0  0  0  0  0  0  0  0
   19.8670    9.1750   28.2340 C   0  0  0  0  0  0  0  0  0  0  0  0
   20.2930    8.0540   28.8910 F   0  0  0  0  0  0  0  0  0  0  0  0
   17.0330   13.8010   24.4000 C   0  0  0  0  0  0  0  0  0  0  0  0
   17.5950   14.9530   24.4890 O   0  0  0  0  0  0  0  0  0  0  0  0
   15.9180   13.6030   23.8060 O   0  0  0  0  0  0  0  0  0  0  0  0
   17.3284   11.5200   24.6501 H   0  0  0  0  0  0  0  0  0  0  0  0
   18.9704   13.6878   26.4780 H   0  0  0  0  0  0  0  0  0  0  0  0
   17.7855   15.3434   25.3786 H   0  0  0  0  0  0  0  0  0  0  0  0
 16 14  2  0
 14 15  1  0
 14  1  1  0
  1  2  2  0
  7  6  1  0
  2  3  1  0
  6  3  2  0
  6 10  1  0
 11 10  1  0
  3  4  1  0
 10 12  2  0
  4  5  1  0
  4  8  2  0
 12  8  1  0
 12 13  1  0
  8  9  1  0
  1 17  1  0
  2 18  1  0
 15 19  1  0
A    1
CA
A    2
CB
A    3
CG
A    4
CD1
A    5
FD1
A    6
CD2
A    7
FD2
A    8
CE1
A    9
FE1
A   10
CE2
A   11
FE2
A   12
CZ
A   13
FZ
A   14
C
A   15
O
A   16
OXT
M  END
