4ZA9_4MJ_A_601
     RDKit          3D

 82 86  0  0  0  0  0  0  0  0999 V2000
   21.4570    9.0450   21.7400 C   0  0  0  0  0  0  0  0  0  0  0  0
   21.0610    9.2610   20.4050 C   0  0  0  0  0  0  0  0  0  0  0  0
   20.6230   10.5220   19.9830 C   0  0  0  0  0  0  0  0  0  0  0  0
   21.8170   10.8920   24.8860 C   0  0  0  0  0  0  0  0  0  0  0  0
   20.4810   11.6250   20.9400 C   0  0  0  0  0  0  0  0  0  0  0  0
   22.3540   12.8990   26.5180 N   0  0  0  0  0  0  0  0  0  0  0  0
   22.6560   11.6620   26.8560 C   0  0  0  0  0  0  0  0  0  0  0  0
   27.4500    6.7960   28.4980 O   0  0  0  0  0  0  0  0  0  0  0  0
   27.6440    5.7510   27.3980 P   0  0  0  0  0  0  0  0  0  0  0  0
   29.0480    5.5820   26.9330 O   0  0  0  0  0  0  0  0  0  0  0  0
   26.9760    4.4120   27.7420 O   0  0  0  0  0  0  0  0  0  0  0  0
   26.9160    6.2660   26.0790 O   0  0  0  0  0  0  0  0  0  0  0  0
   25.5750    6.8590   26.1300 C   0  0  0  0  0  0  0  0  0  0  0  0
   24.6040    5.9440   25.4100 C   0  0  0  0  0  0  0  0  0  0  0  0
   24.4780    4.6910   26.1170 O   0  0  0  0  0  0  0  0  0  0  0  0
   23.1870    6.5320   25.3140 C   0  0  0  0  0  0  0  0  0  0  0  0
   22.5270    6.5250   26.5970 O   0  0  0  0  0  0  0  0  0  0  0  0
   23.1630    7.9630   24.8250 C   0  0  0  0  0  0  0  0  0  0  0  0
   23.9380    8.0420   23.6230 O   0  0  0  0  0  0  0  0  0  0  0  0
   21.7600    8.5450   24.5630 C   0  0  0  0  0  0  0  0  0  0  0  0
   21.6380    9.8610   24.0560 N   0  0  0  0  0  0  0  0  0  0  0  0
   21.3070   10.0720   22.6970 C   0  0  0  0  0  0  0  0  0  0  0  0
   21.1130    8.0520   19.4750 C   0  0  0  0  0  0  0  0  0  0  0  0
   20.3180   10.6620   18.5230 C   0  0  0  0  0  0  0  0  0  0  0  0
   20.8450   11.3030   22.3020 C   0  0  0  0  0  0  0  0  0  0  0  0
   20.0610   13.0790   20.7080 C   0  0  0  0  0  0  0  0  0  0  0  0
   21.3160   13.8750   20.7460 C   0  0  0  0  0  0  0  0  0  0  0  0
   19.3460   13.3260   19.4080 C   0  0  0  0  0  0  0  0  0  0  0  0
   19.1110   13.3770   21.7940 C   0  0  0  0  0  0  0  0  0  0  0  0
   19.7350   13.3530   23.1670 C   0  0  0  0  0  0  0  0  0  0  0  0
   20.6910   12.3460   23.2930 N   0  0  0  0  0  0  0  0  0  0  0  0
   21.4220   12.1570   24.4700 C   0  0  0  0  0  0  0  0  0  0  0  0
   22.4000   10.6320   26.0660 N   0  0  0  0  0  0  0  0  0  0  0  0
   21.7230   13.2430   25.2970 C   0  0  0  0  0  0  0  0  0  0  0  0
   21.5420   14.4430   25.0650 O   0  0  0  0  0  0  0  0  0  0  0  0
   23.2710   11.4540   28.0070 O   0  0  0  0  0  0  0  0  0  0  0  0
   18.6570   13.2920   24.1400 C   0  0  0  0  0  0  0  0  0  0  0  0
   18.0690   14.3840   24.4810 O   0  0  0  0  0  0  0  0  0  0  0  0
   18.0840   12.1280   24.6830 C   0  0  0  0  0  0  0  0  0  0  0  0
   18.6650   11.6080   25.9730 C   0  0  0  0  0  0  0  0  0  0  0  0
   19.1170   12.5130   26.9390 C   0  0  0  0  0  0  0  0  0  0  0  0
   19.6780   12.0920   28.1320 C   0  0  0  0  0  0  0  0  0  0  0  0
   19.8390   10.7770   28.3390 C   0  0  0  0  0  0  0  0  0  0  0  0
   19.4300    9.7950   27.4710 C   0  0  0  0  0  0  0  0  0  0  0  0
   18.8280   10.2700   26.2190 C   0  0  0  0  0  0  0  0  0  0  0  0
   21.8834    8.0754   22.0367 H   0  0  0  0  0  0  0  0  0  0  0  0
   22.5890   13.6558   27.1760 H   0  0  0  0  0  0  0  0  0  0  0  0
   27.5307    6.3615   29.3839 H   0  0  0  0  0  0  0  0  0  0  0  0
   26.9258    4.3113   28.7256 H   0  0  0  0  0  0  0  0  0  0  0  0
   25.5879    7.8432   25.6388 H   0  0  0  0  0  0  0  0  0  0  0  0
   25.2626    6.9828   27.1774 H   0  0  0  0  0  0  0  0  0  0  0  0
   25.0171    5.8113   24.3992 H   0  0  0  0  0  0  0  0  0  0  0  0
   24.4949    4.8593   27.0924 H   0  0  0  0  0  0  0  0  0  0  0  0
   22.6693    5.8870   24.5887 H   0  0  0  0  0  0  0  0  0  0  0  0
   23.2060    6.5322   27.3174 H   0  0  0  0  0  0  0  0  0  0  0  0
   23.5824    8.5724   25.6391 H   0  0  0  0  0  0  0  0  0  0  0  0
   24.8958    8.1396   23.8537 H   0  0  0  0  0  0  0  0  0  0  0  0
   21.2181    8.5186   25.5199 H   0  0  0  0  0  0  0  0  0  0  0  0
   21.3653    7.9162   23.7513 H   0  0  0  0  0  0  0  0  0  0  0  0
   21.1526    7.1302   20.0739 H   0  0  0  0  0  0  0  0  0  0  0  0
   20.2146    8.0386   18.8404 H   0  0  0  0  0  0  0  0  0  0  0  0
   22.0092    8.1158   18.8404 H   0  0  0  0  0  0  0  0  0  0  0  0
   19.3248   11.1179   18.3980 H   0  0  0  0  0  0  0  0  0  0  0  0
   21.0773   11.3017   18.0495 H   0  0  0  0  0  0  0  0  0  0  0  0
   20.3280    9.6692   18.0495 H   0  0  0  0  0  0  0  0  0  0  0  0
   21.6031   14.0571   21.7921 H   0  0  0  0  0  0  0  0  0  0  0  0
   22.1178   13.3200   20.2370 H   0  0  0  0  0  0  0  0  0  0  0  0
   21.1557   14.8369   20.2370 H   0  0  0  0  0  0  0  0  0  0  0  0
   18.3244   13.6789   19.6127 H   0  0  0  0  0  0  0  0  0  0  0  0
   19.8886   14.0888   18.8303 H   0  0  0  0  0  0  0  0  0  0  0  0
   19.3021   12.3910   18.8303 H   0  0  0  0  0  0  0  0  0  0  0  0
   18.6888   14.3780   21.6215 H   0  0  0  0  0  0  0  0  0  0  0  0
   18.3431   12.5896   21.7753 H   0  0  0  0  0  0  0  0  0  0  0  0
   20.3115   14.2715   23.3517 H   0  0  0  0  0  0  0  0  0  0  0  0
   22.6386    9.6698   26.3455 H   0  0  0  0  0  0  0  0  0  0  0  0
   17.0186   12.3362   24.8608 H   0  0  0  0  0  0  0  0  0  0  0  0
   18.2899   11.3405   23.9431 H   0  0  0  0  0  0  0  0  0  0  0  0
   19.0238   13.5917   26.7446 H   0  0  0  0  0  0  0  0  0  0  0  0
   19.9858   12.8217   28.8954 H   0  0  0  0  0  0  0  0  0  0  0  0
   20.3337   10.4628   29.2699 H   0  0  0  0  0  0  0  0  0  0  0  0
   19.5455    8.7249   27.6982 H   0  0  0  0  0  0  0  0  0  0  0  0
   18.5020    9.5385   25.4649 H   0  0  0  0  0  0  0  0  0  0  0  0
 24  3  1  0
 28 26  1  0
 23  2  1  0
  3  2  1  0
  3  5  2  0
  2  1  2  0
 26 27  1  0
 26  5  1  0
 26 29  1  0
  5 25  1  0
  1 22  1  0
 29 30  1  0
 25 22  2  0
 25 31  1  0
 22 21  1  0
 30 31  1  0
 30 37  1  0
 31 32  1  0
 19 18  1  0
 21 20  1  0
 21  4  1  0
 37 38  2  0
 37 39  1  0
 32  4  2  0
 32 34  1  0
 20 18  1  0
 39 40  1  0
 18 16  1  0
  4 33  1  0
 35 34  2  0
 34  6  1  0
 16 14  1  0
 16 17  1  0
 14 15  1  0
 14 13  1  0
 40 45  1  0
 40 41  2  0
 33  7  1  0
 12 13  1  0
 12  9  1  0
 45 44  2  0
  6  7  1  0
  7 36  2  0
 10  9  2  0
 41 42  1  0
  9 11  1  0
  9  8  1  0
 44 43  1  0
 42 43  2  0
  1 46  1  0
  6 47  1  0
  8 48  1  0
 11 49  1  0
 13 50  1  0
 13 51  1  0
 14 52  1  0
 15 53  1  0
 16 54  1  0
 17 55  1  0
 18 56  1  0
 19 57  1  0
 20 58  1  0
 20 59  1  0
 23 60  1  0
 23 61  1  0
 23 62  1  0
 24 63  1  0
 24 64  1  0
 24 65  1  0
 27 66  1  0
 27 67  1  0
 27 68  1  0
 28 69  1  0
 28 70  1  0
 28 71  1  0
 29 72  1  0
 29 73  1  0
 30 74  1  0
 33 75  1  0
 39 76  1  0
 39 77  1  0
 41 78  1  0
 42 79  1  0
 43 80  1  0
 44 81  1  0
 45 82  1  0
A    1
C1
A    2
C2
A    3
C3
A    4
C4
A    5
C5
A    6
N1
A    7
C6
A    8
O1
A    9
P1
A   10
O2
A   11
O3
A   12
O4
A   13
C7
A   14
C8
A   15
O5
A   16
C9
A   17
O6
A   18
C10
A   19
O7
A   20
C11
A   21
N2
A   22
C12
A   23
C13
A   24
C14
A   25
C15
A   26
C16
A   27
C17
A   28
C18
A   29
C19
A   30
C20
A   31
N3
A   32
C21
A   33
N4
A   34
C22
A   35
O8
A   36
O9
A   37
C23
A   38
O10
A   39
C24
A   40
C25
A   41
C26
A   42
C27
A   43
C28
A   44
C29
A   45
C30
M  END
