4ZAB_4LW_A_606
     RDKit          3D

 19 19  0  0  0  0  0  0  0  0999 V2000
   16.8520   11.6990   24.5670 F   0  0  0  0  0  0  0  0  0  0  0  0
   17.4930   12.7700   25.1090 C   0  0  0  0  0  0  0  0  0  0  0  0
   17.1320   14.0260   24.4680 C   0  0  0  0  0  0  0  0  0  0  0  0
   16.0070   14.0180   23.7760 O   0  0  0  0  0  0  0  0  0  0  0  0
   17.8420   15.0090   24.5370 O   0  0  0  0  0  0  0  0  0  0  0  0
   18.3900   12.6590   26.1410 C   0  0  0  0  0  0  0  0  0  0  0  0
   18.8060   11.4190   26.7810 C   0  0  0  0  0  0  0  0  0  0  0  0
   19.5180   11.5880   27.9910 C   0  0  0  0  0  0  0  0  0  0  0  0
   19.9630   10.4860   28.5590 C   0  0  0  0  0  0  0  0  0  0  0  0
   19.7830    9.2190   28.0860 C   0  0  0  0  0  0  0  0  0  0  0  0
   19.0430    8.9790   26.9020 C   0  0  0  0  0  0  0  0  0  0  0  0
   18.6120   10.2050   26.2570 C   0  0  0  0  0  0  0  0  0  0  0  0
   18.1028   15.3701   25.4211 H   0  0  0  0  0  0  0  0  0  0  0  0
   18.8353   13.5910   26.5192 H   0  0  0  0  0  0  0  0  0  0  0  0
   19.6901   12.5810   28.4318 H   0  0  0  0  0  0  0  0  0  0  0  0
   20.5287   10.5968   29.4958 H   0  0  0  0  0  0  0  0  0  0  0  0
   20.2195    8.3702   28.6328 H   0  0  0  0  0  0  0  0  0  0  0  0
   18.8198    7.9740   26.5145 H   0  0  0  0  0  0  0  0  0  0  0  0
   18.0991   10.1315   25.2867 H   0  0  0  0  0  0  0  0  0  0  0  0
  4  3  2  0
  3  5  1  0
  3  2  1  0
  1  2  1  0
  2  6  2  0
  6  7  1  0
 12  7  2  0
 12 11  1  0
  7  8  1  0
 11 10  2  0
  8  9  2  0
 10  9  1  0
  5 13  1  0
  6 14  1  0
  8 15  1  0
  9 16  1  0
 10 17  1  0
 11 18  1  0
 12 19  1  0
A    1
F1
A    2
CA
A    3
C
A    4
OXT
A    5
O
A    6
CB
A    7
CG
A    8
CD1
A    9
CE1
A   10
CZ
A   11
CE2
A   12
CD2
M  END
