4ZAE_4M1_A_301
     RDKit          3D

 57 61  0  0  0  0  0  0  0  0999 V2000
  -14.6830  -32.5710  -16.1460 C   0  0  0  0  0  0  0  0  0  0  0  0
  -14.2980  -33.8210  -16.5770 C   0  0  0  0  0  0  0  0  0  0  0  0
  -15.0160  -32.3800  -14.8210 C   0  0  0  0  0  0  0  0  0  0  0  0
  -14.2420  -34.8820  -15.6860 C   0  0  0  0  0  0  0  0  0  0  0  0
  -14.9840  -33.4440  -13.9310 C   0  0  0  0  0  0  0  0  0  0  0  0
  -11.6620  -34.8970   -9.3320 C   0  0  0  0  0  0  0  0  0  0  0  0
  -14.2380  -34.1200   -8.6720 C   0  0  0  0  0  0  0  0  0  0  0  0
  -14.2300  -41.4300  -10.3090 C   0  0  0  0  0  0  0  0  0  0  0  0
  -16.3870  -42.1720  -11.0800 C   0  0  0  0  0  0  0  0  0  0  0  0
  -14.6950  -43.6200   -8.1840 C   0  0  0  0  0  0  0  0  0  0  0  0
  -15.6090  -44.7930   -9.7320 C   0  0  0  0  0  0  0  0  0  0  0  0
  -15.4460  -40.1100  -11.9490 C   0  0  0  0  0  0  0  0  0  0  0  0
  -14.5810  -34.7070  -14.3500 C   0  0  0  0  0  0  0  0  0  0  0  0
  -11.9110  -34.3660   -8.0700 C   0  0  0  0  0  0  0  0  0  0  0  0
  -13.2230  -33.9720   -7.7320 C   0  0  0  0  0  0  0  0  0  0  0  0
  -12.6660  -35.0530  -10.2760 C   0  0  0  0  0  0  0  0  0  0  0  0
  -15.2600  -42.3690  -10.2840 C   0  0  0  0  0  0  0  0  0  0  0  0
  -13.9540  -34.6620   -9.9230 C   0  0  0  0  0  0  0  0  0  0  0  0
  -14.3300  -40.3280  -11.1400 C   0  0  0  0  0  0  0  0  0  0  0  0
  -16.4750  -41.0450  -11.8750 C   0  0  0  0  0  0  0  0  0  0  0  0
  -14.0300  -35.4560  -12.0210 C   0  0  0  0  0  0  0  0  0  0  0  0
  -15.4930  -38.9760  -12.9360 C   0  0  0  0  0  0  0  0  0  0  0  0
  -10.7970  -34.3050   -7.0600 C   0  0  0  0  0  0  0  0  0  0  0  0
  -13.5650  -33.5360   -6.3290 C   0  0  0  0  0  0  0  0  0  0  0  0
  -15.8950  -36.5880  -13.2760 C   0  0  0  0  0  0  0  0  0  0  0  0
  -14.5110  -35.8860  -13.3850 C   0  0  0  0  0  0  0  0  0  0  0  0
  -14.8180  -44.8290   -7.7190 N   0  0  0  0  0  0  0  0  0  0  0  0
  -15.3960  -45.5910   -8.7270 N   0  0  0  0  0  0  0  0  0  0  0  0
  -12.7450  -35.5250  -11.5820 N   0  0  0  0  0  0  0  0  0  0  0  0
  -15.1880  -43.5310   -9.4470 N   0  0  0  0  0  0  0  0  0  0  0  0
  -14.7580  -34.9290  -11.0130 N   0  0  0  0  0  0  0  0  0  0  0  0
  -15.7590  -37.7670  -12.4370 N   0  0  0  0  0  0  0  0  0  0  0  0
  -15.3250  -39.1800  -14.1370 O   0  0  0  0  0  0  0  0  0  0  0  0
  -12.9960  -39.2290  -11.2150 Cl  0  0  0  0  0  0  0  0  0  0  0  0
  -17.9450  -40.7660  -12.7510 Cl  0  0  0  0  0  0  0  0  0  0  0  0
  -14.7247  -31.7301  -16.8539 H   0  0  0  0  0  0  0  0  0  0  0  0
  -14.0337  -33.9785  -17.6331 H   0  0  0  0  0  0  0  0  0  0  0  0
  -15.3082  -31.3798  -14.4685 H   0  0  0  0  0  0  0  0  0  0  0  0
  -13.9255  -35.8738  -16.0411 H   0  0  0  0  0  0  0  0  0  0  0  0
  -15.2804  -33.2867  -12.8834 H   0  0  0  0  0  0  0  0  0  0  0  0
  -10.6370  -35.2025   -9.5888 H   0  0  0  0  0  0  0  0  0  0  0  0
  -15.2643  -33.8090   -8.4272 H   0  0  0  0  0  0  0  0  0  0  0  0
  -13.3432  -41.5642   -9.6721 H   0  0  0  0  0  0  0  0  0  0  0  0
  -17.2026  -42.9101  -11.0755 H   0  0  0  0  0  0  0  0  0  0  0  0
  -14.2507  -42.7811   -7.6282 H   0  0  0  0  0  0  0  0  0  0  0  0
  -16.0678  -45.0976  -10.6842 H   0  0  0  0  0  0  0  0  0  0  0  0
  -11.2206  -34.3282   -6.0451 H   0  0  0  0  0  0  0  0  0  0  0  0
  -10.1290  -35.1679   -7.1983 H   0  0  0  0  0  0  0  0  0  0  0  0
  -10.2272  -33.3743   -7.1983 H   0  0  0  0  0  0  0  0  0  0  0  0
  -13.0528  -34.1890   -5.6070 H   0  0  0  0  0  0  0  0  0  0  0  0
  -13.2391  -32.4962   -6.1785 H   0  0  0  0  0  0  0  0  0  0  0  0
  -14.6525  -33.6049   -6.1785 H   0  0  0  0  0  0  0  0  0  0  0  0
  -16.6250  -35.8979  -12.8279 H   0  0  0  0  0  0  0  0  0  0  0  0
  -16.2448  -36.8807  -14.2770 H   0  0  0  0  0  0  0  0  0  0  0  0
  -13.7816  -36.6036  -13.7887 H   0  0  0  0  0  0  0  0  0  0  0  0
  -11.9489  -35.8746  -12.1342 H   0  0  0  0  0  0  0  0  0  0  0  0
  -15.8722  -37.6656  -11.4183 H   0  0  0  0  0  0  0  0  0  0  0  0
  2  1  2  0
  2  4  1  0
  1  3  1  0
  4 13  2  0
  3  5  2  0
 13  5  1  0
 13 26  1  0
 33 22  2  0
 26 25  1  0
 26 21  1  0
 25 32  1  0
 22 32  1  0
 22 12  1  0
 35 20  1  0
 21 29  1  0
 21 31  2  0
 12 20  2  0
 12 19  1  0
 20  9  1  0
 29 16  1  0
 34 19  1  0
 19  8  2  0
  9 17  2  0
 31 18  1  0
  8 17  1  0
 17 30  1  0
 16 18  1  0
 16  6  2  0
 18  7  2  0
 11 30  1  0
 11 28  2  0
 30 10  1  0
  6 14  1  0
 28 27  1  0
  7 15  1  0
 10 27  2  0
 14 15  2  0
 14 23  1  0
 15 24  1  0
  1 36  1  0
  2 37  1  0
  3 38  1  0
  4 39  1  0
  5 40  1  0
  6 41  1  0
  7 42  1  0
  8 43  1  0
  9 44  1  0
 10 45  1  0
 11 46  1  0
 23 47  1  0
 23 48  1  0
 23 49  1  0
 24 50  1  0
 24 51  1  0
 24 52  1  0
 25 53  1  0
 25 54  1  0
 26 55  1  0
 29 56  1  0
 32 57  1  0
A    1
C21
A    2
C22
A    3
C20
A    4
C23
A    5
C19
A    6
C2
A    7
C5
A    8
C12
A    9
C14
A   10
C17
A   11
C16
A   12
C10
A   13
C18
A   14
C1
A   15
C
A   16
C3
A   17
C13
A   18
C4
A   19
C11
A   20
C15
A   21
C6
A   22
C9
A   23
C24
A   24
C25
A   25
C8
A   26
C7
A   27
N5
A   28
N4
A   29
N1
A   30
N3
A   31
N
A   32
N2
A   33
O
A   34
CL1
A   35
CL
M  END
