4ZAU_YY3_A_1101
     RDKit          3D

 70 73  0  0  0  0  0  0  0  0999 V2000
   -3.2190  -49.7970   11.0900 C   0  0  0  0  0  0  0  0  0  0  0  0
   -2.4360  -49.0430   12.0780 N   0  0  0  0  0  0  0  0  0  0  0  0
   -3.1940  -48.2140   13.0480 C   0  0  0  0  0  0  0  0  0  0  0  0
   -1.8790  -50.1420   12.9170 C   0  0  0  0  0  0  0  0  0  0  0  0
   -0.3450  -50.2720   12.7500 C   0  0  0  0  0  0  0  0  0  0  0  0
    0.2540  -49.4220   13.8270 N   0  0  0  0  0  0  0  0  0  0  0  0
    1.2860  -48.4860   13.3050 C   0  0  0  0  0  0  0  0  0  0  0  0
    1.8270  -50.9880   14.7920 C   0  0  0  0  0  0  0  0  0  0  0  0
    2.2570  -51.7560   15.8830 C   0  0  0  0  0  0  0  0  0  0  0  0
    3.3840  -52.5630   15.7970 O   0  0  0  0  0  0  0  0  0  0  0  0
    4.2560  -52.2140   14.7430 C   0  0  0  0  0  0  0  0  0  0  0  0
    0.6890  -50.2020   14.9230 C   0  0  0  0  0  0  0  0  0  0  0  0
   -0.0870  -50.1800   16.1140 C   0  0  0  0  0  0  0  0  0  0  0  0
   -1.1890  -49.3830   16.2610 N   0  0  0  0  0  0  0  0  0  0  0  0
   -2.2310  -49.6780   17.0600 C   0  0  0  0  0  0  0  0  0  0  0  0
   -2.2740  -50.7450   17.6610 O   0  0  0  0  0  0  0  0  0  0  0  0
   -3.3970  -48.6770   17.2180 C   0  0  0  0  0  0  0  0  0  0  0  0
   -4.5960  -48.9250   18.0680 C   0  0  0  0  0  0  0  0  0  0  0  0
    0.3770  -50.9640   17.2040 C   0  0  0  0  0  0  0  0  0  0  0  0
    1.5390  -51.7450   17.1020 C   0  0  0  0  0  0  0  0  0  0  0  0
    2.0390  -52.5820   18.1300 N   0  0  0  0  0  0  0  0  0  0  0  0
    1.6980  -52.5930   19.4850 C   0  0  0  0  0  0  0  0  0  0  0  0
    0.9690  -51.6510   20.0690 N   0  0  0  0  0  0  0  0  0  0  0  0
    2.1650  -53.6150   20.2090 N   0  0  0  0  0  0  0  0  0  0  0  0
    1.8870  -53.7180   21.5680 C   0  0  0  0  0  0  0  0  0  0  0  0
    1.1370  -52.7430   22.1890 C   0  0  0  0  0  0  0  0  0  0  0  0
    0.6750  -51.6860   21.3960 C   0  0  0  0  0  0  0  0  0  0  0  0
   -0.1460  -50.6020   22.0120 C   0  0  0  0  0  0  0  0  0  0  0  0
   -0.4110  -49.3940   21.4760 C   0  0  0  0  0  0  0  0  0  0  0  0
   -0.0560  -48.8180   20.3070 C   0  0  0  0  0  0  0  0  0  0  0  0
   -0.4670  -47.5300   19.9650 C   0  0  0  0  0  0  0  0  0  0  0  0
   -1.2660  -46.8340   20.8660 C   0  0  0  0  0  0  0  0  0  0  0  0
   -1.6160  -47.4370   22.0710 C   0  0  0  0  0  0  0  0  0  0  0  0
   -1.1720  -48.7260   22.3530 C   0  0  0  0  0  0  0  0  0  0  0  0
   -1.3740  -49.5080   23.4040 N   0  0  0  0  0  0  0  0  0  0  0  0
   -2.1580  -49.1370   24.5860 C   0  0  0  0  0  0  0  0  0  0  0  0
   -0.7510  -50.6610   23.2050 C   0  0  0  0  0  0  0  0  0  0  0  0
   -3.9169  -50.4691   11.6108 H   0  0  0  0  0  0  0  0  0  0  0  0
   -3.7862  -49.0963   10.4597 H   0  0  0  0  0  0  0  0  0  0  0  0
   -2.5402  -50.3902   10.4597 H   0  0  0  0  0  0  0  0  0  0  0  0
   -2.9239  -48.5094   14.0726 H   0  0  0  0  0  0  0  0  0  0  0  0
   -2.9471  -47.1530   12.8952 H   0  0  0  0  0  0  0  0  0  0  0  0
   -4.2728  -48.3651   12.8952 H   0  0  0  0  0  0  0  0  0  0  0  0
   -2.1058  -49.9337   13.9730 H   0  0  0  0  0  0  0  0  0  0  0  0
   -2.3395  -51.0868   12.5926 H   0  0  0  0  0  0  0  0  0  0  0  0
   -0.0336  -51.3200   12.8710 H   0  0  0  0  0  0  0  0  0  0  0  0
   -0.0171  -49.9509   11.7503 H   0  0  0  0  0  0  0  0  0  0  0  0
    1.8098  -48.0109   14.1475 H   0  0  0  0  0  0  0  0  0  0  0  0
    2.0090  -49.0428   12.6908 H   0  0  0  0  0  0  0  0  0  0  0  0
    0.8022  -47.7123   12.6908 H   0  0  0  0  0  0  0  0  0  0  0  0
    2.3839  -51.0075   13.8436 H   0  0  0  0  0  0  0  0  0  0  0  0
    5.2013  -51.8357   15.1592 H   0  0  0  0  0  0  0  0  0  0  0  0
    4.4568  -53.1010   14.1243 H   0  0  0  0  0  0  0  0  0  0  0  0
    3.7893  -51.4334   14.1243 H   0  0  0  0  0  0  0  0  0  0  0  0
   -1.2234  -48.5028   15.7272 H   0  0  0  0  0  0  0  0  0  0  0  0
   -3.3389  -47.7246   16.6707 H   0  0  0  0  0  0  0  0  0  0  0  0
   -5.3898  -48.1664   18.1340 H   0  0  0  0  0  0  0  0  0  0  0  0
   -4.6871  -49.8666   18.6293 H   0  0  0  0  0  0  0  0  0  0  0  0
   -0.1866  -50.9590   18.1486 H   0  0  0  0  0  0  0  0  0  0  0  0
    2.7463  -53.2726   17.8407 H   0  0  0  0  0  0  0  0  0  0  0  0
    2.2646  -54.5750   22.1451 H   0  0  0  0  0  0  0  0  0  0  0  0
    0.9105  -52.7932   23.2643 H   0  0  0  0  0  0  0  0  0  0  0  0
    0.5757  -49.3812   19.6043 H   0  0  0  0  0  0  0  0  0  0  0  0
   -0.1674  -47.0768   19.0085 H   0  0  0  0  0  0  0  0  0  0  0  0
   -1.6173  -45.8189   20.6292 H   0  0  0  0  0  0  0  0  0  0  0  0
   -2.2410  -46.8970   22.7975 H   0  0  0  0  0  0  0  0  0  0  0  0
   -1.5983  -49.4019   25.4952 H   0  0  0  0  0  0  0  0  0  0  0  0
   -2.3478  -48.0536   24.5748 H   0  0  0  0  0  0  0  0  0  0  0  0
   -3.1161  -49.6772   24.5748 H   0  0  0  0  0  0  0  0  0  0  0  0
   -0.7340  -51.5154   23.8976 H   0  0  0  0  0  0  0  0  0  0  0  0
  1  2  1  0
  2  4  1  0
  2  3  1  0
  5  4  1  0
  5  6  1  0
  7  6  1  0
  6 12  1  0
 11 10  1  0
  8 12  2  0
  8  9  1  0
 12 13  1  0
 10  9  1  0
  9 20  2  0
 13 14  1  0
 13 19  2  0
 14 15  1  0
 15 17  1  0
 15 16  2  0
 20 19  1  0
 20 21  1  0
 17 18  2  3
 21 22  1  0
 22 23  2  0
 22 24  1  0
 31 30  2  0
 31 32  1  0
 23 27  1  0
 24 25  2  0
 30 29  1  0
 32 33  2  0
 27 28  1  0
 27 26  2  0
 29 28  1  0
 29 34  2  0
 25 26  1  0
 28 37  2  0
 33 34  1  0
 34 35  1  0
 37 35  1  0
 35 36  1  0
  1 38  1  0
  1 39  1  0
  1 40  1  0
  3 41  1  0
  3 42  1  0
  3 43  1  0
  4 44  1  0
  4 45  1  0
  5 46  1  0
  5 47  1  0
  7 48  1  0
  7 49  1  0
  7 50  1  0
  8 51  1  0
 11 52  1  0
 11 53  1  0
 11 54  1  0
 14 55  1  0
 17 56  1  0
 18 57  1  0
 18 58  1  0
 19 59  1  0
 21 60  1  0
 25 61  1  0
 26 62  1  0
 30 63  1  0
 31 64  1  0
 32 65  1  0
 33 66  1  0
 36 67  1  0
 36 68  1  0
 36 69  1  0
 37 70  1  0
A    1
C13
A    2
N2
A    3
C12
A    4
C11
A    5
C10
A    6
N1
A    7
C28
A    8
C3
A    9
C4
A   10
O1
A   11
C14
A   12
C2
A   13
C1
A   14
N
A   15
C7
A   16
O
A   17
C8
A   18
C9
A   19
C6
A   20
C5
A   21
N3
A   22
C15
A   23
N5
A   24
N4
A   25
C16
A   26
C17
A   27
C18
A   28
C19
A   29
C26
A   30
C25
A   31
C24
A   32
C23
A   33
C22
A   34
C21
A   35
N6
A   36
C27
A   37
C20
M  END
