1AF6_FRU_A_423
     RDKit          3D

 24 24  0  0  0  0  0  0  0  0999 V2000
   11.4430   40.9520   87.8580 C   0  0  0  0  0  0  0  0  0  0  0  0
   12.8040   41.2550   87.1810 C   0  0  0  0  0  0  0  0  0  0  0  0
   13.9170   41.7790   88.1490 C   0  0  0  0  0  0  0  0  0  0  0  0
   14.8430   42.4840   87.1270 C   0  0  0  0  0  0  0  0  0  0  0  0
   13.7690   43.2140   86.2970 C   0  0  0  0  0  0  0  0  0  0  0  0
   14.2040   43.6460   84.9250 C   0  0  0  0  0  0  0  0  0  0  0  0
   10.9650   42.0370   88.6640 O   0  0  0  0  0  0  0  0  0  0  0  0
   13.2970   40.0420   86.5380 O   0  0  0  0  0  0  0  0  0  0  0  0
   14.5930   40.6720   88.7730 O   0  0  0  0  0  0  0  0  0  0  0  0
   15.7700   43.3640   87.7470 O   0  0  0  0  0  0  0  0  0  0  0  0
   12.6650   42.2850   86.1410 O   0  0  0  0  0  0  0  0  0  0  0  0
   13.2820   44.6090   84.4310 O   0  0  0  0  0  0  0  0  0  0  0  0
   10.7000   40.7438   87.0740 H   0  0  0  0  0  0  0  0  0  0  0  0
   11.5910   40.0882   88.5228 H   0  0  0  0  0  0  0  0  0  0  0  0
   13.5678   42.4143   88.9763 H   0  0  0  0  0  0  0  0  0  0  0  0
   15.5074   41.8240   86.5500 H   0  0  0  0  0  0  0  0  0  0  0  0
   13.5165   44.1388   86.8364 H   0  0  0  0  0  0  0  0  0  0  0  0
   15.2087   44.0906   84.9792 H   0  0  0  0  0  0  0  0  0  0  0  0
   14.2310   42.7765   84.2518 H   0  0  0  0  0  0  0  0  0  0  0  0
   11.0665   41.8065   89.6214 H   0  0  0  0  0  0  0  0  0  0  0  0
   13.5634   39.3864   87.2303 H   0  0  0  0  0  0  0  0  0  0  0  0
   14.5371   40.7635   89.7572 H   0  0  0  0  0  0  0  0  0  0  0  0
   15.6899   43.2880   88.7308 H   0  0  0  0  0  0  0  0  0  0  0  0
   12.8437   45.0668   85.1916 H   0  0  0  0  0  0  0  0  0  0  0  0
  1  2  1  0
  1  7  1  0
  2  3  1  0
  2  8  1  0
  2 11  1  0
  3  4  1  0
  3  9  1  0
  4  5  1  0
  4 10  1  0
  5  6  1  0
  5 11  1  0
  6 12  1  0
  1 13  1  0
  1 14  1  0
  3 15  1  0
  4 16  1  0
  5 17  1  0
  6 18  1  0
  6 19  1  0
  7 20  1  0
  8 21  1  0
  9 22  1  0
 10 23  1  0
 12 24  1  0
A    1
C1
A    2
C2
A    3
C3
A    4
C4
A    5
C5
A    6
C6
A    7
O1
A    8
O2
A    9
O3
A   10
O4
A   11
O5
A   12
O6
M  END
