4ZBF_4M7_A_400
     RDKit          3D

 54 58  0  0  0  0  0  0  0  0999 V2000
  -34.2580   26.4610   -0.6420 O   0  0  0  0  0  0  0  0  0  0  0  0
  -33.3250   27.2980   -0.7630 C   0  0  0  0  0  0  0  0  0  0  0  0
  -33.4800   28.2590   -1.5580 O   0  0  0  0  0  0  0  0  0  0  0  0
  -32.0320   27.1420   -0.0080 C   0  0  0  0  0  0  0  0  0  0  0  0
  -31.3710   28.1220    0.7120 N   0  0  0  0  0  0  0  0  0  0  0  0
  -30.2110   27.6150    1.2460 C   0  0  0  0  0  0  0  0  0  0  0  0
  -31.7930   29.5110    0.9200 C   0  0  0  0  0  0  0  0  0  0  0  0
  -30.8280   30.5100    0.3320 C   0  0  0  0  0  0  0  0  0  0  0  0
  -29.7920   31.0370    1.2850 C   0  0  0  0  0  0  0  0  0  0  0  0
  -29.3140   29.9140    2.5590 S   0  0  0  0  0  0  0  0  0  0  0  0
  -30.3310   30.0430    3.6430 O   0  0  0  0  0  0  0  0  0  0  0  0
  -29.2090   28.1800    2.0390 C   0  0  0  0  0  0  0  0  0  0  0  0
  -28.1000   27.4190    2.4550 C   0  0  0  0  0  0  0  0  0  0  0  0
  -28.0050   26.0600    2.0640 C   0  0  0  0  0  0  0  0  0  0  0  0
  -29.0040   25.4850    1.2640 C   0  0  0  0  0  0  0  0  0  0  0  0
  -30.0990   26.2540    0.8560 C   0  0  0  0  0  0  0  0  0  0  0  0
  -31.2610   25.9710    0.0540 C   0  0  0  0  0  0  0  0  0  0  0  0
  -31.6150   24.6500   -0.5820 C   0  0  0  0  0  0  0  0  0  0  0  0
  -32.6470   23.8710    0.2110 C   0  0  0  0  0  0  0  0  0  0  0  0
  -32.1860   23.3960    1.5560 C   0  0  0  0  0  0  0  0  0  0  0  0
  -31.0050   22.6920    1.4740 O   0  0  0  0  0  0  0  0  0  0  0  0
  -30.4380   22.0830    2.5770 C   0  0  0  0  0  0  0  0  0  0  0  0
  -29.4140   21.1490    2.3440 C   0  0  0  0  0  0  0  0  0  0  0  0
  -29.0280   20.8480    1.0040 C   0  0  0  0  0  0  0  0  0  0  0  0
  -28.0160   19.9270    0.7820 C   0  0  0  0  0  0  0  0  0  0  0  0
  -27.3920   19.3050    1.8630 C   0  0  0  0  0  0  0  0  0  0  0  0
  -27.7830   19.5890    3.1730 C   0  0  0  0  0  0  0  0  0  0  0  0
  -28.8010   20.5350    3.4100 C   0  0  0  0  0  0  0  0  0  0  0  0
  -29.1940   20.8480    4.7300 C   0  0  0  0  0  0  0  0  0  0  0  0
  -30.2140   21.7740    4.9540 C   0  0  0  0  0  0  0  0  0  0  0  0
  -30.8410   22.4020    3.8660 C   0  0  0  0  0  0  0  0  0  0  0  0
  -34.5634   26.1870    0.2590 H   0  0  0  0  0  0  0  0  0  0  0  0
  -31.8741   29.6954    2.0014 H   0  0  0  0  0  0  0  0  0  0  0  0
  -32.7584   29.6435    0.4096 H   0  0  0  0  0  0  0  0  0  0  0  0
  -30.3047   30.0253   -0.5054 H   0  0  0  0  0  0  0  0  0  0  0  0
  -31.4333   31.3772    0.0293 H   0  0  0  0  0  0  0  0  0  0  0  0
  -28.8946   31.2970    0.7044 H   0  0  0  0  0  0  0  0  0  0  0  0
  -30.2491   31.9004    1.7907 H   0  0  0  0  0  0  0  0  0  0  0  0
  -27.3154   27.8744    3.0770 H   0  0  0  0  0  0  0  0  0  0  0  0
  -27.1459   25.4545    2.3886 H   0  0  0  0  0  0  0  0  0  0  0  0
  -28.9263   24.4312    0.9581 H   0  0  0  0  0  0  0  0  0  0  0  0
  -32.0165   24.8412   -1.5881 H   0  0  0  0  0  0  0  0  0  0  0  0
  -30.6979   24.0435   -0.6158 H   0  0  0  0  0  0  0  0  0  0  0  0
  -33.5233   24.5190    0.3599 H   0  0  0  0  0  0  0  0  0  0  0  0
  -32.8671   22.9668   -0.3755 H   0  0  0  0  0  0  0  0  0  0  0  0
  -32.0357   24.2683    2.2091 H   0  0  0  0  0  0  0  0  0  0  0  0
  -32.9562   22.7244    1.9632 H   0  0  0  0  0  0  0  0  0  0  0  0
  -29.5275   21.3409    0.1569 H   0  0  0  0  0  0  0  0  0  0  0  0
  -27.7055   19.6871   -0.2456 H   0  0  0  0  0  0  0  0  0  0  0  0
  -26.5826   18.5825    1.6816 H   0  0  0  0  0  0  0  0  0  0  0  0
  -27.2984   19.0764    4.0171 H   0  0  0  0  0  0  0  0  0  0  0  0
  -28.6960   20.3618    5.5818 H   0  0  0  0  0  0  0  0  0  0  0  0
  -30.5263   22.0115    5.9817 H   0  0  0  0  0  0  0  0  0  0  0  0
  -31.6416   23.1376    4.0332 H   0  0  0  0  0  0  0  0  0  0  0  0
  3  2  2  0
  2  1  1  0
  2  4  1  0
 18 17  1  0
 18 19  1  0
  4 17  2  0
  4  5  1  0
 17 16  1  0
 19 20  1  0
  8  7  1  0
  8  9  1  0
  5  7  1  0
  5  6  1  0
 25 24  2  0
 25 26  1  0
 16  6  2  0
 16 15  1  0
 24 23  1  0
  6 12  1  0
 15 14  2  0
  9 10  1  0
 21 20  1  0
 21 22  1  0
 26 27  2  0
 12 13  2  0
 12 10  1  0
 14 13  1  0
 23 22  2  0
 23 28  1  0
 10 11  2  0
 22 31  1  0
 27 28  1  0
 28 29  2  0
 31 30  2  0
 29 30  1  0
  1 32  1  0
  7 33  1  0
  7 34  1  0
  8 35  1  0
  8 36  1  0
  9 37  1  0
  9 38  1  0
 13 39  1  0
 14 40  1  0
 15 41  1  0
 18 42  1  0
 18 43  1  0
 19 44  1  0
 19 45  1  0
 20 46  1  0
 20 47  1  0
 24 48  1  0
 25 49  1  0
 26 50  1  0
 27 51  1  0
 29 52  1  0
 30 53  1  0
 31 54  1  0
A    1
OAA
A    2
CAU
A    3
OAC
A    4
CAY
A    5
NBD
A    6
CBC
A    7
CAR
A    8
CAO
A    9
CAS
A   10
SBE
A   11
OAB
A   12
CAX
A   13
CAI
A   14
CAG
A   15
CAM
A   16
CBB
A   17
CAW
A   18
CAQ
A   19
CAN
A   20
CAP
A   21
OAT
A   22
CAV
A   23
CBA
A   24
CAL
A   25
CAE
A   26
CAD
A   27
CAJ
A   28
CAZ
A   29
CAK
A   30
CAF
A   31
CAH
M  END
