4ZBI_4M6_A_400
     RDKit          3D

 52 56  0  0  0  0  0  0  0  0999 V2000
   -8.7400  -23.1740    8.8760 O   0  0  0  0  0  0  0  0  0  0  0  0
   -8.1630  -22.8940    7.7930 C   0  0  0  0  0  0  0  0  0  0  0  0
   -7.1030  -23.4850    7.5090 O   0  0  0  0  0  0  0  0  0  0  0  0
   -8.7570  -21.8540    6.8490 C   0  0  0  0  0  0  0  0  0  0  0  0
   -9.3750  -20.6850    7.2170 N   0  0  0  0  0  0  0  0  0  0  0  0
   -9.7670  -20.0430    6.1120 C   0  0  0  0  0  0  0  0  0  0  0  0
   -9.6300  -20.0820    8.5690 C   0  0  0  0  0  0  0  0  0  0  0  0
   -9.8850  -18.5530    8.5230 C   0  0  0  0  0  0  0  0  0  0  0  0
  -10.7520  -18.1020    7.3560 C   0  0  0  0  0  0  0  0  0  0  0  0
  -10.4210  -18.8310    6.0410 C   0  0  0  0  0  0  0  0  0  0  0  0
  -10.7580  -18.3100    4.7500 C   0  0  0  0  0  0  0  0  0  0  0  0
  -10.4280  -19.0390    3.5760 C   0  0  0  0  0  0  0  0  0  0  0  0
   -9.7550  -20.2740    3.6790 C   0  0  0  0  0  0  0  0  0  0  0  0
   -9.4240  -20.7650    4.9610 C   0  0  0  0  0  0  0  0  0  0  0  0
   -8.7670  -21.9460    5.4400 C   0  0  0  0  0  0  0  0  0  0  0  0
   -8.1860  -23.0770    4.6000 C   0  0  0  0  0  0  0  0  0  0  0  0
   -6.6800  -22.8930    4.4080 C   0  0  0  0  0  0  0  0  0  0  0  0
   -6.3510  -21.6510    3.5810 C   0  0  0  0  0  0  0  0  0  0  0  0
   -6.9540  -21.8330    2.3280 O   0  0  0  0  0  0  0  0  0  0  0  0
   -6.5920  -20.9200    1.3210 C   0  0  0  0  0  0  0  0  0  0  0  0
   -6.9550  -21.2020   -0.0050 C   0  0  0  0  0  0  0  0  0  0  0  0
   -7.6630  -22.3850   -0.2920 C   0  0  0  0  0  0  0  0  0  0  0  0
   -8.0370  -22.6870   -1.6010 C   0  0  0  0  0  0  0  0  0  0  0  0
   -7.7080  -21.8100   -2.6210 C   0  0  0  0  0  0  0  0  0  0  0  0
   -7.0100  -20.6420   -2.3350 C   0  0  0  0  0  0  0  0  0  0  0  0
   -6.6300  -20.3310   -1.0180 C   0  0  0  0  0  0  0  0  0  0  0  0
   -5.9240  -19.1430   -0.7360 C   0  0  0  0  0  0  0  0  0  0  0  0
   -5.5560  -18.8670    0.5730 C   0  0  0  0  0  0  0  0  0  0  0  0
   -5.8930  -19.7500    1.5990 C   0  0  0  0  0  0  0  0  0  0  0  0
   -8.3032  -22.9620    9.7388 H   0  0  0  0  0  0  0  0  0  0  0  0
  -10.5131  -20.5698    9.0075 H   0  0  0  0  0  0  0  0  0  0  0  0
   -8.7242  -20.2423    9.1722 H   0  0  0  0  0  0  0  0  0  0  0  0
  -10.3836  -18.2577    9.4580 H   0  0  0  0  0  0  0  0  0  0  0  0
   -8.9043  -18.0718    8.3939 H   0  0  0  0  0  0  0  0  0  0  0  0
  -10.6024  -17.0227    7.2053 H   0  0  0  0  0  0  0  0  0  0  0  0
  -11.7950  -18.3415    7.6104 H   0  0  0  0  0  0  0  0  0  0  0  0
  -11.2741  -17.3421    4.6672 H   0  0  0  0  0  0  0  0  0  0  0  0
  -10.6974  -18.6402    2.5869 H   0  0  0  0  0  0  0  0  0  0  0  0
   -9.4924  -20.8450    2.7762 H   0  0  0  0  0  0  0  0  0  0  0  0
   -8.6768  -23.0838    3.6156 H   0  0  0  0  0  0  0  0  0  0  0  0
   -8.3610  -24.0294    5.1219 H   0  0  0  0  0  0  0  0  0  0  0  0
   -6.2778  -23.7781    3.8933 H   0  0  0  0  0  0  0  0  0  0  0  0
   -6.2258  -22.7669    5.4019 H   0  0  0  0  0  0  0  0  0  0  0  0
   -5.2617  -21.5486    3.4668 H   0  0  0  0  0  0  0  0  0  0  0  0
   -6.7215  -20.7385    4.0709 H   0  0  0  0  0  0  0  0  0  0  0  0
   -7.9231  -23.0764    0.5230 H   0  0  0  0  0  0  0  0  0  0  0  0
   -8.5882  -23.6131   -1.8213 H   0  0  0  0  0  0  0  0  0  0  0  0
   -7.9988  -22.0374   -3.6572 H   0  0  0  0  0  0  0  0  0  0  0  0
   -6.7514  -19.9514   -3.1512 H   0  0  0  0  0  0  0  0  0  0  0  0
   -5.6680  -18.4430   -1.5450 H   0  0  0  0  0  0  0  0  0  0  0  0
   -4.9963  -17.9483    0.8026 H   0  0  0  0  0  0  0  0  0  0  0  0
   -5.6040  -19.5195    2.6350 H   0  0  0  0  0  0  0  0  0  0  0  0
 25 24  2  0
 25 26  1  0
 27 26  1  0
 27 28  2  0
 24 23  1  0
 26 21  2  0
 28 29  1  0
 23 22  2  0
 21 22  1  0
 21 20  1  0
 29 20  2  0
 20 19  1  0
 19 18  1  0
 18 17  1  0
 17 16  1  0
 16 15  1  0
  3  2  2  0
 15 14  1  0
 15  4  2  0
 13 14  2  0
 13 12  1  0
 14  6  1  0
  2  4  1  0
  2  1  1  0
 12 11  2  0
  4  5  1  0
  6  5  1  0
  6 10  2  0
  5  7  1  0
 11 10  1  0
 10  9  1  0
  7  8  1  0
  8  9  1  0
  1 30  1  0
  7 31  1  0
  7 32  1  0
  8 33  1  0
  8 34  1  0
  9 35  1  0
  9 36  1  0
 11 37  1  0
 12 38  1  0
 13 39  1  0
 16 40  1  0
 16 41  1  0
 17 42  1  0
 17 43  1  0
 18 44  1  0
 18 45  1  0
 22 46  1  0
 23 47  1  0
 24 48  1  0
 25 49  1  0
 27 50  1  0
 28 51  1  0
 29 52  1  0
A    1
OAA
A    2
CAT
A    3
OAB
A    4
CAX
A    5
NBC
A    6
CBB
A    7
CAR
A    8
CAN
A    9
CAP
A   10
CAU
A   11
CAG
A   12
CAE
A   13
CAL
A   14
CBA
A   15
CAW
A   16
CAQ
A   17
CAM
A   18
CAO
A   19
OAS
A   20
CAV
A   21
CAZ
A   22
CAK
A   23
CAD
A   24
CAC
A   25
CAI
A   26
CAY
A   27
CAJ
A   28
CAF
A   29
CAH
M  END
