4ZCW_4NG_A_501
     RDKit          3D

 20 20  0  0  0  0  0  0  0  0999 V2000
   76.4960  111.7880  -93.6810 C   0  0  0  0  0  0  0  0  0  0  0  0
   76.1260  113.4460  -92.1400 C   0  0  0  0  0  0  0  0  0  0  0  0
   74.8850  113.2840  -92.9890 C   0  0  0  0  0  0  0  0  0  0  0  0
   75.1120  111.9520  -93.6760 C   0  0  0  0  0  0  0  0  0  0  0  0
   77.1240  112.6030  -92.8340 N   0  0  0  0  0  0  0  0  0  0  0  0
   78.5290  112.6550  -92.6310 O   0  0  0  0  0  0  0  0  0  0  0  0
   77.0780  110.9720  -94.3950 O   0  0  0  0  0  0  0  0  0  0  0  0
   76.5500  114.8110  -92.1710 O   0  0  0  0  0  0  0  0  0  0  0  0
   75.1320  110.6210  -91.2800 O   0  0  0  0  0  0  0  0  0  0  0  0
   74.7770  109.2440  -93.4260 O   0  0  0  0  0  0  0  0  0  0  0  0
   72.8790  110.7710  -92.5480 O   0  0  0  0  0  0  0  0  0  0  0  0
   74.3440  110.6210  -92.6940 P   0  0  0  0  0  0  0  0  0  0  0  0
   75.9752  113.1679  -91.0865 H   0  0  0  0  0  0  0  0  0  0  0  0
   74.7998  114.0982  -93.7238 H   0  0  0  0  0  0  0  0  0  0  0  0
   73.9534  113.3168  -92.4050 H   0  0  0  0  0  0  0  0  0  0  0  0
   74.6800  111.9201  -94.6871 H   0  0  0  0  0  0  0  0  0  0  0  0
   78.7221  112.6621  -91.6600 H   0  0  0  0  0  0  0  0  0  0  0  0
   76.6539  115.1454  -91.2450 H   0  0  0  0  0  0  0  0  0  0  0  0
   75.2926  109.6876  -90.9917 H   0  0  0  0  0  0  0  0  0  0  0  0
   72.6439  110.7951  -91.5866 H   0  0  0  0  0  0  0  0  0  0  0  0
  7  1  2  0
  1  4  1  0
  1  5  1  0
  4  3  1  0
  4 12  1  0
 10 12  2  0
  3  2  1  0
  5  6  1  0
  5  2  1  0
 12 11  1  0
 12  9  1  0
  8  2  1  0
  2 13  1  0
  3 14  1  0
  3 15  1  0
  4 16  1  0
  6 17  1  0
  8 18  1  0
  9 19  1  0
 11 20  1  0
A    1
CAA
A    2
CAC
A    3
CAD
A    4
CAE
A    5
NAB
A    6
OAF
A    7
OAG
A    8
OAH
A    9
OAJ
A   10
OAK
A   11
OAL
A   12
PAI
M  END
