4ZFC_GCZ_A_402
     RDKit          3D

 43 45  0  0  0  0  0  0  0  0999 V2000
    1.3450    9.7370   17.0640 O   0  0  0  0  0  0  0  0  0  0  0  0
    4.9620    8.2020   19.1420 O   0  0  0  0  0  0  0  0  0  0  0  0
    4.4200    6.1570   17.8800 O   0  0  0  0  0  0  0  0  0  0  0  0
    4.5040    7.5880   17.9370 S   0  0  0  0  0  0  0  0  0  0  0  0
    3.9540   11.1140   18.7100 N   0  0  0  0  0  0  0  0  0  0  0  0
    3.1880   10.6140   17.6370 N   0  0  0  0  0  0  0  0  0  0  0  0
    2.9780    8.2010   17.5820 N   0  0  0  0  0  0  0  0  0  0  0  0
    3.1760   13.0010   19.9740 C   0  0  0  0  0  0  0  0  0  0  0  0
    3.8950   13.4900   18.7130 C   0  0  0  0  0  0  0  0  0  0  0  0
    3.6630   13.8210   21.1780 C   0  0  0  0  0  0  0  0  0  0  0  0
    4.7490   14.6800   19.1690 C   0  0  0  0  0  0  0  0  0  0  0  0
    3.3910   11.4860   20.0380 C   0  0  0  0  0  0  0  0  0  0  0  0
    4.7090   12.2940   18.2190 C   0  0  0  0  0  0  0  0  0  0  0  0
    4.8980   14.5150   20.6940 C   0  0  0  0  0  0  0  0  0  0  0  0
    2.4830    9.4960   17.4670 C   0  0  0  0  0  0  0  0  0  0  0  0
    5.5920    8.1490   16.6680 C   0  0  0  0  0  0  0  0  0  0  0  0
    6.6640    8.9700   16.9950 C   0  0  0  0  0  0  0  0  0  0  0  0
    5.3700    7.7780   15.3550 C   0  0  0  0  0  0  0  0  0  0  0  0
    7.3180    9.0470   14.6570 C   0  0  0  0  0  0  0  0  0  0  0  0
    7.5190    9.4020   15.9910 C   0  0  0  0  0  0  0  0  0  0  0  0
    6.2290    8.2320   14.3620 C   0  0  0  0  0  0  0  0  0  0  0  0
    8.2480    9.5330   13.5600 C   0  0  0  0  0  0  0  0  0  0  0  0
    3.1696   11.2395   16.8189 H   0  0  0  0  0  0  0  0  0  0  0  0
    2.2690    7.4723   17.4169 H   0  0  0  0  0  0  0  0  0  0  0  0
    2.0877   13.1608   19.9712 H   0  0  0  0  0  0  0  0  0  0  0  0
    3.2526   13.8278   17.8865 H   0  0  0  0  0  0  0  0  0  0  0  0
    2.9007   14.5536   21.4817 H   0  0  0  0  0  0  0  0  0  0  0  0
    3.8589   13.1904   22.0578 H   0  0  0  0  0  0  0  0  0  0  0  0
    5.7345   14.6561   18.6810 H   0  0  0  0  0  0  0  0  0  0  0  0
    4.2854   15.6419   18.9046 H   0  0  0  0  0  0  0  0  0  0  0  0
    2.4361   10.9680   20.2108 H   0  0  0  0  0  0  0  0  0  0  0  0
    4.0608   11.2007   20.8626 H   0  0  0  0  0  0  0  0  0  0  0  0
    5.7244   12.3114   18.6418 H   0  0  0  0  0  0  0  0  0  0  0  0
    4.8332   12.2906   17.1260 H   0  0  0  0  0  0  0  0  0  0  0  0
    5.7871   13.9096   20.9241 H   0  0  0  0  0  0  0  0  0  0  0  0
    5.0200   15.4912   21.1860 H   0  0  0  0  0  0  0  0  0  0  0  0
    6.8332    9.2743   18.0384 H   0  0  0  0  0  0  0  0  0  0  0  0
    4.5201    7.1285   15.0985 H   0  0  0  0  0  0  0  0  0  0  0  0
    8.3760   10.0398   16.2534 H   0  0  0  0  0  0  0  0  0  0  0  0
    6.0440    7.9404   13.3176 H   0  0  0  0  0  0  0  0  0  0  0  0
    9.1368    9.9975   14.0119 H   0  0  0  0  0  0  0  0  0  0  0  0
    8.5565    8.6808   12.9366 H   0  0  0  0  0  0  0  0  0  0  0  0
    7.7245   10.2728   12.9366 H   0  0  0  0  0  0  0  0  0  0  0  0
 22 19  1  0
 21 19  2  0
 21 18  1  0
 19 20  1  0
 18 16  2  0
 20 17  2  0
 16 17  1  0
 16  4  1  0
  1 15  2  0
 15  7  1  0
 15  6  1  0
  7  4  1  0
  6  5  1  0
  3  4  2  0
  4  2  2  0
 13  5  1  0
 13  9  1  0
  5 12  1  0
  9 11  1  0
  9  8  1  0
 11 14  1  0
  8 12  1  0
  8 10  1  0
 14 10  1  0
  6 23  1  0
  7 24  1  0
  8 25  1  0
  9 26  1  0
 10 27  1  0
 10 28  1  0
 11 29  1  0
 11 30  1  0
 12 31  1  0
 12 32  1  0
 13 33  1  0
 13 34  1  0
 14 35  1  0
 14 36  1  0
 17 37  1  0
 18 38  1  0
 20 39  1  0
 21 40  1  0
 22 41  1  0
 22 42  1  0
 22 43  1  0
A    1
O2
A    2
O3
A    3
O4
A    4
S1
A    5
N5
A    6
N6
A    7
N7
A    8
C8
A    9
C9
A   10
C10
A   11
C11
A   12
C12
A   13
C13
A   14
C14
A   15
C15
A   16
C16
A   17
C17
A   18
C18
A   19
C19
A   20
C20
A   21
C21
A   22
C22
M  END
