4ZFL_4NK_A_301
     RDKit          3D

 60 60  0  0  0  0  0  0  0  0999 V2000
   -7.9680  -10.3960  -34.6910 O   0  0  0  0  0  0  0  0  0  0  0  0
   -8.9880   -9.6920  -34.5330 C   0  0  0  0  0  0  0  0  0  0  0  0
   -9.4570   -8.9190  -35.3890 O   0  0  0  0  0  0  0  0  0  0  0  0
   -9.7750   -9.7930  -33.2140 C   0  0  0  0  0  0  0  0  0  0  0  0
   -8.8390   -9.9600  -32.1100 N   0  0  0  0  0  0  0  0  0  0  0  0
  -10.5080   -8.4810  -33.0020 C   0  0  0  0  0  0  0  0  0  0  0  0
  -11.4000   -8.4590  -31.7720 C   0  0  0  0  0  0  0  0  0  0  0  0
  -12.5270   -9.4680  -32.0470 C   0  0  0  0  0  0  0  0  0  0  0  0
  -13.3230   -9.1990  -32.9500 O   0  0  0  0  0  0  0  0  0  0  0  0
  -12.5800  -10.5730  -31.2530 N   0  0  0  0  0  0  0  0  0  0  0  0
  -13.6110  -11.6370  -31.4060 C   0  0  0  0  0  0  0  0  0  0  0  0
  -13.3020  -12.8720  -30.5380 C   0  0  0  0  0  0  0  0  0  0  0  0
  -12.4120  -13.6680  -30.9270 O   0  0  0  0  0  0  0  0  0  0  0  0
  -13.9880  -13.0300  -29.5280 O   0  0  0  0  0  0  0  0  0  0  0  0
  -13.5790  -12.1850  -32.8030 C   0  0  0  0  0  0  0  0  0  0  0  0
  -14.8130  -13.5120  -33.0600 S   0  0  0  0  0  0  0  0  0  0  0  0
  -14.2090  -14.6350  -33.8970 O   0  0  0  0  0  0  0  0  0  0  0  0
  -16.2490  -12.7570  -33.8140 C   0  0  0  0  0  0  0  0  0  0  0  0
  -16.3390  -12.4780  -35.1230 N   0  0  0  0  0  0  0  0  0  0  0  0
  -17.2600  -12.1920  -33.1800 N   0  0  0  0  0  0  0  0  0  0  0  0
  -18.0840  -11.6980  -34.1040 C   0  0  0  0  0  0  0  0  0  0  0  0
  -17.5040  -11.8540  -35.2850 C   0  0  0  0  0  0  0  0  0  0  0  0
  -18.1300  -11.3450  -36.5930 C   0  0  0  0  0  0  0  0  0  0  0  0
  -17.8120  -12.2230  -37.8130 C   0  0  0  0  0  0  0  0  0  0  0  0
  -18.1460  -13.6790  -37.5500 C   0  0  0  0  0  0  0  0  0  0  0  0
  -19.3230  -13.9490  -37.2030 O   0  0  0  0  0  0  0  0  0  0  0  0
  -17.1860  -14.4780  -37.7030 O   0  0  0  0  0  0  0  0  0  0  0  0
  -18.4030  -11.7290  -39.0960 N   0  0  0  0  0  0  0  0  0  0  0  0
  -17.6530  -10.5380  -39.5100 C   0  0  0  0  0  0  0  0  0  0  0  0
  -19.7930  -11.3190  -38.9610 C   0  0  0  0  0  0  0  0  0  0  0  0
  -18.3660  -12.7590  -40.1550 C   0  0  0  0  0  0  0  0  0  0  0  0
   -7.4747  -10.7365  -33.9031 H   0  0  0  0  0  0  0  0  0  0  0  0
  -10.4733  -10.6419  -33.2562 H   0  0  0  0  0  0  0  0  0  0  0  0
   -9.3428   -9.8701  -31.2161 H   0  0  0  0  0  0  0  0  0  0  0  0
   -8.4040  -10.8919  -32.1667 H   0  0  0  0  0  0  0  0  0  0  0  0
   -8.1085   -9.2361  -32.1667 H   0  0  0  0  0  0  0  0  0  0  0  0
   -9.7605   -7.6804  -32.9007 H   0  0  0  0  0  0  0  0  0  0  0  0
  -11.1657   -8.3414  -33.8726 H   0  0  0  0  0  0  0  0  0  0  0  0
  -11.8169   -7.4524  -31.6203 H   0  0  0  0  0  0  0  0  0  0  0  0
  -10.8387   -8.7202  -30.8628 H   0  0  0  0  0  0  0  0  0  0  0  0
  -11.8733  -10.6781  -30.5111 H   0  0  0  0  0  0  0  0  0  0  0  0
  -14.5653  -11.1648  -31.1297 H   0  0  0  0  0  0  0  0  0  0  0  0
  -13.5784  -12.9357  -28.6317 H   0  0  0  0  0  0  0  0  0  0  0  0
  -12.5762  -12.5920  -33.0000 H   0  0  0  0  0  0  0  0  0  0  0  0
  -13.8224  -11.3625  -33.4917 H   0  0  0  0  0  0  0  0  0  0  0  0
  -17.3883  -12.1421  -32.1592 H   0  0  0  0  0  0  0  0  0  0  0  0
  -19.0682  -11.2428  -33.9193 H   0  0  0  0  0  0  0  0  0  0  0  0
  -17.7517  -10.3305  -36.7872 H   0  0  0  0  0  0  0  0  0  0  0  0
  -19.2213  -11.3673  -36.4568 H   0  0  0  0  0  0  0  0  0  0  0  0
  -16.7244  -12.1458  -37.9587 H   0  0  0  0  0  0  0  0  0  0  0  0
  -16.7282  -14.8590  -36.9122 H   0  0  0  0  0  0  0  0  0  0  0  0
  -17.3096   -9.9927  -38.6185 H   0  0  0  0  0  0  0  0  0  0  0  0
  -16.7835  -10.8428  -40.1109 H   0  0  0  0  0  0  0  0  0  0  0  0
  -18.3035   -9.8856  -40.1109 H   0  0  0  0  0  0  0  0  0  0  0  0
  -20.0509  -11.2429  -37.8944 H   0  0  0  0  0  0  0  0  0  0  0  0
  -19.9352  -10.3407  -39.4433 H   0  0  0  0  0  0  0  0  0  0  0  0
  -20.4434  -12.0636  -39.4433 H   0  0  0  0  0  0  0  0  0  0  0  0
  -18.3301  -13.7573  -39.6944 H   0  0  0  0  0  0  0  0  0  0  0  0
  -19.2677  -12.6754  -40.7794 H   0  0  0  0  0  0  0  0  0  0  0  0
  -17.4726  -12.6110  -40.7794 H   0  0  0  0  0  0  0  0  0  0  0  0
 31 28  1  0
 26 25  2  0
 27 25  1  0
 30 28  1  0
 25 24  1  0
 28 24  1  0
 28 29  1  0
 24 23  1  0
 23 22  1  0
 22 19  1  0
 22 21  2  0
 19 18  2  0
 21 20  1  0
 17 16  2  0
 18 20  1  0
 18 16  1  0
 16 15  1  0
 15 11  1  0
 13 12  2  0
 12 14  1  0
 12 11  1  0
 11 10  1  0
  9  8  2  0
 10  8  1  0
  8  7  1  0
  3  2  2  0
  2  1  1  0
  2  4  1  0
  4  6  1  0
  4  5  1  0
  6  7  1  0
  1 32  1  0
  4 33  1  0
  5 34  1  0
  5 35  1  0
  5 36  1  0
  6 37  1  0
  6 38  1  0
  7 39  1  0
  7 40  1  0
 10 41  1  0
 11 42  1  0
 14 43  1  0
 15 44  1  0
 15 45  1  0
 20 46  1  0
 21 47  1  0
 23 48  1  0
 23 49  1  0
 24 50  1  0
 27 51  1  0
 29 52  1  0
 29 53  1  0
 29 54  1  0
 30 55  1  0
 30 56  1  0
 30 57  1  0
 31 58  1  0
 31 59  1  0
 31 60  1  0
M  CHG  2   5   1  28   1
A    1
O
A    2
C
A    3
OXT
A    4
CA
A    5
N
A    6
CB
A    7
CAN
A    8
CAU
A    9
OAE
A   10
NAS
A   11
CBB
A   12
CAW
A   13
OAK
A   14
OAG
A   15
CAQ
A   16
SBD
A   17
OAI
A   18
CAZ
A   19
NAR
A   20
NAT
A   21
CAM
A   22
CAY
A   23
CAP
A   24
CBC
A   25
CAX
A   26
OAL
A   27
OAH
A   28
NBE
A   29
CAB
A   30
CAC
A   31
CAA
M  END
