4ZG7_4O0_A_908
     RDKit          3D

 58 63  0  0  0  0  0  0  0  0999 V2000
   -8.2120    5.3360  -38.9300 C   0  0  0  0  0  0  0  0  0  0  0  0
   -7.8850    2.8960  -38.7820 C   0  0  0  0  0  0  0  0  0  0  0  0
   -6.6400    2.8450  -38.0170 C   0  0  0  0  0  0  0  0  0  0  0  0
   -6.1400    1.4960  -37.7130 C   0  0  0  0  0  0  0  0  0  0  0  0
   -6.8170    7.1390  -39.6040 N   0  0  0  0  0  0  0  0  0  0  0  0
   -6.8200    0.3410  -38.1030 C   0  0  0  0  0  0  0  0  0  0  0  0
   -8.0100    0.3970  -38.7980 C   0  0  0  0  0  0  0  0  0  0  0  0
   -8.5190    1.6320  -39.1640 C   0  0  0  0  0  0  0  0  0  0  0  0
   -9.6910    2.1270  -39.8730 C   0  0  0  0  0  0  0  0  0  0  0  0
   -9.6910    3.5910  -39.9000 C   0  0  0  0  0  0  0  0  0  0  0  0
  -10.7380    4.4700  -40.5510 C   0  0  0  0  0  0  0  0  0  0  0  0
  -12.8220   -1.3570  -44.9400 O   0  0  0  0  0  0  0  0  0  0  0  0
  -11.1520   -1.4200  -46.3840 O   0  0  0  0  0  0  0  0  0  0  0  0
  -10.3150    0.8150  -42.1620 C   0  0  0  0  0  0  0  0  0  0  0  0
   -9.1230    1.2980  -42.6600 C   0  0  0  0  0  0  0  0  0  0  0  0
   -8.7340    1.0130  -43.9700 C   0  0  0  0  0  0  0  0  0  0  0  0
   -9.5340    0.2510  -44.8280 C   0  0  0  0  0  0  0  0  0  0  0  0
  -10.7350   -0.2760  -44.3850 C   0  0  0  0  0  0  0  0  0  0  0  0
  -11.1750    0.0050  -43.0240 C   0  0  0  0  0  0  0  0  0  0  0  0
  -11.5800   -1.0720  -45.2980 C   0  0  0  0  0  0  0  0  0  0  0  0
   -7.1010    7.8790  -38.3710 C   0  0  0  0  0  0  0  0  0  0  0  0
   -6.2470    9.1490  -38.4990 C   0  0  0  0  0  0  0  0  0  0  0  0
   -5.6340    9.1490  -39.8570 C   0  0  0  0  0  0  0  0  0  0  0  0
   -5.9690    7.8760  -40.4760 C   0  0  0  0  0  0  0  0  0  0  0  0
   -5.5210    7.6150  -41.7700 C   0  0  0  0  0  0  0  0  0  0  0  0
   -5.9730    3.9390  -37.6150 F   0  0  0  0  0  0  0  0  0  0  0  0
   -4.6710    1.3830  -36.7660 Cl  0  0  0  0  0  0  0  0  0  0  0  0
  -10.8890    1.1050  -40.5910 S   0  0  0  0  0  0  0  0  0  0  0  0
  -12.3070   -0.4680  -42.5140 F   0  0  0  0  0  0  0  0  0  0  0  0
   -8.5880    3.9760  -39.2130 N   0  0  0  0  0  0  0  0  0  0  0  0
   -7.2880    5.9340  -39.9370 C   0  0  0  0  0  0  0  0  0  0  0  0
   -7.0380    5.3750  -40.9650 O   0  0  0  0  0  0  0  0  0  0  0  0
   -4.7130    8.5810  -42.4170 C   0  0  0  0  0  0  0  0  0  0  0  0
   -4.3830    9.7850  -41.7940 C   0  0  0  0  0  0  0  0  0  0  0  0
   -4.8380   10.0840  -40.5000 C   0  0  0  0  0  0  0  0  0  0  0  0
   -5.5520    9.7660  -37.3010 C   0  0  0  0  0  0  0  0  0  0  0  0
   -6.7910   10.4550  -37.9130 C   0  0  0  0  0  0  0  0  0  0  0  0
   -7.7159    5.3603  -37.9485 H   0  0  0  0  0  0  0  0  0  0  0  0
   -9.1361    5.9323  -38.9535 H   0  0  0  0  0  0  0  0  0  0  0  0
   -6.3949   -0.6412  -37.8489 H   0  0  0  0  0  0  0  0  0  0  0  0
   -8.5476   -0.5268  -39.0581 H   0  0  0  0  0  0  0  0  0  0  0  0
  -11.3330    4.9696  -39.7723 H   0  0  0  0  0  0  0  0  0  0  0  0
  -10.2433    5.2274  -41.1768 H   0  0  0  0  0  0  0  0  0  0  0  0
  -11.3983    3.8516  -41.1768 H   0  0  0  0  0  0  0  0  0  0  0  0
  -13.0605   -1.4117  -43.9807 H   0  0  0  0  0  0  0  0  0  0  0  0
   -8.4735    1.9129  -42.0196 H   0  0  0  0  0  0  0  0  0  0  0  0
   -7.7716    1.3983  -44.3378 H   0  0  0  0  0  0  0  0  0  0  0  0
   -9.2064    0.0692  -45.8622 H   0  0  0  0  0  0  0  0  0  0  0  0
   -8.1696    8.1309  -38.3028 H   0  0  0  0  0  0  0  0  0  0  0  0
   -6.8682    7.3002  -37.4650 H   0  0  0  0  0  0  0  0  0  0  0  0
   -5.7899    6.6773  -42.2783 H   0  0  0  0  0  0  0  0  0  0  0  0
   -4.3380    8.3782  -43.4310 H   0  0  0  0  0  0  0  0  0  0  0  0
   -3.7544   10.5137  -42.3268 H   0  0  0  0  0  0  0  0  0  0  0  0
   -4.5707   11.0323  -40.0108 H   0  0  0  0  0  0  0  0  0  0  0  0
   -5.6223    9.2827  -36.3154 H   0  0  0  0  0  0  0  0  0  0  0  0
   -4.5214   10.0773  -37.0751 H   0  0  0  0  0  0  0  0  0  0  0  0
   -6.6808   11.3980  -38.4685 H   0  0  0  0  0  0  0  0  0  0  0  0
   -7.7648   10.7970  -37.5326 H   0  0  0  0  0  0  0  0  0  0  0  0
 13 20  2  0
 20 12  1  0
 20 18  1  0
 17 18  2  0
 17 16  1  0
 18 19  1  0
 16 15  2  0
 19 29  1  0
 19 14  2  0
 15 14  1  0
 33 34  2  0
 33 25  1  0
 14 28  1  0
 34 35  1  0
 25 24  2  0
 32 31  2  0
 28  9  1  0
 11 10  1  0
 35 23  2  0
 24 23  1  0
 24  5  1  0
 31  5  1  0
 31  1  1  0
 10  9  2  0
 10 30  1  0
  9  8  1  0
 23 22  1  0
  5 21  1  0
 30  1  1  0
 30  2  1  0
  8  7  2  0
  8  2  1  0
  7  6  1  0
  2  3  2  0
 22 21  1  0
 22 37  1  0
 22 36  1  0
  6  4  2  0
  3  4  1  0
  3 26  1  0
 37 36  1  0
  4 27  1  0
  1 38  1  0
  1 39  1  0
  6 40  1  0
  7 41  1  0
 11 42  1  0
 11 43  1  0
 11 44  1  0
 12 45  1  0
 15 46  1  0
 16 47  1  0
 17 48  1  0
 21 49  1  0
 21 50  1  0
 25 51  1  0
 33 52  1  0
 34 53  1  0
 35 54  1  0
 36 55  1  0
 36 56  1  0
 37 57  1  0
 37 58  1  0
A    1
C1
A    2
C2
A    3
C3
A    4
C4
A    5
N1
A    6
C5
A    7
C6
A    8
C7
A    9
C8
A   10
C9
A   11
C10
A   12
O1
A   13
O2
A   14
C11
A   15
C12
A   16
C13
A   17
C14
A   18
C15
A   19
C16
A   20
C17
A   21
C18
A   22
C19
A   23
C20
A   24
C21
A   25
C22
A   26
F1
A   27
CL
A   28
S
A   29
F
A   30
N
A   31
C
A   32
O
A   33
C23
A   34
C24
A   35
C25
A   36
C27
A   37
C26
M  END
