3NKN_NKN_A_1006
     RDKit          3D

 60 59  0  0  0  0  0  0  0  0999 V2000
   26.1010   38.4980   15.2120 O   0  0  0  0  0  0  0  0  0  0  0  0
   24.5510   36.6070   15.1360 O   0  0  0  0  0  0  0  0  0  0  0  0
   24.5690   38.1070   14.9110 P   0  0  0  0  0  0  0  0  0  0  0  0
   24.0850   38.3840   13.5400 O   0  0  0  0  0  0  0  0  0  0  0  0
   18.3150   37.8880   18.5630 O   0  0  0  0  0  0  0  0  0  0  0  0
   23.7370   38.6500   16.1950 O   0  0  0  0  0  0  0  0  0  0  0  0
   22.4500   38.0960   16.4080 C   0  0  0  0  0  0  0  0  0  0  0  0
   22.0240   38.3650   17.8460 C   0  0  0  0  0  0  0  0  0  0  0  0
   20.6120   37.8740   18.1130 C   0  0  0  0  0  0  0  0  0  0  0  0
   19.8800   38.6960   17.1930 O   0  0  0  0  0  0  0  0  0  0  0  0
   18.5810   38.5100   17.5250 C   0  0  0  0  0  0  0  0  0  0  0  0
   17.5240   39.2610   16.7260 C   0  0  0  0  0  0  0  0  0  0  0  0
   16.1070   38.8730   17.1390 C   0  0  0  0  0  0  0  0  0  0  0  0
   15.0960   39.7780   16.4230 C   0  0  0  0  0  0  0  0  0  0  0  0
   13.6290   39.5000   16.8300 C   0  0  0  0  0  0  0  0  0  0  0  0
   12.9490   38.2020   16.4060 C   0  0  0  0  0  0  0  0  0  0  0  0
   12.8300   38.2640   14.8820 C   0  0  0  0  0  0  0  0  0  0  0  0
   12.0920   37.0920   14.2170 C   0  0  0  0  0  0  0  0  0  0  0  0
   12.0810   37.4220   12.7210 C   0  0  0  0  0  0  0  0  0  0  0  0
   11.4100   36.4640   11.7110 C   0  0  0  0  0  0  0  0  0  0  0  0
   11.7010   37.1730   10.3800 C   0  0  0  0  0  0  0  0  0  0  0  0
   11.3050   36.5990    8.9990 C   0  0  0  0  0  0  0  0  0  0  0  0
    9.8360   36.4010    8.7050 C   0  0  0  0  0  0  0  0  0  0  0  0
    9.7440   35.8970    7.2630 C   0  0  0  0  0  0  0  0  0  0  0  0
   22.8980   37.6690   18.7380 O   0  0  0  0  0  0  0  0  0  0  0  0
   26.2460   38.5350   16.1906 H   0  0  0  0  0  0  0  0  0  0  0  0
   24.5487   36.4191   16.1080 H   0  0  0  0  0  0  0  0  0  0  0  0
   21.7302   38.5599   15.7175 H   0  0  0  0  0  0  0  0  0  0  0  0
   22.4783   37.0115   16.2262 H   0  0  0  0  0  0  0  0  0  0  0  0
   22.0669   39.4526   18.0047 H   0  0  0  0  0  0  0  0  0  0  0  0
   20.5017   36.8045   17.8807 H   0  0  0  0  0  0  0  0  0  0  0  0
   20.2867   37.9514   19.1609 H   0  0  0  0  0  0  0  0  0  0  0  0
   17.6575   40.3407   16.8886 H   0  0  0  0  0  0  0  0  0  0  0  0
   17.6512   38.9977   15.6656 H   0  0  0  0  0  0  0  0  0  0  0  0
   15.9194   37.8248   16.8633 H   0  0  0  0  0  0  0  0  0  0  0  0
   15.9980   38.9928   18.2270 H   0  0  0  0  0  0  0  0  0  0  0  0
   15.3327   40.8248   16.6641 H   0  0  0  0  0  0  0  0  0  0  0  0
   15.1798   39.5712   15.3459 H   0  0  0  0  0  0  0  0  0  0  0  0
   13.5936   39.5319   17.9290 H   0  0  0  0  0  0  0  0  0  0  0  0
   13.0660   40.2694   16.2813 H   0  0  0  0  0  0  0  0  0  0  0  0
   13.5575   37.3363   16.7066 H   0  0  0  0  0  0  0  0  0  0  0  0
   11.9636   38.0903   16.8820 H   0  0  0  0  0  0  0  0  0  0  0  0
   12.2945   39.1894   14.6234 H   0  0  0  0  0  0  0  0  0  0  0  0
   13.8611   38.2200   14.5015 H   0  0  0  0  0  0  0  0  0  0  0  0
   12.6247   36.1471   14.3998 H   0  0  0  0  0  0  0  0  0  0  0  0
   11.0755   36.9654   14.6178 H   0  0  0  0  0  0  0  0  0  0  0  0
   11.5764   38.3938   12.6164 H   0  0  0  0  0  0  0  0  0  0  0  0
   13.1448   37.3641   12.4473 H   0  0  0  0  0  0  0  0  0  0  0  0
   11.8660   35.4634   11.7418 H   0  0  0  0  0  0  0  0  0  0  0  0
   10.3412   36.2870   11.9015 H   0  0  0  0  0  0  0  0  0  0  0  0
   11.2092   38.1545   10.4491 H   0  0  0  0  0  0  0  0  0  0  0  0
   12.7976   37.0998   10.3348 H   0  0  0  0  0  0  0  0  0  0  0  0
   11.7016   37.2837    8.2348 H   0  0  0  0  0  0  0  0  0  0  0  0
   11.7243   35.5821    8.9950 H   0  0  0  0  0  0  0  0  0  0  0  0
    9.4073   35.6590    9.3947 H   0  0  0  0  0  0  0  0  0  0  0  0
    9.2751   37.3383    8.8347 H   0  0  0  0  0  0  0  0  0  0  0  0
    9.5465   34.8149    7.2647 H   0  0  0  0  0  0  0  0  0  0  0  0
    8.9262   36.4182    6.7439 H   0  0  0  0  0  0  0  0  0  0  0  0
   10.6932   36.0956    6.7439 H   0  0  0  0  0  0  0  0  0  0  0  0
   22.6442   37.8711   19.6733 H   0  0  0  0  0  0  0  0  0  0  0  0
  1  3  1  0
  2  3  1  0
  3  4  2  0
  3  6  1  0
  5 11  2  0
  6  7  1  0
  7  8  1  0
  8  9  1  0
  8 25  1  0
  9 10  1  0
 10 11  1  0
 11 12  1  0
 12 13  1  0
 13 14  1  0
 14 15  1  0
 15 16  1  0
 16 17  1  0
 17 18  1  0
 18 19  1  0
 19 20  1  0
 20 21  1  0
 21 22  1  0
 22 23  1  0
 23 24  1  0
  1 26  1  0
  2 27  1  0
  7 28  1  0
  7 29  1  0
  8 30  1  0
  9 31  1  0
  9 32  1  0
 12 33  1  0
 12 34  1  0
 13 35  1  0
 13 36  1  0
 14 37  1  0
 14 38  1  0
 15 39  1  0
 15 40  1  0
 16 41  1  0
 16 42  1  0
 17 43  1  0
 17 44  1  0
 18 45  1  0
 18 46  1  0
 19 47  1  0
 19 48  1  0
 20 49  1  0
 20 50  1  0
 21 51  1  0
 21 52  1  0
 22 53  1  0
 22 54  1  0
 23 55  1  0
 23 56  1  0
 24 57  1  0
 24 58  1  0
 24 59  1  0
 25 60  1  0
A    1
OAA
A    2
OAB
A    3
PAC
A    4
OAD
A    5
OAE
A    6
OAF
A    7
CAG
A    8
CAH
A    9
CAI
A   10
OAJ
A   11
CAK
A   12
CAL
A   13
CAM
A   14
CAN
A   15
CAO
A   16
CAP
A   17
CAQ
A   18
CAR
A   19
CAS
A   20
CAT
A   21
CAU
A   22
CAV
A   23
CAW
A   24
CAX
A   25
OAY
M  END
