4ZGA_4O3_A_910
     RDKit          3D

 42 46  0  0  0  0  0  0  0  0999 V2000
    6.0280   65.5840   24.2120 C   0  0  0  0  0  0  0  0  0  0  0  0
    6.5860   67.9850   26.7330 C   0  0  0  0  0  0  0  0  0  0  0  0
    7.7220   67.9390   23.6160 O   0  0  0  0  0  0  0  0  0  0  0  0
    7.1890   67.7570   24.7580 C   0  0  0  0  0  0  0  0  0  0  0  0
    7.3330   68.6000   25.8090 N   0  0  0  0  0  0  0  0  0  0  0  0
    6.4240   68.4910   27.8980 O   0  0  0  0  0  0  0  0  0  0  0  0
    5.8590   66.7620   26.4030 C   0  0  0  0  0  0  0  0  0  0  0  0
    6.0990   65.6280   27.3720 C   0  0  0  0  0  0  0  0  0  0  0  0
    6.0830   64.3910   26.5520 C   0  0  0  0  0  0  0  0  0  0  0  0
    6.1050   63.0100   27.0180 C   0  0  0  0  0  0  0  0  0  0  0  0
    6.1260   62.4390   28.2840 C   0  0  0  0  0  0  0  0  0  0  0  0
    6.1210   61.0530   28.3740 C   0  0  0  0  0  0  0  0  0  0  0  0
    6.1230   60.2490   27.2320 C   0  0  0  0  0  0  0  0  0  0  0  0
    6.1140   60.8050   25.9520 C   0  0  0  0  0  0  0  0  0  0  0  0
    6.0970   62.2020   25.7920 C   0  0  0  0  0  0  0  0  0  0  0  0
    6.4290   66.7110   25.0300 N   0  0  0  0  0  0  0  0  0  0  0  0
    6.0670   64.3450   25.0960 C   0  0  0  0  0  0  0  0  0  0  0  0
    6.0650   63.0480   24.7310 N   0  0  0  0  0  0  0  0  0  0  0  0
    6.0870   62.5800   23.3410 C   0  0  0  0  0  0  0  0  0  0  0  0
    4.7340   62.3860   22.7710 C   0  0  0  0  0  0  0  0  0  0  0  0
    4.0760   61.1770   22.9700 C   0  0  0  0  0  0  0  0  0  0  0  0
    2.8170   60.9940   22.4270 C   0  0  0  0  0  0  0  0  0  0  0  0
    4.1550   63.4150   22.0470 C   0  0  0  0  0  0  0  0  0  0  0  0
    2.8960   63.2220   21.5070 C   0  0  0  0  0  0  0  0  0  0  0  0
    2.2340   62.0260   21.7000 C   0  0  0  0  0  0  0  0  0  0  0  0
    1.0170   61.8510   21.1650 F   0  0  0  0  0  0  0  0  0  0  0  0
    5.0089   65.7409   23.8289 H   0  0  0  0  0  0  0  0  0  0  0  0
    6.7026   65.4688   23.3508 H   0  0  0  0  0  0  0  0  0  0  0  0
    7.8710   69.4757   25.8778 H   0  0  0  0  0  0  0  0  0  0  0  0
    4.7620   66.7066   26.4618 H   0  0  0  0  0  0  0  0  0  0  0  0
    7.0735   65.7469   27.8683 H   0  0  0  0  0  0  0  0  0  0  0  0
    5.3357   65.6011   28.1636 H   0  0  0  0  0  0  0  0  0  0  0  0
    6.1460   63.0655   29.1879 H   0  0  0  0  0  0  0  0  0  0  0  0
    6.1153   60.5783   29.3663 H   0  0  0  0  0  0  0  0  0  0  0  0
    6.1319   59.1547   27.3438 H   0  0  0  0  0  0  0  0  0  0  0  0
    6.1202   60.1503   25.0681 H   0  0  0  0  0  0  0  0  0  0  0  0
    6.6235   61.6204   23.3033 H   0  0  0  0  0  0  0  0  0  0  0  0
    6.5867   63.3556   22.7420 H   0  0  0  0  0  0  0  0  0  0  0  0
    4.5518   60.3747   23.5531 H   0  0  0  0  0  0  0  0  0  0  0  0
    2.2830   60.0428   22.5687 H   0  0  0  0  0  0  0  0  0  0  0  0
    4.6861   64.3676   21.9041 H   0  0  0  0  0  0  0  0  0  0  0  0
    2.4212   64.0236   20.9223 H   0  0  0  0  0  0  0  0  0  0  0  0
 26 25  1  0
 24 25  2  0
 24 23  1  0
 25 22  1  0
 23 20  2  0
 22 21  2  0
 20 21  1  0
 20 19  1  0
 19 18  1  0
  3  4  2  0
  1 16  1  0
  1 17  1  0
 18 17  1  0
 18 15  1  0
  4 16  1  0
  4  5  1  0
 16  7  1  0
 17  9  2  0
 15 14  2  0
 15 10  1  0
  5  2  1  0
 14 13  1  0
  7  2  1  0
  7  8  1  0
  9 10  1  0
  9  8  1  0
  2  6  2  0
 10 11  2  0
 13 12  2  0
 11 12  1  0
  1 27  1  0
  1 28  1  0
  5 29  1  0
  7 30  1  0
  8 31  1  0
  8 32  1  0
 11 33  1  0
 12 34  1  0
 13 35  1  0
 14 36  1  0
 19 37  1  0
 19 38  1  0
 21 39  1  0
 22 40  1  0
 23 41  1  0
 24 42  1  0
A    1
C15
A    2
C17
A    3
O1
A    4
C16
A    5
N2
A    6
O
A    7
C18
A    8
C19
A    9
C13
A   10
C8
A   11
C9
A   12
C10
A   13
C11
A   14
C12
A   15
C7
A   16
N1
A   17
C14
A   18
N
A   19
C6
A   20
C5
A   21
C2
A   22
C1
A   23
C4
A   24
C3
A   25
C
A   26
F
M  END
