4ZHD_4OZ_A_202
     RDKit          3D

 33 33  0  0  0  0  0  0  0  0999 V2000
   29.7710   84.8780   68.2840 C   0  0  0  0  0  0  0  0  0  0  0  0
   31.9470   80.3170   63.9450 C   0  0  0  0  0  0  0  0  0  0  0  0
   32.6230   79.3120   63.7780 O   0  0  0  0  0  0  0  0  0  0  0  0
   32.4170   81.3840   64.8250 O   0  0  0  0  0  0  0  0  0  0  0  0
   31.5800   82.5130   65.1060 C   0  0  0  0  0  0  0  0  0  0  0  0
   30.2790   82.0520   65.7700 C   0  0  0  0  0  0  0  0  0  0  0  0
   29.4360   81.2980   64.8400 N   0  0  0  0  0  0  0  0  0  0  0  0
   29.5230   83.1710   66.4650 C   0  0  0  0  0  0  0  0  0  0  0  0
   30.1930   84.3360   67.0230 O   0  0  0  0  0  0  0  0  0  0  0  0
   28.3080   83.1200   66.6050 O   0  0  0  0  0  0  0  0  0  0  0  0
   28.8860   81.7220   63.6850 C   0  0  0  0  0  0  0  0  0  0  0  0
   27.9380   80.7790   63.0190 C   0  0  0  0  0  0  0  0  0  0  0  0
   27.1800   81.2020   61.9500 C   0  0  0  0  0  0  0  0  0  0  0  0
   26.2970   80.3350   61.3680 C   0  0  0  0  0  0  0  0  0  0  0  0
   26.1460   79.0320   61.8510 C   0  0  0  0  0  0  0  0  0  0  0  0
   26.8940   78.6090   62.9430 C   0  0  0  0  0  0  0  0  0  0  0  0
   27.7780   79.4870   63.5160 C   0  0  0  0  0  0  0  0  0  0  0  0
   29.0540   82.8160   63.1690 O   0  0  0  0  0  0  0  0  0  0  0  0
   28.4860   79.0960   64.5950 O   0  0  0  0  0  0  0  0  0  0  0  0
   26.7510   77.3420   63.4220 O   0  0  0  0  0  0  0  0  0  0  0  0
   30.2227   84.2978   69.1021 H   0  0  0  0  0  0  0  0  0  0  0  0
   30.0922   85.9275   68.3579 H   0  0  0  0  0  0  0  0  0  0  0  0
   28.6748   84.8239   68.3579 H   0  0  0  0  0  0  0  0  0  0  0  0
   30.9802   80.4182   63.4301 H   0  0  0  0  0  0  0  0  0  0  0  0
   32.1102   83.1995   65.7825 H   0  0  0  0  0  0  0  0  0  0  0  0
   31.3404   83.0268   64.1633 H   0  0  0  0  0  0  0  0  0  0  0  0
   30.5743   81.3631   66.5751 H   0  0  0  0  0  0  0  0  0  0  0  0
   29.2387   80.3214   65.1012 H   0  0  0  0  0  0  0  0  0  0  0  0
   27.2838   82.2282   61.5676 H   0  0  0  0  0  0  0  0  0  0  0  0
   25.6973   80.6676   60.5079 H   0  0  0  0  0  0  0  0  0  0  0  0
   25.4371   78.3434   61.3680 H   0  0  0  0  0  0  0  0  0  0  0  0
   28.1454   79.2841   65.5053 H   0  0  0  0  0  0  0  0  0  0  0  0
   26.7328   77.1812   64.3987 H   0  0  0  0  0  0  0  0  0  0  0  0
 14 15  2  0
 14 13  1  0
 15 16  1  0
 13 12  2  0
 16 20  1  0
 16 17  2  0
 12 17  1  0
 12 11  1  0
 18 11  2  0
 17 19  1  0
 11  7  1  0
  3  2  2  0
  2  4  1  0
  4  5  1  0
  7  6  1  0
  5  6  1  0
  6  8  1  0
  8 10  2  0
  8  9  1  0
  9  1  1  0
  1 21  1  0
  1 22  1  0
  1 23  1  0
  2 24  1  0
  5 25  1  0
  5 26  1  0
  6 27  1  0
  7 28  1  0
 13 29  1  0
 14 30  1  0
 15 31  1  0
 19 32  1  0
 20 33  1  0
A    1
C15
A    2
C25
A    3
O26
A    4
OG
A    5
CB
A    6
CA
A    7
N
A    8
C
A    9
O
A   10
OXT
A   11
C34
A   12
C35
A   13
C36
A   14
C37
A   15
C38
A   16
C39
A   17
C40
A   18
O48
A   19
O50
A   20
O51
M  END
