4ZHX_4O7_A_601
     RDKit          3D

 65 72  0  0  0  0  0  0  0  0999 V2000
  128.7200  -20.3920   10.4030 O   0  0  0  0  0  0  0  0  0  0  0  0
  129.5640  -19.2950   10.0270 C   0  0  0  0  0  0  0  0  0  0  0  0
  129.9620  -18.3840   11.1950 C   0  0  0  0  0  0  0  0  0  0  0  0
  129.3380  -18.8490   12.5120 C   0  0  0  0  0  0  0  0  0  0  0  0
  127.8360  -19.1310   12.3640 C   0  0  0  0  0  0  0  0  0  0  0  0
  127.5630  -20.1520   11.2300 C   0  0  0  0  0  0  0  0  0  0  0  0
  127.3980  -21.5380   11.8610 C   0  0  0  0  0  0  0  0  0  0  0  0
  126.3930  -19.8090   10.3240 N   0  0  0  0  0  0  0  0  0  0  0  0
  126.5050  -18.7540    9.4540 C   0  0  0  0  0  0  0  0  0  0  0  0
  127.6530  -18.5890    8.4980 C   0  0  0  0  0  0  0  0  0  0  0  0
  127.4510  -17.5970    7.4180 C   0  0  0  0  0  0  0  0  0  0  0  0
  126.1570  -17.7170    6.6950 C   0  0  0  0  0  0  0  0  0  0  0  0
  124.9620  -18.0970    7.4790 C   0  0  0  0  0  0  0  0  0  0  0  0
  125.1380  -18.5360    8.8990 C   0  0  0  0  0  0  0  0  0  0  0  0
  124.2620  -19.4170    9.6700 C   0  0  0  0  0  0  0  0  0  0  0  0
  125.0960  -19.9590   10.7740 C   0  0  0  0  0  0  0  0  0  0  0  0
  124.4170  -20.5940   11.8270 C   0  0  0  0  0  0  0  0  0  0  0  0
  123.0190  -20.6850   11.8080 C   0  0  0  0  0  0  0  0  0  0  0  0
  122.2560  -20.0670   10.8050 C   0  0  0  0  0  0  0  0  0  0  0  0
  122.8720  -19.3560    9.7700 C   0  0  0  0  0  0  0  0  0  0  0  0
  123.7800  -17.4910    6.9060 C   0  0  0  0  0  0  0  0  0  0  0  0
  124.3130  -16.7810    5.7320 N   0  0  0  0  0  0  0  0  0  0  0  0
  125.6290  -16.5550    5.9410 C   0  0  0  0  0  0  0  0  0  0  0  0
  126.2480  -16.3130    4.8480 O   0  0  0  0  0  0  0  0  0  0  0  0
  128.7940  -17.4420    6.8750 C   0  0  0  0  0  0  0  0  0  0  0  0
  129.7230  -17.9730    7.9040 C   0  0  0  0  0  0  0  0  0  0  0  0
  131.0930  -17.7580    7.7010 C   0  0  0  0  0  0  0  0  0  0  0  0
  131.5220  -17.0370    6.5750 C   0  0  0  0  0  0  0  0  0  0  0  0
  130.6120  -16.4880    5.6540 C   0  0  0  0  0  0  0  0  0  0  0  0
  129.2300  -16.6240    5.8340 C   0  0  0  0  0  0  0  0  0  0  0  0
  128.9610  -18.5280    8.9010 N   0  0  0  0  0  0  0  0  0  0  0  0
  127.1190  -17.8980   12.2150 O   0  0  0  0  0  0  0  0  0  0  0  0
  126.1630  -17.6760   13.2540 C   0  0  0  0  0  0  0  0  0  0  0  0
  129.6280  -17.9460   13.6080 N   0  0  0  0  0  0  0  0  0  0  0  0
  130.2180  -18.4660   14.8280 C   0  0  0  0  0  0  0  0  0  0  0  0
  130.5097  -19.7383    9.6817 H   0  0  0  0  0  0  0  0  0  0  0  0
  129.6215  -17.3602   10.9809 H   0  0  0  0  0  0  0  0  0  0  0  0
  131.0562  -18.4208   11.3017 H   0  0  0  0  0  0  0  0  0  0  0  0
  129.8147  -19.8059   12.7709 H   0  0  0  0  0  0  0  0  0  0  0  0
  127.4610  -19.6086   13.2812 H   0  0  0  0  0  0  0  0  0  0  0  0
  127.4090  -21.4455   12.9571 H   0  0  0  0  0  0  0  0  0  0  0  0
  126.4414  -21.9757   11.5395 H   0  0  0  0  0  0  0  0  0  0  0  0
  128.2251  -22.1881   11.5395 H   0  0  0  0  0  0  0  0  0  0  0  0
  126.5400  -18.5083    6.0338 H   0  0  0  0  0  0  0  0  0  0  0  0
  124.6622  -19.1535    7.4168 H   0  0  0  0  0  0  0  0  0  0  0  0
  124.9837  -21.0205   12.6678 H   0  0  0  0  0  0  0  0  0  0  0  0
  122.5072  -21.2543   12.5979 H   0  0  0  0  0  0  0  0  0  0  0  0
  121.1590  -20.1429   10.8333 H   0  0  0  0  0  0  0  0  0  0  0  0
  122.2781  -18.7663    9.0562 H   0  0  0  0  0  0  0  0  0  0  0  0
  123.0478  -18.2558    6.6076 H   0  0  0  0  0  0  0  0  0  0  0  0
  123.2451  -16.8330    7.6067 H   0  0  0  0  0  0  0  0  0  0  0  0
  124.1874  -17.3580    4.8881 H   0  0  0  0  0  0  0  0  0  0  0  0
  125.7886  -15.6453    6.5385 H   0  0  0  0  0  0  0  0  0  0  0  0
  127.1505  -15.9602    5.0510 H   0  0  0  0  0  0  0  0  0  0  0  0
  131.8275  -18.1515    8.4191 H   0  0  0  0  0  0  0  0  0  0  0  0
  132.6004  -16.8977    6.4086 H   0  0  0  0  0  0  0  0  0  0  0  0
  130.9922  -15.9427    4.7776 H   0  0  0  0  0  0  0  0  0  0  0  0
  128.5153  -16.1048    5.1785 H   0  0  0  0  0  0  0  0  0  0  0  0
  126.6521  -17.7896   14.2327 H   0  0  0  0  0  0  0  0  0  0  0  0
  125.7537  -16.6589   13.1645 H   0  0  0  0  0  0  0  0  0  0  0  0
  125.3474  -18.4086   13.1645 H   0  0  0  0  0  0  0  0  0  0  0  0
  128.7377  -17.5007   13.8724 H   0  0  0  0  0  0  0  0  0  0  0  0
  129.7131  -18.0210   15.6981 H   0  0  0  0  0  0  0  0  0  0  0  0
  130.1002  -19.5593   14.8552 H   0  0  0  0  0  0  0  0  0  0  0  0
  131.2879  -18.2117   14.8552 H   0  0  0  0  0  0  0  0  0  0  0  0
 35 34  1  0
 33 32  1  0
 34  4  1  0
 18 17  1  0
 18 19  2  0
 17 16  2  0
  5  4  1  0
  5 32  1  0
  5  6  1  0
  4  3  1  0
  7  6  1  0
 19 20  1  0
  6  8  1  0
  6  1  1  0
 16  8  1  0
 16 15  1  0
  3  2  1  0
  8  9  1  0
 20 15  2  0
  1  2  1  0
 15 14  1  0
  2 31  1  0
  9 14  2  0
  9 10  1  0
 14 13  1  0
 31 10  1  0
 31 26  1  0
 10 11  2  0
 13 21  1  0
 13 12  1  0
 26 27  2  0
 26 25  1  0
 21 22  1  0
 11 12  1  0
 11 25  1  0
 27 28  1  0
 12 23  1  0
 25 30  2  0
 22 23  1  0
 23 24  1  0
 28 29  2  0
 30 29  1  0
  2 36  1  0
  3 37  1  0
  3 38  1  0
  4 39  1  0
  5 40  1  0
  7 41  1  0
  7 42  1  0
  7 43  1  0
 12 44  1  0
 13 45  1  0
 17 46  1  0
 18 47  1  0
 19 48  1  0
 20 49  1  0
 21 50  1  0
 21 51  1  0
 22 52  1  0
 23 53  1  0
 24 54  1  0
 27 55  1  0
 28 56  1  0
 29 57  1  0
 30 58  1  0
 33 59  1  0
 33 60  1  0
 33 61  1  0
 34 62  1  0
 35 63  1  0
 35 64  1  0
 35 65  1  0
A    1
O4
A    2
C25
A    3
C24
A    4
C23
A    5
C22
A    6
C21
A    7
C26
A    8
N2
A    9
C18
A   10
C19
A   11
C6
A   12
C7
A   13
C10
A   14
C11
A   15
C12
A   16
C17
A   17
C16
A   18
C15
A   19
C14
A   20
C13
A   21
C9
A   22
N1
A   23
C8
A   24
O5
A   25
C5
A   26
C20
A   27
C1
A   28
C2
A   29
C3
A   30
C4
A   31
N3
A   32
O6
A   33
C27
A   34
N4
A   35
C28
M  END
