4ZJR_4P3_A_501
     RDKit          3D

 50 52  0  0  0  0  0  0  0  0999 V2000
   -7.8050   32.6800    6.3080 O   0  0  0  0  0  0  0  0  0  0  0  0
   -9.0470   32.7460    6.3530 C   0  0  0  0  0  0  0  0  0  0  0  0
   -9.6940   33.9170    6.3410 N   0  0  0  0  0  0  0  0  0  0  0  0
   -9.8250   31.4770    6.4010 C   0  0  0  0  0  0  0  0  0  0  0  0
  -11.2250   31.4510    6.4980 C   0  0  0  0  0  0  0  0  0  0  0  0
  -11.9380   30.2510    6.5230 C   0  0  0  0  0  0  0  0  0  0  0  0
  -11.2400   29.0700    6.4410 C   0  0  0  0  0  0  0  0  0  0  0  0
  -12.0860   27.4990    6.4940 Cl  0  0  0  0  0  0  0  0  0  0  0  0
   -9.1170   30.2940    6.2790 C   0  0  0  0  0  0  0  0  0  0  0  0
   -9.7720   29.0990    6.2910 C   0  0  0  0  0  0  0  0  0  0  0  0
   -8.9790   27.8710    6.1860 C   0  0  0  0  0  0  0  0  0  0  0  0
   -8.3100   27.5440    5.0140 C   0  0  0  0  0  0  0  0  0  0  0  0
   -7.5370   26.3700    4.9750 C   0  0  0  0  0  0  0  0  0  0  0  0
   -6.8280   25.9100    3.9250 O   0  0  0  0  0  0  0  0  0  0  0  0
   -6.7230   26.5590    2.6840 C   0  0  0  0  0  0  0  0  0  0  0  0
   -6.0530   25.5400    1.7660 C   0  0  0  0  0  0  0  0  0  0  0  0
   -6.4870   25.9210    0.6020 F   0  0  0  0  0  0  0  0  0  0  0  0
   -4.7270   25.6140    1.7450 F   0  0  0  0  0  0  0  0  0  0  0  0
   -6.4200   24.2970    2.1260 F   0  0  0  0  0  0  0  0  0  0  0  0
   -7.4970   25.5120    6.1470 C   0  0  0  0  0  0  0  0  0  0  0  0
   -8.1910   25.8820    7.2780 C   0  0  0  0  0  0  0  0  0  0  0  0
   -8.9190   27.0500    7.2980 C   0  0  0  0  0  0  0  0  0  0  0  0
   -6.7430   24.3710    6.1250 N   0  0  0  0  0  0  0  0  0  0  0  0
   -5.2870   24.4560    5.8620 C   0  0  0  0  0  0  0  0  0  0  0  0
   -7.3540   23.2560    6.4140 C   0  0  0  0  0  0  0  0  0  0  0  0
   -8.5640   23.2030    6.3920 O   0  0  0  0  0  0  0  0  0  0  0  0
   -6.4310   22.1170    6.7240 C   0  0  0  0  0  0  0  0  0  0  0  0
   -5.9100   21.8370    8.0830 C   0  0  0  0  0  0  0  0  0  0  0  0
   -6.3610   22.7620    9.5380 Cl  0  0  0  0  0  0  0  0  0  0  0  0
   -5.0370   20.7960    8.2990 C   0  0  0  0  0  0  0  0  0  0  0  0
   -4.6160   20.0390    7.2330 C   0  0  0  0  0  0  0  0  0  0  0  0
   -5.0490   20.2600    5.9170 C   0  0  0  0  0  0  0  0  0  0  0  0
   -5.9300   21.2770    5.6030 C   0  0  0  0  0  0  0  0  0  0  0  0
   -6.3250   21.4670    4.3110 F   0  0  0  0  0  0  0  0  0  0  0  0
   -9.9469   34.3748    7.2284 H   0  0  0  0  0  0  0  0  0  0  0  0
   -9.9392   34.3607    5.4444 H   0  0  0  0  0  0  0  0  0  0  0  0
  -11.7752   32.4017    6.5559 H   0  0  0  0  0  0  0  0  0  0  0  0
  -13.0348   30.2508    6.6065 H   0  0  0  0  0  0  0  0  0  0  0  0
   -8.0225   30.3184    6.1720 H   0  0  0  0  0  0  0  0  0  0  0  0
   -8.3836   28.1936    4.1293 H   0  0  0  0  0  0  0  0  0  0  0  0
   -6.1063   27.4656    2.7719 H   0  0  0  0  0  0  0  0  0  0  0  0
   -7.7020   26.8824    2.3006 H   0  0  0  0  0  0  0  0  0  0  0  0
   -8.1632   25.2400    8.1708 H   0  0  0  0  0  0  0  0  0  0  0  0
   -9.4612   27.3349    8.2117 H   0  0  0  0  0  0  0  0  0  0  0  0
   -4.7430   24.4878    6.8176 H   0  0  0  0  0  0  0  0  0  0  0  0
   -4.9663   23.5750    5.2866 H   0  0  0  0  0  0  0  0  0  0  0  0
   -5.0710   25.3683    5.2866 H   0  0  0  0  0  0  0  0  0  0  0  0
   -4.6798   20.5721    9.3150 H   0  0  0  0  0  0  0  0  0  0  0  0
   -3.9054   19.2204    7.4201 H   0  0  0  0  0  0  0  0  0  0  0  0
   -4.6774   19.6064    5.1140 H   0  0  0  0  0  0  0  0  0  0  0  0
 17 16  1  0
 18 16  1  0
 16 19  1  0
 16 15  1  0
 15 14  1  0
 14 13  1  0
 34 33  1  0
 13 12  2  0
 13 20  1  0
 12 11  1  0
 33 32  2  0
 33 27  1  0
 24 23  1  0
 32 31  1  0
 23 20  1  0
 23 25  1  0
 20 21  2  0
 11 10  1  0
 11 22  2  0
  9 10  1  0
  9  4  2  0
 10  7  2  0
  1  2  2  0
  3  2  1  0
  2  4  1  0
 26 25  2  0
  4  5  1  0
 25 27  1  0
  7  8  1  0
  7  6  1  0
  5  6  2  0
 27 28  2  0
 31 30  2  0
 21 22  1  0
 28 30  1  0
 28 29  1  0
  3 35  1  0
  3 36  1  0
  5 37  1  0
  6 38  1  0
  9 39  1  0
 12 40  1  0
 15 41  1  0
 15 42  1  0
 21 43  1  0
 22 44  1  0
 24 45  1  0
 24 46  1  0
 24 47  1  0
 30 48  1  0
 31 49  1  0
 32 50  1  0
A    1
O2
A    2
C20
A    3
N1
A    4
C19
A    5
C21
A    6
C22
A    7
C
A    8
CL
A    9
C18
A   10
C1
A   11
C2
A   12
C17
A   13
C14
A   14
O1
A   15
C15
A   16
C16
A   17
F3
A   18
F2
A   19
F1
A   20
C5
A   21
C4
A   22
C3
A   23
N
A   24
C6
A   25
C7
A   26
O
A   27
C8
A   28
C13
A   29
CL1
A   30
C12
A   31
C11
A   32
C10
A   33
C9
A   34
F
M  END
