4ZJT_4P6_A_303
     RDKit          3D

 32 34  0  0  0  0  0  0  0  0999 V2000
  -30.9290  -54.0980  -11.5300 C   0  0  0  0  0  0  0  0  0  0  0  0
  -36.3830  -57.6760   -9.3760 C   0  0  0  0  0  0  0  0  0  0  0  0
  -31.1190  -54.7410  -10.3290 C   0  0  0  0  0  0  0  0  0  0  0  0
  -35.3450  -56.7490   -9.6640 C   0  0  0  0  0  0  0  0  0  0  0  0
  -30.8510  -52.7220  -11.5380 C   0  0  0  0  0  0  0  0  0  0  0  0
  -31.1240  -52.5790   -9.3110 C   0  0  0  0  0  0  0  0  0  0  0  0
  -36.3130  -58.1730   -8.0930 C   0  0  0  0  0  0  0  0  0  0  0  0
  -31.2220  -53.9510   -9.2110 C   0  0  0  0  0  0  0  0  0  0  0  0
  -34.4760  -56.5390   -8.6070 C   0  0  0  0  0  0  0  0  0  0  0  0
  -31.4090  -54.5020   -7.8760 C   0  0  0  0  0  0  0  0  0  0  0  0
  -32.4930  -55.4830   -7.6400 C   0  0  0  0  0  0  0  0  0  0  0  0
  -33.3590  -55.6510   -8.6470 C   0  0  0  0  0  0  0  0  0  0  0  0
  -32.5270  -56.2020   -6.3580 C   0  0  0  0  0  0  0  0  0  0  0  0
  -31.2140  -56.0070   -5.6490 C   0  0  0  0  0  0  0  0  0  0  0  0
  -30.8230  -54.5590   -5.6470 C   0  0  0  0  0  0  0  0  0  0  0  0
  -30.9410  -51.9320  -10.4630 N   0  0  0  0  0  0  0  0  0  0  0  0
  -30.5920  -54.0400   -6.9900 N   0  0  0  0  0  0  0  0  0  0  0  0
  -34.9670  -57.4970   -7.2600 S   0  0  0  0  0  0  0  0  0  0  0  0
  -30.8411  -54.6704  -12.4652 H   0  0  0  0  0  0  0  0  0  0  0  0
  -37.1590  -57.9656  -10.0998 H   0  0  0  0  0  0  0  0  0  0  0  0
  -31.1853  -55.8373  -10.2672 H   0  0  0  0  0  0  0  0  0  0  0  0
  -35.2417  -56.2452  -10.6364 H   0  0  0  0  0  0  0  0  0  0  0  0
  -30.7020  -52.2320  -12.5115 H   0  0  0  0  0  0  0  0  0  0  0  0
  -31.2011  -51.9847   -8.3886 H   0  0  0  0  0  0  0  0  0  0  0  0
  -37.0178  -58.8992   -7.6619 H   0  0  0  0  0  0  0  0  0  0  0  0
  -33.1994  -55.0666   -9.5652 H   0  0  0  0  0  0  0  0  0  0  0  0
  -32.6910  -57.2742   -6.5412 H   0  0  0  0  0  0  0  0  0  0  0  0
  -33.3457  -55.8115   -5.7357 H   0  0  0  0  0  0  0  0  0  0  0  0
  -30.4359  -56.5905   -6.1629 H   0  0  0  0  0  0  0  0  0  0  0  0
  -31.3202  -56.3463   -4.6080 H   0  0  0  0  0  0  0  0  0  0  0  0
  -29.8993  -54.4441   -5.0609 H   0  0  0  0  0  0  0  0  0  0  0  0
  -31.6550  -53.9892   -5.2076 H   0  0  0  0  0  0  0  0  0  0  0  0
  1  5  2  0
  1  3  1  0
  5 16  1  0
  3  8  2  0
 16  6  2  0
  8  6  1  0
  8 10  1  0
 17 10  2  0
 17 15  1  0
 10 11  1  0
 15 14  1  0
 14 13  1  0
 11 13  1  0
 11 12  2  0
 12  9  1  0
  9 18  1  0
  9  4  2  0
 18  7  1  0
  4  2  1  0
  7  2  2  0
  1 19  1  0
  2 20  1  0
  3 21  1  0
  4 22  1  0
  5 23  1  0
  6 24  1  0
  7 25  1  0
 12 26  1  0
 13 27  1  0
 13 28  1  0
 14 29  1  0
 14 30  1  0
 15 31  1  0
 15 32  1  0
A    1
C1
A    2
C2
A    3
C3
A    4
C4
A    5
C5
A    6
C6
A    7
C7
A    8
C8
A    9
C9
A   10
C10
A   11
C11
A   12
C12
A   13
C13
A   14
C14
A   15
C15
A   16
N16
A   17
N17
A   18
S18
M  END
