4ZJW_4P1_A_501
     RDKit          3D

 50 53  0  0  0  0  0  0  0  0999 V2000
  -22.9070   10.6370   50.6060 C   0  0  0  0  0  0  0  0  0  0  0  0
  -21.9240   11.7680   50.9430 C   0  0  0  0  0  0  0  0  0  0  0  0
  -22.6610   12.9400   51.5820 C   0  0  0  0  0  0  0  0  0  0  0  0
  -20.7490   11.3270   51.7720 C   0  0  0  0  0  0  0  0  0  0  0  0
  -24.4780    7.5290   49.4520 C   0  0  0  0  0  0  0  0  0  0  0  0
  -22.7890    9.3740   48.7500 C   0  0  0  0  0  0  0  0  0  0  0  0
  -23.8660    8.4240   48.3810 C   0  0  0  0  0  0  0  0  0  0  0  0
  -24.2570    8.3930   47.0450 C   0  0  0  0  0  0  0  0  0  0  0  0
  -22.2060   10.2350   47.8300 C   0  0  0  0  0  0  0  0  0  0  0  0
  -22.6210   10.1590   46.5190 C   0  0  0  0  0  0  0  0  0  0  0  0
  -23.6140    9.2450   46.1260 C   0  0  0  0  0  0  0  0  0  0  0  0
  -25.1810   10.6430   42.9840 C   0  0  0  0  0  0  0  0  0  0  0  0
  -25.0440    9.5760   42.0860 C   0  0  0  0  0  0  0  0  0  0  0  0
  -24.4290    8.3750   42.4690 C   0  0  0  0  0  0  0  0  0  0  0  0
  -24.3380    7.2460   41.4930 C   0  0  0  0  0  0  0  0  0  0  0  0
  -23.9430    8.2120   43.7810 C   0  0  0  0  0  0  0  0  0  0  0  0
  -22.2570   13.5130   52.7870 C   0  0  0  0  0  0  0  0  0  0  0  0
  -21.1550   13.0170   53.4730 C   0  0  0  0  0  0  0  0  0  0  0  0
  -20.4080   11.9520   52.9700 C   0  0  0  0  0  0  0  0  0  0  0  0
  -24.1870    6.1500   41.9720 O   0  0  0  0  0  0  0  0  0  0  0  0
  -24.4810    7.3920   40.1710 N   0  0  0  0  0  0  0  0  0  0  0  0
  -24.4340    6.3760   39.1230 C   0  0  0  0  0  0  0  0  0  0  0  0
  -24.7140   10.5400   44.2860 C   0  0  0  0  0  0  0  0  0  0  0  0
  -24.9200   11.9290   45.4250 Cl  0  0  0  0  0  0  0  0  0  0  0  0
  -24.0530    9.2610   44.7020 C   0  0  0  0  0  0  0  0  0  0  0  0
  -23.6750    7.4920   50.7730 C   0  0  0  0  0  0  0  0  0  0  0  0
  -22.2780    8.1380   50.7350 C   0  0  0  0  0  0  0  0  0  0  0  0
  -22.5470    9.4150   50.0980 N   0  0  0  0  0  0  0  0  0  0  0  0
  -24.1180   10.8910   50.7050 O   0  0  0  0  0  0  0  0  0  0  0  0
  -23.7550   13.5040   51.0190 F   0  0  0  0  0  0  0  0  0  0  0  0
  -19.6690    9.9880   51.2720 Cl  0  0  0  0  0  0  0  0  0  0  0  0
  -25.4910    7.8965   49.6729 H   0  0  0  0  0  0  0  0  0  0  0  0
  -24.4780    6.5051   49.0501 H   0  0  0  0  0  0  0  0  0  0  0  0
  -25.0557    7.7137   46.7124 H   0  0  0  0  0  0  0  0  0  0  0  0
  -21.4354   10.9565   48.1391 H   0  0  0  0  0  0  0  0  0  0  0  0
  -22.1686   10.8235   45.7682 H   0  0  0  0  0  0  0  0  0  0  0  0
  -25.6648   11.5736   42.6523 H   0  0  0  0  0  0  0  0  0  0  0  0
  -25.4264    9.6824   41.0601 H   0  0  0  0  0  0  0  0  0  0  0  0
  -23.4776    7.2618   44.0817 H   0  0  0  0  0  0  0  0  0  0  0  0
  -22.8161   14.3661   53.1988 H   0  0  0  0  0  0  0  0  0  0  0  0
  -20.8662   13.4732   54.4314 H   0  0  0  0  0  0  0  0  0  0  0  0
  -19.5307   11.5977   53.5311 H   0  0  0  0  0  0  0  0  0  0  0  0
  -24.6475    8.3554   39.8470 H   0  0  0  0  0  0  0  0  0  0  0  0
  -24.3878    5.3775   39.5822 H   0  0  0  0  0  0  0  0  0  0  0  0
  -25.3366    6.4511   38.4987 H   0  0  0  0  0  0  0  0  0  0  0  0
  -23.5422    6.5341   38.4987 H   0  0  0  0  0  0  0  0  0  0  0  0
  -24.2658    8.0139   51.5401 H   0  0  0  0  0  0  0  0  0  0  0  0
  -23.5020    6.4263   50.9838 H   0  0  0  0  0  0  0  0  0  0  0  0
  -21.5762    7.5355   50.1397 H   0  0  0  0  0  0  0  0  0  0  0  0
  -21.8069    8.2292   51.7248 H   0  0  0  0  0  0  0  0  0  0  0  0
 22 21  1  0
 21 15  1  0
 15 20  2  0
 15 14  1  0
 13 14  1  0
 13 12  2  0
 14 16  2  0
 12 23  1  0
 16 25  1  0
 23 25  2  0
 23 24  1  0
 25 11  1  0
 11 10  2  0
 11  8  1  0
 10  9  1  0
  8  7  2  0
  9  6  2  0
  7  6  1  0
  7  5  1  0
  6 28  1  0
  5 26  1  0
 28  1  1  0
 28 27  1  0
  1 29  2  0
  1  2  1  0
 27 26  1  0
  2  3  2  0
  2  4  1  0
 30  3  1  0
 31  4  1  0
  3 17  1  0
  4 19  2  0
 17 18  2  0
 19 18  1  0
  5 32  1  0
  5 33  1  0
  8 34  1  0
  9 35  1  0
 10 36  1  0
 12 37  1  0
 13 38  1  0
 16 39  1  0
 17 40  1  0
 18 41  1  0
 19 42  1  0
 21 43  1  0
 22 44  1  0
 22 45  1  0
 22 46  1  0
 26 47  1  0
 26 48  1  0
 27 49  1  0
 27 50  1  0
A    1
C1
A    2
C2
A    3
C3
A    4
C7
A    5
C10
A    6
C11
A    7
C12
A    8
C13
A    9
C14
A   10
C15
A   11
C16
A   12
C19
A   13
C20
A   14
C21
A   15
C22
A   16
C24
A   17
C4
A   18
C5
A   19
C6
A   20
O2
A   21
N2
A   22
C23
A   23
C18
A   24
CL2
A   25
C17
A   26
C9
A   27
C8
A   28
N1
A   29
O1
A   30
F
A   31
CL1
M  END
