4ZKL_JB6_B_202
     RDKit          3D

 85 90  0  0  0  0  0  0  0  0999 V2000
   34.2020   -4.8720   12.9260 N   0  0  0  0  0  0  0  0  0  0  0  0
   33.1790   -5.1950   12.0850 C   0  0  0  0  0  0  0  0  0  0  0  0
   33.3160   -5.2390   10.7250 N   0  0  0  0  0  0  0  0  0  0  0  0
   32.2740   -5.5660    9.9120 C   0  0  0  0  0  0  0  0  0  0  0  0
   31.0350   -5.8720   10.3960 N   0  0  0  0  0  0  0  0  0  0  0  0
   30.7750   -5.8460   11.7370 C   0  0  0  0  0  0  0  0  0  0  0  0
   31.8540   -5.4990   12.6700 C   0  0  0  0  0  0  0  0  0  0  0  0
   31.3430   -5.5490   13.9180 N   0  0  0  0  0  0  0  0  0  0  0  0
   30.0380   -5.9040   13.8060 C   0  0  0  0  0  0  0  0  0  0  0  0
   29.7100   -6.0610   12.5050 N   0  0  0  0  0  0  0  0  0  0  0  0
   28.4020   -6.5030   11.9770 C   0  0  0  0  0  0  0  0  0  0  0  0
   27.2760   -5.7360   12.3830 O   0  0  0  0  0  0  0  0  0  0  0  0
   28.1120   -7.9340   12.5020 C   0  0  0  0  0  0  0  0  0  0  0  0
   28.5710   -9.0020   11.6770 O   0  0  0  0  0  0  0  0  0  0  0  0
   26.6150   -8.0420   12.6230 C   0  0  0  0  0  0  0  0  0  0  0  0
   25.9410   -8.8340   11.6570 O   0  0  0  0  0  0  0  0  0  0  0  0
   26.1440   -6.6240   12.3830 C   0  0  0  0  0  0  0  0  0  0  0  0
   25.1410   -6.3940   13.4670 C   0  0  0  0  0  0  0  0  0  0  0  0
   24.9800   -4.9360   13.8110 C   0  0  0  0  0  0  0  0  0  0  0  0
   25.5750   -4.8680   15.0850 O   0  0  0  0  0  0  0  0  0  0  0  0
   24.8830   -5.6390   16.3030 P   0  0  0  0  0  0  0  0  0  0  0  0
   22.9610   -6.3170   15.8600 S   0  0  0  0  0  0  0  0  0  0  0  0
   24.6090   -4.5140   17.1570 O   0  0  0  0  0  0  0  0  0  0  0  0
   25.9170   -6.7200   16.9450 O   0  0  0  0  0  0  0  0  0  0  0  0
   27.3390   -6.7250   16.7150 C   0  0  0  0  0  0  0  0  0  0  0  0
   28.1530   -6.0890   17.8560 C   0  0  0  0  0  0  0  0  0  0  0  0
   29.5110   -6.5290   17.7840 O   0  0  0  0  0  0  0  0  0  0  0  0
   27.5940   -6.5140   19.2020 C   0  0  0  0  0  0  0  0  0  0  0  0
   28.4530   -6.2540   20.3170 O   0  0  0  0  0  0  0  0  0  0  0  0
   28.4660   -7.3010   21.5600 P   0  0  0  0  0  0  0  0  0  0  0  0
   27.5370   -6.7570   23.3330 S   0  0  0  0  0  0  0  0  0  0  0  0
   27.7950   -8.5370   21.2050 O   0  0  0  0  0  0  0  0  0  0  0  0
   29.9940   -7.6920   21.8550 O   0  0  0  0  0  0  0  0  0  0  0  0
   30.5080   -7.9660   23.1700 C   0  0  0  0  0  0  0  0  0  0  0  0
   31.8320   -7.2280   23.3130 C   0  0  0  0  0  0  0  0  0  0  0  0
   32.7480   -7.7500   22.3380 O   0  0  0  0  0  0  0  0  0  0  0  0
   31.6680   -5.7170   23.0800 C   0  0  0  0  0  0  0  0  0  0  0  0
   32.1920   -4.9330   24.1650 O   0  0  0  0  0  0  0  0  0  0  0  0
   32.4040   -5.4770   21.7700 C   0  0  0  0  0  0  0  0  0  0  0  0
   33.0820   -4.2140   21.7360 O   0  0  0  0  0  0  0  0  0  0  0  0
   33.3840   -6.6530   21.7020 C   0  0  0  0  0  0  0  0  0  0  0  0
   33.8450   -6.9370   20.3310 N   0  0  0  0  0  0  0  0  0  0  0  0
   33.0990   -7.0480   19.2120 C   0  0  0  0  0  0  0  0  0  0  0  0
   33.9010   -7.2830   18.1390 N   0  0  0  0  0  0  0  0  0  0  0  0
   35.1770   -7.3250   18.5830 C   0  0  0  0  0  0  0  0  0  0  0  0
   35.1420   -7.0930   20.0330 C   0  0  0  0  0  0  0  0  0  0  0  0
   36.3150   -7.0700   20.7350 N   0  0  0  0  0  0  0  0  0  0  0  0
   37.5020   -7.2690   20.1140 C   0  0  0  0  0  0  0  0  0  0  0  0
   37.6060   -7.4870   18.7840 N   0  0  0  0  0  0  0  0  0  0  0  0
   36.5090   -7.5310   17.9800 C   0  0  0  0  0  0  0  0  0  0  0  0
   36.5950   -7.7520   16.6490 N   0  0  0  0  0  0  0  0  0  0  0  0
   34.0637   -4.9157   13.9457 H   0  0  0  0  0  0  0  0  0  0  0  0
   35.1133   -4.5843   12.5417 H   0  0  0  0  0  0  0  0  0  0  0  0
   32.4368   -5.5843    8.8243 H   0  0  0  0  0  0  0  0  0  0  0  0
   29.3480   -6.0435   14.6512 H   0  0  0  0  0  0  0  0  0  0  0  0
   28.5066   -6.4099   10.8860 H   0  0  0  0  0  0  0  0  0  0  0  0
   28.6608   -8.0486   13.4484 H   0  0  0  0  0  0  0  0  0  0  0  0
   28.8906   -9.7456   12.2472 H   0  0  0  0  0  0  0  0  0  0  0  0
   26.3959   -8.5165   13.5909 H   0  0  0  0  0  0  0  0  0  0  0  0
   25.3726   -9.5019   12.1163 H   0  0  0  0  0  0  0  0  0  0  0  0
   25.6722   -6.4407   11.4064 H   0  0  0  0  0  0  0  0  0  0  0  0
   25.4668   -6.9342   14.3681 H   0  0  0  0  0  0  0  0  0  0  0  0
   24.1691   -6.7586   13.1029 H   0  0  0  0  0  0  0  0  0  0  0  0
   23.9187   -4.6494   13.8498 H   0  0  0  0  0  0  0  0  0  0  0  0
   25.4303   -4.2544   13.0744 H   0  0  0  0  0  0  0  0  0  0  0  0
   22.2815   -6.5567   17.0252 H   0  0  0  0  0  0  0  0  0  0  0  0
   27.5430   -6.1663   15.7897 H   0  0  0  0  0  0  0  0  0  0  0  0
   27.6497   -7.7780   16.6469 H   0  0  0  0  0  0  0  0  0  0  0  0
   28.0951   -4.9954   17.7523 H   0  0  0  0  0  0  0  0  0  0  0  0
   29.8693   -6.6451   18.6996 H   0  0  0  0  0  0  0  0  0  0  0  0
   27.3986   -7.5959   19.1654 H   0  0  0  0  0  0  0  0  0  0  0  0
   26.6860   -5.9146   19.3638 H   0  0  0  0  0  0  0  0  0  0  0  0
   28.2852   -7.1951   24.3937 H   0  0  0  0  0  0  0  0  0  0  0  0
   30.6670   -9.0476   23.2922 H   0  0  0  0  0  0  0  0  0  0  0  0
   29.7960   -7.6320   23.9391 H   0  0  0  0  0  0  0  0  0  0  0  0
   32.2067   -7.3769   24.3365 H   0  0  0  0  0  0  0  0  0  0  0  0
   30.6134   -5.4082   23.0299 H   0  0  0  0  0  0  0  0  0  0  0  0
   31.9208   -5.3387   25.0264 H   0  0  0  0  0  0  0  0  0  0  0  0
   31.7212   -5.4288   20.9089 H   0  0  0  0  0  0  0  0  0  0  0  0
   33.2485   -3.9038   22.6613 H   0  0  0  0  0  0  0  0  0  0  0  0
   34.3190   -6.4135   22.2296 H   0  0  0  0  0  0  0  0  0  0  0  0
   32.0031   -6.9612   19.1734 H   0  0  0  0  0  0  0  0  0  0  0  0
   38.4212   -7.2525   20.7180 H   0  0  0  0  0  0  0  0  0  0  0  0
   36.9462   -8.6546   16.2984 H   0  0  0  0  0  0  0  0  0  0  0  0
   36.3093   -7.0178   15.9855 H   0  0  0  0  0  0  0  0  0  0  0  0
 48 47  1  0
 48 49  2  0
 47 46  2  0
 49 50  1  0
 38 37  1  0
 46 45  1  0
 46 42  1  0
 50 45  2  0
 50 51  1  0
 40 39  1  0
 41 42  1  0
 41 36  1  0
 41 39  1  0
 45 44  1  0
 42 43  1  0
 36 35  1  0
 39 37  1  0
 37 35  1  0
 35 34  1  0
 44 43  2  0
 34 33  1  0
 33 30  1  0
 31 30  1  0
 29 30  1  0
 29 28  1  0
 30 32  2  0
  1  2  1  0
 27 26  1  0
 28 26  1  0
  2  7  2  0
  2  3  1  0
  8  7  1  0
  8  9  2  0
 26 25  1  0
  7  6  1  0
  3  4  2  0
 25 24  1  0
  9 10  1  0
  6 10  1  0
  6  5  2  0
  4  5  1  0
 10 11  1  0
 24 21  1  0
 23 21  2  0
 21 20  1  0
 21 22  1  0
 14 13  1  0
 20 19  1  0
 13 11  1  0
 13 15  1  0
 11 12  1  0
 12 17  1  0
 19 18  1  0
 15 17  1  0
 15 16  1  0
 17 18  1  0
  1 52  1  0
  1 53  1  0
  4 54  1  0
  9 55  1  0
 11 56  1  0
 13 57  1  0
 14 58  1  0
 15 59  1  0
 16 60  1  0
 17 61  1  0
 18 62  1  0
 18 63  1  0
 19 64  1  0
 19 65  1  0
 22 66  1  0
 25 67  1  0
 25 68  1  0
 26 69  1  0
 27 70  1  0
 28 71  1  0
 28 72  1  0
 31 73  1  0
 34 74  1  0
 34 75  1  0
 35 76  1  0
 37 77  1  0
 38 78  1  0
 39 79  1  0
 40 80  1  0
 41 81  1  0
 43 82  1  0
 48 83  1  0
 51 84  1  0
 51 85  1  0
A    1
N46
A    2
C43
A    3
N44
A    4
C47
A    5
N41
A    6
C38
A    7
C39
A    8
N40
A    9
C37
A   10
N36
A   11
C32
A   12
O33
A   13
C31
A   14
O35
A   15
C30
A   16
O34
A   17
C29
A   18
C28
A   19
C4
A   20
O10
A   21
P6
A   22
S8
A   23
O9
A   24
O4
A   25
C2
A   26
C1
A   27
O1
A   28
C3
A   29
O5
A   30
P7
A   31
S13
A   32
O12
A   33
O14
A   34
C5
A   35
C6
A   36
O11
A   37
C7
A   38
O15
A   39
C8
A   40
O17
A   41
C9
A   42
N18
A   43
C19
A   44
N22
A   45
C21
A   46
C20
A   47
N25
A   48
C26
A   49
N24
A   50
C23
A   51
N27
M  END
