4ZL1_18X_A_403
     RDKit          3D

 39 41  0  0  0  0  0  0  0  0999 V2000
   21.6460  -26.3550   24.7600 C   0  0  0  0  0  0  0  0  0  0  0  0
   21.4250  -27.2420   25.9230 C   0  0  0  0  0  0  0  0  0  0  0  0
   22.8870  -26.2890   24.4220 C   0  0  0  0  0  0  0  0  0  0  0  0
   24.0330  -26.2730   24.1290 N   0  0  0  0  0  0  0  0  0  0  0  0
   20.2990  -27.3160   26.3970 O   0  0  0  0  0  0  0  0  0  0  0  0
   22.5390  -28.0160   26.4600 O   0  0  0  0  0  0  0  0  0  0  0  0
   22.3340  -29.0420   27.4750 C   0  0  0  0  0  0  0  0  0  0  0  0
   20.5560  -25.8150   24.1670 C   0  0  0  0  0  0  0  0  0  0  0  0
   20.6120  -24.9680   23.1060 N   0  0  0  0  0  0  0  0  0  0  0  0
   19.4130  -24.4760   22.6630 C   0  0  0  0  0  0  0  0  0  0  0  0
   18.1850  -25.1610   23.3290 C   0  0  0  0  0  0  0  0  0  0  0  0
   18.9200  -26.0410   24.6870 S   0  0  0  0  0  0  0  0  0  0  0  0
   21.7830  -24.4210   22.5050 C   0  0  0  0  0  0  0  0  0  0  0  0
   22.1850  -24.6790   21.1830 C   0  0  0  0  0  0  0  0  0  0  0  0
   23.3480  -24.0030   20.7220 C   0  0  0  0  0  0  0  0  0  0  0  0
   24.0250  -23.0670   21.4930 C   0  0  0  0  0  0  0  0  0  0  0  0
   23.6780  -22.8170   22.7820 C   0  0  0  0  0  0  0  0  0  0  0  0
   22.5340  -23.4340   23.3100 C   0  0  0  0  0  0  0  0  0  0  0  0
   25.2230  -22.4020   20.9680 C   0  0  0  0  0  0  0  0  0  0  0  0
   26.2520  -22.0600   21.8160 C   0  0  0  0  0  0  0  0  0  0  0  0
   27.4410  -21.5090   21.3120 C   0  0  0  0  0  0  0  0  0  0  0  0
   27.5300  -21.2840   19.9260 C   0  0  0  0  0  0  0  0  0  0  0  0
   26.4560  -21.6260   19.0750 C   0  0  0  0  0  0  0  0  0  0  0  0
   25.2880  -22.2010   19.6150 C   0  0  0  0  0  0  0  0  0  0  0  0
   22.1690  -23.1180   24.5950 F   0  0  0  0  0  0  0  0  0  0  0  0
   19.3170  -23.5540   21.7820 O   0  0  0  0  0  0  0  0  0  0  0  0
   22.4239  -28.5919   28.4747 H   0  0  0  0  0  0  0  0  0  0  0  0
   21.3310  -29.4782   27.3581 H   0  0  0  0  0  0  0  0  0  0  0  0
   23.0924  -29.8301   27.3581 H   0  0  0  0  0  0  0  0  0  0  0  0
   17.4594  -24.4151   23.6856 H   0  0  0  0  0  0  0  0  0  0  0  0
   17.6202  -25.8090   22.6426 H   0  0  0  0  0  0  0  0  0  0  0  0
   21.6264  -25.3711   20.5357 H   0  0  0  0  0  0  0  0  0  0  0  0
   23.7265  -24.2305   19.7146 H   0  0  0  0  0  0  0  0  0  0  0  0
   24.2847  -22.1411   23.4026 H   0  0  0  0  0  0  0  0  0  0  0  0
   26.1417  -22.2199   22.8987 H   0  0  0  0  0  0  0  0  0  0  0  0
   28.2781  -21.2606   21.9809 H   0  0  0  0  0  0  0  0  0  0  0  0
   28.4423  -20.8387   19.5023 H   0  0  0  0  0  0  0  0  0  0  0  0
   26.5309  -21.4439   17.9928 H   0  0  0  0  0  0  0  0  0  0  0  0
   24.4471  -22.4821   18.9639 H   0  0  0  0  0  0  0  0  0  0  0  0
 21 20  2  0
 21 22  1  0
 20 19  1  0
 22 23  2  0
 25 18  1  0
 17 18  2  0
 17 16  1  0
 19 16  1  0
 19 24  2  0
 23 24  1  0
 18 13  1  0
 16 15  2  0
 26 10  2  0
 10  9  1  0
 10 11  1  0
 13  9  1  0
 13 14  2  0
 15 14  1  0
  9  8  1  0
 11 12  1  0
  8 12  1  0
  8  1  2  0
  4  3  3  0
  3  1  1  0
  1  2  1  0
  2  6  1  0
  2  5  2  0
  6  7  1  0
  7 27  1  0
  7 28  1  0
  7 29  1  0
 11 30  1  0
 11 31  1  0
 14 32  1  0
 15 33  1  0
 17 34  1  0
 20 35  1  0
 21 36  1  0
 22 37  1  0
 23 38  1  0
 24 39  1  0
A    1
C1
A    2
C2
A    3
C3
A    4
N4
A    5
O5
A    6
O6
A    7
C7
A    8
C8
A    9
N9
A   10
C10
A   11
C11
A   12
S12
A   13
C13
A   14
C14
A   15
C15
A   16
C16
A   17
C17
A   18
C18
A   19
C19
A   20
C20
A   21
C21
A   22
C22
A   23
C23
A   24
C24
A   25
F25
A   26
O26
M  END
