4ZLZ_4RV_A_705
     RDKit          3D

 34 36  0  0  0  0  0  0  0  0999 V2000
  -22.5830    9.3550   -6.7420 C   0  0  0  0  0  0  0  0  0  0  0  0
  -23.2120    7.9630   -4.9900 C   0  0  0  0  0  0  0  0  0  0  0  0
  -22.2320    8.5140   -4.1430 C   0  0  0  0  0  0  0  0  0  0  0  0
  -22.1080    8.0350   -2.7350 C   0  0  0  0  0  0  0  0  0  0  0  0
  -22.9880    8.0250   -0.4820 C   0  0  0  0  0  0  0  0  0  0  0  0
  -19.8600    6.0020   -0.5610 C   0  0  0  0  0  0  0  0  0  0  0  0
  -18.9190    5.6570   -1.5550 C   0  0  0  0  0  0  0  0  0  0  0  0
  -20.3380   10.2270   -3.8050 C   0  0  0  0  0  0  0  0  0  0  0  0
  -21.4080    9.5540   -4.6480 C   0  0  0  0  0  0  0  0  0  0  0  0
  -21.6020    9.9700   -5.9680 C   0  0  0  0  0  0  0  0  0  0  0  0
  -23.3410    8.3880   -6.2370 N   0  0  0  0  0  0  0  0  0  0  0  0
  -23.0690    8.4210   -1.8010 C   0  0  0  0  0  0  0  0  0  0  0  0
  -21.9540    7.2300   -0.0600 C   0  0  0  0  0  0  0  0  0  0  0  0
  -20.9580    6.8180   -0.9600 C   0  0  0  0  0  0  0  0  0  0  0  0
  -19.7460    5.6110    0.7560 N   0  0  0  0  0  0  0  0  0  0  0  0
  -19.0890    6.0950   -2.8100 N   0  0  0  0  0  0  0  0  0  0  0  0
  -20.0760    6.8260   -3.1700 N   0  0  0  0  0  0  0  0  0  0  0  0
  -21.0340    7.2180   -2.3180 C   0  0  0  0  0  0  0  0  0  0  0  0
  -17.7130    4.8590   -1.2960 C   0  0  0  0  0  0  0  0  0  0  0  0
  -16.7710    4.7780   -2.2590 N   0  0  0  0  0  0  0  0  0  0  0  0
  -17.5250    4.3260   -0.2190 O   0  0  0  0  0  0  0  0  0  0  0  0
  -22.7320    9.6739   -7.7842 H   0  0  0  0  0  0  0  0  0  0  0  0
  -23.8766    7.1721   -4.6122 H   0  0  0  0  0  0  0  0  0  0  0  0
  -23.7570    8.3488    0.2348 H   0  0  0  0  0  0  0  0  0  0  0  0
  -20.5669   10.0831   -2.7387 H   0  0  0  0  0  0  0  0  0  0  0  0
  -19.3581    9.7823   -4.0330 H   0  0  0  0  0  0  0  0  0  0  0  0
  -20.3144   11.3029   -4.0330 H   0  0  0  0  0  0  0  0  0  0  0  0
  -20.9853   10.7762   -6.3920 H   0  0  0  0  0  0  0  0  0  0  0  0
  -23.9089    9.0543   -2.1227 H   0  0  0  0  0  0  0  0  0  0  0  0
  -21.9041    6.9123    0.9919 H   0  0  0  0  0  0  0  0  0  0  0  0
  -19.9419    6.2831    1.5115 H   0  0  0  0  0  0  0  0  0  0  0  0
  -19.4649    4.6468    0.9845 H   0  0  0  0  0  0  0  0  0  0  0  0
  -15.7774    4.6926   -2.0016 H   0  0  0  0  0  0  0  0  0  0  0  0
  -17.0457    4.8016   -3.2514 H   0  0  0  0  0  0  0  0  0  0  0  0
  1 11  2  0
  1 10  1  0
 11  2  1  0
 10  9  2  0
  2  3  2  0
  9  3  1  0
  9  8  1  0
  3  4  1  0
 17 16  2  0
 17 18  1  0
 16  7  1  0
  4 18  2  0
  4 12  1  0
 18 14  1  0
 20 19  1  0
 12  5  2  0
  7 19  1  0
  7  6  2  0
 19 21  2  0
 14  6  1  0
 14 13  2  0
  6 15  1  0
  5 13  1  0
  1 22  1  0
  2 23  1  0
  5 24  1  0
  8 25  1  0
  8 26  1  0
  8 27  1  0
 10 28  1  0
 12 29  1  0
 13 30  1  0
 15 31  1  0
 15 32  1  0
 20 33  1  0
 20 34  1  0
A    1
C4
A    2
C6
A    3
C7
A    4
C8
A    5
C10
A    6
C13
A    7
C15
A    8
C1
A    9
C2
A   10
C3
A   11
N5
A   12
C9
A   13
C11
A   14
C12
A   15
N14
A   16
N16
A   17
N17
A   18
C18
A   19
C19
A   20
N20
A   21
O21
M  END
