4ZN9_OBH_A_601
     RDKit          3D

 53 57  0  0  0  0  0  0  0  0999 V2000
   -3.1460   -3.9970   22.7400 C   0  0  0  0  0  0  0  0  0  0  0  0
   -2.4150   -3.4620   23.7740 C   0  0  0  0  0  0  0  0  0  0  0  0
   -3.1020   -2.9140   24.8170 C   0  0  0  0  0  0  0  0  0  0  0  0
   -2.4740   -2.3980   25.8270 O   0  0  0  0  0  0  0  0  0  0  0  0
   -4.4770   -2.9370   24.8150 C   0  0  0  0  0  0  0  0  0  0  0  0
   -5.1730   -3.4640   23.7670 C   0  0  0  0  0  0  0  0  0  0  0  0
   -4.5250   -4.0060   22.6920 C   0  0  0  0  0  0  0  0  0  0  0  0
   -5.1890   -4.5850   21.6030 C   0  0  0  0  0  0  0  0  0  0  0  0
   -6.3560   -4.2960   20.8870 C   0  0  0  0  0  0  0  0  0  0  0  0
   -7.2580   -3.2830   20.8940 C   0  0  0  0  0  0  0  0  0  0  0  0
   -8.5870   -3.5570   20.7350 C   0  0  0  0  0  0  0  0  0  0  0  0
   -9.4780   -2.5340   20.6920 C   0  0  0  0  0  0  0  0  0  0  0  0
   -9.0240   -1.2520   20.7730 C   0  0  0  0  0  0  0  0  0  0  0  0
   -9.8540   -0.2210   20.7360 O   0  0  0  0  0  0  0  0  0  0  0  0
   -7.6930   -0.9950   20.9070 C   0  0  0  0  0  0  0  0  0  0  0  0
   -6.8060   -2.0100   20.9660 C   0  0  0  0  0  0  0  0  0  0  0  0
   -6.4590   -5.2690   19.7670 C   0  0  0  0  0  0  0  0  0  0  0  0
   -5.8960   -6.3040   20.3310 O   0  0  0  0  0  0  0  0  0  0  0  0
   -4.7420   -5.8030   20.7710 C   0  0  0  0  0  0  0  0  0  0  0  0
   -4.1990   -5.4520   19.4250 C   0  0  0  0  0  0  0  0  0  0  0  0
   -5.4080   -4.7750   18.7870 C   0  0  0  0  0  0  0  0  0  0  0  0
   -5.6700   -5.1970   17.0640 S   0  0  0  0  0  0  0  0  0  0  0  0
   -4.7370   -4.5090   16.3210 O   0  0  0  0  0  0  0  0  0  0  0  0
   -5.4810   -6.5380   16.8540 O   0  0  0  0  0  0  0  0  0  0  0  0
   -6.8200   -4.7300   16.6330 O   0  0  0  0  0  0  0  0  0  0  0  0
   -7.7390   -5.3860   15.8770 C   0  0  0  0  0  0  0  0  0  0  0  0
   -9.0560   -5.3020   16.2580 C   0  0  0  0  0  0  0  0  0  0  0  0
  -10.0680   -5.8990   15.5520 C   0  0  0  0  0  0  0  0  0  0  0  0
   -9.7780   -6.6230   14.4150 C   0  0  0  0  0  0  0  0  0  0  0  0
   -8.4560   -6.7190   14.0100 C   0  0  0  0  0  0  0  0  0  0  0  0
   -7.4580   -6.0830   14.7260 C   0  0  0  0  0  0  0  0  0  0  0  0
   -2.5976   -4.4458   21.8987 H   0  0  0  0  0  0  0  0  0  0  0  0
   -1.3152   -3.4754   23.7607 H   0  0  0  0  0  0  0  0  0  0  0  0
   -2.7503   -2.6250   26.7502 H   0  0  0  0  0  0  0  0  0  0  0  0
   -5.0254   -2.5230   25.6740 H   0  0  0  0  0  0  0  0  0  0  0  0
   -6.2728   -3.4528   23.7870 H   0  0  0  0  0  0  0  0  0  0  0  0
   -8.9319   -4.5975   20.6427 H   0  0  0  0  0  0  0  0  0  0  0  0
  -10.5544   -2.7377   20.5929 H   0  0  0  0  0  0  0  0  0  0  0  0
  -10.1793    0.1831   21.5792 H   0  0  0  0  0  0  0  0  0  0  0  0
   -7.3397    0.0450   20.9674 H   0  0  0  0  0  0  0  0  0  0  0  0
   -5.7304   -1.8052   21.0712 H   0  0  0  0  0  0  0  0  0  0  0  0
   -7.4509   -5.4246   19.3177 H   0  0  0  0  0  0  0  0  0  0  0  0
   -4.0370   -6.3809   21.3866 H   0  0  0  0  0  0  0  0  0  0  0  0
   -3.3448   -4.7632   19.5017 H   0  0  0  0  0  0  0  0  0  0  0  0
   -3.8091   -6.3096   18.8571 H   0  0  0  0  0  0  0  0  0  0  0  0
   -5.3588   -3.6818   18.6756 H   0  0  0  0  0  0  0  0  0  0  0  0
   -7.6149   -6.2817   16.5034 H   0  0  0  0  0  0  0  0  0  0  0  0
   -9.3085   -4.7334   17.1652 H   0  0  0  0  0  0  0  0  0  0  0  0
  -11.1095   -5.8006   15.8919 H   0  0  0  0  0  0  0  0  0  0  0  0
  -10.1416   -7.6477   14.5813 H   0  0  0  0  0  0  0  0  0  0  0  0
  -10.2666   -6.0600   13.6061 H   0  0  0  0  0  0  0  0  0  0  0  0
   -8.1991   -7.3040   13.1146 H   0  0  0  0  0  0  0  0  0  0  0  0
   -6.4194   -6.1360   14.3674 H   0  0  0  0  0  0  0  0  0  0  0  0
  1  2  2  0
  1  7  1  0
  2  3  1  0
  3  4  1  0
  3  5  2  0
  5  6  1  0
  6  7  2  0
  7  8  1  0
  8  9  2  0
  8 19  1  0
  9 10  1  0
  9 17  1  0
 10 11  2  0
 10 16  1  0
 11 12  1  0
 12 13  2  0
 13 14  1  0
 13 15  1  0
 15 16  2  0
 17 18  1  0
 17 21  1  0
 18 19  1  0
 19 20  1  0
 20 21  1  0
 21 22  1  0
 22 23  2  0
 22 24  2  0
 22 25  1  0
 25 26  1  0
 26 27  1  0
 26 31  1  0
 27 28  2  0
 28 29  1  0
 29 30  1  0
 30 31  2  0
  1 32  1  0
  2 33  1  0
  4 34  1  0
  5 35  1  0
  6 36  1  0
 11 37  1  0
 12 38  1  0
 14 39  1  0
 15 40  1  0
 16 41  1  0
 17 42  1  0
 19 43  1  0
 20 44  1  0
 20 45  1  0
 21 46  1  0
 26 47  1  0
 27 48  1  0
 28 49  1  0
 29 50  1  0
 29 51  1  0
 30 52  1  0
 31 53  1  0
A    1
CAN
A    2
CAJ
A    3
CAW
A    4
OAC
A    5
CAK
A    6
CAO
A    7
CAZ
A    8
CAU
A    9
CAV
A   10
CBA
A   11
CAP
A   12
CAL
A   13
CAX
A   14
OAD
A   15
CAM
A   16
CAQ
A   17
CBC
A   18
OAS
A   19
CBB
A   20
CAR
A   21
CBD
A   22
SBE
A   23
OAA
A   24
OAB
A   25
OAT
A   26
CAY
A   27
CAH
A   28
CAF
A   29
CAE
A   30
CAG
A   31
CAI
M  END
