4ZNH_OBC_A_601
     RDKit          3D

 51 55  0  0  0  0  0  0  0  0999 V2000
   -4.3590   -5.5740   15.9340 O   0  0  0  0  0  0  0  0  0  0  0  0
   -5.6010   -7.4590   17.1040 O   0  0  0  0  0  0  0  0  0  0  0  0
   -6.9660   -5.2670   16.4070 O   0  0  0  0  0  0  0  0  0  0  0  0
   -5.5290   -6.0770   16.6440 S   0  0  0  0  0  0  0  0  0  0  0  0
   -9.3830   -0.6470   20.5980 O   0  0  0  0  0  0  0  0  0  0  0  0
   -2.1430   -3.4070   25.7350 O   0  0  0  0  0  0  0  0  0  0  0  0
   -4.6720   -4.1830   23.3070 C   0  0  0  0  0  0  0  0  0  0  0  0
   -4.0780   -3.8020   24.4500 C   0  0  0  0  0  0  0  0  0  0  0  0
   -2.7410   -3.7930   24.5770 C   0  0  0  0  0  0  0  0  0  0  0  0
   -2.0200   -4.1800   23.5120 C   0  0  0  0  0  0  0  0  0  0  0  0
   -2.6170   -4.5590   22.3720 C   0  0  0  0  0  0  0  0  0  0  0  0
   -7.9840   -3.9350   20.3230 C   0  0  0  0  0  0  0  0  0  0  0  0
   -8.8700   -2.9270   20.3350 C   0  0  0  0  0  0  0  0  0  0  0  0
   -8.4850   -1.6660   20.5880 C   0  0  0  0  0  0  0  0  0  0  0  0
   -7.1800   -1.4640   20.8280 C   0  0  0  0  0  0  0  0  0  0  0  0
   -6.2970   -2.4780   20.8170 C   0  0  0  0  0  0  0  0  0  0  0  0
   -6.4070   -6.6740   14.1560 F   0  0  0  0  0  0  0  0  0  0  0  0
   -9.1660   -6.1130   16.2540 C   0  0  0  0  0  0  0  0  0  0  0  0
  -10.1050   -6.8570   15.6490 C   0  0  0  0  0  0  0  0  0  0  0  0
   -9.8040   -7.5460   14.5390 C   0  0  0  0  0  0  0  0  0  0  0  0
   -8.5600   -7.4820   14.0460 C   0  0  0  0  0  0  0  0  0  0  0  0
   -7.6300   -6.7300   14.6560 C   0  0  0  0  0  0  0  0  0  0  0  0
   -7.9120   -6.0290   15.7730 C   0  0  0  0  0  0  0  0  0  0  0  0
   -6.6700   -3.7510   20.5670 C   0  0  0  0  0  0  0  0  0  0  0  0
   -3.9570   -4.5710   22.2310 C   0  0  0  0  0  0  0  0  0  0  0  0
   -4.9870   -6.8590   19.9440 O   0  0  0  0  0  0  0  0  0  0  0  0
   -3.9080   -5.9890   20.1650 C   0  0  0  0  0  0  0  0  0  0  0  0
   -4.5540   -4.9580   21.0830 C   0  0  0  0  0  0  0  0  0  0  0  0
   -3.6960   -5.3880   18.7700 C   0  0  0  0  0  0  0  0  0  0  0  0
   -5.1580   -5.2680   18.2810 C   0  0  0  0  0  0  0  0  0  0  0  0
   -5.8840   -5.8740   19.4950 C   0  0  0  0  0  0  0  0  0  0  0  0
   -5.7840   -4.7730   20.5490 C   0  0  0  0  0  0  0  0  0  0  0  0
   -9.7061   -0.2804   21.4590 H   0  0  0  0  0  0  0  0  0  0  0  0
   -2.5389   -3.6626   26.6057 H   0  0  0  0  0  0  0  0  0  0  0  0
   -5.7703   -4.1785   23.2469 H   0  0  0  0  0  0  0  0  0  0  0  0
   -4.7008   -3.4903   25.3014 H   0  0  0  0  0  0  0  0  0  0  0  0
   -0.9219   -4.1863   23.5756 H   0  0  0  0  0  0  0  0  0  0  0  0
   -1.9909   -4.8708   21.5230 H   0  0  0  0  0  0  0  0  0  0  0  0
   -8.3435   -4.9516   20.1056 H   0  0  0  0  0  0  0  0  0  0  0  0
   -9.9307   -3.1378   20.1339 H   0  0  0  0  0  0  0  0  0  0  0  0
   -6.8244   -0.4446   21.0387 H   0  0  0  0  0  0  0  0  0  0  0  0
   -5.2371   -2.2634   21.0181 H   0  0  0  0  0  0  0  0  0  0  0  0
   -9.4282   -5.5576   17.1666 H   0  0  0  0  0  0  0  0  0  0  0  0
  -11.1226   -6.9015   16.0643 H   0  0  0  0  0  0  0  0  0  0  0  0
  -10.5698   -8.1569   14.0387 H   0  0  0  0  0  0  0  0  0  0  0  0
   -8.2998   -8.0472   13.1389 H   0  0  0  0  0  0  0  0  0  0  0  0
   -2.9700   -6.3880   20.5784 H   0  0  0  0  0  0  0  0  0  0  0  0
   -3.1074   -6.0578   18.1258 H   0  0  0  0  0  0  0  0  0  0  0  0
   -3.1340   -4.4424   18.7621 H   0  0  0  0  0  0  0  0  0  0  0  0
   -5.4684   -4.2443   18.0248 H   0  0  0  0  0  0  0  0  0  0  0  0
   -6.9056   -6.2338   19.3033 H   0  0  0  0  0  0  0  0  0  0  0  0
 21 20  2  0
 21 22  1  0
 17 22  1  0
 20 19  1  0
 22 23  2  0
 19 18  2  0
 23 18  1  0
 23  3  1  0
  1  4  2  0
  3  4  1  0
  4  2  2  0
  4 30  1  0
 30 29  1  0
 30 31  1  0
 29 27  1  0
 31 26  1  0
 31 32  1  0
 26 27  1  0
 27 28  1  0
 12 13  2  0
 12 24  1  0
 13 14  1  0
 32 24  1  0
 32 28  2  0
 24 16  2  0
 14  5  1  0
 14 15  2  0
 16 15  1  0
 28 25  1  0
 25 11  1  0
 25  7  2  0
 11 10  2  0
  7  8  1  0
 10  9  1  0
  8  9  2  0
  9  6  1  0
  5 33  1  0
  6 34  1  0
  7 35  1  0
  8 36  1  0
 10 37  1  0
 11 38  1  0
 12 39  1  0
 13 40  1  0
 15 41  1  0
 16 42  1  0
 18 43  1  0
 19 44  1  0
 20 45  1  0
 21 46  1  0
 27 47  1  0
 29 48  1  0
 29 49  1  0
 30 50  1  0
 31 51  1  0
A    1
O01
A    2
O02
A    3
O03
A    4
S01
A    5
O04
A    6
O05
A    7
C01
A    8
C02
A    9
C03
A   10
C04
A   11
C05
A   12
C06
A   13
C07
A   14
C08
A   15
C09
A   16
C10
A   17
F01
A   18
C11
A   19
C12
A   20
C13
A   21
C14
A   22
C15
A   23
C16
A   24
C17
A   25
C18
A   26
O06
A   27
C19
A   28
C20
A   29
C21
A   30
C22
A   31
C23
A   32
C24
M  END
