4ZNU_4Q9_A_601
     RDKit          3D

 54 58  0  0  0  0  0  0  0  0999 V2000
   -8.1270    6.4300   24.2610 O   0  0  0  0  0  0  0  0  0  0  0  0
   -7.4810    5.1810   24.5480 S   0  0  0  0  0  0  0  0  0  0  0  0
   -5.8610    4.9300   23.3910 C   0  0  0  0  0  0  0  0  0  0  0  0
   -6.2150    4.7910   22.1730 C   0  0  0  0  0  0  0  0  0  0  0  0
   -5.1770    4.2500   21.5190 C   0  0  0  0  0  0  0  0  0  0  0  0
   -5.2840    2.8690   20.8820 C   0  0  0  0  0  0  0  0  0  0  0  0
   -4.6120    1.6400   20.8710 C   0  0  0  0  0  0  0  0  0  0  0  0
   -5.1320    0.5610   20.1430 C   0  0  0  0  0  0  0  0  0  0  0  0
   -6.3380    0.7020   19.4530 C   0  0  0  0  0  0  0  0  0  0  0  0
   -6.8520   -0.3630   18.7340 O   0  0  0  0  0  0  0  0  0  0  0  0
   -7.0260    1.9180   19.4840 C   0  0  0  0  0  0  0  0  0  0  0  0
   -6.4990    2.9980   20.2090 C   0  0  0  0  0  0  0  0  0  0  0  0
   -4.0670    5.2170   21.6700 C   0  0  0  0  0  0  0  0  0  0  0  0
   -2.6180    5.1890   21.2370 C   0  0  0  0  0  0  0  0  0  0  0  0
   -2.5580    4.7700   19.9130 C   0  0  0  0  0  0  0  0  0  0  0  0
   -1.3030    4.6730   19.2970 C   0  0  0  0  0  0  0  0  0  0  0  0
   -0.1450    4.9960   20.0000 C   0  0  0  0  0  0  0  0  0  0  0  0
    1.0930    4.9060   19.4030 O   0  0  0  0  0  0  0  0  0  0  0  0
   -0.2160    5.4170   21.3190 C   0  0  0  0  0  0  0  0  0  0  0  0
   -1.4550    5.5080   21.9310 C   0  0  0  0  0  0  0  0  0  0  0  0
   -4.5470    6.2810   22.3950 C   0  0  0  0  0  0  0  0  0  0  0  0
   -6.0580    6.3700   21.6960 O   0  0  0  0  0  0  0  0  0  0  0  0
   -4.9880    5.9740   23.5160 C   0  0  0  0  0  0  0  0  0  0  0  0
   -8.3830    4.0180   24.3910 O   0  0  0  0  0  0  0  0  0  0  0  0
   -9.7170    4.1760   23.9790 C   0  0  0  0  0  0  0  0  0  0  0  0
  -10.0430    3.9610   22.6480 C   0  0  0  0  0  0  0  0  0  0  0  0
  -11.3620    4.1100   22.2190 C   0  0  0  0  0  0  0  0  0  0  0  0
  -12.3550    4.4680   23.1250 C   0  0  0  0  0  0  0  0  0  0  0  0
  -12.0330    4.6860   24.4610 C   0  0  0  0  0  0  0  0  0  0  0  0
  -10.7230    4.5370   24.8890 C   0  0  0  0  0  0  0  0  0  0  0  0
  -10.4130    4.7700   26.3270 C   0  0  0  0  0  0  0  0  0  0  0  0
   -7.0780    5.3370   25.9320 O   0  0  0  0  0  0  0  0  0  0  0  0
   -5.3408    4.0202   23.7251 H   0  0  0  0  0  0  0  0  0  0  0  0
   -7.1602    4.2481   22.0255 H   0  0  0  0  0  0  0  0  0  0  0  0
   -3.6748    1.5215   21.4345 H   0  0  0  0  0  0  0  0  0  0  0  0
   -4.5906   -0.3961   20.1152 H   0  0  0  0  0  0  0  0  0  0  0  0
   -7.2294   -1.1451   19.2094 H   0  0  0  0  0  0  0  0  0  0  0  0
   -7.9770    2.0283   18.9422 H   0  0  0  0  0  0  0  0  0  0  0  0
   -7.0469    3.9511   20.2467 H   0  0  0  0  0  0  0  0  0  0  0  0
   -3.4758    4.5199   19.3607 H   0  0  0  0  0  0  0  0  0  0  0  0
   -1.2321    4.3395   18.2512 H   0  0  0  0  0  0  0  0  0  0  0  0
    1.9085    4.8467   19.9611 H   0  0  0  0  0  0  0  0  0  0  0  0
    0.6992    5.6752   21.8719 H   0  0  0  0  0  0  0  0  0  0  0  0
   -1.5205    5.8365   22.9787 H   0  0  0  0  0  0  0  0  0  0  0  0
   -3.7932    7.0812   22.4323 H   0  0  0  0  0  0  0  0  0  0  0  0
   -5.5095    6.8378   23.9542 H   0  0  0  0  0  0  0  0  0  0  0  0
   -4.1543    5.6790   24.1702 H   0  0  0  0  0  0  0  0  0  0  0  0
   -9.2609    3.6728   21.9302 H   0  0  0  0  0  0  0  0  0  0  0  0
  -11.6174    3.9440   21.1620 H   0  0  0  0  0  0  0  0  0  0  0  0
  -13.3953    4.5788   22.7851 H   0  0  0  0  0  0  0  0  0  0  0  0
  -12.8167    4.9761   25.1763 H   0  0  0  0  0  0  0  0  0  0  0  0
  -11.1371    4.2257   26.9511 H   0  0  0  0  0  0  0  0  0  0  0  0
   -9.3968    4.4102   26.5460 H   0  0  0  0  0  0  0  0  0  0  0  0
  -10.4761    5.8461   26.5460 H   0  0  0  0  0  0  0  0  0  0  0  0
  1  2  2  0
  2  3  1  0
  2 24  1  0
  2 32  2  0
  3  4  1  0
  3 23  1  0
  4  5  1  0
  5  6  1  0
  5 13  2  0
  6  7  2  0
  6 12  1  0
  7  8  1  0
  8  9  2  0
  9 10  1  0
  9 11  1  0
 11 12  2  0
 13 14  1  0
 13 21  1  0
 14 15  2  0
 14 20  1  0
 15 16  1  0
 16 17  2  0
 17 18  1  0
 17 19  1  0
 19 20  2  0
 21 23  1  0
 24 25  1  0
 25 26  2  0
 25 30  1  0
 26 27  1  0
 27 28  2  0
 28 29  1  0
 29 30  2  0
 30 31  1  0
  4 22  1  0
 22 21  1  0
  3 33  1  0
  4 34  1  0
  7 35  1  0
  8 36  1  0
 10 37  1  0
 11 38  1  0
 12 39  1  0
 15 40  1  0
 16 41  1  0
 18 42  1  0
 19 43  1  0
 20 44  1  0
 21 45  1  0
 23 46  1  0
 23 47  1  0
 26 48  1  0
 27 49  1  0
 28 50  1  0
 29 51  1  0
 31 52  1  0
 31 53  1  0
 31 54  1  0
A    1
O01
A    2
S02
A    3
C03
A    4
C04
A    5
C05
A    6
C06
A    7
C07
A    8
C08
A    9
C09
A   10
O10
A   11
C11
A   12
C12
A   13
C13
A   14
C14
A   15
C15
A   16
C16
A   17
C17
A   18
O18
A   19
C19
A   20
C20
A   21
C21
A   22
O22
A   23
C23
A   24
O24
A   25
C25
A   26
C26
A   27
C27
A   28
C28
A   29
C29
A   30
C30
A   31
C31
A   32
O32
M  END
