4ZNV_4Q7_A_601
     RDKit          3D

 55 59  0  0  0  0  0  0  0  0999 V2000
    4.0800   12.7070  -21.5920 C   0  0  0  0  0  0  0  0  0  0  0  0
    5.2420   12.1970  -21.1090 C   0  0  0  0  0  0  0  0  0  0  0  0
    6.3560   12.9480  -20.9320 C   0  0  0  0  0  0  0  0  0  0  0  0
    6.3490   14.2700  -21.1940 C   0  0  0  0  0  0  0  0  0  0  0  0
    5.1970   14.8060  -21.6450 C   0  0  0  0  0  0  0  0  0  0  0  0
    4.0960   14.0480  -21.8060 C   0  0  0  0  0  0  0  0  0  0  0  0
    0.8800   10.9300  -21.7100 C   0  0  0  0  0  0  0  0  0  0  0  0
    0.3370   11.5890  -20.4160 C   0  0  0  0  0  0  0  0  0  0  0  0
    0.4930   14.0450  -25.7530 C   0  0  0  0  0  0  0  0  0  0  0  0
   -0.3720   13.7220  -24.7620 C   0  0  0  0  0  0  0  0  0  0  0  0
    0.0470   13.0440  -23.6710 C   0  0  0  0  0  0  0  0  0  0  0  0
    1.3450   12.6670  -23.5040 C   0  0  0  0  0  0  0  0  0  0  0  0
    2.1950   13.0030  -24.5160 C   0  0  0  0  0  0  0  0  0  0  0  0
    1.7890   13.6750  -25.6210 C   0  0  0  0  0  0  0  0  0  0  0  0
    0.0720   14.7210  -26.8530 O   0  0  0  0  0  0  0  0  0  0  0  0
    1.7620   11.9810  -22.3930 C   0  0  0  0  0  0  0  0  0  0  0  0
    2.9220   11.9740  -21.6700 C   0  0  0  0  0  0  0  0  0  0  0  0
    2.6200   10.9500  -20.5750 C   0  0  0  0  0  0  0  0  0  0  0  0
    7.4420   15.0640  -21.0180 O   0  0  0  0  0  0  0  0  0  0  0  0
    1.6520   11.6400  -19.5990 C   0  0  0  0  0  0  0  0  0  0  0  0
    1.7690    9.9880  -21.1680 O   0  0  0  0  0  0  0  0  0  0  0  0
    1.6750   10.8570  -17.9220 S   0  0  0  0  0  0  0  0  0  0  0  0
    3.2860   10.9750  -17.6110 O   0  0  0  0  0  0  0  0  0  0  0  0
    1.2130    9.5000  -18.2160 O   0  0  0  0  0  0  0  0  0  0  0  0
    0.8360   11.7830  -17.1990 O   0  0  0  0  0  0  0  0  0  0  0  0
    3.7880    9.9520  -16.8600 C   0  0  0  0  0  0  0  0  0  0  0  0
    4.8250    9.2420  -17.3530 C   0  0  0  0  0  0  0  0  0  0  0  0
    5.3370    8.2420  -16.5990 C   0  0  0  0  0  0  0  0  0  0  0  0
    4.8400    7.9600  -15.3830 C   0  0  0  0  0  0  0  0  0  0  0  0
    3.8080    8.6770  -14.9000 C   0  0  0  0  0  0  0  0  0  0  0  0
    3.2880    9.6730  -15.6350 C   0  0  0  0  0  0  0  0  0  0  0  0
    5.2550    9.6010  -18.6060 O   0  0  0  0  0  0  0  0  0  0  0  0
    6.2420    8.8580  -19.2820 C   0  0  0  0  0  0  0  0  0  0  0  0
    5.2807   11.1285  -20.8503 H   0  0  0  0  0  0  0  0  0  0  0  0
    7.2790   12.4719  -20.5694 H   0  0  0  0  0  0  0  0  0  0  0  0
    5.1560   15.8787  -21.8850 H   0  0  0  0  0  0  0  0  0  0  0  0
    3.1649   14.5384  -22.1262 H   0  0  0  0  0  0  0  0  0  0  0  0
    0.1169   10.5389  -22.3990 H   0  0  0  0  0  0  0  0  0  0  0  0
   -0.4284   10.9684  -19.9271 H   0  0  0  0  0  0  0  0  0  0  0  0
   -0.1713   12.5546  -20.5546 H   0  0  0  0  0  0  0  0  0  0  0  0
   -1.4288   14.0153  -24.8465 H   0  0  0  0  0  0  0  0  0  0  0  0
   -0.6852   12.7878  -22.8911 H   0  0  0  0  0  0  0  0  0  0  0  0
    3.2538   12.7169  -24.4322 H   0  0  0  0  0  0  0  0  0  0  0  0
    2.5134   13.9202  -26.4117 H   0  0  0  0  0  0  0  0  0  0  0  0
   -0.4486   15.5569  -26.7512 H   0  0  0  0  0  0  0  0  0  0  0  0
    3.5449   10.5578  -20.1269 H   0  0  0  0  0  0  0  0  0  0  0  0
    7.7495   15.2874  -20.1039 H   0  0  0  0  0  0  0  0  0  0  0  0
    1.8887   12.6736  -19.3065 H   0  0  0  0  0  0  0  0  0  0  0  0
    6.1767    7.6482  -16.9892 H   0  0  0  0  0  0  0  0  0  0  0  0
    5.2748    7.1461  -14.7842 H   0  0  0  0  0  0  0  0  0  0  0  0
    3.3926    8.4478  -13.9075 H   0  0  0  0  0  0  0  0  0  0  0  0
    2.4504   10.2655  -15.2384 H   0  0  0  0  0  0  0  0  0  0  0  0
    6.8967    8.3651  -18.5482 H   0  0  0  0  0  0  0  0  0  0  0  0
    5.7600    8.0967  -19.9129 H   0  0  0  0  0  0  0  0  0  0  0  0
    6.8403    9.5318  -19.9129 H   0  0  0  0  0  0  0  0  0  0  0  0
 25 22  2  0
 31 30  2  0
 31 26  1  0
 30 29  1  0
 22 24  2  0
 22 23  1  0
 22 20  1  0
 23 26  1  0
 26 27  2  0
 29 28  2  0
  8 20  1  0
  8  7  1  0
 20 18  1  0
 27 28  1  0
 27 32  1  0
  7 21  1  0
  7 16  1  0
 18 21  1  0
 18 17  1  0
 11 10  1  0
 11 12  2  0
 32 33  1  0
 16 17  2  0
 16 12  1  0
 10  9  2  0
 17  1  1  0
 12 13  1  0
  6  1  1  0
  6  5  2  0
  1  2  2  0
  5  4  1  0
  2  3  1  0
  9 15  1  0
  9 14  1  0
  4  3  2  0
  4 19  1  0
 13 14  2  0
  2 34  1  0
  3 35  1  0
  5 36  1  0
  6 37  1  0
  7 38  1  0
  8 39  1  0
  8 40  1  0
 10 41  1  0
 11 42  1  0
 13 43  1  0
 14 44  1  0
 15 45  1  0
 18 46  1  0
 19 47  1  0
 20 48  1  0
 28 49  1  0
 29 50  1  0
 30 51  1  0
 31 52  1  0
 33 53  1  0
 33 54  1  0
 33 55  1  0
A    1
C10
A    2
C11
A    3
C12
A    4
C13
A    5
C14
A    6
C15
A    7
C16
A    8
C17
A    9
C01
A   10
C02
A   11
C03
A   12
C04
A   13
C05
A   14
C06
A   15
O01
A   16
C07
A   17
C08
A   18
C09
A   19
O02
A   20
C18
A   21
O03
A   22
S01
A   23
O04
A   24
O05
A   25
O06
A   26
C19
A   27
C20
A   28
C21
A   29
C22
A   30
C23
A   31
C24
A   32
O07
A   33
C25
M  END
