4ZOM_4Q3_A_501
     RDKit          3D

 65 69  0  0  0  0  0  0  0  0999 V2000
   45.7510  169.7330   -0.0140 C   0  0  0  0  0  0  0  0  0  0  0  0
   44.1660  171.2850    1.0590 C   0  0  0  0  0  0  0  0  0  0  0  0
   45.0540  175.5440    1.3240 O   0  0  0  0  0  0  0  0  0  0  0  0
   43.8680  175.6190    1.3190 C   0  0  0  0  0  0  0  0  0  0  0  0
   43.3020  177.0740    1.3520 C   0  0  0  0  0  0  0  0  0  0  0  0
   42.9860  174.5910    1.2500 N   0  0  0  0  0  0  0  0  0  0  0  0
   43.2940  173.2520    1.1270 C   0  0  0  0  0  0  0  0  0  0  0  0
   44.4670  172.5720    1.1630 C   0  0  0  0  0  0  0  0  0  0  0  0
   42.2430  172.4410    0.9090 N   0  0  0  0  0  0  0  0  0  0  0  0
   42.8960  171.2220    0.8410 N   0  0  0  0  0  0  0  0  0  0  0  0
   42.0850  170.0280    0.5950 C   0  0  0  0  0  0  0  0  0  0  0  0
   41.6390  170.2380   -0.7620 C   0  0  0  0  0  0  0  0  0  0  0  0
   40.8630  170.0450    1.5410 C   0  0  0  0  0  0  0  0  0  0  0  0
   45.0980  170.0870    1.0860 C   0  0  0  0  0  0  0  0  0  0  0  0
   46.6190  168.6390   -0.0900 C   0  0  0  0  0  0  0  0  0  0  0  0
   47.1440  168.3170   -1.3010 N   0  0  0  0  0  0  0  0  0  0  0  0
   47.3720  166.9080   -1.7410 C   0  0  0  0  0  0  0  0  0  0  0  0
   48.0670  167.1650   -3.1370 C   0  0  0  0  0  0  0  0  0  0  0  0
   49.3610  167.9930   -2.9640 C   0  0  0  0  0  0  0  0  0  0  0  0
   48.0660  168.6340   -3.4630 C   0  0  0  0  0  0  0  0  0  0  0  0
   47.2250  169.3310   -2.4010 C   0  0  0  0  0  0  0  0  0  0  0  0
   45.2280  169.4000    2.2600 C   0  0  0  0  0  0  0  0  0  0  0  0
   46.0360  168.2430    2.2610 C   0  0  0  0  0  0  0  0  0  0  0  0
   46.7540  167.8320    1.1040 C   0  0  0  0  0  0  0  0  0  0  0  0
   47.6460  166.8320    1.2360 N   0  0  0  0  0  0  0  0  0  0  0  0
   49.0340  167.1640    1.0260 C   0  0  0  0  0  0  0  0  0  0  0  0
   47.1840  165.6640    1.5740 C   0  0  0  0  0  0  0  0  0  0  0  0
   45.9640  165.3900    1.4460 O   0  0  0  0  0  0  0  0  0  0  0  0
   48.1790  164.6800    2.1380 C   0  0  0  0  0  0  0  0  0  0  0  0
   48.6030  164.6310    3.5550 C   0  0  0  0  0  0  0  0  0  0  0  0
   48.0040  165.4570    4.4060 F   0  0  0  0  0  0  0  0  0  0  0  0
   49.5260  163.7000    3.9790 C   0  0  0  0  0  0  0  0  0  0  0  0
   50.1440  162.8440    3.0520 C   0  0  0  0  0  0  0  0  0  0  0  0
   49.7940  162.8460    1.7310 C   0  0  0  0  0  0  0  0  0  0  0  0
   48.8230  163.7360    1.2950 C   0  0  0  0  0  0  0  0  0  0  0  0
   48.3350  163.9100   -0.3760 Cl  0  0  0  0  0  0  0  0  0  0  0  0
   45.6003  170.3368   -0.9210 H   0  0  0  0  0  0  0  0  0  0  0  0
   43.1770  177.3952    2.3966 H   0  0  0  0  0  0  0  0  0  0  0  0
   44.0022  177.7515    0.8413 H   0  0  0  0  0  0  0  0  0  0  0  0
   42.3281  177.1002    0.8413 H   0  0  0  0  0  0  0  0  0  0  0  0
   41.9861  174.8345    1.2938 H   0  0  0  0  0  0  0  0  0  0  0  0
   45.4737  173.0047    1.2598 H   0  0  0  0  0  0  0  0  0  0  0  0
   42.6181  169.0786    0.7511 H   0  0  0  0  0  0  0  0  0  0  0  0
   40.6438  170.7066   -0.7525 H   0  0  0  0  0  0  0  0  0  0  0  0
   42.3493  170.8963   -1.2837 H   0  0  0  0  0  0  0  0  0  0  0  0
   41.5841  169.2711   -1.2837 H   0  0  0  0  0  0  0  0  0  0  0  0
   41.2078  170.0402    2.5855 H   0  0  0  0  0  0  0  0  0  0  0  0
   40.2682  170.9515    1.3554 H   0  0  0  0  0  0  0  0  0  0  0  0
   40.2432  169.1554    1.3554 H   0  0  0  0  0  0  0  0  0  0  0  0
   46.4265  166.3567   -1.8511 H   0  0  0  0  0  0  0  0  0  0  0  0
   47.9547  166.2924   -1.0399 H   0  0  0  0  0  0  0  0  0  0  0  0
   47.7956  166.2417   -3.6698 H   0  0  0  0  0  0  0  0  0  0  0  0
   50.2076  167.8476   -3.6511 H   0  0  0  0  0  0  0  0  0  0  0  0
   50.0674  168.1849   -2.1429 H   0  0  0  0  0  0  0  0  0  0  0  0
   47.8605  169.2859   -4.3249 H   0  0  0  0  0  0  0  0  0  0  0  0
   47.7156  170.2517   -2.0522 H   0  0  0  0  0  0  0  0  0  0  0  0
   46.2372  169.6421   -2.7716 H   0  0  0  0  0  0  0  0  0  0  0  0
   44.7192  169.7379    3.1748 H   0  0  0  0  0  0  0  0  0  0  0  0
   46.1125  167.6436    3.1802 H   0  0  0  0  0  0  0  0  0  0  0  0
   49.5336  167.2835    1.9987 H   0  0  0  0  0  0  0  0  0  0  0  0
   49.5223  166.3573    0.4596 H   0  0  0  0  0  0  0  0  0  0  0  0
   49.1045  168.1043    0.4596 H   0  0  0  0  0  0  0  0  0  0  0  0
   49.7799  163.6267    5.0468 H   0  0  0  0  0  0  0  0  0  0  0  0
   50.9288  162.1553    3.3980 H   0  0  0  0  0  0  0  0  0  0  0  0
   50.2744  162.1530    1.0246 H   0  0  0  0  0  0  0  0  0  0  0  0
 20 18  1  0
 20 19  1  0
 20 21  1  0
 18 19  1  0
 18 17  1  0
 21 16  1  0
 17 16  1  0
 16 15  1  0
 12 11  1  0
 36 35  1  0
 15  1  2  0
 15 24  1  0
  1 14  1  0
 11 10  1  0
 11 13  1  0
 10  9  1  0
 10  2  1  0
  9  7  2  0
 26 25  1  0
  2 14  1  0
  2  8  2  0
 14 22  2  0
 24 25  1  0
 24 23  2  0
  7  8  1  0
  7  6  1  0
 25 27  1  0
  6  4  1  0
 35 34  2  0
 35 29  1  0
  4  3  2  0
  4  5  1  0
 28 27  2  0
 27 29  1  0
 34 33  1  0
 29 30  2  0
 22 23  1  0
 33 32  2  0
 30 32  1  0
 30 31  1  0
  1 37  1  0
  5 38  1  0
  5 39  1  0
  5 40  1  0
  6 41  1  0
  8 42  1  0
 11 43  1  0
 12 44  1  0
 12 45  1  0
 12 46  1  0
 13 47  1  0
 13 48  1  0
 13 49  1  0
 17 50  1  0
 17 51  1  0
 18 52  1  0
 19 53  1  0
 19 54  1  0
 20 55  1  0
 21 56  1  0
 21 57  1  0
 22 58  1  0
 23 59  1  0
 26 60  1  0
 26 61  1  0
 26 62  1  0
 32 63  1  0
 33 64  1  0
 34 65  1  0
A    1
C15
A    2
C17
A    3
O1
A    4
C20
A    5
C21
A    6
N2
A    7
C19
A    8
C18
A    9
N3
A   10
N4
A   11
C22
A   12
C24
A   13
C23
A   14
C16
A   15
C9
A   16
N1
A   17
C14
A   18
C13
A   19
C12
A   20
C11
A   21
C10
A   22
C25
A   23
C26
A   24
C8
A   25
N
A   26
C7
A   27
C
A   28
O
A   29
C1
A   30
C6
A   31
F
A   32
C5
A   33
C4
A   34
C3
A   35
C2
A   36
CL
M  END
