4ZPG_4QF_A_501
     RDKit          3D

 66 70  0  0  0  0  0  0  0  0999 V2000
   29.2290   39.6190    1.5660 C   0  0  0  0  0  0  0  0  0  0  0  0
   30.5060   40.2140    2.1450 C   0  0  0  0  0  0  0  0  0  0  0  0
   31.8630   38.2230    1.3030 C   0  0  0  0  0  0  0  0  0  0  0  0
   30.5700   37.5900    0.8120 C   0  0  0  0  0  0  0  0  0  0  0  0
   29.4990   38.6220    0.4450 C   0  0  0  0  0  0  0  0  0  0  0  0
   28.2100   37.8830    0.1150 C   0  0  0  0  0  0  0  0  0  0  0  0
   28.6520   38.8630   -1.7530 C   0  0  0  0  0  0  0  0  0  0  0  0
   30.6880   40.1050   -1.3000 C   0  0  0  0  0  0  0  0  0  0  0  0
   30.6030   41.4730   -1.1000 C   0  0  0  0  0  0  0  0  0  0  0  0
   31.6100   42.3040   -1.5480 C   0  0  0  0  0  0  0  0  0  0  0  0
   32.6970   41.7880   -2.2360 C   0  0  0  0  0  0  0  0  0  0  0  0
   32.7630   40.4290   -2.4520 C   0  0  0  0  0  0  0  0  0  0  0  0
   31.7650   39.5910   -1.9990 C   0  0  0  0  0  0  0  0  0  0  0  0
   26.3330   36.4040    0.8130 C   0  0  0  0  0  0  0  0  0  0  0  0
   25.4020   36.4510    2.0200 C   0  0  0  0  0  0  0  0  0  0  0  0
   24.1000   35.6870    1.7430 C   0  0  0  0  0  0  0  0  0  0  0  0
   31.5970   39.2010    2.4100 N   0  0  0  0  0  0  0  0  0  0  0  0
   27.7800   38.0510   -1.1010 N   0  0  0  0  0  0  0  0  0  0  0  0
   29.6520   39.2390   -0.8700 N   0  0  0  0  0  0  0  0  0  0  0  0
   28.5370   39.1760   -2.9320 O   0  0  0  0  0  0  0  0  0  0  0  0
   33.7960   39.9040   -3.1380 F   0  0  0  0  0  0  0  0  0  0  0  0
   27.5740   37.1230    1.0860 N   0  0  0  0  0  0  0  0  0  0  0  0
   24.3810   34.2480    1.3240 C   0  0  0  0  0  0  0  0  0  0  0  0
   25.3280   34.2070    0.1310 C   0  0  0  0  0  0  0  0  0  0  0  0
   26.6310   34.9630    0.4220 C   0  0  0  0  0  0  0  0  0  0  0  0
   32.8280   39.8400    3.0120 C   0  0  0  0  0  0  0  0  0  0  0  0
   33.5130   40.8770    2.1580 C   0  0  0  0  0  0  0  0  0  0  0  0
   34.4640   40.5010    1.2250 C   0  0  0  0  0  0  0  0  0  0  0  0
   35.0920   41.4450    0.4280 C   0  0  0  0  0  0  0  0  0  0  0  0
   34.7430   42.7750    0.5560 C   0  0  0  0  0  0  0  0  0  0  0  0
   33.7980   43.1710    1.4910 C   0  0  0  0  0  0  0  0  0  0  0  0
   33.1950   42.2210    2.2960 C   0  0  0  0  0  0  0  0  0  0  0  0
   32.8450   37.1520    1.7360 C   0  0  0  0  0  0  0  0  0  0  0  0
   28.6091   40.4360    1.1683 H   0  0  0  0  0  0  0  0  0  0  0  0
   28.7183   39.0774    2.3759 H   0  0  0  0  0  0  0  0  0  0  0  0
   30.8925   40.9593    1.4343 H   0  0  0  0  0  0  0  0  0  0  0  0
   30.2380   40.6518    3.1179 H   0  0  0  0  0  0  0  0  0  0  0  0
   32.3142   38.7828    0.4705 H   0  0  0  0  0  0  0  0  0  0  0  0
   30.1736   36.9412    1.6069 H   0  0  0  0  0  0  0  0  0  0  0  0
   30.8072   37.0237   -0.1007 H   0  0  0  0  0  0  0  0  0  0  0  0
   29.7304   41.8984   -0.5826 H   0  0  0  0  0  0  0  0  0  0  0  0
   31.5493   43.3856   -1.3573 H   0  0  0  0  0  0  0  0  0  0  0  0
   33.4933   42.4522   -2.6032 H   0  0  0  0  0  0  0  0  0  0  0  0
   31.8261   38.5102   -2.1945 H   0  0  0  0  0  0  0  0  0  0  0  0
   25.8253   36.8976   -0.0288 H   0  0  0  0  0  0  0  0  0  0  0  0
   25.9093   35.9953    2.8831 H   0  0  0  0  0  0  0  0  0  0  0  0
   25.1530   37.5019    2.2287 H   0  0  0  0  0  0  0  0  0  0  0  0
   23.5513   36.1946    0.9360 H   0  0  0  0  0  0  0  0  0  0  0  0
   23.5040   35.6696    2.6674 H   0  0  0  0  0  0  0  0  0  0  0  0
   27.9894   37.0643    2.0267 H   0  0  0  0  0  0  0  0  0  0  0  0
   23.4338   33.7608    1.0494 H   0  0  0  0  0  0  0  0  0  0  0  0
   24.8524   33.7210    2.1667 H   0  0  0  0  0  0  0  0  0  0  0  0
   24.8321   34.6694   -0.7352 H   0  0  0  0  0  0  0  0  0  0  0  0
   25.5774   33.1558   -0.0761 H   0  0  0  0  0  0  0  0  0  0  0  0
   27.1618   34.4659    1.2473 H   0  0  0  0  0  0  0  0  0  0  0  0
   27.2545   34.9610   -0.4842 H   0  0  0  0  0  0  0  0  0  0  0  0
   33.5549   39.0413    3.2212 H   0  0  0  0  0  0  0  0  0  0  0  0
   32.4796   40.3738    3.9085 H   0  0  0  0  0  0  0  0  0  0  0  0
   34.7249   39.4381    1.1147 H   0  0  0  0  0  0  0  0  0  0  0  0
   35.8594   41.1385   -0.2980 H   0  0  0  0  0  0  0  0  0  0  0  0
   35.2190   43.5276   -0.0897 H   0  0  0  0  0  0  0  0  0  0  0  0
   33.5299   44.2331    1.5917 H   0  0  0  0  0  0  0  0  0  0  0  0
   32.4582   42.5331    3.0508 H   0  0  0  0  0  0  0  0  0  0  0  0
   32.8823   37.1113    2.8346 H   0  0  0  0  0  0  0  0  0  0  0  0
   32.5206   36.1769    1.3438 H   0  0  0  0  0  0  0  0  0  0  0  0
   33.8446   37.3908    1.3438 H   0  0  0  0  0  0  0  0  0  0  0  0
 21 12  1  0
 20  7  2  0
 12 11  2  0
 12 13  1  0
 11 10  1  0
 13  8  2  0
  7 18  1  0
  7 19  1  0
 10  9  2  0
  8  9  1  0
  8 19  1  0
 18  6  2  0
 19  5  1  0
  6  5  1  0
  6 22  1  0
 24 25  1  0
 24 23  1  0
 25 14  1  0
 29 30  1  0
 29 28  2  0
  5  4  1  0
  5  1  1  0
 30 31  2  0
  4  3  1  0
 14 22  1  0
 14 15  1  0
 28 27  1  0
  3 33  1  0
  3 17  1  0
 23 16  1  0
 31 32  1  0
  1  2  1  0
 16 15  1  0
  2 17  1  0
 27 32  2  0
 27 26  1  0
 17 26  1  0
  1 34  1  0
  1 35  1  0
  2 36  1  0
  2 37  1  0
  3 38  1  0
  4 39  1  0
  4 40  1  0
  9 41  1  0
 10 42  1  0
 11 43  1  0
 13 44  1  0
 14 45  1  0
 15 46  1  0
 15 47  1  0
 16 48  1  0
 16 49  1  0
 22 50  1  0
 23 51  1  0
 23 52  1  0
 24 53  1  0
 24 54  1  0
 25 55  1  0
 25 56  1  0
 26 57  1  0
 26 58  1  0
 28 59  1  0
 29 60  1  0
 30 61  1  0
 31 62  1  0
 32 63  1  0
 33 64  1  0
 33 65  1  0
 33 66  1  0
A    1
C1
A    2
C2
A    3
C4
A    4
C5
A    5
C6
A    6
C7
A    7
C9
A    8
C12
A    9
C13
A   10
C14
A   11
C15
A   12
C16
A   13
C17
A   14
C20
A   15
C21
A   16
C22
A   17
N3
A   18
N8
A   19
N10
A   20
O11
A   21
F18
A   22
N19
A   23
C23
A   24
C24
A   25
C25
A   26
C26
A   27
C27
A   28
C28
A   29
C29
A   30
C30
A   31
C31
A   32
C32
A   33
C33
M  END
