4ZRU_TI9_A_303
     RDKit          3D

 25 26  0  0  0  0  0  0  0  0999 V2000
   43.7590   -4.0630   59.5950 C   0  0  0  0  0  0  0  0  0  0  0  0
   42.5100   -3.9460   58.7690 C   0  0  0  0  0  0  0  0  0  0  0  0
   41.6780   -5.0940   59.1990 C   0  0  0  0  0  0  0  0  0  0  0  0
   42.2250   -5.5830   60.4480 N   0  0  0  0  0  0  0  0  0  0  0  0
   43.1930   -4.6080   60.8370 C   0  0  0  0  0  0  0  0  0  0  0  0
   42.4580   -3.5780   61.6270 C   0  0  0  0  0  0  0  0  0  0  0  0
   41.7440   -2.8540   62.2530 C   0  0  0  0  0  0  0  0  0  0  0  0
   40.7510   -2.0510   63.0300 C   0  0  0  0  0  0  0  0  0  0  0  0
   41.1210   -0.9490   63.7840 C   0  0  0  0  0  0  0  0  0  0  0  0
   40.1080   -0.2760   64.4690 C   0  0  0  0  0  0  0  0  0  0  0  0
   39.4540   -2.4500   62.9560 C   0  0  0  0  0  0  0  0  0  0  0  0
   38.5260   -1.7910   63.6140 N   0  0  0  0  0  0  0  0  0  0  0  0
   38.8290   -0.7230   64.3580 C   0  0  0  0  0  0  0  0  0  0  0  0
   44.4859   -4.7523   59.1406 H   0  0  0  0  0  0  0  0  0  0  0  0
   44.3246   -3.1272   59.7150 H   0  0  0  0  0  0  0  0  0  0  0  0
   41.9963   -2.9947   58.9720 H   0  0  0  0  0  0  0  0  0  0  0  0
   42.7177   -3.9587   57.6889 H   0  0  0  0  0  0  0  0  0  0  0  0
   40.6372   -4.7696   59.3460 H   0  0  0  0  0  0  0  0  0  0  0  0
   41.6855   -5.8860   58.4357 H   0  0  0  0  0  0  0  0  0  0  0  0
   42.6711   -6.5014   60.3125 H   0  0  0  0  0  0  0  0  0  0  0  0
   44.0146   -5.0039   61.4520 H   0  0  0  0  0  0  0  0  0  0  0  0
   42.1687   -0.6185   63.8404 H   0  0  0  0  0  0  0  0  0  0  0  0
   40.3410    0.6023   65.0889 H   0  0  0  0  0  0  0  0  0  0  0  0
   39.1808   -3.3237   62.3460 H   0  0  0  0  0  0  0  0  0  0  0  0
   38.0260   -0.1941   64.8922 H   0  0  0  0  0  0  0  0  0  0  0  0
  1  2  1  0
  1  5  1  0
  2  3  1  0
  5  4  1  0
  5  6  1  0
  3  4  1  0
  6  7  3  0
  7  8  1  0
  8 11  1  0
  8  9  2  0
 11 12  2  0
  9 10  1  0
 12 13  1  0
 10 13  2  0
  1 14  1  0
  1 15  1  0
  2 16  1  0
  2 17  1  0
  3 18  1  0
  3 19  1  0
  4 20  1  0
  5 21  1  0
  9 22  1  0
 10 23  1  0
 11 24  1  0
 13 25  1  0
A    1
C13
A    2
C12
A    3
C11
A    4
N10
A    5
C9
A    6
C8
A    7
C7
A    8
C5
A    9
C6
A   10
C1
A   11
C4
A   12
N3
A   13
C2
M  END
