4ZSH_4XW_A_501
     RDKit          3D

 58 58  0  0  0  0  0  0  0  0999 V2000
   64.2490   44.9910   32.6880 C   0  0  0  0  0  0  0  0  0  0  0  0
   64.7830   44.9230   34.0990 C   0  0  0  0  0  0  0  0  0  0  0  0
   63.7600   45.1190   35.2020 C   0  0  0  0  0  0  0  0  0  0  0  0
   62.4110   45.6630   34.8030 C   0  0  0  0  0  0  0  0  0  0  0  0
   62.5870   46.6940   33.7310 C   0  0  0  0  0  0  0  0  0  0  0  0
   63.2530   46.1430   32.4600 C   0  0  0  0  0  0  0  0  0  0  0  0
   62.6080   46.1280   31.0180 C   0  0  0  0  0  0  0  0  0  0  0  0
   61.2850   46.3370   30.6910 C   0  0  0  0  0  0  0  0  0  0  0  0
   61.0870   46.3710   29.1740 C   0  0  0  0  0  0  0  0  0  0  0  0
   59.6490   46.6060   28.7260 C   0  0  0  0  0  0  0  0  0  0  0  0
   58.5910   46.0890   29.7190 C   0  0  0  0  0  0  0  0  0  0  0  0
   57.2780   46.0360   29.3070 C   0  0  0  0  0  0  0  0  0  0  0  0
   56.3220   45.0500   29.9840 C   0  0  0  0  0  0  0  0  0  0  0  0
   55.0510   44.8740   29.1650 C   0  0  0  0  0  0  0  0  0  0  0  0
   53.7000   44.9150   29.8820 C   0  0  0  0  0  0  0  0  0  0  0  0
   63.7270   43.6280   32.2760 C   0  0  0  0  0  0  0  0  0  0  0  0
   65.4060   45.4020   31.8250 C   0  0  0  0  0  0  0  0  0  0  0  0
   61.3840   47.6010   33.5140 C   0  0  0  0  0  0  0  0  0  0  0  0
   62.0300   47.2930   28.4300 C   0  0  0  0  0  0  0  0  0  0  0  0
   56.1360   45.3760   31.4360 C   0  0  0  0  0  0  0  0  0  0  0  0
   53.3710   43.8120   30.6500 O   0  0  0  0  0  0  0  0  0  0  0  0
   53.0650   46.1350   30.0340 O   0  0  0  0  0  0  0  0  0  0  0  0
   65.8467   44.7427   34.3135 H   0  0  0  0  0  0  0  0  0  0  0  0
   63.9924   44.8746   36.2490 H   0  0  0  0  0  0  0  0  0  0  0  0
   61.9272   46.1221   35.6777 H   0  0  0  0  0  0  0  0  0  0  0  0
   61.7819   44.8437   34.4248 H   0  0  0  0  0  0  0  0  0  0  0  0
   63.3305   47.4006   34.1285 H   0  0  0  0  0  0  0  0  0  0  0  0
   63.7307   47.1221   32.3075 H   0  0  0  0  0  0  0  0  0  0  0  0
   62.8439   45.1323   30.6143 H   0  0  0  0  0  0  0  0  0  0  0  0
   63.0323   47.0654   30.6291 H   0  0  0  0  0  0  0  0  0  0  0  0
   60.9578   47.2970   31.1169 H   0  0  0  0  0  0  0  0  0  0  0  0
   60.6904   45.5072   31.1007 H   0  0  0  0  0  0  0  0  0  0  0  0
   61.3524   45.3426   28.8879 H   0  0  0  0  0  0  0  0  0  0  0  0
   59.5002   47.6879   28.5942 H   0  0  0  0  0  0  0  0  0  0  0  0
   59.5107   46.0424   27.7915 H   0  0  0  0  0  0  0  0  0  0  0  0
   58.8840   45.0678   30.0043 H   0  0  0  0  0  0  0  0  0  0  0  0
   58.5912   46.8347   30.5277 H   0  0  0  0  0  0  0  0  0  0  0  0
   56.8558   47.0418   29.4488 H   0  0  0  0  0  0  0  0  0  0  0  0
   57.3431   45.6687   28.2722 H   0  0  0  0  0  0  0  0  0  0  0  0
   56.7723   44.0465   30.0001 H   0  0  0  0  0  0  0  0  0  0  0  0
   55.1217   43.8970   28.6645 H   0  0  0  0  0  0  0  0  0  0  0  0
   55.0317   45.7582   28.5109 H   0  0  0  0  0  0  0  0  0  0  0  0
   63.5000   43.0354   33.1745 H   0  0  0  0  0  0  0  0  0  0  0  0
   62.8124   43.7512   31.6773 H   0  0  0  0  0  0  0  0  0  0  0  0
   64.4899   43.1088   31.6773 H   0  0  0  0  0  0  0  0  0  0  0  0
   66.2506   45.7020   32.4626 H   0  0  0  0  0  0  0  0  0  0  0  0
   65.7083   44.5563   31.1899 H   0  0  0  0  0  0  0  0  0  0  0  0
   65.1071   46.2489   31.1899 H   0  0  0  0  0  0  0  0  0  0  0  0
   60.9762   47.9085   34.4882 H   0  0  0  0  0  0  0  0  0  0  0  0
   61.6939   48.4921   32.9485 H   0  0  0  0  0  0  0  0  0  0  0  0
   60.6125   47.0578   32.9485 H   0  0  0  0  0  0  0  0  0  0  0  0
   62.6227   47.8725   29.1531 H   0  0  0  0  0  0  0  0  0  0  0  0
   62.7041   46.6959   27.7982 H   0  0  0  0  0  0  0  0  0  0  0  0
   61.4483   47.9803   27.7982 H   0  0  0  0  0  0  0  0  0  0  0  0
   56.5881   44.5836   32.0505 H   0  0  0  0  0  0  0  0  0  0  0  0
   56.6218   46.3369   31.6612 H   0  0  0  0  0  0  0  0  0  0  0  0
   55.0616   45.4467   31.6612 H   0  0  0  0  0  0  0  0  0  0  0  0
   53.3893   43.8734   31.6379 H   0  0  0  0  0  0  0  0  0  0  0  0
 19  9  1  0
 10  9  1  0
 10 11  1  0
 14 15  1  0
 14 13  1  0
  9  8  1  0
 12 11  1  0
 12 13  1  0
 15 22  2  0
 15 21  1  0
 13 20  1  0
  8  7  1  0
  7  6  1  0
 17  1  1  0
 16  1  1  0
  6  1  1  0
  6  5  1  0
  1  2  1  0
 18  5  1  0
  5  4  1  0
  2  3  2  0
  4  3  1  0
  2 23  1  0
  3 24  1  0
  4 25  1  0
  4 26  1  0
  5 27  1  0
  6 28  1  0
  7 29  1  0
  7 30  1  0
  8 31  1  0
  8 32  1  0
  9 33  1  0
 10 34  1  0
 10 35  1  0
 11 36  1  0
 11 37  1  0
 12 38  1  0
 12 39  1  0
 13 40  1  0
 14 41  1  0
 14 42  1  0
 16 43  1  0
 16 44  1  0
 16 45  1  0
 17 46  1  0
 17 47  1  0
 17 48  1  0
 18 49  1  0
 18 50  1  0
 18 51  1  0
 19 52  1  0
 19 53  1  0
 19 54  1  0
 20 55  1  0
 20 56  1  0
 20 57  1  0
 21 58  1  0
A    1
C1
A    2
C2
A    3
C3
A    4
C4
A    5
C5
A    6
C6
A    7
C7
A    8
C8
A    9
C9
A   10
C10
A   11
C11
A   12
C12
A   13
C13
A   14
C14
A   15
C15
A   16
C16
A   17
C17
A   18
C18
A   19
C19
A   20
C20
A   21
O21
A   22
O22
M  END
