2P2R_CYT_A_501
     RDKit          3D

 13 13  0  0  0  0  0  0  0  0999 V2000
   26.6110   29.5920   43.2500 N   0  0  0  0  0  0  0  0  0  0  0  0
   26.5680   29.9830   41.9740 C   0  0  0  0  0  0  0  0  0  0  0  0
   27.6420   27.5490   42.5370 N   0  0  0  0  0  0  0  0  0  0  0  0
   27.1410   28.3740   43.5610 C   0  0  0  0  0  0  0  0  0  0  0  0
   27.1970   27.9750   44.7250 O   0  0  0  0  0  0  0  0  0  0  0  0
   26.0320   31.1790   41.7070 N   0  0  0  0  0  0  0  0  0  0  0  0
   27.0630   29.1580   40.9120 C   0  0  0  0  0  0  0  0  0  0  0  0
   27.5920   27.9690   41.2370 C   0  0  0  0  0  0  0  0  0  0  0  0
   26.2470   30.2050   43.9934 H   0  0  0  0  0  0  0  0  0  0  0  0
   25.7528   31.8020   42.4782 H   0  0  0  0  0  0  0  0  0  0  0  0
   25.8984   31.4770   40.7301 H   0  0  0  0  0  0  0  0  0  0  0  0
   27.0108   29.4890   39.8643 H   0  0  0  0  0  0  0  0  0  0  0  0
   27.9925   27.3207   40.4438 H   0  0  0  0  0  0  0  0  0  0  0  0
  1  2  1  0
  1  4  1  0
  2  6  1  0
  2  7  2  0
  3  4  1  0
  3  8  2  0
  4  5  2  0
  7  8  1  0
  1  9  1  0
  6 10  1  0
  6 11  1  0
  7 12  1  0
  8 13  1  0
A    1
N3
A    2
C4
A    3
N1
A    4
C2
A    5
O2
A    6
N4
A    7
C5
A    8
C6
M  END
