4ZTJ_4RT_A_408
     RDKit          3D

 57 62  0  0  0  0  0  0  0  0999 V2000
   28.7640  -36.5620   19.8500 N   0  0  0  0  0  0  0  0  0  0  0  0
   31.5640  -36.6600   22.4870 C   0  0  0  0  0  0  0  0  0  0  0  0
   29.4860  -36.6870   21.0370 C   0  0  0  0  0  0  0  0  0  0  0  0
   29.4430  -36.3530   18.6520 C   0  0  0  0  0  0  0  0  0  0  0  0
   30.8900  -36.2790   18.7540 C   0  0  0  0  0  0  0  0  0  0  0  0
   27.2890  -36.6210   20.0640 C   0  0  0  0  0  0  0  0  0  0  0  0
   26.1670  -37.6580   22.1830 C   0  0  0  0  0  0  0  0  0  0  0  0
   25.7740  -36.7020   18.1320 C   0  0  0  0  0  0  0  0  0  0  0  0
   27.0230  -38.8460   18.5990 C   0  0  0  0  0  0  0  0  0  0  0  0
   35.1120  -36.1740   21.3720 C   0  0  0  0  0  0  0  0  0  0  0  0
   36.8150  -39.1840   22.9640 C   0  0  0  0  0  0  0  0  0  0  0  0
   37.3020  -39.8230   21.8460 C   0  0  0  0  0  0  0  0  0  0  0  0
   37.1150  -39.3010   20.5870 C   0  0  0  0  0  0  0  0  0  0  0  0
   37.9640  -41.0000   21.9830 F   0  0  0  0  0  0  0  0  0  0  0  0
   36.1100  -38.0000   22.8050 C   0  0  0  0  0  0  0  0  0  0  0  0
   37.6940  -40.1590   19.2020 Cl  0  0  0  0  0  0  0  0  0  0  0  0
   36.4280  -38.1100   20.4300 C   0  0  0  0  0  0  0  0  0  0  0  0
   35.9030  -37.4490   21.5410 C   0  0  0  0  0  0  0  0  0  0  0  0
   33.6720  -36.4030   21.2100 N   0  0  0  0  0  0  0  0  0  0  0  0
   33.1090  -36.2800   19.9830 C   0  0  0  0  0  0  0  0  0  0  0  0
   33.7710  -36.0810   18.9680 O   0  0  0  0  0  0  0  0  0  0  0  0
   31.6510  -36.3940   19.9580 C   0  0  0  0  0  0  0  0  0  0  0  0
   31.4960  -36.0800   17.5650 O   0  0  0  0  0  0  0  0  0  0  0  0
   28.8640  -36.2270   17.5750 O   0  0  0  0  0  0  0  0  0  0  0  0
   26.4270  -37.5640   19.1470 C   0  0  0  0  0  0  0  0  0  0  0  0
   27.6460  -39.5010   19.6950 O   0  0  0  0  0  0  0  0  0  0  0  0
   24.9480  -37.4820   19.1520 C   0  0  0  0  0  0  0  0  0  0  0  0
   26.0900  -35.2280   18.4390 C   0  0  0  0  0  0  0  0  0  0  0  0
   26.6150  -35.2460   19.8860 C   0  0  0  0  0  0  0  0  0  0  0  0
   27.3140  -37.0660   21.4900 N   0  0  0  0  0  0  0  0  0  0  0  0
   28.5000  -36.8400   22.0940 C   0  0  0  0  0  0  0  0  0  0  0  0
   28.6310  -36.7800   23.3150 O   0  0  0  0  0  0  0  0  0  0  0  0
   30.8710  -36.6120   21.1490 C   0  0  0  0  0  0  0  0  0  0  0  0
   33.0020  -37.1040   22.3140 C   0  0  0  0  0  0  0  0  0  0  0  0
   31.5448  -35.6590   22.9426 H   0  0  0  0  0  0  0  0  0  0  0  0
   31.0418  -37.3776   23.1369 H   0  0  0  0  0  0  0  0  0  0  0  0
   26.3159  -37.5812   23.2702 H   0  0  0  0  0  0  0  0  0  0  0  0
   25.2500  -37.1206   21.8996 H   0  0  0  0  0  0  0  0  0  0  0  0
   26.0739  -38.7168   21.8996 H   0  0  0  0  0  0  0  0  0  0  0  0
   25.7002  -36.6076   17.0385 H   0  0  0  0  0  0  0  0  0  0  0  0
   26.2320  -39.4824   18.1755 H   0  0  0  0  0  0  0  0  0  0  0  0
   27.7459  -38.6378   17.7965 H   0  0  0  0  0  0  0  0  0  0  0  0
   35.4844  -35.6473   20.4810 H   0  0  0  0  0  0  0  0  0  0  0  0
   35.2471  -35.5821   22.2893 H   0  0  0  0  0  0  0  0  0  0  0  0
   36.9821  -39.6052   23.9663 H   0  0  0  0  0  0  0  0  0  0  0  0
   35.7075  -37.4872   23.6910 H   0  0  0  0  0  0  0  0  0  0  0  0
   36.2953  -37.6826   19.4251 H   0  0  0  0  0  0  0  0  0  0  0  0
   32.4361  -35.7713   17.5341 H   0  0  0  0  0  0  0  0  0  0  0  0
   27.2945  -39.1314   20.5435 H   0  0  0  0  0  0  0  0  0  0  0  0
   24.4267  -36.9517   19.9625 H   0  0  0  0  0  0  0  0  0  0  0  0
   24.1231  -38.2079   19.1014 H   0  0  0  0  0  0  0  0  0  0  0  0
   26.8566  -34.8422   17.7509 H   0  0  0  0  0  0  0  0  0  0  0  0
   25.2126  -34.5756   18.3179 H   0  0  0  0  0  0  0  0  0  0  0  0
   27.3449  -34.4375   20.0400 H   0  0  0  0  0  0  0  0  0  0  0  0
   25.8059  -35.0913   20.6150 H   0  0  0  0  0  0  0  0  0  0  0  0
   33.0165  -38.1844   22.1079 H   0  0  0  0  0  0  0  0  0  0  0  0
   33.5423  -36.8654   23.2420 H   0  0  0  0  0  0  0  0  0  0  0  0
 23  5  1  0
 24  4  2  0
  8 28  1  0
  8 25  1  0
  8 27  1  0
 28 29  1  0
  9 25  1  0
  9 26  1  0
  4  5  1  0
  4  1  1  0
  5 22  2  0
 21 20  2  0
 25 27  1  0
 25  6  1  0
 16 13  1  0
  1  6  1  0
  1  3  1  0
 29  6  1  0
 22 20  1  0
 22 33  1  0
 20 19  1  0
  6 30  1  0
 17 13  2  0
 17 18  1  0
 13 12  1  0
  3 33  2  0
  3 31  1  0
 33  2  1  0
 19 10  1  0
 19 34  1  0
 10 18  1  0
 30 31  1  0
 30  7  1  0
 18 15  2  0
 12 14  1  0
 12 11  2  0
 31 32  2  0
 34  2  1  0
 15 11  1  0
  2 35  1  0
  2 36  1  0
  7 37  1  0
  7 38  1  0
  7 39  1  0
  8 40  1  0
  9 41  1  0
  9 42  1  0
 10 43  1  0
 10 44  1  0
 11 45  1  0
 15 46  1  0
 17 47  1  0
 23 48  1  0
 26 49  1  0
 27 50  1  0
 27 51  1  0
 28 52  1  0
 28 53  1  0
 29 54  1  0
 29 55  1  0
 34 56  1  0
 34 57  1  0
A    1
N1
A    2
C4
A    3
C5
A    4
C6
A    5
C7
A    6
C8
A    7
C10
A    8
C13
A    9
C15
A   10
C17
A   11
C20
A   12
C21
A   13
C22
A   14
F
A   15
C19
A   16
CL
A   17
C23
A   18
C18
A   19
N
A   20
C1
A   21
O4
A   22
C2
A   23
O
A   24
O1
A   25
C14
A   26
O3
A   27
C16
A   28
C12
A   29
C11
A   30
N2
A   31
C9
A   32
O2
A   33
C3
A   34
C
M  END
