4ZTR_4RJ_A_501
     RDKit          3D

 54 57  0  0  0  0  0  0  0  0999 V2000
   -8.7790   27.4840  -13.9090 C   0  0  0  0  0  0  0  0  0  0  0  0
   -9.6250   26.3630  -13.2580 C   0  0  0  0  0  0  0  0  0  0  0  0
   -9.2860   26.1900  -11.7910 C   0  0  0  0  0  0  0  0  0  0  0  0
   -8.5690   25.0720  -11.3750 C   0  0  0  0  0  0  0  0  0  0  0  0
   -8.2490   24.9180  -10.0270 C   0  0  0  0  0  0  0  0  0  0  0  0
   -8.6420   25.9000   -9.1140 C   0  0  0  0  0  0  0  0  0  0  0  0
   -9.3760   27.0140   -9.5360 C   0  0  0  0  0  0  0  0  0  0  0  0
   -9.6870   27.1590  -10.8790 C   0  0  0  0  0  0  0  0  0  0  0  0
   -8.3630   25.7590   -7.7270 N   0  0  0  0  0  0  0  0  0  0  0  0
   -7.5580   26.5170   -7.0170 C   0  0  0  0  0  0  0  0  0  0  0  0
   -6.6150   27.8190   -7.5510 S   0  0  0  0  0  0  0  0  0  0  0  0
   -5.9410   28.1840   -6.1820 C   0  0  0  0  0  0  0  0  0  0  0  0
   -5.0600   29.1440   -5.9240 C   0  0  0  0  0  0  0  0  0  0  0  0
   -4.4300   30.1200   -6.9420 C   0  0  0  0  0  0  0  0  0  0  0  0
   -3.9000   31.3030   -6.4240 C   0  0  0  0  0  0  0  0  0  0  0  0
   -3.3030   32.2480   -7.2410 C   0  0  0  0  0  0  0  0  0  0  0  0
   -2.7600   33.4860   -6.7630 N   0  0  0  0  0  0  0  0  0  0  0  0
   -2.2940   33.7670   -5.3780 C   0  0  0  0  0  0  0  0  0  0  0  0
   -2.7890   33.0900   -4.2620 C   0  0  0  0  0  0  0  0  0  0  0  0
   -2.3500   33.3720   -2.9670 C   0  0  0  0  0  0  0  0  0  0  0  0
   -1.3960   34.3690   -2.8210 C   0  0  0  0  0  0  0  0  0  0  0  0
   -0.9230   35.0380   -3.9680 C   0  0  0  0  0  0  0  0  0  0  0  0
   -1.3750   34.7270   -5.1700 N   0  0  0  0  0  0  0  0  0  0  0  0
   -0.8980   34.6860   -1.4130 C   0  0  0  0  0  0  0  0  0  0  0  0
    0.2390   35.2510   -1.2520 O   0  0  0  0  0  0  0  0  0  0  0  0
   -1.6120   34.3680   -0.4010 O   0  0  0  0  0  0  0  0  0  0  0  0
   -3.2520   32.0070   -8.5600 N   0  0  0  0  0  0  0  0  0  0  0  0
   -3.7290   30.9100   -9.1130 C   0  0  0  0  0  0  0  0  0  0  0  0
   -4.3220   29.9330   -8.3460 C   0  0  0  0  0  0  0  0  0  0  0  0
   -6.3680   27.3250   -5.0490 C   0  0  0  0  0  0  0  0  0  0  0  0
   -5.9710   27.4410   -3.8910 O   0  0  0  0  0  0  0  0  0  0  0  0
   -7.4150   26.2120   -5.4960 N   0  0  0  0  0  0  0  0  0  0  0  0
   -8.0470   25.2180   -4.7250 C   0  0  0  0  0  0  0  0  0  0  0  0
   -8.3159   28.0977  -13.1223 H   0  0  0  0  0  0  0  0  0  0  0  0
   -7.9931   27.0344  -14.5337 H   0  0  0  0  0  0  0  0  0  0  0  0
   -9.4269   28.1165  -14.5337 H   0  0  0  0  0  0  0  0  0  0  0  0
  -10.6905   26.6203  -13.3504 H   0  0  0  0  0  0  0  0  0  0  0  0
   -9.4030   25.4186  -13.7765 H   0  0  0  0  0  0  0  0  0  0  0  0
   -8.2561   24.3129  -12.1070 H   0  0  0  0  0  0  0  0  0  0  0  0
   -7.6928   24.0325   -9.6856 H   0  0  0  0  0  0  0  0  0  0  0  0
   -9.7040   27.7696   -8.8069 H   0  0  0  0  0  0  0  0  0  0  0  0
  -10.2501   28.0394  -11.2223 H   0  0  0  0  0  0  0  0  0  0  0  0
   -4.7462   29.2556   -4.8756 H   0  0  0  0  0  0  0  0  0  0  0  0
   -3.9580   31.4887   -5.3414 H   0  0  0  0  0  0  0  0  0  0  0  0
   -2.6853   34.2551   -7.4441 H   0  0  0  0  0  0  0  0  0  0  0  0
   -3.5497   32.3089   -4.4077 H   0  0  0  0  0  0  0  0  0  0  0  0
   -2.7445   32.8258   -2.0975 H   0  0  0  0  0  0  0  0  0  0  0  0
   -0.1671   35.8299   -3.8609 H   0  0  0  0  0  0  0  0  0  0  0  0
   -1.2686   34.5210    0.5148 H   0  0  0  0  0  0  0  0  0  0  0  0
   -3.6522   30.7734  -10.2018 H   0  0  0  0  0  0  0  0  0  0  0  0
   -4.7085   29.0164   -8.8156 H   0  0  0  0  0  0  0  0  0  0  0  0
   -7.9069   25.4384   -3.6565 H   0  0  0  0  0  0  0  0  0  0  0  0
   -9.1219   25.2014   -4.9581 H   0  0  0  0  0  0  0  0  0  0  0  0
   -7.6061   24.2376   -4.9581 H   0  0  0  0  0  0  0  0  0  0  0  0
  1  2  1  0
  2  3  1  0
  3  4  2  0
  3  8  1  0
  4  5  1  0
  8  7  2  0
  5  6  2  0
  7  6  1  0
  6  9  1  0
 28 27  2  0
 28 29  1  0
 27 16  1  0
 29 14  2  0
  9 10  2  0
 11 10  1  0
 11 12  1  0
 16 17  1  0
 16 15  2  0
 10 32  1  0
 14 15  1  0
 14 13  1  0
 17 18  1  0
 12 13  2  0
 12 30  1  0
 32 30  1  0
 32 33  1  0
 18 23  1  0
 18 19  2  0
 23 22  2  0
 30 31  2  0
 19 20  1  0
 22 21  1  0
 20 21  2  0
 21 24  1  0
 24 25  2  0
 24 26  1  0
  1 34  1  0
  1 35  1  0
  1 36  1  0
  2 37  1  0
  2 38  1  0
  4 39  1  0
  5 40  1  0
  7 41  1  0
  8 42  1  0
 13 43  1  0
 15 44  1  0
 17 45  1  0
 19 46  1  0
 20 47  1  0
 22 48  1  0
 26 49  1  0
 28 50  1  0
 29 51  1  0
 33 52  1  0
 33 53  1  0
 33 54  1  0
A    1
C01
A    2
C02
A    3
C03
A    4
C04
A    5
C05
A    6
C06
A    7
C07
A    8
C08
A    9
N09
A   10
C10
A   11
S11
A   12
C12
A   13
C13
A   14
C14
A   15
C15
A   16
C16
A   17
N17
A   18
C18
A   19
C19
A   20
C20
A   21
C21
A   22
C22
A   23
N23
A   24
C24
A   25
O25
A   26
O26
A   27
N27
A   28
C28
A   29
C29
A   30
C30
A   31
O31
A   32
N32
A   33
C33
M  END
