4ZTS_4RK_A_501
     RDKit          3D

 57 61  0  0  0  0  0  0  0  0999 V2000
    5.9500  -24.2530  -13.0970 C   0  0  0  0  0  0  0  0  0  0  0  0
    6.8650  -24.9640  -12.0790 C   0  0  0  0  0  0  0  0  0  0  0  0
    6.4440  -24.8000  -10.6020 C   0  0  0  0  0  0  0  0  0  0  0  0
    6.7680  -25.8560   -9.7480 C   0  0  0  0  0  0  0  0  0  0  0  0
    6.4280  -25.7850   -8.4060 C   0  0  0  0  0  0  0  0  0  0  0  0
    5.7550  -24.6690   -7.9120 C   0  0  0  0  0  0  0  0  0  0  0  0
    5.4360  -23.5970   -8.7510 C   0  0  0  0  0  0  0  0  0  0  0  0
    5.7820  -23.6610  -10.0990 C   0  0  0  0  0  0  0  0  0  0  0  0
    5.4790  -24.6780   -6.5470 N   0  0  0  0  0  0  0  0  0  0  0  0
    4.5930  -25.4710   -5.9810 C   0  0  0  0  0  0  0  0  0  0  0  0
    3.5560  -26.5690   -6.6410 S   0  0  0  0  0  0  0  0  0  0  0  0
    2.7500  -27.1700   -5.4200 C   0  0  0  0  0  0  0  0  0  0  0  0
    1.7320  -28.1120   -5.3220 C   0  0  0  0  0  0  0  0  0  0  0  0
    1.2240  -29.0460   -6.3810 C   0  0  0  0  0  0  0  0  0  0  0  0
    0.5810  -30.2170   -5.9310 C   0  0  0  0  0  0  0  0  0  0  0  0
    0.0650  -31.1360   -6.8490 C   0  0  0  0  0  0  0  0  0  0  0  0
   -0.5800  -32.3530   -6.4890 N   0  0  0  0  0  0  0  0  0  0  0  0
   -0.9430  -32.7950   -5.1800 C   0  0  0  0  0  0  0  0  0  0  0  0
   -0.2180  -32.5630   -4.0370 C   0  0  0  0  0  0  0  0  0  0  0  0
   -0.6480  -33.0600   -2.8090 C   0  0  0  0  0  0  0  0  0  0  0  0
   -1.8250  -33.8100   -2.7240 C   0  0  0  0  0  0  0  0  0  0  0  0
   -2.5420  -34.0570   -3.8680 C   0  0  0  0  0  0  0  0  0  0  0  0
   -2.1140  -33.5680   -5.0850 C   0  0  0  0  0  0  0  0  0  0  0  0
   -2.3050  -34.3650   -1.3810 C   0  0  0  0  0  0  0  0  0  0  0  0
   -1.6610  -34.2560   -0.2090 N   0  0  0  0  0  0  0  0  0  0  0  0
   -2.3770  -34.8730    0.7410 N   0  0  0  0  0  0  0  0  0  0  0  0
   -3.4740  -35.3720    0.1640 N   0  0  0  0  0  0  0  0  0  0  0  0
   -3.4310  -35.0640   -1.1520 N   0  0  0  0  0  0  0  0  0  0  0  0
    0.1880  -30.8770   -8.1540 N   0  0  0  0  0  0  0  0  0  0  0  0
    0.7720  -29.7870   -8.6370 C   0  0  0  0  0  0  0  0  0  0  0  0
    1.3070  -28.8280   -7.7820 C   0  0  0  0  0  0  0  0  0  0  0  0
    3.2520  -26.4870   -4.1320 C   0  0  0  0  0  0  0  0  0  0  0  0
    2.8520  -26.7050   -3.0040 O   0  0  0  0  0  0  0  0  0  0  0  0
    4.4060  -25.4330   -4.5080 N   0  0  0  0  0  0  0  0  0  0  0  0
    5.1280  -24.6010   -3.5820 C   0  0  0  0  0  0  0  0  0  0  0  0
    5.1920  -23.6640  -12.5599 H   0  0  0  0  0  0  0  0  0  0  0  0
    6.5538  -23.5848  -13.7286 H   0  0  0  0  0  0  0  0  0  0  0  0
    5.4516  -25.0032  -13.7286 H   0  0  0  0  0  0  0  0  0  0  0  0
    6.8700  -26.0382  -12.3158 H   0  0  0  0  0  0  0  0  0  0  0  0
    7.8549  -24.4934  -12.1721 H   0  0  0  0  0  0  0  0  0  0  0  0
    7.2912  -26.7412  -10.1387 H   0  0  0  0  0  0  0  0  0  0  0  0
    6.6901  -26.6116   -7.7292 H   0  0  0  0  0  0  0  0  0  0  0  0
    4.9176  -22.7130   -8.3512 H   0  0  0  0  0  0  0  0  0  0  0  0
    5.5391  -22.8240  -10.7702 H   0  0  0  0  0  0  0  0  0  0  0  0
    1.2355  -28.1815   -4.3429 H   0  0  0  0  0  0  0  0  0  0  0  0
    0.4849  -30.4084   -4.8521 H   0  0  0  0  0  0  0  0  0  0  0  0
   -0.8124  -32.9902   -7.2641 H   0  0  0  0  0  0  0  0  0  0  0  0
    0.7122  -31.9784   -4.0919 H   0  0  0  0  0  0  0  0  0  0  0  0
   -0.0588  -32.8615   -1.9016 H   0  0  0  0  0  0  0  0  0  0  0  0
   -3.4666  -34.6504   -3.8140 H   0  0  0  0  0  0  0  0  0  0  0  0
   -2.6961  -33.7855   -5.9926 H   0  0  0  0  0  0  0  0  0  0  0  0
   -0.7616  -33.7757   -0.0630 H   0  0  0  0  0  0  0  0  0  0  0  0
    0.8337  -29.6401   -9.7254 H   0  0  0  0  0  0  0  0  0  0  0  0
    1.7837  -27.9211   -8.1825 H   0  0  0  0  0  0  0  0  0  0  0  0
    4.8746  -24.8930   -2.5522 H   0  0  0  0  0  0  0  0  0  0  0  0
    6.2090  -24.7257   -3.7430 H   0  0  0  0  0  0  0  0  0  0  0  0
    4.8523  -23.5483   -3.7430 H   0  0  0  0  0  0  0  0  0  0  0  0
  1  2  1  0
  2  3  1  0
  3  8  2  0
  3  4  1  0
  8  7  1  0
  4  5  2  0
  7  6  2  0
 30 29  2  0
 30 31  1  0
  5  6  1  0
 29 16  1  0
  6  9  1  0
 31 14  2  0
 16 17  1  0
 16 15  2  0
 11 10  1  0
 11 12  1  0
  9 10  2  0
 17 18  1  0
 14 15  1  0
 14 13  1  0
 10 34  1  0
 12 13  2  0
 12 32  1  0
 18 23  1  0
 18 19  2  0
 23 22  2  0
 34 32  1  0
 34 35  1  0
 32 33  2  0
 19 20  1  0
 22 21  1  0
 20 21  2  0
 21 24  1  0
 24 28  2  0
 24 25  1  0
 28 27  1  0
 25 26  1  0
 27 26  2  0
  1 36  1  0
  1 37  1  0
  1 38  1  0
  2 39  1  0
  2 40  1  0
  4 41  1  0
  5 42  1  0
  7 43  1  0
  8 44  1  0
 13 45  1  0
 15 46  1  0
 17 47  1  0
 19 48  1  0
 20 49  1  0
 22 50  1  0
 23 51  1  0
 25 52  1  0
 30 53  1  0
 31 54  1  0
 35 55  1  0
 35 56  1  0
 35 57  1  0
A    1
C01
A    2
C02
A    3
C03
A    4
C04
A    5
C05
A    6
C06
A    7
C07
A    8
C08
A    9
N09
A   10
C10
A   11
S11
A   12
C12
A   13
C13
A   14
C14
A   15
C15
A   16
C16
A   17
N17
A   18
C18
A   19
C19
A   20
C20
A   21
C21
A   22
C22
A   23
C23
A   24
C24
A   25
N25
A   26
N26
A   27
N27
A   28
N28
A   29
N29
A   30
C30
A   31
C31
A   32
C32
A   33
O33
A   34
N34
A   35
C35
M  END
