4ZUP_5XA_A_405
     RDKit          3D

 21 20  0  0  0  0  0  0  0  0999 V2000
    0.8130   23.5570   31.0290 O   0  0  0  0  0  0  0  0  0  0  0  0
    1.4700   24.2680   30.0280 N   0  0  0  0  0  0  0  0  0  0  0  0
    2.6970   24.5940   30.3360 C   0  0  0  0  0  0  0  0  0  0  0  0
    3.1750   24.2610   31.4250 O   0  0  0  0  0  0  0  0  0  0  0  0
    3.4510   25.3190   29.2680 C   0  0  0  0  0  0  0  0  0  0  0  0
    3.1640   26.8000   29.1900 C   0  0  0  0  0  0  0  0  0  0  0  0
    3.8350   27.3010   27.9140 C   0  0  0  0  0  0  0  0  0  0  0  0
    3.8850   28.8110   27.8720 C   0  0  0  0  0  0  0  0  0  0  0  0
    4.8090   29.1950   26.8220 N   0  0  0  0  0  0  0  0  0  0  0  0
    1.1127   23.8813   31.9151 H   0  0  0  0  0  0  0  0  0  0  0  0
    1.0301   24.5137   29.1296 H   0  0  0  0  0  0  0  0  0  0  0  0
    3.1920   24.8679   28.2988 H   0  0  0  0  0  0  0  0  0  0  0  0
    4.5176   25.2211   29.5185 H   0  0  0  0  0  0  0  0  0  0  0  0
    3.5818   27.3154   30.0674 H   0  0  0  0  0  0  0  0  0  0  0  0
    2.0818   26.9968   29.1758 H   0  0  0  0  0  0  0  0  0  0  0  0
    3.2670   26.9376   27.0449 H   0  0  0  0  0  0  0  0  0  0  0  0
    4.8668   26.9203   27.8937 H   0  0  0  0  0  0  0  0  0  0  0  0
    4.2348   29.2009   28.8393 H   0  0  0  0  0  0  0  0  0  0  0  0
    2.8847   29.2232   27.6732 H   0  0  0  0  0  0  0  0  0  0  0  0
    5.6769   29.5557   27.2434 H   0  0  0  0  0  0  0  0  0  0  0  0
    5.0259   28.3744   26.2385 H   0  0  0  0  0  0  0  0  0  0  0  0
  9  8  1  0
  8  7  1  0
  7  6  1  0
  6  5  1  0
  5  3  1  0
  2  3  1  0
  2  1  1  0
  3  4  2  0
  1 10  1  0
  2 11  1  0
  5 12  1  0
  5 13  1  0
  6 14  1  0
  6 15  1  0
  7 16  1  0
  7 17  1  0
  8 18  1  0
  8 19  1  0
  9 20  1  0
  9 21  1  0
A    1
O8
A    2
N7
A    3
C6
A    4
O9
A    5
C5
A    6
C4
A    7
C3
A    8
C2
A    9
N1
M  END
