4ZUQ_6XA_A_403
     RDKit          3D

 24 23  0  0  0  0  0  0  0  0999 V2000
   -4.6910   -3.6030  -27.5520 C   0  0  0  0  0  0  0  0  0  0  0  0
   -4.1170   -4.5830  -28.5660 C   0  0  0  0  0  0  0  0  0  0  0  0
   -3.4470   -5.7720  -27.8860 C   0  0  0  0  0  0  0  0  0  0  0  0
   -2.5900   -6.5600  -28.8830 C   0  0  0  0  0  0  0  0  0  0  0  0
   -3.3450   -7.7530  -29.4320 C   0  0  0  0  0  0  0  0  0  0  0  0
   -2.5680   -8.6100  -30.4030 C   0  0  0  0  0  0  0  0  0  0  0  0
   -5.5990   -4.3190  -26.6820 N   0  0  0  0  0  0  0  0  0  0  0  0
   -1.3160   -8.9290  -30.1530 N   0  0  0  0  0  0  0  0  0  0  0  0
   -3.0930   -9.0410  -31.4270 O   0  0  0  0  0  0  0  0  0  0  0  0
   -0.6850   -9.7430  -31.0950 O   0  0  0  0  0  0  0  0  0  0  0  0
   -3.8759   -3.1649  -26.9573 H   0  0  0  0  0  0  0  0  0  0  0  0
   -5.2266   -2.7948  -28.0715 H   0  0  0  0  0  0  0  0  0  0  0  0
   -3.3726   -4.0604  -29.1846 H   0  0  0  0  0  0  0  0  0  0  0  0
   -4.9454   -4.9629  -29.1819 H   0  0  0  0  0  0  0  0  0  0  0  0
   -4.2220   -6.4352  -27.4742 H   0  0  0  0  0  0  0  0  0  0  0  0
   -2.7962   -5.3967  -27.0825 H   0  0  0  0  0  0  0  0  0  0  0  0
   -1.6814   -6.9138  -28.3738 H   0  0  0  0  0  0  0  0  0  0  0  0
   -2.3316   -5.8959  -29.7210 H   0  0  0  0  0  0  0  0  0  0  0  0
   -4.2422   -7.3806  -29.9482 H   0  0  0  0  0  0  0  0  0  0  0  0
   -3.5721   -8.3961  -28.5689 H   0  0  0  0  0  0  0  0  0  0  0  0
   -5.3560   -4.1274  -25.6996 H   0  0  0  0  0  0  0  0  0  0  0  0
   -6.5644   -4.0093  -26.8636 H   0  0  0  0  0  0  0  0  0  0  0  0
   -0.8286   -8.5964  -29.3088 H   0  0  0  0  0  0  0  0  0  0  0  0
   -0.1499  -10.4333  -30.6290 H   0  0  0  0  0  0  0  0  0  0  0  0
  9  6  2  0
 10  8  1  0
  6  8  1  0
  6  5  1  0
  5  4  1  0
  4  3  1  0
  2  3  1  0
  2  1  1  0
  1  7  1  0
  1 11  1  0
  1 12  1  0
  2 13  1  0
  2 14  1  0
  3 15  1  0
  3 16  1  0
  4 17  1  0
  4 18  1  0
  5 19  1  0
  5 20  1  0
  7 21  1  0
  7 22  1  0
  8 23  1  0
 10 24  1  0
A    1
C2
A    2
C3
A    3
C4
A    4
C5
A    5
C6
A    6
C7
A    7
N1
A    8
N8
A    9
O10
A   10
O9
M  END
