4ZUR_7XA_A_404
     RDKit          3D

 27 26  0  0  0  0  0  0  0  0999 V2000
   -0.9390  -10.7290  -31.2320 O   0  0  0  0  0  0  0  0  0  0  0  0
   -1.3070   -9.8640  -30.2300 N   0  0  0  0  0  0  0  0  0  0  0  0
   -2.4420   -9.2660  -30.2040 C   0  0  0  0  0  0  0  0  0  0  0  0
   -3.2910   -9.4390  -31.0240 O   0  0  0  0  0  0  0  0  0  0  0  0
   -2.6710   -8.4010  -28.9740 C   0  0  0  0  0  0  0  0  0  0  0  0
   -3.2030   -7.0330  -29.3100 C   0  0  0  0  0  0  0  0  0  0  0  0
   -3.5550   -6.3070  -28.0210 C   0  0  0  0  0  0  0  0  0  0  0  0
   -4.0160   -4.9030  -28.3490 C   0  0  0  0  0  0  0  0  0  0  0  0
   -4.4780   -4.1530  -27.1090 C   0  0  0  0  0  0  0  0  0  0  0  0
   -4.8910   -2.7420  -27.5020 C   0  0  0  0  0  0  0  0  0  0  0  0
   -5.2300   -2.0000  -26.2960 N   0  0  0  0  0  0  0  0  0  0  0  0
   -0.5841  -11.5631  -30.8341 H   0  0  0  0  0  0  0  0  0  0  0  0
   -0.6411   -9.6874  -29.4643 H   0  0  0  0  0  0  0  0  0  0  0  0
   -3.3946   -8.9076  -28.3185 H   0  0  0  0  0  0  0  0  0  0  0  0
   -1.6973   -8.2644  -28.4808 H   0  0  0  0  0  0  0  0  0  0  0  0
   -2.4367   -6.4635  -29.8563 H   0  0  0  0  0  0  0  0  0  0  0  0
   -4.1002   -7.1280  -29.9393 H   0  0  0  0  0  0  0  0  0  0  0  0
   -4.3613   -6.8472  -27.5032 H   0  0  0  0  0  0  0  0  0  0  0  0
   -2.6700   -6.2620  -27.3693 H   0  0  0  0  0  0  0  0  0  0  0  0
   -3.1810   -4.3525  -28.8070 H   0  0  0  0  0  0  0  0  0  0  0  0
   -4.8688   -4.9771  -29.0398 H   0  0  0  0  0  0  0  0  0  0  0  0
   -5.3358   -4.6760  -26.6610 H   0  0  0  0  0  0  0  0  0  0  0  0
   -3.6576   -4.1076  -26.3777 H   0  0  0  0  0  0  0  0  0  0  0  0
   -4.0587   -2.2440  -28.0209 H   0  0  0  0  0  0  0  0  0  0  0  0
   -5.7607   -2.7804  -28.1744 H   0  0  0  0  0  0  0  0  0  0  0  0
   -4.9757   -2.5567  -25.4675 H   0  0  0  0  0  0  0  0  0  0  0  0
   -4.7121   -1.1097  -26.2837 H   0  0  0  0  0  0  0  0  0  0  0  0
  1  2  1  0
  4  3  2  0
  2  3  1  0
  3  5  1  0
  6  5  1  0
  6  7  1  0
  8  7  1  0
  8  9  1  0
 10  9  1  0
 10 11  1  0
  1 12  1  0
  2 13  1  0
  5 14  1  0
  5 15  1  0
  6 16  1  0
  6 17  1  0
  7 18  1  0
  7 19  1  0
  8 20  1  0
  8 21  1  0
  9 22  1  0
  9 23  1  0
 10 24  1  0
 10 25  1  0
 11 26  1  0
 11 27  1  0
A    1
O10
A    2
N9
A    3
C8
A    4
O11
A    5
C7
A    6
C6
A    7
C5
A    8
C4
A    9
C3
A   10
C2
A   11
N1
M  END
