151D_DM2_A_7
     RDKit          3D

 68 72  0  0  0  0  0  0  0  0999 V2000
   15.2260   18.4500    4.8960 C   0  0  0  0  0  0  0  0  0  0  0  0
   16.4290   19.1610    4.9090 C   0  0  0  0  0  0  0  0  0  0  0  0
   17.6540   18.4690    4.8800 C   0  0  0  0  0  0  0  0  0  0  0  0
   17.6770   17.0630    4.8290 C   0  0  0  0  0  0  0  0  0  0  0  0
   18.8980   16.3880    4.8080 O   0  0  0  0  0  0  0  0  0  0  0  0
   16.4560   16.3530    4.8160 C   0  0  0  0  0  0  0  0  0  0  0  0
   16.4090   14.9460    4.8030 C   0  0  0  0  0  0  0  0  0  0  0  0
   17.5610   14.2110    4.7710 O   0  0  0  0  0  0  0  0  0  0  0  0
   15.1960   14.2090    4.8170 C   0  0  0  0  0  0  0  0  0  0  0  0
   15.1640   12.8080    4.7840 C   0  0  0  0  0  0  0  0  0  0  0  0
   16.2950   12.0320    4.7880 O   0  0  0  0  0  0  0  0  0  0  0  0
   13.9290   12.1310    4.7580 C   0  0  0  0  0  0  0  0  0  0  0  0
   13.9950   10.6390    4.7860 C   0  0  0  0  0  0  0  0  0  0  0  0
   14.5920   10.3970    6.1230 O   0  0  0  0  0  0  0  0  0  0  0  0
   12.7110    9.8680    4.5230 C   0  0  0  0  0  0  0  0  0  0  0  0
   11.5690   10.6000    5.3590 C   0  0  0  0  0  0  0  0  0  0  0  0
   11.6110   10.7530    6.8350 O   0  0  0  0  0  0  0  0  0  0  0  0
   10.2690    9.8640    5.0710 C   0  0  0  0  0  0  0  0  0  0  0  0
    9.5430   10.1870    3.9540 O   0  0  0  0  0  0  0  0  0  0  0  0
    9.8250    8.8040    6.0330 C   0  0  0  0  0  0  0  0  0  0  0  0
    8.6170    8.1910    5.6700 O   0  0  0  0  0  0  0  0  0  0  0  0
   11.4320   12.0650    4.7660 C   0  0  0  0  0  0  0  0  0  0  0  0
   12.7290   12.8070    4.7990 C   0  0  0  0  0  0  0  0  0  0  0  0
   12.7610   14.2240    4.8270 C   0  0  0  0  0  0  0  0  0  0  0  0
   11.5700   14.8890    4.7970 O   0  0  0  0  0  0  0  0  0  0  0  0
   13.9850   14.9240    4.8220 C   0  0  0  0  0  0  0  0  0  0  0  0
   14.0070   16.3490    4.8530 C   0  0  0  0  0  0  0  0  0  0  0  0
   12.8530   16.9880    4.8780 O   0  0  0  0  0  0  0  0  0  0  0  0
   15.2440   17.0400    4.8650 C   0  0  0  0  0  0  0  0  0  0  0  0
   20.1640   17.1310    4.8940 C   0  0  0  0  0  0  0  0  0  0  0  0
   15.5080    9.3250    6.3250 C   0  0  0  0  0  0  0  0  0  0  0  0
   16.6620    9.7440    7.3080 C   0  0  0  0  0  0  0  0  0  0  0  0
   15.9860    9.8960    8.7000 C   0  0  0  0  0  0  0  0  0  0  0  0
   17.0690   10.2180    9.7020 N   0  0  0  0  0  0  0  0  0  0  0  0
   15.2360    8.6130    9.1320 C   0  0  0  0  0  0  0  0  0  0  0  0
   16.3240    7.5970    9.2010 O   0  0  0  0  0  0  0  0  0  0  0  0
   14.1500    8.2540    8.0820 C   0  0  0  0  0  0  0  0  0  0  0  0
   14.8280    8.1160    6.7520 O   0  0  0  0  0  0  0  0  0  0  0  0
   13.4700    6.8950    8.3160 C   0  0  0  0  0  0  0  0  0  0  0  0
   14.2671   18.9888    4.9099 H   0  0  0  0  0  0  0  0  0  0  0  0
   16.4184   20.2605    4.9419 H   0  0  0  0  0  0  0  0  0  0  0  0
   18.5996   19.0308    4.8973 H   0  0  0  0  0  0  0  0  0  0  0  0
   16.7011   11.7534    5.6468 H   0  0  0  0  0  0  0  0  0  0  0  0
   14.5761   10.2462    3.9386 H   0  0  0  0  0  0  0  0  0  0  0  0
   12.4687    9.8867    3.4502 H   0  0  0  0  0  0  0  0  0  0  0  0
   12.8102    8.8137    4.8207 H   0  0  0  0  0  0  0  0  0  0  0  0
   11.3747    9.8921    7.2629 H   0  0  0  0  0  0  0  0  0  0  0  0
   10.6061    8.0312    6.0847 H   0  0  0  0  0  0  0  0  0  0  0  0
    9.6603    9.2954    7.0032 H   0  0  0  0  0  0  0  0  0  0  0  0
    8.1173    7.9374    6.4862 H   0  0  0  0  0  0  0  0  0  0  0  0
   11.0895   11.9952    3.7230 H   0  0  0  0  0  0  0  0  0  0  0  0
   10.7099   12.6161    5.3864 H   0  0  0  0  0  0  0  0  0  0  0  0
   11.1215   15.1394    5.6433 H   0  0  0  0  0  0  0  0  0  0  0  0
   20.4274   17.2856    5.9508 H   0  0  0  0  0  0  0  0  0  0  0  0
   20.9604   16.5570    4.3978 H   0  0  0  0  0  0  0  0  0  0  0  0
   20.0512   18.1062    4.3978 H   0  0  0  0  0  0  0  0  0  0  0  0
   15.9781    9.0936    5.3578 H   0  0  0  0  0  0  0  0  0  0  0  0
   17.4400    8.9671    7.3411 H   0  0  0  0  0  0  0  0  0  0  0  0
   17.1528   10.6751    6.9884 H   0  0  0  0  0  0  0  0  0  0  0  0
   15.2355   10.6985    8.6467 H   0  0  0  0  0  0  0  0  0  0  0  0
   16.6976   10.1076   10.6563 H   0  0  0  0  0  0  0  0  0  0  0  0
   17.8637    9.5769    9.5665 H   0  0  0  0  0  0  0  0  0  0  0  0
   14.6953    8.7011   10.0859 H   0  0  0  0  0  0  0  0  0  0  0  0
   16.5333    7.4015   10.1487 H   0  0  0  0  0  0  0  0  0  0  0  0
   13.3925    9.0492    8.1447 H   0  0  0  0  0  0  0  0  0  0  0  0
   13.3785    6.7121    9.3968 H   0  0  0  0  0  0  0  0  0  0  0  0
   12.4693    6.9022    7.8593 H   0  0  0  0  0  0  0  0  0  0  0  0
   14.0757    6.0984    7.8593 H   0  0  0  0  0  0  0  0  0  0  0  0
  1  2  2  0
  1 29  1  0
  2  3  1  0
  3  4  2  0
  4  5  1  0
  4  6  1  0
  5 30  1  0
  6  7  1  0
  6 29  2  0
  7  8  2  0
  7  9  1  0
  9 10  2  0
  9 26  1  0
 10 11  1  0
 10 12  1  0
 12 13  1  0
 12 23  2  0
 13 14  1  0
 13 15  1  0
 14 31  1  0
 15 16  1  0
 16 17  1  0
 16 18  1  0
 16 22  1  0
 18 19  2  0
 18 20  1  0
 20 21  1  0
 22 23  1  0
 23 24  1  0
 24 25  1  0
 24 26  2  0
 26 27  1  0
 27 28  2  0
 27 29  1  0
 31 32  1  0
 31 38  1  0
 32 33  1  0
 33 34  1  0
 33 35  1  0
 35 36  1  0
 35 37  1  0
 37 38  1  0
 37 39  1  0
  1 40  1  0
  2 41  1  0
  3 42  1  0
 11 43  1  0
 13 44  1  0
 15 45  1  0
 15 46  1  0
 17 47  1  0
 20 48  1  0
 20 49  1  0
 21 50  1  0
 22 51  1  0
 22 52  1  0
 25 53  1  0
 30 54  1  0
 30 55  1  0
 30 56  1  0
 31 57  1  0
 32 58  1  0
 32 59  1  0
 33 60  1  0
 34 61  1  0
 34 62  1  0
 35 63  1  0
 36 64  1  0
 37 65  1  0
 39 66  1  0
 39 67  1  0
 39 68  1  0
A    1
C1
A    2
C2
A    3
C3
A    4
C4
A    5
O4
A    6
C5
A    7
C6
A    8
O6
A    9
C7
A   10
C8
A   11
O8
A   12
C9
A   13
C10
A   14
O10
A   15
C11
A   16
C12
A   17
O12
A   18
C13
A   19
O13
A   20
C14
A   21
O14
A   22
C15
A   23
C16
A   24
C17
A   25
O17
A   26
C18
A   27
C19
A   28
O19
A   29
C20
A   30
C21
A   31
C1'
A   32
C2'
A   33
C3'
A   34
N3'
A   35
C4'
A   36
O4'
A   37
C5'
A   38
O5'
A   39
C6'
M  END
