4ZVV_GN0_A_405
     RDKit          3D

 56 60  0  0  0  0  0  0  0  0999 V2000
   43.4000   13.9780   24.0620 C   0  0  0  0  0  0  0  0  0  0  0  0
   42.0710   13.7080   24.3140 C   0  0  0  0  0  0  0  0  0  0  0  0
   41.3730   12.8950   23.4440 C   0  0  0  0  0  0  0  0  0  0  0  0
   41.3350   14.2640   25.4920 C   0  0  0  0  0  0  0  0  0  0  0  0
   42.2940   14.8980   26.4220 C   0  0  0  0  0  0  0  0  0  0  0  0
   42.6170   16.2390   26.4360 C   0  0  0  0  0  0  0  0  0  0  0  0
   43.8230   15.0160   28.1900 C   0  0  0  0  0  0  0  0  0  0  0  0
   42.9960   14.2070   27.4460 C   0  0  0  0  0  0  0  0  0  0  0  0
   44.0150   13.4350   22.9560 C   0  0  0  0  0  0  0  0  0  0  0  0
   41.9880   12.3560   22.3400 C   0  0  0  0  0  0  0  0  0  0  0  0
   43.3160   12.6200   22.0860 C   0  0  0  0  0  0  0  0  0  0  0  0
   43.9360   12.0660   20.9540 N   0  0  0  0  0  0  0  0  0  0  0  0
   43.7530   16.6430   27.6530 S   0  0  0  0  0  0  0  0  0  0  0  0
   40.6800   13.2280   26.2380 N   0  0  0  0  0  0  0  0  0  0  0  0
   39.5820   13.4810   27.0320 C   0  0  0  0  0  0  0  0  0  0  0  0
   39.0780   14.8710   27.0110 C   0  0  0  0  0  0  0  0  0  0  0  0
   39.4090   15.7040   26.0210 C   0  0  0  0  0  0  0  0  0  0  0  0
   40.3330   15.2570   24.9550 C   0  0  0  0  0  0  0  0  0  0  0  0
   39.0820   16.8940   25.8160 O   0  0  0  0  0  0  0  0  0  0  0  0
   39.0010   12.6370   27.7000 O   0  0  0  0  0  0  0  0  0  0  0  0
   37.9970   15.3010   28.2680 S   0  0  0  0  0  0  0  0  0  0  0  0
   38.9610   16.2060   29.4510 C   0  0  0  0  0  0  0  0  0  0  0  0
   40.2500   16.6290   29.1990 C   0  0  0  0  0  0  0  0  0  0  0  0
   40.9490   17.3290   30.1610 C   0  0  0  0  0  0  0  0  0  0  0  0
   40.3640   17.6070   31.3790 C   0  0  0  0  0  0  0  0  0  0  0  0
   39.0770   17.1870   31.6380 C   0  0  0  0  0  0  0  0  0  0  0  0
   38.3830   16.4890   30.6720 C   0  0  0  0  0  0  0  0  0  0  0  0
   36.7690   15.9590   30.9940 Cl  0  0  0  0  0  0  0  0  0  0  0  0
   43.3160   10.9380   20.2680 C   0  0  0  0  0  0  0  0  0  0  0  0
   44.4020    9.9130   19.7630 C   0  0  0  0  0  0  0  0  0  0  0  0
   45.4320   10.7450   19.1060 O   0  0  0  0  0  0  0  0  0  0  0  0
   46.1360   11.5030   20.1300 C   0  0  0  0  0  0  0  0  0  0  0  0
   45.1820   12.6410   20.4720 C   0  0  0  0  0  0  0  0  0  0  0  0
   43.9685   14.6270   24.7444 H   0  0  0  0  0  0  0  0  0  0  0  0
   40.3124   12.6762   23.6367 H   0  0  0  0  0  0  0  0  0  0  0  0
   42.1892   16.9733   25.7376 H   0  0  0  0  0  0  0  0  0  0  0  0
   44.4493   14.6642   29.0231 H   0  0  0  0  0  0  0  0  0  0  0  0
   42.8883   13.1273   27.6267 H   0  0  0  0  0  0  0  0  0  0  0  0
   45.0758   13.6527   22.7626 H   0  0  0  0  0  0  0  0  0  0  0  0
   41.4174   11.7107   21.6558 H   0  0  0  0  0  0  0  0  0  0  0  0
   41.0415   12.2654   26.1784 H   0  0  0  0  0  0  0  0  0  0  0  0
   40.8699   16.1296   24.5545 H   0  0  0  0  0  0  0  0  0  0  0  0
   39.7459   14.7701   24.1624 H   0  0  0  0  0  0  0  0  0  0  0  0
   38.9154   17.5003   26.5807 H   0  0  0  0  0  0  0  0  0  0  0  0
   40.7210   16.4079   28.2299 H   0  0  0  0  0  0  0  0  0  0  0  0
   41.9757   17.6663   29.9561 H   0  0  0  0  0  0  0  0  0  0  0  0
   40.9249   18.1641   32.1439 H   0  0  0  0  0  0  0  0  0  0  0  0
   38.6070   17.4069   32.6079 H   0  0  0  0  0  0  0  0  0  0  0  0
   42.7463   11.3120   19.4046 H   0  0  0  0  0  0  0  0  0  0  0  0
   42.6513   10.4215   20.9761 H   0  0  0  0  0  0  0  0  0  0  0  0
   43.9618    9.2041   19.0463 H   0  0  0  0  0  0  0  0  0  0  0  0
   44.8174    9.3108   20.5844 H   0  0  0  0  0  0  0  0  0  0  0  0
   46.3308   10.8778   21.0139 H   0  0  0  0  0  0  0  0  0  0  0  0
   47.1176   11.8633   19.7885 H   0  0  0  0  0  0  0  0  0  0  0  0
   45.6254   13.2753   21.2537 H   0  0  0  0  0  0  0  0  0  0  0  0
   44.9940   13.2575   19.5806 H   0  0  0  0  0  0  0  0  0  0  0  0
 31 30  1  0
 31 32  1  0
 30 29  1  0
 32 33  1  0
 29 12  1  0
 33 12  1  0
 12 11  1  0
 11 10  2  0
 11  9  1  0
 10  3  1  0
  9  1  2  0
  3  2  2  0
  1  2  1  0
  2  4  1  0
 18  4  1  0
 18 17  1  0
  4 14  1  0
  4  5  1  0
 19 17  1  0
 17 16  2  0
 14 15  1  0
  5  6  2  0
  5  8  1  0
  6 13  1  0
 16 15  1  0
 16 21  1  0
 15 20  2  0
  8  7  2  0
 13  7  1  0
 21 22  1  0
 23 22  2  0
 23 24  1  0
 22 27  1  0
 24 25  2  0
 27 28  1  0
 27 26  2  0
 25 26  1  0
  1 34  1  0
  3 35  1  0
  6 36  1  0
  7 37  1  0
  8 38  1  0
  9 39  1  0
 10 40  1  0
 14 41  1  0
 18 42  1  0
 18 43  1  0
 19 44  1  0
 23 45  1  0
 24 46  1  0
 25 47  1  0
 26 48  1  0
 29 49  1  0
 29 50  1  0
 30 51  1  0
 30 52  1  0
 32 53  1  0
 32 54  1  0
 33 55  1  0
 33 56  1  0
A    1
C4
A    2
C5
A    3
C6
A    4
C8
A    5
C9
A    6
C10
A    7
C12
A    8
C13
A    9
C3
A   10
C1
A   11
C2
A   12
N7
A   13
S11
A   14
N14
A   15
C15
A   16
C16
A   17
C17
A   18
C18
A   19
O19
A   20
O20
A   21
S21
A   22
C22
A   23
C23
A   24
C24
A   25
C25
A   26
C26
A   27
C27
A   28
CL
A   29
C29
A   30
C30
A   31
O31
A   32
C32
A   33
C33
M  END
