4ZW1_4V1_A_201
     RDKit          3D

 43 46  0  0  0  0  0  0  0  0999 V2000
   17.8060   11.3140  -20.9730 N   0  0  0  0  0  0  0  0  0  0  0  0
   16.9560   11.0540  -18.7730 N   0  0  0  0  0  0  0  0  0  0  0  0
   17.6450    9.8890  -18.6010 C   0  0  0  0  0  0  0  0  0  0  0  0
   18.4350    9.4200  -19.6230 C   0  0  0  0  0  0  0  0  0  0  0  0
   18.4930   10.1540  -20.7840 C   0  0  0  0  0  0  0  0  0  0  0  0
   16.5670   16.5930  -20.1860 C   0  0  0  0  0  0  0  0  0  0  0  0
   16.0400   15.3130  -19.9230 C   0  0  0  0  0  0  0  0  0  0  0  0
   16.8320   14.1810  -20.1040 C   0  0  0  0  0  0  0  0  0  0  0  0
   14.7250   15.1030  -19.5190 C   0  0  0  0  0  0  0  0  0  0  0  0
   13.9150   16.1410  -19.3170 O   0  0  0  0  0  0  0  0  0  0  0  0
   14.1790   13.8730  -19.2860 C   0  0  0  0  0  0  0  0  0  0  0  0
   12.8920   13.7340  -18.8490 C   0  0  0  0  0  0  0  0  0  0  0  0
   14.9640   12.7670  -19.4470 C   0  0  0  0  0  0  0  0  0  0  0  0
   16.2720   12.9150  -19.9000 C   0  0  0  0  0  0  0  0  0  0  0  0
   17.0260   11.7610  -19.9730 C   0  0  0  0  0  0  0  0  0  0  0  0
   19.5200    9.3730  -21.8180 S   0  0  0  0  0  0  0  0  0  0  0  0
   19.8810    8.1350  -20.8540 C   0  0  0  0  0  0  0  0  0  0  0  0
   20.7050    7.0600  -21.1070 C   0  0  0  0  0  0  0  0  0  0  0  0
   20.0840    5.8340  -20.5640 N   0  0  0  0  0  0  0  0  0  0  0  0
   18.6440    5.5560  -20.6650 C   0  0  0  0  0  0  0  0  0  0  0  0
   20.2040    6.1280  -19.1140 C   0  0  0  0  0  0  0  0  0  0  0  0
   19.3930    7.3470  -18.6810 C   0  0  0  0  0  0  0  0  0  0  0  0
   19.2180    8.3020  -19.6860 C   0  0  0  0  0  0  0  0  0  0  0  0
   17.4560    9.3820  -17.4810 O   0  0  0  0  0  0  0  0  0  0  0  0
   16.3748   11.4172  -18.0041 H   0  0  0  0  0  0  0  0  0  0  0  0
   16.7778   17.1051  -19.2356 H   0  0  0  0  0  0  0  0  0  0  0  0
   17.4978   16.4947  -20.7639 H   0  0  0  0  0  0  0  0  0  0  0  0
   15.8368   17.1785  -20.7639 H   0  0  0  0  0  0  0  0  0  0  0  0
   17.8856   14.2814  -20.4039 H   0  0  0  0  0  0  0  0  0  0  0  0
   13.6940   16.4242  -18.3945 H   0  0  0  0  0  0  0  0  0  0  0  0
   12.8764   13.7323  -17.7491 H   0  0  0  0  0  0  0  0  0  0  0  0
   12.2853   14.5718  -19.2230 H   0  0  0  0  0  0  0  0  0  0  0  0
   12.4781   12.7859  -19.2230 H   0  0  0  0  0  0  0  0  0  0  0  0
   14.5658   11.7670  -19.2205 H   0  0  0  0  0  0  0  0  0  0  0  0
   20.8456    6.9515  -22.1926 H   0  0  0  0  0  0  0  0  0  0  0  0
   21.6822    7.2225  -20.6288 H   0  0  0  0  0  0  0  0  0  0  0  0
   18.2149    5.4732  -19.6556 H   0  0  0  0  0  0  0  0  0  0  0  0
   18.1496    6.3753  -21.2075 H   0  0  0  0  0  0  0  0  0  0  0  0
   18.4901    4.6116  -21.2075 H   0  0  0  0  0  0  0  0  0  0  0  0
   19.8499    5.2532  -18.5489 H   0  0  0  0  0  0  0  0  0  0  0  0
   21.2622    6.3489  -18.9106 H   0  0  0  0  0  0  0  0  0  0  0  0
   19.9116    7.8249  -17.8368 H   0  0  0  0  0  0  0  0  0  0  0  0
   18.3907    6.9821  -18.4121 H   0  0  0  0  0  0  0  0  0  0  0  0
 16 17  1  0
 16  5  1  0
 18 17  1  0
 18 19  1  0
  1  5  1  0
  1 15  2  0
 17 23  2  0
  5  4  2  0
 20 19  1  0
 19 21  1  0
  6  7  1  0
  8  7  2  0
  8 14  1  0
 15 14  1  0
 15  2  1  0
  7  9  1  0
 14 13  2  0
 23  4  1  0
 23 22  1  0
  4  3  1  0
  9 10  1  0
  9 11  2  0
 13 11  1  0
 11 12  1  0
 21 22  1  0
  2  3  1  0
  3 24  2  0
  2 25  1  0
  6 26  1  0
  6 27  1  0
  6 28  1  0
  8 29  1  0
 10 30  1  0
 12 31  1  0
 12 32  1  0
 12 33  1  0
 13 34  1  0
 18 35  1  0
 18 36  1  0
 20 37  1  0
 20 38  1  0
 20 39  1  0
 21 40  1  0
 21 41  1  0
 22 42  1  0
 22 43  1  0
A    1
N1
A    2
N3
A    3
C4
A    4
C5
A    5
C6
A    6
CAA
A    7
CAB
A    8
CAC
A    9
CAW
A   10
OAX
A   11
CAU
A   12
CAV
A   13
CAT
A   14
CAD
A   15
C2
A   16
SAH
A   17
CAI
A   18
CAJ
A   19
NAK
A   20
CAL
A   21
CAM
A   22
CAN
A   23
CAO
A   24
O4
M  END
