4ZW3_4S9_A_1101
     RDKit          3D

 37 37  0  0  0  0  0  0  0  0999 V2000
   88.8140  120.2540   13.6180 C   0  0  0  0  0  0  0  0  0  0  0  0
   89.4500  119.9130   12.3010 C   0  0  0  0  0  0  0  0  0  0  0  0
   91.5860  119.7660   11.3440 C   0  0  0  0  0  0  0  0  0  0  0  0
   88.6490  120.5310   11.1850 C   0  0  0  0  0  0  0  0  0  0  0  0
   91.8360  118.2460    9.4270 C   0  0  0  0  0  0  0  0  0  0  0  0
   91.0110  117.1290    8.8170 C   0  0  0  0  0  0  0  0  0  0  0  0
   92.0000  119.3150    8.3620 C   0  0  0  0  0  0  0  0  0  0  0  0
   93.2060  117.7150    9.8200 C   0  0  0  0  0  0  0  0  0  0  0  0
   88.7640  119.2450   14.5640 C   0  0  0  0  0  0  0  0  0  0  0  0
   88.1730  119.4960   15.7920 C   0  0  0  0  0  0  0  0  0  0  0  0
   90.7930  120.3270   12.2610 N   0  0  0  0  0  0  0  0  0  0  0  0
   88.9850  121.7020   10.6440 N   0  0  0  0  0  0  0  0  0  0  0  0
   88.2730  121.5150   13.8560 C   0  0  0  0  0  0  0  0  0  0  0  0
   86.8320  121.0440   17.7300 Br  0  0  0  0  0  0  0  0  0  0  0  0
   87.6390  120.7410   16.0290 C   0  0  0  0  0  0  0  0  0  0  0  0
   87.6770  121.7590   15.0860 C   0  0  0  0  0  0  0  0  0  0  0  0
   91.1200  118.6780   10.5710 O   0  0  0  0  0  0  0  0  0  0  0  0
   92.6820  120.2590   11.1770 O   0  0  0  0  0  0  0  0  0  0  0  0
   87.6740  119.9470   10.7480 O   0  0  0  0  0  0  0  0  0  0  0  0
   88.1070  122.1510    9.5790 O   0  0  0  0  0  0  0  0  0  0  0  0
   89.4500  118.8203   12.1748 H   0  0  0  0  0  0  0  0  0  0  0  0
   90.5638  116.5235    9.6191 H   0  0  0  0  0  0  0  0  0  0  0  0
   90.2130  117.5603    8.1948 H   0  0  0  0  0  0  0  0  0  0  0  0
   91.6579  116.4931    8.1948 H   0  0  0  0  0  0  0  0  0  0  0  0
   92.1500  120.2925    8.8437 H   0  0  0  0  0  0  0  0  0  0  0  0
   92.8722  119.0774    7.7353 H   0  0  0  0  0  0  0  0  0  0  0  0
   91.0967  119.3498    7.7353 H   0  0  0  0  0  0  0  0  0  0  0  0
   93.2864  117.6838   10.9166 H   0  0  0  0  0  0  0  0  0  0  0  0
   93.3366  116.7011    9.4138 H   0  0  0  0  0  0  0  0  0  0  0  0
   93.9858  118.3760    9.4138 H   0  0  0  0  0  0  0  0  0  0  0  0
   89.1888  118.2546   14.3435 H   0  0  0  0  0  0  0  0  0  0  0  0
   88.1317  118.7132   16.5637 H   0  0  0  0  0  0  0  0  0  0  0  0
   91.1524  121.0370   12.9149 H   0  0  0  0  0  0  0  0  0  0  0  0
   89.8025  122.2449   10.9568 H   0  0  0  0  0  0  0  0  0  0  0  0
   88.3169  122.3001   13.0868 H   0  0  0  0  0  0  0  0  0  0  0  0
   87.2415  122.7440   15.3099 H   0  0  0  0  0  0  0  0  0  0  0  0
   87.2976  122.5649    9.9710 H   0  0  0  0  0  0  0  0  0  0  0  0
  7  5  1  0
  6  5  1  0
  5  8  1  0
  5 17  1  0
 20 12  1  0
 17  3  1  0
 12  4  1  0
 19  4  2  0
 18  3  2  0
  4  2  1  0
  3 11  1  0
 11  2  1  0
  2  1  1  0
  1 13  2  0
  1  9  1  0
 13 16  1  0
  9 10  2  0
 16 15  2  0
 10 15  1  0
 15 14  1  0
  2 21  1  0
  6 22  1  0
  6 23  1  0
  6 24  1  0
  7 25  1  0
  7 26  1  0
  7 27  1  0
  8 28  1  0
  8 29  1  0
  8 30  1  0
  9 31  1  0
 10 32  1  0
 11 33  1  0
 12 34  1  0
 13 35  1  0
 16 36  1  0
 20 37  1  0
A    1
C4
A    2
C5
A    3
C6
A    4
C11
A    5
C7
A    6
C8
A    7
C9
A    8
C10
A    9
C12
A   10
C13
A   11
N1
A   12
N2
A   13
C3
A   14
BR1
A   15
C1
A   16
C2
A   17
O1
A   18
O2
A   19
O3
A   20
O4
M  END
