4ZW5_4SA_A_1102
     RDKit          3D

 47 48  0  0  0  0  0  0  0  0999 V2000
   12.2060   12.5140   20.3920 C   0  0  0  0  0  0  0  0  0  0  0  0
   17.9780    8.2600    9.8360 C   0  0  0  0  0  0  0  0  0  0  0  0
   13.2700   13.1160   19.7340 C   0  0  0  0  0  0  0  0  0  0  0  0
   13.5140   12.7870   18.4120 C   0  0  0  0  0  0  0  0  0  0  0  0
   14.2670   10.5090   12.3940 C   0  0  0  0  0  0  0  0  0  0  0  0
   13.0500   11.5450   16.3400 C   0  0  0  0  0  0  0  0  0  0  0  0
   13.2410   12.5590   15.4090 C   0  0  0  0  0  0  0  0  0  0  0  0
   13.6240   12.2330   14.1120 C   0  0  0  0  0  0  0  0  0  0  0  0
   13.8080   10.9000   13.7760 C   0  0  0  0  0  0  0  0  0  0  0  0
   16.4990   10.3220   11.4870 C   0  0  0  0  0  0  0  0  0  0  0  0
   16.6730    8.9290    9.4390 C   0  0  0  0  0  0  0  0  0  0  0  0
   15.6100   10.9920   12.2520 N   0  0  0  0  0  0  0  0  0  0  0  0
   13.8100   12.2350   10.7060 N   0  0  0  0  0  0  0  0  0  0  0  0
   11.3990   11.5910   19.7380 C   0  0  0  0  0  0  0  0  0  0  0  0
   12.6880   11.8710   17.7560 C   0  0  0  0  0  0  0  0  0  0  0  0
   11.6420   11.2550   18.4110 C   0  0  0  0  0  0  0  0  0  0  0  0
   15.9620    9.3880   10.5780 O   0  0  0  0  0  0  0  0  0  0  0  0
   15.7730    7.8920    8.8010 C   0  0  0  0  0  0  0  0  0  0  0  0
   16.9160   10.0300    8.4220 C   0  0  0  0  0  0  0  0  0  0  0  0
   17.5830   10.8500   11.2620 O   0  0  0  0  0  0  0  0  0  0  0  0
   13.4430   11.0770   11.2670 C   0  0  0  0  0  0  0  0  0  0  0  0
   12.4830   10.4430   10.8380 O   0  0  0  0  0  0  0  0  0  0  0  0
   13.0300   12.7790    9.5950 O   0  0  0  0  0  0  0  0  0  0  0  0
   13.6310    9.8950   14.7190 C   0  0  0  0  0  0  0  0  0  0  0  0
   13.2450   10.2180   16.0120 C   0  0  0  0  0  0  0  0  0  0  0  0
   11.9997   12.7703   21.4417 H   0  0  0  0  0  0  0  0  0  0  0  0
   18.0518    8.2222   10.9329 H   0  0  0  0  0  0  0  0  0  0  0  0
   18.0038    7.2375    9.4313 H   0  0  0  0  0  0  0  0  0  0  0  0
   18.8233    8.8360    9.4313 H   0  0  0  0  0  0  0  0  0  0  0  0
   13.9094   13.8435   20.2555 H   0  0  0  0  0  0  0  0  0  0  0  0
   14.3585   13.2468   17.8777 H   0  0  0  0  0  0  0  0  0  0  0  0
   14.1712    9.4160   12.3156 H   0  0  0  0  0  0  0  0  0  0  0  0
   13.0906   13.6104   15.6953 H   0  0  0  0  0  0  0  0  0  0  0  0
   13.7790   13.0227   13.3621 H   0  0  0  0  0  0  0  0  0  0  0  0
   15.8981   11.8544   12.7360 H   0  0  0  0  0  0  0  0  0  0  0  0
   14.6371   12.7403   11.0546 H   0  0  0  0  0  0  0  0  0  0  0  0
   10.5610   11.1223   20.2747 H   0  0  0  0  0  0  0  0  0  0  0  0
   11.0139   10.5141   17.8947 H   0  0  0  0  0  0  0  0  0  0  0  0
   15.2686    7.3108    9.5870 H   0  0  0  0  0  0  0  0  0  0  0  0
   15.0200    8.3946    8.1762 H   0  0  0  0  0  0  0  0  0  0  0  0
   16.3766    7.2172    8.1762 H   0  0  0  0  0  0  0  0  0  0  0  0
   17.1244   10.9742    8.9465 H   0  0  0  0  0  0  0  0  0  0  0  0
   17.7769    9.7632    7.7914 H   0  0  0  0  0  0  0  0  0  0  0  0
   16.0228   10.1503    7.7914 H   0  0  0  0  0  0  0  0  0  0  0  0
   12.2724   13.3074    9.9513 H   0  0  0  0  0  0  0  0  0  0  0  0
   13.7968    8.8438   14.4406 H   0  0  0  0  0  0  0  0  0  0  0  0
   13.0966    9.4291   16.7641 H   0  0  0  0  0  0  0  0  0  0  0  0
 19 11  1  0
 18 11  1  0
 11  2  1  0
 11 17  1  0
 23 13  1  0
 17 10  1  0
 13 21  1  0
 22 21  2  0
 20 10  2  0
 21  5  1  0
 10 12  1  0
 12  5  1  0
  5  9  1  0
  9  8  1  0
  9 24  2  0
  8  7  2  0
 24 25  1  0
  7  6  1  0
 25  6  2  0
  6 15  1  0
 15 16  1  0
 15  4  2  0
 16 14  2  0
  4  3  1  0
  3  1  2  0
 14  1  1  0
  1 26  1  0
  2 27  1  0
  2 28  1  0
  2 29  1  0
  3 30  1  0
  4 31  1  0
  5 32  1  0
  7 33  1  0
  8 34  1  0
 12 35  1  0
 13 36  1  0
 14 37  1  0
 16 38  1  0
 18 39  1  0
 18 40  1  0
 18 41  1  0
 19 42  1  0
 19 43  1  0
 19 44  1  0
 23 45  1  0
 24 46  1  0
 25 47  1  0
A    1
C4
A    2
C14
A    3
C5
A    4
C6
A    5
C11
A    6
C7
A    7
C8
A    8
C9
A    9
C10
A   10
C12
A   11
C13
A   12
N1
A   13
N2
A   14
C3
A   15
C1
A   16
C2
A   17
O1
A   18
C15
A   19
C16
A   20
O2
A   21
C17
A   22
O3
A   23
O4
A   24
C18
A   25
C19
M  END
