4ZW7_4SZ_A_1102
     RDKit          3D

 47 48  0  0  0  0  0  0  0  0999 V2000
   93.2300  117.3970  128.0860 C   0  0  0  0  0  0  0  0  0  0  0  0
   91.8680  117.9910  127.6660 C   0  0  0  0  0  0  0  0  0  0  0  0
   90.9830  116.8900  127.0680 C   0  0  0  0  0  0  0  0  0  0  0  0
   92.0680  119.0920  126.6060 C   0  0  0  0  0  0  0  0  0  0  0  0
   91.1560  118.4680  128.8310 O   0  0  0  0  0  0  0  0  0  0  0  0
   91.5930  119.5410  129.5710 C   0  0  0  0  0  0  0  0  0  0  0  0
   92.7170  120.0160  129.4360 O   0  0  0  0  0  0  0  0  0  0  0  0
   90.7640  120.0770  130.4850 N   0  0  0  0  0  0  0  0  0  0  0  0
   89.3930  119.5930  130.6970 C   0  0  0  0  0  0  0  0  0  0  0  0
   88.5050  120.1230  129.5720 C   0  0  0  0  0  0  0  0  0  0  0  0
   87.5290  119.4840  129.1960 O   0  0  0  0  0  0  0  0  0  0  0  0
   88.9330  121.2780  129.0440 N   0  0  0  0  0  0  0  0  0  0  0  0
   88.1740  121.9030  127.9860 O   0  0  0  0  0  0  0  0  0  0  0  0
   88.9850  120.0190  131.9610 C   0  0  0  0  0  0  0  0  0  0  0  0
   88.8280  119.0390  132.9310 C   0  0  0  0  0  0  0  0  0  0  0  0
   88.4570  119.3740  134.2240 C   0  0  0  0  0  0  0  0  0  0  0  0
   88.7970  121.3700  132.2850 C   0  0  0  0  0  0  0  0  0  0  0  0
   88.4280  121.7140  133.5950 C   0  0  0  0  0  0  0  0  0  0  0  0
   88.2350  120.7060  134.5500 C   0  0  0  0  0  0  0  0  0  0  0  0
   87.9340  120.9820  135.8820 C   0  0  0  0  0  0  0  0  0  0  0  0
   88.8570  121.7850  136.5720 C   0  0  0  0  0  0  0  0  0  0  0  0
   88.6640  122.0750  137.9190 C   0  0  0  0  0  0  0  0  0  0  0  0
   89.5630  122.8680  138.6270 F   0  0  0  0  0  0  0  0  0  0  0  0
   87.5570  121.5640  138.5740 C   0  0  0  0  0  0  0  0  0  0  0  0
   87.3450  121.8550  139.8790 F   0  0  0  0  0  0  0  0  0  0  0  0
   86.6500  120.7600  137.9000 C   0  0  0  0  0  0  0  0  0  0  0  0
   85.6310  120.3040  138.5630 F   0  0  0  0  0  0  0  0  0  0  0  0
   86.8340  120.4510  136.5500 C   0  0  0  0  0  0  0  0  0  0  0  0
   93.2948  117.3687  129.1837 H   0  0  0  0  0  0  0  0  0  0  0  0
   93.3237  116.3763  127.6867 H   0  0  0  0  0  0  0  0  0  0  0  0
   94.0418  118.0228  127.6867 H   0  0  0  0  0  0  0  0  0  0  0  0
   90.5182  116.3117  127.8801 H   0  0  0  0  0  0  0  0  0  0  0  0
   90.1981  117.3471  126.4475 H   0  0  0  0  0  0  0  0  0  0  0  0
   91.5981  116.2217  126.4475 H   0  0  0  0  0  0  0  0  0  0  0  0
   92.2430  120.0556  127.1068 H   0  0  0  0  0  0  0  0  0  0  0  0
   92.9355  118.8425  125.9774 H   0  0  0  0  0  0  0  0  0  0  0  0
   91.1682  119.1636  125.9774 H   0  0  0  0  0  0  0  0  0  0  0  0
   91.1050  120.8601  131.0607 H   0  0  0  0  0  0  0  0  0  0  0  0
   89.3265  118.4954  130.6683 H   0  0  0  0  0  0  0  0  0  0  0  0
   89.7978  121.7172  129.3905 H   0  0  0  0  0  0  0  0  0  0  0  0
   87.4728  122.4804  128.3797 H   0  0  0  0  0  0  0  0  0  0  0  0
   88.9999  117.9841  132.6708 H   0  0  0  0  0  0  0  0  0  0  0  0
   88.3392  118.5903  134.9868 H   0  0  0  0  0  0  0  0  0  0  0  0
   88.9368  122.1504  131.5225 H   0  0  0  0  0  0  0  0  0  0  0  0
   88.2909  122.7699  133.8710 H   0  0  0  0  0  0  0  0  0  0  0  0
   89.7356  122.1860  136.0455 H   0  0  0  0  0  0  0  0  0  0  0  0
   86.1215  119.7989  136.0236 H   0  0  0  0  0  0  0  0  0  0  0  0
  4  2  1  0
  3  2  1  0
  2  1  1  0
  2  5  1  0
 13 12  1  0
  5  6  1  0
 12 10  1  0
 11 10  2  0
  7  6  2  0
  6  8  1  0
 10  9  1  0
  8  9  1  0
  9 14  1  0
 14 17  2  0
 14 15  1  0
 17 18  1  0
 15 16  2  0
 18 19  2  0
 16 19  1  0
 19 20  1  0
 20 28  1  0
 20 21  2  0
 28 26  2  0
 21 22  1  0
 26 27  1  0
 26 24  1  0
 22 24  2  0
 22 23  1  0
 24 25  1  0
  1 29  1  0
  1 30  1  0
  1 31  1  0
  3 32  1  0
  3 33  1  0
  3 34  1  0
  4 35  1  0
  4 36  1  0
  4 37  1  0
  8 38  1  0
  9 39  1  0
 12 40  1  0
 13 41  1  0
 15 42  1  0
 16 43  1  0
 17 44  1  0
 18 45  1  0
 21 46  1  0
 28 47  1  0
A    1
CAA
A    2
CBB
A    3
CAB
A    4
CAC
A    5
OAR
A    6
CAS
A    7
OAD
A    8
N
A    9
CA
A   10
C
A   11
O
A   12
NAP
A   13
OAF
A   14
CAY
A   15
CAM
A   16
CAK
A   17
CAL
A   18
CAJ
A   19
CAW
A   20
CAX
A   21
CAN
A   22
CAU
A   23
FAG
A   24
CAZ
A   25
FAI
A   26
CAV
A   27
FAH
A   28
CAO
M  END
