4ZX1_5L3_A_304
     RDKit          3D

 52 53  0  0  0  0  0  0  0  0999 V2000
   -0.1420    7.8380   82.2150 C   0  0  0  0  0  0  0  0  0  0  0  0
    0.6410    5.6480   81.4960 O   0  0  0  0  0  0  0  0  0  0  0  0
    1.4360    9.0260   83.7090 C   0  0  0  0  0  0  0  0  0  0  0  0
   -0.4150    5.8270   79.2570 C   0  0  0  0  0  0  0  0  0  0  0  0
    0.3310    5.0430   80.2820 C   0  0  0  0  0  0  0  0  0  0  0  0
    0.6280    3.9010   80.0740 O   0  0  0  0  0  0  0  0  0  0  0  0
    1.0310    7.0830   81.6560 C   0  0  0  0  0  0  0  0  0  0  0  0
    2.3110    7.2140   82.3690 C   0  0  0  0  0  0  0  0  0  0  0  0
    3.0200    5.9000   82.3570 O   0  0  0  0  0  0  0  0  0  0  0  0
    2.3510    7.8180   83.7330 C   0  0  0  0  0  0  0  0  0  0  0  0
    3.6450    8.3470   84.0770 O   0  0  0  0  0  0  0  0  0  0  0  0
    1.7850   10.0020   82.7020 C   0  0  0  0  0  0  0  0  0  0  0  0
    0.7350   10.3610   81.8020 O   0  0  0  0  0  0  0  0  0  0  0  0
    0.1110    8.3410   83.5220 O   0  0  0  0  0  0  0  0  0  0  0  0
   -1.6060    6.8720   82.5840 S   0  0  0  0  0  0  0  0  0  0  0  0
   -2.2920    7.8330   83.4420 O   0  0  0  0  0  0  0  0  0  0  0  0
   -2.5400    6.7310   81.4700 O   0  0  0  0  0  0  0  0  0  0  0  0
   -1.1650    5.7110   83.1660 N   0  0  0  0  0  0  0  0  0  0  0  0
   -1.5100    4.4450   82.5790 C   0  0  0  0  0  0  0  0  0  0  0  0
   -0.8920    3.2690   83.3230 C   0  0  0  0  0  0  0  0  0  0  0  0
   -0.9620    5.7990   84.6030 C   0  0  0  0  0  0  0  0  0  0  0  0
   -1.2880    4.5490   85.3930 C   0  0  0  0  0  0  0  0  0  0  0  0
   -0.7280    3.4030   84.7540 C   0  0  0  0  0  0  0  0  0  0  0  0
   -1.6390    2.4020   85.3500 O   0  0  0  0  0  0  0  0  0  0  0  0
   -1.3070    1.4270   86.4190 S   0  0  0  0  0  0  0  0  0  0  0  0
   -0.9390    1.8390   87.7340 O   0  0  0  0  0  0  0  0  0  0  0  0
   -2.6210    1.2550   86.8810 O   0  0  0  0  0  0  0  0  0  0  0  0
   -1.0260    0.0210   85.9520 N   0  0  0  0  0  0  0  0  0  0  0  0
   -0.2933    8.5732   81.4109 H   0  0  0  0  0  0  0  0  0  0  0  0
    1.4762    9.6665   84.6024 H   0  0  0  0  0  0  0  0  0  0  0  0
   -1.0901    6.5365   79.7578 H   0  0  0  0  0  0  0  0  0  0  0  0
    0.2979    6.3807   78.6284 H   0  0  0  0  0  0  0  0  0  0  0  0
   -1.0034    5.1424   78.6284 H   0  0  0  0  0  0  0  0  0  0  0  0
    1.2518    7.5579   80.6887 H   0  0  0  0  0  0  0  0  0  0  0  0
    2.8210    7.9950   81.7859 H   0  0  0  0  0  0  0  0  0  0  0  0
    3.1803    5.6030   83.2877 H   0  0  0  0  0  0  0  0  0  0  0  0
    2.0729    7.0306   84.4491 H   0  0  0  0  0  0  0  0  0  0  0  0
    3.7352    8.3839   85.0622 H   0  0  0  0  0  0  0  0  0  0  0  0
    2.1172   10.9157   83.2166 H   0  0  0  0  0  0  0  0  0  0  0  0
    2.5644    9.5322   82.0840 H   0  0  0  0  0  0  0  0  0  0  0  0
   -0.0638   10.6341   82.3191 H   0  0  0  0  0  0  0  0  0  0  0  0
   -2.6045    4.3359   82.5939 H   0  0  0  0  0  0  0  0  0  0  0  0
   -1.1162    4.4346   81.5519 H   0  0  0  0  0  0  0  0  0  0  0  0
   -1.5312    2.3918   83.1441 H   0  0  0  0  0  0  0  0  0  0  0  0
    0.1312    3.1899   82.9271 H   0  0  0  0  0  0  0  0  0  0  0  0
    0.0958    6.0436   84.7799 H   0  0  0  0  0  0  0  0  0  0  0  0
   -1.6647    6.5676   84.9572 H   0  0  0  0  0  0  0  0  0  0  0  0
   -0.8704    4.6404   86.4065 H   0  0  0  0  0  0  0  0  0  0  0  0
   -2.3805    4.4325   85.4464 H   0  0  0  0  0  0  0  0  0  0  0  0
    0.3632    3.3701   84.8885 H   0  0  0  0  0  0  0  0  0  0  0  0
   -0.9031   -0.5940   86.7690 H   0  0  0  0  0  0  0  0  0  0  0  0
   -1.8162   -0.3165   85.3840 H   0  0  0  0  0  0  0  0  0  0  0  0
  1  7  1  0
  1 14  1  0
  1 15  1  0
  2  5  1  0
  2  7  1  0
  3 10  1  0
  3 12  1  0
  3 14  1  0
  4  5  1  0
  5  6  2  0
  7  8  1  0
  8  9  1  0
  8 10  1  0
 10 11  1  0
 12 13  1  0
 15 16  2  0
 15 17  2  0
 15 18  1  0
 18 19  1  0
 18 21  1  0
 19 20  1  0
 20 23  1  0
 21 22  1  0
 22 23  1  0
 23 24  1  0
 24 25  1  0
 25 26  2  0
 25 27  2  0
 25 28  1  0
  1 29  1  0
  3 30  1  0
  4 31  1  0
  4 32  1  0
  4 33  1  0
  7 34  1  0
  8 35  1  0
  9 36  1  0
 10 37  1  0
 11 38  1  0
 12 39  1  0
 12 40  1  0
 13 41  1  0
 19 42  1  0
 19 43  1  0
 20 44  1  0
 20 45  1  0
 21 46  1  0
 21 47  1  0
 22 48  1  0
 22 49  1  0
 23 50  1  0
 28 51  1  0
 28 52  1  0
A    1
C1
A    2
O2
A    3
C5
A    4
CBI
A    5
CBE
A    6
OBH
A    7
C2
A    8
C3
A    9
O3
A   10
C4
A   11
O4
A   12
C6
A   13
O6
A   14
O5
A   15
SAG
A   16
OAH
A   17
OAJ
A   18
NAB
A   19
CAC
A   20
CAD
A   21
CAA
A   22
CAF
A   23
CAE
A   24
OAK
A   25
SAL
A   26
OAN
A   27
OAO
A   28
NAM
M  END
