4ZX2_4TE_A_503
     RDKit          3D

 26 27  0  0  0  0  0  0  0  0999 V2000
    4.0890   -0.3320   -9.9420 C   0  0  0  0  0  0  0  0  0  0  0  0
    5.3200    0.4350  -10.2610 C   0  0  0  0  0  0  0  0  0  0  0  0
    6.1780    0.6850   -9.1190 C   0  0  0  0  0  0  0  0  0  0  0  0
    6.7690   -0.7890   -8.8910 C   0  0  0  0  0  0  0  0  0  0  0  0
    6.0770   -1.4320  -10.1050 C   0  0  0  0  0  0  0  0  0  0  0  0
    4.6390   -1.6940   -9.8130 C   0  0  0  0  0  0  0  0  0  0  0  0
    4.0190   -2.7030  -10.7810 C   0  0  0  0  0  0  0  0  0  0  0  0
    2.8760   -3.1720  -10.5390 O   0  0  0  0  0  0  0  0  0  0  0  0
    4.6610   -3.0470  -11.8200 O   0  0  0  0  0  0  0  0  0  0  0  0
    6.0290   -0.4490  -11.0360 O   0  0  0  0  0  0  0  0  0  0  0  0
    5.5560    1.1840   -7.8600 C   0  0  0  0  0  0  0  0  0  0  0  0
    3.0530   -0.1320  -11.0460 C   0  0  0  0  0  0  0  0  0  0  0  0
    1.9710    0.4570  -10.8250 O   0  0  0  0  0  0  0  0  0  0  0  0
    3.3070   -0.5660  -12.1930 O   0  0  0  0  0  0  0  0  0  0  0  0
    3.5331   -0.0387   -9.0392 H   0  0  0  0  0  0  0  0  0  0  0  0
    5.0448    1.4087  -10.6925 H   0  0  0  0  0  0  0  0  0  0  0  0
    6.8750    1.5079   -9.3359 H   0  0  0  0  0  0  0  0  0  0  0  0
    6.4491   -1.2317   -7.9362 H   0  0  0  0  0  0  0  0  0  0  0  0
    7.8629   -0.8859   -8.8285 H   0  0  0  0  0  0  0  0  0  0  0  0
    6.6022   -2.3557  -10.3893 H   0  0  0  0  0  0  0  0  0  0  0  0
    4.4406   -2.1622   -8.8376 H   0  0  0  0  0  0  0  0  0  0  0  0
    2.5791   -3.2938   -9.6025 H   0  0  0  0  0  0  0  0  0  0  0  0
    6.0864    0.7585   -6.9953 H   0  0  0  0  0  0  0  0  0  0  0  0
    5.6233    2.2815   -7.8277 H   0  0  0  0  0  0  0  0  0  0  0  0
    4.4992    0.8803   -7.8277 H   0  0  0  0  0  0  0  0  0  0  0  0
    1.6760    0.6176   -9.8937 H   0  0  0  0  0  0  0  0  0  0  0  0
 14 12  2  0
  9  7  2  0
 12 13  1  0
 12  1  1  0
 10  2  1  0
 10  5  1  0
  7  8  1  0
  7  6  1  0
  2  1  1  0
  2  3  1  0
  5  6  1  0
  5  4  1  0
  1  6  1  0
  3  4  1  0
  3 11  1  0
  1 15  1  0
  2 16  1  0
  3 17  1  0
  4 18  1  0
  4 19  1  0
  5 20  1  0
  6 21  1  0
  8 22  1  0
 11 23  1  0
 11 24  1  0
 11 25  1  0
 13 26  1  0
A    1
C01
A    2
C02
A    3
C03
A    4
C04
A    5
C05
A    6
C06
A    7
C07
A    8
O08
A    9
O09
A   10
O10
A   11
C11
A   12
C12
A   13
O13
A   14
O14
M  END
