4ZX5_4TM_A_1102
     RDKit          3D

 43 44  0  0  0  0  0  0  0  0999 V2000
   91.0160  116.5100   10.3560 C   0  0  0  0  0  0  0  0  0  0  0  0
   91.7920  117.8240   10.1920 C   0  0  0  0  0  0  0  0  0  0  0  0
   91.5530  118.3860    8.7790 C   0  0  0  0  0  0  0  0  0  0  0  0
   93.2950  117.5620   10.3470 C   0  0  0  0  0  0  0  0  0  0  0  0
   91.2710  118.9010   11.1770 C   0  0  0  0  0  0  0  0  0  0  0  0
   92.0150  119.7730   11.6240 O   0  0  0  0  0  0  0  0  0  0  0  0
   89.9600  118.8470   11.4640 N   0  0  0  0  0  0  0  0  0  0  0  0
   89.2950  119.9420   12.2010 C   0  0  0  0  0  0  0  0  0  0  0  0
   88.2700  120.4580   11.1820 C   0  0  0  0  0  0  0  0  0  0  0  0
   87.3030  119.7750   10.8530 O   0  0  0  0  0  0  0  0  0  0  0  0
   88.6220  121.6050   10.5920 N   0  0  0  0  0  0  0  0  0  0  0  0
   87.7310  122.1550    9.6050 O   0  0  0  0  0  0  0  0  0  0  0  0
   88.7550  119.7350   13.4990 C   0  0  0  0  0  0  0  0  0  0  0  0
   89.0460  118.6210   14.2890 C   0  0  0  0  0  0  0  0  0  0  0  0
   88.5060  118.5320   15.5750 C   0  0  0  0  0  0  0  0  0  0  0  0
   87.9430  120.7390   14.0320 C   0  0  0  0  0  0  0  0  0  0  0  0
   87.3960  120.6460   15.3230 C   0  0  0  0  0  0  0  0  0  0  0  0
   87.6780  119.5220   16.1090 C   0  0  0  0  0  0  0  0  0  0  0  0
   87.2000  119.3940   17.3670 C   0  0  0  0  0  0  0  0  0  0  0  0
   86.4230  120.3220   17.9800 C   0  0  0  0  0  0  0  0  0  0  0  0
   86.0340  120.0510   19.2560 C   0  0  0  0  0  0  0  0  0  0  0  0
   86.7250  118.5900   19.6340 S   0  0  0  0  0  0  0  0  0  0  0  0
   87.5000  118.3280   18.1330 C   0  0  0  0  0  0  0  0  0  0  0  0
   90.8870  116.2915   11.4263 H   0  0  0  0  0  0  0  0  0  0  0  0
   90.0291  116.6051    9.8796 H   0  0  0  0  0  0  0  0  0  0  0  0
   91.5758  115.6917    9.8796 H   0  0  0  0  0  0  0  0  0  0  0  0
   91.1235  119.3959    8.8539 H   0  0  0  0  0  0  0  0  0  0  0  0
   92.5089  118.4333    8.2367 H   0  0  0  0  0  0  0  0  0  0  0  0
   90.8558  117.7304    8.2367 H   0  0  0  0  0  0  0  0  0  0  0  0
   93.5511  117.5174   11.4158 H   0  0  0  0  0  0  0  0  0  0  0  0
   93.5518  116.6056    9.8682 H   0  0  0  0  0  0  0  0  0  0  0  0
   93.8602  118.3752    9.8682 H   0  0  0  0  0  0  0  0  0  0  0  0
   89.4092  118.0293   11.1657 H   0  0  0  0  0  0  0  0  0  0  0  0
   90.0688  120.6542   12.5235 H   0  0  0  0  0  0  0  0  0  0  0  0
   89.5028  122.0798   10.8362 H   0  0  0  0  0  0  0  0  0  0  0  0
   86.9819  122.6174   10.0578 H   0  0  0  0  0  0  0  0  0  0  0  0
   89.6944  117.8207   13.9027 H   0  0  0  0  0  0  0  0  0  0  0  0
   88.7417  117.6502   16.1889 H   0  0  0  0  0  0  0  0  0  0  0  0
   87.7253  121.6288   13.4230 H   0  0  0  0  0  0  0  0  0  0  0  0
   86.7524  121.4486   15.7125 H   0  0  0  0  0  0  0  0  0  0  0  0
   86.1218  121.2491   17.4703 H   0  0  0  0  0  0  0  0  0  0  0  0
   85.3949  120.6710   19.9019 H   0  0  0  0  0  0  0  0  0  0  0  0
   88.1186  117.4635   17.8501 H   0  0  0  0  0  0  0  0  0  0  0  0
  3  2  1  0
 12 11  1  0
  2  4  1  0
  2  1  1  0
  2  5  1  0
 11  9  1  0
 10  9  2  0
  5  7  1  0
  5  6  2  0
  9  8  1  0
  7  8  1  0
  8 13  1  0
 13 16  2  0
 13 14  1  0
 16 17  1  0
 14 15  2  0
 17 18  2  0
 15 18  1  0
 18 19  1  0
 19 20  1  0
 19 23  2  0
 20 21  2  0
 23 22  1  0
 21 22  1  0
  1 24  1  0
  1 25  1  0
  1 26  1  0
  3 27  1  0
  3 28  1  0
  3 29  1  0
  4 30  1  0
  4 31  1  0
  4 32  1  0
  7 33  1  0
  8 34  1  0
 11 35  1  0
 12 36  1  0
 14 37  1  0
 15 38  1  0
 16 39  1  0
 17 40  1  0
 20 41  1  0
 21 42  1  0
 23 43  1  0
A    1
CAA
A    2
CAW
A    3
CAB
A    4
CAC
A    5
CAR
A    6
OAE
A    7
N
A    8
CA
A    9
C
A   10
O
A   11
NAN
A   12
OAF
A   13
CAU
A   14
CAL
A   15
CAJ
A   16
CAK
A   17
CAI
A   18
CAS
A   19
CAT
A   20
CAH
A   21
CAG
A   22
SAP
A   23
CAM
M  END
