4ZX6_4U6_A_1102
     RDKit          3D

 52 53  0  0  0  0  0  0  0  0999 V2000
   93.4650  117.2830   11.2420 C   0  0  0  0  0  0  0  0  0  0  0  0
   92.0210  117.5190   10.7980 C   0  0  0  0  0  0  0  0  0  0  0  0
   91.1490  116.3370   11.2280 C   0  0  0  0  0  0  0  0  0  0  0  0
   91.9800  117.6580    9.2730 C   0  0  0  0  0  0  0  0  0  0  0  0
   91.4940  118.8120   11.4230 C   0  0  0  0  0  0  0  0  0  0  0  0
   92.2380  119.7770   11.5910 O   0  0  0  0  0  0  0  0  0  0  0  0
   90.1950  118.8150   11.7500 N   0  0  0  0  0  0  0  0  0  0  0  0
   89.5650  120.0180   12.3150 C   0  0  0  0  0  0  0  0  0  0  0  0
   88.5220  120.5220   11.3130 C   0  0  0  0  0  0  0  0  0  0  0  0
   87.4570  119.9290   11.1480 O   0  0  0  0  0  0  0  0  0  0  0  0
   88.8870  121.6180   10.6340 N   0  0  0  0  0  0  0  0  0  0  0  0
   87.9550  122.1400    9.6650 O   0  0  0  0  0  0  0  0  0  0  0  0
   88.9860  119.7880   13.5650 C   0  0  0  0  0  0  0  0  0  0  0  0
   88.2330  120.7990   14.1530 C   0  0  0  0  0  0  0  0  0  0  0  0
   87.6500  120.6090   15.4000 C   0  0  0  0  0  0  0  0  0  0  0  0
   89.1620  118.5830   14.2370 C   0  0  0  0  0  0  0  0  0  0  0  0
   88.5790  118.3920   15.4880 C   0  0  0  0  0  0  0  0  0  0  0  0
   87.8200  119.4030   16.0700 C   0  0  0  0  0  0  0  0  0  0  0  0
   87.2400  119.2240   17.3240 C   0  0  0  0  0  0  0  0  0  0  0  0
   87.6760  118.1990   18.1560 C   0  0  0  0  0  0  0  0  0  0  0  0
   86.2340  120.0810   17.7560 C   0  0  0  0  0  0  0  0  0  0  0  0
   85.6580  119.9080   19.0120 C   0  0  0  0  0  0  0  0  0  0  0  0
   86.0930  118.8800   19.8400 C   0  0  0  0  0  0  0  0  0  0  0  0
   87.1020  118.0250   19.4120 C   0  0  0  0  0  0  0  0  0  0  0  0
   87.5380  116.9970   20.2420 C   0  0  0  0  0  0  0  0  0  0  0  0
   87.0810  116.9550   21.4910 N   0  0  0  0  0  0  0  0  0  0  0  0
   88.4110  116.1080   19.7520 N   0  0  0  0  0  0  0  0  0  0  0  0
   88.8530  115.0490   20.6520 O   0  0  0  0  0  0  0  0  0  0  0  0
   93.5141  117.2750   12.3409 H   0  0  0  0  0  0  0  0  0  0  0  0
   93.8150  116.3157   10.8523 H   0  0  0  0  0  0  0  0  0  0  0  0
   94.1047  118.0885   10.8523 H   0  0  0  0  0  0  0  0  0  0  0  0
   91.1131  116.2883   12.3263 H   0  0  0  0  0  0  0  0  0  0  0  0
   90.1309  116.4698   10.8334 H   0  0  0  0  0  0  0  0  0  0  0  0
   91.5763  115.4034   10.8334 H   0  0  0  0  0  0  0  0  0  0  0  0
   91.6781  118.6815    9.0061 H   0  0  0  0  0  0  0  0  0  0  0  0
   92.9777  117.4502    8.8589 H   0  0  0  0  0  0  0  0  0  0  0  0
   91.2548  116.9420    8.8589 H   0  0  0  0  0  0  0  0  0  0  0  0
   89.6311  117.9655   11.6042 H   0  0  0  0  0  0  0  0  0  0  0  0
   90.3417  120.7788   12.4819 H   0  0  0  0  0  0  0  0  0  0  0  0
   89.7979  122.0701   10.7977 H   0  0  0  0  0  0  0  0  0  0  0  0
   87.1946  122.5659   10.1346 H   0  0  0  0  0  0  0  0  0  0  0  0
   88.0981  121.7557   13.6271 H   0  0  0  0  0  0  0  0  0  0  0  0
   87.0541  121.4128   15.8569 H   0  0  0  0  0  0  0  0  0  0  0  0
   89.7612  117.7811   13.7810 H   0  0  0  0  0  0  0  0  0  0  0  0
   88.7192  117.4382   16.0178 H   0  0  0  0  0  0  0  0  0  0  0  0
   88.4769  117.5236   17.8207 H   0  0  0  0  0  0  0  0  0  0  0  0
   85.8921  120.8981   17.1037 H   0  0  0  0  0  0  0  0  0  0  0  0
   84.8589  120.5848   19.3487 H   0  0  0  0  0  0  0  0  0  0  0  0
   85.6394  118.7431   20.8327 H   0  0  0  0  0  0  0  0  0  0  0  0
   87.7379  117.0154   22.2820 H   0  0  0  0  0  0  0  0  0  0  0  0
   86.0704  116.8621   21.6668 H   0  0  0  0  0  0  0  0  0  0  0  0
   88.7992  115.1778   21.6321 H   0  0  0  0  0  0  0  0  0  0  0  0
  6  5  2  0
 22 21  2  0
 22 23  1  0
 21 19  1  0
 23 24  2  0
 15 14  1  0
 15 18  2  0
  4  2  1  0
 14 13  2  0
 19 18  1  0
 19 20  2  0
 18 17  1  0
  5  2  1  0
  5  7  1  0
 24 20  1  0
 24 25  1  0
 13  8  1  0
 13 16  1  0
 25 26  1  0
 25 27  2  0
  8  7  1  0
  8  9  1  0
  2  1  1  0
  2  3  1  0
 17 16  2  0
 27 28  1  0
 11  9  1  0
 11 12  1  0
  9 10  2  0
  1 29  1  0
  1 30  1  0
  1 31  1  0
  3 32  1  0
  3 33  1  0
  3 34  1  0
  4 35  1  0
  4 36  1  0
  4 37  1  0
  7 38  1  0
  8 39  1  0
 11 40  1  0
 12 41  1  0
 14 42  1  0
 15 43  1  0
 16 44  1  0
 17 45  1  0
 20 46  1  0
 21 47  1  0
 22 48  1  0
 23 49  1  0
 26 50  1  0
 26 51  1  0
 28 52  1  0
A    1
CAA
A    2
CBB
A    3
CAB
A    4
CAC
A    5
CAV
A    6
OAF
A    7
N
A    8
CA
A    9
C
A   10
O
A   11
NAR
A   12
OAH
A   13
CAZ
A   14
CAO
A   15
CAM
A   16
CAN
A   17
CAL
A   18
CAX
A   19
CAY
A   20
CAP
A   21
CAK
A   22
CAI
A   23
CAJ
A   24
CAW
A   25
CAT
A   26
NAD
A   27
NAQ
A   28
OAG
M  END
