4ZY3_K67_A_702
     RDKit          3D

 70 73  0  0  0  0  0  0  0  0999 V2000
  -52.6860   -1.7420  -11.6570 O   0  0  0  0  0  0  0  0  0  0  0  0
  -53.6570   -0.9360  -10.9450 S   0  0  0  0  0  0  0  0  0  0  0  0
  -53.6310    0.5070  -10.7720 O   0  0  0  0  0  0  0  0  0  0  0  0
  -55.1250   -1.2440  -11.7100 C   0  0  0  0  0  0  0  0  0  0  0  0
  -55.1340   -1.9730  -12.8800 C   0  0  0  0  0  0  0  0  0  0  0  0
  -56.3730   -2.2610  -13.5190 C   0  0  0  0  0  0  0  0  0  0  0  0
  -57.6000   -1.8240  -12.9850 C   0  0  0  0  0  0  0  0  0  0  0  0
  -58.8520   -2.0710  -13.6530 O   0  0  0  0  0  0  0  0  0  0  0  0
  -59.4460   -3.3530  -13.9970 C   0  0  0  0  0  0  0  0  0  0  0  0
  -58.5250   -4.5630  -14.2040 C   0  0  0  0  0  0  0  0  0  0  0  0
  -57.5600   -1.0920  -11.7750 C   0  0  0  0  0  0  0  0  0  0  0  0
  -56.3400   -0.7530  -11.1490 C   0  0  0  0  0  0  0  0  0  0  0  0
  -53.6750   -1.4680   -9.4380 N   0  0  0  0  0  0  0  0  0  0  0  0
  -53.5050   -2.7290   -8.9620 C   0  0  0  0  0  0  0  0  0  0  0  0
  -54.3930   -3.9000   -9.0550 C   0  0  0  0  0  0  0  0  0  0  0  0
  -55.8540   -3.8490   -9.5360 C   0  0  0  0  0  0  0  0  0  0  0  0
  -55.9960   -5.1010  -10.4060 C   0  0  0  0  0  0  0  0  0  0  0  0
  -55.4540   -5.0900  -11.5310 O   0  0  0  0  0  0  0  0  0  0  0  0
  -56.7110   -6.2950   -9.7980 C   0  0  0  0  0  0  0  0  0  0  0  0
  -53.9330   -5.1740   -8.5930 C   0  0  0  0  0  0  0  0  0  0  0  0
  -52.1170   -3.0110   -8.5150 C   0  0  0  0  0  0  0  0  0  0  0  0
  -51.2030   -1.9060   -8.3960 C   0  0  0  0  0  0  0  0  0  0  0  0
  -49.9090   -2.2420   -7.9320 C   0  0  0  0  0  0  0  0  0  0  0  0
  -49.5620   -3.5230   -7.4930 C   0  0  0  0  0  0  0  0  0  0  0  0
  -50.4460   -4.6310   -7.5890 C   0  0  0  0  0  0  0  0  0  0  0  0
  -51.7280   -4.3870   -8.0600 C   0  0  0  0  0  0  0  0  0  0  0  0
  -52.6860   -5.4980   -8.1310 C   0  0  0  0  0  0  0  0  0  0  0  0
  -52.5080   -6.8340   -7.8800 N   0  0  0  0  0  0  0  0  0  0  0  0
  -51.6040   -7.8950   -8.7660 S   0  0  0  0  0  0  0  0  0  0  0  0
  -51.3600   -8.9720   -7.8780 O   0  0  0  0  0  0  0  0  0  0  0  0
  -50.3800   -7.5720   -9.4420 O   0  0  0  0  0  0  0  0  0  0  0  0
  -52.6820   -8.2700   -9.9170 C   0  0  0  0  0  0  0  0  0  0  0  0
  -52.7010   -7.5510  -11.1160 C   0  0  0  0  0  0  0  0  0  0  0  0
  -53.6740   -7.9060  -12.0730 C   0  0  0  0  0  0  0  0  0  0  0  0
  -54.5810   -8.9460  -11.8000 C   0  0  0  0  0  0  0  0  0  0  0  0
  -54.5770   -9.6130  -10.5900 C   0  0  0  0  0  0  0  0  0  0  0  0
  -53.6310   -9.2880   -9.6320 C   0  0  0  0  0  0  0  0  0  0  0  0
  -55.5500   -9.3170  -12.6980 O   0  0  0  0  0  0  0  0  0  0  0  0
  -55.7710   -8.6460  -13.9860 C   0  0  0  0  0  0  0  0  0  0  0  0
  -56.8160   -9.4840  -14.7170 C   0  0  0  0  0  0  0  0  0  0  0  0
  -54.1897   -2.3299  -13.3170 H   0  0  0  0  0  0  0  0  0  0  0  0
  -56.3716   -2.8400  -14.4543 H   0  0  0  0  0  0  0  0  0  0  0  0
  -60.0059   -3.2091  -14.9328 H   0  0  0  0  0  0  0  0  0  0  0  0
  -60.0383   -3.6185  -13.1089 H   0  0  0  0  0  0  0  0  0  0  0  0
  -58.2202   -4.9634  -13.2258 H   0  0  0  0  0  0  0  0  0  0  0  0
  -59.0620   -5.3404  -14.7673 H   0  0  0  0  0  0  0  0  0  0  0  0
  -57.6326   -4.2525  -14.7673 H   0  0  0  0  0  0  0  0  0  0  0  0
  -58.5055   -0.7781  -11.3086 H   0  0  0  0  0  0  0  0  0  0  0  0
  -56.3277   -0.1231  -10.2473 H   0  0  0  0  0  0  0  0  0  0  0  0
  -53.8401   -0.7474   -8.7208 H   0  0  0  0  0  0  0  0  0  0  0  0
  -56.0411   -2.9391  -10.1252 H   0  0  0  0  0  0  0  0  0  0  0  0
  -56.5747   -3.8242   -8.7054 H   0  0  0  0  0  0  0  0  0  0  0  0
  -56.6703   -6.2271   -8.7009 H   0  0  0  0  0  0  0  0  0  0  0  0
  -57.7608   -6.2999  -10.1264 H   0  0  0  0  0  0  0  0  0  0  0  0
  -56.2197   -7.2228  -10.1264 H   0  0  0  0  0  0  0  0  0  0  0  0
  -54.6698   -5.9906   -8.6114 H   0  0  0  0  0  0  0  0  0  0  0  0
  -51.4896   -0.8742   -8.6476 H   0  0  0  0  0  0  0  0  0  0  0  0
  -49.1387   -1.4569   -7.9160 H   0  0  0  0  0  0  0  0  0  0  0  0
  -48.5648   -3.6793   -7.0558 H   0  0  0  0  0  0  0  0  0  0  0  0
  -50.1263   -5.6434   -7.3010 H   0  0  0  0  0  0  0  0  0  0  0  0
  -52.9881   -7.2159   -7.0526 H   0  0  0  0  0  0  0  0  0  0  0  0
  -51.9838   -6.7388  -11.3057 H   0  0  0  0  0  0  0  0  0  0  0  0
  -53.7237   -7.3700  -13.0323 H   0  0  0  0  0  0  0  0  0  0  0  0
  -55.3210  -10.3978  -10.3886 H   0  0  0  0  0  0  0  0  0  0  0  0
  -53.6147   -9.8107   -8.6643 H   0  0  0  0  0  0  0  0  0  0  0  0
  -54.8361   -8.6096  -14.5644 H   0  0  0  0  0  0  0  0  0  0  0  0
  -56.1078   -7.6078  -13.8493 H   0  0  0  0  0  0  0  0  0  0  0  0
  -57.4547   -9.9962  -13.9823 H   0  0  0  0  0  0  0  0  0  0  0  0
  -57.4352   -8.8293  -15.3478 H   0  0  0  0  0  0  0  0  0  0  0  0
  -56.3114  -10.2306  -15.3478 H   0  0  0  0  0  0  0  0  0  0  0  0
 40 39  1  0
 10  9  1  0
  9  8  1  0
 39 38  1  0
  8  7  1  0
  6  7  1  0
  6  5  2  0
  7 11  2  0
  5  4  1  0
 38 35  1  0
 34 35  1  0
 34 33  2  0
 35 36  2  0
 11 12  1  0
  4 12  2  0
  4  2  1  0
  1  2  2  0
 18 17  2  0
 33 32  1  0
  2  3  2  0
  2 13  1  0
 36 37  1  0
 17 19  1  0
 17 16  1  0
 32 37  2  0
 32 29  1  0
 16 15  1  0
 31 29  2  0
 13 14  1  0
 15 14  2  0
 15 20  1  0
 14 21  1  0
 29 28  1  0
 29 30  2  0
 20 27  2  0
 21 22  2  0
 21 26  1  0
 22 23  1  0
 27 26  1  0
 27 28  1  0
 26 25  2  0
 23 24  2  0
 25 24  1  0
  5 41  1  0
  6 42  1  0
  9 43  1  0
  9 44  1  0
 10 45  1  0
 10 46  1  0
 10 47  1  0
 11 48  1  0
 12 49  1  0
 13 50  1  0
 16 51  1  0
 16 52  1  0
 19 53  1  0
 19 54  1  0
 19 55  1  0
 20 56  1  0
 22 57  1  0
 23 58  1  0
 24 59  1  0
 25 60  1  0
 28 61  1  0
 33 62  1  0
 34 63  1  0
 36 64  1  0
 37 65  1  0
 39 66  1  0
 39 67  1  0
 40 68  1  0
 40 69  1  0
 40 70  1  0
A    1
O2
A    2
S1
A    3
O1
A    4
C9
A    5
C10
A    6
C11
A    7
C12
A    8
O7
A    9
C23
A   10
C24
A   11
C13
A   12
C14
A   13
N1
A   14
C8
A   15
C3
A   16
C2
A   17
C16
A   18
O3
A   19
C41
A   20
C4
A   21
C7
A   22
C37
A   23
C38
A   24
C39
A   25
C40
A   26
C6
A   27
C5
A   28
N2
A   29
S2
A   30
O6
A   31
O5
A   32
C17
A   33
C18
A   34
C19
A   35
C20
A   36
C21
A   37
C22
A   38
O8
A   39
C25
A   40
C26
M  END
