4ZY5_4T5_A_601
     RDKit          3D

 49 52  0  0  0  0  0  0  0  0999 V2000
   13.8640  -13.6780   15.4120 N   0  0  0  0  0  0  0  0  0  0  0  0
   12.9080  -12.9090   14.9080 C   0  0  0  0  0  0  0  0  0  0  0  0
   11.3900  -13.6170   16.4970 C   0  0  0  0  0  0  0  0  0  0  0  0
   14.4180  -12.4230   13.0470 C   0  0  0  0  0  0  0  0  0  0  0  0
   17.1120   -9.0120   13.1200 C   0  0  0  0  0  0  0  0  0  0  0  0
   15.6010   -8.7570   13.1880 C   0  0  0  0  0  0  0  0  0  0  0  0
   16.1550  -15.4650   15.0580 C   0  0  0  0  0  0  0  0  0  0  0  0
   17.7360  -15.3350   12.3810 C   0  0  0  0  0  0  0  0  0  0  0  0
   12.3620  -14.4260   17.0510 C   0  0  0  0  0  0  0  0  0  0  0  0
   13.6340  -14.4450   16.4680 C   0  0  0  0  0  0  0  0  0  0  0  0
   11.6920  -12.8800   15.4360 N   0  0  0  0  0  0  0  0  0  0  0  0
   13.2000  -12.1310   13.8000 N   0  0  0  0  0  0  0  0  0  0  0  0
   15.1650  -11.1400   12.6760 C   0  0  0  0  0  0  0  0  0  0  0  0
   16.6710  -11.4140   12.6840 C   0  0  0  0  0  0  0  0  0  0  0  0
   17.4050  -10.1750   12.1760 C   0  0  0  0  0  0  0  0  0  0  0  0
   14.8750  -10.0170   13.6710 C   0  0  0  0  0  0  0  0  0  0  0  0
   17.8050   -7.8070   12.6430 N   0  0  0  0  0  0  0  0  0  0  0  0
   14.6250  -15.2450   17.0200 N   0  0  0  0  0  0  0  0  0  0  0  0
   15.7710  -15.6790   16.3550 C   0  0  0  0  0  0  0  0  0  0  0  0
   16.7350  -16.4330   16.9380 N   0  0  0  0  0  0  0  0  0  0  0  0
   17.7260  -16.6800   15.9850 N   0  0  0  0  0  0  0  0  0  0  0  0
   17.3830  -16.1080   14.8600 C   0  0  0  0  0  0  0  0  0  0  0  0
   18.1990  -16.1540   13.5870 C   0  0  0  0  0  0  0  0  0  0  0  0
   18.9680  -14.8950   13.1780 C   0  0  0  0  0  0  0  0  0  0  0  0
   10.3791  -13.5840   16.9294 H   0  0  0  0  0  0  0  0  0  0  0  0
   15.0758  -13.0554   13.6613 H   0  0  0  0  0  0  0  0  0  0  0  0
   14.1357  -12.9406   12.1183 H   0  0  0  0  0  0  0  0  0  0  0  0
   17.4728   -9.2635   14.1283 H   0  0  0  0  0  0  0  0  0  0  0  0
   15.4025   -7.9320   13.8880 H   0  0  0  0  0  0  0  0  0  0  0  0
   15.2351   -8.4932   12.1847 H   0  0  0  0  0  0  0  0  0  0  0  0
   15.5971  -14.8895   14.3046 H   0  0  0  0  0  0  0  0  0  0  0  0
   17.8538  -15.7382   11.3644 H   0  0  0  0  0  0  0  0  0  0  0  0
   16.7916  -14.8568   12.0819 H   0  0  0  0  0  0  0  0  0  0  0  0
   12.1408  -15.0438   17.9338 H   0  0  0  0  0  0  0  0  0  0  0  0
   12.5738  -11.3650   13.5136 H   0  0  0  0  0  0  0  0  0  0  0  0
   14.8253  -10.8262   11.6779 H   0  0  0  0  0  0  0  0  0  0  0  0
   16.8937  -12.2690   12.0287 H   0  0  0  0  0  0  0  0  0  0  0  0
   17.0006  -11.6475   13.7072 H   0  0  0  0  0  0  0  0  0  0  0  0
   18.4874  -10.3694   12.1528 H   0  0  0  0  0  0  0  0  0  0  0  0
   17.0647   -9.9279   11.1596 H   0  0  0  0  0  0  0  0  0  0  0  0
   13.7921   -9.8294   13.7169 H   0  0  0  0  0  0  0  0  0  0  0  0
   15.2238  -10.2974   14.6759 H   0  0  0  0  0  0  0  0  0  0  0  0
   18.1240   -7.2523   13.4501 H   0  0  0  0  0  0  0  0  0  0  0  0
   18.6174   -8.0814   12.0723 H   0  0  0  0  0  0  0  0  0  0  0  0
   14.5041  -15.5417   17.9989 H   0  0  0  0  0  0  0  0  0  0  0  0
   16.7365  -16.7655   17.9129 H   0  0  0  0  0  0  0  0  0  0  0  0
   18.4576  -17.2107   13.7500 H   0  0  0  0  0  0  0  0  0  0  0  0
   18.9231  -13.9940   13.8075 H   0  0  0  0  0  0  0  0  0  0  0  0
   20.0156  -14.6691   12.9299 H   0  0  0  0  0  0  0  0  0  0  0  0
 20 19  1  0
 20 21  1  0
  9  3  2  0
  9 10  1  0
 18 19  1  0
 18 10  1  0
 19  7  2  0
  3 11  1  0
 10  1  2  0
 21 22  2  0
  7 22  1  0
 11  2  2  0
 22 23  1  0
  1  2  1  0
  2 12  1  0
 23 24  1  0
 23  8  1  0
 12  4  1  0
 24  8  1  0
 14 15  1  0
 14 13  1  0
  4 13  1  0
 15  5  1  0
 13 16  1  0
  5 17  1  0
  5  6  1  0
 16  6  1  0
  3 25  1  0
  4 26  1  0
  4 27  1  0
  5 28  1  0
  6 29  1  0
  6 30  1  0
  7 31  1  0
  8 32  1  0
  8 33  1  0
  9 34  1  0
 12 35  1  0
 13 36  1  0
 14 37  1  0
 14 38  1  0
 15 39  1  0
 15 40  1  0
 16 41  1  0
 16 42  1  0
 17 43  1  0
 17 44  1  0
 18 45  1  0
 20 46  1  0
 23 47  1  0
 24 48  1  0
 24 49  1  0
A    1
N3
A    2
C4
A    3
C6
A    4
C8
A    5
C13
A    6
C15
A    7
C24
A    8
C26
A    9
C1
A   10
C2
A   11
N5
A   12
N7
A   13
C9
A   14
C11
A   15
C12
A   16
C16
A   17
N17
A   18
N18
A   19
C19
A   20
N20
A   21
N22
A   22
C23
A   23
C25
A   24
C27
M  END
