4ZYC_4SS_A_201
     RDKit          3D

 66 70  0  0  0  0  0  0  0  0999 V2000
    5.2310    0.4620   18.9470 C   0  0  0  0  0  0  0  0  0  0  0  0
    5.1780    1.8380   18.7020 C   0  0  0  0  0  0  0  0  0  0  0  0
    3.2550    3.4730   22.8240 C   0  0  0  0  0  0  0  0  0  0  0  0
    2.9680    4.8270   23.0070 C   0  0  0  0  0  0  0  0  0  0  0  0
    3.9370    5.6740   23.5730 C   0  0  0  0  0  0  0  0  0  0  0  0
    5.1820    5.1430   23.9350 C   0  0  0  0  0  0  0  0  0  0  0  0
    5.4590    3.7770   23.7420 C   0  0  0  0  0  0  0  0  0  0  0  0
    4.4900    2.9280   23.1820 C   0  0  0  0  0  0  0  0  0  0  0  0
    6.2260    6.0800   24.5410 C   0  0  0  0  0  0  0  0  0  0  0  0
    1.1940    6.5810   22.6560 C   0  0  0  0  0  0  0  0  0  0  0  0
    2.0960    2.8080   20.7640 C   0  0  0  0  0  0  0  0  0  0  0  0
    1.4130    1.9340   23.0250 C   0  0  0  0  0  0  0  0  0  0  0  0
    0.2950    1.1290   22.4050 C   0  0  0  0  0  0  0  0  0  0  0  0
   -0.1360    1.6250   21.0080 C   0  0  0  0  0  0  0  0  0  0  0  0
    0.7310    2.4010   20.2200 C   0  0  0  0  0  0  0  0  0  0  0  0
    0.3410    2.8350   18.9450 C   0  0  0  0  0  0  0  0  0  0  0  0
   -0.9230    2.4900   18.4450 C   0  0  0  0  0  0  0  0  0  0  0  0
   -1.7840    1.7100   19.2150 C   0  0  0  0  0  0  0  0  0  0  0  0
   -1.3880    1.2760   20.4960 C   0  0  0  0  0  0  0  0  0  0  0  0
   -4.0010    0.5590   19.2000 C   0  0  0  0  0  0  0  0  0  0  0  0
    6.4850   -0.5300   18.2320 Cl  0  0  0  0  0  0  0  0  0  0  0  0
    4.1640    2.6110   19.2770 C   0  0  0  0  0  0  0  0  0  0  0  0
    3.2140    1.9970   20.1090 C   0  0  0  0  0  0  0  0  0  0  0  0
    3.2720    0.6250   20.3500 C   0  0  0  0  0  0  0  0  0  0  0  0
    4.2820   -0.1460   19.7700 C   0  0  0  0  0  0  0  0  0  0  0  0
    2.2240    2.6930   22.2390 N   0  0  0  0  0  0  0  0  0  0  0  0
   -3.0210    1.4210   18.6270 O   0  0  0  0  0  0  0  0  0  0  0  0
   -5.3030    0.6040   18.3550 C   0  0  0  0  0  0  0  0  0  0  0  0
   -1.3880    2.8750   17.1840 O   0  0  0  0  0  0  0  0  0  0  0  0
   -0.7420    3.8540   16.3440 C   0  0  0  0  0  0  0  0  0  0  0  0
    0.1540    3.1120   15.3280 C   0  0  0  0  0  0  0  0  0  0  0  0
    1.5510    1.8600   24.2410 O   0  0  0  0  0  0  0  0  0  0  0  0
    1.6870    5.2420   22.6110 O   0  0  0  0  0  0  0  0  0  0  0  0
    1.5660    7.2460   21.3630 C   0  0  0  0  0  0  0  0  0  0  0  0
    1.8500    8.4720   21.2250 N   0  0  0  0  0  0  0  0  0  0  0  0
    2.1280    8.6920   19.9300 N   0  0  0  0  0  0  0  0  0  0  0  0
    2.0090    7.5530   19.2260 N   0  0  0  0  0  0  0  0  0  0  0  0
    1.6540    6.5760   20.0850 N   0  0  0  0  0  0  0  0  0  0  0  0
    5.9331    2.3119   18.0576 H   0  0  0  0  0  0  0  0  0  0  0  0
    3.7202    6.7410   23.7298 H   0  0  0  0  0  0  0  0  0  0  0  0
    6.4398    3.3717   24.0313 H   0  0  0  0  0  0  0  0  0  0  0  0
    4.6991    1.8589   23.0290 H   0  0  0  0  0  0  0  0  0  0  0  0
    6.1704    6.0301   25.6385 H   0  0  0  0  0  0  0  0  0  0  0  0
    7.2295    5.7738   24.2104 H   0  0  0  0  0  0  0  0  0  0  0  0
    6.0296    7.1106   24.2104 H   0  0  0  0  0  0  0  0  0  0  0  0
    1.6496    7.1202   23.4996 H   0  0  0  0  0  0  0  0  0  0  0  0
    0.1025    6.5861   22.7927 H   0  0  0  0  0  0  0  0  0  0  0  0
    2.1906    3.8742   20.5105 H   0  0  0  0  0  0  0  0  0  0  0  0
   -0.5774    1.1767   23.0733 H   0  0  0  0  0  0  0  0  0  0  0  0
    0.6742    0.1045   22.2759 H   0  0  0  0  0  0  0  0  0  0  0  0
    1.0256    3.4453   18.3377 H   0  0  0  0  0  0  0  0  0  0  0  0
   -2.0703    0.6574   21.0976 H   0  0  0  0  0  0  0  0  0  0  0  0
   -4.2207    0.8879   20.2264 H   0  0  0  0  0  0  0  0  0  0  0  0
   -3.6139   -0.4705   19.2144 H   0  0  0  0  0  0  0  0  0  0  0  0
    4.1111    3.6917   19.0789 H   0  0  0  0  0  0  0  0  0  0  0  0
    2.5212    0.1490   20.9979 H   0  0  0  0  0  0  0  0  0  0  0  0
    4.3292   -1.2282   19.9612 H   0  0  0  0  0  0  0  0  0  0  0  0
   -6.1745    0.6341   19.0256 H   0  0  0  0  0  0  0  0  0  0  0  0
   -5.2974    1.5025   17.7204 H   0  0  0  0  0  0  0  0  0  0  0  0
   -5.3595   -0.2927   17.7204 H   0  0  0  0  0  0  0  0  0  0  0  0
   -0.1264    4.5246   16.9615 H   0  0  0  0  0  0  0  0  0  0  0  0
   -1.4969    4.4533   15.8140 H   0  0  0  0  0  0  0  0  0  0  0  0
    0.8921    2.5007   15.8679 H   0  0  0  0  0  0  0  0  0  0  0  0
   -0.4689    2.4617   14.6962 H   0  0  0  0  0  0  0  0  0  0  0  0
    0.6768    3.8452   14.6962 H   0  0  0  0  0  0  0  0  0  0  0  0
    1.8651    9.1776   21.9752 H   0  0  0  0  0  0  0  0  0  0  0  0
 31 30  1  0
 30 29  1  0
 29 17  1  0
 21  1  1  0
 28 20  1  0
 17 16  2  0
 17 18  1  0
 27 20  1  0
 27 18  1  0
  2  1  2  0
  2 22  1  0
 16 15  1  0
  1 25  1  0
 18 19  2  0
 37 36  2  0
 37 38  1  0
 22 23  2  0
 25 24  2  0
 36 35  1  0
 38 34  2  0
 23 24  1  0
 23 11  1  0
 15 11  1  0
 15 14  2  0
 19 14  1  0
 11 26  1  0
 14 13  1  0
 35 34  1  0
 34 10  1  0
 26  3  1  0
 26 12  1  0
 13 12  1  0
 33 10  1  0
 33  4  1  0
  3  4  1  0
  3  8  2  0
  4  5  2  0
 12 32  2  0
  8  7  1  0
  5  6  1  0
  7  6  2  0
  6  9  1  0
  2 39  1  0
  5 40  1  0
  7 41  1  0
  8 42  1  0
  9 43  1  0
  9 44  1  0
  9 45  1  0
 10 46  1  0
 10 47  1  0
 11 48  1  0
 13 49  1  0
 13 50  1  0
 16 51  1  0
 19 52  1  0
 20 53  1  0
 20 54  1  0
 22 55  1  0
 24 56  1  0
 25 57  1  0
 28 58  1  0
 28 59  1  0
 28 60  1  0
 30 61  1  0
 30 62  1  0
 31 63  1  0
 31 64  1  0
 31 65  1  0
 35 66  1  0
A    1
C2
A    2
C3
A    3
C44
A    4
C45
A    5
C46
A    6
C48
A    7
C49
A    8
C51
A    9
C53
A   10
C58
A   11
C12
A   12
C15
A   13
C16
A   14
C19
A   15
C20
A   16
C21
A   17
C23
A   18
C24
A   19
C25
A   20
C28
A   21
CL1
A   22
C5
A   23
C7
A   24
C8
A   25
C10
A   26
N14
A   27
O27
A   28
C31
A   29
O35
A   30
C36
A   31
C39
A   32
O43
A   33
O57
A   34
C61
A   35
N62
A   36
N63
A   37
N65
A   38
N66
M  END
