4ZYI_4TH_A_201
     RDKit          3D

 74 78  0  0  0  0  0  0  0  0999 V2000
    5.0520   14.6800   -1.1380 C   0  0  0  0  0  0  0  0  0  0  0  0
    5.9910   14.2940   -0.1920 C   0  0  0  0  0  0  0  0  0  0  0  0
    3.0550   10.8000    3.1040 C   0  0  0  0  0  0  0  0  0  0  0  0
    5.9590    9.4720   -4.0750 C   0  0  0  0  0  0  0  0  0  0  0  0
    5.2430    9.0730   -2.7750 C   0  0  0  0  0  0  0  0  0  0  0  0
    5.5650    9.6450   -1.5140 C   0  0  0  0  0  0  0  0  0  0  0  0
    4.9280    9.3100   -0.3190 C   0  0  0  0  0  0  0  0  0  0  0  0
    3.9070    8.3430   -0.3730 C   0  0  0  0  0  0  0  0  0  0  0  0
    3.5700    7.7640   -1.6080 C   0  0  0  0  0  0  0  0  0  0  0  0
    4.2270    8.1140   -2.8170 C   0  0  0  0  0  0  0  0  0  0  0  0
    1.9770    6.2290   -2.7170 C   0  0  0  0  0  0  0  0  0  0  0  0
    3.2850    8.5240    2.0890 C   0  0  0  0  0  0  0  0  0  0  0  0
    2.4740    9.8510    2.0880 C   0  0  0  0  0  0  0  0  0  0  0  0
    8.8740   11.1250   -2.2000 C   0  0  0  0  0  0  0  0  0  0  0  0
    9.7940   10.3860   -1.4440 C   0  0  0  0  0  0  0  0  0  0  0  0
   11.0420   10.9270   -1.0940 C   0  0  0  0  0  0  0  0  0  0  0  0
   11.3890   12.2260   -1.5270 C   0  0  0  0  0  0  0  0  0  0  0  0
   10.4330   12.9500   -2.2900 C   0  0  0  0  0  0  0  0  0  0  0  0
    9.1790   12.4350   -2.6400 C   0  0  0  0  0  0  0  0  0  0  0  0
    4.4130   16.2880   -1.0610 Cl  0  0  0  0  0  0  0  0  0  0  0  0
    6.4830   12.9790   -0.3070 C   0  0  0  0  0  0  0  0  0  0  0  0
    6.0440   12.1040   -1.3180 C   0  0  0  0  0  0  0  0  0  0  0  0
    5.1010   12.5320   -2.2690 C   0  0  0  0  0  0  0  0  0  0  0  0
    4.6010   13.8470   -2.1590 C   0  0  0  0  0  0  0  0  0  0  0  0
    6.6370   10.6790   -1.3930 C   0  0  0  0  0  0  0  0  0  0  0  0
    7.6100   10.5720   -2.5270 N   0  0  0  0  0  0  0  0  0  0  0  0
    7.3170   10.0490   -3.7540 C   0  0  0  0  0  0  0  0  0  0  0  0
    2.5470    6.8160   -1.5500 O   0  0  0  0  0  0  0  0  0  0  0  0
    3.2120    7.9330    0.7800 O   0  0  0  0  0  0  0  0  0  0  0  0
    8.1560   10.0120   -4.6270 O   0  0  0  0  0  0  0  0  0  0  0  0
    2.6510    7.5410    3.0560 C   0  0  0  0  0  0  0  0  0  0  0  0
   12.6390   12.8260   -1.1860 N   0  0  0  0  0  0  0  0  0  0  0  0
   12.8680   14.1880   -1.5710 C   0  0  0  0  0  0  0  0  0  0  0  0
   13.6390   12.0940   -0.4530 C   0  0  0  0  0  0  0  0  0  0  0  0
   16.5750   10.0480   -2.7990 N   0  0  0  0  0  0  0  0  0  0  0  0
   15.6310   10.5990   -0.6760 C   0  0  0  0  0  0  0  0  0  0  0  0
   16.5950    9.9220   -1.4440 C   0  0  0  0  0  0  0  0  0  0  0  0
   15.6550   10.7970   -3.4560 C   0  0  0  0  0  0  0  0  0  0  0  0
   14.6690   11.4810   -2.7130 C   0  0  0  0  0  0  0  0  0  0  0  0
   14.6570   11.3820   -1.3210 C   0  0  0  0  0  0  0  0  0  0  0  0
    6.3314   14.9753    0.6017 H   0  0  0  0  0  0  0  0  0  0  0  0
    2.8313   10.4345    4.1171 H   0  0  0  0  0  0  0  0  0  0  0  0
    4.1449   10.8602    2.9683 H   0  0  0  0  0  0  0  0  0  0  0  0
    2.6130   11.7981    2.9683 H   0  0  0  0  0  0  0  0  0  0  0  0
    5.3585   10.2250   -4.6064 H   0  0  0  0  0  0  0  0  0  0  0  0
    6.0830    8.5820   -4.7095 H   0  0  0  0  0  0  0  0  0  0  0  0
    5.2135    9.7846    0.6314 H   0  0  0  0  0  0  0  0  0  0  0  0
    3.9421    7.6399   -3.7678 H   0  0  0  0  0  0  0  0  0  0  0  0
    1.2388    5.4688   -2.4219 H   0  0  0  0  0  0  0  0  0  0  0  0
    1.4818    7.0083   -3.3149 H   0  0  0  0  0  0  0  0  0  0  0  0
    2.7705    5.7569   -3.3149 H   0  0  0  0  0  0  0  0  0  0  0  0
    4.3246    8.7397    2.3765 H   0  0  0  0  0  0  0  0  0  0  0  0
    2.5232   10.3092    1.0892 H   0  0  0  0  0  0  0  0  0  0  0  0
    1.4257    9.6383    2.3447 H   0  0  0  0  0  0  0  0  0  0  0  0
    9.5349    9.3672   -1.1200 H   0  0  0  0  0  0  0  0  0  0  0  0
   11.7465   10.3414   -0.4851 H   0  0  0  0  0  0  0  0  0  0  0  0
   10.6914   13.9663   -2.6223 H   0  0  0  0  0  0  0  0  0  0  0  0
    8.4619   13.0232   -3.2314 H   0  0  0  0  0  0  0  0  0  0  0  0
    7.2332   12.6253    0.4155 H   0  0  0  0  0  0  0  0  0  0  0  0
    4.7634   11.8625   -3.0739 H   0  0  0  0  0  0  0  0  0  0  0  0
    3.8552   14.2141   -2.8795 H   0  0  0  0  0  0  0  0  0  0  0  0
    7.1751   10.4898   -0.4524 H   0  0  0  0  0  0  0  0  0  0  0  0
    2.8560    7.8588    4.0889 H   0  0  0  0  0  0  0  0  0  0  0  0
    1.5640    7.5127    2.8900 H   0  0  0  0  0  0  0  0  0  0  0  0
    3.0735    6.5390    2.8900 H   0  0  0  0  0  0  0  0  0  0  0  0
   12.9727   14.8109   -0.6705 H   0  0  0  0  0  0  0  0  0  0  0  0
   13.7892   14.2501   -2.1690 H   0  0  0  0  0  0  0  0  0  0  0  0
   12.0178   14.5479   -2.1690 H   0  0  0  0  0  0  0  0  0  0  0  0
   13.1291   11.3415    0.1665 H   0  0  0  0  0  0  0  0  0  0  0  0
   14.1961   12.8334    0.1411 H   0  0  0  0  0  0  0  0  0  0  0  0
   15.6387   10.5168    0.4209 H   0  0  0  0  0  0  0  0  0  0  0  0
   17.3570    9.2974   -0.9549 H   0  0  0  0  0  0  0  0  0  0  0  0
   15.6769   10.8705   -4.5533 H   0  0  0  0  0  0  0  0  0  0  0  0
   13.9125   12.0901   -3.2294 H   0  0  0  0  0  0  0  0  0  0  0  0
 30 27  2  0
  4 27  1  0
  4  5  1  0
 27 26  1  0
 38 35  2  0
 38 39  1  0
 10  5  2  0
 10  9  1  0
 35 37  1  0
  5  6  1  0
 11 28  1  0
 39 40  2  0
 19 18  2  0
 19 14  1  0
 26 14  1  0
 26 25  1  0
 18 17  1  0
 23 24  1  0
 23 22  2  0
 14 15  2  0
 24  1  2  0
  9 28  1  0
  9  8  2  0
 33 32  1  0
 17 32  1  0
 17 16  2  0
  6 25  1  0
  6  7  2  0
 15 16  1  0
 37 36  2  0
 25 22  1  0
 40 36  1  0
 40 34  1  0
 22 21  1  0
 32 34  1  0
  1 20  1  0
  1  2  1  0
  8  7  1  0
  8 29  1  0
 21  2  2  0
 29 12  1  0
 13 12  1  0
 13  3  1  0
 12 31  1  0
  2 41  1  0
  3 42  1  0
  3 43  1  0
  3 44  1  0
  4 45  1  0
  4 46  1  0
  7 47  1  0
 10 48  1  0
 11 49  1  0
 11 50  1  0
 11 51  1  0
 12 52  1  0
 13 53  1  0
 13 54  1  0
 15 55  1  0
 16 56  1  0
 18 57  1  0
 19 58  1  0
 21 59  1  0
 23 60  1  0
 24 61  1  0
 25 62  1  0
 31 63  1  0
 31 64  1  0
 31 65  1  0
 33 66  1  0
 33 67  1  0
 33 68  1  0
 34 69  1  0
 34 70  1  0
 36 71  1  0
 37 72  1  0
 38 73  1  0
 39 74  1  0
A    1
C2
A    2
C3
A    3
C41
A    4
C11
A    5
C12
A    6
C13
A    7
C14
A    8
C15
A    9
C16
A   10
C17
A   11
C19
A   12
C22
A   13
C23
A   14
C25
A   15
C26
A   16
C27
A   17
C28
A   18
C29
A   19
C30
A   20
CL1
A   21
C4
A   22
C5
A   23
C6
A   24
C7
A   25
C8
A   26
N9
A   27
C10
A   28
O18
A   29
O21
A   30
O24
A   31
C31
A   32
N32
A   33
C33
A   34
C34
A   35
N35
A   36
C36
A   37
C37
A   38
C38
A   39
C39
A   40
C40
M  END
