4ZYT_3Y9_A_1102
     RDKit          3D

 58 60  0  0  0  0  0  0  0  0999 V2000
  -21.1700   16.6520   16.0870 C   0  0  0  0  0  0  0  0  0  0  0  0
  -22.2040   15.8230   16.5240 C   0  0  0  0  0  0  0  0  0  0  0  0
  -20.3790   18.9160   15.1590 C   0  0  0  0  0  0  0  0  0  0  0  0
  -19.8640   21.3780   15.0240 C   0  0  0  0  0  0  0  0  0  0  0  0
  -20.6730   22.6020   14.6600 C   0  0  0  0  0  0  0  0  0  0  0  0
  -22.2920   16.7320   23.3870 N   0  0  0  0  0  0  0  0  0  0  0  0
  -25.1100   16.8000   21.1670 C   0  0  0  0  0  0  0  0  0  0  0  0
  -25.1810   15.6080   21.8540 C   0  0  0  0  0  0  0  0  0  0  0  0
  -24.1570   15.4000   22.7740 C   0  0  0  0  0  0  0  0  0  0  0  0
  -23.3970   16.5750   22.6320 C   0  0  0  0  0  0  0  0  0  0  0  0
  -22.7790   18.3820   15.6070 C   0  0  0  0  0  0  0  0  0  0  0  0
  -23.8030   17.5580   16.0380 C   0  0  0  0  0  0  0  0  0  0  0  0
  -21.9120   15.7920   24.2590 C   0  0  0  0  0  0  0  0  0  0  0  0
  -22.6250   14.6630   24.4130 N   0  0  0  0  0  0  0  0  0  0  0  0
  -23.7330   14.4470   23.6880 C   0  0  0  0  0  0  0  0  0  0  0  0
  -23.9980   17.3420   21.6990 N   0  0  0  0  0  0  0  0  0  0  0  0
  -24.3370   13.3900   23.8640 O   0  0  0  0  0  0  0  0  0  0  0  0
  -20.7430   15.9730   25.0480 N   0  0  0  0  0  0  0  0  0  0  0  0
  -21.4680   17.9280   15.6160 C   0  0  0  0  0  0  0  0  0  0  0  0
  -19.2980   18.5520   14.7370 O   0  0  0  0  0  0  0  0  0  0  0  0
  -20.7170   20.2920   15.3270 N   0  0  0  0  0  0  0  0  0  0  0  0
  -21.2690   22.5050   13.2740 C   0  0  0  0  0  0  0  0  0  0  0  0
  -21.7460   23.8880   12.8790 C   0  0  0  0  0  0  0  0  0  0  0  0
  -22.0460   24.1430   11.6830 O   0  0  0  0  0  0  0  0  0  0  0  0
  -21.8440   24.7870   13.7560 O   0  0  0  0  0  0  0  0  0  0  0  0
  -19.1200   21.7060   16.3010 C   0  0  0  0  0  0  0  0  0  0  0  0
  -19.3990   21.0840   17.3650 O   0  0  0  0  0  0  0  0  0  0  0  0
  -18.2360   22.6060   16.3080 O   0  0  0  0  0  0  0  0  0  0  0  0
  -26.0190   17.3590   20.0900 C   0  0  0  0  0  0  0  0  0  0  0  0
  -25.3760   17.1450   18.7220 C   0  0  0  0  0  0  0  0  0  0  0  0
  -25.1700   15.6660   18.4000 C   0  0  0  0  0  0  0  0  0  0  0  0
  -24.6610   15.4260   16.9800 C   0  0  0  0  0  0  0  0  0  0  0  0
  -23.5160   16.2830   16.4940 C   0  0  0  0  0  0  0  0  0  0  0  0
  -20.1281   16.3003   16.1144 H   0  0  0  0  0  0  0  0  0  0  0  0
  -21.9822   14.8099   16.8907 H   0  0  0  0  0  0  0  0  0  0  0  0
  -19.2011   21.1135   14.1870 H   0  0  0  0  0  0  0  0  0  0  0  0
  -21.4891   22.7161   15.3887 H   0  0  0  0  0  0  0  0  0  0  0  0
  -19.9964   23.4691   14.6752 H   0  0  0  0  0  0  0  0  0  0  0  0
  -25.9855   14.8763   21.6883 H   0  0  0  0  0  0  0  0  0  0  0  0
  -23.0047   19.3999   15.2562 H   0  0  0  0  0  0  0  0  0  0  0  0
  -24.8432   17.9152   16.0184 H   0  0  0  0  0  0  0  0  0  0  0  0
  -22.3172   13.9556   25.0954 H   0  0  0  0  0  0  0  0  0  0  0  0
  -23.6367   18.2645   21.4173 H   0  0  0  0  0  0  0  0  0  0  0  0
  -20.8087   15.9628   26.0758 H   0  0  0  0  0  0  0  0  0  0  0  0
  -19.8305   16.1143   24.5917 H   0  0  0  0  0  0  0  0  0  0  0  0
  -21.6531   20.5106   15.6969 H   0  0  0  0  0  0  0  0  0  0  0  0
  -20.5071   22.1542   12.5624 H   0  0  0  0  0  0  0  0  0  0  0  0
  -22.1062   21.7916   13.2640 H   0  0  0  0  0  0  0  0  0  0  0  0
  -22.7844   24.7707   11.4809 H   0  0  0  0  0  0  0  0  0  0  0  0
  -17.8925   22.9557   17.1681 H   0  0  0  0  0  0  0  0  0  0  0  0
  -26.9894   16.8422   20.1242 H   0  0  0  0  0  0  0  0  0  0  0  0
  -26.1713   18.4351   20.2600 H   0  0  0  0  0  0  0  0  0  0  0  0
  -26.0267   17.5866   17.9529 H   0  0  0  0  0  0  0  0  0  0  0  0
  -24.3867   17.6257   18.7377 H   0  0  0  0  0  0  0  0  0  0  0  0
  -24.4375   15.2523   19.1088 H   0  0  0  0  0  0  0  0  0  0  0  0
  -26.1497   15.1729   18.4845 H   0  0  0  0  0  0  0  0  0  0  0  0
  -24.3357   14.3769   16.9198 H   0  0  0  0  0  0  0  0  0  0  0  0
  -25.5070   15.6951   16.3305 H   0  0  0  0  0  0  0  0  0  0  0  0
 18 13  1  0
 14 13  1  0
 14 15  1  0
 13  6  2  0
 17 15  2  0
 15  9  1  0
  6 10  1  0
  9 10  2  0
  9  8  1  0
 10 16  1  0
  8  7  2  0
 16  7  1  0
  7 29  1  0
 29 30  1  0
 30 31  1  0
 31 32  1  0
 27 26  2  0
 32 33  1  0
 28 26  1  0
  2 33  1  0
  2  1  2  0
 33 12  2  0
 26  4  1  0
  1 19  1  0
 12 11  1  0
 11 19  2  0
 19  3  1  0
 21  3  1  0
 21  4  1  0
  3 20  2  0
  4  5  1  0
  5 22  1  0
 25 23  2  0
 22 23  1  0
 23 24  1  0
  1 34  1  0
  2 35  1  0
  4 36  1  0
  5 37  1  0
  5 38  1  0
  8 39  1  0
 11 40  1  0
 12 41  1  0
 14 42  1  0
 16 43  1  0
 18 44  1  0
 18 45  1  0
 21 46  1  0
 22 47  1  0
 22 48  1  0
 24 49  1  0
 28 50  1  0
 29 51  1  0
 29 52  1  0
 30 53  1  0
 30 54  1  0
 31 55  1  0
 31 56  1  0
 32 57  1  0
 32 58  1  0
A    1
C13
A    2
C15
A    3
C17
A    4
C20
A    5
C21
A    6
N1
A    7
C6
A    8
C7
A    9
C8
A   10
C9
A   11
C14
A   12
C16
A   13
C2
A   14
N3
A   15
C4
A   16
N5
A   17
O10
A   18
N11
A   19
C12
A   20
O18
A   21
N19
A   22
C22
A   23
C23
A   24
O24
A   25
O25
A   26
C26
A   27
O27
A   28
O28
A   29
C29
A   30
C30
A   31
C31
A   32
C32
A   33
C33
M  END
