4ZYZ_3YD_A_1102
     RDKit          3D

 54 55  0  0  0  0  0  0  0  0999 V2000
  -22.3710   16.9520   23.8900 N   0  0  0  0  0  0  0  0  0  0  0  0
  -21.9590   15.8880   24.6740 C   0  0  0  0  0  0  0  0  0  0  0  0
  -22.7530   14.7120   24.7690 N   0  0  0  0  0  0  0  0  0  0  0  0
  -23.9090   14.5640   24.0160 C   0  0  0  0  0  0  0  0  0  0  0  0
  -24.2120   17.5770   22.3450 N   0  0  0  0  0  0  0  0  0  0  0  0
  -25.2530   17.0840   21.8790 C   0  0  0  0  0  0  0  0  0  0  0  0
  -25.4060   15.9120   22.3580 C   0  0  0  0  0  0  0  0  0  0  0  0
  -24.3400   15.5890   23.2370 C   0  0  0  0  0  0  0  0  0  0  0  0
  -23.4900   16.8110   23.2030 C   0  0  0  0  0  0  0  0  0  0  0  0
  -24.5030   13.5040   24.1350 O   0  0  0  0  0  0  0  0  0  0  0  0
  -20.7620   15.9810   25.4380 N   0  0  0  0  0  0  0  0  0  0  0  0
  -22.0020   18.2750   16.9360 C   0  0  0  0  0  0  0  0  0  0  0  0
  -22.9680   17.0750   17.0780 C   0  0  0  0  0  0  0  0  0  0  0  0
  -24.3690   17.5320   17.5560 C   0  0  0  0  0  0  0  0  0  0  0  0
  -24.4900   17.3780   19.0800 C   0  0  0  0  0  0  0  0  0  0  0  0
  -25.9710   17.2130   19.4750 C   0  0  0  0  0  0  0  0  0  0  0  0
  -20.9210   17.9100   15.8870 C   0  0  0  0  0  0  0  0  0  0  0  0
  -20.9900   16.8060   15.3940 O   0  0  0  0  0  0  0  0  0  0  0  0
  -19.8350   18.7720   15.4440 N   0  0  0  0  0  0  0  0  0  0  0  0
  -19.4910   20.1260   15.8410 C   0  0  0  0  0  0  0  0  0  0  0  0
  -20.6340   21.0930   15.6850 C   0  0  0  0  0  0  0  0  0  0  0  0
  -20.8270   21.5460   14.2420 C   0  0  0  0  0  0  0  0  0  0  0  0
  -22.1120   22.3490   14.1730 C   0  0  0  0  0  0  0  0  0  0  0  0
  -23.1860   21.7870   13.8230 O   0  0  0  0  0  0  0  0  0  0  0  0
  -22.1110   23.5730   14.4680 O   0  0  0  0  0  0  0  0  0  0  0  0
  -18.9660   20.1940   17.2540 C   0  0  0  0  0  0  0  0  0  0  0  0
  -17.8200   19.7580   17.5160 O   0  0  0  0  0  0  0  0  0  0  0  0
  -19.6650   20.7090   18.1700 O   0  0  0  0  0  0  0  0  0  0  0  0
  -26.2180   17.7620   20.8900 C   0  0  0  0  0  0  0  0  0  0  0  0
  -22.4650   13.9571   25.4078 H   0  0  0  0  0  0  0  0  0  0  0  0
  -23.9090   18.5280   22.0909 H   0  0  0  0  0  0  0  0  0  0  0  0
  -26.2477   15.2441   22.1224 H   0  0  0  0  0  0  0  0  0  0  0  0
  -20.8063   15.9776   26.4670 H   0  0  0  0  0  0  0  0  0  0  0  0
  -19.8514   16.0518   24.9619 H   0  0  0  0  0  0  0  0  0  0  0  0
  -21.5244   18.4843   17.9045 H   0  0  0  0  0  0  0  0  0  0  0  0
  -22.5549   19.1698   16.6140 H   0  0  0  0  0  0  0  0  0  0  0  0
  -23.0673   16.5778   16.1018 H   0  0  0  0  0  0  0  0  0  0  0  0
  -22.5545   16.3839   17.8272 H   0  0  0  0  0  0  0  0  0  0  0  0
  -24.5181   18.5876   17.2851 H   0  0  0  0  0  0  0  0  0  0  0  0
  -25.1335   16.9066   17.0718 H   0  0  0  0  0  0  0  0  0  0  0  0
  -23.9254   16.4909   19.4029 H   0  0  0  0  0  0  0  0  0  0  0  0
  -24.0830   18.2758   19.5681 H   0  0  0  0  0  0  0  0  0  0  0  0
  -26.5995   17.7629   18.7591 H   0  0  0  0  0  0  0  0  0  0  0  0
  -26.2249   16.1428   19.4605 H   0  0  0  0  0  0  0  0  0  0  0  0
  -19.2120   18.3559   14.7372 H   0  0  0  0  0  0  0  0  0  0  0  0
  -18.6903   20.4284   15.1500 H   0  0  0  0  0  0  0  0  0  0  0  0
  -20.4346   21.9773   16.3080 H   0  0  0  0  0  0  0  0  0  0  0  0
  -21.5530   20.5752   15.9970 H   0  0  0  0  0  0  0  0  0  0  0  0
  -20.8983   20.6693   13.5815 H   0  0  0  0  0  0  0  0  0  0  0  0
  -19.9741   22.1593   13.9157 H   0  0  0  0  0  0  0  0  0  0  0  0
  -22.1108   23.8533   15.4175 H   0  0  0  0  0  0  0  0  0  0  0  0
  -19.4382   20.5419   19.1191 H   0  0  0  0  0  0  0  0  0  0  0  0
  -26.0465   18.8485   20.8969 H   0  0  0  0  0  0  0  0  0  0  0  0
  -27.2558   17.5527   21.1885 H   0  0  0  0  0  0  0  0  0  0  0  0
 24 23  2  0
 23 22  1  0
 23 25  1  0
 22 21  1  0
 18 17  2  0
 19 20  1  0
 19 17  1  0
 21 20  1  0
 20 26  1  0
 17 12  1  0
 12 13  1  0
 13 14  1  0
 26 27  2  0
 26 28  1  0
 14 15  1  0
 15 16  1  0
 16 29  1  0
 29  6  1  0
  6  5  1  0
  6  7  2  0
  5  9  1  0
  7  8  1  0
  9  8  2  0
  9  1  1  0
  8  4  1  0
  1  2  2  0
  4 10  2  0
  4  3  1  0
  2  3  1  0
  2 11  1  0
  3 30  1  0
  5 31  1  0
  7 32  1  0
 11 33  1  0
 11 34  1  0
 12 35  1  0
 12 36  1  0
 13 37  1  0
 13 38  1  0
 14 39  1  0
 14 40  1  0
 15 41  1  0
 15 42  1  0
 16 43  1  0
 16 44  1  0
 19 45  1  0
 20 46  1  0
 21 47  1  0
 21 48  1  0
 22 49  1  0
 22 50  1  0
 25 51  1  0
 28 52  1  0
 29 53  1  0
 29 54  1  0
A    1
N1
A    2
C2
A    3
N3
A    4
C4
A    5
N5
A    6
C6
A    7
C7
A    8
C8
A    9
C9
A   10
O10
A   11
N11
A   12
C12
A   13
C13
A   14
C14
A   15
C15
A   16
C16
A   17
C17
A   18
O18
A   19
N19
A   20
C20
A   21
C21
A   22
C22
A   23
C23
A   24
O24
A   25
O25
A   26
C26
A   27
O27
A   28
O28
A   29
C29
M  END
