4ZZ2_3YG_A_1102
     RDKit          3D

 52 54  0  0  0  0  0  0  0  0999 V2000
   49.8180   11.0110   26.6430 N   0  0  0  0  0  0  0  0  0  0  0  0
   50.8700   11.1690   25.8560 C   0  0  0  0  0  0  0  0  0  0  0  0
   51.5040   12.3520   25.7390 N   0  0  0  0  0  0  0  0  0  0  0  0
   51.0970   13.4490   26.4030 C   0  0  0  0  0  0  0  0  0  0  0  0
   48.1930   13.3620   28.6800 C   0  0  0  0  0  0  0  0  0  0  0  0
   49.9580   13.3290   27.2620 C   0  0  0  0  0  0  0  0  0  0  0  0
   48.3070   12.1170   28.1980 N   0  0  0  0  0  0  0  0  0  0  0  0
   49.2070   14.1820   28.1260 C   0  0  0  0  0  0  0  0  0  0  0  0
   49.3320   12.0560   27.3510 C   0  0  0  0  0  0  0  0  0  0  0  0
   51.6990   14.5170   26.2720 O   0  0  0  0  0  0  0  0  0  0  0  0
   51.3530   10.0700   25.1370 N   0  0  0  0  0  0  0  0  0  0  0  0
   49.2810   11.3710   32.9680 C   0  0  0  0  0  0  0  0  0  0  0  0
   50.0990   10.8740   34.0160 C   0  0  0  0  0  0  0  0  0  0  0  0
   51.1130   11.6870   34.4210 C   0  0  0  0  0  0  0  0  0  0  0  0
   50.9840   13.0760   33.4410 S   0  0  0  0  0  0  0  0  0  0  0  0
   49.6340   12.6090   32.5180 C   0  0  0  0  0  0  0  0  0  0  0  0
   49.8830    9.5870   34.6240 C   0  0  0  0  0  0  0  0  0  0  0  0
   50.7560    9.0760   35.3600 O   0  0  0  0  0  0  0  0  0  0  0  0
   48.6570    8.8760   34.3830 N   0  0  0  0  0  0  0  0  0  0  0  0
   48.4340    7.5890   34.9810 C   0  0  0  0  0  0  0  0  0  0  0  0
   47.1980    7.6060   35.8030 C   0  0  0  0  0  0  0  0  0  0  0  0
   47.1960    8.7440   36.8140 C   0  0  0  0  0  0  0  0  0  0  0  0
   45.8930    8.7750   37.6510 C   0  0  0  0  0  0  0  0  0  0  0  0
   45.3810    7.6770   38.0730 O   0  0  0  0  0  0  0  0  0  0  0  0
   45.3110    9.9160   37.9230 O   0  0  0  0  0  0  0  0  0  0  0  0
   48.2720    6.5320   33.8830 C   0  0  0  0  0  0  0  0  0  0  0  0
   48.5640    5.2920   34.1480 O   0  0  0  0  0  0  0  0  0  0  0  0
   47.8480    6.8720   32.7190 O   0  0  0  0  0  0  0  0  0  0  0  0
   47.1190   13.7740   29.7200 C   0  0  0  0  0  0  0  0  0  0  0  0
   47.5410   13.0970   31.0850 C   0  0  0  0  0  0  0  0  0  0  0  0
   49.0060   13.4150   31.4180 C   0  0  0  0  0  0  0  0  0  0  0  0
   52.3260   12.4186   25.1219 H   0  0  0  0  0  0  0  0  0  0  0  0
   47.6943   11.3269   28.4454 H   0  0  0  0  0  0  0  0  0  0  0  0
   49.3793   15.2508   28.3206 H   0  0  0  0  0  0  0  0  0  0  0  0
   51.7152    9.2459   25.6376 H   0  0  0  0  0  0  0  0  0  0  0  0
   51.3464   10.0851   24.1071 H   0  0  0  0  0  0  0  0  0  0  0  0
   48.4336   10.8052   32.5536 H   0  0  0  0  0  0  0  0  0  0  0  0
   51.8545   11.4904   35.2093 H   0  0  0  0  0  0  0  0  0  0  0  0
   47.9344    9.2917   33.7781 H   0  0  0  0  0  0  0  0  0  0  0  0
   49.2972    7.3490   35.6192 H   0  0  0  0  0  0  0  0  0  0  0  0
   46.3308    7.7227   35.1365 H   0  0  0  0  0  0  0  0  0  0  0  0
   47.1498    6.6588   36.3603 H   0  0  0  0  0  0  0  0  0  0  0  0
   48.0516    8.6167   37.4936 H   0  0  0  0  0  0  0  0  0  0  0  0
   47.2658    9.6912   36.2591 H   0  0  0  0  0  0  0  0  0  0  0  0
   45.3026    7.5089   39.0455 H   0  0  0  0  0  0  0  0  0  0  0  0
   48.6351    4.9902   35.0882 H   0  0  0  0  0  0  0  0  0  0  0  0
   47.0944   14.8683   29.8291 H   0  0  0  0  0  0  0  0  0  0  0  0
   46.1149   13.4516   29.4072 H   0  0  0  0  0  0  0  0  0  0  0  0
   46.8966   13.4774   31.8912 H   0  0  0  0  0  0  0  0  0  0  0  0
   47.4285   12.0070   30.9890 H   0  0  0  0  0  0  0  0  0  0  0  0
   49.5986   13.2535   30.5055 H   0  0  0  0  0  0  0  0  0  0  0  0
   49.0025   14.4525   31.7835 H   0  0  0  0  0  0  0  0  0  0  0  0
 11  2  1  0
  3  2  1  0
  3  4  1  0
  2  1  2  0
 10  4  2  0
  4  6  1  0
  1  9  1  0
  6  9  2  0
  6  8  1  0
  9  7  1  0
  8  5  2  0
  7  5  1  0
  5 29  1  0
 29 30  1  0
 30 31  1  0
 31 16  1  0
 16 12  2  0
 16 15  1  0
 28 26  2  0
 12 13  1  0
 15 14  1  0
 26 27  1  0
 26 20  1  0
 13 14  2  0
 13 17  1  0
 19 17  1  0
 19 20  1  0
 17 18  2  0
 20 21  1  0
 21 22  1  0
 22 23  1  0
 23 25  2  0
 23 24  1  0
  3 32  1  0
  7 33  1  0
  8 34  1  0
 11 35  1  0
 11 36  1  0
 12 37  1  0
 14 38  1  0
 19 39  1  0
 20 40  1  0
 21 41  1  0
 21 42  1  0
 22 43  1  0
 22 44  1  0
 24 45  1  0
 27 46  1  0
 29 47  1  0
 29 48  1  0
 30 49  1  0
 30 50  1  0
 31 51  1  0
 31 52  1  0
A    1
N1
A    2
C2
A    3
N3
A    4
C4
A    5
C6
A    6
C8
A    7
N5
A    8
C7
A    9
C9
A   10
O10
A   11
N11
A   12
C12
A   13
C13
A   14
C14
A   15
S15
A   16
C16
A   17
C17
A   18
O18
A   19
N19
A   20
C20
A   21
C21
A   22
C22
A   23
C23
A   24
O24
A   25
O25
A   26
C26
A   27
O27
A   28
O28
A   29
C29
A   30
C30
A   31
C31
M  END
