4ZZ3_4DW_A_1101
     RDKit          3D

 50 52  0  0  0  0  0  0  0  0999 V2000
   62.1970   48.2070   18.6850 C   0  0  0  0  0  0  0  0  0  0  0  0
   61.0110   48.9110   18.8520 C   0  0  0  0  0  0  0  0  0  0  0  0
   59.8670   48.5330   18.1590 C   0  0  0  0  0  0  0  0  0  0  0  0
   59.9370   47.4440   17.3000 C   0  0  0  0  0  0  0  0  0  0  0  0
   61.1170   46.7320   17.1240 C   0  0  0  0  0  0  0  0  0  0  0  0
   62.2570   47.1190   17.8210 C   0  0  0  0  0  0  0  0  0  0  0  0
   63.4070   48.6700   19.4680 C   0  0  0  0  0  0  0  0  0  0  0  0
   63.4080   48.5630   20.9790 C   0  0  0  0  0  0  0  0  0  0  0  0
   62.3130   47.6790   21.5400 C   0  0  0  0  0  0  0  0  0  0  0  0
   62.1410   46.3270   21.2800 C   0  0  0  0  0  0  0  0  0  0  0  0
   61.0620   45.9180   21.9630 N   0  0  0  0  0  0  0  0  0  0  0  0
   60.5400   46.9450   22.6480 C   0  0  0  0  0  0  0  0  0  0  0  0
   61.3020   48.0750   22.4060 C   0  0  0  0  0  0  0  0  0  0  0  0
   60.9450   49.2670   23.0190 C   0  0  0  0  0  0  0  0  0  0  0  0
   61.5940   50.2830   22.8290 O   0  0  0  0  0  0  0  0  0  0  0  0
   59.8750   49.3020   23.8250 N   0  0  0  0  0  0  0  0  0  0  0  0
   59.1520   48.1920   24.0430 C   0  0  0  0  0  0  0  0  0  0  0  0
   59.4800   47.0270   23.4620 N   0  0  0  0  0  0  0  0  0  0  0  0
   58.0210   48.2330   24.8980 N   0  0  0  0  0  0  0  0  0  0  0  0
   58.6530   47.0500   16.5490 C   0  0  0  0  0  0  0  0  0  0  0  0
   57.6690   47.7540   16.6490 O   0  0  0  0  0  0  0  0  0  0  0  0
   58.6620   45.8700   15.7620 N   0  0  0  0  0  0  0  0  0  0  0  0
   57.4700   45.5120   15.0800 C   0  0  0  0  0  0  0  0  0  0  0  0
   57.7440   44.9000   13.7220 C   0  0  0  0  0  0  0  0  0  0  0  0
   59.0230   44.1090   13.5680 C   0  0  0  0  0  0  0  0  0  0  0  0
   59.1360   43.1580   12.3960 C   0  0  0  0  0  0  0  0  0  0  0  0
   58.2000   43.0850   11.5580 O   0  0  0  0  0  0  0  0  0  0  0  0
   60.1640   42.4430   12.2640 O   0  0  0  0  0  0  0  0  0  0  0  0
   56.7810   44.4820   15.9500 C   0  0  0  0  0  0  0  0  0  0  0  0
   56.2460   44.8720   17.0220 O   0  0  0  0  0  0  0  0  0  0  0  0
   56.7480   43.2710   15.6070 O   0  0  0  0  0  0  0  0  0  0  0  0
   60.9772   49.7718   19.5360 H   0  0  0  0  0  0  0  0  0  0  0  0
   58.9247   49.0855   18.2884 H   0  0  0  0  0  0  0  0  0  0  0  0
   61.1495   45.8709   16.4403 H   0  0  0  0  0  0  0  0  0  0  0  0
   63.1999   46.5679   17.6895 H   0  0  0  0  0  0  0  0  0  0  0  0
   64.2647   48.0841   19.1060 H   0  0  0  0  0  0  0  0  0  0  0  0
   63.4296   49.7549   19.2876 H   0  0  0  0  0  0  0  0  0  0  0  0
   64.3784   48.1526   21.2951 H   0  0  0  0  0  0  0  0  0  0  0  0
   63.2265   49.5759   21.3676 H   0  0  0  0  0  0  0  0  0  0  0  0
   62.7745   45.7040   20.6315 H   0  0  0  0  0  0  0  0  0  0  0  0
   60.6898   44.9576   21.9615 H   0  0  0  0  0  0  0  0  0  0  0  0
   58.9107   46.1882   23.6442 H   0  0  0  0  0  0  0  0  0  0  0  0
   58.1477   48.2284   25.9202 H   0  0  0  0  0  0  0  0  0  0  0  0
   57.0730   48.2674   24.4967 H   0  0  0  0  0  0  0  0  0  0  0  0
   59.5095   45.2894   15.6876 H   0  0  0  0  0  0  0  0  0  0  0  0
   56.8590   46.4106   14.9088 H   0  0  0  0  0  0  0  0  0  0  0  0
   57.0426   45.0257   12.8840 H   0  0  0  0  0  0  0  0  0  0  0  0
   59.8478   44.2214   14.2871 H   0  0  0  0  0  0  0  0  0  0  0  0
   60.6419   42.1106   13.0647 H   0  0  0  0  0  0  0  0  0  0  0  0
   56.6253   44.5955   17.8937 H   0  0  0  0  0  0  0  0  0  0  0  0
 27 26  2  0
 28 26  1  0
 26 25  1  0
 25 24  2  0
 24 23  1  0
 23 22  1  0
 23 29  1  0
 31 29  2  0
 22 20  1  0
 29 30  1  0
 20 21  2  0
 20  4  1  0
  5  4  2  0
  5  6  1  0
  4  3  1  0
  6  1  2  0
  3  2  2  0
  1  2  1  0
  1  7  1  0
  7  8  1  0
  8  9  1  0
 10  9  2  0
 10 11  1  0
  9 13  1  0
 11 12  1  0
 13 12  2  0
 13 14  1  0
 12 18  1  0
 15 14  2  0
 14 16  1  0
 18 17  1  0
 16 17  2  0
 17 19  1  0
  2 32  1  0
  3 33  1  0
  5 34  1  0
  6 35  1  0
  7 36  1  0
  7 37  1  0
  8 38  1  0
  8 39  1  0
 10 40  1  0
 11 41  1  0
 18 42  1  0
 19 43  1  0
 19 44  1  0
 22 45  1  0
 23 46  1  0
 24 47  1  0
 25 48  1  0
 28 49  1  0
 30 50  1  0
A    1
C1
A    2
C2
A    3
C3
A    4
C4
A    5
C5
A    6
C6
A    7
C7
A    8
C8
A    9
C9
A   10
C10
A   11
N11
A   12
C12
A   13
C13
A   14
C14
A   15
O15
A   16
N16
A   17
C17
A   18
N18
A   19
N19
A   20
C20
A   21
O21
A   22
N22
A   23
C23
A   24
C24
A   25
C25
A   26
C26
A   27
O27
A   28
O28
A   29
C29
A   30
O30
A   31
O31
M  END
