4ZZY_D7N_A_1584
     RDKit          3D

 52 55  0  0  0  0  0  0  0  0999 V2000
   21.2570  -29.4540    7.6200 C   0  0  0  0  0  0  0  0  0  0  0  0
   20.1070  -30.0100    8.5140 C   0  0  0  0  0  0  0  0  0  0  0  0
   18.6810  -29.7450    7.9260 C   0  0  0  0  0  0  0  0  0  0  0  0
   17.7050  -30.1520    8.6670 F   0  0  0  0  0  0  0  0  0  0  0  0
   18.4160  -30.3980    6.8590 F   0  0  0  0  0  0  0  0  0  0  0  0
   18.5110  -28.2900    7.5070 C   0  0  0  0  0  0  0  0  0  0  0  0
   19.6470  -27.8200    6.5800 C   0  0  0  0  0  0  0  0  0  0  0  0
   20.9660  -27.9390    7.3760 C   0  0  0  0  0  0  0  0  0  0  0  0
   22.0620  -27.1500    6.7560 N   0  0  0  0  0  0  0  0  0  0  0  0
   22.2570  -27.2680    5.2740 C   0  0  0  0  0  0  0  0  0  0  0  0
   23.4980  -26.4740    4.7950 C   0  0  0  0  0  0  0  0  0  0  0  0
   21.9110  -25.7550    7.1810 C   0  0  0  0  0  0  0  0  0  0  0  0
   23.1540  -25.0180    6.8950 C   0  0  0  0  0  0  0  0  0  0  0  0
   23.4260  -25.0170    5.4010 C   0  0  0  0  0  0  0  0  0  0  0  0
   24.6880  -24.3310    5.1590 N   0  0  0  0  0  0  0  0  0  0  0  0
   25.9330  -24.3600    5.9540 C   0  0  0  0  0  0  0  0  0  0  0  0
   24.9560  -23.6270    4.0790 C   0  0  0  0  0  0  0  0  0  0  0  0
   24.0400  -23.4190    3.2990 O   0  0  0  0  0  0  0  0  0  0  0  0
   26.2070  -23.0530    4.0740 C   0  0  0  0  0  0  0  0  0  0  0  0
   26.8010  -23.4860    5.2360 C   0  0  0  0  0  0  0  0  0  0  0  0
   28.0500  -23.1060    5.5820 C   0  0  0  0  0  0  0  0  0  0  0  0
   28.7790  -22.2470    4.7730 C   0  0  0  0  0  0  0  0  0  0  0  0
   30.0470  -21.9090    5.1640 F   0  0  0  0  0  0  0  0  0  0  0  0
   28.2190  -21.7760    3.5720 C   0  0  0  0  0  0  0  0  0  0  0  0
   26.9040  -22.1800    3.2220 C   0  0  0  0  0  0  0  0  0  0  0  0
   26.4380  -21.6560    1.9810 C   0  0  0  0  0  0  0  0  0  0  0  0
   27.1910  -20.9540    1.2710 O   0  0  0  0  0  0  0  0  0  0  0  0
   25.2310  -22.0420    1.5590 N   0  0  0  0  0  0  0  0  0  0  0  0
   22.2231  -29.5738    8.1321 H   0  0  0  0  0  0  0  0  0  0  0  0
   21.3063  -29.9992    6.6659 H   0  0  0  0  0  0  0  0  0  0  0  0
   20.2434  -31.0961    8.6225 H   0  0  0  0  0  0  0  0  0  0  0  0
   20.1633  -29.4861    9.4796 H   0  0  0  0  0  0  0  0  0  0  0  0
   17.5530  -28.1826    6.9772 H   0  0  0  0  0  0  0  0  0  0  0  0
   18.5352  -27.6699    8.4152 H   0  0  0  0  0  0  0  0  0  0  0  0
   19.6893  -28.4560    5.6835 H   0  0  0  0  0  0  0  0  0  0  0  0
   19.4804  -26.7828    6.2536 H   0  0  0  0  0  0  0  0  0  0  0  0
   20.8761  -27.4756    8.3696 H   0  0  0  0  0  0  0  0  0  0  0  0
   22.3907  -28.3287    5.0153 H   0  0  0  0  0  0  0  0  0  0  0  0
   21.3693  -26.8501    4.7767 H   0  0  0  0  0  0  0  0  0  0  0  0
   24.4146  -26.9745    5.1403 H   0  0  0  0  0  0  0  0  0  0  0  0
   23.5126  -26.4247    3.6962 H   0  0  0  0  0  0  0  0  0  0  0  0
   21.0764  -25.2930    6.6333 H   0  0  0  0  0  0  0  0  0  0  0  0
   21.7042  -25.7207    8.2608 H   0  0  0  0  0  0  0  0  0  0  0  0
   23.0517  -23.9809    7.2472 H   0  0  0  0  0  0  0  0  0  0  0  0
   23.9913  -25.5077    7.4138 H   0  0  0  0  0  0  0  0  0  0  0  0
   22.5900  -24.5013    4.9058 H   0  0  0  0  0  0  0  0  0  0  0  0
   25.7574  -23.9898    6.9748 H   0  0  0  0  0  0  0  0  0  0  0  0
   26.3444  -25.3732    6.0728 H   0  0  0  0  0  0  0  0  0  0  0  0
   28.4940  -23.4819    6.5156 H   0  0  0  0  0  0  0  0  0  0  0  0
   28.7910  -21.1051    2.9142 H   0  0  0  0  0  0  0  0  0  0  0  0
   24.4972  -22.2767    2.2426 H   0  0  0  0  0  0  0  0  0  0  0  0
   25.0340  -22.1050    0.5500 H   0  0  0  0  0  0  0  0  0  0  0  0
  1  2  1  0
  1  8  1  0
  2  3  1  0
  3  4  1  0
  3  5  1  0
  3  6  1  0
  6  7  1  0
  7  8  1  0
  8  9  1  0
  9 10  1  0
  9 12  1  0
 10 11  1  0
 11 14  1  0
 12 13  1  0
 13 14  1  0
 14 15  1  0
 15 16  1  0
 15 17  1  0
 16 20  1  0
 17 18  2  0
 17 19  1  0
 19 20  2  0
 19 25  1  0
 20 21  1  0
 21 22  2  0
 22 23  1  0
 22 24  1  0
 24 25  2  0
 25 26  1  0
 26 27  2  0
 26 28  1  0
  1 29  1  0
  1 30  1  0
  2 31  1  0
  2 32  1  0
  6 33  1  0
  6 34  1  0
  7 35  1  0
  7 36  1  0
  8 37  1  0
 10 38  1  0
 10 39  1  0
 11 40  1  0
 11 41  1  0
 12 42  1  0
 12 43  1  0
 13 44  1  0
 13 45  1  0
 14 46  1  0
 16 47  1  0
 16 48  1  0
 21 49  1  0
 24 50  1  0
 28 51  1  0
 28 52  1  0
A    1
C25
A    2
C24
A    3
C23
A    4
F26
A    5
F27
A    6
C22
A    7
C21
A    8
C20
A    9
N16
A   10
C15
A   11
C14
A   12
C17
A   13
C18
A   14
C13
A   15
N10
A   16
C9
A   17
C11
A   18
O12
A   19
C7
A   20
C8
A   21
C3
A   22
C2
A   23
F5
A   24
C1
A   25
C4
A   26
C6
A   27
O28
A   28
N19
M  END
