5A0C_JJV_A_1001
     RDKit          3D

 47 49  0  0  0  0  0  0  0  0999 V2000
   23.1470   12.9820   14.9970 C   0  0  0  0  0  0  0  0  0  0  0  0
   24.3750   12.5690   14.1120 S   0  0  0  0  0  0  0  0  0  0  0  0
   25.7640   13.1560   14.0450 O   0  0  0  0  0  0  0  0  0  0  0  0
   24.8080   11.1350   14.5660 O   0  0  0  0  0  0  0  0  0  0  0  0
   23.8270   12.3390   12.4290 C   0  0  0  0  0  0  0  0  0  0  0  0
   24.7640   12.6860   11.4340 C   0  0  0  0  0  0  0  0  0  0  0  0
   24.3910   12.5200   10.1000 C   0  0  0  0  0  0  0  0  0  0  0  0
   25.2410   12.8320    9.0210 C   0  0  0  0  0  0  0  0  0  0  0  0
   25.9160   13.0520    8.1520 N   0  0  0  0  0  0  0  0  0  0  0  0
   23.1560   12.0310    9.7980 C   0  0  0  0  0  0  0  0  0  0  0  0
   22.2100   11.7490   10.7590 C   0  0  0  0  0  0  0  0  0  0  0  0
   22.5250   11.9070   12.1170 C   0  0  0  0  0  0  0  0  0  0  0  0
   21.3560   11.6200   13.1480 C   0  0  0  0  0  0  0  0  0  0  0  0
   20.6470   10.2910   12.9980 C   0  0  0  0  0  0  0  0  0  0  0  0
   19.4260   10.2030   12.4390 C   0  0  0  0  0  0  0  0  0  0  0  0
   18.7770    8.8050   12.2520 C   0  0  0  0  0  0  0  0  0  0  0  0
   21.4350    9.2130   13.3590 C   0  0  0  0  0  0  0  0  0  0  0  0
   22.0680    8.3220   13.6370 N   0  0  0  0  0  0  0  0  0  0  0  0
   20.4340   12.7700   12.8890 N   0  0  0  0  0  0  0  0  0  0  0  0
   19.2400   12.5950   12.2770 C   0  0  0  0  0  0  0  0  0  0  0  0
   18.4960   13.5370   12.0370 O   0  0  0  0  0  0  0  0  0  0  0  0
   18.7180   11.3160   12.1520 N   0  0  0  0  0  0  0  0  0  0  0  0
   17.5400   11.2660   11.4300 C   0  0  0  0  0  0  0  0  0  0  0  0
   17.6670   11.1000   10.0560 C   0  0  0  0  0  0  0  0  0  0  0  0
   16.2810   11.3630   11.9820 C   0  0  0  0  0  0  0  0  0  0  0  0
   15.1880   11.3890   11.1600 C   0  0  0  0  0  0  0  0  0  0  0  0
   15.2790   11.1520    9.7550 C   0  0  0  0  0  0  0  0  0  0  0  0
   16.5530   11.0130    9.1950 C   0  0  0  0  0  0  0  0  0  0  0  0
   16.7100   10.8520    7.6800 C   0  0  0  0  0  0  0  0  0  0  0  0
   15.6230   10.2570    7.1730 F   0  0  0  0  0  0  0  0  0  0  0  0
   16.7070   12.0020    7.0530 F   0  0  0  0  0  0  0  0  0  0  0  0
   17.7870   10.2100    7.2760 F   0  0  0  0  0  0  0  0  0  0  0  0
   23.4145   12.8920   16.0602 H   0  0  0  0  0  0  0  0  0  0  0  0
   22.8691   14.0230   14.7756 H   0  0  0  0  0  0  0  0  0  0  0  0
   22.2965   12.3205   14.7756 H   0  0  0  0  0  0  0  0  0  0  0  0
   25.7575   13.0752   11.7012 H   0  0  0  0  0  0  0  0  0  0  0  0
   22.9034   11.8538    8.7422 H   0  0  0  0  0  0  0  0  0  0  0  0
   21.2097   11.4007   10.4622 H   0  0  0  0  0  0  0  0  0  0  0  0
   21.7421   11.5404   14.1749 H   0  0  0  0  0  0  0  0  0  0  0  0
   18.5711    8.3616   13.2374 H   0  0  0  0  0  0  0  0  0  0  0  0
   17.8354    8.9097   11.6931 H   0  0  0  0  0  0  0  0  0  0  0  0
   19.4647    8.1533   11.6931 H   0  0  0  0  0  0  0  0  0  0  0  0
   20.7147   13.7163   13.1833 H   0  0  0  0  0  0  0  0  0  0  0  0
   18.6760   11.0339    9.6228 H   0  0  0  0  0  0  0  0  0  0  0  0
   16.1562   11.4190   13.0735 H   0  0  0  0  0  0  0  0  0  0  0  0
   14.2014   11.6005   11.5981 H   0  0  0  0  0  0  0  0  0  0  0  0
   14.3751   11.0809    9.1322 H   0  0  0  0  0  0  0  0  0  0  0  0
  1  2  1  0
  2  3  2  0
  2  4  2  0
  2  5  1  0
  5  6  2  0
  5 12  1  0
  6  7  1  0
  7  8  1  0
  7 10  2  0
  8  9  3  0
 10 11  1  0
 11 12  2  0
 12 13  1  0
 13 14  1  0
 13 19  1  0
 14 15  2  0
 14 17  1  0
 15 16  1  0
 15 22  1  0
 17 18  3  0
 19 20  1  0
 20 21  2  0
 20 22  1  0
 22 23  1  0
 23 24  2  0
 23 25  1  0
 24 28  1  0
 25 26  2  0
 26 27  1  0
 27 28  2  0
 28 29  1  0
 29 30  1  0
 29 31  1  0
 29 32  1  0
  1 33  1  0
  1 34  1  0
  1 35  1  0
  6 36  1  0
 10 37  1  0
 11 38  1  0
 13 39  1  0
 16 40  1  0
 16 41  1  0
 16 42  1  0
 19 43  1  0
 24 44  1  0
 25 45  1  0
 26 46  1  0
 27 47  1  0
A    1
C28
A    2
S26
A    3
O27
A    4
O29
A    5
C4
A    6
C2
A    7
C1
A    8
C31
A    9
N30
A   10
C3
A   11
C5
A   12
C6
A   13
C22
A   14
C9
A   15
C11
A   16
C25
A   17
C24
A   18
N32
A   19
N7
A   20
C8
A   21
O23
A   22
N10
A   23
C12
A   24
C13
A   25
C14
A   26
C16
A   27
C17
A   28
C15
A   29
C18
A   30
F20
A   31
F21
A   32
F19
M  END
