5A1L_S2I_A_2267
     RDKit          3D

 53 56  0  0  0  0  0  0  0  0999 V2000
  -15.5050   51.4600   26.5700 C   0  0  0  0  0  0  0  0  0  0  0  0
  -15.1080   52.1610   25.2760 C   0  0  0  0  0  0  0  0  0  0  0  0
  -13.8480   51.5970   24.8480 N   0  0  0  0  0  0  0  0  0  0  0  0
  -12.5640   52.0120   25.2750 C   0  0  0  0  0  0  0  0  0  0  0  0
  -12.3030   53.0540   26.2270 C   0  0  0  0  0  0  0  0  0  0  0  0
  -10.9550   53.3720   26.5510 C   0  0  0  0  0  0  0  0  0  0  0  0
   -9.9650   52.6510   25.9410 N   0  0  0  0  0  0  0  0  0  0  0  0
  -10.2430   51.6630   25.0510 C   0  0  0  0  0  0  0  0  0  0  0  0
   -9.1900   50.9380   24.4300 C   0  0  0  0  0  0  0  0  0  0  0  0
   -7.8380   51.1690   24.7830 C   0  0  0  0  0  0  0  0  0  0  0  0
   -6.8360   50.4310   24.1630 C   0  0  0  0  0  0  0  0  0  0  0  0
   -7.2160   49.4850   23.2160 C   0  0  0  0  0  0  0  0  0  0  0  0
   -8.5640   49.2970   22.9130 C   0  0  0  0  0  0  0  0  0  0  0  0
   -9.5100   50.0300   23.5210 N   0  0  0  0  0  0  0  0  0  0  0  0
  -11.5270   51.3700   24.7280 N   0  0  0  0  0  0  0  0  0  0  0  0
  -10.5360   54.4060   27.5000 N   0  0  0  0  0  0  0  0  0  0  0  0
   -9.1290   54.6930   27.5240 C   0  0  0  0  0  0  0  0  0  0  0  0
   -8.6960   55.5720   26.3250 C   0  0  0  0  0  0  0  0  0  0  0  0
   -9.1040   57.0400   26.4330 C   0  0  0  0  0  0  0  0  0  0  0  0
   -8.0860   58.0470   26.3720 C   0  0  0  0  0  0  0  0  0  0  0  0
   -8.4100   59.3930   26.4650 C   0  0  0  0  0  0  0  0  0  0  0  0
   -9.7430   59.8070   26.6270 C   0  0  0  0  0  0  0  0  0  0  0  0
  -10.7400   58.8290   26.6800 C   0  0  0  0  0  0  0  0  0  0  0  0
  -10.4160   57.4390   26.5810 C   0  0  0  0  0  0  0  0  0  0  0  0
  -11.5640   56.4350   26.6370 C   0  0  0  0  0  0  0  0  0  0  0  0
  -11.4940   55.4280   27.7670 C   0  0  0  0  0  0  0  0  0  0  0  0
  -16.6920   52.1360   27.2640 C   0  0  0  0  0  0  0  0  0  0  0  0
  -17.9160   51.9460   26.5220 O   0  0  0  0  0  0  0  0  0  0  0  0
  -15.7777   50.4198   26.3382 H   0  0  0  0  0  0  0  0  0  0  0  0
  -14.6453   51.5102   27.2543 H   0  0  0  0  0  0  0  0  0  0  0  0
  -15.8759   51.9930   24.5065 H   0  0  0  0  0  0  0  0  0  0  0  0
  -15.0142   53.2454   25.4347 H   0  0  0  0  0  0  0  0  0  0  0  0
  -13.8881   50.8223   24.1704 H   0  0  0  0  0  0  0  0  0  0  0  0
  -13.1337   53.5989   26.6993 H   0  0  0  0  0  0  0  0  0  0  0  0
   -7.5832   51.9250   25.5403 H   0  0  0  0  0  0  0  0  0  0  0  0
   -5.7767   50.5899   24.4131 H   0  0  0  0  0  0  0  0  0  0  0  0
   -6.4502   48.8833   22.7046 H   0  0  0  0  0  0  0  0  0  0  0  0
   -8.8549   48.5410   22.1688 H   0  0  0  0  0  0  0  0  0  0  0  0
   -8.8906   55.2235   28.4577 H   0  0  0  0  0  0  0  0  0  0  0  0
   -8.5863   53.7384   27.4591 H   0  0  0  0  0  0  0  0  0  0  0  0
   -7.6000   55.5256   26.2436 H   0  0  0  0  0  0  0  0  0  0  0  0
   -9.2117   55.1692   25.4408 H   0  0  0  0  0  0  0  0  0  0  0  0
   -7.0342   57.7490   26.2499 H   0  0  0  0  0  0  0  0  0  0  0  0
   -7.6113   60.1474   26.4111 H   0  0  0  0  0  0  0  0  0  0  0  0
   -9.9955   60.8744   26.7100 H   0  0  0  0  0  0  0  0  0  0  0  0
  -11.7904   59.1328   26.7997 H   0  0  0  0  0  0  0  0  0  0  0  0
  -12.5026   56.9987   26.7428 H   0  0  0  0  0  0  0  0  0  0  0  0
  -11.5006   55.8509   25.7070 H   0  0  0  0  0  0  0  0  0  0  0  0
  -12.4837   54.9652   27.8947 H   0  0  0  0  0  0  0  0  0  0  0  0
  -11.1872   55.9572   28.6813 H   0  0  0  0  0  0  0  0  0  0  0  0
  -16.8121   51.7043   28.2686 H   0  0  0  0  0  0  0  0  0  0  0  0
  -16.4883   53.2153   27.3239 H   0  0  0  0  0  0  0  0  0  0  0  0
  -18.6697   51.8290   27.1531 H   0  0  0  0  0  0  0  0  0  0  0  0
  1  2  1  0
  1 27  1  0
  2  3  1  0
  3  4  1  0
  4  5  2  0
  4 15  1  0
  5  6  1  0
  6  7  2  0
  6 16  1  0
  7  8  1  0
  8  9  1  0
  8 15  2  0
  9 10  2  0
  9 14  1  0
 10 11  1  0
 11 12  2  0
 12 13  1  0
 13 14  2  0
 16 17  1  0
 16 26  1  0
 17 18  1  0
 18 19  1  0
 19 20  1  0
 19 24  2  0
 20 21  2  0
 21 22  1  0
 22 23  2  0
 23 24  1  0
 24 25  1  0
 25 26  1  0
 27 28  1  0
  1 29  1  0
  1 30  1  0
  2 31  1  0
  2 32  1  0
  3 33  1  0
  5 34  1  0
 10 35  1  0
 11 36  1  0
 12 37  1  0
 13 38  1  0
 17 39  1  0
 17 40  1  0
 18 41  1  0
 18 42  1  0
 20 43  1  0
 21 44  1  0
 22 45  1  0
 23 46  1  0
 25 47  1  0
 25 48  1  0
 26 49  1  0
 26 50  1  0
 27 51  1  0
 27 52  1  0
 28 53  1  0
A    1
C01
A    2
C02
A    3
N03
A    4
C04
A    5
C05
A    6
C06
A    7
N07
A    8
C08
A    9
C09
A   10
C10
A   11
C11
A   12
C12
A   13
C13
A   14
N14
A   15
N15
A   16
N16
A   17
C17
A   18
C18
A   19
C19
A   20
C20
A   21
C21
A   22
C22
A   23
C23
A   24
C24
A   25
C25
A   26
C26
A   27
C27
A   28
O28
M  END
