1CWQ_UND_A_604
     RDKit          3D

 35 34  0  0  0  0  0  0  0  0999 V2000
  -37.1710   35.9070  -11.2030 C   0  0  0  0  0  0  0  0  0  0  0  0
  -36.0340   35.4070  -12.0250 C   0  0  0  0  0  0  0  0  0  0  0  0
  -34.7680   36.1240  -11.6440 C   0  0  0  0  0  0  0  0  0  0  0  0
  -33.8230   36.2700  -12.7240 C   0  0  0  0  0  0  0  0  0  0  0  0
  -32.8780   37.4320  -12.6240 C   0  0  0  0  0  0  0  0  0  0  0  0
  -32.0220   37.4590  -13.8060 C   0  0  0  0  0  0  0  0  0  0  0  0
  -31.1670   38.6510  -14.1350 C   0  0  0  0  0  0  0  0  0  0  0  0
  -30.3610   38.3910  -15.4180 C   0  0  0  0  0  0  0  0  0  0  0  0
  -31.1750   38.0620  -16.6580 C   0  0  0  0  0  0  0  0  0  0  0  0
  -30.4330   37.7590  -17.9430 C   0  0  0  0  0  0  0  0  0  0  0  0
  -31.0150   38.4440  -19.1200 C   0  0  0  0  0  0  0  0  0  0  0  0
  -36.9270   35.7997  -10.1358 H   0  0  0  0  0  0  0  0  0  0  0  0
  -37.3513   36.9674  -11.4331 H   0  0  0  0  0  0  0  0  0  0  0  0
  -38.0744   35.3231  -11.4331 H   0  0  0  0  0  0  0  0  0  0  0  0
  -35.9072   34.3280  -11.8529 H   0  0  0  0  0  0  0  0  0  0  0  0
  -36.2480   35.5932  -13.0878 H   0  0  0  0  0  0  0  0  0  0  0  0
  -35.0356   37.1276  -11.2818 H   0  0  0  0  0  0  0  0  0  0  0  0
  -34.2765   35.5102  -10.8748 H   0  0  0  0  0  0  0  0  0  0  0  0
  -33.2209   35.3505  -12.7700 H   0  0  0  0  0  0  0  0  0  0  0  0
  -34.4289   36.4593  -13.6223 H   0  0  0  0  0  0  0  0  0  0  0  0
  -33.4519   38.3685  -12.5641 H   0  0  0  0  0  0  0  0  0  0  0  0
  -32.2579   37.3268  -11.7215 H   0  0  0  0  0  0  0  0  0  0  0  0
  -31.3370   36.6035  -13.7115 H   0  0  0  0  0  0  0  0  0  0  0  0
  -32.7551   37.4630  -14.6261 H   0  0  0  0  0  0  0  0  0  0  0  0
  -31.8114   39.5301  -14.2830 H   0  0  0  0  0  0  0  0  0  0  0  0
  -30.4691   38.8313  -13.3041 H   0  0  0  0  0  0  0  0  0  0  0  0
  -29.7693   39.2930  -15.6329 H   0  0  0  0  0  0  0  0  0  0  0  0
  -29.7559   37.4956  -15.2130 H   0  0  0  0  0  0  0  0  0  0  0  0
  -31.7888   37.1806  -16.4205 H   0  0  0  0  0  0  0  0  0  0  0  0
  -31.7271   38.9884  -16.8747 H   0  0  0  0  0  0  0  0  0  0  0  0
  -29.3879   38.0830  -17.8296 H   0  0  0  0  0  0  0  0  0  0  0  0
  -30.5089   36.6761  -18.1205 H   0  0  0  0  0  0  0  0  0  0  0  0
  -31.6928   39.2417  -18.7820 H   0  0  0  0  0  0  0  0  0  0  0  0
  -30.2078   38.8811  -19.7261 H   0  0  0  0  0  0  0  0  0  0  0  0
  -31.5767   37.7180  -19.7261 H   0  0  0  0  0  0  0  0  0  0  0  0
  1  2  1  0
  2  3  1  0
  3  4  1  0
  4  5  1  0
  5  6  1  0
  6  7  1  0
  7  8  1  0
  8  9  1  0
  9 10  1  0
 10 11  1  0
  1 12  1  0
  1 13  1  0
  1 14  1  0
  2 15  1  0
  2 16  1  0
  3 17  1  0
  3 18  1  0
  4 19  1  0
  4 20  1  0
  5 21  1  0
  5 22  1  0
  6 23  1  0
  6 24  1  0
  7 25  1  0
  7 26  1  0
  8 27  1  0
  8 28  1  0
  9 29  1  0
  9 30  1  0
 10 31  1  0
 10 32  1  0
 11 33  1  0
 11 34  1  0
 11 35  1  0
A    1
C1
A    2
C2
A    3
C3
A    4
C4
A    5
C5
A    6
C6
A    7
C7
A    8
C8
A    9
C9
A   10
C10
A   11
C11
M  END
