5A2S_OTF_A_1
     RDKit          3D

 42 45  0  0  0  0  0  0  0  0999 V2000
   -2.2990  -15.8090  -40.6070 C   0  0  0  0  0  0  0  0  0  0  0  0
   -3.5740  -15.2990  -39.9550 C   0  0  0  0  0  0  0  0  0  0  0  0
   -4.8320  -15.0310  -40.8050 C   0  0  0  0  0  0  0  0  0  0  0  0
   -4.8210  -16.1400  -39.7540 C   0  0  0  0  0  0  0  0  0  0  0  0
   -3.3990  -14.5190  -38.9140 F   0  0  0  0  0  0  0  0  0  0  0  0
   -2.1780  -16.2800  -41.7340 O   0  0  0  0  0  0  0  0  0  0  0  0
   -1.2590  -15.5860  -39.8080 N   0  0  0  0  0  0  0  0  0  0  0  0
    0.0560  -15.7850  -40.2160 O   0  0  0  0  0  0  0  0  0  0  0  0
   -4.9590  -17.5090  -40.2760 C   0  0  0  0  0  0  0  0  0  0  0  0
   -6.0410  -17.8020  -41.0950 C   0  0  0  0  0  0  0  0  0  0  0  0
   -6.2180  -19.0910  -41.5730 C   0  0  0  0  0  0  0  0  0  0  0  0
   -5.3280  -20.0890  -41.1960 C   0  0  0  0  0  0  0  0  0  0  0  0
   -4.2560  -19.8010  -40.3560 C   0  0  0  0  0  0  0  0  0  0  0  0
   -4.0800  -18.5070  -39.8860 C   0  0  0  0  0  0  0  0  0  0  0  0
   -5.4390  -13.6990  -40.4910 C   0  0  0  0  0  0  0  0  0  0  0  0
   -6.2520  -13.4630  -39.3810 C   0  0  0  0  0  0  0  0  0  0  0  0
   -6.7790  -12.1970  -39.1300 C   0  0  0  0  0  0  0  0  0  0  0  0
   -6.5110  -11.1400  -39.9890 C   0  0  0  0  0  0  0  0  0  0  0  0
   -5.6940  -11.3660  -41.0920 C   0  0  0  0  0  0  0  0  0  0  0  0
   -5.1700  -12.6310  -41.3360 C   0  0  0  0  0  0  0  0  0  0  0  0
   -7.0590   -9.7800  -39.7220 C   0  0  0  0  0  0  0  0  0  0  0  0
   -7.0920   -8.8440  -40.7110 N   0  0  0  0  0  0  0  0  0  0  0  0
   -7.5640   -7.6120  -40.4670 C   0  0  0  0  0  0  0  0  0  0  0  0
   -8.0130   -7.2940  -39.1850 C   0  0  0  0  0  0  0  0  0  0  0  0
   -7.9550   -8.2550  -38.1780 C   0  0  0  0  0  0  0  0  0  0  0  0
   -7.4800   -9.4720  -38.4670 N   0  0  0  0  0  0  0  0  0  0  0  0
   -8.4900   -6.0690  -38.9120 F   0  0  0  0  0  0  0  0  0  0  0  0
   -5.1367  -15.0238  -41.8619 H   0  0  0  0  0  0  0  0  0  0  0  0
   -5.3785  -16.4105  -38.8452 H   0  0  0  0  0  0  0  0  0  0  0  0
   -1.4343  -15.2528  -38.8493 H   0  0  0  0  0  0  0  0  0  0  0  0
    0.6386  -15.8732  -39.4204 H   0  0  0  0  0  0  0  0  0  0  0  0
   -6.7573  -17.0118  -41.3644 H   0  0  0  0  0  0  0  0  0  0  0  0
   -7.0570  -19.3221  -42.2459 H   0  0  0  0  0  0  0  0  0  0  0  0
   -5.4717  -21.1155  -41.5644 H   0  0  0  0  0  0  0  0  0  0  0  0
   -3.5520  -20.5949  -40.0662 H   0  0  0  0  0  0  0  0  0  0  0  0
   -3.2465  -18.2746  -39.2069 H   0  0  0  0  0  0  0  0  0  0  0  0
   -6.4807  -14.2900  -38.6927 H   0  0  0  0  0  0  0  0  0  0  0  0
   -7.4117  -12.0345  -38.2450 H   0  0  0  0  0  0  0  0  0  0  0  0
   -5.4605  -10.5374  -41.7768 H   0  0  0  0  0  0  0  0  0  0  0  0
   -4.5295  -12.7884  -42.2163 H   0  0  0  0  0  0  0  0  0  0  0  0
   -7.5966   -6.8604  -41.2695 H   0  0  0  0  0  0  0  0  0  0  0  0
   -8.2950   -8.0165  -37.1594 H   0  0  0  0  0  0  0  0  0  0  0  0
  1  2  1  0
  1  6  2  0
  1  7  1  0
  2  3  1  0
  2  4  1  0
  2  5  1  0
  3  4  1  0
  3 15  1  0
  4  9  1  0
  7  8  1  0
  9 10  2  0
  9 14  1  0
 10 11  1  0
 11 12  2  0
 12 13  1  0
 13 14  2  0
 15 16  2  0
 15 20  1  0
 16 17  1  0
 17 18  2  0
 18 19  1  0
 18 21  1  0
 19 20  2  0
 21 22  2  0
 21 26  1  0
 22 23  1  0
 23 24  2  0
 24 25  1  0
 24 27  1  0
 25 26  2  0
  3 28  1  0
  4 29  1  0
  7 30  1  0
  8 31  1  0
 10 32  1  0
 11 33  1  0
 12 34  1  0
 13 35  1  0
 14 36  1  0
 16 37  1  0
 17 38  1  0
 19 39  1  0
 20 40  1  0
 23 41  1  0
 25 42  1  0
A    1
C1
A    2
C2
A    3
C3
A    4
C4
A    5
F5
A    6
O6
A    7
N7
A    8
O8
A    9
C9
A   10
C10
A   11
C11
A   12
C12
A   13
C13
A   14
C14
A   15
C15
A   16
C16
A   17
C17
A   18
C18
A   19
C19
A   20
C20
A   21
C21
A   22
N22
A   23
C23
A   24
C24
A   25
C25
A   26
N26
A   27
F27
M  END
