5A3U_R8J_A_1421
     RDKit          3D

 28 30  0  0  0  0  0  0  0  0999 V2000
  -21.2720   25.3900   -1.3770 O   0  0  0  0  0  0  0  0  0  0  0  0
  -19.7650   31.9570    1.7370 O   0  0  0  0  0  0  0  0  0  0  0  0
  -21.3650   27.0620   -2.7520 O   0  0  0  0  0  0  0  0  0  0  0  0
  -19.5040   34.9890    4.6130 C   0  0  0  0  0  0  0  0  0  0  0  0
  -21.1980   28.8740   -0.6920 C   0  0  0  0  0  0  0  0  0  0  0  0
  -21.0220   29.7310    0.3900 C   0  0  0  0  0  0  0  0  0  0  0  0
  -20.1870   34.0610    3.9680 C   0  0  0  0  0  0  0  0  0  0  0  0
  -20.7850   27.0080    0.7490 C   0  0  0  0  0  0  0  0  0  0  0  0
  -20.4840   30.7120    4.7280 C   0  0  0  0  0  0  0  0  0  0  0  0
  -18.6220   34.3320    5.3590 N   0  0  0  0  0  0  0  0  0  0  0  0
  -20.6120   27.8930    1.8230 N   0  0  0  0  0  0  0  0  0  0  0  0
  -18.7650   33.1310    5.1770 N   0  0  0  0  0  0  0  0  0  0  0  0
  -20.7700   29.6930    3.9130 N   0  0  0  0  0  0  0  0  0  0  0  0
  -21.2480   26.6230   -1.5840 C   0  0  0  0  0  0  0  0  0  0  0  0
  -21.0790   27.5010   -0.5150 C   0  0  0  0  0  0  0  0  0  0  0  0
  -20.7260   29.2210    1.6520 C   0  0  0  0  0  0  0  0  0  0  0  0
  -20.0650   31.7040    3.9590 C   0  0  0  0  0  0  0  0  0  0  0  0
  -20.1000   31.2820    2.7100 C   0  0  0  0  0  0  0  0  0  0  0  0
  -19.6700   32.9060    4.3680 N   0  0  0  0  0  0  0  0  0  0  0  0
  -20.5480   30.0250    2.7050 N   0  0  0  0  0  0  0  0  0  0  0  0
  -21.6170   28.0075   -2.9025 H   0  0  0  0  0  0  0  0  0  0  0  0
  -19.6373   36.0789    4.5466 H   0  0  0  0  0  0  0  0  0  0  0  0
  -21.4310   29.2829   -1.6862 H   0  0  0  0  0  0  0  0  0  0  0  0
  -21.1172   30.8176    0.2479 H   0  0  0  0  0  0  0  0  0  0  0  0
  -21.0085   34.2128    3.2524 H   0  0  0  0  0  0  0  0  0  0  0  0
  -20.6878   25.9239    0.9080 H   0  0  0  0  0  0  0  0  0  0  0  0
  -20.5783   30.7241    5.8239 H   0  0  0  0  0  0  0  0  0  0  0  0
  -21.1191   28.7732    4.2179 H   0  0  0  0  0  0  0  0  0  0  0  0
  1 14  2  0
  2 18  2  0
 14  3  1  0
  7  4  2  0
  4 10  1  0
  5 15  2  0
  5  6  1  0
  6 16  2  0
  7 19  1  0
 15  8  1  0
  8 11  2  0
 13  9  1  0
 17  9  2  0
 12 10  2  0
 16 11  1  0
 19 12  1  0
 20 13  1  0
 14 15  1  0
 16 20  1  0
 18 17  1  0
 17 19  1  0
 20 18  1  0
  3 21  1  0
  4 22  1  0
  5 23  1  0
  6 24  1  0
  7 25  1  0
  8 26  1  0
  9 27  1  0
 13 28  1  0
A    1
OAA
A    2
OAB
A    3
OAC
A    4
CAD
A    5
CAE
A    6
CAF
A    7
CAG
A    8
CAH
A    9
CAI
A   10
NAJ
A   11
NAK
A   12
NAL
A   13
NAM
A   14
CAN
A   15
CAO
A   16
CAP
A   17
CAQ
A   18
CAR
A   19
NAS
A   20
NAT
M  END
