5A4L_ZC3_A_1481
     RDKit          3D

 21 22  0  0  0  0  0  0  0  0999 V2000
   -5.0250  -16.2530  -44.3890 N   0  0  0  0  0  0  0  0  0  0  0  0
   -5.9500  -15.7720  -45.2490 C   0  0  0  0  0  0  0  0  0  0  0  0
   -6.8730  -16.4560  -45.9310 C   0  0  0  0  0  0  0  0  0  0  0  0
   -7.7580  -15.8110  -46.7840 C   0  0  0  0  0  0  0  0  0  0  0  0
   -8.7280  -16.5310  -47.5030 F   0  0  0  0  0  0  0  0  0  0  0  0
   -7.6680  -14.4380  -46.9160 C   0  0  0  0  0  0  0  0  0  0  0  0
   -6.6980  -13.7640  -46.1950 C   0  0  0  0  0  0  0  0  0  0  0  0
   -5.8770  -14.4320  -45.3920 C   0  0  0  0  0  0  0  0  0  0  0  0
   -4.6570  -13.8890  -44.4390 S   0  0  0  0  0  0  0  0  0  0  0  0
   -4.2390  -15.3150  -43.8600 C   0  0  0  0  0  0  0  0  0  0  0  0
   -3.2470  -15.5110  -42.9940 N   0  0  0  0  0  0  0  0  0  0  0  0
   -2.8290  -16.7680  -42.8000 C   0  0  0  0  0  0  0  0  0  0  0  0
   -1.9120  -17.0690  -42.0390 O   0  0  0  0  0  0  0  0  0  0  0  0
   -3.5840  -17.8390  -43.5900 C   0  0  0  0  0  0  0  0  0  0  0  0
   -6.9326  -17.5482  -45.8147 H   0  0  0  0  0  0  0  0  0  0  0  0
   -8.3536  -13.8921  -47.5808 H   0  0  0  0  0  0  0  0  0  0  0  0
   -6.6064  -12.6717  -46.2870 H   0  0  0  0  0  0  0  0  0  0  0  0
   -2.8159  -14.7226  -42.4905 H   0  0  0  0  0  0  0  0  0  0  0  0
   -4.0734  -18.5333  -42.8911 H   0  0  0  0  0  0  0  0  0  0  0  0
   -4.3447  -17.3593  -44.2234 H   0  0  0  0  0  0  0  0  0  0  0  0
   -2.8766  -18.3943  -44.2234 H   0  0  0  0  0  0  0  0  0  0  0  0
  1  2  1  0
  1 10  2  0
  2  3  2  0
  2  8  1  0
  3  4  1  0
  4  5  1  0
  4  6  2  0
  6  7  1  0
  7  8  2  0
  8  9  1  0
  9 10  1  0
 10 11  1  0
 11 12  1  0
 12 13  2  0
 12 14  1  0
  3 15  1  0
  6 16  1  0
  7 17  1  0
 11 18  1  0
 14 19  1  0
 14 20  1  0
 14 21  1  0
A    1
NAG
A    2
CAM
A    3
CAF
A    4
CAK
A    5
FAC
A    6
CAD
A    7
CAE
A    8
CAN
A    9
SAI
A   10
CAL
A   11
NAH
A   12
CAJ
A   13
OAB
A   14
CAA
M  END
