5A4Q_Y3L_A_1482
     RDKit          3D

 21 22  0  0  0  0  0  0  0  0999 V2000
   -6.9890  -30.2850    9.4110 N   0  0  0  0  0  0  0  0  0  0  0  0
   -7.1550  -29.3330   10.3660 C   0  0  0  0  0  0  0  0  0  0  0  0
   -8.2500  -28.5960   10.6070 C   0  0  0  0  0  0  0  0  0  0  0  0
   -8.2940  -27.6400   11.6240 C   0  0  0  0  0  0  0  0  0  0  0  0
   -7.1420  -27.4580   12.3890 C   0  0  0  0  0  0  0  0  0  0  0  0
   -7.0650  -26.2980   13.6830 Cl  0  0  0  0  0  0  0  0  0  0  0  0
   -6.0230  -28.2340   12.0990 C   0  0  0  0  0  0  0  0  0  0  0  0
   -6.0560  -29.1410   11.1260 C   0  0  0  0  0  0  0  0  0  0  0  0
   -4.8510  -30.1620   10.6170 S   0  0  0  0  0  0  0  0  0  0  0  0
   -5.7730  -30.8580    9.4100 C   0  0  0  0  0  0  0  0  0  0  0  0
   -5.4230  -31.7970    8.5470 N   0  0  0  0  0  0  0  0  0  0  0  0
   -4.2220  -32.4590    8.5800 C   0  0  0  0  0  0  0  0  0  0  0  0
   -3.9500  -33.3050    7.7290 O   0  0  0  0  0  0  0  0  0  0  0  0
   -3.1700  -32.1840    9.6160 C   0  0  0  0  0  0  0  0  0  0  0  0
   -9.1426  -28.7499    9.9828 H   0  0  0  0  0  0  0  0  0  0  0  0
   -9.2039  -27.0520   11.8148 H   0  0  0  0  0  0  0  0  0  0  0  0
   -5.1002  -28.0956   12.6815 H   0  0  0  0  0  0  0  0  0  0  0  0
   -6.0927  -32.0463    7.8052 H   0  0  0  0  0  0  0  0  0  0  0  0
   -3.6053  -32.2978   10.6198 H   0  0  0  0  0  0  0  0  0  0  0  0
   -2.3399  -32.8953    9.4935 H   0  0  0  0  0  0  0  0  0  0  0  0
   -2.7942  -31.1575    9.4935 H   0  0  0  0  0  0  0  0  0  0  0  0
  1  2  1  0
  1 10  2  0
  2  3  2  0
  2  8  1  0
  3  4  1  0
  4  5  2  0
  5  6  1  0
  5  7  1  0
  7  8  2  0
  8  9  1  0
  9 10  1  0
 10 11  1  0
 11 12  1  0
 12 13  2  0
 12 14  1  0
  3 15  1  0
  4 16  1  0
  7 17  1  0
 11 18  1  0
 14 19  1  0
 14 20  1  0
 14 21  1  0
A    1
NAG
A    2
CAM
A    3
CAE
A    4
CAD
A    5
CAK
A    6
CLAC
A    7
CAF
A    8
CAN
A    9
SAI
A   10
CAL
A   11
NAH
A   12
CAJ
A   13
OAB
A   14
CAA
M  END
