4GUE_QCT_A_401
     RDKit          3D

 52 55  0  0  0  0  0  0  0  0999 V2000
   31.1700    6.3800    4.6540 O   0  0  0  0  0  0  0  0  0  0  0  0
   31.8490    6.2210    5.9150 C   0  0  0  0  0  0  0  0  0  0  0  0
   33.1310    5.4140    5.6380 C   0  0  0  0  0  0  0  0  0  0  0  0
   33.7130    5.8820    4.4160 O   0  0  0  0  0  0  0  0  0  0  0  0
   32.1480    7.6170    6.4970 C   0  0  0  0  0  0  0  0  0  0  0  0
   30.9390    8.2870    6.8410 O   0  0  0  0  0  0  0  0  0  0  0  0
   32.9980    7.4500    7.7670 C   0  0  0  0  0  0  0  0  0  0  0  0
   33.2750    8.8010    8.4500 C   0  0  0  0  0  0  0  0  0  0  0  0
   34.1970    6.8350    7.3360 O   0  0  0  0  0  0  0  0  0  0  0  0
   34.1650    5.5210    6.7870 C   0  0  0  0  0  0  0  0  0  0  0  0
   33.7170    4.5540    7.7330 O   0  0  0  0  0  0  0  0  0  0  0  0
   34.4640    4.4730    8.9470 C   0  0  0  0  0  0  0  0  0  0  0  0
   35.8490    4.3310    8.9300 C   0  0  0  0  0  0  0  0  0  0  0  0
   36.4990    4.3000    7.8560 O   0  0  0  0  0  0  0  0  0  0  0  0
   33.7940    4.5070   10.1780 C   0  0  0  0  0  0  0  0  0  0  0  0
   32.2780    4.6110   10.3070 C   0  0  0  0  0  0  0  0  0  0  0  0
   31.4200    4.2620    9.2530 C   0  0  0  0  0  0  0  0  0  0  0  0
   30.0380    4.3430    9.4420 C   0  0  0  0  0  0  0  0  0  0  0  0
   29.1390    4.0370    8.3810 O   0  0  0  0  0  0  0  0  0  0  0  0
   29.4970    4.7050   10.6720 C   0  0  0  0  0  0  0  0  0  0  0  0
   28.1100    4.7530   10.8110 O   0  0  0  0  0  0  0  0  0  0  0  0
   30.3490    5.0130   11.7440 C   0  0  0  0  0  0  0  0  0  0  0  0
   31.7360    4.9490   11.5620 C   0  0  0  0  0  0  0  0  0  0  0  0
   34.4240    4.4420   11.2550 O   0  0  0  0  0  0  0  0  0  0  0  0
   35.6520    4.2970   11.3260 C   0  0  0  0  0  0  0  0  0  0  0  0
   36.2210    4.2100   12.5970 C   0  0  0  0  0  0  0  0  0  0  0  0
   37.5950    4.0700   12.7220 C   0  0  0  0  0  0  0  0  0  0  0  0
   38.1650    3.9900   14.0120 O   0  0  0  0  0  0  0  0  0  0  0  0
   38.4180    4.0110   11.5910 C   0  0  0  0  0  0  0  0  0  0  0  0
   37.8390    4.1060   10.3210 C   0  0  0  0  0  0  0  0  0  0  0  0
   36.4620    4.2420   10.1860 C   0  0  0  0  0  0  0  0  0  0  0  0
   38.6760    4.0460    9.1800 O   0  0  0  0  0  0  0  0  0  0  0  0
   30.2192    6.6026    4.8169 H   0  0  0  0  0  0  0  0  0  0  0  0
   31.2410    5.6825    6.6569 H   0  0  0  0  0  0  0  0  0  0  0  0
   32.8527    4.3527    5.5594 H   0  0  0  0  0  0  0  0  0  0  0  0
   34.4678    6.4889    4.6212 H   0  0  0  0  0  0  0  0  0  0  0  0
   32.6836    8.2116    5.7423 H   0  0  0  0  0  0  0  0  0  0  0  0
   30.8561    8.3330    7.8264 H   0  0  0  0  0  0  0  0  0  0  0  0
   32.4764    6.8435    8.5221 H   0  0  0  0  0  0  0  0  0  0  0  0
   33.2485    8.6720    9.5421 H   0  0  0  0  0  0  0  0  0  0  0  0
   34.2671    9.1679    8.1480 H   0  0  0  0  0  0  0  0  0  0  0  0
   32.5074    9.5287    8.1480 H   0  0  0  0  0  0  0  0  0  0  0  0
   35.1970    5.3329    6.4560 H   0  0  0  0  0  0  0  0  0  0  0  0
   31.8308    3.9284    8.2887 H   0  0  0  0  0  0  0  0  0  0  0  0
   28.2217    3.7248    8.5840 H   0  0  0  0  0  0  0  0  0  0  0  0
   27.7032    4.7671   11.7134 H   0  0  0  0  0  0  0  0  0  0  0  0
   29.9306    5.3023   12.7193 H   0  0  0  0  0  0  0  0  0  0  0  0
   32.4075    5.1645   12.4062 H   0  0  0  0  0  0  0  0  0  0  0  0
   35.5845    4.2521   13.4931 H   0  0  0  0  0  0  0  0  0  0  0  0
   37.5894    4.0708   14.8134 H   0  0  0  0  0  0  0  0  0  0  0  0
   39.5061    3.8915   11.6996 H   0  0  0  0  0  0  0  0  0  0  0  0
   39.6574    3.9756    9.2892 H   0  0  0  0  0  0  0  0  0  0  0  0
  4  3  1  0
  1  2  1  0
  3  2  1  0
  3 10  1  0
  2  5  1  0
  5  6  1  0
  5  7  1  0
 10  9  1  0
 10 11  1  0
  9  7  1  0
 11 12  1  0
  7  8  1  0
 14 13  2  0
 19 18  1  0
 13 12  1  0
 13 31  1  0
 12 15  2  0
 32 30  1  0
 17 18  2  0
 17 16  1  0
 18 20  1  0
 15 16  1  0
 15 24  1  0
 31 30  2  0
 31 25  1  0
 16 23  2  0
 30 29  1  0
 20 21  1  0
 20 22  2  0
 24 25  1  0
 25 26  2  0
 23 22  1  0
 29 27  2  0
 26 27  1  0
 27 28  1  0
  1 33  1  0
  2 34  1  0
  3 35  1  0
  4 36  1  0
  5 37  1  0
  6 38  1  0
  7 39  1  0
  8 40  1  0
  8 41  1  0
  8 42  1  0
 10 43  1  0
 17 44  1  0
 19 45  1  0
 21 46  1  0
 22 47  1  0
 23 48  1  0
 26 49  1  0
 28 50  1  0
 29 51  1  0
 32 52  1  0
A    1
O10
A    2
C23
A    3
C22
A    4
O9
A    5
C24
A    6
O11
A    7
C25
A    8
C26
A    9
O8
A   10
C21
A   11
O7
A   12
C3
A   13
C4
A   14
O2
A   15
C2
A   16
C11
A   17
C12
A   18
C13
A   19
O5
A   20
C14
A   21
O6
A   22
C15
A   23
C16
A   24
O1
A   25
C9
A   26
C8
A   27
C7
A   28
O4
A   29
C6
A   30
C5
A   31
C10
A   32
O3
M  END
