5A5I_XI1_A_1493
     RDKit          3D

 38 39  0  0  0  0  0  0  0  0999 V2000
   72.2550   -3.2850   -3.5340 F   0  0  0  0  0  0  0  0  0  0  0  0
   73.2260   -2.8190   -2.7710 C   0  0  0  0  0  0  0  0  0  0  0  0
   73.5620   -1.6250   -3.2140 F   0  0  0  0  0  0  0  0  0  0  0  0
   74.2730   -3.6110   -2.8920 F   0  0  0  0  0  0  0  0  0  0  0  0
   72.6880   -2.7260   -1.0240 S   0  0  0  0  0  0  0  0  0  0  0  0
   73.8950   -2.4820   -0.2990 O   0  0  0  0  0  0  0  0  0  0  0  0
   71.9340   -3.9210   -0.8180 O   0  0  0  0  0  0  0  0  0  0  0  0
   71.7300   -1.4700   -0.8620 N   0  0  0  0  0  0  0  0  0  0  0  0
   71.8800   -0.4820    0.2200 C   0  0  0  0  0  0  0  0  0  0  0  0
   70.5420    0.1800    0.4820 C   0  0  0  0  0  0  0  0  0  0  0  0
   70.0640    0.9600   -0.7360 C   0  0  0  0  0  0  0  0  0  0  0  0
   71.1030    1.9680   -1.1690 C   0  0  0  0  0  0  0  0  0  0  0  0
   72.4410    1.3150   -1.4280 C   0  0  0  0  0  0  0  0  0  0  0  0
   72.9080    0.5470   -0.2010 C   0  0  0  0  0  0  0  0  0  0  0  0
   70.7300    2.4830   -2.4710 O   0  0  0  0  0  0  0  0  0  0  0  0
   70.3310    3.7970   -2.3970 C   0  0  0  0  0  0  0  0  0  0  0  0
   71.2300    4.8060   -2.0910 C   0  0  0  0  0  0  0  0  0  0  0  0
   70.8050    6.1210   -2.0710 C   0  0  0  0  0  0  0  0  0  0  0  0
   69.4790    6.4440   -2.3580 C   0  0  0  0  0  0  0  0  0  0  0  0
   69.0580    7.8220   -2.3590 C   0  0  0  0  0  0  0  0  0  0  0  0
   68.7760    8.9310   -2.3470 N   0  0  0  0  0  0  0  0  0  0  0  0
   68.5900    5.4060   -2.6530 C   0  0  0  0  0  0  0  0  0  0  0  0
   66.9340    5.7480   -3.0260 Cl  0  0  0  0  0  0  0  0  0  0  0  0
   69.0060    4.0900   -2.6690 C   0  0  0  0  0  0  0  0  0  0  0  0
   71.8047   -0.9405   -1.7423 H   0  0  0  0  0  0  0  0  0  0  0  0
   72.2168   -0.9728    1.1450 H   0  0  0  0  0  0  0  0  0  0  0  0
   69.8001   -0.5948    0.7254 H   0  0  0  0  0  0  0  0  0  0  0  0
   70.6597    0.8822    1.3205 H   0  0  0  0  0  0  0  0  0  0  0  0
   69.8755    0.2587   -1.5622 H   0  0  0  0  0  0  0  0  0  0  0  0
   69.1409    1.4965   -0.4712 H   0  0  0  0  0  0  0  0  0  0  0  0
   71.1637    2.7243   -0.3725 H   0  0  0  0  0  0  0  0  0  0  0  0
   72.3461    0.6198   -2.2752 H   0  0  0  0  0  0  0  0  0  0  0  0
   73.1789    2.0975   -1.6588 H   0  0  0  0  0  0  0  0  0  0  0  0
   73.0686    1.2541    0.6262 H   0  0  0  0  0  0  0  0  0  0  0  0
   73.8439    0.0253   -0.4498 H   0  0  0  0  0  0  0  0  0  0  0  0
   72.2783    4.5613   -1.8648 H   0  0  0  0  0  0  0  0  0  0  0  0
   71.5196    6.9207   -1.8263 H   0  0  0  0  0  0  0  0  0  0  0  0
   68.2929    3.2836   -2.8953 H   0  0  0  0  0  0  0  0  0  0  0  0
  1  2  1  0
  2  3  1  0
  2  4  1  0
  2  5  1  0
  5  6  2  0
  5  7  2  0
  5  8  1  0
  8  9  1  0
  9 10  1  0
  9 14  1  0
 10 11  1  0
 11 12  1  0
 12 13  1  0
 12 15  1  0
 13 14  1  0
 15 16  1  0
 16 17  2  0
 16 24  1  0
 17 18  1  0
 18 19  2  0
 19 20  1  0
 19 22  1  0
 20 21  3  0
 22 23  1  0
 22 24  2  0
  8 25  1  0
  9 26  1  0
 10 27  1  0
 10 28  1  0
 11 29  1  0
 11 30  1  0
 12 31  1  0
 13 32  1  0
 13 33  1  0
 14 34  1  0
 14 35  1  0
 17 36  1  0
 18 37  1  0
 24 38  1  0
A    1
F1
A    2
C2
A    3
F3
A    4
F4
A    5
S5
A    6
O6
A    7
O7
A    8
N8
A    9
C9
A   10
C11
A   11
C12
A   12
C13
A   13
C15
A   14
C16
A   15
O17
A   16
C18
A   17
C19
A   18
C20
A   19
C21
A   20
C22
A   21
N23
A   22
C24
A   23
CL25
A   24
C26
M  END
