5A5R_NP8_A_2111
     RDKit          3D

 50 53  0  0  0  0  0  0  0  0999 V2000
  -29.2160   50.9000    6.5020 C   0  0  0  0  0  0  0  0  0  0  0  0
  -29.4990   49.7480    7.2950 O   0  0  0  0  0  0  0  0  0  0  0  0
  -28.6140   49.4210    8.2970 C   0  0  0  0  0  0  0  0  0  0  0  0
  -27.5160   50.1930    8.6400 C   0  0  0  0  0  0  0  0  0  0  0  0
  -26.6720   49.8490    9.6190 N   0  0  0  0  0  0  0  0  0  0  0  0
  -26.9160   48.7140   10.2840 C   0  0  0  0  0  0  0  0  0  0  0  0
  -27.9730   47.8540   10.0060 C   0  0  0  0  0  0  0  0  0  0  0  0
  -28.8460   48.2460    8.9950 C   0  0  0  0  0  0  0  0  0  0  0  0
  -28.1900   46.6140   10.8060 C   0  0  0  0  0  0  0  0  0  0  0  0
  -29.4040   46.3940   11.4320 C   0  0  0  0  0  0  0  0  0  0  0  0
  -29.6980   45.3370   12.2010 N   0  0  0  0  0  0  0  0  0  0  0  0
  -28.7650   44.3910   12.4250 C   0  0  0  0  0  0  0  0  0  0  0  0
  -29.1190   43.3460   13.2030 N   0  0  0  0  0  0  0  0  0  0  0  0
  -30.3830   43.2540   13.9310 C   0  0  0  0  0  0  0  0  0  0  0  0
  -31.3300   42.3090   13.2110 C   0  0  0  0  0  0  0  0  0  0  0  0
  -32.5760   42.0340   14.0240 C   0  0  0  0  0  0  0  0  0  0  0  0
  -32.2060   41.4940   15.3370 N   0  0  0  0  0  0  0  0  0  0  0  0
  -31.4090   42.4650   16.0970 C   0  0  0  0  0  0  0  0  0  0  0  0
  -30.1290   42.7810   15.3510 C   0  0  0  0  0  0  0  0  0  0  0  0
  -27.4850   44.5510   11.8190 C   0  0  0  0  0  0  0  0  0  0  0  0
  -26.5190   43.5860   12.0370 N   0  0  0  0  0  0  0  0  0  0  0  0
  -25.2650   43.6100   11.5310 C   0  0  0  0  0  0  0  0  0  0  0  0
  -24.4960   42.6880   11.8010 O   0  0  0  0  0  0  0  0  0  0  0  0
  -24.9280   44.7490   10.6880 C   0  0  0  0  0  0  0  0  0  0  0  0
  -23.5500   44.8290   10.0930 C   0  0  0  0  0  0  0  0  0  0  0  0
  -25.8590   45.7110   10.4560 C   0  0  0  0  0  0  0  0  0  0  0  0
  -27.1850   45.6560   11.0210 C   0  0  0  0  0  0  0  0  0  0  0  0
  -29.0058   51.7557    7.1604 H   0  0  0  0  0  0  0  0  0  0  0  0
  -28.3398   50.7019    5.8671 H   0  0  0  0  0  0  0  0  0  0  0  0
  -30.0842   51.1304    5.8671 H   0  0  0  0  0  0  0  0  0  0  0  0
  -27.3311   51.1250    8.0858 H   0  0  0  0  0  0  0  0  0  0  0  0
  -26.2357   48.4432   11.1048 H   0  0  0  0  0  0  0  0  0  0  0  0
  -29.7194   47.6237    8.7501 H   0  0  0  0  0  0  0  0  0  0  0  0
  -30.1916   47.1480   11.2866 H   0  0  0  0  0  0  0  0  0  0  0  0
  -28.4554   42.5630   13.2891 H   0  0  0  0  0  0  0  0  0  0  0  0
  -30.8502   44.2490   13.9729 H   0  0  0  0  0  0  0  0  0  0  0  0
  -31.6233   42.7612   12.2521 H   0  0  0  0  0  0  0  0  0  0  0  0
  -30.8065   41.3543   13.0545 H   0  0  0  0  0  0  0  0  0  0  0  0
  -33.1371   42.9703   14.1596 H   0  0  0  0  0  0  0  0  0  0  0  0
  -33.2003   41.3001   13.4933 H   0  0  0  0  0  0  0  0  0  0  0  0
  -33.0627   41.2741   15.8648 H   0  0  0  0  0  0  0  0  0  0  0  0
  -31.9907   43.3891   16.2303 H   0  0  0  0  0  0  0  0  0  0  0  0
  -31.1586   42.0372   17.0790 H   0  0  0  0  0  0  0  0  0  0  0  0
  -29.5091   41.8730   15.3144 H   0  0  0  0  0  0  0  0  0  0  0  0
  -29.6226   43.5963   15.8884 H   0  0  0  0  0  0  0  0  0  0  0  0
  -26.7748   42.7852   12.6321 H   0  0  0  0  0  0  0  0  0  0  0  0
  -22.8040   44.8723   10.9002 H   0  0  0  0  0  0  0  0  0  0  0  0
  -23.3667   43.9400    9.4717 H   0  0  0  0  0  0  0  0  0  0  0  0
  -23.4708   45.7333    9.4717 H   0  0  0  0  0  0  0  0  0  0  0  0
  -25.5917   46.5631    9.8137 H   0  0  0  0  0  0  0  0  0  0  0  0
  1  2  1  0
  2  3  1  0
  3  4  2  0
  3  8  1  0
  4  5  1  0
  5  6  2  0
  6  7  1  0
  7  8  2  0
  7  9  1  0
  9 10  2  0
  9 27  1  0
 10 11  1  0
 11 12  2  0
 12 13  1  0
 12 20  1  0
 13 14  1  0
 14 15  1  0
 14 19  1  0
 15 16  1  0
 16 17  1  0
 17 18  1  0
 18 19  1  0
 20 21  1  0
 20 27  2  0
 21 22  1  0
 22 23  2  0
 22 24  1  0
 24 25  1  0
 24 26  2  0
 26 27  1  0
  1 28  1  0
  1 29  1  0
  1 30  1  0
  4 31  1  0
  6 32  1  0
  8 33  1  0
 10 34  1  0
 13 35  1  0
 14 36  1  0
 15 37  1  0
 15 38  1  0
 16 39  1  0
 16 40  1  0
 17 41  1  0
 18 42  1  0
 18 43  1  0
 19 44  1  0
 19 45  1  0
 21 46  1  0
 25 47  1  0
 25 48  1  0
 25 49  1  0
 26 50  1  0
A    1
C01
A    2
O05
A    3
C06
A    4
C07
A    5
N09
A    6
C10
A    7
C12
A    8
C13
A    9
C15
A   10
C16
A   11
N18
A   12
C19
A   13
N20
A   14
C22
A   15
C24
A   16
C27
A   17
N30
A   18
C32
A   19
C35
A   20
C38
A   21
N39
A   22
C41
A   23
O42
A   24
C43
A   25
C44
A   26
C48
A   27
C50
M  END
