5A64_V4E_A_1000
     RDKit          3D

 50 51  0  0  0  0  0  0  0  0999 V2000
  -14.0300   30.2230   21.7000 C   0  0  0  0  0  0  0  0  0  0  0  0
  -12.6350   30.6100   22.1000 C   0  0  0  0  0  0  0  0  0  0  0  0
  -12.1420   30.7110   23.4520 C   0  0  0  0  0  0  0  0  0  0  0  0
  -12.9460   30.4460   24.7150 C   0  0  0  0  0  0  0  0  0  0  0  0
  -13.2250   31.7910   25.3500 C   0  0  0  0  0  0  0  0  0  0  0  0
  -13.9500   32.5610   24.4330 O   0  0  0  0  0  0  0  0  0  0  0  0
  -14.2820   34.0690   24.7670 P   0  0  0  0  0  0  0  0  0  0  0  0
  -14.9800   34.6150   23.5770 O   0  0  0  0  0  0  0  0  0  0  0  0
  -13.0700   34.8870   25.0200 O   0  0  0  0  0  0  0  0  0  0  0  0
  -15.2440   34.1050   26.0300 O   0  0  0  0  0  0  0  0  0  0  0  0
  -15.8760   35.3520   26.7600 P   0  0  0  0  0  0  0  0  0  0  0  0
  -15.2300   35.6690   28.0490 O   0  0  0  0  0  0  0  0  0  0  0  0
  -15.8180   36.6160   26.0140 O   0  0  0  0  0  0  0  0  0  0  0  0
  -17.3050   34.9440   27.2780 O   0  0  0  0  0  0  0  0  0  0  0  0
  -18.7400   35.0520   26.6670 P   0  0  0  0  0  0  0  0  0  0  0  0
  -19.3330   33.7160   26.6100 O   0  0  0  0  0  0  0  0  0  0  0  0
  -18.8600   35.7710   25.2920 O   0  0  0  0  0  0  0  0  0  0  0  0
  -19.5190   35.6750   27.7270 O   0  0  0  0  0  0  0  0  0  0  0  0
  -10.6740   31.1380   23.4130 S   0  0  0  0  0  0  0  0  0  0  0  0
  -10.3020   31.2710   21.9100 C   0  0  0  0  0  0  0  0  0  0  0  0
  -11.4580   30.9730   21.1130 N   0  0  0  0  0  0  0  0  0  0  0  0
  -11.5650   30.9860   19.6590 C   0  0  0  0  0  0  0  0  0  0  0  0
  -10.1900   31.3280   19.0290 C   0  0  0  0  0  0  0  0  0  0  0  0
   -9.3570   30.3650   18.4530 C   0  0  0  0  0  0  0  0  0  0  0  0
   -9.7100   28.9870   18.3610 N   0  0  0  0  0  0  0  0  0  0  0  0
   -8.1580   30.7260   17.9350 N   0  0  0  0  0  0  0  0  0  0  0  0
   -7.7380   32.0270   17.9700 C   0  0  0  0  0  0  0  0  0  0  0  0
   -6.3820   32.4150   17.3780 C   0  0  0  0  0  0  0  0  0  0  0  0
   -8.5490   32.9680   18.5390 N   0  0  0  0  0  0  0  0  0  0  0  0
   -9.7660   32.6370   19.0700 C   0  0  0  0  0  0  0  0  0  0  0  0
  -14.6367   30.0547   22.6020 H   0  0  0  0  0  0  0  0  0  0  0  0
  -14.4776   31.0309   21.1025 H   0  0  0  0  0  0  0  0  0  0  0  0
  -13.9974   29.3000   21.1025 H   0  0  0  0  0  0  0  0  0  0  0  0
  -13.8915   29.9435   24.4629 H   0  0  0  0  0  0  0  0  0  0  0  0
  -12.3911   29.7930   25.4047 H   0  0  0  0  0  0  0  0  0  0  0  0
  -13.8127   31.6547   26.2698 H   0  0  0  0  0  0  0  0  0  0  0  0
  -12.2817   32.2939   25.6093 H   0  0  0  0  0  0  0  0  0  0  0  0
  -12.9324   34.9799   25.9960 H   0  0  0  0  0  0  0  0  0  0  0  0
  -15.8172   35.3808   28.7921 H   0  0  0  0  0  0  0  0  0  0  0  0
  -19.0212   36.7369   25.4376 H   0  0  0  0  0  0  0  0  0  0  0  0
  -19.1648   35.3917   28.6070 H   0  0  0  0  0  0  0  0  0  0  0  0
   -9.3119   31.5489   21.5196 H   0  0  0  0  0  0  0  0  0  0  0  0
  -11.8898   29.9951   19.3088 H   0  0  0  0  0  0  0  0  0  0  0  0
  -12.2995   31.7474   19.3578 H   0  0  0  0  0  0  0  0  0  0  0  0
   -9.8518   28.4334   19.2179 H   0  0  0  0  0  0  0  0  0  0  0  0
   -9.8232   28.5449   17.4376 H   0  0  0  0  0  0  0  0  0  0  0  0
   -5.6711   32.6184   18.1924 H   0  0  0  0  0  0  0  0  0  0  0  0
   -6.0028   31.5893   16.7580 H   0  0  0  0  0  0  0  0  0  0  0  0
   -6.4970   33.3163   16.7580 H   0  0  0  0  0  0  0  0  0  0  0  0
  -10.4006   33.4111   19.5261 H   0  0  0  0  0  0  0  0  0  0  0  0
  1  2  1  0
  2  3  2  0
  2 21  1  0
  3  4  1  0
  3 19  1  0
  4  5  1  0
  5  6  1  0
  6  7  1  0
  7  8  2  0
  7  9  1  0
  7 10  1  0
 10 11  1  0
 11 12  1  0
 11 13  2  0
 11 14  1  0
 14 15  1  0
 15 16  2  0
 15 17  1  0
 15 18  1  0
 19 20  1  0
 20 21  2  0
 21 22  1  0
 22 23  1  0
 23 24  2  0
 23 30  1  0
 24 25  1  0
 24 26  1  0
 26 27  2  0
 27 28  1  0
 27 29  1  0
 29 30  2  0
  1 31  1  0
  1 32  1  0
  1 33  1  0
  4 34  1  0
  4 35  1  0
  5 36  1  0
  5 37  1  0
  9 38  1  0
 12 39  1  0
 17 40  1  0
 18 41  1  0
 20 42  1  0
 22 43  1  0
 22 44  1  0
 25 45  1  0
 25 46  1  0
 28 47  1  0
 28 48  1  0
 28 49  1  0
 30 50  1  0
M  CHG  1  21   1
A    1
C01
A    2
C02
A    3
C03
A    4
C04
A    5
C05
A    6
O06
A    7
P07
A    8
O08
A    9
O09
A   10
O10
A   11
P11
A   12
O12
A   13
O13
A   14
O14
A   15
P15
A   16
O16
A   17
O17
A   18
O18
A   19
S19
A   20
C20
A   21
N21
A   22
C22
A   23
C23
A   24
C24
A   25
N25
A   26
N26
A   27
C27
A   28
C28
A   29
N29
A   30
C30
M  END
