5A7C_5D4_A_500
     RDKit          3D

 34 33  0  0  0  0  0  0  0  0999 V2000
   12.1780  -36.1760   34.0430 O   0  0  0  0  0  0  0  0  0  0  0  0
   12.6520  -36.4800   32.9770 C   0  0  0  0  0  0  0  0  0  0  0  0
   13.0480  -35.4060   32.0150 C   0  0  0  0  0  0  0  0  0  0  0  0
   12.8150  -37.7220   32.5550 N   0  0  0  0  0  0  0  0  0  0  0  0
   12.4090  -38.9150   33.2850 C   0  0  0  0  0  0  0  0  0  0  0  0
   13.5500  -39.6180   34.0570 C   0  0  0  0  0  0  0  0  0  0  0  0
   14.8970  -39.7570   33.3010 C   0  0  0  0  0  0  0  0  0  0  0  0
   15.3340  -41.2150   33.0210 C   0  0  0  0  0  0  0  0  0  0  0  0
   16.6270  -41.2970   32.1840 C   0  0  0  0  0  0  0  0  0  0  0  0
   16.8640  -42.6850   31.5980 C   0  0  0  0  0  0  0  0  0  0  0  0
   16.8890  -42.7900   30.1490 N   0  0  0  0  0  0  0  0  0  0  0  0
   16.0630  -42.2280   29.2010 C   0  0  0  0  0  0  0  0  0  0  0  0
   16.1550  -42.6150   28.0440 O   0  0  0  0  0  0  0  0  0  0  0  0
   14.9830  -41.1740   29.4270 C   0  0  0  0  0  0  0  0  0  0  0  0
   13.3759  -34.5166   32.5730 H   0  0  0  0  0  0  0  0  0  0  0  0
   13.8724  -35.7664   31.3821 H   0  0  0  0  0  0  0  0  0  0  0  0
   12.1870  -35.1449   31.3821 H   0  0  0  0  0  0  0  0  0  0  0  0
   13.2644  -37.8566   31.6380 H   0  0  0  0  0  0  0  0  0  0  0  0
   11.6323  -38.6266   34.0086 H   0  0  0  0  0  0  0  0  0  0  0  0
   12.0528  -39.6342   32.5327 H   0  0  0  0  0  0  0  0  0  0  0  0
   13.7377  -39.0441   34.9765 H   0  0  0  0  0  0  0  0  0  0  0  0
   13.2004  -40.6462   34.2318 H   0  0  0  0  0  0  0  0  0  0  0  0
   14.8040  -39.2360   32.3367 H   0  0  0  0  0  0  0  0  0  0  0  0
   15.6668  -39.3222   33.9554 H   0  0  0  0  0  0  0  0  0  0  0  0
   15.5038  -41.7225   33.9820 H   0  0  0  0  0  0  0  0  0  0  0  0
   14.5321  -41.6977   32.4430 H   0  0  0  0  0  0  0  0  0  0  0  0
   16.5576  -40.5738   31.3580 H   0  0  0  0  0  0  0  0  0  0  0  0
   17.4701  -41.0715   32.8536 H   0  0  0  0  0  0  0  0  0  0  0  0
   17.8334  -43.0437   31.9742 H   0  0  0  0  0  0  0  0  0  0  0  0
   15.9963  -43.2825   31.9144 H   0  0  0  0  0  0  0  0  0  0  0  0
   17.6449  -43.3785   29.7705 H   0  0  0  0  0  0  0  0  0  0  0  0
   14.8334  -41.0280   30.5070 H   0  0  0  0  0  0  0  0  0  0  0  0
   15.2958  -40.2243   28.9685 H   0  0  0  0  0  0  0  0  0  0  0  0
   14.0412  -41.5099   28.9685 H   0  0  0  0  0  0  0  0  0  0  0  0
  1  2  2  0
  2  3  1  0
  2  4  1  0
  4  5  1  0
  5  6  1  0
  6  7  1  0
  7  8  1  0
  8  9  1  0
  9 10  1  0
 10 11  1  0
 11 12  1  0
 12 13  2  0
 12 14  1  0
  3 15  1  0
  3 16  1  0
  3 17  1  0
  4 18  1  0
  5 19  1  0
  5 20  1  0
  6 21  1  0
  6 22  1  0
  7 23  1  0
  7 24  1  0
  8 25  1  0
  8 26  1  0
  9 27  1  0
  9 28  1  0
 10 29  1  0
 10 30  1  0
 11 31  1  0
 14 32  1  0
 14 33  1  0
 14 34  1  0
A    1
O1
A    2
C8
A    3
C9
A    4
N1
A    5
C7
A    6
C6
A    7
C5
A    8
C4
A    9
C3
A   10
C2
A   11
N
A   12
C1
A   13
O
A   14
C
M  END
