5A7N_VAO_A_4000
     RDKit          3D

 26 27  0  0  0  0  0  0  0  0999 V2000
  -23.2340  -18.7620  -18.1280 N   0  0  0  0  0  0  0  0  0  0  0  0
  -24.2880  -18.8620  -18.6250 C   0  0  0  0  0  0  0  0  0  0  0  0
  -25.5440  -19.0310  -19.2640 C   0  0  0  0  0  0  0  0  0  0  0  0
  -25.6350  -20.0510  -20.2370 C   0  0  0  0  0  0  0  0  0  0  0  0
  -26.8290  -20.2410  -20.9280 C   0  0  0  0  0  0  0  0  0  0  0  0
  -27.9680  -19.4230  -20.6080 C   0  0  0  0  0  0  0  0  0  0  0  0
  -29.1470  -19.7100  -21.2520 O   0  0  0  0  0  0  0  0  0  0  0  0
  -27.8710  -18.3930  -19.6310 C   0  0  0  0  0  0  0  0  0  0  0  0
  -26.6430  -18.1980  -18.9570 C   0  0  0  0  0  0  0  0  0  0  0  0
  -26.8220  -21.2300  -22.0270 C   0  0  0  0  0  0  0  0  0  0  0  0
  -27.8770  -22.0690  -22.1660 N   0  0  0  0  0  0  0  0  0  0  0  0
  -27.8750  -22.9360  -23.1990 C   0  0  0  0  0  0  0  0  0  0  0  0
  -26.8380  -23.0360  -24.1350 C   0  0  0  0  0  0  0  0  0  0  0  0
  -25.7600  -22.1750  -23.9430 C   0  0  0  0  0  0  0  0  0  0  0  0
  -25.7330  -21.2540  -22.9020 C   0  0  0  0  0  0  0  0  0  0  0  0
  -24.5750  -22.2650  -24.7890 C   0  0  0  0  0  0  0  0  0  0  0  0
  -24.5540  -22.7080  -25.9160 O   0  0  0  0  0  0  0  0  0  0  0  0
  -23.3930  -21.8350  -24.2590 O   0  0  0  0  0  0  0  0  0  0  0  0
  -24.7666  -20.6924  -20.4479 H   0  0  0  0  0  0  0  0  0  0  0  0
  -29.9624  -19.9085  -20.7267 H   0  0  0  0  0  0  0  0  0  0  0  0
  -28.7392  -17.7572  -19.4031 H   0  0  0  0  0  0  0  0  0  0  0  0
  -26.5445  -17.4052  -18.2009 H   0  0  0  0  0  0  0  0  0  0  0  0
  -28.7404  -23.6053  -23.3134 H   0  0  0  0  0  0  0  0  0  0  0  0
  -26.8727  -23.7506  -24.9705 H   0  0  0  0  0  0  0  0  0  0  0  0
  -24.8833  -20.5676  -22.7717 H   0  0  0  0  0  0  0  0  0  0  0  0
  -23.2772  -21.7929  -23.2767 H   0  0  0  0  0  0  0  0  0  0  0  0
  1  2  3  0
  2  3  1  0
  3  4  2  0
  3  9  1  0
  4  5  1  0
  5  6  2  0
  5 10  1  0
  6  7  1  0
  6  8  1  0
  8  9  2  0
 10 11  2  0
 10 15  1  0
 11 12  1  0
 12 13  2  0
 13 14  1  0
 14 15  2  0
 14 16  1  0
 16 17  2  0
 16 18  1  0
  4 19  1  0
  7 20  1  0
  8 21  1  0
  9 22  1  0
 12 23  1  0
 13 24  1  0
 15 25  1  0
 18 26  1  0
A    1
N1
A    2
C
A    3
C1
A    4
C6
A    5
C5
A    6
C4
A    7
O2
A    8
C3
A    9
C2
A   10
C7
A   11
N
A   12
C11
A   13
C10
A   14
C9
A   15
C8
A   16
C12
A   17
O1
A   18
O
M  END
