5A7O_7WH_A_1356
     RDKit          3D

 36 37  0  0  0  0  0  0  0  0999 V2000
  -23.5370  -20.1290  -18.3300 O   0  0  0  0  0  0  0  0  0  0  0  0
  -23.4480  -18.8880  -18.2430 C   0  0  0  0  0  0  0  0  0  0  0  0
  -22.2250  -18.2300  -17.5870 C   0  0  0  0  0  0  0  0  0  0  0  0
  -21.7140  -19.1570  -16.6590 O   0  0  0  0  0  0  0  0  0  0  0  0
  -21.0510  -18.5390  -15.5850 C   0  0  0  0  0  0  0  0  0  0  0  0
  -24.4070  -17.9860  -18.7310 N   0  0  0  0  0  0  0  0  0  0  0  0
  -25.6220  -18.3890  -19.3800 C   0  0  0  0  0  0  0  0  0  0  0  0
  -25.6210  -19.3020  -20.4350 C   0  0  0  0  0  0  0  0  0  0  0  0
  -26.8520  -19.7290  -20.9670 C   0  0  0  0  0  0  0  0  0  0  0  0
  -28.0490  -19.2570  -20.4370 C   0  0  0  0  0  0  0  0  0  0  0  0
  -29.2740  -19.5920  -20.9480 O   0  0  0  0  0  0  0  0  0  0  0  0
  -28.0510  -18.3050  -19.3930 C   0  0  0  0  0  0  0  0  0  0  0  0
  -26.8430  -17.8730  -18.8780 C   0  0  0  0  0  0  0  0  0  0  0  0
  -26.8320  -20.7640  -21.9400 C   0  0  0  0  0  0  0  0  0  0  0  0
  -27.9780  -21.5210  -22.0670 N   0  0  0  0  0  0  0  0  0  0  0  0
  -28.0010  -22.5120  -22.9580 C   0  0  0  0  0  0  0  0  0  0  0  0
  -26.9120  -22.7820  -23.8220 C   0  0  0  0  0  0  0  0  0  0  0  0
  -25.7880  -21.9900  -23.6360 C   0  0  0  0  0  0  0  0  0  0  0  0
  -25.6910  -21.0340  -22.6590 C   0  0  0  0  0  0  0  0  0  0  0  0
  -24.7210  -22.0230  -24.6070 C   0  0  0  0  0  0  0  0  0  0  0  0
  -24.8470  -22.3030  -25.7860 O   0  0  0  0  0  0  0  0  0  0  0  0
  -23.5110  -21.6790  -24.1510 O   0  0  0  0  0  0  0  0  0  0  0  0
  -21.4656  -17.9983  -18.3483 H   0  0  0  0  0  0  0  0  0  0  0  0
  -22.5016  -17.2873  -17.0922 H   0  0  0  0  0  0  0  0  0  0  0  0
  -21.4578  -18.9182  -14.6359 H   0  0  0  0  0  0  0  0  0  0  0  0
  -19.9757  -18.7645  -15.6392 H   0  0  0  0  0  0  0  0  0  0  0  0
  -21.2005  -17.4506  -15.6392 H   0  0  0  0  0  0  0  0  0  0  0  0
  -24.2284  -16.9781  -18.6168 H   0  0  0  0  0  0  0  0  0  0  0  0
  -24.6733  -19.6820  -20.8444 H   0  0  0  0  0  0  0  0  0  0  0  0
  -30.0257  -19.7976  -20.3374 H   0  0  0  0  0  0  0  0  0  0  0  0
  -28.9993  -17.9136  -18.9961 H   0  0  0  0  0  0  0  0  0  0  0  0
  -26.8293  -17.1235  -18.0730 H   0  0  0  0  0  0  0  0  0  0  0  0
  -28.8992  -23.1435  -23.0247 H   0  0  0  0  0  0  0  0  0  0  0  0
  -26.9544  -23.5681  -24.5903 H   0  0  0  0  0  0  0  0  0  0  0  0
  -24.7459  -20.5078  -22.4593 H   0  0  0  0  0  0  0  0  0  0  0  0
  -23.3444  -21.6316  -23.1763 H   0  0  0  0  0  0  0  0  0  0  0  0
  1  2  2  0
  2  3  1  0
  2  6  1  0
  3  4  1  0
  4  5  1  0
  6  7  1  0
  7  8  2  0
  7 13  1  0
  8  9  1  0
  9 10  2  0
  9 14  1  0
 10 11  1  0
 10 12  1  0
 12 13  2  0
 14 15  2  0
 14 19  1  0
 15 16  1  0
 16 17  2  0
 17 18  1  0
 18 19  2  0
 18 20  1  0
 20 21  2  0
 20 22  1  0
  3 23  1  0
  3 24  1  0
  5 25  1  0
  5 26  1  0
  5 27  1  0
  6 28  1  0
  8 29  1  0
 11 30  1  0
 12 31  1  0
 13 32  1  0
 16 33  1  0
 17 34  1  0
 19 35  1  0
 22 36  1  0
A    1
O4
A    2
C2
A    3
C1
A    4
O
A    5
C
A    6
N
A    7
C3
A    8
C8
A    9
C7
A   10
C6
A   11
O3
A   12
C5
A   13
C4
A   14
C9
A   15
N1
A   16
C13
A   17
C12
A   18
C11
A   19
C10
A   20
C14
A   21
O2
A   22
O1
M  END
