5A80_9CJ_A_1357
     RDKit          3D

 46 48  0  0  0  0  0  0  0  0999 V2000
  -23.4830  -18.5590  -18.6020 O   0  0  0  0  0  0  0  0  0  0  0  0
  -23.5690  -17.3570  -18.8480 C   0  0  0  0  0  0  0  0  0  0  0  0
  -22.4040  -16.3960  -18.6010 C   0  0  0  0  0  0  0  0  0  0  0  0
  -22.3010  -15.8850  -17.1870 C   0  0  0  0  0  0  0  0  0  0  0  0
  -22.7130  -14.5750  -16.9040 C   0  0  0  0  0  0  0  0  0  0  0  0
  -22.5850  -14.0550  -15.6130 C   0  0  0  0  0  0  0  0  0  0  0  0
  -22.0510  -14.8310  -14.5930 C   0  0  0  0  0  0  0  0  0  0  0  0
  -21.7690  -16.6800  -16.1710 C   0  0  0  0  0  0  0  0  0  0  0  0
  -21.6470  -16.1420  -14.8830 C   0  0  0  0  0  0  0  0  0  0  0  0
  -21.1160  -16.9190  -13.8520 O   0  0  0  0  0  0  0  0  0  0  0  0
  -20.5100  -16.2050  -12.7790 C   0  0  0  0  0  0  0  0  0  0  0  0
  -24.7260  -16.7900  -19.3790 N   0  0  0  0  0  0  0  0  0  0  0  0
  -25.9130  -17.5480  -19.6790 C   0  0  0  0  0  0  0  0  0  0  0  0
  -25.8540  -18.5520  -20.6460 C   0  0  0  0  0  0  0  0  0  0  0  0
  -27.0190  -19.2500  -20.9910 C   0  0  0  0  0  0  0  0  0  0  0  0
  -28.2120  -18.9180  -20.3670 C   0  0  0  0  0  0  0  0  0  0  0  0
  -29.3770  -19.4480  -20.7470 O   0  0  0  0  0  0  0  0  0  0  0  0
  -28.2750  -17.9170  -19.3820 C   0  0  0  0  0  0  0  0  0  0  0  0
  -27.1330  -17.2430  -19.0410 C   0  0  0  0  0  0  0  0  0  0  0  0
  -26.9670  -20.3750  -21.9020 C   0  0  0  0  0  0  0  0  0  0  0  0
  -28.1060  -21.1220  -22.0110 N   0  0  0  0  0  0  0  0  0  0  0  0
  -28.1560  -22.0960  -22.9270 C   0  0  0  0  0  0  0  0  0  0  0  0
  -27.0900  -22.3630  -23.8140 C   0  0  0  0  0  0  0  0  0  0  0  0
  -25.9280  -21.5950  -23.6400 C   0  0  0  0  0  0  0  0  0  0  0  0
  -25.8370  -20.6270  -22.6470 C   0  0  0  0  0  0  0  0  0  0  0  0
  -24.7830  -21.7380  -24.5500 C   0  0  0  0  0  0  0  0  0  0  0  0
  -24.8550  -21.9030  -25.7450 O   0  0  0  0  0  0  0  0  0  0  0  0
  -23.5430  -21.6650  -24.0240 O   0  0  0  0  0  0  0  0  0  0  0  0
  -21.4686  -16.9209  -18.8451 H   0  0  0  0  0  0  0  0  0  0  0  0
  -22.5845  -15.5173  -19.2376 H   0  0  0  0  0  0  0  0  0  0  0  0
  -23.1400  -13.9521  -17.7038 H   0  0  0  0  0  0  0  0  0  0  0  0
  -22.9092  -13.0249  -15.4038 H   0  0  0  0  0  0  0  0  0  0  0  0
  -21.9468  -14.4248  -13.5761 H   0  0  0  0  0  0  0  0  0  0  0  0
  -21.4506  -17.7124  -16.3779 H   0  0  0  0  0  0  0  0  0  0  0  0
  -20.8596  -16.6169  -11.8208 H   0  0  0  0  0  0  0  0  0  0  0  0
  -19.4164  -16.3045  -12.8437 H   0  0  0  0  0  0  0  0  0  0  0  0
  -20.7859  -15.1421  -12.8437 H   0  0  0  0  0  0  0  0  0  0  0  0
  -24.7324  -15.7772  -19.5664 H   0  0  0  0  0  0  0  0  0  0  0  0
  -24.8987  -18.7942  -21.1346 H   0  0  0  0  0  0  0  0  0  0  0  0
  -30.0310  -19.7455  -20.0660 H   0  0  0  0  0  0  0  0  0  0  0  0
  -29.2300  -17.6781  -18.8912 H   0  0  0  0  0  0  0  0  0  0  0  0
  -27.1673  -16.4617  -18.2675 H   0  0  0  0  0  0  0  0  0  0  0  0
  -29.0639  -22.7136  -22.9918 H   0  0  0  0  0  0  0  0  0  0  0  0
  -27.1661  -23.1306  -24.5982 H   0  0  0  0  0  0  0  0  0  0  0  0
  -24.8986  -20.0833  -22.4634 H   0  0  0  0  0  0  0  0  0  0  0  0
  -23.4217  -21.6579  -23.0415 H   0  0  0  0  0  0  0  0  0  0  0  0
  1  2  2  0
  2  3  1  0
  2 12  1  0
  3  4  1  0
  4  5  2  0
  4  8  1  0
  5  6  1  0
  6  7  2  0
  7  9  1  0
  8  9  2  0
  9 10  1  0
 10 11  1  0
 12 13  1  0
 13 14  2  0
 13 19  1  0
 14 15  1  0
 15 16  2  0
 15 20  1  0
 16 17  1  0
 16 18  1  0
 18 19  2  0
 20 21  2  0
 20 25  1  0
 21 22  1  0
 22 23  2  0
 23 24  1  0
 24 25  2  0
 24 26  1  0
 26 27  2  0
 26 28  1  0
  3 29  1  0
  3 30  1  0
  5 31  1  0
  6 32  1  0
  7 33  1  0
  8 34  1  0
 11 35  1  0
 11 36  1  0
 11 37  1  0
 12 38  1  0
 14 39  1  0
 17 40  1  0
 18 41  1  0
 19 42  1  0
 22 43  1  0
 23 44  1  0
 25 45  1  0
 28 46  1  0
A    1
O4
A    2
C7
A    3
C6
A    4
C5
A    5
C4
A    6
C3
A    7
C2
A    8
C20
A    9
C1
A   10
O
A   11
C
A   12
N
A   13
C8
A   14
C13
A   15
C12
A   16
C11
A   17
O3
A   18
C10
A   19
C9
A   20
C14
A   21
N1
A   22
C18
A   23
C17
A   24
C16
A   25
C15
A   26
C19
A   27
O2
A   28
O1
M  END
