5A82_YEJ_A_2112
     RDKit          3D

 57 60  0  0  0  0  0  0  0  0999 V2000
  -24.3110   42.6350   12.1170 O   0  0  0  0  0  0  0  0  0  0  0  0
  -25.1030   43.4970   11.7470 C   0  0  0  0  0  0  0  0  0  0  0  0
  -24.8340   44.4940   10.7330 C   0  0  0  0  0  0  0  0  0  0  0  0
  -23.4900   44.5010   10.0570 C   0  0  0  0  0  0  0  0  0  0  0  0
  -26.3430   43.5730   12.2770 N   0  0  0  0  0  0  0  0  0  0  0  0
  -27.3270   44.4870   11.9440 C   0  0  0  0  0  0  0  0  0  0  0  0
  -27.0180   45.4480   10.9700 C   0  0  0  0  0  0  0  0  0  0  0  0
  -25.7210   45.4340   10.3440 C   0  0  0  0  0  0  0  0  0  0  0  0
  -28.5960   44.3970   12.5570 C   0  0  0  0  0  0  0  0  0  0  0  0
  -29.5290   45.3130   12.2190 N   0  0  0  0  0  0  0  0  0  0  0  0
  -29.2410   46.2530   11.3020 C   0  0  0  0  0  0  0  0  0  0  0  0
  -28.0270   46.3630   10.6490 C   0  0  0  0  0  0  0  0  0  0  0  0
  -28.9570   43.4300   13.4180 N   0  0  0  0  0  0  0  0  0  0  0  0
  -30.2540   43.2440   14.0330 C   0  0  0  0  0  0  0  0  0  0  0  0
  -30.9430   42.1840   13.1870 C   0  0  0  0  0  0  0  0  0  0  0  0
  -32.3260   41.8310   13.8040 C   0  0  0  0  0  0  0  0  0  0  0  0
  -32.2040   41.3500   15.1780 N   0  0  0  0  0  0  0  0  0  0  0  0
  -31.4130   42.2230   16.0560 C   0  0  0  0  0  0  0  0  0  0  0  0
  -30.1230   42.7590   15.4730 C   0  0  0  0  0  0  0  0  0  0  0  0
  -31.1380   42.7320   11.8770 O   0  0  0  0  0  0  0  0  0  0  0  0
  -31.3210   41.7600   10.8430 C   0  0  0  0  0  0  0  0  0  0  0  0
  -31.2230   42.5050    9.5350 C   0  0  0  0  0  0  0  0  0  0  0  0
  -31.5550   41.5690    8.3790 C   0  0  0  0  0  0  0  0  0  0  0  0
  -31.5400   42.2780    7.0220 C   0  0  0  0  0  0  0  0  0  0  0  0
  -29.9100   42.8510    6.6670 S   0  0  0  0  0  0  0  0  0  0  0  0
  -29.9390   43.6640    5.4820 O   0  0  0  0  0  0  0  0  0  0  0  0
  -28.9990   41.7390    6.7080 O   0  0  0  0  0  0  0  0  0  0  0  0
  -29.6280   43.8820    8.0710 C   0  0  0  0  0  0  0  0  0  0  0  0
  -29.8230   43.0700    9.3330 C   0  0  0  0  0  0  0  0  0  0  0  0
  -22.6964   44.5051   10.8187 H   0  0  0  0  0  0  0  0  0  0  0  0
  -23.3908   43.6034    9.4290 H   0  0  0  0  0  0  0  0  0  0  0  0
  -23.4001   45.3996    9.4290 H   0  0  0  0  0  0  0  0  0  0  0  0
  -26.5800   42.8809   13.0021 H   0  0  0  0  0  0  0  0  0  0  0  0
  -25.4602   46.1700    9.5693 H   0  0  0  0  0  0  0  0  0  0  0  0
  -30.0244   46.9844   11.0543 H   0  0  0  0  0  0  0  0  0  0  0  0
  -27.8590   47.1485    9.8975 H   0  0  0  0  0  0  0  0  0  0  0  0
  -28.2296   42.7450   13.6680 H   0  0  0  0  0  0  0  0  0  0  0  0
  -30.8174   44.1879   14.0722 H   0  0  0  0  0  0  0  0  0  0  0  0
  -30.3300   41.2716   13.1453 H   0  0  0  0  0  0  0  0  0  0  0  0
  -32.9583   42.7311   13.7974 H   0  0  0  0  0  0  0  0  0  0  0  0
  -32.7729   41.0273   13.2004 H   0  0  0  0  0  0  0  0  0  0  0  0
  -33.1505   41.2650   15.5753 H   0  0  0  0  0  0  0  0  0  0  0  0
  -32.0415   43.0833   16.3296 H   0  0  0  0  0  0  0  0  0  0  0  0
  -31.1142   41.5941   16.9076 H   0  0  0  0  0  0  0  0  0  0  0  0
  -29.3698   41.9578   15.5021 H   0  0  0  0  0  0  0  0  0  0  0  0
  -29.8343   43.6299   16.0798 H   0  0  0  0  0  0  0  0  0  0  0  0
  -30.5375   40.9901   10.9018 H   0  0  0  0  0  0  0  0  0  0  0  0
  -32.2919   41.2523   10.9406 H   0  0  0  0  0  0  0  0  0  0  0  0
  -31.9416   43.3374    9.5621 H   0  0  0  0  0  0  0  0  0  0  0  0
  -30.8136   40.7566    8.3599 H   0  0  0  0  0  0  0  0  0  0  0  0
  -32.5733   41.1865    8.5429 H   0  0  0  0  0  0  0  0  0  0  0  0
  -31.8588   41.5746    6.2387 H   0  0  0  0  0  0  0  0  0  0  0  0
  -32.2285   43.1354    7.0519 H   0  0  0  0  0  0  0  0  0  0  0  0
  -28.6001   44.2724    8.0400 H   0  0  0  0  0  0  0  0  0  0  0  0
  -30.3370   44.7229    8.0599 H   0  0  0  0  0  0  0  0  0  0  0  0
  -29.5904   43.7164   10.1921 H   0  0  0  0  0  0  0  0  0  0  0  0
  -29.1551   42.2008    9.2411 H   0  0  0  0  0  0  0  0  0  0  0  0
  1  2  2  0
  2  3  1  0
  2  5  1  0
  3  4  1  0
  3  8  2  0
  5  6  1  0
  6  7  2  0
  6  9  1  0
  7  8  1  0
  7 12  1  0
  9 10  2  0
  9 13  1  0
 10 11  1  0
 11 12  2  0
 13 14  1  0
 14 15  1  0
 14 19  1  0
 15 16  1  0
 15 20  1  0
 16 17  1  0
 17 18  1  0
 18 19  1  0
 20 21  1  0
 21 22  1  0
 22 23  1  0
 22 29  1  0
 23 24  1  0
 24 25  1  0
 25 26  2  0
 25 27  2  0
 25 28  1  0
 28 29  1  0
  4 30  1  0
  4 31  1  0
  4 32  1  0
  5 33  1  0
  8 34  1  0
 11 35  1  0
 12 36  1  0
 13 37  1  0
 14 38  1  0
 15 39  1  0
 16 40  1  0
 16 41  1  0
 17 42  1  0
 18 43  1  0
 18 44  1  0
 19 45  1  0
 19 46  1  0
 21 47  1  0
 21 48  1  0
 22 49  1  0
 23 50  1  0
 23 51  1  0
 24 52  1  0
 24 53  1  0
 28 54  1  0
 28 55  1  0
 29 56  1  0
 29 57  1  0
A    1
O3
A    2
C19
A    3
C1
A    4
C
A    5
N3
A    6
C18
A    7
C3
A    8
C2
A    9
C6
A   10
N
A   11
C5
A   12
C4
A   13
N1
A   14
C7
A   15
C11
A   16
C10
A   17
N2
A   18
C9
A   19
C8
A   20
O
A   21
C12
A   22
C13
A   23
C17
A   24
C16
A   25
S
A   26
O1
A   27
O2
A   28
C15
A   29
C14
M  END
