5A86_D7E_A_1433
     RDKit          3D

 45 47  0  0  0  0  0  0  0  0999 V2000
   29.5530    8.8390   22.9700 C   0  0  0  0  0  0  0  0  0  0  0  0
   29.0180    8.7490   24.3890 C   0  0  0  0  0  0  0  0  0  0  0  0
   29.1000   10.1360   24.8390 N   0  0  0  0  0  0  0  0  0  0  0  0
   28.1870   11.1300   24.5180 C   0  0  0  0  0  0  0  0  0  0  0  0
   27.0070   11.1630   23.7630 C   0  0  0  0  0  0  0  0  0  0  0  0
   26.2900   12.3420   23.6530 C   0  0  0  0  0  0  0  0  0  0  0  0
   26.7460   13.4920   24.3080 C   0  0  0  0  0  0  0  0  0  0  0  0
   27.9170   13.4840   25.0300 C   0  0  0  0  0  0  0  0  0  0  0  0
   28.6540   12.2960   25.1570 C   0  0  0  0  0  0  0  0  0  0  0  0
   29.8020   11.9560   25.8070 N   0  0  0  0  0  0  0  0  0  0  0  0
   30.0760   10.6910   25.6200 C   0  0  0  0  0  0  0  0  0  0  0  0
   31.2280    9.9220   26.2490 C   0  0  0  0  0  0  0  0  0  0  0  0
   32.5970   10.4510   25.8180 C   0  0  0  0  0  0  0  0  0  0  0  0
   31.1100    9.8760   27.7120 N   0  0  0  0  0  0  0  0  0  0  0  0
   29.8950    9.0610   28.5060 S   0  0  0  0  0  0  0  0  0  0  0  0
   29.6310    7.8410   27.8290 O   0  0  0  0  0  0  0  0  0  0  0  0
   30.2390    9.0540   29.8740 O   0  0  0  0  0  0  0  0  0  0  0  0
   28.4730   10.0780   28.3400 C   0  0  0  0  0  0  0  0  0  0  0  0
   27.3810    9.6240   27.5900 C   0  0  0  0  0  0  0  0  0  0  0  0
   26.2620   10.4230   27.4240 C   0  0  0  0  0  0  0  0  0  0  0  0
   26.2590   11.6800   28.0110 C   0  0  0  0  0  0  0  0  0  0  0  0
   27.3660   12.1630   28.7100 C   0  0  0  0  0  0  0  0  0  0  0  0
   28.4900   11.3590   28.8820 C   0  0  0  0  0  0  0  0  0  0  0  0
   24.8730   12.6760   27.8000 Cl  0  0  0  0  0  0  0  0  0  0  0  0
   24.9820   12.3580   22.8930 C   0  0  0  0  0  0  0  0  0  0  0  0
   25.1090   12.0360   21.5380 F   0  0  0  0  0  0  0  0  0  0  0  0
   24.1390   11.3750   23.4090 F   0  0  0  0  0  0  0  0  0  0  0  0
   24.3940   13.6180   23.0640 F   0  0  0  0  0  0  0  0  0  0  0  0
   30.6374    9.0214   22.9979 H   0  0  0  0  0  0  0  0  0  0  0  0
   29.3535    7.8947   22.4423 H   0  0  0  0  0  0  0  0  0  0  0  0
   29.0555    9.6661   22.4423 H   0  0  0  0  0  0  0  0  0  0  0  0
   27.9795    8.3866   24.4013 H   0  0  0  0  0  0  0  0  0  0  0  0
   29.5733    8.0449   25.0261 H   0  0  0  0  0  0  0  0  0  0  0  0
   26.6508   10.2529   23.2582 H   0  0  0  0  0  0  0  0  0  0  0  0
   26.1573   14.4190   24.2443 H   0  0  0  0  0  0  0  0  0  0  0  0
   28.2756   14.4078   25.5074 H   0  0  0  0  0  0  0  0  0  0  0  0
   31.1559    8.8916   25.8708 H   0  0  0  0  0  0  0  0  0  0  0  0
   33.1977   10.6831   26.7098 H   0  0  0  0  0  0  0  0  0  0  0  0
   33.1126    9.6874   25.2171 H   0  0  0  0  0  0  0  0  0  0  0  0
   32.4651   11.3629   25.2171 H   0  0  0  0  0  0  0  0  0  0  0  0
   31.9926    9.4698   28.0538 H   0  0  0  0  0  0  0  0  0  0  0  0
   27.4122    8.6256   27.1294 H   0  0  0  0  0  0  0  0  0  0  0  0
   25.3980   10.0701   26.8418 H   0  0  0  0  0  0  0  0  0  0  0  0
   27.3507   13.1811   29.1261 H   0  0  0  0  0  0  0  0  0  0  0  0
   29.3684   11.7273   29.4322 H   0  0  0  0  0  0  0  0  0  0  0  0
  1  2  1  0
  2  3  1  0
  3  4  1  0
  3 11  1  0
  4  5  2  0
  4  9  1  0
  5  6  1  0
  6  7  2  0
  6 25  1  0
  7  8  1  0
  8  9  2  0
  9 10  1  0
 10 11  2  0
 11 12  1  0
 12 13  1  0
 12 14  1  0
 14 15  1  0
 15 16  2  0
 15 17  2  0
 15 18  1  0
 18 19  2  0
 18 23  1  0
 19 20  1  0
 20 21  2  0
 21 22  1  0
 21 24  1  0
 22 23  2  0
 25 26  1  0
 25 27  1  0
 25 28  1  0
  1 29  1  0
  1 30  1  0
  1 31  1  0
  2 32  1  0
  2 33  1  0
  5 34  1  0
  7 35  1  0
  8 36  1  0
 12 37  1  0
 13 38  1  0
 13 39  1  0
 13 40  1  0
 14 41  1  0
 19 42  1  0
 20 43  1  0
 22 44  1  0
 23 45  1  0
A    1
C1
A    2
C2
A    3
N3
A    4
C4
A    5
C5
A    6
C6
A    7
C7
A    8
C8
A    9
C9
A   10
N10
A   11
C11
A   12
C12
A   13
C14
A   14
N15
A   15
S16
A   16
O17
A   17
O18
A   18
C19
A   19
C20
A   20
C21
A   21
C22
A   22
C23
A   23
C24
A   24
CL25
A   25
C26
A   26
F27
A   27
F28
A   28
F29
M  END
