5A8E_XTK_A_501
     RDKit          3D

 45 46  0  0  0  0  0  0  0  0999 V2000
   25.2110   52.1190    9.9970 N   0  0  0  0  0  0  0  0  0  0  0  0
   24.8930   53.1200   10.5050 C   0  0  0  0  0  0  0  0  0  0  0  0
   24.5360   54.2950   11.0330 C   0  0  0  0  0  0  0  0  0  0  0  0
   23.9020   55.2530   10.3280 N   0  0  0  0  0  0  0  0  0  0  0  0
   23.6690   56.2970   11.1580 C   0  0  0  0  0  0  0  0  0  0  0  0
   23.0260   57.6240   11.0060 C   0  0  0  0  0  0  0  0  0  0  0  0
   22.9330   58.4880   12.0910 C   0  0  0  0  0  0  0  0  0  0  0  0
   23.4290   58.1440   13.3490 C   0  0  0  0  0  0  0  0  0  0  0  0
   24.7520   54.6110   12.3630 C   0  0  0  0  0  0  0  0  0  0  0  0
   24.1970   55.9210   12.4850 C   0  0  0  0  0  0  0  0  0  0  0  0
   24.0500   56.9060   13.5940 C   0  0  0  0  0  0  0  0  0  0  0  0
   24.5450   56.5650   14.8250 O   0  0  0  0  0  0  0  0  0  0  0  0
   24.2060   57.2540   16.0290 C   0  0  0  0  0  0  0  0  0  0  0  0
   24.3840   56.3400   17.2240 C   0  0  0  0  0  0  0  0  0  0  0  0
   24.0230   57.0830   18.3910 O   0  0  0  0  0  0  0  0  0  0  0  0
   23.5230   55.0880   17.0410 C   0  0  0  0  0  0  0  0  0  0  0  0
   23.4280   54.3330   18.2750 N   0  0  0  0  0  0  0  0  0  0  0  0
   22.9720   52.9480   18.3140 C   0  0  0  0  0  0  0  0  0  0  0  0
   24.0670   52.0630   17.7040 C   0  0  0  0  0  0  0  0  0  0  0  0
   22.6830   52.5560   19.7660 C   0  0  0  0  0  0  0  0  0  0  0  0
   21.6630   52.8390   17.5330 C   0  0  0  0  0  0  0  0  0  0  0  0
   22.4740   58.0060    9.6700 C   0  0  0  0  0  0  0  0  0  0  0  0
   23.6408   55.2002    9.3331 H   0  0  0  0  0  0  0  0  0  0  0  0
   22.4555   59.4694   11.9541 H   0  0  0  0  0  0  0  0  0  0  0  0
   23.3313   58.8637   14.1752 H   0  0  0  0  0  0  0  0  0  0  0  0
   25.2351   53.9998   13.1396 H   0  0  0  0  0  0  0  0  0  0  0  0
   24.8602   58.1311   16.1420 H   0  0  0  0  0  0  0  0  0  0  0  0
   23.1547   57.5733   15.9754 H   0  0  0  0  0  0  0  0  0  0  0  0
   25.4249   55.9996   17.3269 H   0  0  0  0  0  0  0  0  0  0  0  0
   24.2726   56.5692   19.1996 H   0  0  0  0  0  0  0  0  0  0  0  0
   22.5131   55.3897   16.7262 H   0  0  0  0  0  0  0  0  0  0  0  0
   23.9926   54.4504   16.2775 H   0  0  0  0  0  0  0  0  0  0  0  0
   24.3731   54.3345   18.6846 H   0  0  0  0  0  0  0  0  0  0  0  0
   24.6493   51.5924   18.5098 H   0  0  0  0  0  0  0  0  0  0  0  0
   23.6038   51.2826   17.0824 H   0  0  0  0  0  0  0  0  0  0  0  0
   24.7329   52.6796   17.0824 H   0  0  0  0  0  0  0  0  0  0  0  0
   23.1973   53.2536   20.4434 H   0  0  0  0  0  0  0  0  0  0  0  0
   21.5992   52.5994   19.9487 H   0  0  0  0  0  0  0  0  0  0  0  0
   23.0450   51.5335   19.9487 H   0  0  0  0  0  0  0  0  0  0  0  0
   20.8207   52.7689   18.2370 H   0  0  0  0  0  0  0  0  0  0  0  0
   21.5385   53.7299   16.8999 H   0  0  0  0  0  0  0  0  0  0  0  0
   21.6875   51.9398   16.8999 H   0  0  0  0  0  0  0  0  0  0  0  0
   21.5766   58.6270    9.8080 H   0  0  0  0  0  0  0  0  0  0  0  0
   23.2307   58.5746    9.1096 H   0  0  0  0  0  0  0  0  0  0  0  0
   22.2085   57.0975    9.1096 H   0  0  0  0  0  0  0  0  0  0  0  0
  1  2  3  0
  2  3  1  0
  3  4  1  0
  3  9  2  0
  4  5  1  0
  5  6  2  0
  5 10  1  0
  6  7  1  0
  6 22  1  0
  7  8  2  0
  8 11  1  0
  9 10  1  0
 10 11  2  0
 11 12  1  0
 12 13  1  0
 13 14  1  0
 14 15  1  0
 14 16  1  0
 16 17  1  0
 17 18  1  0
 18 19  1  0
 18 20  1  0
 18 21  1  0
  4 23  1  0
  7 24  1  0
  8 25  1  0
  9 26  1  0
 13 27  1  0
 13 28  1  0
 14 29  1  0
 15 30  1  0
 16 31  1  0
 16 32  1  0
 17 33  1  0
 19 34  1  0
 19 35  1  0
 19 36  1  0
 20 37  1  0
 20 38  1  0
 20 39  1  0
 21 40  1  0
 21 41  1  0
 21 42  1  0
 22 43  1  0
 22 44  1  0
 22 45  1  0
A    1
N3
A    2
C16
A    3
C1
A    4
N1
A    5
C8
A    6
C7
A    7
C6
A    8
C5
A    9
C2
A   10
C3
A   11
C4
A   12
O1
A   13
C9
A   14
C10
A   15
O2
A   16
C11
A   17
N2
A   18
C12
A   19
C15
A   20
C14
A   21
C13
A   22
C17
M  END
