5A8X_IUY_A_1001
     RDKit          3D

 53 56  0  0  0  0  0  0  0  0999 V2000
   27.7150  -21.6670    4.4360 C   0  0  0  0  0  0  0  0  0  0  0  0
   28.6740  -22.4690    5.2890 C   0  0  0  0  0  0  0  0  0  0  0  0
   27.4010  -22.0160    3.1510 C   0  0  0  0  0  0  0  0  0  0  0  0
   27.9170  -23.1500    2.5470 N   0  0  0  0  0  0  0  0  0  0  0  0
   26.4270  -21.1760    2.3450 C   0  0  0  0  0  0  0  0  0  0  0  0
   27.9460  -23.2930    6.3450 C   0  0  0  0  0  0  0  0  0  0  0  0
   28.1440  -23.0720    7.7130 C   0  0  0  0  0  0  0  0  0  0  0  0
   27.4710  -23.8400    8.6640 C   0  0  0  0  0  0  0  0  0  0  0  0
   26.5950  -24.8680    8.2380 C   0  0  0  0  0  0  0  0  0  0  0  0
   26.4160  -25.1010    6.8750 C   0  0  0  0  0  0  0  0  0  0  0  0
   27.0900  -24.3280    5.9340 C   0  0  0  0  0  0  0  0  0  0  0  0
   27.1640  -20.5120    5.0630 C   0  0  0  0  0  0  0  0  0  0  0  0
   26.3630  -19.7680    4.4990 O   0  0  0  0  0  0  0  0  0  0  0  0
   27.5160  -20.2410    6.3470 O   0  0  0  0  0  0  0  0  0  0  0  0
   26.7090  -19.2790    7.0500 C   0  0  0  0  0  0  0  0  0  0  0  0
   27.0330  -19.2880    8.5590 C   0  0  0  0  0  0  0  0  0  0  0  0
   25.9150  -25.6920    9.1840 C   0  0  0  0  0  0  0  0  0  0  0  0
   25.3880  -26.3640    9.9330 N   0  0  0  0  0  0  0  0  0  0  0  0
   29.3540  -23.4700    4.4550 N   0  0  0  0  0  0  0  0  0  0  0  0
   28.9650  -23.7930    3.1800 C   0  0  0  0  0  0  0  0  0  0  0  0
   29.7220  -24.7430    2.7240 N   0  0  0  0  0  0  0  0  0  0  0  0
   30.6180  -25.0880    3.6740 C   0  0  0  0  0  0  0  0  0  0  0  0
   30.3940  -24.3120    4.7660 C   0  0  0  0  0  0  0  0  0  0  0  0
   27.4590  -23.7080    1.3350 C   0  0  0  0  0  0  0  0  0  0  0  0
   28.0790  -23.3780    0.1280 C   0  0  0  0  0  0  0  0  0  0  0  0
   27.6440  -23.9140   -1.0630 C   0  0  0  0  0  0  0  0  0  0  0  0
   26.5830  -24.8080   -1.0540 C   0  0  0  0  0  0  0  0  0  0  0  0
   25.9550  -25.1710    0.1330 C   0  0  0  0  0  0  0  0  0  0  0  0
   26.3950  -24.6340    1.3330 C   0  0  0  0  0  0  0  0  0  0  0  0
   24.8110  -26.1620    0.1320 C   0  0  0  0  0  0  0  0  0  0  0  0
   24.0530  -26.1020   -1.0200 F   0  0  0  0  0  0  0  0  0  0  0  0
   25.3060  -27.4540    0.2410 F   0  0  0  0  0  0  0  0  0  0  0  0
   23.9680  -25.8950    1.1850 F   0  0  0  0  0  0  0  0  0  0  0  0
   29.3569  -21.7406    5.7507 H   0  0  0  0  0  0  0  0  0  0  0  0
   25.7747  -20.6134    3.0291 H   0  0  0  0  0  0  0  0  0  0  0  0
   26.9868  -20.4728    1.7109 H   0  0  0  0  0  0  0  0  0  0  0  0
   25.8137  -21.8331    1.7109 H   0  0  0  0  0  0  0  0  0  0  0  0
   28.8377  -22.2843    8.0419 H   0  0  0  0  0  0  0  0  0  0  0  0
   27.6198  -23.6483    9.7369 H   0  0  0  0  0  0  0  0  0  0  0  0
   25.7381  -25.9005    6.5414 H   0  0  0  0  0  0  0  0  0  0  0  0
   26.9514  -24.5290    4.8614 H   0  0  0  0  0  0  0  0  0  0  0  0
   26.9086  -18.2761    6.6445 H   0  0  0  0  0  0  0  0  0  0  0  0
   25.6496  -19.5431    6.9159 H   0  0  0  0  0  0  0  0  0  0  0  0
   26.0964  -19.2620    9.1353 H   0  0  0  0  0  0  0  0  0  0  0  0
   27.5918  -20.2020    8.8086 H   0  0  0  0  0  0  0  0  0  0  0  0
   27.6417  -18.4064    8.8086 H   0  0  0  0  0  0  0  0  0  0  0  0
   29.6510  -25.1662    1.7877 H   0  0  0  0  0  0  0  0  0  0  0  0
   31.3937  -25.8622    3.5798 H   0  0  0  0  0  0  0  0  0  0  0  0
   30.9417  -24.3505    5.7192 H   0  0  0  0  0  0  0  0  0  0  0  0
   28.9282  -22.6788    0.1290 H   0  0  0  0  0  0  0  0  0  0  0  0
   28.1312  -23.6371   -2.0095 H   0  0  0  0  0  0  0  0  0  0  0  0
   26.2317  -25.2379   -2.0036 H   0  0  0  0  0  0  0  0  0  0  0  0
   25.9168  -24.9286    2.2788 H   0  0  0  0  0  0  0  0  0  0  0  0
  1  2  1  0
  1  3  2  0
  1 12  1  0
  2  6  1  0
  2 19  1  0
  3  4  1  0
  3  5  1  0
  4 20  1  0
  4 24  1  0
  6  7  2  0
  6 11  1  0
  7  8  1  0
  8  9  2  0
  9 10  1  0
  9 17  1  0
 10 11  2  0
 12 13  2  0
 12 14  1  0
 14 15  1  0
 15 16  1  0
 17 18  3  0
 19 20  2  0
 19 23  1  0
 20 21  1  0
 21 22  1  0
 22 23  2  0
 24 25  2  0
 24 29  1  0
 25 26  1  0
 26 27  2  0
 27 28  1  0
 28 29  2  0
 28 30  1  0
 30 31  1  0
 30 32  1  0
 30 33  1  0
  2 34  1  0
  5 35  1  0
  5 36  1  0
  5 37  1  0
  7 38  1  0
  8 39  1  0
 10 40  1  0
 11 41  1  0
 15 42  1  0
 15 43  1  0
 16 44  1  0
 16 45  1  0
 16 46  1  0
 21 47  1  0
 22 48  1  0
 23 49  1  0
 25 50  1  0
 26 51  1  0
 27 52  1  0
 29 53  1  0
M  CHG  1  19   1
A    1
C1
A    2
C2
A    3
C3
A    4
N4
A    5
C5
A    6
C6
A    7
C7
A    8
C8
A    9
C9
A   10
C10
A   11
C11
A   12
C12
A   13
O13
A   14
O14
A   15
C15
A   16
C16
A   17
C17
A   18
N18
A   19
N19
A   20
C20
A   21
N21
A   22
C22
A   23
C23
A   24
C24
A   25
C25
A   26
C26
A   27
C27
A   28
C28
A   29
C29
A   30
C30
A   31
F31
A   32
F32
A   33
F33
M  END
