5ABF_XRJ_A_1717
     RDKit          3D

 45 45  0  0  0  0  0  0  0  0999 V2000
   27.6400   53.0050  246.0540 O   0  0  0  0  0  0  0  0  0  0  0  0
   28.7340   52.4720  245.9830 C   0  0  0  0  0  0  0  0  0  0  0  0
   29.3230   52.1630  244.8310 N   0  0  0  0  0  0  0  0  0  0  0  0
   28.6980   52.4570  243.5590 C   0  0  0  0  0  0  0  0  0  0  0  0
   29.4700   52.1270  247.2490 C   0  0  0  0  0  0  0  0  0  0  0  0
   28.5500   51.1630  247.9960 C   0  0  0  0  0  0  0  0  0  0  0  0
   29.2470   49.9360  248.5670 C   0  0  0  0  0  0  0  0  0  0  0  0
   30.6030   50.2120  248.9180 O   0  0  0  0  0  0  0  0  0  0  0  0
   28.4060   49.5770  249.7790 C   0  0  0  0  0  0  0  0  0  0  0  0
   28.0350   48.2030  249.7430 O   0  0  0  0  0  0  0  0  0  0  0  0
   27.1970   50.5070  249.6730 C   0  0  0  0  0  0  0  0  0  0  0  0
   26.3690   50.7290  250.9430 C   0  0  0  0  0  0  0  0  0  0  0  0
   26.9060   50.0150  252.0590 O   0  0  0  0  0  0  0  0  0  0  0  0
   27.7840   51.7390  249.1230 N   0  0  0  0  0  0  0  0  0  0  0  0
   28.6330   52.3850  250.1420 C   0  0  0  0  0  0  0  0  0  0  0  0
   28.1190   53.7730  250.4890 C   0  0  0  0  0  0  0  0  0  0  0  0
   28.5800   54.1320  251.8970 C   0  0  0  0  0  0  0  0  0  0  0  0
   28.9070   55.6100  252.0520 C   0  0  0  0  0  0  0  0  0  0  0  0
   27.6750   56.4090  252.4090 C   0  0  0  0  0  0  0  0  0  0  0  0
   30.2450   51.7040  244.8445 H   0  0  0  0  0  0  0  0  0  0  0  0
   27.7150   52.9194  243.7317 H   0  0  0  0  0  0  0  0  0  0  0  0
   29.3343   53.1502  242.9893 H   0  0  0  0  0  0  0  0  0  0  0  0
   28.5697   51.5248  242.9893 H   0  0  0  0  0  0  0  0  0  0  0  0
   30.4302   51.6428  247.0174 H   0  0  0  0  0  0  0  0  0  0  0  0
   29.7020   53.0208  247.8467 H   0  0  0  0  0  0  0  0  0  0  0  0
   27.8656   50.8925  247.1784 H   0  0  0  0  0  0  0  0  0  0  0  0
   29.3140   49.1105  247.8431 H   0  0  0  0  0  0  0  0  0  0  0  0
   30.6916   50.2300  249.9039 H   0  0  0  0  0  0  0  0  0  0  0  0
   28.9376   49.7057  250.7334 H   0  0  0  0  0  0  0  0  0  0  0  0
   27.9429   47.8617  250.6677 H   0  0  0  0  0  0  0  0  0  0  0  0
   26.4160   50.0572  249.0423 H   0  0  0  0  0  0  0  0  0  0  0  0
   26.3600   51.8034  251.1788 H   0  0  0  0  0  0  0  0  0  0  0  0
   25.3510   50.3563  250.7567 H   0  0  0  0  0  0  0  0  0  0  0  0
   26.5920   50.4325  252.8999 H   0  0  0  0  0  0  0  0  0  0  0  0
   28.6355   51.7660  251.0513 H   0  0  0  0  0  0  0  0  0  0  0  0
   29.6504   52.4828  249.7354 H   0  0  0  0  0  0  0  0  0  0  0  0
   28.5187   54.5049  249.7716 H   0  0  0  0  0  0  0  0  0  0  0  0
   27.0201   53.7863  250.4417 H   0  0  0  0  0  0  0  0  0  0  0  0
   27.7794   53.8731  252.6056 H   0  0  0  0  0  0  0  0  0  0  0  0
   29.5017   53.5662  252.0978 H   0  0  0  0  0  0  0  0  0  0  0  0
   29.6556   55.7300  252.8490 H   0  0  0  0  0  0  0  0  0  0  0  0
   29.2972   55.9823  251.0933 H   0  0  0  0  0  0  0  0  0  0  0  0
   27.5816   56.4696  253.5034 H   0  0  0  0  0  0  0  0  0  0  0  0
   27.7620   57.4231  251.9918 H   0  0  0  0  0  0  0  0  0  0  0  0
   26.7846   55.9160  251.9918 H   0  0  0  0  0  0  0  0  0  0  0  0
  1  2  2  0
  2  3  1  0
  2  5  1  0
  3  4  1  0
  5  6  1  0
  6  7  1  0
  6 14  1  0
  7  8  1  0
  7  9  1  0
  9 10  1  0
  9 11  1  0
 11 12  1  0
 11 14  1  0
 12 13  1  0
 14 15  1  0
 15 16  1  0
 16 17  1  0
 17 18  1  0
 18 19  1  0
  3 20  1  0
  4 21  1  0
  4 22  1  0
  4 23  1  0
  5 24  1  0
  5 25  1  0
  6 26  1  0
  7 27  1  0
  8 28  1  0
  9 29  1  0
 10 30  1  0
 11 31  1  0
 12 32  1  0
 12 33  1  0
 13 34  1  0
 15 35  1  0
 15 36  1  0
 16 37  1  0
 16 38  1  0
 17 39  1  0
 17 40  1  0
 18 41  1  0
 18 42  1  0
 19 43  1  0
 19 44  1  0
 19 45  1  0
A    1
O13
A    2
C12
A    3
N14
A    4
C15
A    5
C11
A    6
C3
A    7
C4
A    8
O21
A    9
C5
A   10
O20
A   11
C6
A   12
C18
A   13
O19
A   14
N2
A   15
C1
A   16
C7
A   17
C8
A   18
C9
A   19
C10
M  END
