5ABH_YWN_A_1717
     RDKit          3D

 45 45  0  0  0  0  0  0  0  0999 V2000
   27.5120   52.9680  249.3110 C   0  0  0  0  0  0  0  0  0  0  0  0
   27.8930   51.8380  248.4430 N   0  0  0  0  0  0  0  0  0  0  0  0
   29.3670   51.6630  248.2870 C   0  0  0  0  0  0  0  0  0  0  0  0
   29.5990   50.1810  248.2560 C   0  0  0  0  0  0  0  0  0  0  0  0
   28.4570   49.6780  249.1280 C   0  0  0  0  0  0  0  0  0  0  0  0
   27.2840   50.5140  248.6810 C   0  0  0  0  0  0  0  0  0  0  0  0
   28.5470   53.5820  250.2520 C   0  0  0  0  0  0  0  0  0  0  0  0
   27.8460   54.5770  251.1660 C   0  0  0  0  0  0  0  0  0  0  0  0
   28.3580   56.0010  251.0480 C   0  0  0  0  0  0  0  0  0  0  0  0
   28.0230   56.7940  252.3020 C   0  0  0  0  0  0  0  0  0  0  0  0
   29.9100   52.4040  247.0730 C   0  0  0  0  0  0  0  0  0  0  0  0
   28.9710   52.3830  245.8730 C   0  0  0  0  0  0  0  0  0  0  0  0
   27.7820   52.6620  246.0030 O   0  0  0  0  0  0  0  0  0  0  0  0
   29.5400   52.1700  244.6760 N   0  0  0  0  0  0  0  0  0  0  0  0
   28.8320   52.4730  243.4420 C   0  0  0  0  0  0  0  0  0  0  0  0
   26.0810   50.4140  249.6330 C   0  0  0  0  0  0  0  0  0  0  0  0
   26.4440   50.6880  250.9870 O   0  0  0  0  0  0  0  0  0  0  0  0
   28.1910   48.2960  248.9690 O   0  0  0  0  0  0  0  0  0  0  0  0
   29.5700   49.6230  246.9330 O   0  0  0  0  0  0  0  0  0  0  0  0
   27.1638   53.7750  248.6496 H   0  0  0  0  0  0  0  0  0  0  0  0
   26.7728   52.5270  249.9959 H   0  0  0  0  0  0  0  0  0  0  0  0
   29.9244   52.1122  249.1222 H   0  0  0  0  0  0  0  0  0  0  0  0
   30.5990   49.8904  248.6103 H   0  0  0  0  0  0  0  0  0  0  0  0
   28.6919   49.7773  250.1980 H   0  0  0  0  0  0  0  0  0  0  0  0
   26.7864   50.1756  247.7602 H   0  0  0  0  0  0  0  0  0  0  0  0
   29.0141   52.7901  250.8559 H   0  0  0  0  0  0  0  0  0  0  0  0
   29.3268   54.0937  249.6689 H   0  0  0  0  0  0  0  0  0  0  0  0
   26.7739   54.5748  250.9199 H   0  0  0  0  0  0  0  0  0  0  0  0
   28.0483   54.2538  252.1978 H   0  0  0  0  0  0  0  0  0  0  0  0
   29.4494   55.9830  250.9120 H   0  0  0  0  0  0  0  0  0  0  0  0
   27.8757   56.4817  250.1841 H   0  0  0  0  0  0  0  0  0  0  0  0
   28.2750   56.1975  253.1912 H   0  0  0  0  0  0  0  0  0  0  0  0
   28.6032   57.7285  252.3108 H   0  0  0  0  0  0  0  0  0  0  0  0
   26.9485   57.0295  252.3108 H   0  0  0  0  0  0  0  0  0  0  0  0
   30.0881   53.4518  247.3565 H   0  0  0  0  0  0  0  0  0  0  0  0
   30.8332   51.8894  246.7683 H   0  0  0  0  0  0  0  0  0  0  0  0
   30.4944   51.7854  244.6306 H   0  0  0  0  0  0  0  0  0  0  0  0
   27.8447   52.8955  243.6800 H   0  0  0  0  0  0  0  0  0  0  0  0
   29.4113   53.2020  242.8564 H   0  0  0  0  0  0  0  0  0  0  0  0
   28.7046   51.5506  242.8564 H   0  0  0  0  0  0  0  0  0  0  0  0
   25.3170   51.1394  249.3167 H   0  0  0  0  0  0  0  0  0  0  0  0
   25.6967   49.3844  249.5867 H   0  0  0  0  0  0  0  0  0  0  0  0
   25.8217   50.2182  251.5970 H   0  0  0  0  0  0  0  0  0  0  0  0
   28.1092   47.8711  249.8594 H   0  0  0  0  0  0  0  0  0  0  0  0
   29.5187   48.6361  246.9921 H   0  0  0  0  0  0  0  0  0  0  0  0
  1  2  1  0
  1  7  1  0
  2  3  1  0
  2  6  1  0
  3  4  1  0
  3 11  1  0
  4  5  1  0
  4 19  1  0
  5  6  1  0
  5 18  1  0
  6 16  1  0
  7  8  1  0
  8  9  1  0
  9 10  1  0
 11 12  1  0
 12 13  2  0
 12 14  1  0
 14 15  1  0
 16 17  1  0
  1 20  1  0
  1 21  1  0
  3 22  1  0
  4 23  1  0
  5 24  1  0
  6 25  1  0
  7 26  1  0
  7 27  1  0
  8 28  1  0
  8 29  1  0
  9 30  1  0
  9 31  1  0
 10 32  1  0
 10 33  1  0
 10 34  1  0
 11 35  1  0
 11 36  1  0
 14 37  1  0
 15 38  1  0
 15 39  1  0
 15 40  1  0
 16 41  1  0
 16 42  1  0
 17 43  1  0
 18 44  1  0
 19 45  1  0
A    1
C1
A    2
N2
A    3
C3
A    4
C4
A    5
C5
A    6
C6
A    7
C7
A    8
C8
A    9
C9
A   10
C10
A   11
C11
A   12
C12
A   13
O13
A   14
N14
A   15
C15
A   16
C18
A   17
O19
A   18
O20
A   19
O21
M  END
