4UYH_9S3_A_1184
     RDKit          3D

 69 73  0  0  0  0  0  0  0  0999 V2000
   21.4990    8.4690   -8.0190 O   0  0  0  0  0  0  0  0  0  0  0  0
   20.3860    8.9080   -8.2690 C   0  0  0  0  0  0  0  0  0  0  0  0
   19.3060    8.9610   -7.2210 C   0  0  0  0  0  0  0  0  0  0  0  0
   20.0990    9.3580   -9.5280 N   0  0  0  0  0  0  0  0  0  0  0  0
   21.2150    9.3300  -10.5200 C   0  0  0  0  0  0  0  0  0  0  0  0
   21.2310    8.0140  -11.2870 C   0  0  0  0  0  0  0  0  0  0  0  0
   18.8120    9.7850   -9.9860 C   0  0  0  0  0  0  0  0  0  0  0  0
   18.8320   10.9190  -10.7350 C   0  0  0  0  0  0  0  0  0  0  0  0
   20.1260   11.6110  -11.0650 C   0  0  0  0  0  0  0  0  0  0  0  0
   19.9270   12.5740  -12.1400 N   0  0  0  0  0  0  0  0  0  0  0  0
   19.6410   13.8900  -11.9090 C   0  0  0  0  0  0  0  0  0  0  0  0
   19.6720   14.7730  -12.9930 C   0  0  0  0  0  0  0  0  0  0  0  0
   19.4100   16.1290  -12.8080 C   0  0  0  0  0  0  0  0  0  0  0  0
   19.1190   16.6150  -11.5350 C   0  0  0  0  0  0  0  0  0  0  0  0
   19.0900   15.7490  -10.4440 C   0  0  0  0  0  0  0  0  0  0  0  0
   19.3470   14.3920  -10.6320 C   0  0  0  0  0  0  0  0  0  0  0  0
   21.1810   10.5700  -11.4200 C   0  0  0  0  0  0  0  0  0  0  0  0
   17.6280    9.1010   -9.6850 C   0  0  0  0  0  0  0  0  0  0  0  0
   16.4300    9.5970  -10.1890 C   0  0  0  0  0  0  0  0  0  0  0  0
   16.4200   10.7570  -10.9830 C   0  0  0  0  0  0  0  0  0  0  0  0
   17.6340   11.4100  -11.2640 C   0  0  0  0  0  0  0  0  0  0  0  0
   15.1430   11.2750  -11.5570 C   0  0  0  0  0  0  0  0  0  0  0  0
   13.9080   11.0600  -10.9360 C   0  0  0  0  0  0  0  0  0  0  0  0
   12.7330   11.5390  -11.5120 C   0  0  0  0  0  0  0  0  0  0  0  0
   12.7880   12.2180  -12.7280 C   0  0  0  0  0  0  0  0  0  0  0  0
   14.0060   12.4260  -13.3630 C   0  0  0  0  0  0  0  0  0  0  0  0
   15.1740   11.9500  -12.7850 C   0  0  0  0  0  0  0  0  0  0  0  0
   11.5330   12.7610  -13.3540 C   0  0  0  0  0  0  0  0  0  0  0  0
   11.2160   14.1010  -12.8650 N   0  0  0  0  0  0  0  0  0  0  0  0
   11.9470   15.1260  -13.5980 C   0  0  0  0  0  0  0  0  0  0  0  0
   11.7740   16.4230  -12.8100 C   0  0  0  0  0  0  0  0  0  0  0  0
   10.3040   16.8240  -12.7500 C   0  0  0  0  0  0  0  0  0  0  0  0
    9.4500   15.6710  -12.2380 C   0  0  0  0  0  0  0  0  0  0  0  0
    9.8160   14.3710  -12.9440 C   0  0  0  0  0  0  0  0  0  0  0  0
   19.7639    8.9385   -6.2211 H   0  0  0  0  0  0  0  0  0  0  0  0
   18.7266    9.8887   -7.3382 H   0  0  0  0  0  0  0  0  0  0  0  0
   18.6385    8.0945   -7.3382 H   0  0  0  0  0  0  0  0  0  0  0  0
   22.1731    9.3755   -9.9816 H   0  0  0  0  0  0  0  0  0  0  0  0
   21.2412    7.1751  -10.5756 H   0  0  0  0  0  0  0  0  0  0  0  0
   20.3336    7.9474  -11.9196 H   0  0  0  0  0  0  0  0  0  0  0  0
   22.1298    7.9692  -11.9196 H   0  0  0  0  0  0  0  0  0  0  0  0
   20.4813   12.1732  -10.1888 H   0  0  0  0  0  0  0  0  0  0  0  0
   20.0051   12.2494  -13.1144 H   0  0  0  0  0  0  0  0  0  0  0  0
   19.9049   14.3943  -13.9991 H   0  0  0  0  0  0  0  0  0  0  0  0
   19.4329   16.8158  -13.6670 H   0  0  0  0  0  0  0  0  0  0  0  0
   18.9115   17.6856  -11.3910 H   0  0  0  0  0  0  0  0  0  0  0  0
   18.8653   16.1345   -9.4386 H   0  0  0  0  0  0  0  0  0  0  0  0
   19.3191   13.7080   -9.7710 H   0  0  0  0  0  0  0  0  0  0  0  0
   22.1669   11.0549  -11.3659 H   0  0  0  0  0  0  0  0  0  0  0  0
   20.9196   10.2063  -12.4247 H   0  0  0  0  0  0  0  0  0  0  0  0
   17.6447    8.1928   -9.0646 H   0  0  0  0  0  0  0  0  0  0  0  0
   15.4858    9.0789   -9.9651 H   0  0  0  0  0  0  0  0  0  0  0  0
   17.6410   12.3073  -11.9002 H   0  0  0  0  0  0  0  0  0  0  0  0
   13.8641   10.5084   -9.9853 H   0  0  0  0  0  0  0  0  0  0  0  0
   11.7671   11.3821  -11.0096 H   0  0  0  0  0  0  0  0  0  0  0  0
   14.0442   12.9661  -14.3205 H   0  0  0  0  0  0  0  0  0  0  0  0
   16.1356   12.1041  -13.2964 H   0  0  0  0  0  0  0  0  0  0  0  0
   11.6692   12.8034  -14.4447 H   0  0  0  0  0  0  0  0  0  0  0  0
   10.7011   12.0939  -13.0840 H   0  0  0  0  0  0  0  0  0  0  0  0
   13.0123   14.8600  -13.6644 H   0  0  0  0  0  0  0  0  0  0  0  0
   11.5682   15.2292  -14.6256 H   0  0  0  0  0  0  0  0  0  0  0  0
   12.1507   16.2771  -11.7869 H   0  0  0  0  0  0  0  0  0  0  0  0
   12.3386   17.2214  -13.3138 H   0  0  0  0  0  0  0  0  0  0  0  0
   10.1920   17.6841  -12.0735 H   0  0  0  0  0  0  0  0  0  0  0  0
    9.9687   17.0885  -13.7637 H   0  0  0  0  0  0  0  0  0  0  0  0
    9.6145   15.5528  -11.1568 H   0  0  0  0  0  0  0  0  0  0  0  0
    8.3931   15.8975  -12.4421 H   0  0  0  0  0  0  0  0  0  0  0  0
    9.5272   14.4472  -14.0027 H   0  0  0  0  0  0  0  0  0  0  0  0
    9.2805   13.5490  -12.4464 H   0  0  0  0  0  0  0  0  0  0  0  0
  1  2  2  0
  2  3  1  0
  2  4  1  0
  4  5  1  0
  4  7  1  0
  5  6  1  0
  5 17  1  0
  7  8  2  0
  7 18  1  0
  8  9  1  0
  8 21  1  0
  9 10  1  0
  9 17  1  0
 10 11  1  0
 11 12  2  0
 11 16  1  0
 12 13  1  0
 13 14  2  0
 14 15  1  0
 15 16  2  0
 18 19  2  0
 19 20  1  0
 20 21  2  0
 20 22  1  0
 22 23  2  0
 22 27  1  0
 23 24  1  0
 24 25  2  0
 25 26  1  0
 25 28  1  0
 26 27  2  0
 28 29  1  0
 29 30  1  0
 29 34  1  0
 30 31  1  0
 31 32  1  0
 32 33  1  0
 33 34  1  0
  3 35  1  0
  3 36  1  0
  3 37  1  0
  5 38  1  0
  6 39  1  0
  6 40  1  0
  6 41  1  0
  9 42  1  0
 10 43  1  0
 12 44  1  0
 13 45  1  0
 14 46  1  0
 15 47  1  0
 16 48  1  0
 17 49  1  0
 17 50  1  0
 18 51  1  0
 19 52  1  0
 21 53  1  0
 23 54  1  0
 24 55  1  0
 26 56  1  0
 27 57  1  0
 28 58  1  0
 28 59  1  0
 30 60  1  0
 30 61  1  0
 31 62  1  0
 31 63  1  0
 32 64  1  0
 32 65  1  0
 33 66  1  0
 33 67  1  0
 34 68  1  0
 34 69  1  0
A    1
O
A    2
C17
A    3
C18
A    4
N2
A    5
C2
A    6
C1
A    7
C16
A    8
C11
A    9
C4
A   10
N1
A   11
C5
A   12
C10
A   13
C9
A   14
C8
A   15
C7
A   16
C6
A   17
C3
A   18
C15
A   19
C14
A   20
C13
A   21
C12
A   22
C19
A   23
C30
A   24
C29
A   25
C22
A   26
C21
A   27
C20
A   28
C23
A   29
N3
A   30
C28
A   31
C27
A   32
C26
A   33
C25
A   34
C24
M  END
