5AD4_6M8_A_800
     RDKit          3D

 47 49  0  0  0  0  0  0  0  0999 V2000
    0.5540    3.8220   27.8280 C   0  0  0  0  0  0  0  0  0  0  0  0
    1.8550    4.5050   27.7620 N   0  0  0  0  0  0  0  0  0  0  0  0
    1.8730    5.4180   26.6080 C   0  0  0  0  0  0  0  0  0  0  0  0
    2.9230    3.4930   27.6480 C   0  0  0  0  0  0  0  0  0  0  0  0
    4.3000    4.1000   27.9290 C   0  0  0  0  0  0  0  0  0  0  0  0
    5.3860    3.0440   28.0720 C   0  0  0  0  0  0  0  0  0  0  0  0
    5.2020    1.9210   28.8770 C   0  0  0  0  0  0  0  0  0  0  0  0
    6.2150    0.9710   28.9860 C   0  0  0  0  0  0  0  0  0  0  0  0
    7.4250    1.1510   28.3120 C   0  0  0  0  0  0  0  0  0  0  0  0
    7.6220    2.2730   27.5030 C   0  0  0  0  0  0  0  0  0  0  0  0
    6.5990    3.2170   27.3980 C   0  0  0  0  0  0  0  0  0  0  0  0
    8.8070    2.4560   26.8180 O   0  0  0  0  0  0  0  0  0  0  0  0
    8.8280    3.1550   25.5630 C   0  0  0  0  0  0  0  0  0  0  0  0
   12.1090    1.6700   24.2020 C   0  0  0  0  0  0  0  0  0  0  0  0
   10.9180    1.8140   24.9340 C   0  0  0  0  0  0  0  0  0  0  0  0
   10.1240    2.9600   24.7910 C   0  0  0  0  0  0  0  0  0  0  0  0
   10.5400    3.9600   23.9150 C   0  0  0  0  0  0  0  0  0  0  0  0
   11.7220    3.8160   23.1880 C   0  0  0  0  0  0  0  0  0  0  0  0
   12.5150    2.6720   23.3180 C   0  0  0  0  0  0  0  0  0  0  0  0
   13.7050    2.5270   22.5780 C   0  0  0  0  0  0  0  0  0  0  0  0
   14.4640    1.3700   22.7340 C   0  0  0  0  0  0  0  0  0  0  0  0
   14.0360    0.3940   23.6410 C   0  0  0  0  0  0  0  0  0  0  0  0
   14.7590   -0.7540   23.8200 N   0  0  0  0  0  0  0  0  0  0  0  0
   12.8770    0.5590   24.3380 N   0  0  0  0  0  0  0  0  0  0  0  0
    0.2709    3.6734   28.8805 H   0  0  0  0  0  0  0  0  0  0  0  0
   -0.2084    4.4361   27.3264 H   0  0  0  0  0  0  0  0  0  0  0  0
    0.6266    2.8457   27.3264 H   0  0  0  0  0  0  0  0  0  0  0  0
    1.8935    6.4586   26.9640 H   0  0  0  0  0  0  0  0  0  0  0  0
    2.7674    5.2212   25.9987 H   0  0  0  0  0  0  0  0  0  0  0  0
    0.9715    5.2566   25.9987 H   0  0  0  0  0  0  0  0  0  0  0  0
    2.7321    2.6880   28.3729 H   0  0  0  0  0  0  0  0  0  0  0  0
    2.9205    3.1014   26.6201 H   0  0  0  0  0  0  0  0  0  0  0  0
    4.5665    4.7692   27.0977 H   0  0  0  0  0  0  0  0  0  0  0  0
    4.2362    4.6441   28.8829 H   0  0  0  0  0  0  0  0  0  0  0  0
    4.2582    1.7851   29.4254 H   0  0  0  0  0  0  0  0  0  0  0  0
    6.0613    0.0752   29.6056 H   0  0  0  0  0  0  0  0  0  0  0  0
    8.2269    0.4057   28.4186 H   0  0  0  0  0  0  0  0  0  0  0  0
    6.7494    4.1111   26.7752 H   0  0  0  0  0  0  0  0  0  0  0  0
    7.9945    2.7896   24.9451 H   0  0  0  0  0  0  0  0  0  0  0  0
    8.7377    4.2286   25.7849 H   0  0  0  0  0  0  0  0  0  0  0  0
   10.6056    1.0186   25.6267 H   0  0  0  0  0  0  0  0  0  0  0  0
    9.9325    4.8692   23.7957 H   0  0  0  0  0  0  0  0  0  0  0  0
   12.0352    4.6160   22.5010 H   0  0  0  0  0  0  0  0  0  0  0  0
   14.0304    3.3176   21.8859 H   0  0  0  0  0  0  0  0  0  0  0  0
   15.3866    1.2253   22.1527 H   0  0  0  0  0  0  0  0  0  0  0  0
   14.9689   -1.0873   24.7717 H   0  0  0  0  0  0  0  0  0  0  0  0
   15.0933   -1.2848   23.0030 H   0  0  0  0  0  0  0  0  0  0  0  0
  1  2  1  0
  2  3  1  0
  2  4  1  0
  4  5  1  0
  5  6  1  0
  6  7  2  0
  6 11  1  0
  7  8  1  0
  8  9  2  0
  9 10  1  0
 10 11  2  0
 10 12  1  0
 12 13  1  0
 13 16  1  0
 14 15  2  0
 14 19  1  0
 14 24  1  0
 15 16  1  0
 16 17  2  0
 17 18  1  0
 18 19  2  0
 19 20  1  0
 20 21  2  0
 21 22  1  0
 22 23  1  0
 22 24  2  0
  1 25  1  0
  1 26  1  0
  1 27  1  0
  3 28  1  0
  3 29  1  0
  3 30  1  0
  4 31  1  0
  4 32  1  0
  5 33  1  0
  5 34  1  0
  7 35  1  0
  8 36  1  0
  9 37  1  0
 11 38  1  0
 13 39  1  0
 13 40  1  0
 15 41  1  0
 17 42  1  0
 18 43  1  0
 20 44  1  0
 21 45  1  0
 23 46  1  0
 23 47  1  0
A    1
C31
A    2
N29
A    3
C30
A    4
C28
A    5
C27
A    6
C21
A    7
C22
A    8
C23
A    9
C24
A   10
C25
A   11
C26
A   12
O12
A   13
C11
A   14
C10
A   15
C09
A   16
C08
A   17
C07
A   18
C06
A   19
C05
A   20
C04
A   21
C03
A   22
C02
A   23
N02
A   24
N01
M  END
