5AD6_7M3_A_800
     RDKit          3D

 44 46  0  0  0  0  0  0  0  0999 V2000
   14.9000   -0.7220   23.7730 N   0  0  0  0  0  0  0  0  0  0  0  0
   14.1640    0.4200   23.6070 C   0  0  0  0  0  0  0  0  0  0  0  0
   12.9870    0.5190   24.2650 N   0  0  0  0  0  0  0  0  0  0  0  0
   12.2000    1.6120   24.1570 C   0  0  0  0  0  0  0  0  0  0  0  0
   14.5740    1.4670   22.7680 C   0  0  0  0  0  0  0  0  0  0  0  0
   13.7860    2.6220   22.6410 C   0  0  0  0  0  0  0  0  0  0  0  0
   12.5770    2.6900   23.3510 C   0  0  0  0  0  0  0  0  0  0  0  0
   11.7250    3.7970   23.2800 C   0  0  0  0  0  0  0  0  0  0  0  0
   10.5180    3.8290   24.0100 C   0  0  0  0  0  0  0  0  0  0  0  0
   10.1460    2.7370   24.8070 C   0  0  0  0  0  0  0  0  0  0  0  0
   11.0060    1.6440   24.8730 C   0  0  0  0  0  0  0  0  0  0  0  0
    8.8600    2.6840   25.6150 C   0  0  0  0  0  0  0  0  0  0  0  0
    8.1610    3.9270   25.6310 O   0  0  0  0  0  0  0  0  0  0  0  0
    6.9500    4.1600   25.0040 C   0  0  0  0  0  0  0  0  0  0  0  0
    6.7040    5.4280   24.4780 C   0  0  0  0  0  0  0  0  0  0  0  0
    5.4980    5.7250   23.8500 C   0  0  0  0  0  0  0  0  0  0  0  0
    4.5190    4.7460   23.7480 C   0  0  0  0  0  0  0  0  0  0  0  0
    5.9550    3.1820   24.9060 C   0  0  0  0  0  0  0  0  0  0  0  0
    4.7350    3.4730   24.2770 C   0  0  0  0  0  0  0  0  0  0  0  0
    3.6530    2.4080   24.1520 C   0  0  0  0  0  0  0  0  0  0  0  0
    2.2930    2.9770   24.2530 N   0  0  0  0  0  0  0  0  0  0  0  0
    1.3000    2.0420   23.6980 C   0  0  0  0  0  0  0  0  0  0  0  0
    1.9680    3.2280   25.6670 C   0  0  0  0  0  0  0  0  0  0  0  0
   15.1183   -1.0608   24.7209 H   0  0  0  0  0  0  0  0  0  0  0  0
   15.2355   -1.2426   22.9500 H   0  0  0  0  0  0  0  0  0  0  0  0
   15.5167    1.3826   22.2074 H   0  0  0  0  0  0  0  0  0  0  0  0
   14.1088    3.4551   21.9994 H   0  0  0  0  0  0  0  0  0  0  0  0
   11.9995    4.6537   22.6469 H   0  0  0  0  0  0  0  0  0  0  0  0
    9.8666    4.7136   23.9537 H   0  0  0  0  0  0  0  0  0  0  0  0
   10.7359    0.7856   25.5056 H   0  0  0  0  0  0  0  0  0  0  0  0
    8.2028    1.9177   25.1782 H   0  0  0  0  0  0  0  0  0  0  0  0
    9.1333    2.4465   26.6537 H   0  0  0  0  0  0  0  0  0  0  0  0
    7.4764    6.2068   24.5609 H   0  0  0  0  0  0  0  0  0  0  0  0
    5.3216    6.7292   23.4371 H   0  0  0  0  0  0  0  0  0  0  0  0
    3.5670    4.9753   23.2470 H   0  0  0  0  0  0  0  0  0  0  0  0
    6.1298    2.1797   25.3241 H   0  0  0  0  0  0  0  0  0  0  0  0
    3.7570    1.9106   23.1764 H   0  0  0  0  0  0  0  0  0  0  0  0
    3.7830    1.6967   24.9809 H   0  0  0  0  0  0  0  0  0  0  0  0
    0.7682    1.5412   24.5204 H   0  0  0  0  0  0  0  0  0  0  0  0
    0.5793    2.5971   23.0795 H   0  0  0  0  0  0  0  0  0  0  0  0
    1.8107    1.2893   23.0795 H   0  0  0  0  0  0  0  0  0  0  0  0
    2.6753    2.6817   26.3083 H   0  0  0  0  0  0  0  0  0  0  0  0
    2.0419    4.3057   25.8745 H   0  0  0  0  0  0  0  0  0  0  0  0
    0.9440    2.8841   25.8745 H   0  0  0  0  0  0  0  0  0  0  0  0
  1  2  1  0
  2  3  2  0
  2  5  1  0
  3  4  1  0
  4  7  2  0
  4 11  1  0
  5  6  2  0
  6  7  1  0
  7  8  1  0
  8  9  2  0
  9 10  1  0
 10 11  2  0
 10 12  1  0
 12 13  1  0
 13 14  1  0
 14 15  2  0
 14 18  1  0
 15 16  1  0
 16 17  2  0
 17 19  1  0
 18 19  2  0
 19 20  1  0
 20 21  1  0
 21 22  1  0
 21 23  1  0
  1 24  1  0
  1 25  1  0
  5 26  1  0
  6 27  1  0
  8 28  1  0
  9 29  1  0
 11 30  1  0
 12 31  1  0
 12 32  1  0
 15 33  1  0
 16 34  1  0
 17 35  1  0
 18 36  1  0
 20 37  1  0
 20 38  1  0
 22 39  1  0
 22 40  1  0
 22 41  1  0
 23 42  1  0
 23 43  1  0
 23 44  1  0
A    1
N02
A    2
C02
A    3
N01
A    4
C10
A    5
C03
A    6
C04
A    7
C05
A    8
C06
A    9
C07
A   10
C08
A   11
C09
A   12
C11
A   13
O12
A   14
C25
A   15
C24
A   16
C23
A   17
C22
A   18
C26
A   19
C21
A   20
C27
A   21
N28
A   22
C29
A   23
C30
M  END
