5ADA_2SN_A_800
     RDKit          3D

 45 47  0  0  0  0  0  0  0  0999 V2000
    3.3660    4.5560   24.0270 C   0  0  0  0  0  0  0  0  0  0  0  0
    4.5230    5.3530   23.5850 N   0  0  0  0  0  0  0  0  0  0  0  0
    5.2250    5.9260   24.7390 C   0  0  0  0  0  0  0  0  0  0  0  0
    5.4650    4.5720   22.7540 C   0  0  0  0  0  0  0  0  0  0  0  0
    7.0130    3.2300   24.1580 C   0  0  0  0  0  0  0  0  0  0  0  0
    5.9400    3.2420   23.2820 C   0  0  0  0  0  0  0  0  0  0  0  0
    5.3560    2.0480   22.8650 C   0  0  0  0  0  0  0  0  0  0  0  0
    5.8360    0.8450   23.3710 C   0  0  0  0  0  0  0  0  0  0  0  0
    6.9080    0.8380   24.2660 C   0  0  0  0  0  0  0  0  0  0  0  0
    7.4940    2.0390   24.6630 C   0  0  0  0  0  0  0  0  0  0  0  0
    8.5330    2.1050   25.5200 N   0  0  0  0  0  0  0  0  0  0  0  0
    9.3080    3.3370   25.5290 C   0  0  0  0  0  0  0  0  0  0  0  0
   12.4460    1.7440   24.1130 C   0  0  0  0  0  0  0  0  0  0  0  0
   11.2940    1.9520   24.8580 C   0  0  0  0  0  0  0  0  0  0  0  0
   10.5610    3.1270   24.7030 C   0  0  0  0  0  0  0  0  0  0  0  0
   10.9920    4.0960   23.7950 C   0  0  0  0  0  0  0  0  0  0  0  0
   12.1470    3.8820   23.0380 C   0  0  0  0  0  0  0  0  0  0  0  0
   12.8730    2.7070   23.1990 C   0  0  0  0  0  0  0  0  0  0  0  0
   14.0290    2.4800   22.4650 C   0  0  0  0  0  0  0  0  0  0  0  0
   14.7210    1.2820   22.6520 C   0  0  0  0  0  0  0  0  0  0  0  0
   14.2720    0.3490   23.5830 C   0  0  0  0  0  0  0  0  0  0  0  0
   14.9490   -0.8160   23.7740 N   0  0  0  0  0  0  0  0  0  0  0  0
   13.1440    0.5990   24.2860 N   0  0  0  0  0  0  0  0  0  0  0  0
    3.3343    4.5341   25.1263 H   0  0  0  0  0  0  0  0  0  0  0  0
    2.4403    5.0089   23.6424 H   0  0  0  0  0  0  0  0  0  0  0  0
    3.4593    3.5297   23.6424 H   0  0  0  0  0  0  0  0  0  0  0  0
    4.7685    5.5534   25.6679 H   0  0  0  0  0  0  0  0  0  0  0  0
    6.2843    5.6313   24.7071 H   0  0  0  0  0  0  0  0  0  0  0  0
    5.1484    7.0229   24.7071 H   0  0  0  0  0  0  0  0  0  0  0  0
    4.9712    4.3834   21.7893 H   0  0  0  0  0  0  0  0  0  0  0  0
    6.3732    5.1913   22.7127 H   0  0  0  0  0  0  0  0  0  0  0  0
    7.4859    4.1781   24.4538 H   0  0  0  0  0  0  0  0  0  0  0  0
    4.5252    2.0567   22.1441 H   0  0  0  0  0  0  0  0  0  0  0  0
    5.3701   -0.1035   23.0655 H   0  0  0  0  0  0  0  0  0  0  0  0
    7.2903   -0.1160   24.6581 H   0  0  0  0  0  0  0  0  0  0  0  0
    8.7680    1.3178   26.1413 H   0  0  0  0  0  0  0  0  0  0  0  0
    8.7112    4.1532   25.0958 H   0  0  0  0  0  0  0  0  0  0  0  0
    9.5791    3.6025   26.5615 H   0  0  0  0  0  0  0  0  0  0  0  0
   10.9582    1.1868   25.5734 H   0  0  0  0  0  0  0  0  0  0  0  0
   10.4218    5.0290   23.6753 H   0  0  0  0  0  0  0  0  0  0  0  0
   12.4812    4.6417   22.3161 H   0  0  0  0  0  0  0  0  0  0  0  0
   14.3935    3.2309   21.7485 H   0  0  0  0  0  0  0  0  0  0  0  0
   15.6252    1.0741   22.0611 H   0  0  0  0  0  0  0  0  0  0  0  0
   15.1423   -1.1486   24.7295 H   0  0  0  0  0  0  0  0  0  0  0  0
   15.2681   -1.3651   22.9631 H   0  0  0  0  0  0  0  0  0  0  0  0
  1  2  1  0
  2  3  1  0
  2  4  1  0
  4  6  1  0
  5  6  2  0
  5 10  1  0
  6  7  1  0
  7  8  2  0
  8  9  1  0
  9 10  2  0
 10 11  1  0
 11 12  1  0
 12 15  1  0
 13 14  2  0
 13 18  1  0
 13 23  1  0
 14 15  1  0
 15 16  2  0
 16 17  1  0
 17 18  2  0
 18 19  1  0
 19 20  2  0
 20 21  1  0
 21 22  1  0
 21 23  2  0
  1 24  1  0
  1 25  1  0
  1 26  1  0
  3 27  1  0
  3 28  1  0
  3 29  1  0
  4 30  1  0
  4 31  1  0
  5 32  1  0
  7 33  1  0
  8 34  1  0
  9 35  1  0
 11 36  1  0
 12 37  1  0
 12 38  1  0
 14 39  1  0
 16 40  1  0
 17 41  1  0
 19 42  1  0
 20 43  1  0
 22 44  1  0
 22 45  1  0
A    1
C26
A    2
N24
A    3
C25
A    4
C23
A    5
C16
A    6
C15
A    7
C14
A    8
C13
A    9
C12
A   10
C11
A   11
N22
A   12
C21
A   13
C10
A   14
C09
A   15
C08
A   16
C07
A   17
C06
A   18
C05
A   19
C04
A   20
C03
A   21
C02
A   22
N02
A   23
N01
M  END
