5ADQ_A95_A_2117
     RDKit          3D

 58 61  0  0  0  0  0  0  0  0999 V2000
    1.6450   -4.6320  -22.4800 C   0  0  0  0  0  0  0  0  0  0  0  0
    0.7210   -5.5090  -22.8430 N   0  0  0  0  0  0  0  0  0  0  0  0
    1.7090   -4.1640  -21.3630 O   0  0  0  0  0  0  0  0  0  0  0  0
    2.7090   -4.2890  -23.4660 C   0  0  0  0  0  0  0  0  0  0  0  0
   -4.0020   -9.1350  -20.2250 N   0  0  0  0  0  0  0  0  0  0  0  0
    2.6800   -4.9350  -24.5500 O   0  0  0  0  0  0  0  0  0  0  0  0
    3.7350   -4.5000  -25.3540 C   0  0  0  0  0  0  0  0  0  0  0  0
   -2.9150   -8.3210  -18.4820 O   0  0  0  0  0  0  0  0  0  0  0  0
    4.4380   -3.5510  -24.6480 C   0  0  0  0  0  0  0  0  0  0  0  0
   -2.0420  -13.8500  -24.0240 O   0  0  0  0  0  0  0  0  0  0  0  0
    3.7870   -3.4210  -23.4320 C   0  0  0  0  0  0  0  0  0  0  0  0
   -8.3320  -11.3790  -19.5740 O   0  0  0  0  0  0  0  0  0  0  0  0
   -0.1760   -6.1670  -22.0570 C   0  0  0  0  0  0  0  0  0  0  0  0
   -0.2530   -6.0350  -20.6850 C   0  0  0  0  0  0  0  0  0  0  0  0
   -1.1980   -6.7350  -19.9380 C   0  0  0  0  0  0  0  0  0  0  0  0
   -2.1300   -7.5720  -20.5610 C   0  0  0  0  0  0  0  0  0  0  0  0
   -2.0600   -7.7040  -21.9450 C   0  0  0  0  0  0  0  0  0  0  0  0
   -1.1080   -6.9950  -22.6880 C   0  0  0  0  0  0  0  0  0  0  0  0
   -3.0940   -8.3380  -19.6920 C   0  0  0  0  0  0  0  0  0  0  0  0
   -4.7370  -10.1030  -19.4640 C   0  0  0  0  0  0  0  0  0  0  0  0
   -5.5180  -11.0990  -20.3350 C   0  0  0  0  0  0  0  0  0  0  0  0
   -4.6080  -11.7920  -21.3580 C   0  0  0  0  0  0  0  0  0  0  0  0
   -4.5680  -11.4520  -22.7280 C   0  0  0  0  0  0  0  0  0  0  0  0
   -3.7260  -12.1170  -23.6360 C   0  0  0  0  0  0  0  0  0  0  0  0
   -2.8870  -13.1460  -23.1850 C   0  0  0  0  0  0  0  0  0  0  0  0
   -2.0340  -13.6610  -25.4540 C   0  0  0  0  0  0  0  0  0  0  0  0
   -2.9090  -13.4800  -21.8400 C   0  0  0  0  0  0  0  0  0  0  0  0
   -3.7430  -12.8270  -20.9420 C   0  0  0  0  0  0  0  0  0  0  0  0
   -6.6940  -10.4180  -21.0580 C   0  0  0  0  0  0  0  0  0  0  0  0
   -7.8880  -10.1520  -20.1520 C   0  0  0  0  0  0  0  0  0  0  0  0
   -7.3610  -11.9070  -18.6700 C   0  0  0  0  0  0  0  0  0  0  0  0
   -6.0570  -12.1930  -19.3900 C   0  0  0  0  0  0  0  0  0  0  0  0
    0.6748   -5.7208  -23.8499 H   0  0  0  0  0  0  0  0  0  0  0  0
   -4.1912   -9.0578  -21.2345 H   0  0  0  0  0  0  0  0  0  0  0  0
    3.9635   -4.8529  -26.3705 H   0  0  0  0  0  0  0  0  0  0  0  0
    5.3340   -3.0067  -24.9811 H   0  0  0  0  0  0  0  0  0  0  0  0
    4.0711   -2.7577  -22.6017 H   0  0  0  0  0  0  0  0  0  0  0  0
    0.4478   -5.3617  -20.1697 H   0  0  0  0  0  0  0  0  0  0  0  0
   -1.2115   -6.6281  -18.8433 H   0  0  0  0  0  0  0  0  0  0  0  0
   -2.7622   -8.3745  -22.4621 H   0  0  0  0  0  0  0  0  0  0  0  0
   -1.0937   -7.0913  -23.7837 H   0  0  0  0  0  0  0  0  0  0  0  0
   -4.0282  -10.6669  -18.8397 H   0  0  0  0  0  0  0  0  0  0  0  0
   -5.4738   -9.5511  -18.8618 H   0  0  0  0  0  0  0  0  0  0  0  0
   -5.2154  -10.6422  -23.0957 H   0  0  0  0  0  0  0  0  0  0  0  0
   -3.7252  -11.8308  -24.6981 H   0  0  0  0  0  0  0  0  0  0  0  0
   -1.9885  -12.5857  -25.6815 H   0  0  0  0  0  0  0  0  0  0  0  0
   -1.1564  -14.1645  -25.8855 H   0  0  0  0  0  0  0  0  0  0  0  0
   -2.9510  -14.0886  -25.8855 H   0  0  0  0  0  0  0  0  0  0  0  0
   -2.2500  -14.2816  -21.4751 H   0  0  0  0  0  0  0  0  0  0  0  0
   -3.7293  -13.1230  -19.8826 H   0  0  0  0  0  0  0  0  0  0  0  0
   -6.3442   -9.4577  -21.4649 H   0  0  0  0  0  0  0  0  0  0  0  0
   -7.0320  -11.1055  -21.8474 H   0  0  0  0  0  0  0  0  0  0  0  0
   -8.7038   -9.7087  -20.7419 H   0  0  0  0  0  0  0  0  0  0  0  0
   -7.5926   -9.4568  -19.3523 H   0  0  0  0  0  0  0  0  0  0  0  0
   -7.1782  -11.1756  -17.8690 H   0  0  0  0  0  0  0  0  0  0  0  0
   -7.7454  -12.8474  -18.2481 H   0  0  0  0  0  0  0  0  0  0  0  0
   -6.2025  -13.1046  -19.9882 H   0  0  0  0  0  0  0  0  0  0  0  0
   -5.3045  -12.2737  -18.5918 H   0  0  0  0  0  0  0  0  0  0  0  0
  1  2  1  0
  1  3  2  0
  1  4  1  0
  2 13  1  0
  4  6  1  0
  4 11  2  0
  5 19  1  0
  5 20  1  0
  6  7  1  0
  7  9  2  0
  8 19  2  0
  9 11  1  0
 10 25  1  0
 10 26  1  0
 12 30  1  0
 12 31  1  0
 13 14  2  0
 13 18  1  0
 14 15  1  0
 15 16  2  0
 16 17  1  0
 16 19  1  0
 17 18  2  0
 20 21  1  0
 21 22  1  0
 21 29  1  0
 21 32  1  0
 22 23  2  0
 22 28  1  0
 23 24  1  0
 24 25  2  0
 25 27  1  0
 27 28  2  0
 29 30  1  0
 31 32  1  0
  2 33  1  0
  5 34  1  0
  7 35  1  0
  9 36  1  0
 11 37  1  0
 14 38  1  0
 15 39  1  0
 17 40  1  0
 18 41  1  0
 20 42  1  0
 20 43  1  0
 23 44  1  0
 24 45  1  0
 26 46  1  0
 26 47  1  0
 26 48  1  0
 27 49  1  0
 28 50  1  0
 29 51  1  0
 29 52  1  0
 30 53  1  0
 30 54  1  0
 31 55  1  0
 31 56  1  0
 32 57  1  0
 32 58  1  0
A    1
C
A    2
N
A    3
O
A    4
C1
A    5
N1
A    6
O1
A    7
C2
A    8
O2
A    9
C3
A   10
O3
A   11
C4
A   12
O4
A   13
C5
A   14
C6
A   15
C7
A   16
C8
A   17
C9
A   18
C10
A   19
C11
A   20
C12
A   21
C13
A   22
C14
A   23
C15
A   24
C16
A   25
C17
A   26
C18
A   27
C19
A   28
C20
A   29
C21
A   30
C22
A   31
C23
A   32
C24
M  END
