5AE3_AWB_A_800
     RDKit          3D

 79 80  0  0  0  0  0  0  0  0999 V2000
   38.0850   68.5250   32.4280 C   0  0  0  0  0  0  0  0  0  0  0  0
   28.3150   70.8490   34.7510 N   0  0  0  0  0  0  0  0  0  0  0  0
   29.9330   72.9720   32.4050 O   0  0  0  0  0  0  0  0  0  0  0  0
   37.9300   70.0260   32.6360 C   0  0  0  0  0  0  0  0  0  0  0  0
   25.1980   66.8690   36.0810 N   0  0  0  0  0  0  0  0  0  0  0  0
   28.8030   70.9330   32.1110 O   0  0  0  0  0  0  0  0  0  0  0  0
   36.5010   70.5190   32.9590 C   0  0  0  0  0  0  0  0  0  0  0  0
   31.9180   71.2390   33.8370 O   0  0  0  0  0  0  0  0  0  0  0  0
   36.1160   71.7910   32.1820 C   0  0  0  0  0  0  0  0  0  0  0  0
   32.0650   73.4980   34.2930 O   0  0  0  0  0  0  0  0  0  0  0  0
   35.3760   72.8140   33.0380 C   0  0  0  0  0  0  0  0  0  0  0  0
   26.9180   72.6120   34.9820 O   0  0  0  0  0  0  0  0  0  0  0  0
   34.2680   73.5010   32.2190 C   0  0  0  0  0  0  0  0  0  0  0  0
   24.7130   64.9590   37.2380 O   0  0  0  0  0  0  0  0  0  0  0  0
   32.8980   72.7760   32.1500 C   0  0  0  0  0  0  0  0  0  0  0  0
   27.3310   68.4250   35.1220 O   0  0  0  0  0  0  0  0  0  0  0  0
   31.9130   73.4900   31.2210 C   0  0  0  0  0  0  0  0  0  0  0  0
   32.4680   73.5080   29.8970 O   0  0  0  0  0  0  0  0  0  0  0  0
   30.5430   72.8100   31.1320 C   0  0  0  0  0  0  0  0  0  0  0  0
   32.3410   75.8160   30.0420 O   0  0  0  0  0  0  0  0  0  0  0  0
   29.3540   71.7510   32.8900 C   0  0  0  0  0  0  0  0  0  0  0  0
   29.4930   71.5760   34.3680 C   0  0  0  0  0  0  0  0  0  0  0  0
   30.8550   70.9200   34.7520 C   0  0  0  0  0  0  0  0  0  0  0  0
   32.2830   72.5920   33.5080 C   0  0  0  0  0  0  0  0  0  0  0  0
   30.8860   69.3800   34.7690 C   0  0  0  0  0  0  0  0  0  0  0  0
   27.1030   71.4040   34.9480 C   0  0  0  0  0  0  0  0  0  0  0  0
   25.9620   70.5110   35.3380 C   0  0  0  0  0  0  0  0  0  0  0  0
   26.1390   69.0290   35.4380 C   0  0  0  0  0  0  0  0  0  0  0  0
   24.9780   68.2160   35.8830 C   0  0  0  0  0  0  0  0  0  0  0  0
   23.7730   68.9190   36.2070 C   0  0  0  0  0  0  0  0  0  0  0  0
   23.6510   70.3130   36.1030 C   0  0  0  0  0  0  0  0  0  0  0  0
   24.7270   71.0870   35.6840 C   0  0  0  0  0  0  0  0  0  0  0  0
   24.4480   66.1220   36.9420 C   0  0  0  0  0  0  0  0  0  0  0  0
   29.5060   73.3190   30.1210 C   0  0  0  0  0  0  0  0  0  0  0  0
   32.8300   74.8520   29.4780 C   0  0  0  0  0  0  0  0  0  0  0  0
   33.7950   75.0910   28.3500 C   0  0  0  0  0  0  0  0  0  0  0  0
   33.0380   75.0570   27.0260 C   0  0  0  0  0  0  0  0  0  0  0  0
   31.5020   74.9770   27.1360 C   0  0  0  0  0  0  0  0  0  0  0  0
   33.4360   76.2170   26.1080 C   0  0  0  0  0  0  0  0  0  0  0  0
   38.1369   68.0228   33.4053 H   0  0  0  0  0  0  0  0  0  0  0  0
   37.2216   68.1419   31.8642 H   0  0  0  0  0  0  0  0  0  0  0  0
   39.0084   68.3264   31.8642 H   0  0  0  0  0  0  0  0  0  0  0  0
   28.4029   69.8315   34.8845 H   0  0  0  0  0  0  0  0  0  0  0  0
   38.5844   70.3200   33.4698 H   0  0  0  0  0  0  0  0  0  0  0  0
   38.1940   70.4886   31.6736 H   0  0  0  0  0  0  0  0  0  0  0  0
   25.9576   66.4093   35.5589 H   0  0  0  0  0  0  0  0  0  0  0  0
   35.7882   69.7216   32.7021 H   0  0  0  0  0  0  0  0  0  0  0  0
   36.4712   70.7652   34.0307 H   0  0  0  0  0  0  0  0  0  0  0  0
   37.0346   72.2567   31.7956 H   0  0  0  0  0  0  0  0  0  0  0  0
   35.4361   71.4876   31.3723 H   0  0  0  0  0  0  0  0  0  0  0  0
   34.9245   72.3044   33.9020 H   0  0  0  0  0  0  0  0  0  0  0  0
   36.0914   73.5768   33.3792 H   0  0  0  0  0  0  0  0  0  0  0  0
   34.0969   74.4948   32.6584 H   0  0  0  0  0  0  0  0  0  0  0  0
   34.6401   73.5127   31.1839 H   0  0  0  0  0  0  0  0  0  0  0  0
   33.1065   71.7806   31.7308 H   0  0  0  0  0  0  0  0  0  0  0  0
   27.9367   68.1181   35.8424 H   0  0  0  0  0  0  0  0  0  0  0  0
   31.7608   74.4959   31.6393 H   0  0  0  0  0  0  0  0  0  0  0  0
   30.7842   71.7915   30.7937 H   0  0  0  0  0  0  0  0  0  0  0  0
   29.5397   72.5235   34.9249 H   0  0  0  0  0  0  0  0  0  0  0  0
   30.9873   71.3344   35.7623 H   0  0  0  0  0  0  0  0  0  0  0  0
   30.8931   69.0249   35.8101 H   0  0  0  0  0  0  0  0  0  0  0  0
   29.9955   68.9896   34.2545 H   0  0  0  0  0  0  0  0  0  0  0  0
   31.7915   69.0258   34.2545 H   0  0  0  0  0  0  0  0  0  0  0  0
   22.9040   68.3401   36.5530 H   0  0  0  0  0  0  0  0  0  0  0  0
   22.6961   70.7973   36.3551 H   0  0  0  0  0  0  0  0  0  0  0  0
   24.6091   72.1789   35.6215 H   0  0  0  0  0  0  0  0  0  0  0  0
   23.5592   66.5853   37.3952 H   0  0  0  0  0  0  0  0  0  0  0  0
   28.6452   73.7415   30.6599 H   0  0  0  0  0  0  0  0  0  0  0  0
   29.9606   74.0964   29.4893 H   0  0  0  0  0  0  0  0  0  0  0  0
   29.1691   72.4838   29.4893 H   0  0  0  0  0  0  0  0  0  0  0  0
   34.2718   76.0743   28.4759 H   0  0  0  0  0  0  0  0  0  0  0  0
   34.5684   74.3088   28.3535 H   0  0  0  0  0  0  0  0  0  0  0  0
   33.3530   74.1022   26.5799 H   0  0  0  0  0  0  0  0  0  0  0  0
   31.2106   74.9618   28.1966 H   0  0  0  0  0  0  0  0  0  0  0  0
   31.0531   75.8530   26.6449 H   0  0  0  0  0  0  0  0  0  0  0  0
   31.1465   74.0591   26.6449 H   0  0  0  0  0  0  0  0  0  0  0  0
   33.7330   77.0825   26.7185 H   0  0  0  0  0  0  0  0  0  0  0  0
   34.2800   75.9093   25.4731 H   0  0  0  0  0  0  0  0  0  0  0  0
   32.5809   76.4922   25.4731 H   0  0  0  0  0  0  0  0  0  0  0  0
  1  4  1  0
  2 22  1  0
  2 26  1  0
  3 19  1  0
  3 21  1  0
  4  7  1  0
  5 29  1  0
  5 33  1  0
  6 21  2  0
  7  9  1  0
  8 23  1  0
  8 24  1  0
  9 11  1  0
 10 24  2  0
 11 13  1  0
 12 26  2  0
 13 15  1  0
 14 33  2  0
 15 17  1  0
 15 24  1  0
 16 28  1  0
 17 18  1  0
 17 19  1  0
 18 35  1  0
 19 34  1  0
 20 35  2  0
 21 22  1  0
 22 23  1  0
 23 25  1  0
 26 27  1  0
 27 28  2  0
 27 32  1  0
 28 29  1  0
 29 30  2  0
 30 31  1  0
 31 32  2  0
 35 36  1  0
 36 37  1  0
 37 38  1  0
 37 39  1  0
  1 40  1  0
  1 41  1  0
  1 42  1  0
  2 43  1  0
  4 44  1  0
  4 45  1  0
  5 46  1  0
  7 47  1  0
  7 48  1  0
  9 49  1  0
  9 50  1  0
 11 51  1  0
 11 52  1  0
 13 53  1  0
 13 54  1  0
 15 55  1  0
 16 56  1  0
 17 57  1  0
 19 58  1  0
 22 59  1  0
 23 60  1  0
 25 61  1  0
 25 62  1  0
 25 63  1  0
 30 64  1  0
 31 65  1  0
 32 66  1  0
 33 67  1  0
 34 68  1  0
 34 69  1  0
 34 70  1  0
 36 71  1  0
 36 72  1  0
 37 73  1  0
 38 74  1  0
 38 75  1  0
 38 76  1  0
 39 77  1  0
 39 78  1  0
 39 79  1  0
A    1
C
A    2
N
A    3
O
A    4
C1
A    5
N1
A    6
O1
A    7
C2
A    8
O2
A    9
C3
A   10
O3
A   11
C4
A   12
O4
A   13
C5
A   14
O5
A   15
C6
A   16
O6
A   17
C7
A   18
O7
A   19
C8
A   20
O8
A   21
C9
A   22
C10
A   23
C11
A   24
C12
A   25
C13
A   26
C14
A   27
C15
A   28
C16
A   29
C17
A   30
C18
A   31
C19
A   32
C20
A   33
C21
A   34
C22
A   35
C23
A   36
C24
A   37
C25
A   38
C26
A   39
C27
M  END
