5AF9_SJR_H_1250
     RDKit          3D

 29 30  0  0  0  0  0  0  0  0999 V2000
  138.7890  -14.3420   95.6610 C   0  0  0  0  0  0  0  0  0  0  0  0
  139.0770  -20.6200   92.4240 N   0  0  0  0  0  0  0  0  0  0  0  0
  139.5410  -14.6120   94.4930 O   0  0  0  0  0  0  0  0  0  0  0  0
  139.3510  -15.8130   93.8550 C   0  0  0  0  0  0  0  0  0  0  0  0
  139.3920  -22.8750   92.8090 N   0  0  0  0  0  0  0  0  0  0  0  0
  139.3190  -19.4830   90.4640 O   0  0  0  0  0  0  0  0  0  0  0  0
  140.1550  -16.0050   92.7460 C   0  0  0  0  0  0  0  0  0  0  0  0
  140.1160  -17.2150   92.0730 C   0  0  0  0  0  0  0  0  0  0  0  0
  139.2380  -18.2210   92.4730 C   0  0  0  0  0  0  0  0  0  0  0  0
  139.2140  -19.4920   91.6920 C   0  0  0  0  0  0  0  0  0  0  0  0
  138.9830  -21.9380   91.9470 C   0  0  0  0  0  0  0  0  0  0  0  0
  138.5130  -22.2390   90.6620 C   0  0  0  0  0  0  0  0  0  0  0  0
  138.4830  -23.5710   90.2800 C   0  0  0  0  0  0  0  0  0  0  0  0
  138.9040  -24.5440   91.1540 C   0  0  0  0  0  0  0  0  0  0  0  0
  139.3480  -24.1530   92.3990 C   0  0  0  0  0  0  0  0  0  0  0  0
  138.4080  -18.0020   93.5690 C   0  0  0  0  0  0  0  0  0  0  0  0
  138.4670  -16.8050   94.2630 C   0  0  0  0  0  0  0  0  0  0  0  0
  139.3998  -14.5613   96.5492 H   0  0  0  0  0  0  0  0  0  0  0  0
  138.4948  -13.2821   95.6709 H   0  0  0  0  0  0  0  0  0  0  0  0
  137.8878  -14.9727   95.6709 H   0  0  0  0  0  0  0  0  0  0  0  0
  139.0370  -20.4997   93.4462 H   0  0  0  0  0  0  0  0  0  0  0  0
  140.8217  -15.2012   92.4004 H   0  0  0  0  0  0  0  0  0  0  0  0
  140.7838  -17.3835   91.2153 H   0  0  0  0  0  0  0  0  0  0  0  0
  138.1788  -21.4444   89.9787 H   0  0  0  0  0  0  0  0  0  0  0  0
  138.1226  -23.8488   89.2785 H   0  0  0  0  0  0  0  0  0  0  0  0
  138.8872  -25.6060   90.8680 H   0  0  0  0  0  0  0  0  0  0  0  0
  139.6859  -24.9330   93.0971 H   0  0  0  0  0  0  0  0  0  0  0  0
  137.7017  -18.7837   93.8854 H   0  0  0  0  0  0  0  0  0  0  0  0
  137.8163  -16.6398   95.1344 H   0  0  0  0  0  0  0  0  0  0  0  0
  1  3  1  0
  2 10  1  0
  2 11  1  0
  3  4  1  0
  4  7  2  0
  4 17  1  0
  5 11  2  0
  5 15  1  0
  6 10  2  0
  7  8  1  0
  8  9  2  0
  9 10  1  0
  9 16  1  0
 11 12  1  0
 12 13  2  0
 13 14  1  0
 14 15  2  0
 16 17  2  0
  1 18  1  0
  1 19  1  0
  1 20  1  0
  2 21  1  0
  7 22  1  0
  8 23  1  0
 12 24  1  0
 13 25  1  0
 14 26  1  0
 15 27  1  0
 16 28  1  0
 17 29  1  0
A    1
C
A    2
N
A    3
O
A    4
C1
A    5
N1
A    6
O1
A    7
C2
A    8
C3
A    9
C4
A   10
C5
A   11
C6
A   12
C7
A   13
C8
A   14
C9
A   15
C10
A   16
C11
A   17
C12
M  END
