5AFG_P07_B_1030
     RDKit          3D

 44 48  0  0  0  0  0  0  0  0999 V2000
    1.1950   16.8350  -17.7640 C   0  0  0  0  0  0  0  0  0  0  0  0
    1.5990   15.5220  -18.3920 C   0  0  0  0  0  0  0  0  0  0  0  0
    1.7820   15.5030  -19.9160 N   0  0  0  0  0  0  0  0  0  0  0  0
    2.2690   16.5280  -20.6420 N   0  0  0  0  0  0  0  0  0  0  0  0
    2.4470   16.1360  -21.7900 N   0  0  0  0  0  0  0  0  0  0  0  0
    2.0330   14.8610  -21.9560 C   0  0  0  0  0  0  0  0  0  0  0  0
    1.6050   14.4320  -20.7210 C   0  0  0  0  0  0  0  0  0  0  0  0
    1.0330   13.2470  -20.2930 C   0  0  0  0  0  0  0  0  0  0  0  0
   -0.2550   13.3430  -19.6890 C   0  0  0  0  0  0  0  0  0  0  0  0
   -0.9970   12.2690  -19.1430 C   0  0  0  0  0  0  0  0  0  0  0  0
   -0.4210   11.0080  -19.2560 C   0  0  0  0  0  0  0  0  0  0  0  0
    0.8470   10.8960  -19.8910 C   0  0  0  0  0  0  0  0  0  0  0  0
    1.5740   11.9740  -20.4210 C   0  0  0  0  0  0  0  0  0  0  0  0
    2.7810   11.7670  -21.0740 C   0  0  0  0  0  0  0  0  0  0  0  0
    3.7590   10.9550  -20.6360 N   0  0  0  0  0  0  0  0  0  0  0  0
    4.7370   10.9060  -21.3950 N   0  0  0  0  0  0  0  0  0  0  0  0
    4.4940   11.6940  -22.4550 N   0  0  0  0  0  0  0  0  0  0  0  0
    5.3980   11.8020  -23.5750 C   0  0  0  0  0  0  0  0  0  0  0  0
    6.9220   11.5590  -23.1580 C   0  0  0  0  0  0  0  0  0  0  0  0
    3.2100   12.2210  -22.3080 C   0  0  0  0  0  0  0  0  0  0  0  0
    2.5910   12.9900  -23.3140 C   0  0  0  0  0  0  0  0  0  0  0  0
    2.0210   14.2410  -23.1450 C   0  0  0  0  0  0  0  0  0  0  0  0
    1.4460   14.8830  -24.2510 C   0  0  0  0  0  0  0  0  0  0  0  0
    1.4040   14.2840  -25.5150 C   0  0  0  0  0  0  0  0  0  0  0  0
    1.9460   13.0030  -25.7350 C   0  0  0  0  0  0  0  0  0  0  0  0
    2.5390   12.3800  -24.5750 C   0  0  0  0  0  0  0  0  0  0  0  0
    1.2237   16.7416  -16.6683 H   0  0  0  0  0  0  0  0  0  0  0  0
    1.8920   17.6239  -18.0832 H   0  0  0  0  0  0  0  0  0  0  0  0
    0.1751   17.0957  -18.0832 H   0  0  0  0  0  0  0  0  0  0  0  0
    2.5546   15.2184  -17.9397 H   0  0  0  0  0  0  0  0  0  0  0  0
    0.7561   14.8424  -18.1980 H   0  0  0  0  0  0  0  0  0  0  0  0
   -0.7131   14.3420  -19.6434 H   0  0  0  0  0  0  0  0  0  0  0  0
   -1.9722   12.4223  -18.6576 H   0  0  0  0  0  0  0  0  0  0  0  0
   -0.9342   10.1178  -18.8634 H   0  0  0  0  0  0  0  0  0  0  0  0
    1.2899    9.8924  -19.9727 H   0  0  0  0  0  0  0  0  0  0  0  0
    5.1153   11.0535  -24.3299 H   0  0  0  0  0  0  0  0  0  0  0  0
    5.3190   12.8254  -23.9705 H   0  0  0  0  0  0  0  0  0  0  0  0
    7.0044   11.5459  -22.0612 H   0  0  0  0  0  0  0  0  0  0  0  0
    7.2637   10.5950  -23.5629 H   0  0  0  0  0  0  0  0  0  0  0  0
    7.5466   12.3689  -23.5629 H   0  0  0  0  0  0  0  0  0  0  0  0
    1.0153   15.8868  -24.1213 H   0  0  0  0  0  0  0  0  0  0  0  0
    0.9387   14.8241  -26.3528 H   0  0  0  0  0  0  0  0  0  0  0  0
    1.9196   12.5125  -26.7192 H   0  0  0  0  0  0  0  0  0  0  0  0
    2.9722   11.3751  -24.6867 H   0  0  0  0  0  0  0  0  0  0  0  0
  1  2  1  0
  2  3  1  0
  3  4  1  0
  3  7  1  0
  4  5  2  0
  5  6  1  0
  6  7  2  0
  6 22  1  0
  7  8  1  0
  8  9  2  0
  8 13  1  0
  9 10  1  0
 10 11  2  0
 11 12  1  0
 12 13  2  0
 13 14  1  0
 14 15  1  0
 14 20  2  0
 15 16  2  0
 16 17  1  0
 17 18  1  0
 17 20  1  0
 18 19  1  0
 20 21  1  0
 21 22  2  0
 21 26  1  0
 22 23  1  0
 23 24  2  0
 24 25  1  0
 25 26  2  0
  1 27  1  0
  1 28  1  0
  1 29  1  0
  2 30  1  0
  2 31  1  0
  9 32  1  0
 10 33  1  0
 11 34  1  0
 12 35  1  0
 18 36  1  0
 18 37  1  0
 19 38  1  0
 19 39  1  0
 19 40  1  0
 23 41  1  0
 24 42  1  0
 25 43  1  0
 26 44  1  0
A    1
CAK
A    2
CAM
A    3
NBA
A    4
NAQ
A    5
NAP
A    6
CAX
A    7
CAY
A    8
CAU
A    9
CAI
A   10
CAE
A   11
CAC
A   12
CAG
A   13
CAS
A   14
CAW
A   15
NAO
A   16
NAR
A   17
NBB
A   18
CAN
A   19
CAL
A   20
CAZ
A   21
CAV
A   22
CAT
A   23
CAH
A   24
CAD
A   25
CAF
A   26
CAJ
M  END
