5AFV_JH5_A_1463
     RDKit          3D

 37 39  0  0  0  0  0  0  0  0999 V2000
   10.4870  -16.4850   -5.0540 C   0  0  0  0  0  0  0  0  0  0  0  0
   10.4010  -12.4200   -6.6000 C   0  0  0  0  0  0  0  0  0  0  0  0
    9.5770  -11.7830   -5.6800 C   0  0  0  0  0  0  0  0  0  0  0  0
    9.9000  -12.8530   -7.8170 C   0  0  0  0  0  0  0  0  0  0  0  0
    8.5620  -12.6480   -8.1170 C   0  0  0  0  0  0  0  0  0  0  0  0
    7.7460  -12.0190   -7.1880 C   0  0  0  0  0  0  0  0  0  0  0  0
    8.2390  -11.5940   -5.9660 C   0  0  0  0  0  0  0  0  0  0  0  0
   12.5750  -15.0500   -5.6220 C   0  0  0  0  0  0  0  0  0  0  0  0
   13.5650  -14.7240   -6.5690 C   0  0  0  0  0  0  0  0  0  0  0  0
   13.6530  -15.3540   -7.7990 C   0  0  0  0  0  0  0  0  0  0  0  0
   12.7040  -16.3120   -8.1040 C   0  0  0  0  0  0  0  0  0  0  0  0
   11.7020  -16.6290   -7.1710 C   0  0  0  0  0  0  0  0  0  0  0  0
   11.5920  -16.0180   -5.9030 C   0  0  0  0  0  0  0  0  0  0  0  0
    9.5190  -14.1270   -2.2590 C   0  0  0  0  0  0  0  0  0  0  0  0
    9.8850  -14.7460   -3.3800 N   0  0  0  0  0  0  0  0  0  0  0  0
   10.0960  -13.7580   -4.2050 C   0  0  0  0  0  0  0  0  0  0  0  0
    9.8610  -12.5850   -3.6180 N   0  0  0  0  0  0  0  0  0  0  0  0
    9.5140  -12.7990   -2.4710 N   0  0  0  0  0  0  0  0  0  0  0  0
   10.0780  -11.3900   -4.4800 C   0  0  0  0  0  0  0  0  0  0  0  0
   10.1340  -15.9410   -3.6990 N   0  0  0  0  0  0  0  0  0  0  0  0
    9.5797  -16.3582   -5.6629 H   0  0  0  0  0  0  0  0  0  0  0  0
   10.8706  -17.4756   -4.7685 H   0  0  0  0  0  0  0  0  0  0  0  0
   11.4621  -12.5821   -6.3595 H   0  0  0  0  0  0  0  0  0  0  0  0
   10.5591  -13.3558   -8.5400 H   0  0  0  0  0  0  0  0  0  0  0  0
    8.1516  -12.9807   -9.0818 H   0  0  0  0  0  0  0  0  0  0  0  0
    6.6850  -11.8545   -7.4273 H   0  0  0  0  0  0  0  0  0  0  0  0
    7.5745  -11.1127   -5.2333 H   0  0  0  0  0  0  0  0  0  0  0  0
   12.5696  -14.5403   -4.6473 H   0  0  0  0  0  0  0  0  0  0  0  0
   14.2957  -13.9396   -6.3224 H   0  0  0  0  0  0  0  0  0  0  0  0
   14.4525  -15.1003   -8.5107 H   0  0  0  0  0  0  0  0  0  0  0  0
   12.7332  -16.8257   -9.0762 H   0  0  0  0  0  0  0  0  0  0  0  0
   10.9622  -17.3959   -7.4439 H   0  0  0  0  0  0  0  0  0  0  0  0
    9.2619  -14.6227   -1.3113 H   0  0  0  0  0  0  0  0  0  0  0  0
   10.4246  -13.8773   -5.2480 H   0  0  0  0  0  0  0  0  0  0  0  0
   11.1483  -11.1484   -4.5585 H   0  0  0  0  0  0  0  0  0  0  0  0
    9.5997  -10.4803   -4.0878 H   0  0  0  0  0  0  0  0  0  0  0  0
   10.0897  -16.6299   -2.9346 H   0  0  0  0  0  0  0  0  0  0  0  0
  1 13  1  0
  1 20  1  0
  2  3  2  0
  2  4  1  0
  3  7  1  0
  3 19  1  0
  4  5  2  0
  5  6  1  0
  6  7  2  0
  8  9  2  0
  8 13  1  0
  9 10  1  0
 10 11  2  0
 11 12  1  0
 12 13  2  0
 14 15  1  0
 14 18  2  0
 15 16  2  0
 15 20  1  0
 16 17  1  0
 17 18  1  0
 17 19  1  0
  1 21  1  0
  1 22  1  0
  2 23  1  0
  4 24  1  0
  5 25  1  0
  6 26  1  0
  7 27  1  0
  8 28  1  0
  9 29  1  0
 10 30  1  0
 11 31  1  0
 12 32  1  0
 14 33  1  0
 16 34  1  0
 19 35  1  0
 19 36  1  0
 20 37  1  0
M  CHG  1  15   1
A    1
C2
A    2
C4
A    3
C5
A    4
CAA
A    5
CAB
A    6
CAC
A    7
CAD
A    8
CAK
A    9
CAL
A   10
CAM
A   11
CAN
A   12
CAO
A   13
CAP
A   14
CAQ
A   15
NAQ
A   16
CAR
A   17
NAS
A   18
NAT
A   19
C3
A   20
N4
M  END
