5FOM_A2H_A_1542
     RDKit          3D

 60 65  0  0  0  0  0  0  0  0999 V2000
    4.3690  -15.9690  -21.8790 B   0  0  0  0  0  0  0  0  0  0  0  0
    4.3520  -10.1230  -25.8640 P   0  0  0  0  0  0  0  0  0  0  0  0
    4.7450  -17.9520  -17.1360 Cl  0  0  0  0  0  0  0  0  0  0  0  0
   -1.8180  -13.5960  -27.4450 N   0  0  0  0  0  0  0  0  0  0  0  0
    4.7470  -17.3880  -21.7290 O   0  0  0  0  0  0  0  0  0  0  0  0
   -1.7620  -13.3620  -26.1170 C   0  0  0  0  0  0  0  0  0  0  0  0
   -0.6530  -13.6730  -25.4090 N   0  0  0  0  0  0  0  0  0  0  0  0
    0.4240  -14.2500  -26.0250 C   0  0  0  0  0  0  0  0  0  0  0  0
    0.3830  -14.5120  -27.3930 C   0  0  0  0  0  0  0  0  0  0  0  0
   -0.7630  -14.1660  -28.0980 C   0  0  0  0  0  0  0  0  0  0  0  0
   -0.7870  -14.4170  -29.4240 N   0  0  0  0  0  0  0  0  0  0  0  0
    1.5570  -15.0730  -27.7600 N   0  0  0  0  0  0  0  0  0  0  0  0
    2.3070  -15.1640  -26.6440 C   0  0  0  0  0  0  0  0  0  0  0  0
    1.6150  -14.6710  -25.5930 N   0  0  0  0  0  0  0  0  0  0  0  0
    2.0340  -14.5850  -24.1800 C   0  0  0  0  0  0  0  0  0  0  0  0
    4.6460  -17.8740  -20.3870 C   0  0  0  0  0  0  0  0  0  0  0  0
    4.5270  -16.6130  -19.6090 C   0  0  0  0  0  0  0  0  0  0  0  0
    4.4210  -15.4990  -20.4390 C   0  0  0  0  0  0  0  0  0  0  0  0
    4.5750  -16.5080  -18.2200 C   0  0  0  0  0  0  0  0  0  0  0  0
    4.4760  -15.2360  -17.6510 C   0  0  0  0  0  0  0  0  0  0  0  0
    4.3500  -14.1000  -18.4440 C   0  0  0  0  0  0  0  0  0  0  0  0
    4.3170  -14.2090  -19.8540 C   0  0  0  0  0  0  0  0  0  0  0  0
    3.4750  -18.8320  -20.2510 C   0  0  0  0  0  0  0  0  0  0  0  0
    2.2690  -18.2420  -20.7460 N   0  0  0  0  0  0  0  0  0  0  0  0
    4.1740  -13.0800  -20.6210 O   0  0  0  0  0  0  0  0  0  0  0  0
    3.6220  -10.7290  -27.0210 O   0  0  0  0  0  0  0  0  0  0  0  0
    3.0590  -15.6530  -23.8200 C   0  0  0  0  0  0  0  0  0  0  0  0
    3.0700  -16.0010  -22.4410 O   0  0  0  0  0  0  0  0  0  0  0  0
    4.4000  -11.7160  -20.2170 C   0  0  0  0  0  0  0  0  0  0  0  0
    3.7540  -10.7750  -21.2270 C   0  0  0  0  0  0  0  0  0  0  0  0
    3.5830   -8.9910  -25.2260 O   0  0  0  0  0  0  0  0  0  0  0  0
    4.3940  -14.9840  -24.0220 C   0  0  0  0  0  0  0  0  0  0  0  0
    5.1820  -15.4410  -22.9230 O   0  0  0  0  0  0  0  0  0  0  0  0
    5.8380   -9.9010  -26.0210 O   0  0  0  0  0  0  0  0  0  0  0  0
    4.0750  -13.4940  -23.9270 C   0  0  0  0  0  0  0  0  0  0  0  0
    2.6630  -13.3360  -23.9750 O   0  0  0  0  0  0  0  0  0  0  0  0
    4.6250  -12.6530  -25.0520 C   0  0  0  0  0  0  0  0  0  0  0  0
    4.2840  -11.2950  -24.7600 O   0  0  0  0  0  0  0  0  0  0  0  0
   -2.6269  -12.9140  -25.6058 H   0  0  0  0  0  0  0  0  0  0  0  0
   -0.8796  -15.3851  -29.7633 H   0  0  0  0  0  0  0  0  0  0  0  0
   -0.7127  -13.6404  -30.0966 H   0  0  0  0  0  0  0  0  0  0  0  0
    3.3257  -15.5762  -26.5959 H   0  0  0  0  0  0  0  0  0  0  0  0
    1.1355  -14.7190  -23.5597 H   0  0  0  0  0  0  0  0  0  0  0  0
    5.4938  -18.4795  -20.0339 H   0  0  0  0  0  0  0  0  0  0  0  0
    4.4981  -15.1308  -16.5563 H   0  0  0  0  0  0  0  0  0  0  0  0
    4.2755  -13.1096  -17.9711 H   0  0  0  0  0  0  0  0  0  0  0  0
    3.6897  -19.7461  -20.8241 H   0  0  0  0  0  0  0  0  0  0  0  0
    3.3377  -19.0682  -19.1855 H   0  0  0  0  0  0  0  0  0  0  0  0
    1.6779  -17.9528  -19.9536 H   0  0  0  0  0  0  0  0  0  0  0  0
    2.5001  -17.4188  -21.3203 H   0  0  0  0  0  0  0  0  0  0  0  0
    2.8389  -16.5502  -24.4171 H   0  0  0  0  0  0  0  0  0  0  0  0
    3.9567  -11.5491  -19.2242 H   0  0  0  0  0  0  0  0  0  0  0  0
    5.4816  -11.5205  -20.1723 H   0  0  0  0  0  0  0  0  0  0  0  0
    3.2096   -9.9820  -20.6933 H   0  0  0  0  0  0  0  0  0  0  0  0
    4.5335  -10.3236  -21.8583 H   0  0  0  0  0  0  0  0  0  0  0  0
    3.0526  -11.3402  -21.8583 H   0  0  0  0  0  0  0  0  0  0  0  0
    4.9232  -15.1905  -24.9639 H   0  0  0  0  0  0  0  0  0  0  0  0
    4.5415  -13.1524  -22.9912 H   0  0  0  0  0  0  0  0  0  0  0  0
    5.7178  -12.7649  -25.1087 H   0  0  0  0  0  0  0  0  0  0  0  0
    4.2046  -12.9655  -26.0193 H   0  0  0  0  0  0  0  0  0  0  0  0
  1  5  1  0
  1 18  1  0
  1 28  1  0
  1 33  1  0
  2 26  2  0
  2 31  1  0
  2 34  1  0
  2 38  1  0
  3 19  1  0
  4  6  2  0
  4 10  1  0
  5 16  1  0
  6  7  1  0
  7  8  2  0
  8  9  1  0
  8 14  1  0
  9 10  2  0
  9 12  1  0
 10 11  1  0
 12 13  2  0
 13 14  1  0
 14 15  1  0
 15 27  1  0
 15 36  1  0
 16 17  1  0
 16 23  1  0
 17 18  2  0
 17 19  1  0
 18 22  1  0
 19 20  2  0
 20 21  1  0
 21 22  2  0
 22 25  1  0
 23 24  1  0
 25 29  1  0
 27 28  1  0
 27 32  1  0
 29 30  1  0
 32 33  1  0
 32 35  1  0
 35 36  1  0
 35 37  1  0
 37 38  1  0
  6 39  1  0
 11 40  1  0
 11 41  1  0
 13 42  1  0
 15 43  1  0
 16 44  1  0
 20 45  1  0
 21 46  1  0
 23 47  1  0
 23 48  1  0
 24 49  1  0
 24 50  1  0
 27 51  1  0
 29 52  1  0
 29 53  1  0
 30 54  1  0
 30 55  1  0
 30 56  1  0
 32 57  1  0
 35 58  1  0
 37 59  1  0
 37 60  1  0
M  CHG  3   1  -1  31  -1  34  -1
A    1
B
A    2
P
A    3
CL
A    4
N1
A    5
O1
A    6
C2
A    7
N3
A    8
C4
A    9
C5
A   10
C6
A   11
N6
A   12
N7
A   13
C8
A   14
N9
A   15
C1'
A   16
C10
A   17
C11
A   18
C12
A   19
C13
A   20
C14
A   21
C15
A   22
C16
A   23
C17
A   24
N18
A   25
O19
A   26
O1P
A   27
C2'
A   28
O2'
A   29
C20
A   30
C21
A   31
O2P
A   32
C3'
A   33
O3'
A   34
O3P
A   35
C4'
A   36
O4'
A   37
C5'
A   38
O5'
M  END
