5AH6_C7U_A_1101
     RDKit          3D

 80 84  0  0  0  0  0  0  0  0999 V2000
    7.7080   26.0880    6.9500 C   0  0  0  0  0  0  0  0  0  0  0  0
    7.5320   25.5380    5.5450 C   0  0  0  0  0  0  0  0  0  0  0  0
    5.7750   25.3560    5.2650 Cl  0  0  0  0  0  0  0  0  0  0  0  0
    8.0430   26.6250    4.6030 C   0  0  0  0  0  0  0  0  0  0  0  0
    8.1990   27.8440    5.3540 O   0  0  0  0  0  0  0  0  0  0  0  0
    7.8100   27.5960    6.7530 C   0  0  0  0  0  0  0  0  0  0  0  0
    8.8510   28.0360    7.6750 O   0  0  0  0  0  0  0  0  0  0  0  0
    9.2710   26.8830    8.4560 C   0  0  0  0  0  0  0  0  0  0  0  0
    9.0570   25.7060    7.5360 C   0  0  0  0  0  0  0  0  0  0  0  0
   10.0260   25.8060    6.5040 O   0  0  0  0  0  0  0  0  0  0  0  0
   10.6830   24.6680    6.1600 C   0  0  0  0  0  0  0  0  0  0  0  0
   10.4390   23.5860    6.7110 O   0  0  0  0  0  0  0  0  0  0  0  0
   11.5780   24.7730    5.1710 N   0  0  0  0  0  0  0  0  0  0  0  0
   12.2580   23.6390    4.5360 C   0  0  0  0  0  0  0  0  0  0  0  0
   11.8550   23.6280    3.0500 C   0  0  0  0  0  0  0  0  0  0  0  0
   10.4810   23.4060    2.9300 C   0  0  0  0  0  0  0  0  0  0  0  0
    9.9150   22.2000    3.3510 C   0  0  0  0  0  0  0  0  0  0  0  0
    8.5370   21.9910    3.2810 C   0  0  0  0  0  0  0  0  0  0  0  0
    7.7160   23.0110    2.8110 C   0  0  0  0  0  0  0  0  0  0  0  0
    8.2940   24.1770    2.3130 C   0  0  0  0  0  0  0  0  0  0  0  0
    9.6730   24.3780    2.3580 C   0  0  0  0  0  0  0  0  0  0  0  0
   13.7620   23.8760    4.6990 C   0  0  0  0  0  0  0  0  0  0  0  0
   14.1630   25.0260    3.9510 O   0  0  0  0  0  0  0  0  0  0  0  0
   14.5710   22.6390    4.3090 C   0  0  0  0  0  0  0  0  0  0  0  0
   14.3450   21.5900    5.3080 N   0  0  0  0  0  0  0  0  0  0  0  0
   15.4890   21.3920    6.2140 C   0  0  0  0  0  0  0  0  0  0  0  0
   15.4990   22.4600    7.3180 C   0  0  0  0  0  0  0  0  0  0  0  0
   16.5150   22.0680    8.3970 C   0  0  0  0  0  0  0  0  0  0  0  0
   14.1070   22.5780    7.9540 C   0  0  0  0  0  0  0  0  0  0  0  0
   13.7560   20.2280    4.6230 S   0  0  0  0  0  0  0  0  0  0  0  0
   12.6240   20.6110    3.6770 O   0  0  0  0  0  0  0  0  0  0  0  0
   13.2550   19.3200    5.7300 O   0  0  0  0  0  0  0  0  0  0  0  0
   15.0090   19.4090    3.6980 C   0  0  0  0  0  0  0  0  0  0  0  0
   15.8690   18.5260    4.3310 C   0  0  0  0  0  0  0  0  0  0  0  0
   16.8470   17.9400    3.6480 C   0  0  0  0  0  0  0  0  0  0  0  0
   17.7970   17.0710    4.0440 O   0  0  0  0  0  0  0  0  0  0  0  0
   18.5140   16.7590    2.9670 C   0  0  0  0  0  0  0  0  0  0  0  0
   19.6470   16.0640    2.9730 N   0  0  0  0  0  0  0  0  0  0  0  0
   20.0140   15.4050    4.2350 C   0  0  0  0  0  0  0  0  0  0  0  0
   18.1450   17.5430    1.9580 N   0  0  0  0  0  0  0  0  0  0  0  0
   17.0730   18.2360    2.3610 C   0  0  0  0  0  0  0  0  0  0  0  0
   16.2640   19.0630    1.7010 C   0  0  0  0  0  0  0  0  0  0  0  0
   15.2120   19.7010    2.3550 C   0  0  0  0  0  0  0  0  0  0  0  0
    6.8962   25.7242    7.5970 H   0  0  0  0  0  0  0  0  0  0  0  0
    8.0549   24.5818    5.3963 H   0  0  0  0  0  0  0  0  0  0  0  0
    9.0124   26.3234    4.1795 H   0  0  0  0  0  0  0  0  0  0  0  0
    7.3285   26.7777    3.7807 H   0  0  0  0  0  0  0  0  0  0  0  0
    6.8695   28.1322    6.9475 H   0  0  0  0  0  0  0  0  0  0  0  0
   10.3309   26.9690    8.7374 H   0  0  0  0  0  0  0  0  0  0  0  0
    8.7083   26.7870    9.3963 H   0  0  0  0  0  0  0  0  0  0  0  0
    9.1143   24.7068    7.9924 H   0  0  0  0  0  0  0  0  0  0  0  0
   11.8059   25.7182    4.8311 H   0  0  0  0  0  0  0  0  0  0  0  0
   11.9880   22.6711    4.9836 H   0  0  0  0  0  0  0  0  0  0  0  0
   12.1085   24.5976    2.5965 H   0  0  0  0  0  0  0  0  0  0  0  0
   12.3977   22.8221    2.5343 H   0  0  0  0  0  0  0  0  0  0  0  0
   10.5649   21.4039    3.7432 H   0  0  0  0  0  0  0  0  0  0  0  0
    8.1043   21.0294    3.5943 H   0  0  0  0  0  0  0  0  0  0  0  0
    6.6220   22.8982    2.8323 H   0  0  0  0  0  0  0  0  0  0  0  0
    7.6498   24.9541    1.8758 H   0  0  0  0  0  0  0  0  0  0  0  0
   10.1152   25.2966    1.9448 H   0  0  0  0  0  0  0  0  0  0  0  0
   13.9691   24.0675    5.7622 H   0  0  0  0  0  0  0  0  0  0  0  0
   14.4164   25.7528    4.5737 H   0  0  0  0  0  0  0  0  0  0  0  0
   14.2475   22.2829    3.3198 H   0  0  0  0  0  0  0  0  0  0  0  0
   15.6410   22.8908    4.2682 H   0  0  0  0  0  0  0  0  0  0  0  0
   15.4158   20.3962    6.6756 H   0  0  0  0  0  0  0  0  0  0  0  0
   16.4190   21.4759    5.6326 H   0  0  0  0  0  0  0  0  0  0  0  0
   15.7766   23.4281    6.8756 H   0  0  0  0  0  0  0  0  0  0  0  0
   16.0770   22.2370    9.3918 H   0  0  0  0  0  0  0  0  0  0  0  0
   16.7752   21.0049    8.2867 H   0  0  0  0  0  0  0  0  0  0  0  0
   17.4218   22.6808    8.2867 H   0  0  0  0  0  0  0  0  0  0  0  0
   14.2027   22.5699    9.0498 H   0  0  0  0  0  0  0  0  0  0  0  0
   13.6363   23.5193    7.6340 H   0  0  0  0  0  0  0  0  0  0  0  0
   13.4845   21.7294    7.6340 H   0  0  0  0  0  0  0  0  0  0  0  0
   15.7419   18.3094    5.4019 H   0  0  0  0  0  0  0  0  0  0  0  0
   20.2395   15.9906    2.1337 H   0  0  0  0  0  0  0  0  0  0  0  0
   19.6724   16.0184    5.0818 H   0  0  0  0  0  0  0  0  0  0  0  0
   19.5374   14.4148    4.2837 H   0  0  0  0  0  0  0  0  0  0  0  0
   21.1068   15.2888    4.2837 H   0  0  0  0  0  0  0  0  0  0  0  0
   16.4281   19.2442    0.6285 H   0  0  0  0  0  0  0  0  0  0  0  0
   14.5628   20.4133    1.8248 H   0  0  0  0  0  0  0  0  0  0  0  0
  1  2  1  0
  1  6  1  0
  1  9  1  0
  2  3  1  0
  2  4  1  0
  4  5  1  0
  5  6  1  0
  6  7  1  0
  7  8  1  0
  8  9  1  0
  9 10  1  0
 10 11  1  0
 11 12  2  0
 11 13  1  0
 13 14  1  0
 14 15  1  0
 14 22  1  0
 15 16  1  0
 16 17  2  0
 16 21  1  0
 17 18  1  0
 18 19  2  0
 19 20  1  0
 20 21  2  0
 22 23  1  0
 22 24  1  0
 24 25  1  0
 25 26  1  0
 25 30  1  0
 26 27  1  0
 27 28  1  0
 27 29  1  0
 30 31  2  0
 30 32  2  0
 30 33  1  0
 33 34  2  0
 33 43  1  0
 34 35  1  0
 35 36  1  0
 35 41  2  0
 36 37  1  0
 37 38  1  0
 37 40  2  0
 38 39  1  0
 40 41  1  0
 41 42  1  0
 42 43  2  0
  1 44  1  0
  2 45  1  0
  4 46  1  0
  4 47  1  0
  6 48  1  0
  8 49  1  0
  8 50  1  0
  9 51  1  0
 13 52  1  0
 14 53  1  0
 15 54  1  0
 15 55  1  0
 17 56  1  0
 18 57  1  0
 19 58  1  0
 20 59  1  0
 21 60  1  0
 22 61  1  0
 23 62  1  0
 24 63  1  0
 24 64  1  0
 26 65  1  0
 26 66  1  0
 27 67  1  0
 28 68  1  0
 28 69  1  0
 28 70  1  0
 29 71  1  0
 29 72  1  0
 29 73  1  0
 34 74  1  0
 38 75  1  0
 39 76  1  0
 39 77  1  0
 39 78  1  0
 42 79  1  0
 43 80  1  0
A    1
CBR
A    2
CBM
A    3
CL
A    4
CAS
A    5
OBA
A    6
CBQ
A    7
OBB
A    8
CAT
A    9
CBO
A   10
OBC
A   11
CBE
A   12
OAD
A   13
NAZ
A   14
CBN
A   15
CAU
A   16
CBF
A   17
CAN
A   18
CAL
A   19
CAK
A   20
CAM
A   21
CAO
A   22
CBL
A   23
OAG
A   24
CAW
A   25
NBP
A   26
CAV
A   27
CBK
A   28
CAC
A   29
CAB
A   30
SBS
A   31
OAE
A   32
OAF
A   33
CBG
A   34
CAR
A   35
CBJ
A   36
OBD
A   37
CBH
A   38
NAY
A   39
CAA
A   40
NAX
A   41
CBI
A   42
CAQ
A   43
CAP
M  END
