5AH9_C7L_A_1101
     RDKit          3D

 86 89  0  0  0  0  0  0  0  0999 V2000
    3.9790   24.1140    4.4160 C   0  0  0  0  0  0  0  0  0  0  0  0
   16.4020   22.0790    8.3890 C   0  0  0  0  0  0  0  0  0  0  0  0
   14.0570   22.7570    7.8410 C   0  0  0  0  0  0  0  0  0  0  0  0
   10.2570   23.7030    6.5270 O   0  0  0  0  0  0  0  0  0  0  0  0
   12.5350   20.6510    3.6640 O   0  0  0  0  0  0  0  0  0  0  0  0
   13.1300   19.3900    5.7500 O   0  0  0  0  0  0  0  0  0  0  0  0
   14.0920   25.0520    3.8310 O   0  0  0  0  0  0  0  0  0  0  0  0
    7.7710   22.9840    2.3580 C   0  0  0  0  0  0  0  0  0  0  0  0
    8.3590   24.1580    1.8950 C   0  0  0  0  0  0  0  0  0  0  0  0
    8.5340   22.0270    3.0190 C   0  0  0  0  0  0  0  0  0  0  0  0
    9.7130   24.3810    2.1050 C   0  0  0  0  0  0  0  0  0  0  0  0
    9.9060   22.2200    3.1540 C   0  0  0  0  0  0  0  0  0  0  0  0
   15.7690   18.5220    4.3370 C   0  0  0  0  0  0  0  0  0  0  0  0
   16.7140   17.9230    3.6090 C   0  0  0  0  0  0  0  0  0  0  0  0
   14.9780   19.5950    2.3610 C   0  0  0  0  0  0  0  0  0  0  0  0
    4.1590   26.2540    3.4640 C   0  0  0  0  0  0  0  0  0  0  0  0
    5.3300   26.6740    4.3540 C   0  0  0  0  0  0  0  0  0  0  0  0
    7.8400   26.8500    4.3680 C   0  0  0  0  0  0  0  0  0  0  0  0
    9.0430   26.9700    8.1660 C   0  0  0  0  0  0  0  0  0  0  0  0
   11.8500   23.6420    2.9540 C   0  0  0  0  0  0  0  0  0  0  0  0
   15.4130   21.4710    6.1630 C   0  0  0  0  0  0  0  0  0  0  0  0
   14.4640   22.6870    4.2760 C   0  0  0  0  0  0  0  0  0  0  0  0
   17.8470   17.4220    1.8310 N   0  0  0  0  0  0  0  0  0  0  0  0
   11.4880   24.8610    5.0430 N   0  0  0  0  0  0  0  0  0  0  0  0
    3.3090   25.3550    4.1830 O   0  0  0  0  0  0  0  0  0  0  0  0
    5.9150   25.5090    4.9390 O   0  0  0  0  0  0  0  0  0  0  0  0
    7.8530   28.0360    5.1890 O   0  0  0  0  0  0  0  0  0  0  0  0
    8.6470   28.1180    7.3790 O   0  0  0  0  0  0  0  0  0  0  0  0
    9.7940   25.8840    6.2030 O   0  0  0  0  0  0  0  0  0  0  0  0
   10.5050   24.7640    5.9440 C   0  0  0  0  0  0  0  0  0  0  0  0
   10.4780   23.4310    2.7750 C   0  0  0  0  0  0  0  0  0  0  0  0
   14.9320   19.4530    3.7360 C   0  0  0  0  0  0  0  0  0  0  0  0
   16.8380   18.1580    2.2970 C   0  0  0  0  0  0  0  0  0  0  0  0
   15.9610   18.9210    1.6550 C   0  0  0  0  0  0  0  0  0  0  0  0
   15.4620   22.5380    7.2670 C   0  0  0  0  0  0  0  0  0  0  0  0
   13.6760   23.9410    4.6370 C   0  0  0  0  0  0  0  0  0  0  0  0
   12.1790   23.7080    4.4530 C   0  0  0  0  0  0  0  0  0  0  0  0
    7.3020   25.7130    5.2180 C   0  0  0  0  0  0  0  0  0  0  0  0
    8.8100   25.7990    7.2340 C   0  0  0  0  0  0  0  0  0  0  0  0
   14.2320   21.6660    5.3050 N   0  0  0  0  0  0  0  0  0  0  0  0
    7.5190   27.7020    6.5700 C   0  0  0  0  0  0  0  0  0  0  0  0
    7.4630   26.1790    6.6610 C   0  0  0  0  0  0  0  0  0  0  0  0
   13.6610   20.2840    4.6310 S   0  0  0  0  0  0  0  0  0  0  0  0
    4.0706   23.9444    5.4990 H   0  0  0  0  0  0  0  0  0  0  0  0
    3.4007   23.2946    3.9642 H   0  0  0  0  0  0  0  0  0  0  0  0
    4.9813   24.1480    3.9642 H   0  0  0  0  0  0  0  0  0  0  0  0
   15.9451   22.3021    9.3644 H   0  0  0  0  0  0  0  0  0  0  0  0
   16.5734   20.9958    8.3036 H   0  0  0  0  0  0  0  0  0  0  0  0
   17.3616   22.6099    8.3036 H   0  0  0  0  0  0  0  0  0  0  0  0
   14.1046   22.7496    8.9399 H   0  0  0  0  0  0  0  0  0  0  0  0
   13.6676   23.7267    7.4974 H   0  0  0  0  0  0  0  0  0  0  0  0
   13.3909   21.9518    7.4974 H   0  0  0  0  0  0  0  0  0  0  0  0
   14.3717   25.7989    4.4176 H   0  0  0  0  0  0  0  0  0  0  0  0
    6.6961   22.8121    2.2001 H   0  0  0  0  0  0  0  0  0  0  0  0
    7.7525   24.9067    1.3643 H   0  0  0  0  0  0  0  0  0  0  0  0
    8.0574   21.1255    3.4315 H   0  0  0  0  0  0  0  0  0  0  0  0
   10.1809   25.3080    1.7420 H   0  0  0  0  0  0  0  0  0  0  0  0
   10.5376   21.4161    3.5599 H   0  0  0  0  0  0  0  0  0  0  0  0
   15.6542   18.2802    5.4039 H   0  0  0  0  0  0  0  0  0  0  0  0
   17.4058   17.2211    4.0977 H   0  0  0  0  0  0  0  0  0  0  0  0
   14.2482   20.2307    1.8382 H   0  0  0  0  0  0  0  0  0  0  0  0
    3.5846   27.1448    3.1699 H   0  0  0  0  0  0  0  0  0  0  0  0
    4.5450   25.7518    2.5647 H   0  0  0  0  0  0  0  0  0  0  0  0
    6.0829   27.1995    3.7482 H   0  0  0  0  0  0  0  0  0  0  0  0
    4.9698   27.3456    5.1473 H   0  0  0  0  0  0  0  0  0  0  0  0
    7.1906   27.0054    3.4939 H   0  0  0  0  0  0  0  0  0  0  0  0
    8.8525   26.6179    4.0062 H   0  0  0  0  0  0  0  0  0  0  0  0
   10.1026   27.0379    8.4534 H   0  0  0  0  0  0  0  0  0  0  0  0
    8.4810   26.8840    9.1077 H   0  0  0  0  0  0  0  0  0  0  0  0
   12.4092   22.8138    2.4942 H   0  0  0  0  0  0  0  0  0  0  0  0
   12.1346   24.5925    2.4791 H   0  0  0  0  0  0  0  0  0  0  0  0
   16.3223   21.5448    5.5485 H   0  0  0  0  0  0  0  0  0  0  0  0
   15.3501   20.4781    6.6323 H   0  0  0  0  0  0  0  0  0  0  0  0
   14.1289   22.3090    3.2988 H   0  0  0  0  0  0  0  0  0  0  0  0
   15.5368   22.9241    4.2219 H   0  0  0  0  0  0  0  0  0  0  0  0
   18.4887   16.9539    2.4867 H   0  0  0  0  0  0  0  0  0  0  0  0
   17.9849   17.3214    0.8152 H   0  0  0  0  0  0  0  0  0  0  0  0
   11.7784   25.8030    4.7444 H   0  0  0  0  0  0  0  0  0  0  0  0
   16.0152   19.0180    0.5606 H   0  0  0  0  0  0  0  0  0  0  0  0
   15.8334   23.4805    6.8383 H   0  0  0  0  0  0  0  0  0  0  0  0
   13.8759   24.1717    5.6938 H   0  0  0  0  0  0  0  0  0  0  0  0
   11.8678   22.7668    4.9297 H   0  0  0  0  0  0  0  0  0  0  0  0
    7.8305   24.7688    5.0200 H   0  0  0  0  0  0  0  0  0  0  0  0
    8.8541   24.7960    7.6834 H   0  0  0  0  0  0  0  0  0  0  0  0
    6.5760   28.1700    6.8890 H   0  0  0  0  0  0  0  0  0  0  0  0
    6.6585   25.7476    7.2748 H   0  0  0  0  0  0  0  0  0  0  0  0
  1 25  1  0
  2 35  1  0
  3 35  1  0
  4 30  2  0
  5 43  2  0
  6 43  2  0
  7 36  1  0
  8  9  2  0
  8 10  1  0
  9 11  1  0
 10 12  2  0
 11 31  2  0
 12 31  1  0
 13 14  2  0
 13 32  1  0
 14 33  1  0
 15 32  2  0
 15 34  1  0
 16 17  1  0
 16 25  1  0
 17 26  1  0
 18 27  1  0
 18 38  1  0
 19 28  1  0
 19 39  1  0
 20 31  1  0
 20 37  1  0
 21 35  1  0
 21 40  1  0
 22 36  1  0
 22 40  1  0
 23 33  1  0
 24 30  1  0
 24 37  1  0
 26 38  1  0
 27 41  1  0
 28 41  1  0
 29 30  1  0
 29 39  1  0
 32 43  1  0
 33 34  2  0
 36 37  1  0
 38 42  1  0
 39 42  1  0
 40 43  1  0
 41 42  1  0
  1 44  1  0
  1 45  1  0
  1 46  1  0
  2 47  1  0
  2 48  1  0
  2 49  1  0
  3 50  1  0
  3 51  1  0
  3 52  1  0
  7 53  1  0
  8 54  1  0
  9 55  1  0
 10 56  1  0
 11 57  1  0
 12 58  1  0
 13 59  1  0
 14 60  1  0
 15 61  1  0
 16 62  1  0
 16 63  1  0
 17 64  1  0
 17 65  1  0
 18 66  1  0
 18 67  1  0
 19 68  1  0
 19 69  1  0
 20 70  1  0
 20 71  1  0
 21 72  1  0
 21 73  1  0
 22 74  1  0
 22 75  1  0
 23 76  1  0
 23 77  1  0
 24 78  1  0
 34 79  1  0
 35 80  1  0
 36 81  1  0
 37 82  1  0
 38 83  1  0
 39 84  1  0
 41 85  1  0
 42 86  1  0
A    1
CAB
A    2
CAC
A    3
CAD
A    4
OAE
A    5
OAF
A    6
OAG
A    7
OAH
A    8
CAK
A    9
CAL
A   10
CAM
A   11
CAN
A   12
CAO
A   13
CAP
A   14
CAQ
A   15
CAR
A   16
CAS
A   17
CAT
A   18
CAU
A   19
CAV
A   20
CAW
A   21
CAX
A   22
CAY
A   23
NAZ
A   24
NBB
A   25
OBC
A   26
OBD
A   27
OBE
A   28
OBF
A   29
OBG
A   30
CBI
A   31
CBJ
A   32
CBK
A   33
CBM
A   34
CBN
A   35
CBO
A   36
CBP
A   37
CBQ
A   38
CBR
A   39
CBS
A   40
NBT
A   41
CBU
A   42
CBV
A   43
SBW
M  END
