5AIK_AWR_A_900
     RDKit          3D

 42 44  0  0  0  0  0  0  0  0999 V2000
   20.9390   26.2980   28.5500 F   0  0  0  0  0  0  0  0  0  0  0  0
   20.9430   27.0940   29.5860 C   0  0  0  0  0  0  0  0  0  0  0  0
   21.9150   26.7110   30.3660 F   0  0  0  0  0  0  0  0  0  0  0  0
   21.2650   28.3080   29.1550 F   0  0  0  0  0  0  0  0  0  0  0  0
   19.6210   27.0940   30.2950 C   0  0  0  0  0  0  0  0  0  0  0  0
   19.0110   25.9490   30.9290 C   0  0  0  0  0  0  0  0  0  0  0  0
   19.0060   28.2770   30.2820 N   0  0  0  0  0  0  0  0  0  0  0  0
   17.8060   28.3920   30.8850 C   0  0  0  0  0  0  0  0  0  0  0  0
   17.1360   27.3570   31.5220 C   0  0  0  0  0  0  0  0  0  0  0  0
   17.7500   26.1130   31.5450 C   0  0  0  0  0  0  0  0  0  0  0  0
   17.3850   24.8340   32.0870 C   0  0  0  0  0  0  0  0  0  0  0  0
   16.2680   24.3680   32.7910 C   0  0  0  0  0  0  0  0  0  0  0  0
   16.2180   23.0370   33.1820 C   0  0  0  0  0  0  0  0  0  0  0  0
   17.2620   22.1800   32.8760 C   0  0  0  0  0  0  0  0  0  0  0  0
   17.0910   20.8830   33.3040 O   0  0  0  0  0  0  0  0  0  0  0  0
   18.2380   20.0310   33.4050 C   0  0  0  0  0  0  0  0  0  0  0  0
   18.3920   22.6130   32.1710 C   0  0  0  0  0  0  0  0  0  0  0  0
   18.4330   23.9460   31.7840 C   0  0  0  0  0  0  0  0  0  0  0  0
   19.4130   24.6230   31.0820 N   0  0  0  0  0  0  0  0  0  0  0  0
   20.6600   24.0040   30.6350 C   0  0  0  0  0  0  0  0  0  0  0  0
   20.4770   23.0540   29.4650 C   0  0  0  0  0  0  0  0  0  0  0  0
   21.2980   21.7670   29.5690 C   0  0  0  0  0  0  0  0  0  0  0  0
   22.5260   21.7610   28.6980 C   0  0  0  0  0  0  0  0  0  0  0  0
   23.5210   22.8010   29.0940 N   0  0  0  0  0  0  0  0  0  0  0  0
   17.3218   29.3796   30.8712 H   0  0  0  0  0  0  0  0  0  0  0  0
   16.1542   27.5170   31.9915 H   0  0  0  0  0  0  0  0  0  0  0  0
   15.4388   25.0495   33.0317 H   0  0  0  0  0  0  0  0  0  0  0  0
   15.3457   22.6615   33.7371 H   0  0  0  0  0  0  0  0  0  0  0  0
   18.4729   19.8565   34.4654 H   0  0  0  0  0  0  0  0  0  0  0  0
   18.0254   19.0701   32.9136 H   0  0  0  0  0  0  0  0  0  0  0  0
   19.0965   20.5121   32.9136 H   0  0  0  0  0  0  0  0  0  0  0  0
   19.2155   21.9236   31.9330 H   0  0  0  0  0  0  0  0  0  0  0  0
   21.3553   24.8006   30.3317 H   0  0  0  0  0  0  0  0  0  0  0  0
   21.0477   23.4112   31.4766 H   0  0  0  0  0  0  0  0  0  0  0  0
   19.4131   22.7809   29.4053 H   0  0  0  0  0  0  0  0  0  0  0  0
   20.8314   23.5839   28.5686 H   0  0  0  0  0  0  0  0  0  0  0  0
   21.6135   21.6398   30.6151 H   0  0  0  0  0  0  0  0  0  0  0  0
   20.6537   20.9456   29.2223 H   0  0  0  0  0  0  0  0  0  0  0  0
   23.0032   20.7725   28.7700 H   0  0  0  0  0  0  0  0  0  0  0  0
   22.2042   21.9848   27.6702 H   0  0  0  0  0  0  0  0  0  0  0  0
   23.5718   22.8541   30.1214 H   0  0  0  0  0  0  0  0  0  0  0  0
   24.4466   22.5519   28.7169 H   0  0  0  0  0  0  0  0  0  0  0  0
  1  2  1  0
  2  3  1  0
  2  4  1  0
  2  5  1  0
  5  6  2  0
  5  7  1  0
  6 10  1  0
  6 19  1  0
  7  8  2  0
  8  9  1  0
  9 10  2  0
 10 11  1  0
 11 12  2  0
 11 18  1  0
 12 13  1  0
 13 14  2  0
 14 15  1  0
 14 17  1  0
 15 16  1  0
 17 18  2  0
 18 19  1  0
 19 20  1  0
 20 21  1  0
 21 22  1  0
 22 23  1  0
 23 24  1  0
  8 25  1  0
  9 26  1  0
 12 27  1  0
 13 28  1  0
 16 29  1  0
 16 30  1  0
 16 31  1  0
 17 32  1  0
 20 33  1  0
 20 34  1  0
 21 35  1  0
 21 36  1  0
 22 37  1  0
 22 38  1  0
 23 39  1  0
 23 40  1  0
 24 41  1  0
 24 42  1  0
A    1
FAC
A    2
CAX
A    3
FAD
A    4
FAE
A    5
CAR
A    6
CAV
A    7
NAO
A    8
CAF
A    9
CAH
A   10
CAT
A   11
CAS
A   12
CAI
A   13
CAG
A   14
CAQ
A   15
OAP
A   16
CAA
A   17
CAJ
A   18
CAU
A   19
NAW
A   20
CAN
A   21
CAM
A   22
CAL
A   23
CAK
A   24
NAB
M  END
