5AIX_KRX_B_1201
     RDKit          3D

 50 52  0  0  0  0  0  0  0  0999 V2000
   16.5120    7.2020    2.2980 C   0  0  0  0  0  0  0  0  0  0  0  0
   16.1740    5.8710    2.6580 O   0  0  0  0  0  0  0  0  0  0  0  0
   16.4570    5.1170    1.5270 C   0  0  0  0  0  0  0  0  0  0  0  0
   17.6210    4.3860    1.4530 C   0  0  0  0  0  0  0  0  0  0  0  0
   17.8660    3.6410    0.3200 C   0  0  0  0  0  0  0  0  0  0  0  0
   16.9650    3.6540   -0.7130 C   0  0  0  0  0  0  0  0  0  0  0  0
   15.7920    4.3910   -0.6410 C   0  0  0  0  0  0  0  0  0  0  0  0
   15.5480    5.1190    0.4980 C   0  0  0  0  0  0  0  0  0  0  0  0
   14.8820    4.4650   -1.7590 C   0  0  0  0  0  0  0  0  0  0  0  0
   15.2080    3.7750   -2.9190 C   0  0  0  0  0  0  0  0  0  0  0  0
   14.3840    3.8650   -4.0190 C   0  0  0  0  0  0  0  0  0  0  0  0
   13.2700    4.6540   -3.8730 C   0  0  0  0  0  0  0  0  0  0  0  0
   12.9970    5.3180   -2.6860 C   0  0  0  0  0  0  0  0  0  0  0  0
   13.7900    5.2600   -1.6120 N   0  0  0  0  0  0  0  0  0  0  0  0
   12.3350    4.7810   -4.9820 C   0  0  0  0  0  0  0  0  0  0  0  0
   11.1420    4.8350   -4.6670 O   0  0  0  0  0  0  0  0  0  0  0  0
   12.9570    4.8040   -6.2210 N   0  0  0  0  0  0  0  0  0  0  0  0
   12.1660    4.8860   -7.4300 C   0  0  0  0  0  0  0  0  0  0  0  0
   11.9070    3.5730   -8.1270 C   0  0  0  0  0  0  0  0  0  0  0  0
   10.8980    3.8430   -9.2300 C   0  0  0  0  0  0  0  0  0  0  0  0
   11.5730    4.7350  -10.1580 N   0  0  0  0  0  0  0  0  0  0  0  0
   11.6720    6.0470   -9.5340 C   0  0  0  0  0  0  0  0  0  0  0  0
   12.7050    5.8910   -8.4260 C   0  0  0  0  0  0  0  0  0  0  0  0
   10.8320    4.8240  -11.3830 C   0  0  0  0  0  0  0  0  0  0  0  0
   11.7690    5.1720  -12.5270 C   0  0  0  0  0  0  0  0  0  0  0  0
   11.1380    4.7500  -13.6390 F   0  0  0  0  0  0  0  0  0  0  0  0
   11.9950    6.5270  -12.6520 F   0  0  0  0  0  0  0  0  0  0  0  0
   12.9970    4.5690  -12.4570 F   0  0  0  0  0  0  0  0  0  0  0  0
   16.6640    7.8007    3.2082 H   0  0  0  0  0  0  0  0  0  0  0  0
   17.4374    7.1973    1.7034 H   0  0  0  0  0  0  0  0  0  0  0  0
   15.6964    7.6394    1.7034 H   0  0  0  0  0  0  0  0  0  0  0  0
   18.3425    4.3964    2.2833 H   0  0  0  0  0  0  0  0  0  0  0  0
   18.7824    3.0373    0.2447 H   0  0  0  0  0  0  0  0  0  0  0  0
   17.1768    3.0671   -1.6189 H   0  0  0  0  0  0  0  0  0  0  0  0
   14.6215    5.7054    0.5860 H   0  0  0  0  0  0  0  0  0  0  0  0
   16.1191    3.1600   -2.9592 H   0  0  0  0  0  0  0  0  0  0  0  0
   14.6052    3.3365   -4.9580 H   0  0  0  0  0  0  0  0  0  0  0  0
   12.0806    5.9234   -2.6258 H   0  0  0  0  0  0  0  0  0  0  0  0
   13.9844    4.7626   -6.2810 H   0  0  0  0  0  0  0  0  0  0  0  0
   11.1940    5.2358   -7.0520 H   0  0  0  0  0  0  0  0  0  0  0  0
   12.8414    3.1839   -8.5576 H   0  0  0  0  0  0  0  0  0  0  0  0
   11.5219    2.8239   -7.4195 H   0  0  0  0  0  0  0  0  0  0  0  0
   10.6164    2.9058   -9.7324 H   0  0  0  0  0  0  0  0  0  0  0  0
    9.9704    4.2852   -8.8377 H   0  0  0  0  0  0  0  0  0  0  0  0
   12.0038    6.7975  -10.2666 H   0  0  0  0  0  0  0  0  0  0  0  0
   10.7019    6.3886   -9.1437 H   0  0  0  0  0  0  0  0  0  0  0  0
   12.8703    6.8585   -7.9294 H   0  0  0  0  0  0  0  0  0  0  0  0
   13.6639    5.5458   -8.8400 H   0  0  0  0  0  0  0  0  0  0  0  0
   10.3483    3.8576  -11.5882 H   0  0  0  0  0  0  0  0  0  0  0  0
   10.0670    5.6087  -11.2885 H   0  0  0  0  0  0  0  0  0  0  0  0
  1  2  1  0
  2  3  1  0
  3  4  2  0
  3  8  1  0
  4  5  1  0
  5  6  2  0
  6  7  1  0
  7  8  2  0
  7  9  1  0
  9 10  2  0
  9 14  1  0
 10 11  1  0
 11 12  2  0
 12 13  1  0
 12 15  1  0
 13 14  2  0
 15 16  2  0
 15 17  1  0
 17 18  1  0
 18 19  1  0
 18 23  1  0
 19 20  1  0
 20 21  1  0
 21 22  1  0
 21 24  1  0
 22 23  1  0
 24 25  1  0
 25 26  1  0
 25 27  1  0
 25 28  1  0
  1 29  1  0
  1 30  1  0
  1 31  1  0
  4 32  1  0
  5 33  1  0
  6 34  1  0
  8 35  1  0
 10 36  1  0
 11 37  1  0
 13 38  1  0
 17 39  1  0
 18 40  1  0
 19 41  1  0
 19 42  1  0
 20 43  1  0
 20 44  1  0
 22 45  1  0
 22 46  1  0
 23 47  1  0
 23 48  1  0
 24 49  1  0
 24 50  1  0
A    1
C1
A    2
O2
A    3
C3
A    4
C4
A    5
C5
A    6
C6
A    7
C7
A    8
C8
A    9
C9
A   10
C10
A   11
C11
A   12
C12
A   13
C13
A   14
N14
A   15
C15
A   16
O16
A   17
N17
A   18
C18
A   19
C19
A   20
C20
A   21
N21
A   22
C22
A   23
C23
A   24
C24
A   25
C25
A   26
F26
A   27
F27
A   28
F28
M  END
