5AJY_87T_A_1448
     RDKit          3D

 46 49  0  0  0  0  0  0  0  0999 V2000
  -35.8970  -42.5390  -12.3990 C   0  0  0  0  0  0  0  0  0  0  0  0
  -37.2750  -42.4580  -11.9240 N   0  0  0  0  0  0  0  0  0  0  0  0
  -41.2450  -37.1310  -13.3220 O   0  0  0  0  0  0  0  0  0  0  0  0
  -38.3690  -42.1700  -12.6400 C   0  0  0  0  0  0  0  0  0  0  0  0
  -37.5590  -42.7060  -10.6240 N   0  0  0  0  0  0  0  0  0  0  0  0
  -40.0820  -36.9030  -19.7590 O   0  0  0  0  0  0  0  0  0  0  0  0
  -39.4450  -42.2380  -11.7750 C   0  0  0  0  0  0  0  0  0  0  0  0
  -43.0810  -42.2000  -12.2720 N   0  0  0  0  0  0  0  0  0  0  0  0
  -38.8720  -42.5560  -10.5300 C   0  0  0  0  0  0  0  0  0  0  0  0
  -40.8360  -35.1360  -18.5210 N   0  0  0  0  0  0  0  0  0  0  0  0
  -40.8580  -41.9440  -12.0590 C   0  0  0  0  0  0  0  0  0  0  0  0
  -39.6120  -35.2240  -21.9130 N   0  0  0  0  0  0  0  0  0  0  0  0
  -41.9080  -42.8250  -11.9500 C   0  0  0  0  0  0  0  0  0  0  0  0
  -42.8200  -40.8850  -12.5820 C   0  0  0  0  0  0  0  0  0  0  0  0
  -41.4350  -40.6760  -12.4450 C   0  0  0  0  0  0  0  0  0  0  0  0
  -40.9130  -39.4100  -12.7020 C   0  0  0  0  0  0  0  0  0  0  0  0
  -41.7810  -38.3870  -13.0680 C   0  0  0  0  0  0  0  0  0  0  0  0
  -43.1560  -38.5930  -13.1690 C   0  0  0  0  0  0  0  0  0  0  0  0
  -43.6830  -39.8560  -12.9580 C   0  0  0  0  0  0  0  0  0  0  0  0
  -41.1640  -36.6760  -14.6350 C   0  0  0  0  0  0  0  0  0  0  0  0
  -41.0000  -37.5580  -15.6970 C   0  0  0  0  0  0  0  0  0  0  0  0
  -40.9110  -37.0670  -16.9870 C   0  0  0  0  0  0  0  0  0  0  0  0
  -40.9270  -35.6930  -17.2200 C   0  0  0  0  0  0  0  0  0  0  0  0
  -41.1030  -34.8210  -16.1490 C   0  0  0  0  0  0  0  0  0  0  0  0
  -41.2030  -35.3090  -14.8580 C   0  0  0  0  0  0  0  0  0  0  0  0
  -40.4990  -35.7480  -19.6780 C   0  0  0  0  0  0  0  0  0  0  0  0
  -40.6480  -34.9250  -20.9750 C   0  0  0  0  0  0  0  0  0  0  0  0
  -35.2140  -42.5791  -11.5377 H   0  0  0  0  0  0  0  0  0  0  0  0
  -35.7720  -43.4460  -13.0086 H   0  0  0  0  0  0  0  0  0  0  0  0
  -35.6666  -41.6528  -13.0086 H   0  0  0  0  0  0  0  0  0  0  0  0
  -38.4047  -41.9259  -13.7120 H   0  0  0  0  0  0  0  0  0  0  0  0
  -44.0110  -42.6427  -12.2810 H   0  0  0  0  0  0  0  0  0  0  0  0
  -39.4424  -42.6662   -9.5960 H   0  0  0  0  0  0  0  0  0  0  0  0
  -41.0558  -34.1324  -18.5938 H   0  0  0  0  0  0  0  0  0  0  0  0
  -38.7508  -35.4726  -21.4057 H   0  0  0  0  0  0  0  0  0  0  0  0
  -39.9025  -36.0155  -22.5047 H   0  0  0  0  0  0  0  0  0  0  0  0
  -41.8177  -43.8788  -11.6479 H   0  0  0  0  0  0  0  0  0  0  0  0
  -39.8324  -39.2228  -12.6168 H   0  0  0  0  0  0  0  0  0  0  0  0
  -43.8218  -37.7530  -13.4161 H   0  0  0  0  0  0  0  0  0  0  0  0
  -44.7595  -40.0437  -13.0843 H   0  0  0  0  0  0  0  0  0  0  0  0
  -40.9413  -38.6408  -15.5123 H   0  0  0  0  0  0  0  0  0  0  0  0
  -40.8272  -37.7646  -17.8334 H   0  0  0  0  0  0  0  0  0  0  0  0
  -41.1629  -33.7377  -16.3302 H   0  0  0  0  0  0  0  0  0  0  0  0
  -41.3130  -34.6145  -14.0121 H   0  0  0  0  0  0  0  0  0  0  0  0
  -40.6044  -33.8547  -20.7250 H   0  0  0  0  0  0  0  0  0  0  0  0
  -41.6128  -35.1833  -21.4360 H   0  0  0  0  0  0  0  0  0  0  0  0
  1  2  1  0
  2  4  1  0
  2  5  1  0
  3 17  1  0
  3 20  1  0
  4  7  2  0
  5  9  2  0
  6 26  2  0
  7  9  1  0
  7 11  1  0
  8 13  1  0
  8 14  1  0
 10 23  1  0
 10 26  1  0
 11 13  2  0
 11 15  1  0
 12 27  1  0
 14 15  2  0
 14 19  1  0
 15 16  1  0
 16 17  2  0
 17 18  1  0
 18 19  2  0
 20 21  2  0
 20 25  1  0
 21 22  1  0
 22 23  2  0
 23 24  1  0
 24 25  2  0
 26 27  1  0
  1 28  1  0
  1 29  1  0
  1 30  1  0
  4 31  1  0
  8 32  1  0
  9 33  1  0
 10 34  1  0
 12 35  1  0
 12 36  1  0
 13 37  1  0
 16 38  1  0
 18 39  1  0
 19 40  1  0
 21 41  1  0
 22 42  1  0
 24 43  1  0
 25 44  1  0
 27 45  1  0
 27 46  1  0
A    1
C
A    2
N
A    3
O
A    4
C1
A    5
N1
A    6
O1
A    7
C2
A    8
N2
A    9
C3
A   10
N3
A   11
C4
A   12
N4
A   13
C5
A   14
C6
A   15
C7
A   16
C8
A   17
C9
A   18
C10
A   19
C11
A   20
C12
A   21
C13
A   22
C14
A   23
C15
A   24
C16
A   25
C17
A   26
C18
A   27
C19
M  END
