5AK2_85Z_A_1553
     RDKit          3D

 51 54  0  0  0  0  0  0  0  0999 V2000
   31.4900    8.6850    8.6410 C   0  0  0  0  0  0  0  0  0  0  0  0
   32.5470    9.5940    9.2250 C   0  0  0  0  0  0  0  0  0  0  0  0
   33.7400    9.7720    8.5340 C   0  0  0  0  0  0  0  0  0  0  0  0
   34.6990   10.5960    9.0590 C   0  0  0  0  0  0  0  0  0  0  0  0
   34.5640   11.2630   10.2410 C   0  0  0  0  0  0  0  0  0  0  0  0
   33.3820   11.1090   10.9350 C   0  0  0  0  0  0  0  0  0  0  0  0
   32.3790   10.2840   10.4330 C   0  0  0  0  0  0  0  0  0  0  0  0
   31.1770   10.1360   11.2320 C   0  0  0  0  0  0  0  0  0  0  0  0
   30.2720   11.1370   11.3330 C   0  0  0  0  0  0  0  0  0  0  0  0
   29.1170   10.9400   12.1780 C   0  0  0  0  0  0  0  0  0  0  0  0
   28.1150   11.8950   12.3480 C   0  0  0  0  0  0  0  0  0  0  0  0
   27.0290   11.6310   13.1620 C   0  0  0  0  0  0  0  0  0  0  0  0
   26.9450   10.4210   13.8360 C   0  0  0  0  0  0  0  0  0  0  0  0
   27.9300    9.4540   13.6900 C   0  0  0  0  0  0  0  0  0  0  0  0
   28.9920    9.7260   12.8550 C   0  0  0  0  0  0  0  0  0  0  0  0
   29.9390    8.7330   12.7400 O   0  0  0  0  0  0  0  0  0  0  0  0
   31.0600    8.8980   11.9750 C   0  0  0  0  0  0  0  0  0  0  0  0
   31.8440    7.9830   11.9530 O   0  0  0  0  0  0  0  0  0  0  0  0
   25.9170   10.1280   14.6730 O   0  0  0  0  0  0  0  0  0  0  0  0
   30.3460   12.4140   10.5430 C   0  0  0  0  0  0  0  0  0  0  0  0
   30.8380   13.6500   11.2330 C   0  0  0  0  0  0  0  0  0  0  0  0
   31.0550   14.7820   10.4690 C   0  0  0  0  0  0  0  0  0  0  0  0
   31.4890   15.9520   11.0520 C   0  0  0  0  0  0  0  0  0  0  0  0
   31.7340   16.0150   12.4190 C   0  0  0  0  0  0  0  0  0  0  0  0
   31.5230   14.8680   13.1810 C   0  0  0  0  0  0  0  0  0  0  0  0
   31.0880   13.6960   12.5950 C   0  0  0  0  0  0  0  0  0  0  0  0
   32.1410   17.2860   12.9870 C   0  0  0  0  0  0  0  0  0  0  0  0
   31.7370   17.6760   14.1850 C   0  0  0  0  0  0  0  0  0  0  0  0
   32.1320   19.0360   14.5710 C   0  0  0  0  0  0  0  0  0  0  0  0
   32.6960   19.7440   13.7400 O   0  0  0  0  0  0  0  0  0  0  0  0
   31.7700   19.4630   15.7370 O   0  0  0  0  0  0  0  0  0  0  0  0
   35.8570   10.7490    8.3650 F   0  0  0  0  0  0  0  0  0  0  0  0
   30.9298    8.2032    9.4559 H   0  0  0  0  0  0  0  0  0  0  0  0
   30.7999    9.2761    8.0211 H   0  0  0  0  0  0  0  0  0  0  0  0
   31.9711    7.9142    8.0211 H   0  0  0  0  0  0  0  0  0  0  0  0
   33.9114    9.2571    7.5772 H   0  0  0  0  0  0  0  0  0  0  0  0
   35.3710   11.9025   10.6280 H   0  0  0  0  0  0  0  0  0  0  0  0
   33.2314   11.6391   11.8870 H   0  0  0  0  0  0  0  0  0  0  0  0
   28.1891   12.8635   11.8317 H   0  0  0  0  0  0  0  0  0  0  0  0
   26.2316   12.3802   13.2753 H   0  0  0  0  0  0  0  0  0  0  0  0
   27.8646    8.4960   14.2266 H   0  0  0  0  0  0  0  0  0  0  0  0
   26.0505   10.1661   15.6532 H   0  0  0  0  0  0  0  0  0  0  0  0
   31.0144   12.2301    9.6890 H   0  0  0  0  0  0  0  0  0  0  0  0
   29.2984   12.6406   10.2955 H   0  0  0  0  0  0  0  0  0  0  0  0
   30.8791   14.7477    9.3837 H   0  0  0  0  0  0  0  0  0  0  0  0
   31.6433   16.8457   10.4296 H   0  0  0  0  0  0  0  0  0  0  0  0
   31.7056   14.8965   14.2654 H   0  0  0  0  0  0  0  0  0  0  0  0
   30.9396   12.7967   13.2108 H   0  0  0  0  0  0  0  0  0  0  0  0
   32.8038   17.9438   12.4057 H   0  0  0  0  0  0  0  0  0  0  0  0
   31.1457   17.0257   14.8464 H   0  0  0  0  0  0  0  0  0  0  0  0
   32.1313   19.0369   16.5543 H   0  0  0  0  0  0  0  0  0  0  0  0
  1  2  1  0
  2  3  2  0
  2  7  1  0
  3  4  1  0
  4  5  2  0
  4 32  1  0
  5  6  1  0
  6  7  2  0
  7  8  1  0
  8  9  2  0
  8 17  1  0
  9 10  1  0
  9 20  1  0
 10 11  2  0
 10 15  1  0
 11 12  1  0
 12 13  2  0
 13 14  1  0
 13 19  1  0
 14 15  2  0
 15 16  1  0
 16 17  1  0
 17 18  2  0
 20 21  1  0
 21 22  2  0
 21 26  1  0
 22 23  1  0
 23 24  2  0
 24 25  1  0
 24 27  1  0
 25 26  2  0
 27 28  2  0
 28 29  1  0
 29 30  2  0
 29 31  1  0
  1 33  1  0
  1 34  1  0
  1 35  1  0
  3 36  1  0
  5 37  1  0
  6 38  1  0
 11 39  1  0
 12 40  1  0
 14 41  1  0
 19 42  1  0
 20 43  1  0
 20 44  1  0
 22 45  1  0
 23 46  1  0
 25 47  1  0
 26 48  1  0
 27 49  1  0
 28 50  1  0
 31 51  1  0
A    1
C1
A    2
C2
A    3
C3
A    4
C4
A    5
C5
A    6
C6
A    7
C7
A    8
C8
A    9
C9
A   10
C10
A   11
C11
A   12
C12
A   13
C13
A   14
C14
A   15
C15
A   16
O16
A   17
C17
A   18
O18
A   19
O19
A   20
C20
A   21
C21
A   22
C22
A   23
C23
A   24
C24
A   25
C25
A   26
C26
A   27
C27
A   28
C28
A   29
C29
A   30
O30
A   31
O31
A   32
F32
M  END
