5AK5_V2Z_A_1551
     RDKit          3D

 29 30  0  0  0  0  0  0  0  0999 V2000
  -16.3420   -9.3540    8.9110 N   0  0  0  0  0  0  0  0  0  0  0  0
  -15.3560   -9.2400    8.0630 C   0  0  0  0  0  0  0  0  0  0  0  0
  -13.9030   -9.3340    8.4700 C   0  0  0  0  0  0  0  0  0  0  0  0
  -14.5930   -6.9690    5.5570 C   0  0  0  0  0  0  0  0  0  0  0  0
  -15.7300   -7.4870    6.4150 C   0  0  0  0  0  0  0  0  0  0  0  0
  -15.6320   -8.9880    6.6160 C   0  0  0  0  0  0  0  0  0  0  0  0
  -16.0380   -9.5740   10.2390 C   0  0  0  0  0  0  0  0  0  0  0  0
  -14.7800   -9.6770   10.6750 C   0  0  0  0  0  0  0  0  0  0  0  0
  -17.1050   -9.7190   11.2320 C   0  0  0  0  0  0  0  0  0  0  0  0
  -18.3990   -9.3400   10.9390 C   0  0  0  0  0  0  0  0  0  0  0  0
  -16.8720  -10.2470   12.4910 C   0  0  0  0  0  0  0  0  0  0  0  0
  -17.7950  -10.4200   13.4490 N   0  0  0  0  0  0  0  0  0  0  0  0
  -19.0290  -10.0310   13.1210 C   0  0  0  0  0  0  0  0  0  0  0  0
  -19.3790   -9.4860   11.9020 C   0  0  0  0  0  0  0  0  0  0  0  0
  -13.0140   -9.2100    7.6330 O   0  0  0  0  0  0  0  0  0  0  0  0
  -13.7270   -9.5540    9.8110 N   0  0  0  0  0  0  0  0  0  0  0  0
  -13.7837   -6.6003    6.2044 H   0  0  0  0  0  0  0  0  0  0  0  0
  -14.2127   -7.7827    4.9220 H   0  0  0  0  0  0  0  0  0  0  0  0
  -14.9574   -6.1481    4.9220 H   0  0  0  0  0  0  0  0  0  0  0  0
  -15.6926   -6.9912    7.3962 H   0  0  0  0  0  0  0  0  0  0  0  0
  -16.6784   -7.2673    5.9028 H   0  0  0  0  0  0  0  0  0  0  0  0
  -14.8141   -9.3947    6.0031 H   0  0  0  0  0  0  0  0  0  0  0  0
  -16.5696   -9.4774    6.3136 H   0  0  0  0  0  0  0  0  0  0  0  0
  -14.5883   -9.8630   11.7421 H   0  0  0  0  0  0  0  0  0  0  0  0
  -18.6474   -8.9265    9.9504 H   0  0  0  0  0  0  0  0  0  0  0  0
  -15.8411  -10.5507   12.7257 H   0  0  0  0  0  0  0  0  0  0  0  0
  -19.8216  -10.1531   13.8739 H   0  0  0  0  0  0  0  0  0  0  0  0
  -20.4149   -9.1749   11.7018 H   0  0  0  0  0  0  0  0  0  0  0  0
  -12.7687   -9.6293   10.1810 H   0  0  0  0  0  0  0  0  0  0  0  0
  1  2  2  0
  1  7  1  0
  2  3  1  0
  2  6  1  0
  3 15  2  0
  3 16  1  0
  4  5  1  0
  5  6  1  0
  7  8  2  0
  7  9  1  0
  8 16  1  0
  9 10  2  0
  9 11  1  0
 10 14  1  0
 11 12  2  0
 12 13  1  0
 13 14  2  0
  4 17  1  0
  4 18  1  0
  4 19  1  0
  5 20  1  0
  5 21  1  0
  6 22  1  0
  6 23  1  0
  8 24  1  0
 10 25  1  0
 11 26  1  0
 13 27  1  0
 14 28  1  0
 16 29  1  0
A    1
N10
A    2
C11
A    3
C12
A    4
C14
A    5
C15
A    6
C16
A    7
C7
A    8
C6
A    9
C8
A   10
C9
A   11
C4
A   12
N3
A   13
C2
A   14
C1
A   15
O6
A   16
N7
M  END
