5AKE_6N0_A_1553
     RDKit          3D

 42 45  0  0  0  0  0  0  0  0999 V2000
  -17.8250   -5.5230   12.1640 C   0  0  0  0  0  0  0  0  0  0  0  0
  -18.9300   -5.4940   11.3320 C   0  0  0  0  0  0  0  0  0  0  0  0
  -17.4970   -6.6640   12.8760 C   0  0  0  0  0  0  0  0  0  0  0  0
  -18.1100  -11.6810   14.3050 C   0  0  0  0  0  0  0  0  0  0  0  0
  -19.7330   -6.6100   11.1870 C   0  0  0  0  0  0  0  0  0  0  0  0
  -19.1000  -11.2930   13.4220 C   0  0  0  0  0  0  0  0  0  0  0  0
  -17.1240   -9.4810   14.2480 C   0  0  0  0  0  0  0  0  0  0  0  0
  -18.2910   -7.7860   12.7530 C   0  0  0  0  0  0  0  0  0  0  0  0
  -18.1120   -9.0770   13.3730 C   0  0  0  0  0  0  0  0  0  0  0  0
  -17.1370  -10.7880   14.7140 C   0  0  0  0  0  0  0  0  0  0  0  0
  -19.3790   -7.7250   11.9140 C   0  0  0  0  0  0  0  0  0  0  0  0
  -19.0590   -9.9940   12.9850 C   0  0  0  0  0  0  0  0  0  0  0  0
  -15.8870  -10.5830   16.7780 C   0  0  0  0  0  0  0  0  0  0  0  0
  -14.0520  -13.2880   18.0120 C   0  0  0  0  0  0  0  0  0  0  0  0
  -14.5890  -11.6690   19.8680 C   0  0  0  0  0  0  0  0  0  0  0  0
  -13.9500  -12.1140   17.0480 C   0  0  0  0  0  0  0  0  0  0  0  0
  -14.5730  -10.5410   18.8490 C   0  0  0  0  0  0  0  0  0  0  0  0
  -13.7410  -12.8520   19.4280 C   0  0  0  0  0  0  0  0  0  0  0  0
  -14.8000  -11.0350   17.4990 N   0  0  0  0  0  0  0  0  0  0  0  0
  -16.1520  -11.2470   15.6010 N   0  0  0  0  0  0  0  0  0  0  0  0
  -16.5760   -9.6520   17.1630 O   0  0  0  0  0  0  0  0  0  0  0  0
  -21.4900   -9.1910   12.5810 O   0  0  0  0  0  0  0  0  0  0  0  0
  -20.0640   -9.8610   10.5590 O   0  0  0  0  0  0  0  0  0  0  0  0
  -13.9460  -13.9130   20.2610 F   0  0  0  0  0  0  0  0  0  0  0  0
  -12.4180  -12.5160   19.5330 F   0  0  0  0  0  0  0  0  0  0  0  0
  -20.2300   -9.2720   11.8740 S   0  0  0  0  0  0  0  0  0  0  0  0
  -17.1971   -4.6251   12.2613 H   0  0  0  0  0  0  0  0  0  0  0  0
  -19.1721   -4.5737   10.7803 H   0  0  0  0  0  0  0  0  0  0  0  0
  -16.6141   -6.6762   13.5319 H   0  0  0  0  0  0  0  0  0  0  0  0
  -18.0961  -12.7125   14.6869 H   0  0  0  0  0  0  0  0  0  0  0  0
  -20.6108   -6.6076   10.5241 H   0  0  0  0  0  0  0  0  0  0  0  0
  -19.8813  -11.9910   13.0868 H   0  0  0  0  0  0  0  0  0  0  0  0
  -16.3403   -8.7795   14.5702 H   0  0  0  0  0  0  0  0  0  0  0  0
  -15.0731  -13.6956   17.9766 H   0  0  0  0  0  0  0  0  0  0  0  0
  -13.3222  -14.0542   17.7116 H   0  0  0  0  0  0  0  0  0  0  0  0
  -14.1984  -11.2889   20.8235 H   0  0  0  0  0  0  0  0  0  0  0  0
  -15.6274  -12.0171   19.9704 H   0  0  0  0  0  0  0  0  0  0  0  0
  -12.9077  -11.7649   17.0066 H   0  0  0  0  0  0  0  0  0  0  0  0
  -14.2727  -12.4367   16.0471 H   0  0  0  0  0  0  0  0  0  0  0  0
  -15.3636   -9.8195   19.1027 H   0  0  0  0  0  0  0  0  0  0  0  0
  -13.5820  -10.0646   18.8788 H   0  0  0  0  0  0  0  0  0  0  0  0
  -15.6173  -12.0959   15.3678 H   0  0  0  0  0  0  0  0  0  0  0  0
  1  2  2  0
  1  3  1  0
  2  5  1  0
  3  8  2  0
  4  6  1  0
  4 10  2  0
  5 11  2  0
  6 12  2  0
  7  9  2  0
  7 10  1  0
  8  9  1  0
  8 11  1  0
  9 12  1  0
 10 20  1  0
 11 26  1  0
 12 26  1  0
 13 19  1  0
 13 20  1  0
 13 21  2  0
 14 16  1  0
 14 18  1  0
 15 17  1  0
 15 18  1  0
 16 19  1  0
 17 19  1  0
 18 24  1  0
 18 25  1  0
 22 26  2  0
 23 26  2  0
  1 27  1  0
  2 28  1  0
  3 29  1  0
  4 30  1  0
  5 31  1  0
  6 32  1  0
  7 33  1  0
 14 34  1  0
 14 35  1  0
 15 36  1  0
 15 37  1  0
 16 38  1  0
 16 39  1  0
 17 40  1  0
 17 41  1  0
 20 42  1  0
A    1
C1
A    2
C2
A    3
C6
A    4
C10
A    5
C3
A    6
C11
A    7
C8
A    8
C5
A    9
C7
A   10
C9
A   11
C4
A   12
C12
A   13
C17
A   14
C21
A   15
C23
A   16
C20
A   17
C24
A   18
C22
A   19
N19
A   20
N16
A   21
O18
A   22
O14
A   23
O15
A   24
F25
A   25
F26
A   26
S13
M  END
