5AKH_6NM_A_1552
     RDKit          3D

 31 33  0  0  0  0  0  0  0  0999 V2000
  -18.7800  -10.9400   13.6130 C   0  0  0  0  0  0  0  0  0  0  0  0
  -17.6060  -11.0140   12.8930 C   0  0  0  0  0  0  0  0  0  0  0  0
  -19.6700   -9.9110   13.3970 C   0  0  0  0  0  0  0  0  0  0  0  0
  -17.9330   -9.8160    8.5430 C   0  0  0  0  0  0  0  0  0  0  0  0
  -16.2070   -8.3250    7.8650 C   0  0  0  0  0  0  0  0  0  0  0  0
  -18.1990   -9.0170   11.7510 C   0  0  0  0  0  0  0  0  0  0  0  0
  -18.6730   -9.3380    7.4810 C   0  0  0  0  0  0  0  0  0  0  0  0
  -17.0260   -7.9080    6.8360 C   0  0  0  0  0  0  0  0  0  0  0  0
  -14.4660   -9.9110    9.6570 C   0  0  0  0  0  0  0  0  0  0  0  0
  -17.3120  -10.0560   11.9410 C   0  0  0  0  0  0  0  0  0  0  0  0
  -16.6710   -9.2930    8.7400 C   0  0  0  0  0  0  0  0  0  0  0  0
  -15.8250   -9.7530    9.8230 C   0  0  0  0  0  0  0  0  0  0  0  0
  -19.3800   -8.9450   12.4590 C   0  0  0  0  0  0  0  0  0  0  0  0
  -16.0730  -10.0900   11.1840 C   0  0  0  0  0  0  0  0  0  0  0  0
  -20.2870   -7.7990   12.1890 C   0  0  0  0  0  0  0  0  0  0  0  0
  -18.2580   -8.3950    6.6210 N   0  0  0  0  0  0  0  0  0  0  0  0
  -14.9290  -10.4340   11.7990 N   0  0  0  0  0  0  0  0  0  0  0  0
  -13.9870  -10.3410   10.8570 N   0  0  0  0  0  0  0  0  0  0  0  0
  -21.5930   -8.0110   12.4920 F   0  0  0  0  0  0  0  0  0  0  0  0
  -19.9370   -6.6800   12.8720 F   0  0  0  0  0  0  0  0  0  0  0  0
  -20.2530   -7.4640   10.8750 F   0  0  0  0  0  0  0  0  0  0  0  0
  -19.0075  -11.7090   14.3659 H   0  0  0  0  0  0  0  0  0  0  0  0
  -16.9012  -11.8383   13.0770 H   0  0  0  0  0  0  0  0  0  0  0  0
  -20.6073   -9.8611   13.9706 H   0  0  0  0  0  0  0  0  0  0  0  0
  -18.3365  -10.5902    9.2122 H   0  0  0  0  0  0  0  0  0  0  0  0
  -15.2018   -7.8956    7.9884 H   0  0  0  0  0  0  0  0  0  0  0  0
  -17.9595   -8.2304   11.0203 H   0  0  0  0  0  0  0  0  0  0  0  0
  -19.6769   -9.7609    7.3280 H   0  0  0  0  0  0  0  0  0  0  0  0
  -16.6479   -7.1327    6.1534 H   0  0  0  0  0  0  0  0  0  0  0  0
  -13.8858   -9.7270    8.7408 H   0  0  0  0  0  0  0  0  0  0  0  0
  -14.8054  -10.7097   12.7837 H   0  0  0  0  0  0  0  0  0  0  0  0
  1  2  2  0
  1  3  1  0
  2 10  1  0
  3 13  2  0
  4  7  2  0
  4 11  1  0
  5  8  1  0
  5 11  2  0
  6 10  2  0
  6 13  1  0
  7 16  1  0
  8 16  2  0
  9 12  1  0
  9 18  2  0
 10 14  1  0
 11 12  1  0
 12 14  2  0
 13 15  1  0
 14 17  1  0
 15 19  1  0
 15 20  1  0
 15 21  1  0
 17 18  1  0
  1 22  1  0
  2 23  1  0
  3 24  1  0
  4 25  1  0
  5 26  1  0
  6 27  1  0
  7 28  1  0
  8 29  1  0
  9 30  1  0
 17 31  1  0
A    1
C1
A    2
C2
A    3
C6
A    4
C17
A    5
C21
A    6
C4
A    7
C18
A    8
C20
A    9
C13
A   10
C3
A   11
C16
A   12
C12
A   13
C5
A   14
C11
A   15
C7
A   16
N19
A   17
N15
A   18
N14
A   19
F8
A   20
F9
A   21
F10
M  END
