5AKI_6NF_A_1558
     RDKit          3D

 39 41  0  0  0  0  0  0  0  0999 V2000
   14.7200  -12.7930  -18.4480 C   0  0  0  0  0  0  0  0  0  0  0  0
   13.9950  -13.3120  -19.4990 C   0  0  0  0  0  0  0  0  0  0  0  0
   13.4000  -12.5560  -20.4330 N   0  0  0  0  0  0  0  0  0  0  0  0
   13.5320  -11.2270  -20.2750 C   0  0  0  0  0  0  0  0  0  0  0  0
   14.2130  -10.6050  -19.2470 C   0  0  0  0  0  0  0  0  0  0  0  0
   14.8150  -11.4190  -18.3090 C   0  0  0  0  0  0  0  0  0  0  0  0
   15.6530  -10.9310  -17.2510 C   0  0  0  0  0  0  0  0  0  0  0  0
   16.0370  -11.7180  -16.1600 C   0  0  0  0  0  0  0  0  0  0  0  0
   17.0550  -11.0630  -15.5330 C   0  0  0  0  0  0  0  0  0  0  0  0
   17.2070   -9.8840  -16.1930 N   0  0  0  0  0  0  0  0  0  0  0  0
   16.4040   -9.8190  -17.2750 N   0  0  0  0  0  0  0  0  0  0  0  0
   17.7510  -11.4810  -14.4660 N   0  0  0  0  0  0  0  0  0  0  0  0
   18.9790  -10.8240  -14.0880 C   0  0  0  0  0  0  0  0  0  0  0  0
   18.6520   -9.7970  -13.0410 C   0  0  0  0  0  0  0  0  0  0  0  0
   17.8960  -10.4490  -11.8910 C   0  0  0  0  0  0  0  0  0  0  0  0
   17.6980   -9.4890  -10.7260 C   0  0  0  0  0  0  0  0  0  0  0  0
   19.0100   -8.8340  -10.3270 C   0  0  0  0  0  0  0  0  0  0  0  0
   19.6730   -8.1410  -11.5100 C   0  0  0  0  0  0  0  0  0  0  0  0
   19.9640   -9.1590  -12.5980 C   0  0  0  0  0  0  0  0  0  0  0  0
   15.2165  -13.4616  -17.7293 H   0  0  0  0  0  0  0  0  0  0  0  0
   13.8993  -14.4051  -19.5757 H   0  0  0  0  0  0  0  0  0  0  0  0
   13.0575  -10.5808  -21.0282 H   0  0  0  0  0  0  0  0  0  0  0  0
   14.2730   -9.5088  -19.1788 H   0  0  0  0  0  0  0  0  0  0  0  0
   15.6000  -12.6831  -15.8640 H   0  0  0  0  0  0  0  0  0  0  0  0
   16.3734   -9.0671  -17.9782 H   0  0  0  0  0  0  0  0  0  0  0  0
   17.4063  -12.2777  -13.9115 H   0  0  0  0  0  0  0  0  0  0  0  0
   19.6866  -11.5609  -13.6801 H   0  0  0  0  0  0  0  0  0  0  0  0
   19.4411  -10.3441  -14.9633 H   0  0  0  0  0  0  0  0  0  0  0  0
   17.9922   -9.0108  -13.4367 H   0  0  0  0  0  0  0  0  0  0  0  0
   16.9105  -10.7766  -12.2535 H   0  0  0  0  0  0  0  0  0  0  0  0
   18.4901  -11.3026  -11.5326 H   0  0  0  0  0  0  0  0  0  0  0  0
   16.9821   -8.7080  -11.0219 H   0  0  0  0  0  0  0  0  0  0  0  0
   17.3161  -10.0581   -9.8656 H   0  0  0  0  0  0  0  0  0  0  0  0
   18.8130   -8.0894   -9.5417 H   0  0  0  0  0  0  0  0  0  0  0  0
   19.6895   -9.6186   -9.9628 H   0  0  0  0  0  0  0  0  0  0  0  0
   18.9998   -7.3657  -11.9045 H   0  0  0  0  0  0  0  0  0  0  0  0
   20.6150   -7.6778  -11.1813 H   0  0  0  0  0  0  0  0  0  0  0  0
   20.6384   -9.9350  -12.2068 H   0  0  0  0  0  0  0  0  0  0  0  0
   20.4448   -8.6627  -13.4539 H   0  0  0  0  0  0  0  0  0  0  0  0
  1  2  2  0
  1  6  1  0
  2  3  1  0
  3  4  2  0
  4  5  1  0
  5  6  2  0
  6  7  1  0
  7  8  2  0
  7 11  1  0
  8  9  1  0
  9 10  2  0
  9 12  1  0
 10 11  1  0
 12 13  1  0
 13 14  1  0
 14 15  1  0
 14 19  1  0
 15 16  1  0
 16 17  1  0
 17 18  1  0
 18 19  1  0
  1 20  1  0
  2 21  1  0
  4 22  1  0
  5 23  1  0
  8 24  1  0
 11 25  1  0
 12 26  1  0
 13 27  1  0
 13 28  1  0
 14 29  1  0
 15 30  1  0
 15 31  1  0
 16 32  1  0
 16 33  1  0
 17 34  1  0
 17 35  1  0
 18 36  1  0
 18 37  1  0
 19 38  1  0
 19 39  1  0
A    1
C1
A    2
C2
A    3
N3
A    4
C4
A    5
C5
A    6
C6
A    7
C7
A    8
C8
A    9
C9
A   10
N10
A   11
N11
A   12
N12
A   13
C13
A   14
C14
A   15
C15
A   16
C16
A   17
C17
A   18
C18
A   19
C19
M  END
