5AKS_R3X_A_1127
     RDKit          3D

 49 51  0  0  0  0  0  0  0  0999 V2000
   21.7700   43.9680   40.7450 C   0  0  0  0  0  0  0  0  0  0  0  0
   21.6780   43.8350   42.0600 C   0  0  0  0  0  0  0  0  0  0  0  0
   21.3870   42.4780   42.6340 C   0  0  0  0  0  0  0  0  0  0  0  0
   21.3080   42.3610   44.0240 O   0  0  0  0  0  0  0  0  0  0  0  0
   21.2140   41.3970   41.8350 C   0  0  0  0  0  0  0  0  0  0  0  0
   21.3170   41.5560   40.3400 C   0  0  0  0  0  0  0  0  0  0  0  0
   21.5710   42.7760   39.8270 C   0  0  0  0  0  0  0  0  0  0  0  0
   21.7050   43.0520   38.3740 C   0  0  0  0  0  0  0  0  0  0  0  0
   21.1860   42.0320   37.4130 C   0  0  0  0  0  0  0  0  0  0  0  0
   21.3900   42.5540   35.9850 C   0  0  0  0  0  0  0  0  0  0  0  0
   22.3850   43.4650   35.6190 C   0  0  0  0  0  0  0  0  0  0  0  0
   20.4920   42.0780   35.0880 C   0  0  0  0  0  0  0  0  0  0  0  0
   20.5870   42.4820   33.7910 C   0  0  0  0  0  0  0  0  0  0  0  0
   19.6820   41.9980   32.8340 O   0  0  0  0  0  0  0  0  0  0  0  0
   21.5440   43.3730   33.4150 C   0  0  0  0  0  0  0  0  0  0  0  0
   22.4830   43.8870   34.2790 C   0  0  0  0  0  0  0  0  0  0  0  0
   23.4620   44.7880   33.7750 O   0  0  0  0  0  0  0  0  0  0  0  0
   24.3670   44.1370   32.7950 C   0  0  0  0  0  0  0  0  0  0  0  0
   23.8090   44.2120   31.3830 C   0  0  0  0  0  0  0  0  0  0  0  0
   24.7210   43.7050   30.2620 C   0  0  0  0  0  0  0  0  0  0  0  0
   26.0280   44.4040   30.5090 C   0  0  0  0  0  0  0  0  0  0  0  0
   26.5590   44.1760   31.8760 C   0  0  0  0  0  0  0  0  0  0  0  0
   27.8430   44.9240   31.6370 C   0  0  0  0  0  0  0  0  0  0  0  0
   22.8010   43.2800   31.1070 O   0  0  0  0  0  0  0  0  0  0  0  0
   24.1400   43.9370   29.0130 O   0  0  0  0  0  0  0  0  0  0  0  0
   26.9010   44.0360   29.7430 O   0  0  0  0  0  0  0  0  0  0  0  0
   25.6380   44.7000   32.8030 O   0  0  0  0  0  0  0  0  0  0  0  0
   28.9450   44.2920   31.4990 O   0  0  0  0  0  0  0  0  0  0  0  0
   27.8100   46.1550   31.4980 O   0  0  0  0  0  0  0  0  0  0  0  0
   21.9934   44.9547   40.3132 H   0  0  0  0  0  0  0  0  0  0  0  0
   21.8125   44.7042   42.7205 H   0  0  0  0  0  0  0  0  0  0  0  0
   21.7573   43.0265   44.6031 H   0  0  0  0  0  0  0  0  0  0  0  0
   21.0001   40.4115   42.2743 H   0  0  0  0  0  0  0  0  0  0  0  0
   21.1867   40.6883   39.6767 H   0  0  0  0  0  0  0  0  0  0  0  0
   22.1729   43.9807   38.0154 H   0  0  0  0  0  0  0  0  0  0  0  0
   20.7329   41.0671   37.6845 H   0  0  0  0  0  0  0  0  0  0  0  0
   23.0872   43.8500   36.3731 H   0  0  0  0  0  0  0  0  0  0  0  0
   19.7023   41.3793   35.4015 H   0  0  0  0  0  0  0  0  0  0  0  0
   18.8472   41.5515   33.1235 H   0  0  0  0  0  0  0  0  0  0  0  0
   21.5682   43.6995   32.3649 H   0  0  0  0  0  0  0  0  0  0  0  0
   24.4407   43.0842   33.1050 H   0  0  0  0  0  0  0  0  0  0  0  0
   23.5603   45.2835   31.3832 H   0  0  0  0  0  0  0  0  0  0  0  0
   24.8811   42.6167   30.2595 H   0  0  0  0  0  0  0  0  0  0  0  0
   25.7917   45.4681   30.3611 H   0  0  0  0  0  0  0  0  0  0  0  0
   26.7154   43.1693   32.2908 H   0  0  0  0  0  0  0  0  0  0  0  0
   22.4284   42.9355   31.9570 H   0  0  0  0  0  0  0  0  0  0  0  0
   23.2277   44.3013   29.1360 H   0  0  0  0  0  0  0  0  0  0  0  0
   27.6782   43.7084   30.2613 H   0  0  0  0  0  0  0  0  0  0  0  0
   29.4522   44.0011   32.2979 H   0  0  0  0  0  0  0  0  0  0  0  0
  1  2  2  0
  1  7  1  0
  2  3  1  0
  3  4  1  0
  3  5  2  0
  5  6  1  0
  6  7  2  0
  7  8  1  0
  8  9  2  0
  9 10  1  0
 10 11  2  0
 10 12  1  0
 11 16  1  0
 12 13  2  0
 13 14  1  0
 13 15  1  0
 15 16  2  0
 16 17  1  0
 17 18  1  0
 18 19  1  0
 18 27  1  0
 19 20  1  0
 19 24  1  0
 20 21  1  0
 20 25  1  0
 21 22  1  0
 21 26  1  0
 22 23  1  0
 22 27  1  0
 23 28  1  0
 23 29  2  0
  1 30  1  0
  2 31  1  0
  4 32  1  0
  5 33  1  0
  6 34  1  0
  8 35  1  0
  9 36  1  0
 11 37  1  0
 12 38  1  0
 14 39  1  0
 15 40  1  0
 18 41  1  0
 19 42  1  0
 20 43  1  0
 21 44  1  0
 22 45  1  0
 24 46  1  0
 25 47  1  0
 26 48  1  0
 28 49  1  0
A    1
CAB
A    2
CAA
A    3
CAF
A    4
OAP
A    5
CAE
A    6
CAD
A    7
CAC
A    8
CAG
A    9
CAH
A   10
CAI
A   11
CAN
A   12
CAJ
A   13
CAK
A   14
OAO
A   15
CAL
A   16
CAM
A   17
O1
A   18
C1
A   19
C2
A   20
C3
A   21
C4
A   22
C5
A   23
C6
A   24
O2
A   25
O3
A   26
O4
A   27
O5
A   28
O6A
A   29
O6B
M  END
