5AKT_R4G_A_1128
     RDKit          3D

 49 51  0  0  0  0  0  0  0  0999 V2000
   20.8190   41.8480   40.6580 C   0  0  0  0  0  0  0  0  0  0  0  0
   20.9190   41.9780   42.0270 C   0  0  0  0  0  0  0  0  0  0  0  0
   20.5470   40.9180   42.7700 O   0  0  0  0  0  0  0  0  0  0  0  0
   21.3350   43.1610   42.6160 C   0  0  0  0  0  0  0  0  0  0  0  0
   21.6970   44.2280   41.8080 C   0  0  0  0  0  0  0  0  0  0  0  0
   22.1130   45.4040   42.3670 O   0  0  0  0  0  0  0  0  0  0  0  0
   21.6510   44.0680   40.4170 C   0  0  0  0  0  0  0  0  0  0  0  0
   21.2990   42.8390   39.8380 C   0  0  0  0  0  0  0  0  0  0  0  0
   21.1360   42.6660   38.4680 C   0  0  0  0  0  0  0  0  0  0  0  0
   21.9240   43.5150   37.4950 C   0  0  0  0  0  0  0  0  0  0  0  0
   21.7860   43.3840   36.1190 C   0  0  0  0  0  0  0  0  0  0  0  0
   22.8950   43.7400   35.3890 C   0  0  0  0  0  0  0  0  0  0  0  0
   22.9280   43.5750   34.0180 C   0  0  0  0  0  0  0  0  0  0  0  0
   20.7730   42.7000   35.4570 C   0  0  0  0  0  0  0  0  0  0  0  0
   20.7760   42.5960   34.0590 C   0  0  0  0  0  0  0  0  0  0  0  0
   21.8730   43.0550   33.3250 C   0  0  0  0  0  0  0  0  0  0  0  0
   22.1190   43.0010   31.9780 O   0  0  0  0  0  0  0  0  0  0  0  0
   21.2380   42.5350   30.9510 C   0  0  0  0  0  0  0  0  0  0  0  0
   20.1290   43.4380   30.9060 O   0  0  0  0  0  0  0  0  0  0  0  0
   19.1700   43.0820   29.8920 C   0  0  0  0  0  0  0  0  0  0  0  0
   18.0350   44.0990   29.8170 C   0  0  0  0  0  0  0  0  0  0  0  0
   17.6580   44.4400   28.6740 O   0  0  0  0  0  0  0  0  0  0  0  0
   17.5570   44.5120   30.8930 O   0  0  0  0  0  0  0  0  0  0  0  0
   18.6270   41.7050   30.1440 C   0  0  0  0  0  0  0  0  0  0  0  0
   17.8960   41.4440   29.3790 O   0  0  0  0  0  0  0  0  0  0  0  0
   19.7870   40.7350   30.1070 C   0  0  0  0  0  0  0  0  0  0  0  0
   19.2450   39.4740   30.4030 O   0  0  0  0  0  0  0  0  0  0  0  0
   20.7910   41.0970   31.1650 C   0  0  0  0  0  0  0  0  0  0  0  0
   21.9290   40.2050   31.1790 O   0  0  0  0  0  0  0  0  0  0  0  0
   20.3548   40.9506   40.2230 H   0  0  0  0  0  0  0  0  0  0  0  0
   20.5669   40.9747   43.7582 H   0  0  0  0  0  0  0  0  0  0  0  0
   21.3776   43.2526   43.7113 H   0  0  0  0  0  0  0  0  0  0  0  0
   22.1467   45.4993   43.3518 H   0  0  0  0  0  0  0  0  0  0  0  0
   21.8952   44.9211   39.7669 H   0  0  0  0  0  0  0  0  0  0  0  0
   20.4321   41.9096   38.0906 H   0  0  0  0  0  0  0  0  0  0  0  0
   22.6295   44.2607   37.8902 H   0  0  0  0  0  0  0  0  0  0  0  0
   23.7698   44.1629   35.9047 H   0  0  0  0  0  0  0  0  0  0  0  0
   23.8328   43.8719   33.4673 H   0  0  0  0  0  0  0  0  0  0  0  0
   19.9610   42.2357   36.0358 H   0  0  0  0  0  0  0  0  0  0  0  0
   19.9139   42.1526   33.5392 H   0  0  0  0  0  0  0  0  0  0  0  0
   21.7668   42.5218   29.9865 H   0  0  0  0  0  0  0  0  0  0  0  0
   19.6885   43.0860   28.9219 H   0  0  0  0  0  0  0  0  0  0  0  0
   16.9278   45.1004   28.5701 H   0  0  0  0  0  0  0  0  0  0  0  0
   18.1261   41.6653   31.1225 H   0  0  0  0  0  0  0  0  0  0  0  0
   17.0576   41.1447   29.8121 H   0  0  0  0  0  0  0  0  0  0  0  0
   20.2915   40.7516   29.1296 H   0  0  0  0  0  0  0  0  0  0  0  0
   19.1953   39.3584   31.3850 H   0  0  0  0  0  0  0  0  0  0  0  0
   20.3057   40.9939   32.1467 H   0  0  0  0  0  0  0  0  0  0  0  0
   22.1816   40.0070   32.1155 H   0  0  0  0  0  0  0  0  0  0  0  0
  1  2  2  0
  1  8  1  0
  2  3  1  0
  2  4  1  0
  4  5  2  0
  5  6  1  0
  5  7  1  0
  7  8  2  0
  8  9  1  0
  9 10  2  0
 10 11  1  0
 11 12  2  0
 11 14  1  0
 12 13  1  0
 13 16  2  0
 14 15  2  0
 15 16  1  0
 16 17  1  0
 17 18  1  0
 18 19  1  0
 18 28  1  0
 19 20  1  0
 20 21  1  0
 20 24  1  0
 21 22  1  0
 21 23  2  0
 24 25  1  0
 24 26  1  0
 26 27  1  0
 26 28  1  0
 28 29  1  0
  1 30  1  0
  3 31  1  0
  4 32  1  0
  6 33  1  0
  7 34  1  0
  9 35  1  0
 10 36  1  0
 12 37  1  0
 13 38  1  0
 14 39  1  0
 15 40  1  0
 18 41  1  0
 20 42  1  0
 22 43  1  0
 24 44  1  0
 25 45  1  0
 26 46  1  0
 27 47  1  0
 28 48  1  0
 29 49  1  0
A    1
CAJ
A    2
CAK
A    3
OAP
A    4
CAL
A    5
CAM
A    6
OAO
A    7
CAN
A    8
CAI
A    9
CAH
A   10
CAG
A   11
CAC
A   12
CAD
A   13
CAE
A   14
CAB
A   15
CAA
A   16
CAF
A   17
O1
A   18
C1
A   19
O5
A   20
C5
A   21
C6
A   22
OBC
A   23
O6
A   24
C4
A   25
O4
A   26
C3
A   27
O3
A   28
C2
A   29
O2
M  END
