5AKV_G7G_A_1126
     RDKit          3D

 50 53  0  0  0  0  0  0  0  0999 V2000
   21.5560   43.2920   31.4140 C   0  0  0  0  0  0  0  0  0  0  0  0
   22.3830   44.5200   31.0960 C   0  0  0  0  0  0  0  0  0  0  0  0
   22.5130   45.3470   32.2350 O   0  0  0  0  0  0  0  0  0  0  0  0
   21.6790   45.2660   29.9840 C   0  0  0  0  0  0  0  0  0  0  0  0
   22.4340   46.3400   29.5550 O   0  0  0  0  0  0  0  0  0  0  0  0
   21.5310   44.3800   28.7610 C   0  0  0  0  0  0  0  0  0  0  0  0
   20.9920   45.1260   27.7070 O   0  0  0  0  0  0  0  0  0  0  0  0
   20.6480   43.2000   29.0930 C   0  0  0  0  0  0  0  0  0  0  0  0
   21.3670   42.5980   30.2050 O   0  0  0  0  0  0  0  0  0  0  0  0
   20.4630   42.3220   27.9060 C   0  0  0  0  0  0  0  0  0  0  0  0
   22.2410   42.4830   32.4110 O   0  0  0  0  0  0  0  0  0  0  0  0
   21.2630   43.3720   34.3310 C   0  0  0  0  0  0  0  0  0  0  0  0
   21.9830   42.6020   33.8570 C   0  0  0  0  0  0  0  0  0  0  0  0
   22.5150   41.9240   34.3940 C   0  0  0  0  0  0  0  0  0  0  0  0
   22.5490   41.7390   35.5440 C   0  0  0  0  0  0  0  0  0  0  0  0
   21.8250   42.4470   36.6150 C   0  0  0  0  0  0  0  0  0  0  0  0
   20.9350   43.5640   35.8350 C   0  0  0  0  0  0  0  0  0  0  0  0
   21.9440   42.1270   37.9370 C   0  0  0  0  0  0  0  0  0  0  0  0
   21.1090   42.9700   38.9320 C   0  0  0  0  0  0  0  0  0  0  0  0
   20.3010   44.1150   38.3440 C   0  0  0  0  0  0  0  0  0  0  0  0
   20.2420   44.2380   36.8050 O   0  0  0  0  0  0  0  0  0  0  0  0
   21.2490   42.7650   40.4260 C   0  0  0  0  0  0  0  0  0  0  0  0
   21.7180   43.8390   41.2180 C   0  0  0  0  0  0  0  0  0  0  0  0
   21.8600   43.6900   42.5910 C   0  0  0  0  0  0  0  0  0  0  0  0
   21.5340   42.4840   43.2050 C   0  0  0  0  0  0  0  0  0  0  0  0
   21.0630   41.4000   42.4130 C   0  0  0  0  0  0  0  0  0  0  0  0
   20.9280   41.5410   41.0360 C   0  0  0  0  0  0  0  0  0  0  0  0
   22.6550   41.2040   38.3200 O   0  0  0  0  0  0  0  0  0  0  0  0
   23.4220   40.6870   36.0150 O   0  0  0  0  0  0  0  0  0  0  0  0
   21.6790   42.3650   44.6140 O   0  0  0  0  0  0  0  0  0  0  0  0
   21.3610   41.5180   27.5480 O   0  0  0  0  0  0  0  0  0  0  0  0
   19.4110   42.4080   27.2320 O   0  0  0  0  0  0  0  0  0  0  0  0
   20.5770   43.5563   31.8403 H   0  0  0  0  0  0  0  0  0  0  0  0
   23.3966   44.2254   30.7865 H   0  0  0  0  0  0  0  0  0  0  0  0
   22.4266   44.7971   33.0537 H   0  0  0  0  0  0  0  0  0  0  0  0
   20.7072   45.5841   30.3895 H   0  0  0  0  0  0  0  0  0  0  0  0
   22.7811   46.8338   30.3397 H   0  0  0  0  0  0  0  0  0  0  0  0
   22.5165   44.0004   28.4531 H   0  0  0  0  0  0  0  0  0  0  0  0
   20.4531   45.8718   28.0723 H   0  0  0  0  0  0  0  0  0  0  0  0
   19.6108   43.4422   29.3680 H   0  0  0  0  0  0  0  0  0  0  0  0
   20.7493   44.0491   33.6327 H   0  0  0  0  0  0  0  0  0  0  0  0
   23.1592   41.2613   33.7976 H   0  0  0  0  0  0  0  0  0  0  0  0
   19.7759   44.8320   38.9922 H   0  0  0  0  0  0  0  0  0  0  0  0
   21.9718   44.7982   40.7431 H   0  0  0  0  0  0  0  0  0  0  0  0
   22.2321   44.5294   43.1968 H   0  0  0  0  0  0  0  0  0  0  0  0
   20.8040   40.4446   42.8927 H   0  0  0  0  0  0  0  0  0  0  0  0
   20.5713   40.6973   40.4269 H   0  0  0  0  0  0  0  0  0  0  0  0
   23.5425   40.5418   36.9868 H   0  0  0  0  0  0  0  0  0  0  0  0
   21.0725   42.8627   45.2178 H   0  0  0  0  0  0  0  0  0  0  0  0
   18.5353   42.4796   27.6882 H   0  0  0  0  0  0  0  0  0  0  0  0
  9  1  1  0
  2  1  1  0
  1 11  1  0
  4  2  1  0
  2  3  1  0
  6  4  1  0
  5  4  1  0
  7  6  1  0
  6  8  1  0
 10  8  1  0
  8  9  1  0
 31 10  2  0
 32 10  1  0
 11 13  1  0
 13 12  2  0
 12 17  1  0
 13 14  1  0
 14 15  2  0
 15 29  1  0
 15 16  1  0
 17 16  2  0
 16 18  1  0
 17 21  1  0
 18 28  2  0
 18 19  1  0
 20 19  2  0
 19 22  1  0
 21 20  1  0
 22 27  1  0
 22 23  2  0
 23 24  1  0
 24 25  2  0
 26 25  1  0
 25 30  1  0
 27 26  2  0
  1 33  1  0
  2 34  1  0
  3 35  1  0
  4 36  1  0
  5 37  1  0
  6 38  1  0
  7 39  1  0
  8 40  1  0
 12 41  1  0
 14 42  1  0
 20 43  1  0
 23 44  1  0
 24 45  1  0
 26 46  1  0
 27 47  1  0
 29 48  1  0
 30 49  1  0
 32 50  1  0
A    1
C1
A    2
C2
A    3
O2
A    4
C3
A    5
O3
A    6
C4
A    7
O4
A    8
C5
A    9
O5
A   10
C6
A   11
O10
A   12
C11
A   13
C12
A   14
C13
A   15
C14
A   16
C15
A   17
C16
A   18
C17
A   19
C18
A   20
C19
A   21
O20
A   22
C21
A   23
C22
A   24
C23
A   25
C24
A   26
C25
A   27
C26
A   28
O27
A   29
O28
A   30
O29
A   31
O6A
A   32
O6B
M  END
