5AL0_R3S_A_1127
     RDKit          3D

 33 34  0  0  0  0  0  0  0  0999 V2000
   21.7340   43.9540   42.3320 C   0  0  0  0  0  0  0  0  0  0  0  0
   21.8270   43.9890   40.9440 C   0  0  0  0  0  0  0  0  0  0  0  0
   21.5330   42.8680   40.1730 C   0  0  0  0  0  0  0  0  0  0  0  0
   21.1440   41.6850   40.8150 C   0  0  0  0  0  0  0  0  0  0  0  0
   21.0520   41.6510   42.2090 C   0  0  0  0  0  0  0  0  0  0  0  0
   21.3460   42.7820   42.9650 C   0  0  0  0  0  0  0  0  0  0  0  0
   21.6740   43.0440   38.7040 C   0  0  0  0  0  0  0  0  0  0  0  0
   21.0910   42.2310   37.8090 C   0  0  0  0  0  0  0  0  0  0  0  0
   21.1330   42.4370   36.3280 C   0  0  0  0  0  0  0  0  0  0  0  0
   21.9700   43.4200   35.7960 C   0  0  0  0  0  0  0  0  0  0  0  0
   22.0320   43.6390   34.4210 C   0  0  0  0  0  0  0  0  0  0  0  0
   21.2560   42.8680   33.5610 C   0  0  0  0  0  0  0  0  0  0  0  0
   20.4180   41.8830   34.0800 C   0  0  0  0  0  0  0  0  0  0  0  0
   20.3580   41.6700   35.4560 C   0  0  0  0  0  0  0  0  0  0  0  0
   19.6490   41.1190   33.2360 O   0  0  0  0  0  0  0  0  0  0  0  0
   22.8550   44.6050   33.9210 O   0  0  0  0  0  0  0  0  0  0  0  0
   21.2560   42.7470   44.3240 O   0  0  0  0  0  0  0  0  0  0  0  0
   18.1340   40.9630   33.4470 S   0  0  0  0  0  0  0  0  0  0  0  0
   17.5270   42.2520   33.8320 O   0  0  0  0  0  0  0  0  0  0  0  0
   17.8800   39.9710   34.5170 O   0  0  0  0  0  0  0  0  0  0  0  0
   17.5260   40.5090   32.1830 O   0  0  0  0  0  0  0  0  0  0  0  0
   21.9670   44.8511   42.9244 H   0  0  0  0  0  0  0  0  0  0  0  0
   22.1385   44.9196   40.4470 H   0  0  0  0  0  0  0  0  0  0  0  0
   20.9120   40.7866   40.2242 H   0  0  0  0  0  0  0  0  0  0  0  0
   20.7447   40.7228   42.7129 H   0  0  0  0  0  0  0  0  0  0  0  0
   22.2850   43.8800   38.3326 H   0  0  0  0  0  0  0  0  0  0  0  0
   20.5460   41.3548   38.1901 H   0  0  0  0  0  0  0  0  0  0  0  0
   22.5886   44.0296   36.4711 H   0  0  0  0  0  0  0  0  0  0  0  0
   21.3039   43.0355   32.4749 H   0  0  0  0  0  0  0  0  0  0  0  0
   19.6942   40.8907   35.8586 H   0  0  0  0  0  0  0  0  0  0  0  0
   23.3575   45.1948   34.5372 H   0  0  0  0  0  0  0  0  0  0  0  0
   22.0204   43.0443   44.8785 H   0  0  0  0  0  0  0  0  0  0  0  0
   17.9907   40.4032   35.4008 H   0  0  0  0  0  0  0  0  0  0  0  0
  2  1  2  0
  1  6  1  0
  3  2  1  0
  7  3  1  0
  3  4  2  0
  4  5  1  0
  5  6  2  0
  6 17  1  0
  8  7  2  0
  9  8  1  0
 14  9  1  0
 10  9  2  0
 11 10  1  0
 12 11  2  0
 16 11  1  0
 12 13  1  0
 15 13  1  0
 13 14  2  0
 15 18  1  0
 21 18  2  0
 18 19  2  0
 18 20  1  0
  1 22  1  0
  2 23  1  0
  4 24  1  0
  5 25  1  0
  7 26  1  0
  8 27  1  0
 10 28  1  0
 12 29  1  0
 14 30  1  0
 16 31  1  0
 17 32  1  0
 20 33  1  0
A    1
C01
A    2
C02
A    3
C03
A    4
C04
A    5
C05
A    6
C06
A    7
C07
A    8
C08
A    9
C09
A   10
C10
A   11
C11
A   12
C12
A   13
C13
A   14
C14
A   15
O15
A   16
O16
A   17
O17
A   18
S18
A   19
O19
A   20
O20
A   21
O21
M  END
