5AL1_GN5_A_2167
     RDKit          3D

 40 42  0  0  0  0  0  0  0  0999 V2000
   -7.9800  -38.0500    5.9440 C   0  0  0  0  0  0  0  0  0  0  0  0
   -6.5790  -38.3250    6.5270 C   0  0  0  0  0  0  0  0  0  0  0  0
   -5.5820  -37.4290    5.7630 C   0  0  0  0  0  0  0  0  0  0  0  0
   -6.1300  -39.7720    6.2530 C   0  0  0  0  0  0  0  0  0  0  0  0
   -6.5650  -38.1310    7.9710 C   0  0  0  0  0  0  0  0  0  0  0  0
   -7.3100  -38.9670    8.8210 C   0  0  0  0  0  0  0  0  0  0  0  0
   -7.3010  -38.8010   10.2150 C   0  0  0  0  0  0  0  0  0  0  0  0
   -5.8090  -37.1350    8.5960 C   0  0  0  0  0  0  0  0  0  0  0  0
   -5.7900  -36.9700    9.9930 C   0  0  0  0  0  0  0  0  0  0  0  0
   -6.5540  -37.7740   10.8350 C   0  0  0  0  0  0  0  0  0  0  0  0
   -6.4590  -37.6080   12.2730 C   0  0  0  0  0  0  0  0  0  0  0  0
   -7.5550  -38.1330   13.1300 N   0  0  0  0  0  0  0  0  0  0  0  0
   -7.4930  -37.9240   14.5200 C   0  0  0  0  0  0  0  0  0  0  0  0
   -8.3720  -38.4120   15.2280 O   0  0  0  0  0  0  0  0  0  0  0  0
   -6.5990  -36.9840   15.0330 C   0  0  0  0  0  0  0  0  0  0  0  0
   -6.3990  -36.8300   16.3990 C   0  0  0  0  0  0  0  0  0  0  0  0
   -5.5060  -35.8430   16.8620 C   0  0  0  0  0  0  0  0  0  0  0  0
   -4.8430  -35.0020   15.9620 C   0  0  0  0  0  0  0  0  0  0  0  0
   -5.0720  -35.1700   14.5720 N   0  0  0  0  0  0  0  0  0  0  0  0
   -5.9100  -36.1310   14.1430 C   0  0  0  0  0  0  0  0  0  0  0  0
   -6.0900  -36.2650   12.7750 N   0  0  0  0  0  0  0  0  0  0  0  0
   -8.6978  -37.9091    6.7655 H   0  0  0  0  0  0  0  0  0  0  0  0
   -7.9477  -37.1410    5.3253 H   0  0  0  0  0  0  0  0  0  0  0  0
   -8.2937  -38.9037    5.3253 H   0  0  0  0  0  0  0  0  0  0  0  0
   -4.9631  -36.8728    6.4825 H   0  0  0  0  0  0  0  0  0  0  0  0
   -4.9357  -38.0557    5.1309 H   0  0  0  0  0  0  0  0  0  0  0  0
   -6.1364  -36.7197    5.1309 H   0  0  0  0  0  0  0  0  0  0  0  0
   -5.9684  -40.2929    7.2083 H   0  0  0  0  0  0  0  0  0  0  0  0
   -6.9082  -40.2946    5.6775 H   0  0  0  0  0  0  0  0  0  0  0  0
   -5.1926  -39.7623    5.6775 H   0  0  0  0  0  0  0  0  0  0  0  0
   -7.9164  -39.7730    8.3820 H   0  0  0  0  0  0  0  0  0  0  0  0
   -7.8903  -39.4877   10.8405 H   0  0  0  0  0  0  0  0  0  0  0  0
   -5.2076  -36.4562    7.9734 H   0  0  0  0  0  0  0  0  0  0  0  0
   -5.1554  -36.1858   10.4314 H   0  0  0  0  0  0  0  0  0  0  0  0
   -5.6027  -38.2884   12.3904 H   0  0  0  0  0  0  0  0  0  0  0  0
   -8.3473  -38.6418   12.7125 H   0  0  0  0  0  0  0  0  0  0  0  0
   -6.9334  -37.4733   17.1136 H   0  0  0  0  0  0  0  0  0  0  0  0
   -5.3285  -35.7328   17.9420 H   0  0  0  0  0  0  0  0  0  0  0  0
   -4.1559  -34.2238   16.3258 H   0  0  0  0  0  0  0  0  0  0  0  0
   -5.9722  -35.4657   12.1362 H   0  0  0  0  0  0  0  0  0  0  0  0
  1  2  1  0
  2  3  1  0
  2  4  1  0
  2  5  1  0
  5  6  2  0
  5  8  1  0
  6  7  1  0
  7 10  2  0
  8  9  2  0
  9 10  1  0
 10 11  1  0
 11 12  1  0
 11 21  1  0
 12 13  1  0
 13 14  2  0
 13 15  1  0
 15 16  2  0
 15 20  1  0
 16 17  1  0
 17 18  2  0
 18 19  1  0
 19 20  2  0
 20 21  1  0
  1 22  1  0
  1 23  1  0
  1 24  1  0
  3 25  1  0
  3 26  1  0
  3 27  1  0
  4 28  1  0
  4 29  1  0
  4 30  1  0
  6 31  1  0
  7 32  1  0
  8 33  1  0
  9 34  1  0
 11 35  1  0
 12 36  1  0
 16 37  1  0
 17 38  1  0
 18 39  1  0
 21 40  1  0
A    1
CAA
A    2
CAB
A    3
CAC
A    4
CAD
A    5
CAE
A    6
CAJ
A    7
CAI
A    8
CAF
A    9
CAG
A   10
CAH
A   11
CAK
A   12
NAL
A   13
CAM
A   14
OAN
A   15
CAO
A   16
CAU
A   17
CAT
A   18
CAS
A   19
NAR
A   20
CAP
A   21
NAQ
M  END
