5AL2_O53_A_2164
     RDKit          3D

 37 39  0  0  0  0  0  0  0  0999 V2000
  -38.6260  -10.5590    5.5990 C   0  0  0  0  0  0  0  0  0  0  0  0
  -39.9860  -10.3350    6.3020 C   0  0  0  0  0  0  0  0  0  0  0  0
  -40.5650   -8.9590    5.9510 C   0  0  0  0  0  0  0  0  0  0  0  0
  -39.9020  -10.4600    7.7230 C   0  0  0  0  0  0  0  0  0  0  0  0
  -40.5850  -11.5230    8.3180 C   0  0  0  0  0  0  0  0  0  0  0  0
  -40.5920  -11.7030    9.6830 C   0  0  0  0  0  0  0  0  0  0  0  0
  -39.1800   -9.5880    8.5660 C   0  0  0  0  0  0  0  0  0  0  0  0
  -39.1660   -9.7940    9.9390 C   0  0  0  0  0  0  0  0  0  0  0  0
  -39.8330  -10.8830   10.5160 C   0  0  0  0  0  0  0  0  0  0  0  0
  -39.9390  -11.0440   11.9110 C   0  0  0  0  0  0  0  0  0  0  0  0
  -38.9010  -10.5360   12.8320 N   0  0  0  0  0  0  0  0  0  0  0  0
  -39.0390  -10.6740   14.1870 C   0  0  0  0  0  0  0  0  0  0  0  0
  -38.1760  -10.1000   14.8980 O   0  0  0  0  0  0  0  0  0  0  0  0
  -40.0010  -11.5990   14.6890 C   0  0  0  0  0  0  0  0  0  0  0  0
  -40.1960  -11.7790   16.0550 C   0  0  0  0  0  0  0  0  0  0  0  0
  -41.1300  -12.7190   16.5120 C   0  0  0  0  0  0  0  0  0  0  0  0
  -41.8560  -13.4790   15.5810 C   0  0  0  0  0  0  0  0  0  0  0  0
  -41.6310  -13.3250   14.2090 N   0  0  0  0  0  0  0  0  0  0  0  0
  -40.7450  -12.3810   13.7930 C   0  0  0  0  0  0  0  0  0  0  0  0
  -40.5320  -12.2560   12.4320 N   0  0  0  0  0  0  0  0  0  0  0  0
  -37.8388  -10.6887    6.3563 H   0  0  0  0  0  0  0  0  0  0  0  0
  -38.6821  -11.4600    4.9705 H   0  0  0  0  0  0  0  0  0  0  0  0
  -38.3902   -9.6876    4.9705 H   0  0  0  0  0  0  0  0  0  0  0  0
  -40.6533  -11.1271    5.9313 H   0  0  0  0  0  0  0  0  0  0  0  0
  -40.7955   -8.4112    6.8766 H   0  0  0  0  0  0  0  0  0  0  0  0
  -39.8296   -8.3911    5.3623 H   0  0  0  0  0  0  0  0  0  0  0  0
  -41.4852   -9.0877    5.3623 H   0  0  0  0  0  0  0  0  0  0  0  0
  -41.1308  -12.2340    7.6804 H   0  0  0  0  0  0  0  0  0  0  0  0
  -41.2046  -12.5044   10.1218 H   0  0  0  0  0  0  0  0  0  0  0  0
  -38.6262   -8.7418    8.1334 H   0  0  0  0  0  0  0  0  0  0  0  0
  -38.6216   -9.0898   10.5854 H   0  0  0  0  0  0  0  0  0  0  0  0
  -40.7040  -10.2537   11.9258 H   0  0  0  0  0  0  0  0  0  0  0  0
  -38.0641  -10.0728   12.4501 H   0  0  0  0  0  0  0  0  0  0  0  0
  -39.6171  -11.1835   16.7763 H   0  0  0  0  0  0  0  0  0  0  0  0
  -41.2928  -12.8600   17.5907 H   0  0  0  0  0  0  0  0  0  0  0  0
  -42.6074  -14.2010   15.9332 H   0  0  0  0  0  0  0  0  0  0  0  0
  -40.7939  -13.0209   11.7938 H   0  0  0  0  0  0  0  0  0  0  0  0
  1  2  1  0
  2  3  1  0
  2  4  1  0
  4  5  2  0
  4  7  1  0
  5  6  1  0
  6  9  2  0
  7  8  2  0
  8  9  1  0
  9 10  1  0
 10 11  1  0
 10 20  1  0
 11 12  1  0
 12 13  2  0
 12 14  1  0
 14 15  2  0
 14 19  1  0
 15 16  1  0
 16 17  2  0
 17 18  1  0
 18 19  2  0
 19 20  1  0
  1 21  1  0
  1 22  1  0
  1 23  1  0
  2 24  1  0
  3 25  1  0
  3 26  1  0
  3 27  1  0
  5 28  1  0
  6 29  1  0
  7 30  1  0
  8 31  1  0
 10 32  1  0
 11 33  1  0
 15 34  1  0
 16 35  1  0
 17 36  1  0
 20 37  1  0
A    1
CAS
A    2
CAR
A    3
CAT
A    4
CAA
A    5
CAD
A    6
CAE
A    7
CAC
A    8
CAB
A    9
CAF
A   10
CAG
A   11
NAI
A   12
CAH
A   13
OAK
A   14
CAQ
A   15
CAL
A   16
CAM
A   17
CAN
A   18
NAO
A   19
CAP
A   20
NAJ
M  END
