5AL3_TGW_A_3168
     RDKit          3D

 31 33  0  0  0  0  0  0  0  0999 V2000
  -41.1210   -9.5600   10.7270 Cl  0  0  0  0  0  0  0  0  0  0  0  0
  -39.5640  -10.2040   10.0770 C   0  0  0  0  0  0  0  0  0  0  0  0
  -39.2790  -10.0060    8.6990 C   0  0  0  0  0  0  0  0  0  0  0  0
  -38.0700  -10.4840    8.1820 C   0  0  0  0  0  0  0  0  0  0  0  0
  -37.6660  -10.3320    6.4480 Cl  0  0  0  0  0  0  0  0  0  0  0  0
  -37.1560  -11.1520    8.9500 C   0  0  0  0  0  0  0  0  0  0  0  0
  -37.4520  -11.3610   10.3060 C   0  0  0  0  0  0  0  0  0  0  0  0
  -38.6080  -10.8940   10.8720 C   0  0  0  0  0  0  0  0  0  0  0  0
  -38.8080  -11.1870   12.2690 C   0  0  0  0  0  0  0  0  0  0  0  0
  -37.6430  -10.8460   13.0680 N   0  0  0  0  0  0  0  0  0  0  0  0
  -37.6780  -11.1580   14.4010 C   0  0  0  0  0  0  0  0  0  0  0  0
  -36.7430  -10.7680   15.0750 O   0  0  0  0  0  0  0  0  0  0  0  0
  -38.5750  -12.1500   14.8230 C   0  0  0  0  0  0  0  0  0  0  0  0
  -38.7720  -12.4170   16.1770 C   0  0  0  0  0  0  0  0  0  0  0  0
  -39.6360  -13.4570   16.5580 C   0  0  0  0  0  0  0  0  0  0  0  0
  -40.2770  -14.2270   15.5940 C   0  0  0  0  0  0  0  0  0  0  0  0
  -40.1080  -13.9360   14.2250 N   0  0  0  0  0  0  0  0  0  0  0  0
  -39.2700  -12.9220   13.8520 C   0  0  0  0  0  0  0  0  0  0  0  0
  -39.0830  -12.6220   12.5360 N   0  0  0  0  0  0  0  0  0  0  0  0
  -40.1550  -13.1230   11.6410 C   0  0  0  0  0  0  0  0  0  0  0  0
  -39.9976   -9.4852    8.0491 H   0  0  0  0  0  0  0  0  0  0  0  0
  -36.2131  -11.5161    8.5159 H   0  0  0  0  0  0  0  0  0  0  0  0
  -36.7360  -11.9149   10.9309 H   0  0  0  0  0  0  0  0  0  0  0  0
  -39.6804  -10.5769   12.5458 H   0  0  0  0  0  0  0  0  0  0  0  0
  -36.8222  -10.3871   12.6477 H   0  0  0  0  0  0  0  0  0  0  0  0
  -38.2549  -11.8180   16.9411 H   0  0  0  0  0  0  0  0  0  0  0  0
  -39.8064  -13.6633   17.6250 H   0  0  0  0  0  0  0  0  0  0  0  0
  -40.9184  -15.0664   15.9007 H   0  0  0  0  0  0  0  0  0  0  0  0
  -40.9867  -13.5117   12.2470 H   0  0  0  0  0  0  0  0  0  0  0  0
  -40.5168  -12.3007   11.0062 H   0  0  0  0  0  0  0  0  0  0  0  0
  -39.7563  -13.9280   11.0062 H   0  0  0  0  0  0  0  0  0  0  0  0
  1  2  1  0
  2  3  2  0
  2  8  1  0
  3  4  1  0
  4  5  1  0
  4  6  2  0
  6  7  1  0
  7  8  2  0
  8  9  1  0
  9 10  1  0
  9 19  1  0
 10 11  1  0
 11 12  2  0
 11 13  1  0
 13 14  2  0
 13 18  1  0
 14 15  1  0
 15 16  2  0
 16 17  1  0
 17 18  2  0
 18 19  1  0
 19 20  1  0
  3 21  1  0
  6 22  1  0
  7 23  1  0
  9 24  1  0
 10 25  1  0
 14 26  1  0
 15 27  1  0
 16 28  1  0
 20 29  1  0
 20 30  1  0
 20 31  1  0
A    1
CL1
A    2
CAB
A    3
CAC
A    4
CAD
A    5
CL2
A    6
CAF
A    7
CAG
A    8
CAH
A    9
CAI
A   10
NAJ
A   11
CAK
A   12
OAL
A   13
CAM
A   14
CAN
A   15
CAO
A   16
CAP
A   17
NAQ
A   18
CAR
A   19
NAS
A   20
CAT
M  END
