5AL5_JL9_A_2165
     RDKit          3D

 47 50  0  0  0  0  0  0  0  0999 V2000
  -39.1010  -11.7380    4.5740 C   0  0  0  0  0  0  0  0  0  0  0  0
  -39.9910  -12.0910    3.5700 C   0  0  0  0  0  0  0  0  0  0  0  0
  -41.2890  -11.5330    3.5520 N   0  0  0  0  0  0  0  0  0  0  0  0
  -41.6930  -10.6150    4.5300 C   0  0  0  0  0  0  0  0  0  0  0  0
  -40.7770  -10.2490    5.5190 C   0  0  0  0  0  0  0  0  0  0  0  0
  -39.4970  -10.8180    5.5510 C   0  0  0  0  0  0  0  0  0  0  0  0
  -38.5960  -10.4500    6.5750 C   0  0  0  0  0  0  0  0  0  0  0  0
  -39.2220  -10.5630    7.9060 N   0  0  0  0  0  0  0  0  0  0  0  0
  -39.3900  -11.9800    8.3180 C   0  0  0  0  0  0  0  0  0  0  0  0
  -40.0100  -12.0120    9.6760 C   0  0  0  0  0  0  0  0  0  0  0  0
  -38.0570  -10.1470    8.7140 C   0  0  0  0  0  0  0  0  0  0  0  0
  -38.3220  -10.1050   10.1570 C   0  0  0  0  0  0  0  0  0  0  0  0
  -39.0650  -11.3250   10.6420 N   0  0  0  0  0  0  0  0  0  0  0  0
  -39.0650  -11.6640   11.9670 C   0  0  0  0  0  0  0  0  0  0  0  0
  -39.9090  -12.6150   12.4290 N   0  0  0  0  0  0  0  0  0  0  0  0
  -39.9790  -12.9680   13.7210 C   0  0  0  0  0  0  0  0  0  0  0  0
  -40.9140  -13.9700   14.0040 C   0  0  0  0  0  0  0  0  0  0  0  0
  -40.5200  -14.6530   15.3670 C   0  0  0  0  0  0  0  0  0  0  0  0
  -40.3490  -13.5280   16.4090 C   0  0  0  0  0  0  0  0  0  0  0  0
  -39.1710  -12.6630   16.0920 C   0  0  0  0  0  0  0  0  0  0  0  0
  -39.1590  -12.3350   14.6900 C   0  0  0  0  0  0  0  0  0  0  0  0
  -38.2190  -11.3680   14.2240 C   0  0  0  0  0  0  0  0  0  0  0  0
  -37.3940  -10.7890   14.9480 O   0  0  0  0  0  0  0  0  0  0  0  0
  -38.1880  -11.0440   12.8900 N   0  0  0  0  0  0  0  0  0  0  0  0
  -38.0930  -12.1775    4.6017 H   0  0  0  0  0  0  0  0  0  0  0  0
  -39.6868  -12.8039    2.7895 H   0  0  0  0  0  0  0  0  0  0  0  0
  -42.7084  -10.1920    4.5194 H   0  0  0  0  0  0  0  0  0  0  0  0
  -41.0631   -9.5075    6.2795 H   0  0  0  0  0  0  0  0  0  0  0  0
  -37.7181  -11.1115    6.5346 H   0  0  0  0  0  0  0  0  0  0  0  0
  -38.3012   -9.4020    6.4179 H   0  0  0  0  0  0  0  0  0  0  0  0
  -40.0424  -12.4995    7.6007 H   0  0  0  0  0  0  0  0  0  0  0  0
  -38.4120  -12.4830    8.3399 H   0  0  0  0  0  0  0  0  0  0  0  0
  -40.9743  -11.4830    9.6581 H   0  0  0  0  0  0  0  0  0  0  0  0
  -40.1862  -13.0514    9.9899 H   0  0  0  0  0  0  0  0  0  0  0  0
  -37.2373  -10.8577    8.5324 H   0  0  0  0  0  0  0  0  0  0  0  0
  -37.8019   -9.1226    8.4050 H   0  0  0  0  0  0  0  0  0  0  0  0
  -37.3622  -10.0409   10.6905 H   0  0  0  0  0  0  0  0  0  0  0  0
  -38.9539   -9.2269   10.3561 H   0  0  0  0  0  0  0  0  0  0  0  0
  -41.9177  -13.5276   14.0875 H   0  0  0  0  0  0  0  0  0  0  0  0
  -40.9205  -14.7173   13.1968 H   0  0  0  0  0  0  0  0  0  0  0  0
  -41.3143  -15.3441   15.6856 H   0  0  0  0  0  0  0  0  0  0  0  0
  -39.5898  -15.2303   15.2597 H   0  0  0  0  0  0  0  0  0  0  0  0
  -41.2569  -12.9069   16.4170 H   0  0  0  0  0  0  0  0  0  0  0  0
  -40.1830  -13.9908   17.3930 H   0  0  0  0  0  0  0  0  0  0  0  0
  -39.2313  -11.7363   16.6816 H   0  0  0  0  0  0  0  0  0  0  0  0
  -38.2481  -13.2071   16.3417 H   0  0  0  0  0  0  0  0  0  0  0  0
  -37.5161  -10.3387   12.5553 H   0  0  0  0  0  0  0  0  0  0  0  0
  1  2  2  0
  1  6  1  0
  2  3  1  0
  3  4  2  0
  4  5  1  0
  5  6  2  0
  6  7  1  0
  7  8  1  0
  8  9  1  0
  8 11  1  0
  9 10  1  0
 10 13  1  0
 11 12  1  0
 12 13  1  0
 13 14  1  0
 14 15  2  0
 14 24  1  0
 15 16  1  0
 16 17  1  0
 16 21  2  0
 17 18  1  0
 18 19  1  0
 19 20  1  0
 20 21  1  0
 21 22  1  0
 22 23  2  0
 22 24  1  0
  1 25  1  0
  2 26  1  0
  4 27  1  0
  5 28  1  0
  7 29  1  0
  7 30  1  0
  9 31  1  0
  9 32  1  0
 10 33  1  0
 10 34  1  0
 11 35  1  0
 11 36  1  0
 12 37  1  0
 12 38  1  0
 17 39  1  0
 17 40  1  0
 18 41  1  0
 18 42  1  0
 19 43  1  0
 19 44  1  0
 20 45  1  0
 20 46  1  0
 24 47  1  0
A    1
CAA
A    2
CAB
A    3
NAC
A    4
CAD
A    5
CAE
A    6
CAF
A    7
CAG
A    8
NAH
A    9
CAI
A   10
CAJ
A   11
CAM
A   12
CAL
A   13
NAK
A   14
CAN
A   15
NAT
A   16
CAS
A   17
CAU
A   18
CAV
A   19
CAW
A   20
CAX
A   21
CAR
A   22
CAP
A   23
OAQ
A   24
NAO
M  END
