5ALF_OE1_A_1548
     RDKit          3D

 48 50  0  0  0  0  0  0  0  0999 V2000
   10.7660    6.1090   21.8790 C   0  0  0  0  0  0  0  0  0  0  0  0
   10.2100    7.4500   21.4780 C   0  0  0  0  0  0  0  0  0  0  0  0
   11.1280    8.1470   20.4940 C   0  0  0  0  0  0  0  0  0  0  0  0
   11.3820    9.5740   20.8350 N   0  0  0  0  0  0  0  0  0  0  0  0
   10.2500   10.2520   21.5140 C   0  0  0  0  0  0  0  0  0  0  0  0
    9.4760   11.0950   20.5370 C   0  0  0  0  0  0  0  0  0  0  0  0
    8.4010   11.8140   21.3100 C   0  0  0  0  0  0  0  0  0  0  0  0
   12.9440    9.9300   21.4640 S   0  0  0  0  0  0  0  0  0  0  0  0
   12.8730   10.9820   22.4620 O   0  0  0  0  0  0  0  0  0  0  0  0
   13.6130    8.6940   21.8160 O   0  0  0  0  0  0  0  0  0  0  0  0
   13.8090   10.5980   20.0460 C   0  0  0  0  0  0  0  0  0  0  0  0
   13.9110   11.9710   19.8990 C   0  0  0  0  0  0  0  0  0  0  0  0
   14.5720   12.5420   18.8270 C   0  0  0  0  0  0  0  0  0  0  0  0
   15.1130   11.6300   17.9410 C   0  0  0  0  0  0  0  0  0  0  0  0
   15.0210   10.2580   18.0590 C   0  0  0  0  0  0  0  0  0  0  0  0
   14.3550    9.7060   19.1420 C   0  0  0  0  0  0  0  0  0  0  0  0
   15.6740    9.6470   17.0150 N   0  0  0  0  0  0  0  0  0  0  0  0
   16.1530   10.6020   16.2470 C   0  0  0  0  0  0  0  0  0  0  0  0
   15.8260   11.8100   16.7910 N   0  0  0  0  0  0  0  0  0  0  0  0
   16.9600   10.4510   15.0470 C   0  0  0  0  0  0  0  0  0  0  0  0
   17.4920   11.5440   14.3840 C   0  0  0  0  0  0  0  0  0  0  0  0
   18.3060   11.3920   13.2800 C   0  0  0  0  0  0  0  0  0  0  0  0
   18.5970   10.1290   12.8150 C   0  0  0  0  0  0  0  0  0  0  0  0
   18.0690    9.0280   13.4560 C   0  0  0  0  0  0  0  0  0  0  0  0
   17.2670    9.1910   14.5680 C   0  0  0  0  0  0  0  0  0  0  0  0
   10.7956    6.0376   22.9763 H   0  0  0  0  0  0  0  0  0  0  0  0
   10.1246    5.3110   21.4768 H   0  0  0  0  0  0  0  0  0  0  0  0
   11.7839    5.9990   21.4768 H   0  0  0  0  0  0  0  0  0  0  0  0
    9.2248    7.3056   21.0105 H   0  0  0  0  0  0  0  0  0  0  0  0
   10.1217    8.0759   22.3783 H   0  0  0  0  0  0  0  0  0  0  0  0
   12.0908    7.6152   20.4777 H   0  0  0  0  0  0  0  0  0  0  0  0
   10.6286    8.1300   19.5141 H   0  0  0  0  0  0  0  0  0  0  0  0
    9.5810    9.4935   21.9466 H   0  0  0  0  0  0  0  0  0  0  0  0
   10.6493   10.9026   22.3060 H   0  0  0  0  0  0  0  0  0  0  0  0
   10.1455   11.8245   20.0579 H   0  0  0  0  0  0  0  0  0  0  0  0
    9.0326   10.4669   19.7502 H   0  0  0  0  0  0  0  0  0  0  0  0
    8.5817   11.6932   22.3883 H   0  0  0  0  0  0  0  0  0  0  0  0
    8.4176   12.8834   21.0530 H   0  0  0  0  0  0  0  0  0  0  0  0
    7.4189   11.3903   21.0530 H   0  0  0  0  0  0  0  0  0  0  0  0
   13.4537   12.6255   20.6557 H   0  0  0  0  0  0  0  0  0  0  0  0
   14.6597   13.6300   18.6911 H   0  0  0  0  0  0  0  0  0  0  0  0
   14.2658    8.6177   19.2749 H   0  0  0  0  0  0  0  0  0  0  0  0
   16.0803   12.7248   16.3918 H   0  0  0  0  0  0  0  0  0  0  0  0
   17.2605   12.5568   14.7456 H   0  0  0  0  0  0  0  0  0  0  0  0
   18.7206   12.2761   12.7736 H   0  0  0  0  0  0  0  0  0  0  0  0
   19.2470    9.9990   11.9372 H   0  0  0  0  0  0  0  0  0  0  0  0
   18.2873    8.0174   13.0804 H   0  0  0  0  0  0  0  0  0  0  0  0
   16.8660    8.3044   15.0809 H   0  0  0  0  0  0  0  0  0  0  0  0
  1  2  1  0
  2  3  1  0
  3  4  1  0
  4  5  1  0
  4  8  1  0
  5  6  1  0
  6  7  1  0
  8  9  2  0
  8 10  2  0
  8 11  1  0
 11 12  2  0
 11 16  1  0
 12 13  1  0
 13 14  2  0
 14 15  1  0
 14 19  1  0
 15 16  2  0
 15 17  1  0
 17 18  2  0
 18 19  1  0
 18 20  1  0
 20 21  2  0
 20 25  1  0
 21 22  1  0
 22 23  2  0
 23 24  1  0
 24 25  2  0
  1 26  1  0
  1 27  1  0
  1 28  1  0
  2 29  1  0
  2 30  1  0
  3 31  1  0
  3 32  1  0
  5 33  1  0
  5 34  1  0
  6 35  1  0
  6 36  1  0
  7 37  1  0
  7 38  1  0
  7 39  1  0
 12 40  1  0
 13 41  1  0
 16 42  1  0
 19 43  1  0
 21 44  1  0
 22 45  1  0
 23 46  1  0
 24 47  1  0
 25 48  1  0
A    1
C1
A    2
C2
A    3
C3
A    4
N4
A    5
C5
A    6
C6
A    7
C7
A    8
S8
A    9
O9
A   10
O10
A   11
C11
A   12
C12
A   13
C13
A   14
C14
A   15
C15
A   16
C16
A   17
N17
A   18
C18
A   19
N19
A   20
C21
A   21
C22
A   22
C23
A   23
C24
A   24
C25
A   25
C26
M  END
