5ALG_R4N_A_1551
     RDKit          3D

 54 58  0  0  0  0  0  0  0  0999 V2000
   -9.9200  -10.8650   20.0280 C   0  0  0  0  0  0  0  0  0  0  0  0
  -10.5900   -9.7640   19.5240 C   0  0  0  0  0  0  0  0  0  0  0  0
  -20.7760  -10.1680   13.0120 C   0  0  0  0  0  0  0  0  0  0  0  0
  -14.1920  -11.0450   14.6490 C   0  0  0  0  0  0  0  0  0  0  0  0
  -19.4580   -9.7890   12.9090 C   0  0  0  0  0  0  0  0  0  0  0  0
  -10.6150  -12.0040   20.3900 C   0  0  0  0  0  0  0  0  0  0  0  0
  -11.9630   -9.7790   19.3740 C   0  0  0  0  0  0  0  0  0  0  0  0
  -13.8870  -10.8690   13.3150 C   0  0  0  0  0  0  0  0  0  0  0  0
  -21.7450   -9.1940   13.0850 C   0  0  0  0  0  0  0  0  0  0  0  0
  -16.2940   -9.9550   14.2820 C   0  0  0  0  0  0  0  0  0  0  0  0
  -20.0690   -7.4780   12.9380 C   0  0  0  0  0  0  0  0  0  0  0  0
  -15.4060  -10.5920   15.1270 C   0  0  0  0  0  0  0  0  0  0  0  0
  -19.1010   -8.4540   12.8690 C   0  0  0  0  0  0  0  0  0  0  0  0
  -15.9740   -9.7700   12.9440 C   0  0  0  0  0  0  0  0  0  0  0  0
  -11.9880  -12.0250   20.2390 C   0  0  0  0  0  0  0  0  0  0  0  0
  -12.6560  -10.9180   19.7320 C   0  0  0  0  0  0  0  0  0  0  0  0
  -14.7610  -10.2250   12.4570 C   0  0  0  0  0  0  0  0  0  0  0  0
  -21.3900   -7.8630   13.0470 C   0  0  0  0  0  0  0  0  0  0  0  0
  -16.9880   -9.2980   10.7010 C   0  0  0  0  0  0  0  0  0  0  0  0
  -15.7550  -10.7520   16.5470 C   0  0  0  0  0  0  0  0  0  0  0  0
  -15.9530  -10.1380   10.0170 C   0  0  0  0  0  0  0  0  0  0  0  0
  -13.6020  -13.3640   19.5150 C   0  0  0  0  0  0  0  0  0  0  0  0
  -14.5990  -12.2240   19.5420 C   0  0  0  0  0  0  0  0  0  0  0  0
  -17.6710   -8.0600   12.7410 C   0  0  0  0  0  0  0  0  0  0  0  0
  -15.6100  -12.3230   18.4330 C   0  0  0  0  0  0  0  0  0  0  0  0
  -16.8680   -9.0800   12.0850 N   0  0  0  0  0  0  0  0  0  0  0  0
  -15.1310  -11.7980   17.1840 N   0  0  0  0  0  0  0  0  0  0  0  0
  -17.8970   -8.8790   10.0010 O   0  0  0  0  0  0  0  0  0  0  0  0
  -16.4940   -9.9310   17.0630 O   0  0  0  0  0  0  0  0  0  0  0  0
  -12.6940  -13.1650   20.5940 O   0  0  0  0  0  0  0  0  0  0  0  0
  -14.0330  -10.9060   19.5620 O   0  0  0  0  0  0  0  0  0  0  0  0
  -14.3120   -9.9780   10.7550 S   0  0  0  0  0  0  0  0  0  0  0  0
  -22.6480   -6.6970   13.1300 Cl  0  0  0  0  0  0  0  0  0  0  0  0
   -8.8263  -10.8337   20.1414 H   0  0  0  0  0  0  0  0  0  0  0  0
  -10.0222   -8.8659   19.2394 H   0  0  0  0  0  0  0  0  0  0  0  0
  -21.0511  -11.2328   13.0356 H   0  0  0  0  0  0  0  0  0  0  0  0
  -13.4774  -11.5398   15.3232 H   0  0  0  0  0  0  0  0  0  0  0  0
  -18.6754  -10.5603   12.8576 H   0  0  0  0  0  0  0  0  0  0  0  0
  -10.0834  -12.8792   20.7917 H   0  0  0  0  0  0  0  0  0  0  0  0
  -12.4936   -8.9009   18.9772 H   0  0  0  0  0  0  0  0  0  0  0  0
  -12.9305  -11.2480   12.9259 H   0  0  0  0  0  0  0  0  0  0  0  0
  -22.8040   -9.4780   13.1738 H   0  0  0  0  0  0  0  0  0  0  0  0
  -17.2574   -9.5933   14.6705 H   0  0  0  0  0  0  0  0  0  0  0  0
  -19.7955   -6.4130   12.9069 H   0  0  0  0  0  0  0  0  0  0  0  0
  -16.2624  -11.1920   10.0758 H   0  0  0  0  0  0  0  0  0  0  0  0
  -15.8809   -9.7881    8.9766 H   0  0  0  0  0  0  0  0  0  0  0  0
  -14.1256  -14.3237   19.6370 H   0  0  0  0  0  0  0  0  0  0  0  0
  -13.0644  -13.3856   18.5556 H   0  0  0  0  0  0  0  0  0  0  0  0
  -15.0977  -12.3555   20.5136 H   0  0  0  0  0  0  0  0  0  0  0  0
  -17.6121   -7.1324   12.1526 H   0  0  0  0  0  0  0  0  0  0  0  0
  -17.2707   -7.9216   13.7562 H   0  0  0  0  0  0  0  0  0  0  0  0
  -15.8705  -13.3822   18.2905 H   0  0  0  0  0  0  0  0  0  0  0  0
  -16.4813  -11.7204   18.7292 H   0  0  0  0  0  0  0  0  0  0  0  0
  -14.2950  -12.2181   16.7532 H   0  0  0  0  0  0  0  0  0  0  0  0
  1  2  2  0
  1  6  1  0
  2  7  1  0
  3  5  2  0
  3  9  1  0
  4  8  2  0
  4 12  1  0
  5 13  1  0
  6 15  2  0
  7 16  2  0
  8 17  1  0
  9 18  2  0
 10 12  2  0
 10 14  1  0
 11 13  2  0
 11 18  1  0
 12 20  1  0
 13 24  1  0
 14 17  2  0
 14 26  1  0
 15 16  1  0
 15 30  1  0
 16 31  1  0
 17 32  1  0
 18 33  1  0
 19 21  1  0
 19 26  1  0
 19 28  2  0
 20 27  1  0
 20 29  2  0
 21 32  1  0
 22 23  1  0
 22 30  1  0
 23 25  1  0
 23 31  1  0
 24 26  1  0
 25 27  1  0
  1 34  1  0
  2 35  1  0
  3 36  1  0
  4 37  1  0
  5 38  1  0
  6 39  1  0
  7 40  1  0
  8 41  1  0
  9 42  1  0
 10 43  1  0
 11 44  1  0
 21 45  1  0
 21 46  1  0
 22 47  1  0
 22 48  1  0
 23 49  1  0
 24 50  1  0
 24 51  1  0
 25 52  1  0
 25 53  1  0
 27 54  1  0
A    1
C1
A    2
C2
A    3
C3
A    4
C4
A    5
C5
A    6
C6
A    7
C7
A    8
C8
A    9
C9
A   10
C10
A   11
C11
A   12
C12
A   13
C13
A   14
C14
A   15
C15
A   16
C16
A   17
C17
A   18
C18
A   19
C19
A   20
C20
A   21
C21
A   22
C22
A   23
C23
A   24
C24
A   25
C25
A   26
N26
A   27
N27
A   28
O28
A   29
O29
A   30
O30
A   31
O31
A   32
S32
A   33
CL33
M  END
