5ALH_4UA_A_1551
     RDKit          3D

 72 75  0  0  0  0  0  0  0  0999 V2000
    9.4960   11.2630   19.7010 C   0  0  0  0  0  0  0  0  0  0  0  0
   10.1530   12.4000   20.1160 C   0  0  0  0  0  0  0  0  0  0  0  0
   10.2280   10.1790   19.2660 C   0  0  0  0  0  0  0  0  0  0  0  0
   11.5320   12.4450   20.0930 C   0  0  0  0  0  0  0  0  0  0  0  0
   11.6050   10.2370   19.2460 C   0  0  0  0  0  0  0  0  0  0  0  0
   18.4760   10.3530   11.0880 C   0  0  0  0  0  0  0  0  0  0  0  0
   16.1650   10.4820   11.6660 C   0  0  0  0  0  0  0  0  0  0  0  0
   18.8260   10.6860   12.3840 C   0  0  0  0  0  0  0  0  0  0  0  0
   16.5130   10.8130   12.9620 C   0  0  0  0  0  0  0  0  0  0  0  0
   10.3010    7.3050   21.9690 C   0  0  0  0  0  0  0  0  0  0  0  0
   10.0120    8.4400   22.6920 C   0  0  0  0  0  0  0  0  0  0  0  0
   12.6440    7.8370   22.0600 C   0  0  0  0  0  0  0  0  0  0  0  0
   12.2900   11.3720   19.6500 C   0  0  0  0  0  0  0  0  0  0  0  0
   17.1480   10.2600   10.7220 C   0  0  0  0  0  0  0  0  0  0  0  0
   17.8420   10.9230   13.3250 C   0  0  0  0  0  0  0  0  0  0  0  0
   11.6140    7.0220   21.6650 C   0  0  0  0  0  0  0  0  0  0  0  0
   11.0340    9.2830   23.0960 C   0  0  0  0  0  0  0  0  0  0  0  0
   12.3530    8.9710   22.7770 C   0  0  0  0  0  0  0  0  0  0  0  0
   16.6810   10.7610   16.5340 C   0  0  0  0  0  0  0  0  0  0  0  0
   14.2940   12.6360   18.8210 C   0  0  0  0  0  0  0  0  0  0  0  0
   14.3920   10.1350   19.0760 C   0  0  0  0  0  0  0  0  0  0  0  0
   15.5580   12.4040   18.0020 C   0  0  0  0  0  0  0  0  0  0  0  0
   14.5960   10.1650   17.5750 C   0  0  0  0  0  0  0  0  0  0  0  0
   13.8060   11.4330   19.6300 C   0  0  0  0  0  0  0  0  0  0  0  0
   16.7720    9.9070    9.3250 C   0  0  0  0  0  0  0  0  0  0  0  0
   11.9640    5.8200   20.9070 C   0  0  0  0  0  0  0  0  0  0  0  0
    9.4820   10.9470   23.3600 C   0  0  0  0  0  0  0  0  0  0  0  0
   18.2400   11.2860   14.7110 C   0  0  0  0  0  0  0  0  0  0  0  0
   14.2560   11.6100   21.0730 C   0  0  0  0  0  0  0  0  0  0  0  0
   15.5540   11.1860   17.2170 N   0  0  0  0  0  0  0  0  0  0  0  0
   17.1310   11.6240   15.5750 N   0  0  0  0  0  0  0  0  0  0  0  0
   14.4820   10.2880   21.6940 N   0  0  0  0  0  0  0  0  0  0  0  0
   17.2170    9.6830   16.7380 O   0  0  0  0  0  0  0  0  0  0  0  0
   13.3750   11.0800   23.9500 O   0  0  0  0  0  0  0  0  0  0  0  0
   14.6920    8.9500   23.8500 O   0  0  0  0  0  0  0  0  0  0  0  0
   10.7150   10.4140   23.8390 O   0  0  0  0  0  0  0  0  0  0  0  0
   13.8050    9.9080   23.2250 S   0  0  0  0  0  0  0  0  0  0  0  0
    8.3969   11.2203   19.7165 H   0  0  0  0  0  0  0  0  0  0  0  0
    9.5793   13.2711   20.4653 H   0  0  0  0  0  0  0  0  0  0  0  0
    9.7122    9.2659   18.9342 H   0  0  0  0  0  0  0  0  0  0  0  0
   12.0436   13.3567   20.4353 H   0  0  0  0  0  0  0  0  0  0  0  0
   12.1740    9.3611   18.9010 H   0  0  0  0  0  0  0  0  0  0  0  0
   19.2620   10.1607   10.3429 H   0  0  0  0  0  0  0  0  0  0  0  0
   15.1046   10.3954   11.3865 H   0  0  0  0  0  0  0  0  0  0  0  0
   19.8866   10.7621   12.6655 H   0  0  0  0  0  0  0  0  0  0  0  0
   15.7263   10.9902   13.7101 H   0  0  0  0  0  0  0  0  0  0  0  0
    9.4947    6.6336   21.6387 H   0  0  0  0  0  0  0  0  0  0  0  0
    8.9692    8.6776   22.9490 H   0  0  0  0  0  0  0  0  0  0  0  0
   13.6847    7.5865   21.8068 H   0  0  0  0  0  0  0  0  0  0  0  0
   14.4910   13.4596   19.5230 H   0  0  0  0  0  0  0  0  0  0  0  0
   13.4980   12.8553   18.0941 H   0  0  0  0  0  0  0  0  0  0  0  0
   13.7062    9.3100   19.3192 H   0  0  0  0  0  0  0  0  0  0  0  0
   15.3812    9.9998   19.5377 H   0  0  0  0  0  0  0  0  0  0  0  0
   15.6825   13.2542   17.3152 H   0  0  0  0  0  0  0  0  0  0  0  0
   16.3829   12.3069   18.7232 H   0  0  0  0  0  0  0  0  0  0  0  0
   14.9681    9.1855   17.2402 H   0  0  0  0  0  0  0  0  0  0  0  0
   13.6355   10.3909   17.0889 H   0  0  0  0  0  0  0  0  0  0  0  0
   15.9701    9.1542    9.3402 H   0  0  0  0  0  0  0  0  0  0  0  0
   16.4193   10.8078    8.8014 H   0  0  0  0  0  0  0  0  0  0  0  0
   17.6488    9.4982    8.8014 H   0  0  0  0  0  0  0  0  0  0  0  0
   12.2019    5.0031   21.6042 H   0  0  0  0  0  0  0  0  0  0  0  0
   11.1143    5.5256   20.2735 H   0  0  0  0  0  0  0  0  0  0  0  0
   12.8389    6.0278   20.2735 H   0  0  0  0  0  0  0  0  0  0  0  0
    8.8453   11.2223   24.2137 H   0  0  0  0  0  0  0  0  0  0  0  0
    9.6812   11.8393   22.7484 H   0  0  0  0  0  0  0  0  0  0  0  0
    8.9685   10.1905   22.7484 H   0  0  0  0  0  0  0  0  0  0  0  0
   18.7734   10.4311   15.1522 H   0  0  0  0  0  0  0  0  0  0  0  0
   18.8681   12.1858   14.6349 H   0  0  0  0  0  0  0  0  0  0  0  0
   15.1914   12.1884   21.0952 H   0  0  0  0  0  0  0  0  0  0  0  0
   13.4752   12.1452   21.6333 H   0  0  0  0  0  0  0  0  0  0  0  0
   16.6688   12.5379   15.4648 H   0  0  0  0  0  0  0  0  0  0  0  0
   14.1214    9.5868   21.0313 H   0  0  0  0  0  0  0  0  0  0  0  0
  1  2  2  0
  1  3  1  0
  2  4  1  0
  3  5  2  0
  4 13  2  0
  5 13  1  0
  6  8  2  0
  6 14  1  0
  7  9  1  0
  7 14  2  0
  8 15  1  0
  9 15  2  0
 10 11  2  0
 10 16  1  0
 11 17  1  0
 12 16  2  0
 12 18  1  0
 13 24  1  0
 14 25  1  0
 15 28  1  0
 16 26  1  0
 17 18  2  0
 17 36  1  0
 18 37  1  0
 19 30  1  0
 19 31  1  0
 19 33  2  0
 20 22  1  0
 20 24  1  0
 21 23  1  0
 21 24  1  0
 22 30  1  0
 23 30  1  0
 24 29  1  0
 27 36  1  0
 28 31  1  0
 29 32  1  0
 32 37  1  0
 34 37  2  0
 35 37  2  0
  1 38  1  0
  2 39  1  0
  3 40  1  0
  4 41  1  0
  5 42  1  0
  6 43  1  0
  7 44  1  0
  8 45  1  0
  9 46  1  0
 10 47  1  0
 11 48  1  0
 12 49  1  0
 20 50  1  0
 20 51  1  0
 21 52  1  0
 21 53  1  0
 22 54  1  0
 22 55  1  0
 23 56  1  0
 23 57  1  0
 25 58  1  0
 25 59  1  0
 25 60  1  0
 26 61  1  0
 26 62  1  0
 26 63  1  0
 27 64  1  0
 27 65  1  0
 27 66  1  0
 28 67  1  0
 28 68  1  0
 29 69  1  0
 29 70  1  0
 31 71  1  0
 32 72  1  0
A    1
C35
A    2
C34
A    3
C36
A    4
C33
A    5
C37
A    6
C3
A    7
C7
A    8
C4
A    9
C6
A   10
C26
A   11
C27
A   12
C24
A   13
C32
A   14
C2
A   15
C5
A   16
C25
A   17
C28
A   18
C23
A   19
C10
A   20
C14
A   21
C16
A   22
C13
A   23
C17
A   24
C15
A   25
C1
A   26
C31
A   27
C30
A   28
C8
A   29
C18
A   30
N12
A   31
N9
A   32
N19
A   33
O11
A   34
O21
A   35
O22
A   36
O29
A   37
S20
M  END
