5ALI_Q3B_A_1553
     RDKit          3D

 65 70  0  0  0  0  0  0  0  0999 V2000
   20.5580   -7.3760  -11.9490 C   0  0  0  0  0  0  0  0  0  0  0  0
   20.6100   -8.8000  -11.9500 O   0  0  0  0  0  0  0  0  0  0  0  0
   19.5780   -9.3130  -12.7240 C   0  0  0  0  0  0  0  0  0  0  0  0
   19.6020  -10.6750  -12.9460 C   0  0  0  0  0  0  0  0  0  0  0  0
   18.6010  -11.2560  -13.6970 C   0  0  0  0  0  0  0  0  0  0  0  0
   17.5890  -10.4840  -14.2280 C   0  0  0  0  0  0  0  0  0  0  0  0
   17.5570   -9.1230  -13.9860 C   0  0  0  0  0  0  0  0  0  0  0  0
   18.5560   -8.5330  -13.2390 C   0  0  0  0  0  0  0  0  0  0  0  0
   16.5850  -11.1330  -14.9820 N   0  0  0  0  0  0  0  0  0  0  0  0
   16.1020  -10.7120  -16.2070 C   0  0  0  0  0  0  0  0  0  0  0  0
   16.4280   -9.6760  -16.7660 O   0  0  0  0  0  0  0  0  0  0  0  0
   15.1900  -11.6200  -16.7100 N   0  0  0  0  0  0  0  0  0  0  0  0
   14.6380  -11.6100  -18.0070 C   0  0  0  0  0  0  0  0  0  0  0  0
   14.9300  -12.6390  -18.8810 C   0  0  0  0  0  0  0  0  0  0  0  0
   14.3660  -12.6570  -20.1420 C   0  0  0  0  0  0  0  0  0  0  0  0
   13.5040  -11.6520  -20.5380 C   0  0  0  0  0  0  0  0  0  0  0  0
   13.1810  -10.6290  -19.6650 C   0  0  0  0  0  0  0  0  0  0  0  0
   13.7570  -10.6210  -18.4040 C   0  0  0  0  0  0  0  0  0  0  0  0
   12.2710   -9.5510  -20.0170 C   0  0  0  0  0  0  0  0  0  0  0  0
   11.3360   -9.4480  -21.0420 C   0  0  0  0  0  0  0  0  0  0  0  0
   10.8160   -8.1830  -20.8930 N   0  0  0  0  0  0  0  0  0  0  0  0
   11.4490   -7.5810  -19.8490 C   0  0  0  0  0  0  0  0  0  0  0  0
   12.3200   -8.3870  -19.2950 N   0  0  0  0  0  0  0  0  0  0  0  0
    9.8880   -7.4190  -21.7250 C   0  0  0  0  0  0  0  0  0  0  0  0
    8.4780   -7.9370  -21.9040 C   0  0  0  0  0  0  0  0  0  0  0  0
    7.9110   -7.3850  -23.1890 C   0  0  0  0  0  0  0  0  0  0  0  0
    6.6100   -6.7350  -22.8110 C   0  0  0  0  0  0  0  0  0  0  0  0
    6.3930   -7.1030  -21.3660 C   0  0  0  0  0  0  0  0  0  0  0  0
    7.6500   -7.5080  -20.8300 O   0  0  0  0  0  0  0  0  0  0  0  0
   10.8560  -10.3390  -22.0460 C   0  0  0  0  0  0  0  0  0  0  0  0
   11.4580  -10.5230  -23.2030 N   0  0  0  0  0  0  0  0  0  0  0  0
   10.7210  -11.3670  -23.9990 C   0  0  0  0  0  0  0  0  0  0  0  0
   10.9940  -11.8070  -25.2890 C   0  0  0  0  0  0  0  0  0  0  0  0
   10.1070  -12.6150  -25.8860 N   0  0  0  0  0  0  0  0  0  0  0  0
    8.9980  -12.9480  -25.2170 C   0  0  0  0  0  0  0  0  0  0  0  0
    8.6240  -12.5950  -23.9830 N   0  0  0  0  0  0  0  0  0  0  0  0
    9.5330  -11.7900  -23.4290 C   0  0  0  0  0  0  0  0  0  0  0  0
    9.3620  -11.1650  -21.8420 S   0  0  0  0  0  0  0  0  0  0  0  0
   12.1670  -11.4540  -25.9620 N   0  0  0  0  0  0  0  0  0  0  0  0
   20.5446   -7.0103  -10.9117 H   0  0  0  0  0  0  0  0  0  0  0  0
   21.4422   -6.9764  -12.4673 H   0  0  0  0  0  0  0  0  0  0  0  0
   19.6471   -7.0420  -12.4673 H   0  0  0  0  0  0  0  0  0  0  0  0
   20.4115  -11.2915  -12.5281 H   0  0  0  0  0  0  0  0  0  0  0  0
   18.6101  -12.3417  -13.8733 H   0  0  0  0  0  0  0  0  0  0  0  0
   16.7361   -8.5113  -14.3885 H   0  0  0  0  0  0  0  0  0  0  0  0
   18.5407   -7.4489  -13.0535 H   0  0  0  0  0  0  0  0  0  0  0  0
   16.1788  -11.9923  -14.5852 H   0  0  0  0  0  0  0  0  0  0  0  0
   14.8851  -12.3744  -16.0785 H   0  0  0  0  0  0  0  0  0  0  0  0
   15.6123  -13.4449  -18.5727 H   0  0  0  0  0  0  0  0  0  0  0  0
   14.6046  -13.4768  -20.8355 H   0  0  0  0  0  0  0  0  0  0  0  0
   13.0736  -11.6657  -21.5502 H   0  0  0  0  0  0  0  0  0  0  0  0
   13.5077   -9.8100  -17.7039 H   0  0  0  0  0  0  0  0  0  0  0  0
   11.2543   -6.5514  -19.5142 H   0  0  0  0  0  0  0  0  0  0  0  0
    9.8103   -6.4141  -21.2845 H   0  0  0  0  0  0  0  0  0  0  0  0
   10.3238   -7.4765  -22.7334 H   0  0  0  0  0  0  0  0  0  0  0  0
    8.5061   -9.0364  -21.9279 H   0  0  0  0  0  0  0  0  0  0  0  0
    8.5978   -6.6444  -23.6247 H   0  0  0  0  0  0  0  0  0  0  0  0
    7.7679   -8.1737  -23.9424 H   0  0  0  0  0  0  0  0  0  0  0  0
    6.6761   -5.6430  -22.9257 H   0  0  0  0  0  0  0  0  0  0  0  0
    5.7804   -7.0702  -23.4509 H   0  0  0  0  0  0  0  0  0  0  0  0
    6.0114   -6.2334  -20.8109 H   0  0  0  0  0  0  0  0  0  0  0  0
    5.6573   -7.9163  -21.2812 H   0  0  0  0  0  0  0  0  0  0  0  0
    8.2972  -13.6023  -25.7562 H   0  0  0  0  0  0  0  0  0  0  0  0
   13.0105  -11.2002  -25.4282 H   0  0  0  0  0  0  0  0  0  0  0  0
   12.1879  -11.4477  -26.9918 H   0  0  0  0  0  0  0  0  0  0  0  0
  1  2  1  0
  2  3  1  0
  3  4  2  0
  3  8  1  0
  4  5  1  0
  5  6  2  0
  6  7  1  0
  6  9  1  0
  7  8  2  0
  9 10  1  0
 10 11  2  0
 10 12  1  0
 12 13  1  0
 13 14  2  0
 13 18  1  0
 14 15  1  0
 15 16  2  0
 16 17  1  0
 17 18  2  0
 17 19  1  0
 19 20  2  0
 19 23  1  0
 20 21  1  0
 20 30  1  0
 21 22  1  0
 21 24  1  0
 22 23  2  0
 24 25  1  0
 25 26  1  0
 25 29  1  0
 26 27  1  0
 27 28  1  0
 28 29  1  0
 30 31  2  0
 30 38  1  0
 31 32  1  0
 32 33  2  0
 32 37  1  0
 33 34  1  0
 33 39  1  0
 34 35  2  0
 35 36  1  0
 36 37  2  0
 37 38  1  0
  1 40  1  0
  1 41  1  0
  1 42  1  0
  4 43  1  0
  5 44  1  0
  7 45  1  0
  8 46  1  0
  9 47  1  0
 12 48  1  0
 14 49  1  0
 15 50  1  0
 16 51  1  0
 18 52  1  0
 22 53  1  0
 24 54  1  0
 24 55  1  0
 25 56  1  0
 26 57  1  0
 26 58  1  0
 27 59  1  0
 27 60  1  0
 28 61  1  0
 28 62  1  0
 35 63  1  0
 39 64  1  0
 39 65  1  0
A    1
C1
A    2
O2
A    3
C3
A    4
C4
A    5
C5
A    6
C6
A    7
C7
A    8
C8
A    9
N9
A   10
C10
A   11
O11
A   12
N12
A   13
C13
A   14
C14
A   15
C15
A   16
C16
A   17
C17
A   18
C18
A   19
C19
A   20
C20
A   21
N21
A   22
C22
A   23
N23
A   24
C24
A   25
C25
A   26
C26
A   27
C27
A   28
C28
A   29
O29
A   30
C30
A   31
N31
A   32
C32
A   33
C33
A   34
N34
A   35
C35
A   36
N36
A   37
C37
A   38
S38
A   39
N39
M  END
