5ALJ_T5J_A_1552
     RDKit          3D

 36 38  0  0  0  0  0  0  0  0999 V2000
   19.4420   -7.9850  -13.2090 C   0  0  0  0  0  0  0  0  0  0  0  0
   18.5530   -8.8590  -14.0300 C   0  0  0  0  0  0  0  0  0  0  0  0
   17.5980   -8.2830  -14.8450 C   0  0  0  0  0  0  0  0  0  0  0  0
   16.7700   -9.0880  -15.6030 C   0  0  0  0  0  0  0  0  0  0  0  0
   16.8820  -10.4710  -15.5750 C   0  0  0  0  0  0  0  0  0  0  0  0
   17.8320  -11.0440  -14.7520 C   0  0  0  0  0  0  0  0  0  0  0  0
   18.6620  -10.2400  -13.9920 C   0  0  0  0  0  0  0  0  0  0  0  0
   19.5770  -10.8350  -13.2000 F   0  0  0  0  0  0  0  0  0  0  0  0
   16.0490  -11.3240  -16.3170 N   0  0  0  0  0  0  0  0  0  0  0  0
   15.4560  -11.0460  -17.5620 C   0  0  0  0  0  0  0  0  0  0  0  0
   14.9340  -12.1090  -18.2740 C   0  0  0  0  0  0  0  0  0  0  0  0
   14.3360  -11.8940  -19.4990 C   0  0  0  0  0  0  0  0  0  0  0  0
   14.2710  -10.5880  -19.9970 C   0  0  0  0  0  0  0  0  0  0  0  0
   14.8170   -9.5690  -19.2170 C   0  0  0  0  0  0  0  0  0  0  0  0
   15.3770   -9.7910  -18.0210 N   0  0  0  0  0  0  0  0  0  0  0  0
   14.7930   -8.2670  -19.6870 C   0  0  0  0  0  0  0  0  0  0  0  0
   14.2380   -7.9260  -20.8990 C   0  0  0  0  0  0  0  0  0  0  0  0
   13.6740   -8.9190  -21.6670 C   0  0  0  0  0  0  0  0  0  0  0  0
   13.7020  -10.2220  -21.2100 C   0  0  0  0  0  0  0  0  0  0  0  0
   13.1380  -11.1520  -22.0420 O   0  0  0  0  0  0  0  0  0  0  0  0
   13.7930  -13.1190  -20.1670 C   0  0  0  0  0  0  0  0  0  0  0  0
   19.2536   -8.1702  -12.1412 H   0  0  0  0  0  0  0  0  0  0  0  0
   20.4934   -8.2108  -13.4404 H   0  0  0  0  0  0  0  0  0  0  0  0
   19.2341   -6.9299  -13.4404 H   0  0  0  0  0  0  0  0  0  0  0  0
   17.4973   -7.1885  -14.8902 H   0  0  0  0  0  0  0  0  0  0  0  0
   16.0054   -8.6228  -16.2426 H   0  0  0  0  0  0  0  0  0  0  0  0
   17.9283  -12.1386  -14.7011 H   0  0  0  0  0  0  0  0  0  0  0  0
   15.8519  -12.2483  -15.9075 H   0  0  0  0  0  0  0  0  0  0  0  0
   14.9952  -13.1278  -17.8639 H   0  0  0  0  0  0  0  0  0  0  0  0
   15.2353   -7.4735  -19.0668 H   0  0  0  0  0  0  0  0  0  0  0  0
   14.2450   -6.8824  -21.2465 H   0  0  0  0  0  0  0  0  0  0  0  0
   13.2066   -8.6778  -22.6331 H   0  0  0  0  0  0  0  0  0  0  0  0
   12.6640  -11.9336  -21.6618 H   0  0  0  0  0  0  0  0  0  0  0  0
   13.4725  -13.8420  -19.4024 H   0  0  0  0  0  0  0  0  0  0  0  0
   12.9327  -12.8435  -20.7947 H   0  0  0  0  0  0  0  0  0  0  0  0
   14.5749  -13.5715  -20.7947 H   0  0  0  0  0  0  0  0  0  0  0  0
  1  2  1  0
  2  3  2  0
  2  7  1  0
  3  4  1  0
  4  5  2  0
  5  6  1  0
  5  9  1  0
  6  7  2  0
  7  8  1  0
  9 10  1  0
 10 11  2  0
 10 15  1  0
 11 12  1  0
 12 13  2  0
 12 21  1  0
 13 14  1  0
 13 19  1  0
 14 15  2  0
 14 16  1  0
 16 17  2  0
 17 18  1  0
 18 19  2  0
 19 20  1  0
  1 22  1  0
  1 23  1  0
  1 24  1  0
  3 25  1  0
  4 26  1  0
  6 27  1  0
  9 28  1  0
 11 29  1  0
 16 30  1  0
 17 31  1  0
 18 32  1  0
 20 33  1  0
 21 34  1  0
 21 35  1  0
 21 36  1  0
A    1
C1
A    2
C2
A    3
C3
A    4
C4
A    5
C5
A    6
C6
A    7
C7
A    8
F8
A    9
N9
A   10
C10
A   11
C11
A   12
C12
A   13
C13
A   14
C14
A   15
N15
A   16
C16
A   17
C17
A   18
C18
A   19
C19
A   20
O20
A   21
C21
M  END
