5ALM_7GM_A_1551
     RDKit          3D

 42 44  0  0  0  0  0  0  0  0999 V2000
   13.0120   10.0570   19.5840 C   0  0  0  0  0  0  0  0  0  0  0  0
   14.3350   10.9620   21.3580 C   0  0  0  0  0  0  0  0  0  0  0  0
   11.9190    9.9910   20.4180 C   0  0  0  0  0  0  0  0  0  0  0  0
   13.2390   10.8950   22.1950 C   0  0  0  0  0  0  0  0  0  0  0  0
   14.2170   10.5620   20.0430 C   0  0  0  0  0  0  0  0  0  0  0  0
   12.0320   10.4120   21.7250 C   0  0  0  0  0  0  0  0  0  0  0  0
   18.9030   10.9850   13.1130 C   0  0  0  0  0  0  0  0  0  0  0  0
   17.4660   10.7140   12.8010 C   0  0  0  0  0  0  0  0  0  0  0  0
   14.4620   10.7880   16.9320 C   0  0  0  0  0  0  0  0  0  0  0  0
   15.3820   10.6340   15.7550 C   0  0  0  0  0  0  0  0  0  0  0  0
   16.6690   11.4930   17.4580 C   0  0  0  0  0  0  0  0  0  0  0  0
   18.0110   10.3920   14.1640 C   0  0  0  0  0  0  0  0  0  0  0  0
   15.2680   11.4480   18.0330 C   0  0  0  0  0  0  0  0  0  0  0  0
   14.7610   12.8560   18.3050 C   0  0  0  0  0  0  0  0  0  0  0  0
   10.9890    8.6900   23.4810 C   0  0  0  0  0  0  0  0  0  0  0  0
   17.6170   11.2590   15.3150 C   0  0  0  0  0  0  0  0  0  0  0  0
   16.7370   10.6120   16.2890 N   0  0  0  0  0  0  0  0  0  0  0  0
   15.3570   10.6380   19.2310 O   0  0  0  0  0  0  0  0  0  0  0  0
   10.6130   10.3100   22.7740 S   0  0  0  0  0  0  0  0  0  0  0  0
   12.9277    9.7059   18.5449 H   0  0  0  0  0  0  0  0  0  0  0  0
   15.2983   11.3328   21.7381 H   0  0  0  0  0  0  0  0  0  0  0  0
   10.9601    9.6041   20.0429 H   0  0  0  0  0  0  0  0  0  0  0  0
   13.3266   11.2273   23.2400 H   0  0  0  0  0  0  0  0  0  0  0  0
   19.6906   10.3717   12.6510 H   0  0  0  0  0  0  0  0  0  0  0  0
   19.5566   11.8680   13.0572 H   0  0  0  0  0  0  0  0  0  0  0  0
   16.7638   11.5510   12.6733 H   0  0  0  0  0  0  0  0  0  0  0  0
   16.9328   10.1476   12.0233 H   0  0  0  0  0  0  0  0  0  0  0  0
   13.6027   11.4191   16.6612 H   0  0  0  0  0  0  0  0  0  0  0  0
   14.0714    9.8129   17.2585 H   0  0  0  0  0  0  0  0  0  0  0  0
   15.1671    9.6943   15.2252 H   0  0  0  0  0  0  0  0  0  0  0  0
   15.2507   11.4572   15.0373 H   0  0  0  0  0  0  0  0  0  0  0  0
   16.9106   12.5231   17.1572 H   0  0  0  0  0  0  0  0  0  0  0  0
   17.3915   11.1578   18.2167 H   0  0  0  0  0  0  0  0  0  0  0  0
   18.0352    9.4925   14.7967 H   0  0  0  0  0  0  0  0  0  0  0  0
   14.7016   13.0209   19.3909 H   0  0  0  0  0  0  0  0  0  0  0  0
   15.4524   13.5870   17.8604 H   0  0  0  0  0  0  0  0  0  0  0  0
   13.7623   12.9784   17.8604 H   0  0  0  0  0  0  0  0  0  0  0  0
   10.9736    8.7565   24.5789 H   0  0  0  0  0  0  0  0  0  0  0  0
   10.2363    7.9606   23.1472 H   0  0  0  0  0  0  0  0  0  0  0  0
   11.9860    8.3667   23.1472 H   0  0  0  0  0  0  0  0  0  0  0  0
   18.5327   11.5752   15.8362 H   0  0  0  0  0  0  0  0  0  0  0  0
   17.0499   12.1014   14.8923 H   0  0  0  0  0  0  0  0  0  0  0  0
  1  3  2  0
  1  5  1  0
  2  4  1  0
  2  5  2  0
  3  6  1  0
  4  6  2  0
  5 18  1  0
  6 19  1  0
  7  8  1  0
  7 12  1  0
  8 12  1  0
  9 10  1  0
  9 13  1  0
 10 17  1  0
 11 13  1  0
 11 17  1  0
 12 16  1  0
 13 14  1  0
 13 18  1  0
 15 19  1  0
 16 17  1  0
  1 20  1  0
  2 21  1  0
  3 22  1  0
  4 23  1  0
  7 24  1  0
  7 25  1  0
  8 26  1  0
  8 27  1  0
  9 28  1  0
  9 29  1  0
 10 30  1  0
 10 31  1  0
 11 32  1  0
 11 33  1  0
 12 34  1  0
 14 35  1  0
 14 36  1  0
 14 37  1  0
 15 38  1  0
 15 39  1  0
 15 40  1  0
 16 41  1  0
 16 42  1  0
A    1
C13
A    2
C17
A    3
C14
A    4
C16
A    5
C12
A    6
C15
A    7
C9
A    8
C10
A    9
C3
A   10
C4
A   11
C6
A   12
C8
A   13
C2
A   14
C1
A   15
C19
A   16
C7
A   17
N5
A   18
O11
A   19
S18
M  END
