5ALQ_GZP_A_1550
     RDKit          3D

 33 35  0  0  0  0  0  0  0  0999 V2000
   13.6280   13.2490   19.5670 C   0  0  0  0  0  0  0  0  0  0  0  0
   14.5240   12.3140   20.0440 C   0  0  0  0  0  0  0  0  0  0  0  0
   13.5650   13.5180   18.2150 C   0  0  0  0  0  0  0  0  0  0  0  0
   15.3540   11.6500   19.1650 C   0  0  0  0  0  0  0  0  0  0  0  0
   14.3970   12.8550   17.3370 C   0  0  0  0  0  0  0  0  0  0  0  0
   16.7760   11.6690   15.7120 C   0  0  0  0  0  0  0  0  0  0  0  0
   15.2910   11.9150   17.8090 C   0  0  0  0  0  0  0  0  0  0  0  0
   16.1790   11.2170   16.9160 C   0  0  0  0  0  0  0  0  0  0  0  0
   17.5950   10.6660   15.2640 C   0  0  0  0  0  0  0  0  0  0  0  0
   18.9540   10.1970   11.7920 C   0  0  0  0  0  0  0  0  0  0  0  0
   19.6710    9.1050   12.5520 C   0  0  0  0  0  0  0  0  0  0  0  0
   17.9510   10.8150   12.7420 C   0  0  0  0  0  0  0  0  0  0  0  0
   19.2780    9.2510   14.0020 C   0  0  0  0  0  0  0  0  0  0  0  0
   18.5190   10.5550   14.1110 C   0  0  0  0  0  0  0  0  0  0  0  0
   16.6150    9.9950   17.2160 N   0  0  0  0  0  0  0  0  0  0  0  0
   17.4540    9.6990   16.2130 N   0  0  0  0  0  0  0  0  0  0  0  0
   19.4510   11.5850   14.3730 O   0  0  0  0  0  0  0  0  0  0  0  0
   12.9638   13.7800   20.2648 H   0  0  0  0  0  0  0  0  0  0  0  0
   14.5761   12.0990   21.1215 H   0  0  0  0  0  0  0  0  0  0  0  0
   12.8496   14.2629   17.8365 H   0  0  0  0  0  0  0  0  0  0  0  0
   16.0697   10.9058   19.5444 H   0  0  0  0  0  0  0  0  0  0  0  0
   14.3481   13.0754   16.2604 H   0  0  0  0  0  0  0  0  0  0  0  0
   16.6122   12.6431   15.2279 H   0  0  0  0  0  0  0  0  0  0  0  0
   19.6737   10.9579   11.4557 H   0  0  0  0  0  0  0  0  0  0  0  0
   18.4514    9.7898   10.9023 H   0  0  0  0  0  0  0  0  0  0  0  0
   19.3655    8.1180   12.1746 H   0  0  0  0  0  0  0  0  0  0  0  0
   20.7608    9.1890   12.4285 H   0  0  0  0  0  0  0  0  0  0  0  0
   17.8567   11.8956   12.5590 H   0  0  0  0  0  0  0  0  0  0  0  0
   16.9432   10.3914   12.6199 H   0  0  0  0  0  0  0  0  0  0  0  0
   18.6371    8.4112   14.3086 H   0  0  0  0  0  0  0  0  0  0  0  0
   20.1622    9.2490   14.6564 H   0  0  0  0  0  0  0  0  0  0  0  0
   16.3659    9.4132   18.0286 H   0  0  0  0  0  0  0  0  0  0  0  0
   19.5525   11.6972   15.3514 H   0  0  0  0  0  0  0  0  0  0  0  0
  1  2  2  0
  1  3  1  0
  2  4  1  0
  3  5  2  0
  4  7  2  0
  5  7  1  0
  6  8  2  0
  6  9  1  0
  7  8  1  0
  8 15  1  0
  9 14  1  0
  9 16  2  0
 10 11  1  0
 10 12  1  0
 11 13  1  0
 12 14  1  0
 13 14  1  0
 14 17  1  0
 15 16  1  0
  1 18  1  0
  2 19  1  0
  3 20  1  0
  4 21  1  0
  5 22  1  0
  6 23  1  0
 10 24  1  0
 10 25  1  0
 11 26  1  0
 11 27  1  0
 12 28  1  0
 12 29  1  0
 13 30  1  0
 13 31  1  0
 15 32  1  0
 17 33  1  0
A    1
C1
A    2
C2
A    3
C6
A    4
C3
A    5
C5
A    6
C8
A    7
C4
A    8
C7
A    9
C9
A   10
C14
A   11
C15
A   12
C13
A   13
C16
A   14
C12
A   15
N11
A   16
N10
A   17
O17
M  END
