5ALS_5DQ_A_1551
     RDKit          3D

 45 48  0  0  0  0  0  0  0  0999 V2000
   17.5990    9.4380   14.8840 C   0  0  0  0  0  0  0  0  0  0  0  0
   18.1770   11.8090   14.6940 C   0  0  0  0  0  0  0  0  0  0  0  0
   18.4400    9.0010   13.9030 C   0  0  0  0  0  0  0  0  0  0  0  0
   19.0820   11.5220   13.6570 C   0  0  0  0  0  0  0  0  0  0  0  0
   14.1300   11.9280   20.2900 C   0  0  0  0  0  0  0  0  0  0  0  0
   14.1410   13.2310   19.6320 C   0  0  0  0  0  0  0  0  0  0  0  0
   17.3820   10.8060   15.3470 C   0  0  0  0  0  0  0  0  0  0  0  0
   19.2180   10.0880   13.2520 C   0  0  0  0  0  0  0  0  0  0  0  0
   15.5290   11.1120   18.2490 C   0  0  0  0  0  0  0  0  0  0  0  0
   14.8480   10.7780   19.5850 C   0  0  0  0  0  0  0  0  0  0  0  0
   15.3950   12.4330   17.8350 C   0  0  0  0  0  0  0  0  0  0  0  0
   16.5700   11.1930   16.4040 C   0  0  0  0  0  0  0  0  0  0  0  0
   10.3070    8.5510   19.0380 C   0  0  0  0  0  0  0  0  0  0  0  0
   10.5550    8.5360   17.5510 C   0  0  0  0  0  0  0  0  0  0  0  0
   11.3270    9.3480   19.7850 C   0  0  0  0  0  0  0  0  0  0  0  0
   11.9540    8.7150   17.4370 C   0  0  0  0  0  0  0  0  0  0  0  0
   12.4330    9.2680   18.7840 C   0  0  0  0  0  0  0  0  0  0  0  0
   20.1720    9.7870   12.1620 C   0  0  0  0  0  0  0  0  0  0  0  0
   14.7310   13.5230   18.4330 N   0  0  0  0  0  0  0  0  0  0  0  0
   16.2830   10.4430   17.2780 N   0  0  0  0  0  0  0  0  0  0  0  0
   16.0620   12.3240   16.7350 N   0  0  0  0  0  0  0  0  0  0  0  0
   13.6400    8.5190   19.3590 N   0  0  0  0  0  0  0  0  0  0  0  0
   16.0720    8.4480   20.1820 O   0  0  0  0  0  0  0  0  0  0  0  0
   14.1760    9.1870   21.6080 O   0  0  0  0  0  0  0  0  0  0  0  0
   19.7780    9.6250   10.8930 F   0  0  0  0  0  0  0  0  0  0  0  0
   21.2900   10.4970   12.3110 F   0  0  0  0  0  0  0  0  0  0  0  0
   20.6210    8.6210   12.3210 F   0  0  0  0  0  0  0  0  0  0  0  0
   14.8450    9.1120   20.3820 S   0  0  0  0  0  0  0  0  0  0  0  0
   17.0088    8.6606   15.3912 H   0  0  0  0  0  0  0  0  0  0  0  0
   18.0723   12.8538   15.0218 H   0  0  0  0  0  0  0  0  0  0  0  0
   18.5339    7.9423   13.6197 H   0  0  0  0  0  0  0  0  0  0  0  0
   19.6638   12.3158   13.1656 H   0  0  0  0  0  0  0  0  0  0  0  0
   13.6246   11.7797   21.2557 H   0  0  0  0  0  0  0  0  0  0  0  0
   13.6269   14.0549   20.1486 H   0  0  0  0  0  0  0  0  0  0  0  0
    9.3143    8.9865   19.2248 H   0  0  0  0  0  0  0  0  0  0  0  0
   10.3696    7.5127   19.3957 H   0  0  0  0  0  0  0  0  0  0  0  0
   10.2464    7.5755   17.1125 H   0  0  0  0  0  0  0  0  0  0  0  0
    9.9836    9.3103   17.0180 H   0  0  0  0  0  0  0  0  0  0  0  0
   10.9990   10.3832   19.9607 H   0  0  0  0  0  0  0  0  0  0  0  0
   11.5679    8.9928   20.7978 H   0  0  0  0  0  0  0  0  0  0  0  0
   12.4442    7.7533   17.2250 H   0  0  0  0  0  0  0  0  0  0  0  0
   12.2015    9.4019   16.6142 H   0  0  0  0  0  0  0  0  0  0  0  0
   12.7741   10.2916   18.5698 H   0  0  0  0  0  0  0  0  0  0  0  0
   16.5490    9.4487   17.3162 H   0  0  0  0  0  0  0  0  0  0  0  0
   13.2325    7.7236   19.8711 H   0  0  0  0  0  0  0  0  0  0  0  0
  1  3  2  0
  1  7  1  0
  2  4  1  0
  2  7  2  0
  3  8  1  0
  4  8  2  0
  5  6  2  0
  5 10  1  0
  6 19  1  0
  7 12  1  0
  8 18  1  0
  9 10  2  0
  9 11  1  0
  9 20  1  0
 10 28  1  0
 11 19  2  0
 11 21  1  0
 12 20  1  0
 12 21  2  0
 13 14  1  0
 13 15  1  0
 14 16  1  0
 15 17  1  0
 16 17  1  0
 17 22  1  0
 18 25  1  0
 18 26  1  0
 18 27  1  0
 22 28  1  0
 23 28  2  0
 24 28  2  0
  1 29  1  0
  2 30  1  0
  3 31  1  0
  4 32  1  0
  5 33  1  0
  6 34  1  0
 13 35  1  0
 13 36  1  0
 14 37  1  0
 14 38  1  0
 15 39  1  0
 15 40  1  0
 16 41  1  0
 16 42  1  0
 17 43  1  0
 20 44  1  0
 22 45  1  0
A    1
C1
A    2
C5
A    3
C2
A    4
C4
A    5
C13
A    6
C14
A    7
C6
A    8
C3
A    9
C10
A   10
C12
A   11
C9
A   12
C7
A   13
C22
A   14
C23
A   15
C21
A   16
C24
A   17
C20
A   18
C25
A   19
N15
A   20
N11
A   21
N8
A   22
N19
A   23
O17
A   24
O18
A   25
F26
A   26
F27
A   27
F28
A   28
S16
M  END
