5ALX_DUL_A_1550
     RDKit          3D

 30 31  0  0  0  0  0  0  0  0999 V2000
   20.0250    8.8350   13.0570 C   0  0  0  0  0  0  0  0  0  0  0  0
   20.0870   10.2410   12.6650 C   0  0  0  0  0  0  0  0  0  0  0  0
   18.5730   10.9590   13.1820 S   0  0  0  0  0  0  0  0  0  0  0  0
   17.2420   10.5020   11.9510 C   0  0  0  0  0  0  0  0  0  0  0  0
   15.7880   10.4010   12.1990 C   0  0  0  0  0  0  0  0  0  0  0  0
   14.8130   10.0430   11.1570 C   0  0  0  0  0  0  0  0  0  0  0  0
   15.2160    9.7070    9.8360 C   0  0  0  0  0  0  0  0  0  0  0  0
   16.6090    9.8460    9.5000 C   0  0  0  0  0  0  0  0  0  0  0  0
   17.5880   10.2150   10.5970 C   0  0  0  0  0  0  0  0  0  0  0  0
   17.2000    9.4630    8.2340 C   0  0  0  0  0  0  0  0  0  0  0  0
   18.4700    9.6720    8.0110 C   0  0  0  0  0  0  0  0  0  0  0  0
   18.9530    9.2330    6.9430 C   0  0  0  0  0  0  0  0  0  0  0  0
   18.1220    8.5930    6.1640 C   0  0  0  0  0  0  0  0  0  0  0  0
   16.5160    8.5250    6.9470 S   0  0  0  0  0  0  0  0  0  0  0  0
   18.7380    8.1130    4.8980 C   0  0  0  0  0  0  0  0  0  0  0  0
   19.4910    8.7660    4.2010 O   0  0  0  0  0  0  0  0  0  0  0  0
   18.4550    6.8860    4.4620 N   0  0  0  0  0  0  0  0  0  0  0  0
   20.0217    8.7601   14.1544 H   0  0  0  0  0  0  0  0  0  0  0  0
   19.1060    8.3827   12.6559 H   0  0  0  0  0  0  0  0  0  0  0  0
   20.9006    8.3036   12.6559 H   0  0  0  0  0  0  0  0  0  0  0  0
   20.9339   10.7382   13.1605 H   0  0  0  0  0  0  0  0  0  0  0  0
   20.2325   10.3490   11.5800 H   0  0  0  0  0  0  0  0  0  0  0  0
   15.4163   10.6038   13.2142 H   0  0  0  0  0  0  0  0  0  0  0  0
   13.7419   10.0351   11.4073 H   0  0  0  0  0  0  0  0  0  0  0  0
   14.4862    9.3518    9.0935 H   0  0  0  0  0  0  0  0  0  0  0  0
   18.6531   10.2657   10.3267 H   0  0  0  0  0  0  0  0  0  0  0  0
   19.0934   10.2150    8.7367 H   0  0  0  0  0  0  0  0  0  0  0  0
   20.0106    9.3770    6.6770 H   0  0  0  0  0  0  0  0  0  0  0  0
   18.2800    6.1274    5.1364 H   0  0  0  0  0  0  0  0  0  0  0  0
   18.4112    6.6962    3.4506 H   0  0  0  0  0  0  0  0  0  0  0  0
  1  2  1  0
  2  3  1  0
  3  4  1  0
  4  5  2  0
  4  9  1  0
  5  6  1  0
  6  7  2  0
  7  8  1  0
  8  9  2  0
  8 10  1  0
 10 11  2  0
 10 14  1  0
 11 12  1  0
 12 13  2  0
 13 14  1  0
 13 15  1  0
 15 16  2  0
 15 17  1  0
  1 18  1  0
  1 19  1  0
  1 20  1  0
  2 21  1  0
  2 22  1  0
  5 23  1  0
  6 24  1  0
  7 25  1  0
  9 26  1  0
 11 27  1  0
 12 28  1  0
 17 29  1  0
 17 30  1  0
A    1
C1
A    2
C2
A    3
S3
A    4
C4
A    5
C5
A    6
C6
A    7
C7
A    8
C8
A    9
C9
A   10
C10
A   11
C11
A   12
C12
A   13
C13
A   14
S14
A   15
C15
A   16
O16
A   17
N17
M  END
