5ALY_B7H_A_1555
     RDKit          3D

 34 36  0  0  0  0  0  0  0  0999 V2000
   21.9500    8.1610   12.6130 C   0  0  0  0  0  0  0  0  0  0  0  0
   16.8280    8.8800   10.3260 C   0  0  0  0  0  0  0  0  0  0  0  0
   16.1620    9.7720   12.4560 C   0  0  0  0  0  0  0  0  0  0  0  0
   20.6290    8.6910   12.5530 C   0  0  0  0  0  0  0  0  0  0  0  0
   17.1490    9.2460   11.6230 C   0  0  0  0  0  0  0  0  0  0  0  0
   15.5180    9.0530    9.8940 C   0  0  0  0  0  0  0  0  0  0  0  0
   19.5730    8.3110   11.7650 C   0  0  0  0  0  0  0  0  0  0  0  0
   14.5840    9.5820   10.7350 C   0  0  0  0  0  0  0  0  0  0  0  0
   14.8650    9.9400   12.0290 C   0  0  0  0  0  0  0  0  0  0  0  0
   18.5090    9.1770   12.1200 C   0  0  0  0  0  0  0  0  0  0  0  0
   13.4480    9.2290    8.7920 C   0  0  0  0  0  0  0  0  0  0  0  0
   14.8730    8.7450    8.5540 C   0  0  0  0  0  0  0  0  0  0  0  0
   19.5490    7.2140   10.7720 C   0  0  0  0  0  0  0  0  0  0  0  0
   14.8310    7.2270    8.3240 C   0  0  0  0  0  0  0  0  0  0  0  0
   15.5300    9.4770    7.4010 C   0  0  0  0  0  0  0  0  0  0  0  0
   23.0250    7.7410   12.6740 N   0  0  0  0  0  0  0  0  0  0  0  0
   18.9070   10.0500   13.0550 N   0  0  0  0  0  0  0  0  0  0  0  0
   20.1970    9.7480   13.3050 N   0  0  0  0  0  0  0  0  0  0  0  0
   13.3530    9.6750   10.1100 N   0  0  0  0  0  0  0  0  0  0  0  0
   12.5780    9.2300    7.9190 O   0  0  0  0  0  0  0  0  0  0  0  0
   13.8820   10.4660   12.8060 F   0  0  0  0  0  0  0  0  0  0  0  0
   17.5918    8.4622    9.6537 H   0  0  0  0  0  0  0  0  0  0  0  0
   16.4280   10.0608   13.4836 H   0  0  0  0  0  0  0  0  0  0  0  0
   19.5278    6.2465   11.2949 H   0  0  0  0  0  0  0  0  0  0  0  0
   18.6527    7.3097   10.1415 H   0  0  0  0  0  0  0  0  0  0  0  0
   20.4486    7.2704   10.1415 H   0  0  0  0  0  0  0  0  0  0  0  0
   14.8167    6.7094    9.2945 H   0  0  0  0  0  0  0  0  0  0  0  0
   13.9253    6.9671    7.7564 H   0  0  0  0  0  0  0  0  0  0  0  0
   15.7209    6.9174    7.7564 H   0  0  0  0  0  0  0  0  0  0  0  0
   16.2160   10.2413    7.7951 H   0  0  0  0  0  0  0  0  0  0  0  0
   16.0938    8.7606    6.7855 H   0  0  0  0  0  0  0  0  0  0  0  0
   14.7570    9.9604    6.7855 H   0  0  0  0  0  0  0  0  0  0  0  0
   18.3455   10.7952   13.4912 H   0  0  0  0  0  0  0  0  0  0  0  0
   12.4913   10.0232   10.5539 H   0  0  0  0  0  0  0  0  0  0  0  0
  1  4  1  0
  1 16  3  0
  2  5  2  0
  2  6  1  0
  3  5  1  0
  3  9  2  0
  4  7  1  0
  4 18  2  0
  5 10  1  0
  6  8  2  0
  6 12  1  0
  7 10  2  0
  7 13  1  0
  8  9  1  0
  8 19  1  0
  9 21  1  0
 10 17  1  0
 11 12  1  0
 11 19  1  0
 11 20  2  0
 12 14  1  0
 12 15  1  0
 17 18  1  0
  2 22  1  0
  3 23  1  0
 13 24  1  0
 13 25  1  0
 13 26  1  0
 14 27  1  0
 14 28  1  0
 14 29  1  0
 15 30  1  0
 15 31  1  0
 15 32  1  0
 17 33  1  0
 19 34  1  0
A    1
C20
A    2
C8
A    3
C12
A    4
C3
A    5
C7
A    6
C9
A    7
C2
A    8
C10
A    9
C11
A   10
C6
A   11
C15
A   12
C17
A   13
C1
A   14
C18
A   15
C19
A   16
N21
A   17
N5
A   18
N4
A   19
N14
A   20
O16
A   21
F13
M  END
