5ALZ_XQ9_A_1551
     RDKit          3D

 53 56  0  0  0  0  0  0  0  0999 V2000
  -12.5240   11.0880  -22.4160 C   0  0  0  0  0  0  0  0  0  0  0  0
  -12.0700   11.7530  -20.7900 S   0  0  0  0  0  0  0  0  0  0  0  0
  -11.0010   10.9930  -20.2310 O   0  0  0  0  0  0  0  0  0  0  0  0
  -11.9980   13.1750  -20.8370 O   0  0  0  0  0  0  0  0  0  0  0  0
  -13.4180   11.4290  -19.8580 N   0  0  0  0  0  0  0  0  0  0  0  0
  -14.5340   12.4020  -19.8040 C   0  0  0  0  0  0  0  0  0  0  0  0
  -14.9650   12.6420  -18.3520 C   0  0  0  0  0  0  0  0  0  0  0  0
  -15.2930   11.2880  -17.7040 C   0  0  0  0  0  0  0  0  0  0  0  0
  -14.0300   10.4070  -17.6710 C   0  0  0  0  0  0  0  0  0  0  0  0
  -13.5350   10.1530  -19.1120 C   0  0  0  0  0  0  0  0  0  0  0  0
  -15.8500   11.5020  -16.3610 N   0  0  0  0  0  0  0  0  0  0  0  0
  -16.6290   10.6060  -15.7170 C   0  0  0  0  0  0  0  0  0  0  0  0
  -16.8950    9.5640  -16.2830 O   0  0  0  0  0  0  0  0  0  0  0  0
  -17.1080   10.9120  -14.4700 N   0  0  0  0  0  0  0  0  0  0  0  0
  -17.9250   10.0860  -13.5400 C   0  0  0  0  0  0  0  0  0  0  0  0
  -16.9320    9.1440  -12.7860 C   0  0  0  0  0  0  0  0  0  0  0  0
  -17.6710    8.3060  -11.7060 C   0  0  0  0  0  0  0  0  0  0  0  0
  -18.3410    9.2540  -10.6700 C   0  0  0  0  0  0  0  0  0  0  0  0
  -19.3480   10.1800  -11.4020 C   0  0  0  0  0  0  0  0  0  0  0  0
  -18.6140   11.0180  -12.5010 C   0  0  0  0  0  0  0  0  0  0  0  0
  -20.4290    9.2920  -12.0730 C   0  0  0  0  0  0  0  0  0  0  0  0
  -19.7800    8.3570  -13.1290 C   0  0  0  0  0  0  0  0  0  0  0  0
  -18.7590    7.4410  -12.4010 C   0  0  0  0  0  0  0  0  0  0  0  0
  -19.0490    9.2290  -14.1950 C   0  0  0  0  0  0  0  0  0  0  0  0
  -13.1398   10.1861  -22.2844 H   0  0  0  0  0  0  0  0  0  0  0  0
  -13.0955   11.8438  -22.9747 H   0  0  0  0  0  0  0  0  0  0  0  0
  -11.6120   10.8310  -22.9747 H   0  0  0  0  0  0  0  0  0  0  0  0
  -14.2063   13.3541  -20.2468 H   0  0  0  0  0  0  0  0  0  0  0  0
  -15.3878   11.9969  -20.3670 H   0  0  0  0  0  0  0  0  0  0  0  0
  -14.1478   13.1284  -17.7991 H   0  0  0  0  0  0  0  0  0  0  0  0
  -15.8512   13.2932  -18.3274 H   0  0  0  0  0  0  0  0  0  0  0  0
  -16.0523   10.7603  -18.2998 H   0  0  0  0  0  0  0  0  0  0  0  0
  -13.2422   10.9185  -17.0985 H   0  0  0  0  0  0  0  0  0  0  0  0
  -14.2687    9.4455  -17.1929 H   0  0  0  0  0  0  0  0  0  0  0  0
  -14.2503    9.4965  -19.6292 H   0  0  0  0  0  0  0  0  0  0  0  0
  -12.5442    9.6772  -19.0671 H   0  0  0  0  0  0  0  0  0  0  0  0
  -15.6335   12.3879  -15.8823 H   0  0  0  0  0  0  0  0  0  0  0  0
  -16.8670   11.8523  -14.1257 H   0  0  0  0  0  0  0  0  0  0  0  0
  -16.4619    8.4628  -13.5106 H   0  0  0  0  0  0  0  0  0  0  0  0
  -16.1705    9.7630  -12.2890 H   0  0  0  0  0  0  0  0  0  0  0  0
  -16.9527    7.6570  -11.1837 H   0  0  0  0  0  0  0  0  0  0  0  0
  -18.8726    8.6566   -9.9147 H   0  0  0  0  0  0  0  0  0  0  0  0
  -17.5708    9.8638  -10.1750 H   0  0  0  0  0  0  0  0  0  0  0  0
  -19.8072   10.8706  -10.6794 H   0  0  0  0  0  0  0  0  0  0  0  0
  -17.8516   11.6505  -12.0228 H   0  0  0  0  0  0  0  0  0  0  0  0
  -19.3557   11.6402  -13.0234 H   0  0  0  0  0  0  0  0  0  0  0  0
  -20.9254    8.6816  -11.3042 H   0  0  0  0  0  0  0  0  0  0  0  0
  -21.1641    9.9399  -12.5729 H   0  0  0  0  0  0  0  0  0  0  0  0
  -20.5422    7.7419  -13.6297 H   0  0  0  0  0  0  0  0  0  0  0  0
  -18.2811    6.7738  -13.1335 H   0  0  0  0  0  0  0  0  0  0  0  0
  -19.2860    6.8446  -11.6417 H   0  0  0  0  0  0  0  0  0  0  0  0
  -19.7788    9.8984  -14.6740 H   0  0  0  0  0  0  0  0  0  0  0  0
  -18.5915    8.5613  -14.9399 H   0  0  0  0  0  0  0  0  0  0  0  0
  1  2  1  0
  2  3  2  0
  2  4  2  0
  2  5  1  0
  5  6  1  0
  5 10  1  0
  6  7  1  0
  7  8  1  0
  8  9  1  0
  8 11  1  0
  9 10  1  0
 11 12  1  0
 12 13  2  0
 12 14  1  0
 14 15  1  0
 15 16  1  0
 15 20  1  0
 15 24  1  0
 16 17  1  0
 17 18  1  0
 17 23  1  0
 18 19  1  0
 19 20  1  0
 19 21  1  0
 21 22  1  0
 22 23  1  0
 22 24  1  0
  1 25  1  0
  1 26  1  0
  1 27  1  0
  6 28  1  0
  6 29  1  0
  7 30  1  0
  7 31  1  0
  8 32  1  0
  9 33  1  0
  9 34  1  0
 10 35  1  0
 10 36  1  0
 11 37  1  0
 14 38  1  0
 16 39  1  0
 16 40  1  0
 17 41  1  0
 18 42  1  0
 18 43  1  0
 19 44  1  0
 20 45  1  0
 20 46  1  0
 21 47  1  0
 21 48  1  0
 22 49  1  0
 23 50  1  0
 23 51  1  0
 24 52  1  0
 24 53  1  0
A    1
C1
A    2
S2
A    3
O3
A    4
O4
A    5
N5
A    6
C6
A    7
C7
A    8
C8
A    9
C9
A   10
C10
A   11
N11
A   12
C12
A   13
O13
A   14
N14
A   15
C15
A   16
C16
A   17
C17
A   18
C18
A   19
C19
A   20
C20
A   21
C21
A   22
C22
A   23
C23
A   24
C24
M  END
