5AM4_MVJ_A_1555
     RDKit          3D

 44 47  0  0  0  0  0  0  0  0999 V2000
  -15.8710  -10.0500   12.1920 C   0  0  0  0  0  0  0  0  0  0  0  0
  -14.6540  -10.2950   11.5850 C   0  0  0  0  0  0  0  0  0  0  0  0
  -14.5280   -9.9860   10.2460 C   0  0  0  0  0  0  0  0  0  0  0  0
  -15.5550   -9.4490    9.5170 C   0  0  0  0  0  0  0  0  0  0  0  0
  -16.7720   -9.2120   10.1310 C   0  0  0  0  0  0  0  0  0  0  0  0
  -16.9280   -9.5100   11.4760 C   0  0  0  0  0  0  0  0  0  0  0  0
  -18.2230   -9.2640   12.1860 C   0  0  0  0  0  0  0  0  0  0  0  0
  -18.5250   -7.7740   12.2450 C   0  0  0  0  0  0  0  0  0  0  0  0
  -19.8700   -7.4550   12.8870 C   0  0  0  0  0  0  0  0  0  0  0  0
  -21.0070   -8.3060   12.3490 C   0  0  0  0  0  0  0  0  0  0  0  0
  -20.6640   -9.7890   12.3170 C   0  0  0  0  0  0  0  0  0  0  0  0
  -19.3680  -10.0500   11.5640 C   0  0  0  0  0  0  0  0  0  0  0  0
  -15.1240   -9.2320    8.0970 C   0  0  0  0  0  0  0  0  0  0  0  0
  -15.1910   -7.7640    7.6910 C   0  0  0  0  0  0  0  0  0  0  0  0
  -16.5900   -7.3610    7.2360 C   0  0  0  0  0  0  0  0  0  0  0  0
  -17.0760   -8.2590    6.2350 O   0  0  0  0  0  0  0  0  0  0  0  0
  -17.2380   -9.5860    6.7450 C   0  0  0  0  0  0  0  0  0  0  0  0
  -15.8720  -10.1500    7.1300 C   0  0  0  0  0  0  0  0  0  0  0  0
  -13.6680   -9.6800    8.1650 C   0  0  0  0  0  0  0  0  0  0  0  0
  -12.8570   -9.6500    7.2450 O   0  0  0  0  0  0  0  0  0  0  0  0
  -13.4020  -10.1500    9.4380 N   0  0  0  0  0  0  0  0  0  0  0  0
  -16.0028  -10.2868   13.2581 H   0  0  0  0  0  0  0  0  0  0  0  0
  -13.8130  -10.7224   12.1508 H   0  0  0  0  0  0  0  0  0  0  0  0
  -17.6097   -8.7902    9.5562 H   0  0  0  0  0  0  0  0  0  0  0  0
  -18.1179   -9.6290   13.2183 H   0  0  0  0  0  0  0  0  0  0  0  0
  -17.7340   -7.2806   12.8288 H   0  0  0  0  0  0  0  0  0  0  0  0
  -18.5649   -7.4090   11.2081 H   0  0  0  0  0  0  0  0  0  0  0  0
  -19.7890   -7.6246   13.9708 H   0  0  0  0  0  0  0  0  0  0  0  0
  -20.1053   -6.4071   12.6490 H   0  0  0  0  0  0  0  0  0  0  0  0
  -21.8888   -8.1621   12.9906 H   0  0  0  0  0  0  0  0  0  0  0  0
  -21.2015   -7.9867   11.3145 H   0  0  0  0  0  0  0  0  0  0  0  0
  -20.5559  -10.1524   13.3496 H   0  0  0  0  0  0  0  0  0  0  0  0
  -21.4759  -10.3179   11.7964 H   0  0  0  0  0  0  0  0  0  0  0  0
  -19.4905   -9.7424   10.5150 H   0  0  0  0  0  0  0  0  0  0  0  0
  -19.1342  -11.1234   11.6194 H   0  0  0  0  0  0  0  0  0  0  0  0
  -14.9053   -7.1435    8.5532 H   0  0  0  0  0  0  0  0  0  0  0  0
  -14.5021   -7.6128    6.8468 H   0  0  0  0  0  0  0  0  0  0  0  0
  -17.2703   -7.3816    8.1001 H   0  0  0  0  0  0  0  0  0  0  0  0
  -16.5442   -6.3482    6.8093 H   0  0  0  0  0  0  0  0  0  0  0  0
  -17.8885   -9.5618    7.6317 H   0  0  0  0  0  0  0  0  0  0  0  0
  -17.6954  -10.2234    5.9740 H   0  0  0  0  0  0  0  0  0  0  0  0
  -15.2687  -10.2723    6.2183 H   0  0  0  0  0  0  0  0  0  0  0  0
  -16.0329  -11.1146    7.6337 H   0  0  0  0  0  0  0  0  0  0  0  0
  -12.5077  -10.5594    9.7438 H   0  0  0  0  0  0  0  0  0  0  0  0
  1  2  2  0
  1  6  1  0
  2  3  1  0
  3  4  2  0
  3 21  1  0
  4  5  1  0
  4 13  1  0
  5  6  2  0
  6  7  1  0
  7  8  1  0
  7 12  1  0
  8  9  1  0
  9 10  1  0
 10 11  1  0
 11 12  1  0
 13 14  1  0
 13 18  1  0
 13 19  1  0
 14 15  1  0
 15 16  1  0
 16 17  1  0
 17 18  1  0
 19 20  2  0
 19 21  1  0
  1 22  1  0
  2 23  1  0
  5 24  1  0
  7 25  1  0
  8 26  1  0
  8 27  1  0
  9 28  1  0
  9 29  1  0
 10 30  1  0
 10 31  1  0
 11 32  1  0
 11 33  1  0
 12 34  1  0
 12 35  1  0
 14 36  1  0
 14 37  1  0
 15 38  1  0
 15 39  1  0
 17 40  1  0
 17 41  1  0
 18 42  1  0
 18 43  1  0
 21 44  1  0
A    1
C1
A    2
C2
A    3
C3
A    4
C4
A    5
C5
A    6
C6
A    7
C7
A    8
C8
A    9
C9
A   10
C10
A   11
C11
A   12
C12
A   13
C13
A   14
C14
A   15
C15
A   16
O16
A   17
C17
A   18
C18
A   19
C19
A   20
O20
A   21
N21
M  END
