1G8I_P6G_A_954
     RDKit          3D

 45 44  0  0  0  0  0  0  0  0999 V2000
   11.0990   -4.3130   10.2750 O   0  0  0  0  0  0  0  0  0  0  0  0
   10.4860   -5.5810   10.5110 C   0  0  0  0  0  0  0  0  0  0  0  0
   10.9240   -6.7180   11.2900 C   0  0  0  0  0  0  0  0  0  0  0  0
   12.4420   -6.7300   11.6380 O   0  0  0  0  0  0  0  0  0  0  0  0
   12.7470   -7.4170   12.8710 C   0  0  0  0  0  0  0  0  0  0  0  0
   14.0270   -6.9490   13.3000 C   0  0  0  0  0  0  0  0  0  0  0  0
   15.1780   -7.0510   12.2970 O   0  0  0  0  0  0  0  0  0  0  0  0
   16.4410   -7.4000   12.9160 C   0  0  0  0  0  0  0  0  0  0  0  0
   17.5270   -7.4880   11.9110 C   0  0  0  0  0  0  0  0  0  0  0  0
   17.7930   -8.9450   11.2820 O   0  0  0  0  0  0  0  0  0  0  0  0
   18.9820   -9.6630   11.6980 C   0  0  0  0  0  0  0  0  0  0  0  0
   19.0690  -10.9490   11.0280 C   0  0  0  0  0  0  0  0  0  0  0  0
   18.6870  -12.2240   11.8830 O   0  0  0  0  0  0  0  0  0  0  0  0
   19.6860  -13.2410   12.0460 C   0  0  0  0  0  0  0  0  0  0  0  0
   19.2410  -14.3500   12.8590 C   0  0  0  0  0  0  0  0  0  0  0  0
   17.7780  -14.2670   13.4200 O   0  0  0  0  0  0  0  0  0  0  0  0
   17.5450  -14.7920   14.7360 C   0  0  0  0  0  0  0  0  0  0  0  0
   16.1390  -15.0970   14.8640 C   0  0  0  0  0  0  0  0  0  0  0  0
   15.4200  -14.2730   16.0170 O   0  0  0  0  0  0  0  0  0  0  0  0
   11.3078   -3.8811   11.1410 H   0  0  0  0  0  0  0  0  0  0  0  0
    9.5095   -5.3239   10.9472 H   0  0  0  0  0  0  0  0  0  0  0  0
   10.6864   -6.0130    9.5195 H   0  0  0  0  0  0  0  0  0  0  0  0
   10.3574   -6.7247   12.2328 H   0  0  0  0  0  0  0  0  0  0  0  0
   10.7437   -7.6063   10.6668 H   0  0  0  0  0  0  0  0  0  0  0  0
   11.9857   -7.1867   13.6309 H   0  0  0  0  0  0  0  0  0  0  0  0
   12.7550   -8.5070   12.7233 H   0  0  0  0  0  0  0  0  0  0  0  0
   13.9180   -5.8889   13.5727 H   0  0  0  0  0  0  0  0  0  0  0  0
   14.3109   -7.6152   14.1280 H   0  0  0  0  0  0  0  0  0  0  0  0
   16.7010   -6.6308   13.6581 H   0  0  0  0  0  0  0  0  0  0  0  0
   16.3321   -8.3834   13.3967 H   0  0  0  0  0  0  0  0  0  0  0  0
   17.2767   -6.8060   11.0851 H   0  0  0  0  0  0  0  0  0  0  0  0
   18.4497   -7.2256   12.4493 H   0  0  0  0  0  0  0  0  0  0  0  0
   19.8706   -9.0650   11.4474 H   0  0  0  0  0  0  0  0  0  0  0  0
   18.9290   -9.8338   12.7834 H   0  0  0  0  0  0  0  0  0  0  0  0
   18.3965  -10.9176   10.1581 H   0  0  0  0  0  0  0  0  0  0  0  0
   20.1337  -11.0748   10.7820 H   0  0  0  0  0  0  0  0  0  0  0  0
   19.9606  -13.6240   11.0521 H   0  0  0  0  0  0  0  0  0  0  0  0
   20.5414  -12.7799   12.5615 H   0  0  0  0  0  0  0  0  0  0  0  0
   19.3129  -15.2618   12.2479 H   0  0  0  0  0  0  0  0  0  0  0  0
   19.8926  -14.3399   13.7452 H   0  0  0  0  0  0  0  0  0  0  0  0
   18.1381  -15.7070   14.8811 H   0  0  0  0  0  0  0  0  0  0  0  0
   17.8416  -14.0532   15.4951 H   0  0  0  0  0  0  0  0  0  0  0  0
   15.6434  -14.8670   13.9093 H   0  0  0  0  0  0  0  0  0  0  0  0
   16.0590  -16.1623   15.1261 H   0  0  0  0  0  0  0  0  0  0  0  0
   15.7159  -14.6122   16.8988 H   0  0  0  0  0  0  0  0  0  0  0  0
  1  2  1  0
  2  3  1  0
  3  4  1  0
  4  5  1  0
  5  6  1  0
  6  7  1  0
  7  8  1  0
  8  9  1  0
  9 10  1  0
 10 11  1  0
 11 12  1  0
 12 13  1  0
 13 14  1  0
 14 15  1  0
 15 16  1  0
 16 17  1  0
 17 18  1  0
 18 19  1  0
  1 20  1  0
  2 21  1  0
  2 22  1  0
  3 23  1  0
  3 24  1  0
  5 25  1  0
  5 26  1  0
  6 27  1  0
  6 28  1  0
  8 29  1  0
  8 30  1  0
  9 31  1  0
  9 32  1  0
 11 33  1  0
 11 34  1  0
 12 35  1  0
 12 36  1  0
 14 37  1  0
 14 38  1  0
 15 39  1  0
 15 40  1  0
 17 41  1  0
 17 42  1  0
 18 43  1  0
 18 44  1  0
 19 45  1  0
A    1
O1
A    2
C2
A    3
C3
A    4
O4
A    5
C5
A    6
C6
A    7
O7
A    8
C8
A    9
C9
A   10
O10
A   11
C11
A   12
C12
A   13
O13
A   14
C14
A   15
C15
A   16
O16
A   17
C17
A   18
C18
A   19
O19
M  END
