5AMD_45I_A_266
     RDKit          3D

 41 42  0  0  0  0  0  0  0  0999 V2000
   -3.2830    4.6210   11.5130 O   0  0  0  0  0  0  0  0  0  0  0  0
   -4.1970    3.8140   11.5910 C   0  0  0  0  0  0  0  0  0  0  0  0
   -4.9360    3.5660   10.5540 O   0  0  0  0  0  0  0  0  0  0  0  0
   -4.6020    3.1450   12.8460 C   0  0  0  0  0  0  0  0  0  0  0  0
   -4.3310    1.7960   13.0080 C   0  0  0  0  0  0  0  0  0  0  0  0
   -4.7270    1.1050   14.1700 C   0  0  0  0  0  0  0  0  0  0  0  0
   -5.4430    1.7470   15.2210 C   0  0  0  0  0  0  0  0  0  0  0  0
   -5.9680    0.9880   16.6220 S   0  0  0  0  0  0  0  0  0  0  0  0
   -7.3720    1.2830   16.7910 O   0  0  0  0  0  0  0  0  0  0  0  0
   -5.7650   -0.5630   16.4590 N   0  0  0  0  0  0  0  0  0  0  0  0
   -5.1390    1.4140   17.6830 O   0  0  0  0  0  0  0  0  0  0  0  0
   -5.7440    3.1110   15.0450 C   0  0  0  0  0  0  0  0  0  0  0  0
   -5.3820    3.8380   13.8920 C   0  0  0  0  0  0  0  0  0  0  0  0
   -5.7100    5.4360   13.7730 S   0  0  0  0  0  0  0  0  0  0  0  0
   -6.0530    5.9620   15.0450 O   0  0  0  0  0  0  0  0  0  0  0  0
   -6.4740    5.9030   12.6350 O   0  0  0  0  0  0  0  0  0  0  0  0
   -4.3290    6.1490   13.4110 N   0  0  0  0  0  0  0  0  0  0  0  0
   -3.2410    6.1690   14.3940 C   0  0  0  0  0  0  0  0  0  0  0  0
   -1.9020    6.5410   13.7650 C   0  0  0  0  0  0  0  0  0  0  0  0
   -1.8250    8.0100   13.4830 C   0  0  0  0  0  0  0  0  0  0  0  0
   -1.3400    8.8760   14.4620 C   0  0  0  0  0  0  0  0  0  0  0  0
   -1.2690   10.2480   14.1970 C   0  0  0  0  0  0  0  0  0  0  0  0
   -1.6610   10.7440   12.9470 C   0  0  0  0  0  0  0  0  0  0  0  0
   -2.1510    9.8670   11.9670 C   0  0  0  0  0  0  0  0  0  0  0  0
   -2.2210    8.4990   12.2340 C   0  0  0  0  0  0  0  0  0  0  0  0
   -5.8677    3.2533   10.6735 H   0  0  0  0  0  0  0  0  0  0  0  0
   -3.7963    1.2541   12.2140 H   0  0  0  0  0  0  0  0  0  0  0  0
   -4.4760    0.0386   14.2687 H   0  0  0  0  0  0  0  0  0  0  0  0
   -5.7076   -1.0014   17.3893 H   0  0  0  0  0  0  0  0  0  0  0  0
   -6.5611   -0.9608   15.9405 H   0  0  0  0  0  0  0  0  0  0  0  0
   -6.2876    3.6348   15.8451 H   0  0  0  0  0  0  0  0  0  0  0  0
   -3.9628    5.6807   12.5699 H   0  0  0  0  0  0  0  0  0  0  0  0
   -3.4824    6.9056   15.1745 H   0  0  0  0  0  0  0  0  0  0  0  0
   -3.1469    5.1566   14.8138 H   0  0  0  0  0  0  0  0  0  0  0  0
   -1.0920    6.2655   14.4564 H   0  0  0  0  0  0  0  0  0  0  0  0
   -1.8015    5.9981   12.8136 H   0  0  0  0  0  0  0  0  0  0  0  0
   -1.0152    8.4831   15.4367 H   0  0  0  0  0  0  0  0  0  0  0  0
   -0.9046   10.9386   14.9718 H   0  0  0  0  0  0  0  0  0  0  0  0
   -1.5848   11.8204   12.7336 H   0  0  0  0  0  0  0  0  0  0  0  0
   -2.4787   10.2565   10.9919 H   0  0  0  0  0  0  0  0  0  0  0  0
   -2.5874    7.8058   11.4625 H   0  0  0  0  0  0  0  0  0  0  0  0
  1  2  2  0
  2  3  1  0
  2  4  1  0
  4  5  2  0
  4 13  1  0
  5  6  1  0
  6  7  2  0
  7  8  1  0
  7 12  1  0
  8  9  2  0
  8 10  1  0
  8 11  2  0
 12 13  2  0
 13 14  1  0
 14 15  2  0
 14 16  2  0
 14 17  1  0
 17 18  1  0
 18 19  1  0
 19 20  1  0
 20 21  2  0
 20 25  1  0
 21 22  1  0
 22 23  2  0
 23 24  1  0
 24 25  2  0
  3 26  1  0
  5 27  1  0
  6 28  1  0
 10 29  1  0
 10 30  1  0
 12 31  1  0
 17 32  1  0
 18 33  1  0
 18 34  1  0
 19 35  1  0
 19 36  1  0
 21 37  1  0
 22 38  1  0
 23 39  1  0
 24 40  1  0
 25 41  1  0
A    1
O18
A    2
C17
A    3
O17
A    4
C10
A    5
C9
A    6
C8
A    7
C7
A    8
S1
A    9
O6
A   10
N7
A   11
O5
A   12
C12
A   13
C11
A   14
S13
A   15
O15
A   16
O14
A   17
N16
A   18
C19
A   19
C20
A   20
C21
A   21
C26
A   22
C25
A   23
C24
A   24
C23
A   25
C22
M  END
