5AME_PW3_B_1145
     RDKit          3D

 20 20  0  0  0  0  0  0  0  0999 V2000
  -28.6130    3.2520    8.4150 C   0  0  0  0  0  0  0  0  0  0  0  0
  -28.3480    3.0890    6.9270 C   0  0  0  0  0  0  0  0  0  0  0  0
  -29.4470    2.8860    6.0610 N   0  0  0  0  0  0  0  0  0  0  0  0
  -30.7720    2.8190    6.6120 C   0  0  0  0  0  0  0  0  0  0  0  0
  -31.8380    2.5900    5.6360 C   0  0  0  0  0  0  0  0  0  0  0  0
  -31.6850    3.4220    4.4490 N   0  0  0  0  0  0  0  0  0  0  0  0
  -30.3800    3.5100    3.9460 C   0  0  0  0  0  0  0  0  0  0  0  0
  -29.2950    2.7040    4.7130 C   0  0  0  0  0  0  0  0  0  0  0  0
  -30.1160    4.1690    2.9700 O   0  0  0  0  0  0  0  0  0  0  0  0
  -27.2360    3.1100    6.4650 O   0  0  0  0  0  0  0  0  0  0  0  0
  -27.8123    2.7595    8.9862 H   0  0  0  0  0  0  0  0  0  0  0  0
  -28.6387    4.3223    8.6678 H   0  0  0  0  0  0  0  0  0  0  0  0
  -29.5798    2.7922    8.6678 H   0  0  0  0  0  0  0  0  0  0  0  0
  -30.7963    1.9971    7.3427 H   0  0  0  0  0  0  0  0  0  0  0  0
  -30.9697    3.8055    7.0566 H   0  0  0  0  0  0  0  0  0  0  0  0
  -31.8195    1.5328    5.3325 H   0  0  0  0  0  0  0  0  0  0  0  0
  -32.7942    2.8529    6.1120 H   0  0  0  0  0  0  0  0  0  0  0  0
  -32.4792    3.9103    4.0112 H   0  0  0  0  0  0  0  0  0  0  0  0
  -28.2974    3.0528    4.4078 H   0  0  0  0  0  0  0  0  0  0  0  0
  -29.4028    1.6350    4.4770 H   0  0  0  0  0  0  0  0  0  0  0  0
  1  2  1  0
  2  3  1  0
  2 10  2  0
  3  4  1  0
  3  8  1  0
  4  5  1  0
  5  6  1  0
  6  7  1  0
  7  8  1  0
  7  9  2  0
  1 11  1  0
  1 12  1  0
  1 13  1  0
  4 14  1  0
  4 15  1  0
  5 16  1  0
  5 17  1  0
  6 18  1  0
  8 19  1  0
  8 20  1  0
A    1
C01
A    2
C02
A    3
N03
A    4
C04
A    5
C05
A    6
N06
A    7
C07
A    8
C08
A    9
O09
A   10
O10
M  END
