1DI8_DTQ_A_500
     RDKit          3D

 37 39  0  0  0  0  0  0  0  0999 V2000
   -9.2640   52.3090   13.3720 N   0  0  0  0  0  0  0  0  0  0  0  0
  -10.2040   52.9720   12.5990 C   0  0  0  0  0  0  0  0  0  0  0  0
  -10.8280   52.3530   11.5200 N   0  0  0  0  0  0  0  0  0  0  0  0
  -10.5050   51.0150   11.1310 C   0  0  0  0  0  0  0  0  0  0  0  0
   -9.4320   50.2410   11.9370 C   0  0  0  0  0  0  0  0  0  0  0  0
   -8.8630   50.9420   13.1320 C   0  0  0  0  0  0  0  0  0  0  0  0
  -11.1780   50.3770    9.9930 C   0  0  0  0  0  0  0  0  0  0  0  0
  -10.8540   48.9910    9.5930 C   0  0  0  0  0  0  0  0  0  0  0  0
   -9.7510   48.2530   10.3090 C   0  0  0  0  0  0  0  0  0  0  0  0
   -9.0520   48.8980   11.4690 C   0  0  0  0  0  0  0  0  0  0  0  0
   -7.9420   50.3180   14.0110 N   0  0  0  0  0  0  0  0  0  0  0  0
   -7.2290   50.6820   15.1650 C   0  0  0  0  0  0  0  0  0  0  0  0
   -6.3650   49.6150   15.7210 C   0  0  0  0  0  0  0  0  0  0  0  0
   -5.5720   49.8430   16.9480 C   0  0  0  0  0  0  0  0  0  0  0  0
   -5.5700   51.1620   17.5920 C   0  0  0  0  0  0  0  0  0  0  0  0
   -6.4190   52.2450   17.0620 C   0  0  0  0  0  0  0  0  0  0  0  0
   -7.2620   52.0030   15.8780 C   0  0  0  0  0  0  0  0  0  0  0  0
   -4.8340   48.8240   17.5090 O   0  0  0  0  0  0  0  0  0  0  0  0
  -11.5470   48.2780    8.5820 O   0  0  0  0  0  0  0  0  0  0  0  0
  -12.3960   48.8920    7.6050 C   0  0  0  0  0  0  0  0  0  0  0  0
   -9.4630   46.9300    9.8550 O   0  0  0  0  0  0  0  0  0  0  0  0
   -8.4820   46.1170   10.5080 C   0  0  0  0  0  0  0  0  0  0  0  0
  -10.4631   54.0125   12.8442 H   0  0  0  0  0  0  0  0  0  0  0  0
  -11.9361   50.9396    9.4284 H   0  0  0  0  0  0  0  0  0  0  0  0
   -8.2409   48.3577   11.9791 H   0  0  0  0  0  0  0  0  0  0  0  0
   -7.7449   49.3466   13.7308 H   0  0  0  0  0  0  0  0  0  0  0  0
   -6.3126   48.6400   15.2143 H   0  0  0  0  0  0  0  0  0  0  0  0
   -4.9343   51.3429   18.4713 H   0  0  0  0  0  0  0  0  0  0  0  0
   -6.4230   53.2311   17.5494 H   0  0  0  0  0  0  0  0  0  0  0  0
   -7.9245   52.8009   15.5115 H   0  0  0  0  0  0  0  0  0  0  0  0
   -4.7736   48.7406   18.4936 H   0  0  0  0  0  0  0  0  0  0  0  0
  -13.1864   49.4636    8.1134 H   0  0  0  0  0  0  0  0  0  0  0  0
  -11.8004   49.5697    6.9757 H   0  0  0  0  0  0  0  0  0  0  0  0
  -12.8531   48.1141    6.9757 H   0  0  0  0  0  0  0  0  0  0  0  0
   -8.5950   46.2106   11.5982 H   0  0  0  0  0  0  0  0  0  0  0  0
   -8.6218   45.0663   10.2138 H   0  0  0  0  0  0  0  0  0  0  0  0
   -7.4756   46.4494   10.2138 H   0  0  0  0  0  0  0  0  0  0  0  0
  1  2  2  0
  1  6  1  0
  2  3  1  0
  3  4  2  0
  4  5  1  0
  4  7  1  0
  5  6  2  0
  5 10  1  0
  6 11  1  0
  7  8  2  0
  8  9  1  0
  8 19  1  0
  9 10  2  0
  9 21  1  0
 11 12  1  0
 12 13  2  0
 12 17  1  0
 13 14  1  0
 14 15  2  0
 14 18  1  0
 15 16  1  0
 16 17  2  0
 19 20  1  0
 21 22  1  0
  2 23  1  0
  7 24  1  0
 10 25  1  0
 11 26  1  0
 13 27  1  0
 15 28  1  0
 16 29  1  0
 17 30  1  0
 18 31  1  0
 20 32  1  0
 20 33  1  0
 20 34  1  0
 22 35  1  0
 22 36  1  0
 22 37  1  0
A    1
N1
A    2
C2
A    3
N3
A    4
C4
A    5
C5
A    6
C6
A    7
C7
A    8
C8
A    9
C9
A   10
C10
A   11
N12
A   12
C14
A   13
C15
A   14
C16
A   15
C17
A   16
C18
A   17
C19
A   18
O21
A   19
O26
A   20
C27
A   21
O31
A   22
C32
M  END
