5ANQ_5YQ_A_1353
     RDKit          3D

 36 38  0  0  0  0  0  0  0  0999 V2000
  126.2670   21.0310    5.9340 C   0  0  0  0  0  0  0  0  0  0  0  0
  126.2390   22.0240    4.9700 C   0  0  0  0  0  0  0  0  0  0  0  0
  127.3430   22.8440    4.8300 C   0  0  0  0  0  0  0  0  0  0  0  0
  128.4240   22.6320    5.6610 C   0  0  0  0  0  0  0  0  0  0  0  0
  128.4650   21.6780    6.5950 N   0  0  0  0  0  0  0  0  0  0  0  0
  127.3940   20.8870    6.7270 C   0  0  0  0  0  0  0  0  0  0  0  0
  125.0250   22.2000    4.0940 C   0  0  0  0  0  0  0  0  0  0  0  0
  123.9090   21.9160    4.5850 O   0  0  0  0  0  0  0  0  0  0  0  0
  125.2050   22.6210    2.9300 O   0  0  0  0  0  0  0  0  0  0  0  0
  127.4630   19.8850    7.7250 C   0  0  0  0  0  0  0  0  0  0  0  0
  128.6580   19.3410    7.9760 N   0  0  0  0  0  0  0  0  0  0  0  0
  128.7180   18.3840    8.9300 C   0  0  0  0  0  0  0  0  0  0  0  0
  127.6740   17.9320    9.6480 N   0  0  0  0  0  0  0  0  0  0  0  0
  126.4940   18.4950    9.3730 C   0  0  0  0  0  0  0  0  0  0  0  0
  126.3450   19.4740    8.4200 C   0  0  0  0  0  0  0  0  0  0  0  0
  129.9140   17.8420    9.1790 N   0  0  0  0  0  0  0  0  0  0  0  0
  130.1080   16.6590   10.0040 C   0  0  0  0  0  0  0  0  0  0  0  0
  129.4250   15.4330    9.4600 C   0  0  0  0  0  0  0  0  0  0  0  0
  129.1790   15.2970    8.1100 C   0  0  0  0  0  0  0  0  0  0  0  0
  128.5760   14.2390    7.5580 N   0  0  0  0  0  0  0  0  0  0  0  0
  128.1940   13.2570    8.3800 C   0  0  0  0  0  0  0  0  0  0  0  0
  128.3940   13.3000    9.7410 C   0  0  0  0  0  0  0  0  0  0  0  0
  129.0160   14.4030   10.2780 C   0  0  0  0  0  0  0  0  0  0  0  0
  125.4034   20.3631    6.0691 H   0  0  0  0  0  0  0  0  0  0  0  0
  127.3594   23.6446    4.0758 H   0  0  0  0  0  0  0  0  0  0  0  0
  129.3015   23.2856    5.5479 H   0  0  0  0  0  0  0  0  0  0  0  0
  123.7936   21.8866    5.5678 H   0  0  0  0  0  0  0  0  0  0  0  0
  125.6067   18.1618    9.9314 H   0  0  0  0  0  0  0  0  0  0  0  0
  125.3594   19.9183    8.2168 H   0  0  0  0  0  0  0  0  0  0  0  0
  130.7451   18.2866    8.7636 H   0  0  0  0  0  0  0  0  0  0  0  0
  131.1867   16.4554   10.0736 H   0  0  0  0  0  0  0  0  0  0  0  0
  129.6610   16.8711   10.9865 H   0  0  0  0  0  0  0  0  0  0  0  0
  129.4996   16.1117    7.4441 H   0  0  0  0  0  0  0  0  0  0  0  0
  127.6975   12.3748    7.9496 H   0  0  0  0  0  0  0  0  0  0  0  0
  128.0640   12.4712   10.3846 H   0  0  0  0  0  0  0  0  0  0  0  0
  129.1872   14.4627   11.3630 H   0  0  0  0  0  0  0  0  0  0  0  0
  2  1  2  0
  1  6  1  0
  7  2  1  0
  3  2  1  0
  3  4  2  0
  4  5  1  0
  5  6  2  0
  6 10  1  0
  9  7  2  0
  7  8  1  0
 10 11  2  0
 10 15  1  0
 11 12  1  0
 12 16  1  0
 12 13  2  0
 14 13  1  0
 15 14  2  0
 16 17  1  0
 18 17  1  0
 19 18  2  0
 18 23  1  0
 20 19  1  0
 20 21  2  0
 21 22  1  0
 22 23  2  0
  1 24  1  0
  3 25  1  0
  4 26  1  0
  8 27  1  0
 14 28  1  0
 15 29  1  0
 16 30  1  0
 17 31  1  0
 17 32  1  0
 19 33  1  0
 21 34  1  0
 22 35  1  0
 23 36  1  0
A    1
C01
A    2
C02
A    3
C03
A    4
C04
A    5
N05
A    6
C06
A    7
C07
A    8
O08
A    9
O09
A   10
C10
A   11
N11
A   12
C12
A   13
N13
A   14
C14
A   15
C15
A   16
N16
A   17
C17
A   18
C18
A   19
C19
A   20
N20
A   21
C21
A   22
C22
A   23
C23
M  END
