5ANT_RJE_A_1157
     RDKit          3D

 43 45  0  0  0  0  0  0  0  0999 V2000
   -8.4230    9.8500  -14.4500 C   0  0  0  0  0  0  0  0  0  0  0  0
   -7.7040   10.7840  -15.3090 N   0  0  0  0  0  0  0  0  0  0  0  0
   -7.8070   10.7810  -16.6920 C   0  0  0  0  0  0  0  0  0  0  0  0
   -8.5390    9.8720  -17.3180 N   0  0  0  0  0  0  0  0  0  0  0  0
   -8.6600    9.8530  -18.6430 C   0  0  0  0  0  0  0  0  0  0  0  0
   -9.4520    8.8640  -19.1650 O   0  0  0  0  0  0  0  0  0  0  0  0
   -9.5250    8.9230  -20.5900 C   0  0  0  0  0  0  0  0  0  0  0  0
  -10.9970    9.1550  -20.9500 C   0  0  0  0  0  0  0  0  0  0  0  0
  -11.1730   10.4950  -21.3940 O   0  0  0  0  0  0  0  0  0  0  0  0
  -11.1760   10.7400  -22.8130 C   0  0  0  0  0  0  0  0  0  0  0  0
   -8.0320   10.7420  -19.4010 N   0  0  0  0  0  0  0  0  0  0  0  0
   -7.2810   11.6940  -18.8500 C   0  0  0  0  0  0  0  0  0  0  0  0
   -6.5100   12.7180  -19.3480 N   0  0  0  0  0  0  0  0  0  0  0  0
   -6.2100   13.0040  -20.7590 C   0  0  0  0  0  0  0  0  0  0  0  0
   -7.2320   13.6630  -21.6310 C   0  0  0  0  0  0  0  0  0  0  0  0
   -8.5270   13.1770  -21.7320 C   0  0  0  0  0  0  0  0  0  0  0  0
   -9.4290   13.8060  -22.5810 C   0  0  0  0  0  0  0  0  0  0  0  0
   -9.0280   14.9020  -23.3230 C   0  0  0  0  0  0  0  0  0  0  0  0
   -7.7340   15.3680  -23.2260 C   0  0  0  0  0  0  0  0  0  0  0  0
   -6.8270   14.7470  -22.3840 C   0  0  0  0  0  0  0  0  0  0  0  0
   -5.9310   13.3590  -18.3230 C   0  0  0  0  0  0  0  0  0  0  0  0
   -5.1600   14.3070  -18.4310 O   0  0  0  0  0  0  0  0  0  0  0  0
   -6.3230   12.8110  -17.1590 N   0  0  0  0  0  0  0  0  0  0  0  0
   -7.1650   11.7470  -17.4590 C   0  0  0  0  0  0  0  0  0  0  0  0
   -8.2312   10.0992  -13.3959 H   0  0  0  0  0  0  0  0  0  0  0  0
   -9.5017    9.9211  -14.6531 H   0  0  0  0  0  0  0  0  0  0  0  0
   -8.0784    8.8253  -14.6531 H   0  0  0  0  0  0  0  0  0  0  0  0
   -7.0886   11.4811  -14.8661 H   0  0  0  0  0  0  0  0  0  0  0  0
   -8.9080    9.7522  -20.9666 H   0  0  0  0  0  0  0  0  0  0  0  0
   -9.1502    7.9932  -21.0428 H   0  0  0  0  0  0  0  0  0  0  0  0
  -11.2917    8.4618  -21.7516 H   0  0  0  0  0  0  0  0  0  0  0  0
  -11.6228    8.9784  -20.0628 H   0  0  0  0  0  0  0  0  0  0  0  0
  -11.1893   11.8243  -22.9979 H   0  0  0  0  0  0  0  0  0  0  0  0
  -10.2724   10.3024  -23.2626 H   0  0  0  0  0  0  0  0  0  0  0  0
  -12.0686   10.2804  -23.2626 H   0  0  0  0  0  0  0  0  0  0  0  0
   -5.3217   13.6528  -20.7678 H   0  0  0  0  0  0  0  0  0  0  0  0
   -6.1147   12.0014  -21.2014 H   0  0  0  0  0  0  0  0  0  0  0  0
   -8.8375   12.3004  -21.1445 H   0  0  0  0  0  0  0  0  0  0  0  0
  -10.4605   13.4329  -22.6629 H   0  0  0  0  0  0  0  0  0  0  0  0
   -9.7430   15.4031  -23.9921 H   0  0  0  0  0  0  0  0  0  0  0  0
   -7.4203   16.2383  -23.8211 H   0  0  0  0  0  0  0  0  0  0  0  0
   -5.7924   15.1143  -22.3156 H   0  0  0  0  0  0  0  0  0  0  0  0
   -6.0489   13.1232  -16.2165 H   0  0  0  0  0  0  0  0  0  0  0  0
  1  2  1  0
  2  3  1  0
  3  4  2  0
  3 24  1  0
  4  5  1  0
  5  6  1  0
  5 11  2  0
  6  7  1  0
  7  8  1  0
  8  9  1  0
  9 10  1  0
 11 12  1  0
 12 13  1  0
 12 24  2  0
 13 14  1  0
 13 21  1  0
 14 15  1  0
 15 16  2  0
 15 20  1  0
 16 17  1  0
 17 18  2  0
 18 19  1  0
 19 20  2  0
 21 22  2  0
 21 23  1  0
 23 24  1  0
  1 25  1  0
  1 26  1  0
  1 27  1  0
  2 28  1  0
  7 29  1  0
  7 30  1  0
  8 31  1  0
  8 32  1  0
 10 33  1  0
 10 34  1  0
 10 35  1  0
 14 36  1  0
 14 37  1  0
 16 38  1  0
 17 39  1  0
 18 40  1  0
 19 41  1  0
 20 42  1  0
 23 43  1  0
A    1
C1
A    2
N2
A    3
C3
A    4
N4
A    5
C5
A    6
O6
A    7
C7
A    8
C8
A    9
O9
A   10
C10
A   11
N11
A   12
C12
A   13
N13
A   14
C14
A   15
C15
A   16
C16
A   17
C17
A   18
C18
A   19
C19
A   20
C20
A   21
C21
A   22
O22
A   23
N23
A   24
C25
M  END
