5ANU_58T_A_1158
     RDKit          3D

 45 48  0  0  0  0  0  0  0  0999 V2000
   18.3950   21.7840    3.9030 O   0  0  0  0  0  0  0  0  0  0  0  0
   17.4950   21.1150    4.3670 C   0  0  0  0  0  0  0  0  0  0  0  0
   17.5840   20.1780    5.3580 N   0  0  0  0  0  0  0  0  0  0  0  0
   16.3600   19.5760    5.5590 C   0  0  0  0  0  0  0  0  0  0  0  0
   16.1910   21.1020    3.9200 N   0  0  0  0  0  0  0  0  0  0  0  0
   15.4830   20.1530    4.6120 C   0  0  0  0  0  0  0  0  0  0  0  0
   15.7300   21.8840    2.7670 C   0  0  0  0  0  0  0  0  0  0  0  0
   14.9260   23.1280    3.0470 C   0  0  0  0  0  0  0  0  0  0  0  0
   15.2370   24.3190    2.4150 C   0  0  0  0  0  0  0  0  0  0  0  0
   14.4730   25.4510    2.6290 C   0  0  0  0  0  0  0  0  0  0  0  0
   13.3360   25.3900    3.4150 C   0  0  0  0  0  0  0  0  0  0  0  0
   13.7770   23.0650    3.8250 C   0  0  0  0  0  0  0  0  0  0  0  0
   12.9910   24.1910    4.0100 C   0  0  0  0  0  0  0  0  0  0  0  0
   11.8510   24.1860    4.7970 O   0  0  0  0  0  0  0  0  0  0  0  0
   11.7630   23.3080    5.9360 C   0  0  0  0  0  0  0  0  0  0  0  0
   10.7050   22.2760    5.6770 C   0  0  0  0  0  0  0  0  0  0  0  0
   11.3110   21.2260    4.9620 O   0  0  0  0  0  0  0  0  0  0  0  0
   10.6750   19.9490    5.0950 C   0  0  0  0  0  0  0  0  0  0  0  0
   11.5430   18.9330    4.3940 C   0  0  0  0  0  0  0  0  0  0  0  0
   12.5550   18.4740    5.3260 O   0  0  0  0  0  0  0  0  0  0  0  0
   13.8350   18.8610    5.3350 C   0  0  0  0  0  0  0  0  0  0  0  0
   14.1940   19.8010    4.4650 N   0  0  0  0  0  0  0  0  0  0  0  0
   14.6010   18.2330    6.2540 N   0  0  0  0  0  0  0  0  0  0  0  0
   15.8750   18.5600    6.4200 C   0  0  0  0  0  0  0  0  0  0  0  0
   16.6270   17.9490    7.3460 N   0  0  0  0  0  0  0  0  0  0  0  0
   16.1870   16.8080    8.1090 C   0  0  0  0  0  0  0  0  0  0  0  0
   18.4430   19.9536    5.8802 H   0  0  0  0  0  0  0  0  0  0  0  0
   16.6207   22.1884    2.1979 H   0  0  0  0  0  0  0  0  0  0  0  0
   15.0370   21.2162    2.2342 H   0  0  0  0  0  0  0  0  0  0  0  0
   16.1008   24.3655    1.7355 H   0  0  0  0  0  0  0  0  0  0  0  0
   14.7708   26.4060    2.1716 H   0  0  0  0  0  0  0  0  0  0  0  0
   12.7141   26.2849    3.5646 H   0  0  0  0  0  0  0  0  0  0  0  0
   13.4890   22.1144    4.2976 H   0  0  0  0  0  0  0  0  0  0  0  0
   12.7316   22.8114    6.0945 H   0  0  0  0  0  0  0  0  0  0  0  0
   11.5038   23.8887    6.8336 H   0  0  0  0  0  0  0  0  0  0  0  0
   10.3042   21.9004    6.6300 H   0  0  0  0  0  0  0  0  0  0  0  0
    9.8717   22.7079    5.1033 H   0  0  0  0  0  0  0  0  0  0  0  0
   10.5763   19.6879    6.1590 H   0  0  0  0  0  0  0  0  0  0  0  0
    9.6687   19.9700    4.6512 H   0  0  0  0  0  0  0  0  0  0  0  0
   10.9277   18.0825    4.0653 H   0  0  0  0  0  0  0  0  0  0  0  0
   12.0193   19.3870    3.5125 H   0  0  0  0  0  0  0  0  0  0  0  0
   17.5732   18.3157    7.5225 H   0  0  0  0  0  0  0  0  0  0  0  0
   16.2726   17.0300    9.1830 H   0  0  0  0  0  0  0  0  0  0  0  0
   15.1383   16.5848    7.8632 H   0  0  0  0  0  0  0  0  0  0  0  0
   16.8143   15.9385    7.8632 H   0  0  0  0  0  0  0  0  0  0  0  0
  1  2  2  0
  2  3  1  0
  2  5  1  0
  3  4  1  0
  4  6  2  0
  4 24  1  0
  5  6  1  0
  5  7  1  0
  6 22  1  0
  7  8  1  0
  8  9  1  0
  8 12  2  0
  9 10  2  0
 10 11  1  0
 11 13  2  0
 12 13  1  0
 13 14  1  0
 14 15  1  0
 15 16  1  0
 16 17  1  0
 17 18  1  0
 18 19  1  0
 19 20  1  0
 20 21  1  0
 21 22  2  0
 21 23  1  0
 23 24  2  0
 24 25  1  0
 25 26  1  0
  3 27  1  0
  7 28  1  0
  7 29  1  0
  9 30  1  0
 10 31  1  0
 11 32  1  0
 12 33  1  0
 15 34  1  0
 15 35  1  0
 16 36  1  0
 16 37  1  0
 18 38  1  0
 18 39  1  0
 19 40  1  0
 19 41  1  0
 25 42  1  0
 26 43  1  0
 26 44  1  0
 26 45  1  0
A    1
O3
A    2
C16
A    3
N4
A    4
C2
A    5
N3
A    6
C3
A    7
C15
A    8
C13
A    9
C12
A   10
C11
A   11
C10
A   12
C14
A   13
C9
A   14
O2
A   15
C8
A   16
C7
A   17
O1
A   18
C6
A   19
C5
A   20
O
A   21
C4
A   22
N1
A   23
N2
A   24
C1
A   25
N
A   26
C
M  END
