5ANV_RGJ_A_1157
     RDKit          3D

 44 46  0  0  0  0  0  0  0  0999 V2000
    9.4950   23.0400    4.3760 Cl  0  0  0  0  0  0  0  0  0  0  0  0
   10.8900   22.0360    4.4880 C   0  0  0  0  0  0  0  0  0  0  0  0
   14.2560   19.5660    4.7320 N   0  0  0  0  0  0  0  0  0  0  0  0
   15.5790   19.9470    4.5900 C   0  0  0  0  0  0  0  0  0  0  0  0
   16.2330   18.3150    6.4370 C   0  0  0  0  0  0  0  0  0  0  0  0
   15.1690   17.7220    6.4150 O   0  0  0  0  0  0  0  0  0  0  0  0
   17.1870   17.9280    7.2750 N   0  0  0  0  0  0  0  0  0  0  0  0
   15.9760   20.8950    3.5850 C   0  0  0  0  0  0  0  0  0  0  0  0
   15.5790   22.2870    1.6400 C   0  0  0  0  0  0  0  0  0  0  0  0
   14.8300   22.8150    0.6190 O   0  0  0  0  0  0  0  0  0  0  0  0
   13.5170   22.2810    0.4020 C   0  0  0  0  0  0  0  0  0  0  0  0
   16.9220   22.7150    1.6700 C   0  0  0  0  0  0  0  0  0  0  0  0
   18.5870   24.1460    0.7360 C   0  0  0  0  0  0  0  0  0  0  0  0
   13.1350   20.4260    4.6460 C   0  0  0  0  0  0  0  0  0  0  0  0
   16.5610   19.4020    5.4490 C   0  0  0  0  0  0  0  0  0  0  0  0
   17.0110   16.7830    8.1500 C   0  0  0  0  0  0  0  0  0  0  0  0
   17.3280   21.3080    3.5910 C   0  0  0  0  0  0  0  0  0  0  0  0
   18.2430   20.8180    4.4770 N   0  0  0  0  0  0  0  0  0  0  0  0
   17.8550   19.9010    5.3340 C   0  0  0  0  0  0  0  0  0  0  0  0
   15.1340   21.3660    2.5450 C   0  0  0  0  0  0  0  0  0  0  0  0
   17.7800   22.2210    2.6090 C   0  0  0  0  0  0  0  0  0  0  0  0
   17.2600   23.6280    0.7080 O   0  0  0  0  0  0  0  0  0  0  0  0
   10.8080   20.7210    4.0800 C   0  0  0  0  0  0  0  0  0  0  0  0
   11.9310   19.9190    4.1580 C   0  0  0  0  0  0  0  0  0  0  0  0
   12.0560   22.5790    4.9900 C   0  0  0  0  0  0  0  0  0  0  0  0
   13.1450   21.7530    5.0720 C   0  0  0  0  0  0  0  0  0  0  0  0
   14.3040   22.2660    5.5400 F   0  0  0  0  0  0  0  0  0  0  0  0
   14.0710   18.5697    4.9164 H   0  0  0  0  0  0  0  0  0  0  0  0
   18.0730   18.4524    7.3051 H   0  0  0  0  0  0  0  0  0  0  0  0
   13.0359   22.0853    1.3717 H   0  0  0  0  0  0  0  0  0  0  0  0
   12.9156   23.0060   -0.1661 H   0  0  0  0  0  0  0  0  0  0  0  0
   13.5923   21.3420   -0.1661 H   0  0  0  0  0  0  0  0  0  0  0  0
   18.9095   24.2719    1.7801 H   0  0  0  0  0  0  0  0  0  0  0  0
   19.2646   23.4464    0.2248 H   0  0  0  0  0  0  0  0  0  0  0  0
   18.6114   25.1197    0.2248 H   0  0  0  0  0  0  0  0  0  0  0  0
   17.0615   17.1116    9.1985 H   0  0  0  0  0  0  0  0  0  0  0  0
   16.0313   16.3214    7.9572 H   0  0  0  0  0  0  0  0  0  0  0  0
   17.8068   16.0485    7.9572 H   0  0  0  0  0  0  0  0  0  0  0  0
   18.6154   19.4942    6.0168 H   0  0  0  0  0  0  0  0  0  0  0  0
   14.1058   20.9831    2.4662 H   0  0  0  0  0  0  0  0  0  0  0  0
   18.8340   22.5358    2.6025 H   0  0  0  0  0  0  0  0  0  0  0  0
    9.8600   20.3153    3.6970 H   0  0  0  0  0  0  0  0  0  0  0  0
   11.8745   18.8700    3.8318 H   0  0  0  0  0  0  0  0  0  0  0  0
   12.1079   23.6301    5.3103 H   0  0  0  0  0  0  0  0  0  0  0  0
  1  2  1  0
  2 23  2  0
  2 25  1  0
  3  4  1  0
  3 14  1  0
  4  8  1  0
  4 15  2  0
  5  6  2  0
  5  7  1  0
  5 15  1  0
  7 16  1  0
  8 17  1  0
  8 20  2  0
  9 10  1  0
  9 12  2  0
  9 20  1  0
 10 11  1  0
 12 21  1  0
 12 22  1  0
 13 22  1  0
 14 24  2  0
 14 26  1  0
 15 19  1  0
 17 18  1  0
 17 21  2  0
 18 19  2  0
 23 24  1  0
 25 26  2  0
 26 27  1  0
  3 28  1  0
  7 29  1  0
 11 30  1  0
 11 31  1  0
 11 32  1  0
 13 33  1  0
 13 34  1  0
 13 35  1  0
 16 36  1  0
 16 37  1  0
 16 38  1  0
 19 39  1  0
 20 40  1  0
 21 41  1  0
 23 42  1  0
 24 43  1  0
 25 44  1  0
A    1
CL
A    2
C14
A    3
N2
A    4
C10
A    5
C1
A    6
O
A    7
N
A    8
C9
A    9
C7
A   10
O1
A   11
C17
A   12
C6
A   13
C18
A   14
C11
A   15
C2
A   16
C
A   17
C4
A   18
N1
A   19
C3
A   20
C8
A   21
C5
A   22
O2
A   23
C13
A   24
C12
A   25
C15
A   26
C16
A   27
F
M  END
