5ANW_9CQ_A_1157
     RDKit          3D

 41 43  0  0  0  0  0  0  0  0999 V2000
    8.7850   20.5660    2.9970 O   0  0  0  0  0  0  0  0  0  0  0  0
    9.4420   20.6420    4.0280 C   0  0  0  0  0  0  0  0  0  0  0  0
    9.7910   19.5350    4.7150 N   0  0  0  0  0  0  0  0  0  0  0  0
   10.6030   19.5280    5.9320 C   0  0  0  0  0  0  0  0  0  0  0  0
    9.3600   18.2070    4.2830 C   0  0  0  0  0  0  0  0  0  0  0  0
    9.9400   22.0040    4.4920 C   0  0  0  0  0  0  0  0  0  0  0  0
   11.4320   22.1290    4.2910 C   0  0  0  0  0  0  0  0  0  0  0  0
   12.0210   21.7810    3.0810 C   0  0  0  0  0  0  0  0  0  0  0  0
   13.3970   21.7320    2.9480 C   0  0  0  0  0  0  0  0  0  0  0  0
   14.2280   22.1050    4.0020 C   0  0  0  0  0  0  0  0  0  0  0  0
   13.6360   22.4030    5.2260 C   0  0  0  0  0  0  0  0  0  0  0  0
   12.2620   22.4290    5.3630 C   0  0  0  0  0  0  0  0  0  0  0  0
   15.6970   21.9620    3.9350 C   0  0  0  0  0  0  0  0  0  0  0  0
   16.2200   21.1370    4.8370 N   0  0  0  0  0  0  0  0  0  0  0  0
   17.5610   20.9810    4.8420 C   0  0  0  0  0  0  0  0  0  0  0  0
   18.0570   20.1670    5.7760 N   0  0  0  0  0  0  0  0  0  0  0  0
   18.4170   21.5120    3.9510 N   0  0  0  0  0  0  0  0  0  0  0  0
   17.8800   22.3460    3.0060 C   0  0  0  0  0  0  0  0  0  0  0  0
   16.4870   22.5860    2.9200 C   0  0  0  0  0  0  0  0  0  0  0  0
   18.7430   22.9700    2.0660 C   0  0  0  0  0  0  0  0  0  0  0  0
   18.2370   23.8110    1.1070 C   0  0  0  0  0  0  0  0  0  0  0  0
   16.8770   24.0990    1.0630 C   0  0  0  0  0  0  0  0  0  0  0  0
   16.0140   23.5110    1.9490 C   0  0  0  0  0  0  0  0  0  0  0  0
    9.9438   19.5337    6.8126 H   0  0  0  0  0  0  0  0  0  0  0  0
   11.2301   18.6244    5.9492 H   0  0  0  0  0  0  0  0  0  0  0  0
   11.2456   20.4206    5.9492 H   0  0  0  0  0  0  0  0  0  0  0  0
    9.1572   17.5822    5.1654 H   0  0  0  0  0  0  0  0  0  0  0  0
    8.4449   18.2969    3.6792 H   0  0  0  0  0  0  0  0  0  0  0  0
   10.1535   17.7424    3.6792 H   0  0  0  0  0  0  0  0  0  0  0  0
    9.4315   22.7896    3.9138 H   0  0  0  0  0  0  0  0  0  0  0  0
    9.7193   22.1126    5.5641 H   0  0  0  0  0  0  0  0  0  0  0  0
   11.3839   21.5412    2.2170 H   0  0  0  0  0  0  0  0  0  0  0  0
   13.8400   21.3947    1.9993 H   0  0  0  0  0  0  0  0  0  0  0  0
   14.2718   22.6210    6.0968 H   0  0  0  0  0  0  0  0  0  0  0  0
   11.8189   22.6911    6.3351 H   0  0  0  0  0  0  0  0  0  0  0  0
   17.9236   20.3860    6.7736 H   0  0  0  0  0  0  0  0  0  0  0  0
   18.5733   19.3198    5.4993 H   0  0  0  0  0  0  0  0  0  0  0  0
   19.8253   22.7776    2.1071 H   0  0  0  0  0  0  0  0  0  0  0  0
   18.9135   24.2617    0.3659 H   0  0  0  0  0  0  0  0  0  0  0  0
   16.4919   24.8039    0.3114 H   0  0  0  0  0  0  0  0  0  0  0  0
   14.9426   23.7571    1.9091 H   0  0  0  0  0  0  0  0  0  0  0  0
  1  2  2  0
  2  3  1  0
  2  6  1  0
  3  4  1  0
  3  5  1  0
  6  7  1  0
  7  8  2  0
  7 12  1  0
  8  9  1  0
  9 10  2  0
 10 11  1  0
 10 13  1  0
 11 12  2  0
 13 14  2  0
 13 19  1  0
 14 15  1  0
 15 16  1  0
 15 17  2  0
 17 18  1  0
 18 19  2  0
 18 20  1  0
 19 23  1  0
 20 21  2  0
 21 22  1  0
 22 23  2  0
  4 24  1  0
  4 25  1  0
  4 26  1  0
  5 27  1  0
  5 28  1  0
  5 29  1  0
  6 30  1  0
  6 31  1  0
  8 32  1  0
  9 33  1  0
 11 34  1  0
 12 35  1  0
 16 36  1  0
 16 37  1  0
 20 38  1  0
 21 39  1  0
 22 40  1  0
 23 41  1  0
A    1
O
A    2
C2
A    3
N
A    4
C1
A    5
C
A    6
C3
A    7
C4
A    8
C9
A    9
C8
A   10
C7
A   11
C6
A   12
C5
A   13
C10
A   14
N2
A   15
C17
A   16
N3
A   17
N1
A   18
C16
A   19
C11
A   20
C15
A   21
C14
A   22
C13
A   23
C12
M  END
