5AOK_GOH_A_1292
     RDKit          3D

 28 31  0  0  0  0  0  0  0  0999 V2000
   90.8210   91.7720  -46.6050 C   0  0  0  0  0  0  0  0  0  0  0  0
   90.6120   92.9920  -46.1420 N   0  0  0  0  0  0  0  0  0  0  0  0
   91.1420   93.0560  -44.8530 C   0  0  0  0  0  0  0  0  0  0  0  0
   91.6820   91.8080  -44.5500 C   0  0  0  0  0  0  0  0  0  0  0  0
   91.4960   90.9620  -45.6680 O   0  0  0  0  0  0  0  0  0  0  0  0
   91.0910   94.2040  -44.0170 C   0  0  0  0  0  0  0  0  0  0  0  0
   92.3290   91.2690  -43.4680 N   0  0  0  0  0  0  0  0  0  0  0  0
   90.4880   91.1540  -47.8820 C   0  0  0  0  0  0  0  0  0  0  0  0
   93.6000   91.6340  -43.0180 C   0  0  0  0  0  0  0  0  0  0  0  0
   93.8840   90.8440  -41.9040 C   0  0  0  0  0  0  0  0  0  0  0  0
   92.7620   89.9740  -41.6700 C   0  0  0  0  0  0  0  0  0  0  0  0
   91.8100   90.2570  -42.6440 C   0  0  0  0  0  0  0  0  0  0  0  0
   91.2050   94.2020  -42.6300 N   0  0  0  0  0  0  0  0  0  0  0  0
   91.0880   95.4450  -42.2910 N   0  0  0  0  0  0  0  0  0  0  0  0
   90.8990   96.2110  -43.3560 N   0  0  0  0  0  0  0  0  0  0  0  0
   90.8820   95.5150  -44.4460 N   0  0  0  0  0  0  0  0  0  0  0  0
   91.4160   90.1200  -48.4670 C   0  0  0  0  0  0  0  0  0  0  0  0
   90.0810   89.7030  -47.9240 C   0  0  0  0  0  0  0  0  0  0  0  0
   90.0459   92.0968  -48.2365 H   0  0  0  0  0  0  0  0  0  0  0  0
   94.2541   92.4005  -43.4592 H   0  0  0  0  0  0  0  0  0  0  0  0
   94.8072   90.8799  -41.3069 H   0  0  0  0  0  0  0  0  0  0  0  0
   92.6735   89.2245  -40.8697 H   0  0  0  0  0  0  0  0  0  0  0  0
   90.8271   89.7747  -42.7498 H   0  0  0  0  0  0  0  0  0  0  0  0
   90.7455   95.8515  -45.4099 H   0  0  0  0  0  0  0  0  0  0  0  0
   91.5997   90.0971  -49.5513 H   0  0  0  0  0  0  0  0  0  0  0  0
   92.4579   89.8186  -48.2835 H   0  0  0  0  0  0  0  0  0  0  0  0
   90.0241   89.1210  -46.9923 H   0  0  0  0  0  0  0  0  0  0  0  0
   89.2184   89.1493  -48.3233 H   0  0  0  0  0  0  0  0  0  0  0  0
  1  2  2  0
  1  5  1  0
  1  8  1  0
  2  3  1  0
  3  4  2  0
  3  6  1  0
  4  5  1  0
  4  7  1  0
  6 13  2  0
  6 16  1  0
  7  9  1  0
  7 12  1  0
  8 17  1  0
  8 18  1  0
  9 10  2  0
 10 11  1  0
 11 12  2  0
 13 14  1  0
 14 15  2  0
 15 16  1  0
 17 18  1  0
  8 19  1  0
  9 20  1  0
 10 21  1  0
 11 22  1  0
 12 23  1  0
 16 24  1  0
 17 25  1  0
 17 26  1  0
 18 27  1  0
 18 28  1  0
A    1
C1
A    2
N1
A    3
C2
A    4
C3
A    5
O
A    6
C4
A    7
N2
A    8
C5
A    9
C6
A   10
C7
A   11
C8
A   12
C9
A   13
N3
A   14
N4
A   15
N5
A   16
N6
A   17
C10
A   18
C11
M  END
