5AOL_UFV_A_1293
     RDKit          3D

 19 19  0  0  0  0  0  0  0  0999 V2000
   90.9510   88.8590  -41.6310 C   0  0  0  0  0  0  0  0  0  0  0  0
   92.1710   89.4800  -41.4430 C   0  0  0  0  0  0  0  0  0  0  0  0
   92.3710   90.7770  -41.8770 C   0  0  0  0  0  0  0  0  0  0  0  0
   91.3330   91.4330  -42.5180 C   0  0  0  0  0  0  0  0  0  0  0  0
   90.1030   90.8090  -42.7180 C   0  0  0  0  0  0  0  0  0  0  0  0
   89.9030   89.5050  -42.2700 C   0  0  0  0  0  0  0  0  0  0  0  0
   88.6580   88.8270  -42.4760 N   0  0  0  0  0  0  0  0  0  0  0  0
   89.0450   91.5050  -43.3760 N   0  0  0  0  0  0  0  0  0  0  0  0
   90.6830   87.0560  -40.9760 Br  0  0  0  0  0  0  0  0  0  0  0  0
   93.6910   91.4490  -41.6810 C   0  0  0  0  0  0  0  0  0  0  0  0
   94.1690   91.8110  -42.8660 F   0  0  0  0  0  0  0  0  0  0  0  0
   94.5360   90.6090  -41.0970 F   0  0  0  0  0  0  0  0  0  0  0  0
   93.5800   92.5200  -40.9000 F   0  0  0  0  0  0  0  0  0  0  0  0
   92.9886   88.9385  -40.9446 H   0  0  0  0  0  0  0  0  0  0  0  0
   91.4819   92.4628  -42.8748 H   0  0  0  0  0  0  0  0  0  0  0  0
   88.0978   88.5219  -41.6673 H   0  0  0  0  0  0  0  0  0  0  0  0
   88.3231   88.6446  -43.4328 H   0  0  0  0  0  0  0  0  0  0  0  0
   88.3196   91.9822  -42.8219 H   0  0  0  0  0  0  0  0  0  0  0  0
   89.0068   91.5301  -44.4050 H   0  0  0  0  0  0  0  0  0  0  0  0
  1  2  2  0
  1  6  1  0
  1  9  1  0
  2  3  1  0
  3  4  2  0
  3 10  1  0
  4  5  1  0
  5  6  2  0
  5  8  1  0
  6  7  1  0
 10 11  1  0
 10 12  1  0
 10 13  1  0
  2 14  1  0
  4 15  1  0
  7 16  1  0
  7 17  1  0
  8 18  1  0
  8 19  1  0
A    1
C1
A    2
C2
A    3
C3
A    4
C4
A    5
C5
A    6
C6
A    7
N1
A    8
N2
A    9
BR
A   10
C7
A   11
F1
A   12
F2
A   13
F3
M  END
