5AP0_AU5_A_1795
     RDKit          3D

 65 69  0  0  0  0  0  0  0  0999 V2000
   -2.8270   15.9450  -18.0020 O   0  0  0  0  0  0  0  0  0  0  0  0
   -2.0900   14.9910  -18.0040 C   0  0  0  0  0  0  0  0  0  0  0  0
   -1.7200   14.2580  -19.1490 N   0  0  0  0  0  0  0  0  0  0  0  0
   -2.1870   14.5570  -20.4880 C   0  0  0  0  0  0  0  0  0  0  0  0
   -0.8660   13.2240  -18.7590 C   0  0  0  0  0  0  0  0  0  0  0  0
   -0.2060   12.2150  -19.4200 C   0  0  0  0  0  0  0  0  0  0  0  0
    0.5460   11.3330  -18.7530 N   0  0  0  0  0  0  0  0  0  0  0  0
   -1.4500   14.3940  -16.8860 N   0  0  0  0  0  0  0  0  0  0  0  0
   -1.5440   14.8660  -15.4980 C   0  0  0  0  0  0  0  0  0  0  0  0
   -0.1740   15.2540  -14.9210 C   0  0  0  0  0  0  0  0  0  0  0  0
   -0.2530   14.9890  -13.4210 C   0  0  0  0  0  0  0  0  0  0  0  0
   -1.4040   14.0110  -13.1970 C   0  0  0  0  0  0  0  0  0  0  0  0
   -2.0660   13.7770  -14.5530 C   0  0  0  0  0  0  0  0  0  0  0  0
   -0.7050   13.3030  -17.3420 C   0  0  0  0  0  0  0  0  0  0  0  0
    0.0260   12.4520  -16.6030 N   0  0  0  0  0  0  0  0  0  0  0  0
    0.6140   11.4810  -17.3790 C   0  0  0  0  0  0  0  0  0  0  0  0
    1.3470   10.4800  -16.7780 N   0  0  0  0  0  0  0  0  0  0  0  0
    1.6090   10.2850  -15.4100 C   0  0  0  0  0  0  0  0  0  0  0  0
    1.5410    9.0290  -14.8180 C   0  0  0  0  0  0  0  0  0  0  0  0
    1.1650    7.9450  -15.5570 O   0  0  0  0  0  0  0  0  0  0  0  0
    2.1670    6.9660  -15.6410 C   0  0  0  0  0  0  0  0  0  0  0  0
    1.8240    8.8380  -13.4760 C   0  0  0  0  0  0  0  0  0  0  0  0
    2.1780    9.9320  -12.7180 C   0  0  0  0  0  0  0  0  0  0  0  0
    2.2370   11.2150  -13.2730 C   0  0  0  0  0  0  0  0  0  0  0  0
    1.9560   11.3860  -14.6160 C   0  0  0  0  0  0  0  0  0  0  0  0
    2.5420    9.7890  -11.4130 O   0  0  0  0  0  0  0  0  0  0  0  0
    1.8120   10.4910  -10.4350 C   0  0  0  0  0  0  0  0  0  0  0  0
    2.7030   10.5430   -9.1860 C   0  0  0  0  0  0  0  0  0  0  0  0
    1.8970   11.0810   -7.9990 C   0  0  0  0  0  0  0  0  0  0  0  0
    0.6960   10.2710   -7.6980 N   0  0  0  0  0  0  0  0  0  0  0  0
   -0.0420   10.7960   -6.5220 C   0  0  0  0  0  0  0  0  0  0  0  0
   -0.1520   10.1750   -8.9110 C   0  0  0  0  0  0  0  0  0  0  0  0
    0.5810    9.6250  -10.1480 C   0  0  0  0  0  0  0  0  0  0  0  0
   -3.1121   15.1493  -20.4300 H   0  0  0  0  0  0  0  0  0  0  0  0
   -1.4174   15.1307  -21.0252 H   0  0  0  0  0  0  0  0  0  0  0  0
   -2.3860   13.6179  -21.0252 H   0  0  0  0  0  0  0  0  0  0  0  0
   -0.2979   12.1321  -20.5130 H   0  0  0  0  0  0  0  0  0  0  0  0
   -2.2251   15.7282  -15.5500 H   0  0  0  0  0  0  0  0  0  0  0  0
    0.6184   14.6410  -15.3752 H   0  0  0  0  0  0  0  0  0  0  0  0
    0.0649   16.3072  -15.1298 H   0  0  0  0  0  0  0  0  0  0  0  0
    0.6904   14.5490  -13.0655 H   0  0  0  0  0  0  0  0  0  0  0  0
   -0.4209   15.9243  -12.8669 H   0  0  0  0  0  0  0  0  0  0  0  0
   -1.0195   13.0615  -12.7961 H   0  0  0  0  0  0  0  0  0  0  0  0
   -2.1267   14.4166  -12.4737 H   0  0  0  0  0  0  0  0  0  0  0  0
   -3.1594   13.8511  -14.4579 H   0  0  0  0  0  0  0  0  0  0  0  0
   -1.8290   12.7745  -14.9388 H   0  0  0  0  0  0  0  0  0  0  0  0
    1.7571    9.7825  -17.4153 H   0  0  0  0  0  0  0  0  0  0  0  0
    2.4732    6.6668  -14.6277 H   0  0  0  0  0  0  0  0  0  0  0  0
    1.7789    6.0895  -16.1806 H   0  0  0  0  0  0  0  0  0  0  0  0
    3.0343    7.3743  -16.1806 H   0  0  0  0  0  0  0  0  0  0  0  0
    1.7674    7.8359  -13.0259 H   0  0  0  0  0  0  0  0  0  0  0  0
    2.5043   12.0792  -12.6471 H   0  0  0  0  0  0  0  0  0  0  0  0
    2.0051   12.3900  -15.0626 H   0  0  0  0  0  0  0  0  0  0  0  0
    1.5203   11.5076  -10.7373 H   0  0  0  0  0  0  0  0  0  0  0  0
    3.0657    9.5310   -8.9531 H   0  0  0  0  0  0  0  0  0  0  0  0
    3.5589   11.2073   -9.3763 H   0  0  0  0  0  0  0  0  0  0  0  0
    2.5454   11.0892   -7.1105 H   0  0  0  0  0  0  0  0  0  0  0  0
    1.5528   12.0908   -8.2670 H   0  0  0  0  0  0  0  0  0  0  0  0
    0.4452   10.4494   -5.5987 H   0  0  0  0  0  0  0  0  0  0  0  0
   -0.0384   11.8957   -6.5479 H   0  0  0  0  0  0  0  0  0  0  0  0
   -1.0797   10.4320   -6.5479 H   0  0  0  0  0  0  0  0  0  0  0  0
   -0.9999    9.5107   -8.6881 H   0  0  0  0  0  0  0  0  0  0  0  0
   -0.4684   11.1989   -9.1588 H   0  0  0  0  0  0  0  0  0  0  0  0
   -0.0947    9.6481  -11.0157 H   0  0  0  0  0  0  0  0  0  0  0  0
    0.8963    8.5884   -9.9583 H   0  0  0  0  0  0  0  0  0  0  0  0
  1  2  2  0
  2  3  1  0
  2  8  1  0
  3  4  1  0
  3  5  1  0
  5  6  2  0
  5 14  1  0
  6  7  1  0
  7 16  2  0
  8  9  1  0
  8 14  1  0
  9 10  1  0
  9 13  1  0
 10 11  1  0
 11 12  1  0
 12 13  1  0
 14 15  2  0
 15 16  1  0
 16 17  1  0
 17 18  1  0
 18 19  2  0
 18 25  1  0
 19 20  1  0
 19 22  1  0
 20 21  1  0
 22 23  2  0
 23 24  1  0
 23 26  1  0
 24 25  2  0
 26 27  1  0
 27 28  1  0
 27 33  1  0
 28 29  1  0
 29 30  1  0
 30 31  1  0
 30 32  1  0
 32 33  1  0
  4 34  1  0
  4 35  1  0
  4 36  1  0
  6 37  1  0
  9 38  1  0
 10 39  1  0
 10 40  1  0
 11 41  1  0
 11 42  1  0
 12 43  1  0
 12 44  1  0
 13 45  1  0
 13 46  1  0
 17 47  1  0
 21 48  1  0
 21 49  1  0
 21 50  1  0
 22 51  1  0
 24 52  1  0
 25 53  1  0
 27 54  1  0
 28 55  1  0
 28 56  1  0
 29 57  1  0
 29 58  1  0
 31 59  1  0
 31 60  1  0
 31 61  1  0
 32 62  1  0
 32 63  1  0
 33 64  1  0
 33 65  1  0
A    1
O
A    2
C4
A    3
N2
A    4
C10
A    5
C2
A    6
C3
A    7
N
A    8
N3
A    9
C5
A   10
C9
A   11
C8
A   12
C7
A   13
C6
A   14
C1
A   15
N1
A   16
C
A   17
N4
A   18
C11
A   19
C16
A   20
O1
A   21
C17
A   22
C15
A   23
C14
A   24
C13
A   25
C12
A   26
O2
A   27
C18
A   28
C22
A   29
C21
A   30
N5
A   31
C23
A   32
C20
A   33
C19
M  END
