3ZLU_1KA_A_1543
     RDKit          3D

 15 14  0  0  0  0  0  0  0  0999 V2000
   45.6170   -1.8430    7.8160 C   0  0  0  0  0  0  0  0  0  0  0  0
   46.7920   -1.8690    8.5790 O   0  0  0  0  0  0  0  0  0  0  0  0
   44.6900   -3.0500    7.9500 C   0  0  0  0  0  0  0  0  0  0  0  0
   43.6110   -3.1440    7.0640 O   0  0  0  0  0  0  0  0  0  0  0  0
   43.6500   -4.0960    6.0380 C   0  0  0  0  0  0  0  0  0  0  0  0
   42.6280   -5.2330    6.0740 C   0  0  0  0  0  0  0  0  0  0  0  0
   42.6670   -6.1520    5.0160 O   0  0  0  0  0  0  0  0  0  0  0  0
   45.3747   -0.9977    7.1551 H   0  0  0  0  0  0  0  0  0  0  0  0
   44.2774   -3.0355    8.9696 H   0  0  0  0  0  0  0  0  0  0  0  0
   45.3243   -3.9154    7.7078 H   0  0  0  0  0  0  0  0  0  0  0  0
   44.6498   -4.5543    6.0550 H   0  0  0  0  0  0  0  0  0  0  0  0
   43.3993   -3.5301    5.1287 H   0  0  0  0  0  0  0  0  0  0  0  0
   41.6259   -4.7795    6.0840 H   0  0  0  0  0  0  0  0  0  0  0  0
   42.8788   -5.8170    6.9718 H   0  0  0  0  0  0  0  0  0  0  0  0
   42.7060   -7.0721    5.3794 H   0  0  0  0  0  0  0  0  0  0  0  0
  7  6  1  0
  6  5  1  0
  5  4  1  0
  3  4  1  0
  3  1  1  0
  1  2  2  0
  1  8  1  0
  3  9  1  0
  3 10  1  0
  5 11  1  0
  5 12  1  0
  6 13  1  0
  6 14  1  0
  7 15  1  0
A    1
C1
A    2
O1
A    3
C2
A    4
O2
A    5
C3
A    6
C4
A    7
O4
M  END
