2X9E_SVE_A_1796
     RDKit          3D

 88 93  0  0  0  0  0  0  0  0999 V2000
  -10.4810   24.7490   -2.5080 C   0  0  0  0  0  0  0  0  0  0  0  0
   -9.6860   25.9970   -1.9600 C   0  0  0  0  0  0  0  0  0  0  0  0
   -9.7410   23.4610   -2.3160 C   0  0  0  0  0  0  0  0  0  0  0  0
   -8.5820   23.3520   -1.7090 C   0  0  0  0  0  0  0  0  0  0  0  0
   -8.2170   21.9930   -1.7640 N   0  0  0  0  0  0  0  0  0  0  0  0
   -9.1780   21.3010   -2.4090 N   0  0  0  0  0  0  0  0  0  0  0  0
  -10.0900   22.1250   -2.7490 C   0  0  0  0  0  0  0  0  0  0  0  0
  -11.2660   21.7010   -3.4480 C   0  0  0  0  0  0  0  0  0  0  0  0
  -11.5020   20.3890   -3.4540 N   0  0  0  0  0  0  0  0  0  0  0  0
  -12.0170   22.5010   -4.0260 O   0  0  0  0  0  0  0  0  0  0  0  0
   -7.0250   21.3890   -1.2290 C   0  0  0  0  0  0  0  0  0  0  0  0
   -7.8760   24.4600   -1.0910 C   0  0  0  0  0  0  0  0  0  0  0  0
   -8.3930   25.7030   -1.1690 C   0  0  0  0  0  0  0  0  0  0  0  0
   -7.6600   26.7790   -0.4960 C   0  0  0  0  0  0  0  0  0  0  0  0
   -6.5640   26.5100    0.1280 N   0  0  0  0  0  0  0  0  0  0  0  0
   -6.0460   25.1740    0.1800 C   0  0  0  0  0  0  0  0  0  0  0  0
   -6.6770   24.2350   -0.3940 N   0  0  0  0  0  0  0  0  0  0  0  0
   -4.8500   24.8510    0.8600 N   0  0  0  0  0  0  0  0  0  0  0  0
   -4.1950   23.5840    1.0170 C   0  0  0  0  0  0  0  0  0  0  0  0
   -2.9030   23.5540    0.6770 C   0  0  0  0  0  0  0  0  0  0  0  0
   -2.1120   22.2880    0.8310 C   0  0  0  0  0  0  0  0  0  0  0  0
   -2.6970   21.1770    1.3090 C   0  0  0  0  0  0  0  0  0  0  0  0
   -4.1360   21.1910    1.6730 C   0  0  0  0  0  0  0  0  0  0  0  0
   -4.8550   22.3420    1.5360 C   0  0  0  0  0  0  0  0  0  0  0  0
   -2.3710   24.7760    0.1820 O   0  0  0  0  0  0  0  0  0  0  0  0
   -1.8990   19.9850    1.4880 C   0  0  0  0  0  0  0  0  0  0  0  0
   -2.2270   18.8240    0.8970 N   0  0  0  0  0  0  0  0  0  0  0  0
   -0.9040   20.0690    2.2390 O   0  0  0  0  0  0  0  0  0  0  0  0
   -1.4690   17.6020    1.1610 C   0  0  0  0  0  0  0  0  0  0  0  0
   -1.8810   16.5010    0.1340 C   0  0  0  0  0  0  0  0  0  0  0  0
   -1.1720   15.1540    0.4740 C   0  0  0  0  0  0  0  0  0  0  0  0
   -1.4920   14.7500    1.8840 N   0  0  0  0  0  0  0  0  0  0  0  0
   -0.9930   15.7620    2.8750 C   0  0  0  0  0  0  0  0  0  0  0  0
   -1.7160   17.1110    2.6370 C   0  0  0  0  0  0  0  0  0  0  0  0
   -0.8790   13.4350    2.1750 C   0  0  0  0  0  0  0  0  0  0  0  0
   -1.1730   25.2770    0.7460 C   0  0  0  0  0  0  0  0  0  0  0  0
   -0.1010   24.7050    0.0800 F   0  0  0  0  0  0  0  0  0  0  0  0
   -1.1040   24.9590    2.0900 F   0  0  0  0  0  0  0  0  0  0  0  0
   -1.1120   26.6650    0.6320 F   0  0  0  0  0  0  0  0  0  0  0  0
  -12.6450   19.7810   -3.9960 C   0  0  0  0  0  0  0  0  0  0  0  0
  -12.5880   19.3760   -5.2920 C   0  0  0  0  0  0  0  0  0  0  0  0
  -13.7770   18.7300   -5.9050 C   0  0  0  0  0  0  0  0  0  0  0  0
  -14.9090   18.5470   -5.1850 C   0  0  0  0  0  0  0  0  0  0  0  0
  -14.9800   18.9820   -3.7770 C   0  0  0  0  0  0  0  0  0  0  0  0
  -13.9110   19.5770   -3.1810 C   0  0  0  0  0  0  0  0  0  0  0  0
  -13.9640   20.0370   -1.7070 C   0  0  0  0  0  0  0  0  0  0  0  0
  -15.3040   19.7770   -0.9860 C   0  0  0  0  0  0  0  0  0  0  0  0
  -11.2890   19.5950   -6.0800 C   0  0  0  0  0  0  0  0  0  0  0  0
  -11.3400   19.0990   -7.5280 C   0  0  0  0  0  0  0  0  0  0  0  0
  -11.4428   24.6844   -1.9781 H   0  0  0  0  0  0  0  0  0  0  0  0
  -10.6206   24.8934   -3.5895 H   0  0  0  0  0  0  0  0  0  0  0  0
   -9.4141   26.6237   -2.8221 H   0  0  0  0  0  0  0  0  0  0  0  0
  -10.3634   26.4770   -1.2384 H   0  0  0  0  0  0  0  0  0  0  0  0
  -10.7922   19.7754   -3.0290 H   0  0  0  0  0  0  0  0  0  0  0  0
   -7.0652   21.4094   -0.1299 H   0  0  0  0  0  0  0  0  0  0  0  0
   -6.9554   20.3469   -1.5741 H   0  0  0  0  0  0  0  0  0  0  0  0
   -6.1435   21.9492   -1.5741 H   0  0  0  0  0  0  0  0  0  0  0  0
   -8.0425   27.8100   -0.5230 H   0  0  0  0  0  0  0  0  0  0  0  0
   -4.3763   25.6462    1.3118 H   0  0  0  0  0  0  0  0  0  0  0  0
   -1.0483   22.2696    0.5512 H   0  0  0  0  0  0  0  0  0  0  0  0
   -4.6198   20.2783    2.0511 H   0  0  0  0  0  0  0  0  0  0  0  0
   -5.9210   22.3589    1.8068 H   0  0  0  0  0  0  0  0  0  0  0  0
   -3.0256   18.7943    0.2472 H   0  0  0  0  0  0  0  0  0  0  0  0
   -0.3946   17.8093    1.0482 H   0  0  0  0  0  0  0  0  0  0  0  0
   -2.9709   16.3577    0.1728 H   0  0  0  0  0  0  0  0  0  0  0  0
   -1.5796   16.8204   -0.8745 H   0  0  0  0  0  0  0  0  0  0  0  0
   -1.5215   14.3731   -0.2174 H   0  0  0  0  0  0  0  0  0  0  0  0
   -0.0842   15.2813    0.3717 H   0  0  0  0  0  0  0  0  0  0  0  0
   -1.1999   15.4093    3.8962 H   0  0  0  0  0  0  0  0  0  0  0  0
    0.0913   15.8977    2.7489 H   0  0  0  0  0  0  0  0  0  0  0  0
   -1.3269   17.8618    3.3405 H   0  0  0  0  0  0  0  0  0  0  0  0
   -2.7959   16.9747    2.7960 H   0  0  0  0  0  0  0  0  0  0  0  0
   -0.8133   13.2940    3.2639 H   0  0  0  0  0  0  0  0  0  0  0  0
   -1.4981   12.6373    1.7387 H   0  0  0  0  0  0  0  0  0  0  0  0
    0.1300   13.3962    1.7387 H   0  0  0  0  0  0  0  0  0  0  0  0
  -13.7374   18.3975   -6.9528 H   0  0  0  0  0  0  0  0  0  0  0  0
  -15.7826   18.0702   -5.6535 H   0  0  0  0  0  0  0  0  0  0  0  0
  -15.9054   18.8239   -3.2038 H   0  0  0  0  0  0  0  0  0  0  0  0
  -13.1727   19.5072   -1.1564 H   0  0  0  0  0  0  0  0  0  0  0  0
  -13.8322   21.1290   -1.7227 H   0  0  0  0  0  0  0  0  0  0  0  0
  -15.1468   19.8075    0.1023 H   0  0  0  0  0  0  0  0  0  0  0  0
  -16.0311   20.5508   -1.2733 H   0  0  0  0  0  0  0  0  0  0  0  0
  -15.6890   18.7874   -1.2733 H   0  0  0  0  0  0  0  0  0  0  0  0
  -11.0710   20.6731   -6.0925 H   0  0  0  0  0  0  0  0  0  0  0  0
  -10.5096   19.0075   -5.5727 H   0  0  0  0  0  0  0  0  0  0  0  0
  -11.4525   18.0048   -7.5370 H   0  0  0  0  0  0  0  0  0  0  0  0
  -12.1955   19.5598   -8.0435 H   0  0  0  0  0  0  0  0  0  0  0  0
  -10.4086   19.3761   -8.0435 H   0  0  0  0  0  0  0  0  0  0  0  0
  1  2  1  0
  1  3  1  0
  2 13  1  0
  3  4  2  0
  3  7  1  0
  4  5  1  0
  4 12  1  0
  5  6  1  0
  5 11  1  0
  6  7  2  0
  7  8  1  0
  8  9  1  0
  8 10  2  0
  9 40  1  0
 12 13  2  0
 12 17  1  0
 13 14  1  0
 14 15  2  0
 15 16  1  0
 16 17  2  0
 16 18  1  0
 18 19  1  0
 19 20  2  0
 19 24  1  0
 20 21  1  0
 20 25  1  0
 21 22  2  0
 22 23  1  0
 22 26  1  0
 23 24  2  0
 25 36  1  0
 26 27  1  0
 26 28  2  0
 27 29  1  0
 29 30  1  0
 29 34  1  0
 30 31  1  0
 31 32  1  0
 32 33  1  0
 32 35  1  0
 33 34  1  0
 36 37  1  0
 36 38  1  0
 36 39  1  0
 40 41  2  0
 40 45  1  0
 41 42  1  0
 41 48  1  0
 42 43  2  0
 43 44  1  0
 44 45  2  0
 45 46  1  0
 46 47  1  0
 48 49  1  0
  1 50  1  0
  1 51  1  0
  2 52  1  0
  2 53  1  0
  9 54  1  0
 11 55  1  0
 11 56  1  0
 11 57  1  0
 14 58  1  0
 18 59  1  0
 21 60  1  0
 23 61  1  0
 24 62  1  0
 27 63  1  0
 29 64  1  0
 30 65  1  0
 30 66  1  0
 31 67  1  0
 31 68  1  0
 33 69  1  0
 33 70  1  0
 34 71  1  0
 34 72  1  0
 35 73  1  0
 35 74  1  0
 35 75  1  0
 42 76  1  0
 43 77  1  0
 44 78  1  0
 46 79  1  0
 46 80  1  0
 47 81  1  0
 47 82  1  0
 47 83  1  0
 48 84  1  0
 48 85  1  0
 49 86  1  0
 49 87  1  0
 49 88  1  0
A    1
C1
A    2
C2
A    3
C3
A    4
C4
A    5
N5
A    6
N6
A    7
C7
A    8
C8
A    9
N9
A   10
O10
A   11
C11
A   12
C12
A   13
C13
A   14
C14
A   15
N15
A   16
C16
A   17
N17
A   18
N18
A   19
C19
A   20
C20
A   21
C21
A   22
C22
A   23
C23
A   24
C24
A   25
O25
A   26
C26
A   27
N27
A   28
O28
A   29
C29
A   30
C30
A   31
C31
A   32
N32
A   33
C33
A   34
C34
A   35
C35
A   36
C36
A   37
F37
A   38
F38
A   39
F39
A   40
C40
A   41
C41
A   42
C42
A   43
C43
A   44
C44
A   45
C45
A   46
C46
A   47
C47
A   48
C48
A   49
C49
M  END
