5APH_VYI_A_1510
     RDKit          3D

 47 50  0  0  0  0  0  0  0  0999 V2000
  -25.6650   12.5950  -15.7010 C   0  0  0  0  0  0  0  0  0  0  0  0
  -24.7230   13.3370  -15.0190 C   0  0  0  0  0  0  0  0  0  0  0  0
  -24.3830    7.8940  -18.3070 C   0  0  0  0  0  0  0  0  0  0  0  0
  -25.6380   11.2180  -15.6400 C   0  0  0  0  0  0  0  0  0  0  0  0
  -24.3980    8.7450  -17.2240 C   0  0  0  0  0  0  0  0  0  0  0  0
  -24.5420    6.5410  -18.1160 C   0  0  0  0  0  0  0  0  0  0  0  0
  -23.7470   12.7160  -14.2740 C   0  0  0  0  0  0  0  0  0  0  0  0
  -29.6720    6.7630  -16.7530 C   0  0  0  0  0  0  0  0  0  0  0  0
  -28.5850    8.8530  -16.2500 C   0  0  0  0  0  0  0  0  0  0  0  0
  -29.0680    6.1880  -15.6540 C   0  0  0  0  0  0  0  0  0  0  0  0
  -27.9750    8.2820  -15.1500 C   0  0  0  0  0  0  0  0  0  0  0  0
  -24.7480    6.8980  -15.7370 C   0  0  0  0  0  0  0  0  0  0  0  0
  -24.5780    8.2690  -15.9390 C   0  0  0  0  0  0  0  0  0  0  0  0
  -24.6460   10.5780  -14.9190 C   0  0  0  0  0  0  0  0  0  0  0  0
  -24.7250    6.0530  -16.8390 C   0  0  0  0  0  0  0  0  0  0  0  0
  -29.4250    8.0880  -17.0390 C   0  0  0  0  0  0  0  0  0  0  0  0
  -23.7210   11.3430  -14.2330 C   0  0  0  0  0  0  0  0  0  0  0  0
  -28.2100    6.9470  -14.8800 C   0  0  0  0  0  0  0  0  0  0  0  0
  -24.9240    6.3630  -14.3410 C   0  0  0  0  0  0  0  0  0  0  0  0
  -26.0460    4.1800  -14.7900 C   0  0  0  0  0  0  0  0  0  0  0  0
  -26.1730    4.4030  -16.2810 C   0  0  0  0  0  0  0  0  0  0  0  0
  -25.9760    5.3790  -13.9060 N   0  0  0  0  0  0  0  0  0  0  0  0
  -24.6000    9.1680  -14.8470 N   0  0  0  0  0  0  0  0  0  0  0  0
  -27.1080    7.2700  -12.5390 O   0  0  0  0  0  0  0  0  0  0  0  0
  -28.3590    5.1530  -13.0420 O   0  0  0  0  0  0  0  0  0  0  0  0
  -24.8550    4.6740  -16.7310 O   0  0  0  0  0  0  0  0  0  0  0  0
  -30.0210    8.6450  -18.1050 F   0  0  0  0  0  0  0  0  0  0  0  0
  -22.7400   10.7660  -13.5270 F   0  0  0  0  0  0  0  0  0  0  0  0
  -27.4370    6.1910  -13.4590 S   0  0  0  0  0  0  0  0  0  0  0  0
  -26.4392   13.1031  -16.2947 H   0  0  0  0  0  0  0  0  0  0  0  0
  -24.7524   14.4354  -15.0713 H   0  0  0  0  0  0  0  0  0  0  0  0
  -24.2443    8.2952  -19.3218 H   0  0  0  0  0  0  0  0  0  0  0  0
  -26.4047   10.6287  -16.1643 H   0  0  0  0  0  0  0  0  0  0  0  0
  -24.2641    9.8249  -17.3850 H   0  0  0  0  0  0  0  0  0  0  0  0
  -24.5233    5.8539  -18.9748 H   0  0  0  0  0  0  0  0  0  0  0  0
  -23.0019   13.3075  -13.7218 H   0  0  0  0  0  0  0  0  0  0  0  0
  -30.3426    6.1709  -17.3931 H   0  0  0  0  0  0  0  0  0  0  0  0
  -28.4039    9.9095  -16.4970 H   0  0  0  0  0  0  0  0  0  0  0  0
  -29.2669    5.1372  -15.3964 H   0  0  0  0  0  0  0  0  0  0  0  0
  -27.3155    8.8778  -14.5019 H   0  0  0  0  0  0  0  0  0  0  0  0
  -23.9630    5.8915  -14.0876 H   0  0  0  0  0  0  0  0  0  0  0  0
  -25.2869    7.2687  -13.8330 H   0  0  0  0  0  0  0  0  0  0  0  0
  -26.9181    3.5898  -14.4721 H   0  0  0  0  0  0  0  0  0  0  0  0
  -25.0682    3.6912  -14.6677 H   0  0  0  0  0  0  0  0  0  0  0  0
  -26.5710    3.5032  -16.7729 H   0  0  0  0  0  0  0  0  0  0  0  0
  -26.8645    5.2256  -16.5159 H   0  0  0  0  0  0  0  0  0  0  0  0
  -24.5805    8.7527  -13.9046 H   0  0  0  0  0  0  0  0  0  0  0  0
  1  2  2  0
  1  4  1  0
  2  7  1  0
  3  5  2  0
  3  6  1  0
  4 14  2  0
  5 13  1  0
  6 15  2  0
  7 17  2  0
  8 10  2  0
  8 16  1  0
  9 11  1  0
  9 16  2  0
 10 18  1  0
 11 18  2  0
 12 13  2  0
 12 15  1  0
 12 19  1  0
 13 23  1  0
 14 17  1  0
 14 23  1  0
 15 26  1  0
 16 27  1  0
 17 28  1  0
 18 29  1  0
 19 22  1  0
 20 21  1  0
 20 22  1  0
 21 26  1  0
 22 29  1  0
 24 29  2  0
 25 29  2  0
  1 30  1  0
  2 31  1  0
  3 32  1  0
  4 33  1  0
  5 34  1  0
  6 35  1  0
  7 36  1  0
  8 37  1  0
  9 38  1  0
 10 39  1  0
 11 40  1  0
 19 41  1  0
 19 42  1  0
 20 43  1  0
 20 44  1  0
 21 45  1  0
 21 46  1  0
 23 47  1  0
A    1
C1
A    2
C2
A    3
C3
A    4
C4
A    5
C5
A    6
C6
A    7
C7
A    8
C8
A    9
C9
A   10
C10
A   11
C11
A   12
C12
A   13
C13
A   14
C14
A   15
C15
A   16
C16
A   17
C17
A   18
C18
A   19
C19
A   20
C20
A   21
C21
A   22
N22
A   23
N23
A   24
O24
A   25
O25
A   26
O26
A   27
F27
A   28
F28
A   29
S29
M  END
