5AQH_ZVO_A_1382
     RDKit          3D

 22 24  0  0  0  0  0  0  0  0999 V2000
    0.9930    8.6380   33.6350 C   0  0  0  0  0  0  0  0  0  0  0  0
   -0.0710    7.7980   33.0480 N   0  0  0  0  0  0  0  0  0  0  0  0
   -0.0390    6.4250   33.1840 C   0  0  0  0  0  0  0  0  0  0  0  0
   -0.2760    3.6570   33.3060 N   0  0  0  0  0  0  0  0  0  0  0  0
   -1.1120    5.7660   32.5910 C   0  0  0  0  0  0  0  0  0  0  0  0
    0.8990    5.6660   33.8330 N   0  0  0  0  0  0  0  0  0  0  0  0
   -1.2080    4.3660   32.6690 C   0  0  0  0  0  0  0  0  0  0  0  0
   -2.3860    4.0390   32.0010 N   0  0  0  0  0  0  0  0  0  0  0  0
    0.7160    4.3650   33.8470 C   0  0  0  0  0  0  0  0  0  0  0  0
   -1.0860    8.4700   32.3750 N   0  0  0  0  0  0  0  0  0  0  0  0
   -2.9910    5.2350   31.5230 C   0  0  0  0  0  0  0  0  0  0  0  0
   -3.1020    8.4720   31.2020 N   0  0  0  0  0  0  0  0  0  0  0  0
   -2.2070    6.3120   31.8850 C   0  0  0  0  0  0  0  0  0  0  0  0
   -2.1080    7.7630   31.8240 C   0  0  0  0  0  0  0  0  0  0  0  0
    0.9336    8.5911   34.7324 H   0  0  0  0  0  0  0  0  0  0  0  0
    1.9754    8.2692   33.3048 H   0  0  0  0  0  0  0  0  0  0  0  0
    0.8623    9.6791   33.3048 H   0  0  0  0  0  0  0  0  0  0  0  0
   -2.7582    3.0871   31.8739 H   0  0  0  0  0  0  0  0  0  0  0  0
    1.4841    3.7817   34.3759 H   0  0  0  0  0  0  0  0  0  0  0  0
   -3.9320    5.2921   30.9562 H   0  0  0  0  0  0  0  0  0  0  0  0
   -3.8052    8.9736   31.7630 H   0  0  0  0  0  0  0  0  0  0  0  0
   -3.1459    8.5033   30.1734 H   0  0  0  0  0  0  0  0  0  0  0  0
  1  2  1  0
  2  3  1  0
  2 10  1  0
  3  5  2  0
  3  6  1  0
  4  7  2  0
  4  9  1  0
  5  7  1  0
  5 13  1  0
  6  9  2  0
  7  8  1  0
  8 11  1  0
 10 14  2  0
 11 13  2  0
 12 14  1  0
 13 14  1  0
  1 15  1  0
  1 16  1  0
  1 17  1  0
  8 18  1  0
  9 19  1  0
 11 20  1  0
 12 21  1  0
 12 22  1  0
A    1
C
A    2
N
A    3
C1
A    4
N1
A    5
C2
A    6
N2
A    7
C3
A    8
N3
A    9
C4
A   10
N4
A   11
C5
A   12
N5
A   13
C6
A   14
C7
M  END
