4BDE_CWS_A_1515
     RDKit          3D

 21 22  0  0  0  0  0  0  0  0999 V2000
  -37.8500   34.5170    5.0430 N   0  0  0  0  0  0  0  0  0  0  0  0
  -38.6020   33.4710    4.7200 C   0  0  0  0  0  0  0  0  0  0  0  0
  -38.9000   32.3980    5.4580 N   0  0  0  0  0  0  0  0  0  0  0  0
  -38.3890   32.3740    6.7370 C   0  0  0  0  0  0  0  0  0  0  0  0
  -36.9540   33.5380    8.5280 C   0  0  0  0  0  0  0  0  0  0  0  0
  -36.1370   34.5900    8.8800 C   0  0  0  0  0  0  0  0  0  0  0  0
  -35.9200   35.6030    7.9440 C   0  0  0  0  0  0  0  0  0  0  0  0
  -36.4670   35.5620    6.6950 C   0  0  0  0  0  0  0  0  0  0  0  0
  -37.5550   33.4480    7.2390 C   0  0  0  0  0  0  0  0  0  0  0  0
  -37.3110   34.4950    6.3070 C   0  0  0  0  0  0  0  0  0  0  0  0
  -35.4280   34.6140   10.2140 C   0  0  0  0  0  0  0  0  0  0  0  0
  -38.7080   31.3080    7.5030 N   0  0  0  0  0  0  0  0  0  0  0  0
  -39.0376   33.4908    3.7101 H   0  0  0  0  0  0  0  0  0  0  0  0
  -37.1482   32.7438    9.2639 H   0  0  0  0  0  0  0  0  0  0  0  0
  -35.2889   36.4600    8.2221 H   0  0  0  0  0  0  0  0  0  0  0  0
  -36.2490   36.3692    5.9802 H   0  0  0  0  0  0  0  0  0  0  0  0
  -36.1711   34.5888   11.0247 H   0  0  0  0  0  0  0  0  0  0  0  0
  -34.7680   33.7377   10.2943 H   0  0  0  0  0  0  0  0  0  0  0  0
  -34.8288   35.5329   10.2943 H   0  0  0  0  0  0  0  0  0  0  0  0
  -38.6846   31.3862    8.5298 H   0  0  0  0  0  0  0  0  0  0  0  0
  -38.9746   30.4170    7.0603 H   0  0  0  0  0  0  0  0  0  0  0  0
  1  2  2  0
  1 10  1  0
  2  3  1  0
  3  4  2  0
  4  9  1  0
  4 12  1  0
  5  6  1  0
  5  9  2  0
  6  7  2  0
  6 11  1  0
  7  8  1  0
  8 10  2  0
  9 10  1  0
  2 13  1  0
  5 14  1  0
  7 15  1  0
  8 16  1  0
 11 17  1  0
 11 18  1  0
 11 19  1  0
 12 20  1  0
 12 21  1  0
A    1
N1
A    2
C2
A    3
N3
A    4
C4
A    5
C5
A    6
C6
A    7
C7
A    8
C8
A    9
C4A
A   10
C8A
A   11
C11
A   12
NA4
M  END
