2OHK_1SQ_A_390
     RDKit          3D

 19 20  0  0  0  0  0  0  0  0999 V2000
   66.6510   49.0460    6.1240 N   0  0  0  0  0  0  0  0  0  0  0  0
   67.4210   49.0870    7.2440 C   0  0  0  0  0  0  0  0  0  0  0  0
   67.8830   50.2920    7.6400 N   0  0  0  0  0  0  0  0  0  0  0  0
   68.6510   50.3330    8.7350 C   0  0  0  0  0  0  0  0  0  0  0  0
   68.9550   49.2220    9.4970 C   0  0  0  0  0  0  0  0  0  0  0  0
   68.4550   47.9810    9.1330 C   0  0  0  0  0  0  0  0  0  0  0  0
   68.7150   46.8260    9.8620 C   0  0  0  0  0  0  0  0  0  0  0  0
   68.1960   45.6130    9.4540 C   0  0  0  0  0  0  0  0  0  0  0  0
   67.4250   45.5400    8.3140 C   0  0  0  0  0  0  0  0  0  0  0  0
   67.1560   46.6740    7.5840 C   0  0  0  0  0  0  0  0  0  0  0  0
   67.6570   47.9060    7.9780 C   0  0  0  0  0  0  0  0  0  0  0  0
   65.6257   48.9914    6.2056 H   0  0  0  0  0  0  0  0  0  0  0  0
   67.0930   49.0695    5.1940 H   0  0  0  0  0  0  0  0  0  0  0  0
   69.0627   51.3047    9.0452 H   0  0  0  0  0  0  0  0  0  0  0  0
   69.5911   49.3212   10.3889 H   0  0  0  0  0  0  0  0  0  0  0  0
   69.3369   46.8786   10.7678 H   0  0  0  0  0  0  0  0  0  0  0  0
   68.3982   44.7040   10.0396 H   0  0  0  0  0  0  0  0  0  0  0  0
   67.0228   44.5700    7.9864 H   0  0  0  0  0  0  0  0  0  0  0  0
   66.5367   46.6033    6.6776 H   0  0  0  0  0  0  0  0  0  0  0  0
  1  2  1  0
  2  3  2  0
  2 11  1  0
  3  4  1  0
  4  5  2  0
  5  6  1  0
  6 11  2  0
  6  7  1  0
  7  8  2  0
  8  9  1  0
  9 10  2  0
 10 11  1  0
  1 12  1  0
  1 13  1  0
  4 14  1  0
  5 15  1  0
  7 16  1  0
  8 17  1  0
  9 18  1  0
 10 19  1  0
A    1
N1
A    2
C2
A    3
N3
A    4
C4
A    5
C5
A    6
C6
A    7
C7
A    8
C8
A    9
C9
A   10
C10
A   11
C11
M  END
