3NYN_SGV_A_577
     RDKit          3D

 37 39  0  0  0  0  0  0  0  0999 V2000
  -71.0400   17.4850   19.2790 N   0  0  0  0  0  0  0  0  0  0  0  0
  -70.8730   16.1870   19.6080 C   0  0  0  0  0  0  0  0  0  0  0  0
  -71.7270   15.5070   20.4030 N   0  0  0  0  0  0  0  0  0  0  0  0
  -72.8280   16.1000   20.9250 C   0  0  0  0  0  0  0  0  0  0  0  0
  -73.0750   17.5150   20.6080 C   0  0  0  0  0  0  0  0  0  0  0  0
  -72.0930   18.1970   19.7300 C   0  0  0  0  0  0  0  0  0  0  0  0
  -72.2190   19.4890   19.3770 N   0  0  0  0  0  0  0  0  0  0  0  0
  -74.3250   17.7920   21.3380 C   0  0  0  0  0  0  0  0  0  0  0  0
  -74.7050   16.6360   21.9800 C   0  0  0  0  0  0  0  0  0  0  0  0
  -73.8140   15.6580   21.7210 N   0  0  0  0  0  0  0  0  0  0  0  0
  -73.8830   14.2680   22.2410 C   0  0  0  0  0  0  0  0  0  0  0  0
  -74.9420   19.1440   21.2910 C   0  0  0  0  0  0  0  0  0  0  0  0
  -76.2630   19.2410   21.3460 N   0  0  0  0  0  0  0  0  0  0  0  0
  -74.2430   20.1360   21.2110 O   0  0  0  0  0  0  0  0  0  0  0  0
  -72.9320   14.1990   23.4170 C   0  0  0  0  0  0  0  0  0  0  0  0
  -72.3830   12.8800   23.5330 O   0  0  0  0  0  0  0  0  0  0  0  0
  -73.8230   14.5680   24.5760 C   0  0  0  0  0  0  0  0  0  0  0  0
  -73.3520   13.9840   25.7870 O   0  0  0  0  0  0  0  0  0  0  0  0
  -75.1980   14.0400   24.1790 C   0  0  0  0  0  0  0  0  0  0  0  0
  -75.1820   13.9410   22.7520 O   0  0  0  0  0  0  0  0  0  0  0  0
  -76.3780   14.8950   24.6580 C   0  0  0  0  0  0  0  0  0  0  0  0
  -75.9990   15.7710   25.7400 O   0  0  0  0  0  0  0  0  0  0  0  0
  -69.9966   15.6558   19.2083 H   0  0  0  0  0  0  0  0  0  0  0  0
  -72.2900   20.2166   20.1026 H   0  0  0  0  0  0  0  0  0  0  0  0
  -72.2445   19.7506   18.3811 H   0  0  0  0  0  0  0  0  0  0  0  0
  -75.6004   16.5263   22.6094 H   0  0  0  0  0  0  0  0  0  0  0  0
  -73.6408   13.5754   21.4215 H   0  0  0  0  0  0  0  0  0  0  0  0
  -76.7393   19.2760   22.2586 H   0  0  0  0  0  0  0  0  0  0  0  0
  -76.8131   19.2814   20.4761 H   0  0  0  0  0  0  0  0  0  0  0  0
  -72.0555   14.8593   23.3406 H   0  0  0  0  0  0  0  0  0  0  0  0
  -72.2856   12.6461   24.4900 H   0  0  0  0  0  0  0  0  0  0  0  0
  -73.8449   15.6506   24.7695 H   0  0  0  0  0  0  0  0  0  0  0  0
  -73.7410   14.4663   26.5591 H   0  0  0  0  0  0  0  0  0  0  0  0
  -75.3644   13.0711   24.6726 H   0  0  0  0  0  0  0  0  0  0  0  0
  -76.7412   15.5040   23.8171 H   0  0  0  0  0  0  0  0  0  0  0  0
  -77.1645   14.2188   25.0243 H   0  0  0  0  0  0  0  0  0  0  0  0
  -76.1903   15.3289   26.6049 H   0  0  0  0  0  0  0  0  0  0  0  0
  1  2  2  0
  1  6  1  0
  2  3  1  0
  3  4  2  0
  4  5  1  0
  4 10  1  0
  5  6  2  0
  5  8  1  0
  6  7  1  0
  8  9  2  0
  8 12  1  0
  9 10  1  0
 10 11  1  0
 11 15  1  0
 11 20  1  0
 12 13  1  0
 12 14  2  0
 15 16  1  0
 15 17  1  0
 17 18  1  0
 17 19  1  0
 19 20  1  0
 19 21  1  0
 21 22  1  0
  2 23  1  0
  7 24  1  0
  7 25  1  0
  9 26  1  0
 11 27  1  0
 13 28  1  0
 13 29  1  0
 15 30  1  0
 16 31  1  0
 17 32  1  0
 18 33  1  0
 19 34  1  0
 21 35  1  0
 21 36  1  0
 22 37  1  0
A    1
N1
A    2
C2
A    3
N3
A    4
C4
A    5
C5
A    6
C6
A    7
N6
A    8
C7
A    9
C8
A   10
N9
A   11
C1'
A   12
C10
A   13
N11
A   14
O12
A   15
C2'
A   16
O2'
A   17
C3'
A   18
O3'
A   19
C4'
A   20
O4'
A   21
C5'
A   22
O5'
M  END
