5AR5_IQ7_A_1312
     RDKit          3D

 56 59  0  0  0  0  0  0  0  0999 V2000
  -73.4100   19.5310   -6.1820 C   0  0  0  0  0  0  0  0  0  0  0  0
  -72.6800   19.3180   -7.3840 O   0  0  0  0  0  0  0  0  0  0  0  0
  -72.0090   20.5260   -7.7270 C   0  0  0  0  0  0  0  0  0  0  0  0
  -71.3340   20.3400   -9.0710 C   0  0  0  0  0  0  0  0  0  0  0  0
  -69.9490   19.9570   -8.9200 N   0  0  0  0  0  0  0  0  0  0  0  0
  -68.9560   20.7460   -9.3490 C   0  0  0  0  0  0  0  0  0  0  0  0
  -69.1170   21.6810  -10.1200 O   0  0  0  0  0  0  0  0  0  0  0  0
  -67.5950   20.4030   -8.8040 C   0  0  0  0  0  0  0  0  0  0  0  0
  -66.7570   21.4180   -8.3880 C   0  0  0  0  0  0  0  0  0  0  0  0
  -65.5070   21.1220   -7.8890 C   0  0  0  0  0  0  0  0  0  0  0  0
  -65.1200   19.8020   -7.8170 C   0  0  0  0  0  0  0  0  0  0  0  0
  -63.9710   19.1980   -7.3770 N   0  0  0  0  0  0  0  0  0  0  0  0
  -62.8370   19.9190   -6.8390 C   0  0  0  0  0  0  0  0  0  0  0  0
  -62.8540   19.9140   -5.3260 C   0  0  0  0  0  0  0  0  0  0  0  0
  -61.7120   20.5810   -4.8000 O   0  0  0  0  0  0  0  0  0  0  0  0
  -60.6660   19.6320   -4.5870 C   0  0  0  0  0  0  0  0  0  0  0  0
  -64.1800   17.8410   -7.5540 C   0  0  0  0  0  0  0  0  0  0  0  0
  -65.3590   17.5630   -8.0630 N   0  0  0  0  0  0  0  0  0  0  0  0
  -65.9580   18.7810   -8.2300 C   0  0  0  0  0  0  0  0  0  0  0  0
  -67.2090   19.0830   -8.7330 C   0  0  0  0  0  0  0  0  0  0  0  0
  -63.2190   16.7950   -7.2590 C   0  0  0  0  0  0  0  0  0  0  0  0
  -62.9470   15.6360   -7.9440 C   0  0  0  0  0  0  0  0  0  0  0  0
  -61.9680   14.9400   -7.2800 N   0  0  0  0  0  0  0  0  0  0  0  0
  -61.6550   15.6660   -6.2240 C   0  0  0  0  0  0  0  0  0  0  0  0
  -62.3940   16.8150   -6.1710 N   0  0  0  0  0  0  0  0  0  0  0  0
  -60.6670   15.2620   -5.2010 C   0  0  0  0  0  0  0  0  0  0  0  0
  -59.8490   14.1730   -5.4280 C   0  0  0  0  0  0  0  0  0  0  0  0
  -58.9560   13.7620   -4.4640 C   0  0  0  0  0  0  0  0  0  0  0  0
  -58.8800   14.4360   -3.2610 C   0  0  0  0  0  0  0  0  0  0  0  0
  -57.7580   13.8900   -2.0500 Cl  0  0  0  0  0  0  0  0  0  0  0  0
  -59.6870   15.5310   -3.0270 C   0  0  0  0  0  0  0  0  0  0  0  0
  -60.5810   15.9390   -3.9960 C   0  0  0  0  0  0  0  0  0  0  0  0
  -72.7568   19.3404   -5.3177 H   0  0  0  0  0  0  0  0  0  0  0  0
  -73.7673   20.5708   -6.1494 H   0  0  0  0  0  0  0  0  0  0  0  0
  -74.2704   18.8465   -6.1494 H   0  0  0  0  0  0  0  0  0  0  0  0
  -72.7361   21.3491   -7.7884 H   0  0  0  0  0  0  0  0  0  0  0  0
  -71.2586   20.7695   -6.9604 H   0  0  0  0  0  0  0  0  0  0  0  0
  -71.8629   19.5547   -9.6309 H   0  0  0  0  0  0  0  0  0  0  0  0
  -71.3701   21.2979   -9.6106 H   0  0  0  0  0  0  0  0  0  0  0  0
  -69.7207   19.0577   -8.4727 H   0  0  0  0  0  0  0  0  0  0  0  0
  -67.0876   22.4650   -8.4549 H   0  0  0  0  0  0  0  0  0  0  0  0
  -64.8319   21.9237   -7.5549 H   0  0  0  0  0  0  0  0  0  0  0  0
  -61.9096   19.4422   -7.1891 H   0  0  0  0  0  0  0  0  0  0  0  0
  -62.8910   20.9618   -7.1848 H   0  0  0  0  0  0  0  0  0  0  0  0
  -63.7625   20.4253   -4.9749 H   0  0  0  0  0  0  0  0  0  0  0  0
  -62.8403   18.8702   -4.9792 H   0  0  0  0  0  0  0  0  0  0  0  0
  -60.5120   19.4923   -3.5068 H   0  0  0  0  0  0  0  0  0  0  0  0
  -60.9437   18.6712   -5.0451 H   0  0  0  0  0  0  0  0  0  0  0  0
  -59.7367   20.0016   -5.0451 H   0  0  0  0  0  0  0  0  0  0  0  0
  -67.8846   18.2833   -9.0707 H   0  0  0  0  0  0  0  0  0  0  0  0
  -63.4359   15.3165   -8.8762 H   0  0  0  0  0  0  0  0  0  0  0  0
  -62.3393   17.5507   -5.4522 H   0  0  0  0  0  0  0  0  0  0  0  0
  -59.9111   13.6313   -6.3834 H   0  0  0  0  0  0  0  0  0  0  0  0
  -58.3031   12.8969   -4.6520 H   0  0  0  0  0  0  0  0  0  0  0  0
  -59.6180   16.0754   -2.0736 H   0  0  0  0  0  0  0  0  0  0  0  0
  -61.2296   16.8078   -3.8099 H   0  0  0  0  0  0  0  0  0  0  0  0
  1  2  1  0
  2  3  1  0
  3  4  1  0
  4  5  1  0
  5  6  1  0
  6  7  2  0
  6  8  1  0
  8  9  2  0
  8 20  1  0
  9 10  1  0
 10 11  2  0
 11 12  1  0
 11 19  1  0
 12 13  1  0
 12 17  1  0
 13 14  1  0
 14 15  1  0
 15 16  1  0
 17 18  2  0
 17 21  1  0
 18 19  1  0
 19 20  2  0
 21 22  2  0
 21 25  1  0
 22 23  1  0
 23 24  2  0
 24 25  1  0
 24 26  1  0
 26 27  2  0
 26 32  1  0
 27 28  1  0
 28 29  2  0
 29 30  1  0
 29 31  1  0
 31 32  2  0
  1 33  1  0
  1 34  1  0
  1 35  1  0
  3 36  1  0
  3 37  1  0
  4 38  1  0
  4 39  1  0
  5 40  1  0
  9 41  1  0
 10 42  1  0
 13 43  1  0
 13 44  1  0
 14 45  1  0
 14 46  1  0
 16 47  1  0
 16 48  1  0
 16 49  1  0
 20 50  1  0
 22 51  1  0
 25 52  1  0
 27 53  1  0
 28 54  1  0
 31 55  1  0
 32 56  1  0
A    1
C1
A    2
O2
A    3
C3
A    4
C4
A    5
N5
A    6
C6
A    7
O7
A    8
C8
A    9
C9
A   10
C10
A   11
C11
A   12
N12
A   13
C13
A   14
C14
A   15
O15
A   16
C16
A   17
C17
A   18
N18
A   19
C19
A   20
C20
A   21
C21
A   22
C22
A   23
N23
A   24
C24
A   25
N25
A   26
C26
A   27
C27
A   28
C28
A   29
C29
A   30
CL30
A   31
C31
A   32
C32
M  END
