5AR7_SR8_A_1311
     RDKit          3D

 46 48  0  0  0  0  0  0  0  0999 V2000
   56.2320  -61.6840   12.8020 O   0  0  0  0  0  0  0  0  0  0  0  0
   56.0770  -62.8150   12.3500 C   0  0  0  0  0  0  0  0  0  0  0  0
   56.5590  -63.1960   11.0770 N   0  0  0  0  0  0  0  0  0  0  0  0
   57.2520  -62.3420   10.1980 C   0  0  0  0  0  0  0  0  0  0  0  0
   57.5850  -60.9840   10.3320 C   0  0  0  0  0  0  0  0  0  0  0  0
   58.2430  -60.6420    9.2130 C   0  0  0  0  0  0  0  0  0  0  0  0
   58.8850  -59.3850    8.6720 C   0  0  0  0  0  0  0  0  0  0  0  0
   58.7230  -58.2280    9.6470 C   0  0  0  0  0  0  0  0  0  0  0  0
   60.3730  -59.6430    8.4280 C   0  0  0  0  0  0  0  0  0  0  0  0
   58.1970  -58.9810    7.3770 C   0  0  0  0  0  0  0  0  0  0  0  0
   57.6750  -62.8200    9.0640 N   0  0  0  0  0  0  0  0  0  0  0  0
   55.4160  -63.7680   13.0900 N   0  0  0  0  0  0  0  0  0  0  0  0
   54.8600  -63.5870   14.3730 C   0  0  0  0  0  0  0  0  0  0  0  0
   53.9890  -62.5050   14.5790 C   0  0  0  0  0  0  0  0  0  0  0  0
   53.4310  -62.3110   15.8420 C   0  0  0  0  0  0  0  0  0  0  0  0
   53.7330  -63.1900   16.8920 C   0  0  0  0  0  0  0  0  0  0  0  0
   54.5980  -64.2740   16.6930 C   0  0  0  0  0  0  0  0  0  0  0  0
   55.1630  -64.4680   15.4210 C   0  0  0  0  0  0  0  0  0  0  0  0
   53.1650  -62.9730   18.1220 O   0  0  0  0  0  0  0  0  0  0  0  0
   53.8620  -62.3520   19.1450 C   0  0  0  0  0  0  0  0  0  0  0  0
   55.2600  -62.1420   19.0980 C   0  0  0  0  0  0  0  0  0  0  0  0
   55.8700  -61.5090   20.1770 C   0  0  0  0  0  0  0  0  0  0  0  0
   55.1690  -61.0980   21.2540 N   0  0  0  0  0  0  0  0  0  0  0  0
   53.8330  -61.2990   21.3000 C   0  0  0  0  0  0  0  0  0  0  0  0
   53.1320  -61.9230   20.2680 C   0  0  0  0  0  0  0  0  0  0  0  0
   58.3250  -61.7250    8.4090 O   0  0  0  0  0  0  0  0  0  0  0  0
   56.3917  -64.1653   10.7714 H   0  0  0  0  0  0  0  0  0  0  0  0
   57.3525  -60.3299   11.1853 H   0  0  0  0  0  0  0  0  0  0  0  0
   58.7761  -58.6073   10.6782 H   0  0  0  0  0  0  0  0  0  0  0  0
   59.5274  -57.4956    9.4838 H   0  0  0  0  0  0  0  0  0  0  0  0
   57.7484  -57.7447    9.4838 H   0  0  0  0  0  0  0  0  0  0  0  0
   60.8926  -59.7331    9.3933 H   0  0  0  0  0  0  0  0  0  0  0  0
   60.4947  -60.5757    7.8576 H   0  0  0  0  0  0  0  0  0  0  0  0
   60.8016  -58.8058    7.8576 H   0  0  0  0  0  0  0  0  0  0  0  0
   57.2698  -58.4365    7.6088 H   0  0  0  0  0  0  0  0  0  0  0  0
   58.8666  -58.3327    6.7928 H   0  0  0  0  0  0  0  0  0  0  0  0
   57.9571  -59.8816    6.7928 H   0  0  0  0  0  0  0  0  0  0  0  0
   55.3180  -64.7019   12.6668 H   0  0  0  0  0  0  0  0  0  0  0  0
   53.7497  -61.8184   13.7536 H   0  0  0  0  0  0  0  0  0  0  0  0
   52.7506  -61.4643   16.0156 H   0  0  0  0  0  0  0  0  0  0  0  0
   54.8311  -64.9620   17.5190 H   0  0  0  0  0  0  0  0  0  0  0  0
   55.8449  -65.3134   15.2469 H   0  0  0  0  0  0  0  0  0  0  0  0
   55.8505  -62.4708   18.2301 H   0  0  0  0  0  0  0  0  0  0  0  0
   56.9564  -61.3387   20.1509 H   0  0  0  0  0  0  0  0  0  0  0  0
   53.2771  -60.9572   22.1856 H   0  0  0  0  0  0  0  0  0  0  0  0
   52.0443  -62.0745   20.3304 H   0  0  0  0  0  0  0  0  0  0  0  0
  1  2  2  0
  2  3  1  0
  2 12  1  0
  3  4  1  0
  4  5  1  0
  4 11  2  0
  5  6  2  0
  6  7  1  0
  6 26  1  0
  7  8  1  0
  7  9  1  0
  7 10  1  0
 11 26  1  0
 12 13  1  0
 13 14  2  0
 13 18  1  0
 14 15  1  0
 15 16  2  0
 16 17  1  0
 16 19  1  0
 17 18  2  0
 19 20  1  0
 20 21  2  0
 20 25  1  0
 21 22  1  0
 22 23  2  0
 23 24  1  0
 24 25  2  0
  3 27  1  0
  5 28  1  0
  8 29  1  0
  8 30  1  0
  8 31  1  0
  9 32  1  0
  9 33  1  0
  9 34  1  0
 10 35  1  0
 10 36  1  0
 10 37  1  0
 12 38  1  0
 14 39  1  0
 15 40  1  0
 17 41  1  0
 18 42  1  0
 21 43  1  0
 22 44  1  0
 24 45  1  0
 25 46  1  0
A    1
O1
A    2
C9
A    3
N3
A    4
C8
A    5
C7
A    6
C2
A    7
C3
A    8
C6
A    9
C5
A   10
C4
A   11
N1
A   12
N4
A   13
C10
A   14
C20
A   15
C19
A   16
C13
A   17
C12
A   18
C11
A   19
O2
A   20
C14
A   21
C18
A   22
C17
A   23
N5
A   24
C16
A   25
C15
A   26
O3
M  END
