5AWA_M8D_A_901
     RDKit          3D

 52 54  0  0  0  0  0  0  0  0999 V2000
    8.7930   26.8230   38.8930 N   0  0  0  0  0  0  0  0  0  0  0  0
    9.1090   27.6900   37.7330 C   0  0  0  0  0  0  0  0  0  0  0  0
    9.4600   26.7450   36.6110 C   0  0  0  0  0  0  0  0  0  0  0  0
    8.4600   26.2610   35.7770 C   0  0  0  0  0  0  0  0  0  0  0  0
   10.7720   26.3220   36.4360 C   0  0  0  0  0  0  0  0  0  0  0  0
   11.1090   25.4370   35.4180 C   0  0  0  0  0  0  0  0  0  0  0  0
   10.1100   24.9590   34.5960 C   0  0  0  0  0  0  0  0  0  0  0  0
    8.7950   25.3650   34.7790 C   0  0  0  0  0  0  0  0  0  0  0  0
    7.7290   24.8500   33.8590 C   0  0  0  0  0  0  0  0  0  0  0  0
    6.5860   24.1270   34.5410 C   0  0  0  0  0  0  0  0  0  0  0  0
    5.3200   24.7240   34.6440 C   0  0  0  0  0  0  0  0  0  0  0  0
    4.2450   24.0660   35.2350 C   0  0  0  0  0  0  0  0  0  0  0  0
    4.3730   22.7890   35.7490 C   0  0  0  0  0  0  0  0  0  0  0  0
    6.7660   22.7550   35.0400 C   0  0  0  0  0  0  0  0  0  0  0  0
    7.9780   22.0720   34.9790 C   0  0  0  0  0  0  0  0  0  0  0  0
    8.0810   20.7850   35.4780 C   0  0  0  0  0  0  0  0  0  0  0  0
    6.8840   20.1800   36.0620 C   0  0  0  0  0  0  0  0  0  0  0  0
    6.8730   18.9550   36.6080 N   0  0  0  0  0  0  0  0  0  0  0  0
    5.7220   20.8570   36.1130 N   0  0  0  0  0  0  0  0  0  0  0  0
    5.5880   22.1170   35.6590 C   0  0  0  0  0  0  0  0  0  0  0  0
    9.4220   20.0830   35.3860 C   0  0  0  0  0  0  0  0  0  0  0  0
    9.4980   19.0390   34.2630 C   0  0  0  0  0  0  0  0  0  0  0  0
    9.5290   19.6320   32.8530 C   0  0  0  0  0  0  0  0  0  0  0  0
    9.2560   18.4980   31.8500 C   0  0  0  0  0  0  0  0  0  0  0  0
    9.1270   18.9120   30.3980 C   0  0  0  0  0  0  0  0  0  0  0  0
    8.9800   27.3362   39.7662 H   0  0  0  0  0  0  0  0  0  0  0  0
    7.7995   26.5532   38.8594 H   0  0  0  0  0  0  0  0  0  0  0  0
    9.9608   28.3466   37.9639 H   0  0  0  0  0  0  0  0  0  0  0  0
    8.2647   28.3436   37.4685 H   0  0  0  0  0  0  0  0  0  0  0  0
    7.4173   26.5858   35.9087 H   0  0  0  0  0  0  0  0  0  0  0  0
   11.5557   26.6929   37.1130 H   0  0  0  0  0  0  0  0  0  0  0  0
   12.1532   25.1238   35.2709 H   0  0  0  0  0  0  0  0  0  0  0  0
   10.3566   24.2517   33.7904 H   0  0  0  0  0  0  0  0  0  0  0  0
    8.1987   24.1525   33.1499 H   0  0  0  0  0  0  0  0  0  0  0  0
    7.2875   25.7343   33.3763 H   0  0  0  0  0  0  0  0  0  0  0  0
    5.1732   25.7393   34.2470 H   0  0  0  0  0  0  0  0  0  0  0  0
    3.2711   24.5739   35.2944 H   0  0  0  0  0  0  0  0  0  0  0  0
    3.5118   22.3028   36.2305 H   0  0  0  0  0  0  0  0  0  0  0  0
    8.8580   22.5577   34.5320 H   0  0  0  0  0  0  0  0  0  0  0  0
    6.8720   18.8477   37.6324 H   0  0  0  0  0  0  0  0  0  0  0  0
    6.8655   18.1215   36.0029 H   0  0  0  0  0  0  0  0  0  0  0  0
    9.6154   19.5773   36.3435 H   0  0  0  0  0  0  0  0  0  0  0  0
   10.1728   20.8541   35.1585 H   0  0  0  0  0  0  0  0  0  0  0  0
    8.6181   18.3836   34.3418 H   0  0  0  0  0  0  0  0  0  0  0  0
   10.4468   18.4991   34.3986 H   0  0  0  0  0  0  0  0  0  0  0  0
   10.5170   20.0737   32.6562 H   0  0  0  0  0  0  0  0  0  0  0  0
    8.7668   20.4190   32.7543 H   0  0  0  0  0  0  0  0  0  0  0  0
    8.3168   18.0070   32.1446 H   0  0  0  0  0  0  0  0  0  0  0  0
   10.1392   17.8438   31.8944 H   0  0  0  0  0  0  0  0  0  0  0  0
    8.8002   19.9609   30.3434 H   0  0  0  0  0  0  0  0  0  0  0  0
   10.1011   18.8050   29.8983 H   0  0  0  0  0  0  0  0  0  0  0  0
    8.3861   18.2706   29.8983 H   0  0  0  0  0  0  0  0  0  0  0  0
 25 24  1  0
 24 23  1  0
 23 22  1  0
  9 10  1  0
  9  8  1  0
 22 21  1  0
 10 11  2  0
 10 14  1  0
  7  8  2  0
  7  6  1  0
 11 12  1  0
  8  4  1  0
 15 14  2  0
 15 16  1  0
 14 20  1  0
 12 13  2  0
 21 16  1  0
  6  5  2  0
 16 17  2  0
 20 13  1  0
 20 19  2  0
  4  3  2  0
 17 19  1  0
 17 18  1  0
  5  3  1  0
  3  2  1  0
  2  1  1  0
  1 26  1  0
  1 27  1  0
  2 28  1  0
  2 29  1  0
  4 30  1  0
  5 31  1  0
  6 32  1  0
  7 33  1  0
  9 34  1  0
  9 35  1  0
 11 36  1  0
 12 37  1  0
 13 38  1  0
 15 39  1  0
 18 40  1  0
 18 41  1  0
 21 42  1  0
 21 43  1  0
 22 44  1  0
 22 45  1  0
 23 46  1  0
 23 47  1  0
 24 48  1  0
 24 49  1  0
 25 50  1  0
 25 51  1  0
 25 52  1  0
A    1
N2
A    2
C21
A    3
C18
A    4
C16
A    5
C20
A    6
C19
A    7
C17
A    8
C15
A    9
C14
A   10
C3
A   11
C5
A   12
C4
A   13
C2
A   14
C1
A   15
C8
A   16
C7
A   17
C6
A   18
N1
A   19
N
A   20
C
A   21
C10
A   22
C9
A   23
C12
A   24
C11
A   25
C13
M  END
