5AWC_M4D_A_1012
     RDKit          3D

 48 49  0  0  0  0  0  0  0  0999 V2000
  -12.9120   12.3300   55.2830 N   0  0  0  0  0  0  0  0  0  0  0  0
  -12.8690   12.6910   56.7300 C   0  0  0  0  0  0  0  0  0  0  0  0
  -12.7770   14.2070   56.8170 C   0  0  0  0  0  0  0  0  0  0  0  0
  -12.2840   14.7630   58.1520 C   0  0  0  0  0  0  0  0  0  0  0  0
  -11.6100   16.1380   57.9300 C   0  0  0  0  0  0  0  0  0  0  0  0
  -10.1810   15.8820   57.5180 C   0  0  0  0  0  0  0  0  0  0  0  0
   -9.7540   16.0250   56.1980 C   0  0  0  0  0  0  0  0  0  0  0  0
   -8.4290   15.7570   55.8340 C   0  0  0  0  0  0  0  0  0  0  0  0
   -7.4800   15.3150   56.7640 C   0  0  0  0  0  0  0  0  0  0  0  0
   -9.2210   15.4250   58.5240 C   0  0  0  0  0  0  0  0  0  0  0  0
   -9.5910   15.2680   59.8410 C   0  0  0  0  0  0  0  0  0  0  0  0
   -8.6330   14.8480   60.7500 C   0  0  0  0  0  0  0  0  0  0  0  0
   -7.2330   14.5650   60.2870 C   0  0  0  0  0  0  0  0  0  0  0  0
   -6.2920   14.1430   61.1270 N   0  0  0  0  0  0  0  0  0  0  0  0
   -6.9010   14.7500   59.0000 N   0  0  0  0  0  0  0  0  0  0  0  0
   -7.8260   15.1450   58.0960 C   0  0  0  0  0  0  0  0  0  0  0  0
   -9.0510   14.6890   62.1810 C   0  0  0  0  0  0  0  0  0  0  0  0
   -8.3620   15.7530   63.0460 C   0  0  0  0  0  0  0  0  0  0  0  0
   -8.9310   17.1350   62.8540 C   0  0  0  0  0  0  0  0  0  0  0  0
   -8.1950   18.0720   63.8000 C   0  0  0  0  0  0  0  0  0  0  0  0
   -8.3860   19.5250   63.3880 C   0  0  0  0  0  0  0  0  0  0  0  0
  -13.0333   11.3117   55.1866 H   0  0  0  0  0  0  0  0  0  0  0  0
  -13.7013   12.8140   54.8317 H   0  0  0  0  0  0  0  0  0  0  0  0
  -13.7824   12.3401   57.2325 H   0  0  0  0  0  0  0  0  0  0  0  0
  -12.0056   12.2201   57.2227 H   0  0  0  0  0  0  0  0  0  0  0  0
  -12.0868   14.5497   56.0321 H   0  0  0  0  0  0  0  0  0  0  0  0
  -13.8056   14.5782   56.6979 H   0  0  0  0  0  0  0  0  0  0  0  0
  -13.1373   14.8807   58.8361 H   0  0  0  0  0  0  0  0  0  0  0  0
  -11.5530   14.0662   58.5880 H   0  0  0  0  0  0  0  0  0  0  0  0
  -11.6332   16.7223   58.8617 H   0  0  0  0  0  0  0  0  0  0  0  0
  -12.1406   16.7085   57.1535 H   0  0  0  0  0  0  0  0  0  0  0  0
  -10.4700   16.3537   55.4304 H   0  0  0  0  0  0  0  0  0  0  0  0
   -8.1244   15.8978   54.7864 H   0  0  0  0  0  0  0  0  0  0  0  0
   -6.4523   15.1010   56.4354 H   0  0  0  0  0  0  0  0  0  0  0  0
  -10.6227   15.4712   60.1640 H   0  0  0  0  0  0  0  0  0  0  0  0
   -6.4417   14.2101   62.1439 H   0  0  0  0  0  0  0  0  0  0  0  0
   -5.4136   13.7491   60.7606 H   0  0  0  0  0  0  0  0  0  0  0  0
  -10.1420   14.8066   62.2578 H   0  0  0  0  0  0  0  0  0  0  0  0
   -8.7597   13.6891   62.5351 H   0  0  0  0  0  0  0  0  0  0  0  0
   -8.4766   15.4717   64.1032 H   0  0  0  0  0  0  0  0  0  0  0  0
   -7.3061   15.7892   62.7397 H   0  0  0  0  0  0  0  0  0  0  0  0
   -8.7829   17.4602   61.8137 H   0  0  0  0  0  0  0  0  0  0  0  0
  -10.0102   17.1411   63.0669 H   0  0  0  0  0  0  0  0  0  0  0  0
   -8.5848   17.9330   64.8192 H   0  0  0  0  0  0  0  0  0  0  0  0
   -7.1214   17.8355   63.7620 H   0  0  0  0  0  0  0  0  0  0  0  0
   -8.4686   20.1533   64.2872 H   0  0  0  0  0  0  0  0  0  0  0  0
   -7.5232   19.8529   62.7896 H   0  0  0  0  0  0  0  0  0  0  0  0
   -9.3042   19.6188   62.7896 H   0  0  0  0  0  0  0  0  0  0  0  0
  1  2  1  0
  8  7  1  0
  8  9  2  0
  7  6  2  0
  2  3  1  0
  9 16  1  0
  3  4  1  0
  6  5  1  0
  6 10  1  0
  5  4  1  0
 16 10  2  0
 16 15  1  0
 10 11  1  0
 15 13  2  0
 11 12  2  0
 13 12  1  0
 13 14  1  0
 12 17  1  0
 17 18  1  0
 19 18  1  0
 19 20  1  0
 21 20  1  0
  1 22  1  0
  1 23  1  0
  2 24  1  0
  2 25  1  0
  3 26  1  0
  3 27  1  0
  4 28  1  0
  4 29  1  0
  5 30  1  0
  5 31  1  0
  7 32  1  0
  8 33  1  0
  9 34  1  0
 11 35  1  0
 14 36  1  0
 14 37  1  0
 17 38  1  0
 17 39  1  0
 18 40  1  0
 18 41  1  0
 19 42  1  0
 19 43  1  0
 20 44  1  0
 20 45  1  0
 21 46  1  0
 21 47  1  0
 21 48  1  0
A    1
N2
A    2
C17
A    3
C16
A    4
C15
A    5
C14
A    6
C3
A    7
C5
A    8
C4
A    9
C2
A   10
C1
A   11
C8
A   12
C7
A   13
C6
A   14
N1
A   15
N
A   16
C
A   17
C10
A   18
C9
A   19
C12
A   20
C11
A   21
C13
M  END
