5AWD_IDQ_A_901
     RDKit          3D

 52 55  0  0  0  0  0  0  0  0999 V2000
  -12.8220   25.2680  -38.9280 N   0  0  0  0  0  0  0  0  0  0  0  0
  -11.6470   24.4090  -38.8620 C   0  0  0  0  0  0  0  0  0  0  0  0
  -11.4450   23.6710  -37.5310 C   0  0  0  0  0  0  0  0  0  0  0  0
  -11.2550   24.3390  -36.3380 C   0  0  0  0  0  0  0  0  0  0  0  0
  -11.0300   23.6510  -35.1340 C   0  0  0  0  0  0  0  0  0  0  0  0
  -11.3450   22.2930  -37.5110 C   0  0  0  0  0  0  0  0  0  0  0  0
  -11.1290   21.6020  -36.3170 C   0  0  0  0  0  0  0  0  0  0  0  0
  -10.9730   22.2510  -35.0900 C   0  0  0  0  0  0  0  0  0  0  0  0
  -10.6740   21.4860  -33.7770 C   0  0  0  0  0  0  0  0  0  0  0  0
   -9.8670   20.3920  -34.2590 N   0  0  0  0  0  0  0  0  0  0  0  0
  -10.3500   19.1520  -34.3880 C   0  0  0  0  0  0  0  0  0  0  0  0
  -11.6770   18.6800  -33.8990 C   0  0  0  0  0  0  0  0  0  0  0  0
  -11.6540   18.5910  -32.3670 C   0  0  0  0  0  0  0  0  0  0  0  0
  -10.3140   18.5350  -31.6420 C   0  0  0  0  0  0  0  0  0  0  0  0
  -10.4500   18.1950  -30.1750 C   0  0  0  0  0  0  0  0  0  0  0  0
   -9.4680   18.3570  -34.9930 N   0  0  0  0  0  0  0  0  0  0  0  0
   -8.3830   19.1110  -35.2940 C   0  0  0  0  0  0  0  0  0  0  0  0
   -7.0900   18.8340  -35.9160 C   0  0  0  0  0  0  0  0  0  0  0  0
   -6.8580   17.5860  -36.3570 N   0  0  0  0  0  0  0  0  0  0  0  0
   -6.1730   19.8030  -36.0480 N   0  0  0  0  0  0  0  0  0  0  0  0
   -6.4010   21.0700  -35.6000 C   0  0  0  0  0  0  0  0  0  0  0  0
   -8.6400   20.4470  -34.8060 C   0  0  0  0  0  0  0  0  0  0  0  0
   -7.6870   21.4470  -34.9640 C   0  0  0  0  0  0  0  0  0  0  0  0
   -7.8360   22.7560  -34.5160 C   0  0  0  0  0  0  0  0  0  0  0  0
   -6.8050   23.6860  -34.6830 C   0  0  0  0  0  0  0  0  0  0  0  0
   -5.5900   23.3200  -35.2860 C   0  0  0  0  0  0  0  0  0  0  0  0
   -5.4060   22.0190  -35.7660 C   0  0  0  0  0  0  0  0  0  0  0  0
  -13.1344   25.4964  -37.9735 H   0  0  0  0  0  0  0  0  0  0  0  0
  -12.5848   26.1364  -39.4286 H   0  0  0  0  0  0  0  0  0  0  0  0
  -11.7325   23.6552  -39.6585 H   0  0  0  0  0  0  0  0  0  0  0  0
  -10.7783   25.0744  -38.9746 H   0  0  0  0  0  0  0  0  0  0  0  0
  -11.2804   25.4387  -36.3299 H   0  0  0  0  0  0  0  0  0  0  0  0
  -10.8955   24.2239  -34.2046 H   0  0  0  0  0  0  0  0  0  0  0  0
  -11.4371   21.7307  -38.4519 H   0  0  0  0  0  0  0  0  0  0  0  0
  -11.0798   20.5034  -36.3437 H   0  0  0  0  0  0  0  0  0  0  0  0
  -10.1173   22.1126  -33.0647 H   0  0  0  0  0  0  0  0  0  0  0  0
  -11.5729   21.1716  -33.2264 H   0  0  0  0  0  0  0  0  0  0  0  0
  -12.4573   19.3886  -34.2137 H   0  0  0  0  0  0  0  0  0  0  0  0
  -11.8922   17.6874  -34.3213 H   0  0  0  0  0  0  0  0  0  0  0  0
  -12.1879   19.4742  -31.9864 H   0  0  0  0  0  0  0  0  0  0  0  0
  -12.1047   17.6098  -32.1567 H   0  0  0  0  0  0  0  0  0  0  0  0
   -9.6871   17.7695  -32.1226 H   0  0  0  0  0  0  0  0  0  0  0  0
   -9.8623   19.5359  -31.7074 H   0  0  0  0  0  0  0  0  0  0  0  0
  -10.1093   19.0468  -29.5681 H   0  0  0  0  0  0  0  0  0  0  0  0
  -11.5037   17.9790  -29.9448 H   0  0  0  0  0  0  0  0  0  0  0  0
   -9.8359   17.3119  -29.9448 H   0  0  0  0  0  0  0  0  0  0  0  0
   -6.7156   16.8199  -35.6834 H   0  0  0  0  0  0  0  0  0  0  0  0
   -6.8226   17.3955  -37.3686 H   0  0  0  0  0  0  0  0  0  0  0  0
   -8.7724   23.0618  -34.0265 H   0  0  0  0  0  0  0  0  0  0  0  0
   -6.9476   24.7203  -34.3368 H   0  0  0  0  0  0  0  0  0  0  0  0
   -4.7807   24.0589  -35.3810 H   0  0  0  0  0  0  0  0  0  0  0  0
   -4.4695   21.7492  -36.2761 H   0  0  0  0  0  0  0  0  0  0  0  0
  1  2  1  0
  2  3  1  0
  3  6  2  0
  3  4  1  0
  6  7  1  0
 19 18  1  0
  4  5  2  0
  7  8  2  0
 20 18  1  0
 20 21  2  0
 18 17  2  0
 27 21  1  0
 27 26  2  0
 21 23  1  0
 17 16  1  0
 17 22  1  0
 26 25  1  0
  5  8  1  0
  8  9  1  0
 16 11  2  0
 23 22  2  0
 23 24  1  0
 22 10  1  0
 25 24  2  0
 11 10  1  0
 11 12  1  0
 10  9  1  0
 12 13  1  0
 13 14  1  0
 14 15  1  0
  1 28  1  0
  1 29  1  0
  2 30  1  0
  2 31  1  0
  4 32  1  0
  5 33  1  0
  6 34  1  0
  7 35  1  0
  9 36  1  0
  9 37  1  0
 12 38  1  0
 12 39  1  0
 13 40  1  0
 13 41  1  0
 14 42  1  0
 14 43  1  0
 15 44  1  0
 15 45  1  0
 15 46  1  0
 19 47  1  0
 19 48  1  0
 24 49  1  0
 25 50  1  0
 26 51  1  0
 27 52  1  0
A    1
N4
A    2
C21
A    3
C18
A    4
C17
A    5
C16
A    6
C20
A    7
C19
A    8
C15
A    9
C14
A   10
N2
A   11
C9
A   12
C10
A   13
C11
A   14
C12
A   15
C13
A   16
N1
A   17
C7
A   18
C6
A   19
N3
A   20
N
A   21
C
A   22
C8
A   23
C1
A   24
C3
A   25
C5
A   26
C4
A   27
C2
M  END
