5AWJ_YSL_A_501
     RDKit          3D

 83 85  0  0  0  0  0  0  0  0999 V2000
   16.3430  -20.5030  -26.9700 O   0  0  0  0  0  0  0  0  0  0  0  0
   17.1620  -21.6240  -26.6310 C   0  0  0  0  0  0  0  0  0  0  0  0
   17.5580  -22.3670  -27.9000 C   0  0  0  0  0  0  0  0  0  0  0  0
   18.8060  -23.2160  -27.6940 C   0  0  0  0  0  0  0  0  0  0  0  0
   19.4820  -23.4790  -29.0310 C   0  0  0  0  0  0  0  0  0  0  0  0
   20.3430  -22.2870  -29.4240 C   0  0  0  0  0  0  0  0  0  0  0  0
   21.4890  -22.6990  -30.3340 C   0  0  0  0  0  0  0  0  0  0  0  0
   21.6980  -21.6700  -31.4360 C   0  0  0  0  0  0  0  0  0  0  0  0
   22.7000  -20.6090  -31.0020 C   0  0  0  0  0  0  0  0  0  0  0  0
   24.1150  -21.0610  -31.2820 C   0  0  0  0  0  0  0  0  0  0  0  0
   18.4900  -24.5240  -26.9860 C   0  0  0  0  0  0  0  0  0  0  0  0
   17.5750  -25.3970  -27.8320 C   0  0  0  0  0  0  0  0  0  0  0  0
   19.7700  -25.2710  -26.6350 C   0  0  0  0  0  0  0  0  0  0  0  0
   19.5130  -26.6150  -25.9770 C   0  0  0  0  0  0  0  0  0  0  0  0
   18.4350  -26.4810  -24.9070 C   0  0  0  0  0  0  0  0  0  0  0  0
   19.1830  -27.7490  -26.9270 C   0  0  0  0  0  0  0  0  0  0  0  0
   19.0520  -29.0510  -26.1420 C   0  0  0  0  0  0  0  0  0  0  0  0
   20.2510  -29.3630  -25.2420 C   0  0  0  0  0  0  0  0  0  0  0  0
   20.7370  -28.1270  -24.5200 C   0  0  0  0  0  0  0  0  0  0  0  0
   20.8620  -26.9030  -25.3650 C   0  0  0  0  0  0  0  0  0  0  0  0
   21.2950  -25.5930  -24.7340 C   0  0  0  0  0  0  0  0  0  0  0  0
   20.6600  -24.5320  -25.6350 C   0  0  0  0  0  0  0  0  0  0  0  0
   21.0250  -28.1400  -23.2080 C   0  0  0  0  0  0  0  0  0  0  0  0
   20.8640  -29.3820  -22.4550 C   0  0  0  0  0  0  0  0  0  0  0  0
   20.5510  -29.4070  -21.1530 C   0  0  0  0  0  0  0  0  0  0  0  0
   20.3880  -30.7420  -20.4590 C   0  0  0  0  0  0  0  0  0  0  0  0
   21.0510  -30.7690  -19.0870 C   0  0  0  0  0  0  0  0  0  0  0  0
   22.4660  -30.8000  -19.2540 O   0  0  0  0  0  0  0  0  0  0  0  0
   20.6870  -29.5450  -18.3100 C   0  0  0  0  0  0  0  0  0  0  0  0
   20.1700  -29.6580  -17.1030 C   0  0  0  0  0  0  0  0  0  0  0  0
   20.9310  -28.2090  -18.9510 C   0  0  0  0  0  0  0  0  0  0  0  0
   20.3610  -27.1740  -18.1510 O   0  0  0  0  0  0  0  0  0  0  0  0
   20.3500  -28.1320  -20.3640 C   0  0  0  0  0  0  0  0  0  0  0  0
   16.0233  -20.0654  -26.1415 H   0  0  0  0  0  0  0  0  0  0  0  0
   16.6012  -22.3010  -25.9698 H   0  0  0  0  0  0  0  0  0  0  0  0
   18.0675  -21.2731  -26.1144 H   0  0  0  0  0  0  0  0  0  0  0  0
   17.7543  -21.6330  -28.6955 H   0  0  0  0  0  0  0  0  0  0  0  0
   16.7306  -23.0376  -28.1752 H   0  0  0  0  0  0  0  0  0  0  0  0
   19.4944  -22.6538  -27.0459 H   0  0  0  0  0  0  0  0  0  0  0  0
   18.7140  -23.6430  -29.8012 H   0  0  0  0  0  0  0  0  0  0  0  0
   20.1197  -24.3710  -28.9432 H   0  0  0  0  0  0  0  0  0  0  0  0
   20.7572  -21.8303  -28.5131 H   0  0  0  0  0  0  0  0  0  0  0  0
   19.7107  -21.5715  -29.9701 H   0  0  0  0  0  0  0  0  0  0  0  0
   21.2564  -23.6731  -30.7890 H   0  0  0  0  0  0  0  0  0  0  0  0
   22.4091  -22.7673  -29.7350 H   0  0  0  0  0  0  0  0  0  0  0  0
   20.7369  -21.1863  -31.6647 H   0  0  0  0  0  0  0  0  0  0  0  0
   22.0905  -22.1822  -32.3269 H   0  0  0  0  0  0  0  0  0  0  0  0
   22.5025  -19.6787  -31.5548 H   0  0  0  0  0  0  0  0  0  0  0  0
   22.5906  -20.4420  -29.9203 H   0  0  0  0  0  0  0  0  0  0  0  0
   24.6412  -21.2291  -30.3308 H   0  0  0  0  0  0  0  0  0  0  0  0
   24.0934  -21.9970  -31.8595 H   0  0  0  0  0  0  0  0  0  0  0  0
   24.6400  -20.2859  -31.8595 H   0  0  0  0  0  0  0  0  0  0  0  0
   17.9622  -24.2830  -26.0515 H   0  0  0  0  0  0  0  0  0  0  0  0
   16.9373  -26.0054  -27.1739 H   0  0  0  0  0  0  0  0  0  0  0  0
   16.9431  -24.7585  -28.4669 H   0  0  0  0  0  0  0  0  0  0  0  0
   18.1831  -26.0582  -28.4669 H   0  0  0  0  0  0  0  0  0  0  0  0
   20.2591  -25.3723  -27.6150 H   0  0  0  0  0  0  0  0  0  0  0  0
   18.8980  -26.5386  -23.9108 H   0  0  0  0  0  0  0  0  0  0  0  0
   17.9255  -25.5126  -25.0191 H   0  0  0  0  0  0  0  0  0  0  0  0
   17.7039  -27.2952  -25.0191 H   0  0  0  0  0  0  0  0  0  0  0  0
   19.9869  -27.8492  -27.6711 H   0  0  0  0  0  0  0  0  0  0  0  0
   18.2334  -27.5331  -27.4385 H   0  0  0  0  0  0  0  0  0  0  0  0
   18.1541  -28.9843  -25.5101 H   0  0  0  0  0  0  0  0  0  0  0  0
   18.9919  -29.8625  -26.8822 H   0  0  0  0  0  0  0  0  0  0  0  0
   19.9536  -30.1175  -24.4989 H   0  0  0  0  0  0  0  0  0  0  0  0
   21.0693  -29.7381  -25.8742 H   0  0  0  0  0  0  0  0  0  0  0  0
   21.6801  -27.1798  -26.0463 H   0  0  0  0  0  0  0  0  0  0  0  0
   22.3912  -25.5015  -24.7320 H   0  0  0  0  0  0  0  0  0  0  0  0
   20.9846  -25.5020  -23.6826 H   0  0  0  0  0  0  0  0  0  0  0  0
   21.4421  -23.9711  -26.1676 H   0  0  0  0  0  0  0  0  0  0  0  0
   20.0738  -23.8135  -25.0432 H   0  0  0  0  0  0  0  0  0  0  0  0
   21.3778  -27.2267  -22.7065 H   0  0  0  0  0  0  0  0  0  0  0  0
   21.0061  -30.3379  -22.9804 H   0  0  0  0  0  0  0  0  0  0  0  0
   19.3143  -30.9476  -20.3365 H   0  0  0  0  0  0  0  0  0  0  0  0
   20.8764  -31.5056  -21.0823 H   0  0  0  0  0  0  0  0  0  0  0  0
   20.7070  -31.6607  -18.5424 H   0  0  0  0  0  0  0  0  0  0  0  0
   22.9030  -30.8096  -18.3657 H   0  0  0  0  0  0  0  0  0  0  0  0
   19.9027  -28.7563  -16.5325 H   0  0  0  0  0  0  0  0  0  0  0  0
   20.0058  -30.6540  -16.6660 H   0  0  0  0  0  0  0  0  0  0  0  0
   22.0206  -28.0772  -19.0248 H   0  0  0  0  0  0  0  0  0  0  0  0
   20.4816  -27.3930  -17.1931 H   0  0  0  0  0  0  0  0  0  0  0  0
   20.8400  -27.3062  -20.9006 H   0  0  0  0  0  0  0  0  0  0  0  0
   19.2662  -27.9709  -20.2671 H   0  0  0  0  0  0  0  0  0  0  0  0
  8  9  1  0
  8  7  1  0
 10  9  1  0
  7  6  1  0
  6  5  1  0
  5  4  1  0
  3  4  1  0
  3  2  1  0
 12 11  1  0
  4 11  1  0
 11 13  1  0
  1  2  1  0
 16 17  1  0
 16 14  1  0
 13 14  1  0
 13 22  1  0
 17 18  1  0
 14 20  1  0
 14 15  1  0
 22 21  1  0
 20 21  1  0
 20 19  1  0
 18 19  1  0
 19 23  2  0
 23 24  1  0
 24 25  2  0
 25 26  1  0
 25 33  1  0
 26 27  1  0
 33 31  1  0
 28 27  1  0
 27 29  1  0
 31 29  1  0
 31 32  1  0
 29 30  2  3
  1 34  1  0
  2 35  1  0
  2 36  1  0
  3 37  1  0
  3 38  1  0
  4 39  1  0
  5 40  1  0
  5 41  1  0
  6 42  1  0
  6 43  1  0
  7 44  1  0
  7 45  1  0
  8 46  1  0
  8 47  1  0
  9 48  1  0
  9 49  1  0
 10 50  1  0
 10 51  1  0
 10 52  1  0
 11 53  1  0
 12 54  1  0
 12 55  1  0
 12 56  1  0
 13 57  1  0
 15 58  1  0
 15 59  1  0
 15 60  1  0
 16 61  1  0
 16 62  1  0
 17 63  1  0
 17 64  1  0
 18 65  1  0
 18 66  1  0
 20 67  1  0
 21 68  1  0
 21 69  1  0
 22 70  1  0
 22 71  1  0
 23 72  1  0
 24 73  1  0
 26 74  1  0
 26 75  1  0
 27 76  1  0
 28 77  1  0
 30 78  1  0
 30 79  1  0
 31 80  1  0
 32 81  1  0
 33 82  1  0
 33 83  1  0
A    1
O33
A    2
C26
A    3
C25
A    4
C20
A    5
C21
A    6
C22
A    7
C23
A    8
C24
A    9
C31
A   10
C32
A   11
C18
A   12
C19
A   13
C17
A   14
C13
A   15
C34
A   16
C12
A   17
C11
A   18
C10
A   19
C9
A   20
C14
A   21
C15
A   22
C16
A   23
C8
A   24
C7
A   25
C6
A   26
C5
A   27
C4
A   28
O31
A   29
C3
A   30
C33
A   31
C2
A   32
O32
A   33
C1
M  END
