5AWK_YSE_A_501
     RDKit          3D

 71 73  0  0  0  0  0  0  0  0999 V2000
    9.6690   -1.2340   27.1690 O   0  0  0  0  0  0  0  0  0  0  0  0
   10.9450   -0.6060   27.0080 C   0  0  0  0  0  0  0  0  0  0  0  0
   11.0630    0.5590   27.9830 C   0  0  0  0  0  0  0  0  0  0  0  0
   12.3640    1.3210   27.7740 C   0  0  0  0  0  0  0  0  0  0  0  0
   13.0450    1.5360   29.1200 C   0  0  0  0  0  0  0  0  0  0  0  0
   14.0670    0.4550   29.3900 C   0  0  0  0  0  0  0  0  0  0  0  0
   12.1010    2.6530   27.0850 C   0  0  0  0  0  0  0  0  0  0  0  0
   11.1480    3.5060   27.9100 C   0  0  0  0  0  0  0  0  0  0  0  0
   13.4040    3.3990   26.8130 C   0  0  0  0  0  0  0  0  0  0  0  0
   14.2840    2.6780   25.7870 C   0  0  0  0  0  0  0  0  0  0  0  0
   14.9180    3.7530   24.8990 C   0  0  0  0  0  0  0  0  0  0  0  0
   14.5460    5.0520   25.5930 C   0  0  0  0  0  0  0  0  0  0  0  0
   13.2000    4.7910   26.2260 C   0  0  0  0  0  0  0  0  0  0  0  0
   12.0910    4.7730   25.1750 C   0  0  0  0  0  0  0  0  0  0  0  0
   12.9620    5.9180   27.2150 C   0  0  0  0  0  0  0  0  0  0  0  0
   12.8060    7.2290   26.4430 C   0  0  0  0  0  0  0  0  0  0  0  0
   13.9410    7.5400   25.4590 C   0  0  0  0  0  0  0  0  0  0  0  0
   14.4690    6.2980   24.7730 C   0  0  0  0  0  0  0  0  0  0  0  0
   14.8490    6.3170   23.4880 C   0  0  0  0  0  0  0  0  0  0  0  0
   14.7580    7.5570   22.7230 C   0  0  0  0  0  0  0  0  0  0  0  0
   14.3150    7.5500   21.4600 C   0  0  0  0  0  0  0  0  0  0  0  0
   14.2230    8.8450   20.6830 C   0  0  0  0  0  0  0  0  0  0  0  0
   13.8940    6.2560   20.7980 C   0  0  0  0  0  0  0  0  0  0  0  0
   14.3960    6.1450   19.3560 C   0  0  0  0  0  0  0  0  0  0  0  0
   13.6790    5.1010   18.6880 O   0  0  0  0  0  0  0  0  0  0  0  0
   14.2400    7.4430   18.6130 C   0  0  0  0  0  0  0  0  0  0  0  0
   13.6670    7.4920   17.4250 C   0  0  0  0  0  0  0  0  0  0  0  0
   14.7530    8.6980   19.2570 C   0  0  0  0  0  0  0  0  0  0  0  0
   16.1830    8.6740   19.2770 O   0  0  0  0  0  0  0  0  0  0  0  0
    9.4690   -1.3324   28.1336 H   0  0  0  0  0  0  0  0  0  0  0  0
   11.7418   -1.3367   27.2112 H   0  0  0  0  0  0  0  0  0  0  0  0
   11.0437   -0.2339   25.9776 H   0  0  0  0  0  0  0  0  0  0  0  0
   10.2167    1.2443   27.8276 H   0  0  0  0  0  0  0  0  0  0  0  0
   11.0542    0.1585   29.0075 H   0  0  0  0  0  0  0  0  0  0  0  0
   13.0278    0.7317   27.1243 H   0  0  0  0  0  0  0  0  0  0  0  0
   13.5486    2.5140   29.1160 H   0  0  0  0  0  0  0  0  0  0  0  0
   12.2797    1.4993   29.9093 H   0  0  0  0  0  0  0  0  0  0  0  0
   14.1876    0.3274   30.4759 H   0  0  0  0  0  0  0  0  0  0  0  0
   13.7258   -0.4915   28.9453 H   0  0  0  0  0  0  0  0  0  0  0  0
   15.0311    0.7426   28.9453 H   0  0  0  0  0  0  0  0  0  0  0  0
   11.6252    2.4457   26.1152 H   0  0  0  0  0  0  0  0  0  0  0  0
   11.3373    3.3366   28.9803 H   0  0  0  0  0  0  0  0  0  0  0  0
   11.3080    4.5682   27.6730 H   0  0  0  0  0  0  0  0  0  0  0  0
   10.1100    3.2297   27.6730 H   0  0  0  0  0  0  0  0  0  0  0  0
   13.8726    3.4516   27.8068 H   0  0  0  0  0  0  0  0  0  0  0  0
   13.6714    1.9981   25.1767 H   0  0  0  0  0  0  0  0  0  0  0  0
   15.0585    2.0795   26.2889 H   0  0  0  0  0  0  0  0  0  0  0  0
   14.5018    3.7179   23.8814 H   0  0  0  0  0  0  0  0  0  0  0  0
   16.0044    3.6258   24.7822 H   0  0  0  0  0  0  0  0  0  0  0  0
   15.3696    5.2806   26.2854 H   0  0  0  0  0  0  0  0  0  0  0  0
   11.1116    4.7571   25.6756 H   0  0  0  0  0  0  0  0  0  0  0  0
   12.1669    5.6725   24.5464 H   0  0  0  0  0  0  0  0  0  0  0  0
   12.1961    3.8764   24.5464 H   0  0  0  0  0  0  0  0  0  0  0  0
   12.0464    5.7171   27.7906 H   0  0  0  0  0  0  0  0  0  0  0  0
   13.8132    5.9922   27.9078 H   0  0  0  0  0  0  0  0  0  0  0  0
   12.7520    8.0505   27.1726 H   0  0  0  0  0  0  0  0  0  0  0  0
   11.8940    7.1228   25.8373 H   0  0  0  0  0  0  0  0  0  0  0  0
   14.7653    8.0162   26.0101 H   0  0  0  0  0  0  0  0  0  0  0  0
   13.5371    8.2054   24.6818 H   0  0  0  0  0  0  0  0  0  0  0  0
   15.2283    5.4011   23.0112 H   0  0  0  0  0  0  0  0  0  0  0  0
   15.0567    8.5073   23.1896 H   0  0  0  0  0  0  0  0  0  0  0  0
   14.8132    9.6137   21.2034 H   0  0  0  0  0  0  0  0  0  0  0  0
   13.1622    9.1296   20.6227 H   0  0  0  0  0  0  0  0  0  0  0  0
   12.7953    6.2029   20.7941 H   0  0  0  0  0  0  0  0  0  0  0  0
   14.3369    5.4279   21.3708 H   0  0  0  0  0  0  0  0  0  0  0  0
   15.4698    5.9071   19.3775 H   0  0  0  0  0  0  0  0  0  0  0  0
   13.2672    4.5014   19.3596 H   0  0  0  0  0  0  0  0  0  0  0  0
   13.2924    6.5699   16.9566 H   0  0  0  0  0  0  0  0  0  0  0  0
   13.5640    8.4549   16.9033 H   0  0  0  0  0  0  0  0  0  0  0  0
   14.3995    9.5576   18.6687 H   0  0  0  0  0  0  0  0  0  0  0  0
   16.4999    8.6687   20.2149 H   0  0  0  0  0  0  0  0  0  0  0  0
 27 26  2  3
 26 28  1  0
 26 24  1  0
 25 24  1  0
 28 29  1  0
 28 22  1  0
 24 23  1  0
 22 21  1  0
 23 21  1  0
 21 20  2  0
 20 19  1  0
 19 18  2  0
 18 17  1  0
 18 12  1  0
 11 12  1  0
 11 10  1  0
 14 13  1  0
 17 16  1  0
 12 13  1  0
 10  9  1  0
 13  9  1  0
 13 15  1  0
 16 15  1  0
  9  7  1  0
  2  1  1  0
  2  3  1  0
  7  4  1  0
  7  8  1  0
  4  3  1  0
  4  5  1  0
  5  6  1  0
  1 30  1  0
  2 31  1  0
  2 32  1  0
  3 33  1  0
  3 34  1  0
  4 35  1  0
  5 36  1  0
  5 37  1  0
  6 38  1  0
  6 39  1  0
  6 40  1  0
  7 41  1  0
  8 42  1  0
  8 43  1  0
  8 44  1  0
  9 45  1  0
 10 46  1  0
 10 47  1  0
 11 48  1  0
 11 49  1  0
 12 50  1  0
 14 51  1  0
 14 52  1  0
 14 53  1  0
 15 54  1  0
 15 55  1  0
 16 56  1  0
 16 57  1  0
 17 58  1  0
 17 59  1  0
 19 60  1  0
 20 61  1  0
 22 62  1  0
 22 63  1  0
 23 64  1  0
 23 65  1  0
 24 66  1  0
 25 67  1  0
 27 68  1  0
 27 69  1  0
 28 70  1  0
 29 71  1  0
A    1
O2
A    2
C23
A    3
C22
A    4
C21
A    5
C24
A    6
C25
A    7
C19
A    8
C20
A    9
C17
A   10
C16
A   11
C15
A   12
C10
A   13
C11
A   14
C18
A   15
C12
A   16
C13
A   17
C14
A   18
C8
A   19
C7
A   20
C6
A   21
C5
A   22
C
A   23
C4
A   24
C3
A   25
O
A   26
C2
A   27
C9
A   28
C1
A   29
O1
M  END
