5AX9_4KT_A_401
     RDKit          3D

 55 58  0  0  0  0  0  0  0  0999 V2000
  -13.4470  -56.1860  -28.4730 C   0  0  0  0  0  0  0  0  0  0  0  0
  -14.1960  -57.0360  -29.3120 C   0  0  0  0  0  0  0  0  0  0  0  0
  -15.2130  -57.8880  -28.8150 C   0  0  0  0  0  0  0  0  0  0  0  0
  -16.4510  -61.0290  -30.8500 C   0  0  0  0  0  0  0  0  0  0  0  0
  -18.0460  -59.4400  -30.9600 C   0  0  0  0  0  0  0  0  0  0  0  0
  -15.6850  -60.1890  -29.7490 C   0  0  0  0  0  0  0  0  0  0  0  0
  -15.4330  -57.8570  -27.4110 C   0  0  0  0  0  0  0  0  0  0  0  0
  -14.6680  -57.0120  -26.5930 C   0  0  0  0  0  0  0  0  0  0  0  0
   -6.8530  -53.9130  -31.1100 C   0  0  0  0  0  0  0  0  0  0  0  0
   -7.3870  -53.4370  -28.8630 C   0  0  0  0  0  0  0  0  0  0  0  0
   -8.7330  -53.8620  -28.9580 C   0  0  0  0  0  0  0  0  0  0  0  0
   -8.1900  -54.3400  -31.2830 C   0  0  0  0  0  0  0  0  0  0  0  0
  -10.3540  -52.6490  -25.7070 C   0  0  0  0  0  0  0  0  0  0  0  0
  -11.6940  -54.4370  -26.4280 C   0  0  0  0  0  0  0  0  0  0  0  0
   -9.6740  -53.7610  -27.7640 C   0  0  0  0  0  0  0  0  0  0  0  0
  -16.8190  -58.4330  -25.4810 C   0  0  0  0  0  0  0  0  0  0  0  0
   -9.1540  -54.3280  -30.2620 C   0  0  0  0  0  0  0  0  0  0  0  0
   -6.3880  -53.4310  -29.8680 C   0  0  0  0  0  0  0  0  0  0  0  0
  -10.7920  -54.5910  -27.5590 C   0  0  0  0  0  0  0  0  0  0  0  0
  -11.4310  -53.4530  -25.5130 N   0  0  0  0  0  0  0  0  0  0  0  0
   -9.4780  -52.7680  -26.7930 C   0  0  0  0  0  0  0  0  0  0  0  0
   -5.0120  -52.9650  -29.6150 C   0  0  0  0  0  0  0  0  0  0  0  0
  -10.4600  -54.7760  -30.5180 O   0  0  0  0  0  0  0  0  0  0  0  0
  -10.8570  -55.2960  -31.7860 C   0  0  0  0  0  0  0  0  0  0  0  0
  -13.6570  -56.1460  -27.0650 C   0  0  0  0  0  0  0  0  0  0  0  0
  -16.4180  -58.6780  -26.8440 O   0  0  0  0  0  0  0  0  0  0  0  0
  -15.9560  -58.7530  -29.6820 N   0  0  0  0  0  0  0  0  0  0  0  0
  -17.1290  -60.1840  -31.7530 O   0  0  0  0  0  0  0  0  0  0  0  0
  -17.3590  -58.4660  -29.9380 C   0  0  0  0  0  0  0  0  0  0  0  0
  -12.8600  -55.2630  -26.1930 N   0  0  0  0  0  0  0  0  0  0  0  0
   -3.9300  -52.5930  -29.3850 N   0  0  0  0  0  0  0  0  0  0  0  0
  -12.6794  -55.5359  -28.9181 H   0  0  0  0  0  0  0  0  0  0  0  0
  -13.9832  -57.0378  -30.3912 H   0  0  0  0  0  0  0  0  0  0  0  0
  -17.1813  -61.6869  -30.3563 H   0  0  0  0  0  0  0  0  0  0  0  0
  -15.7145  -61.6219  -31.4122 H   0  0  0  0  0  0  0  0  0  0  0  0
  -18.6815  -58.8447  -31.6322 H   0  0  0  0  0  0  0  0  0  0  0  0
  -18.6214  -60.1682  -30.3696 H   0  0  0  0  0  0  0  0  0  0  0  0
  -15.9422  -60.6184  -28.7695 H   0  0  0  0  0  0  0  0  0  0  0  0
  -14.6243  -60.2600  -30.0315 H   0  0  0  0  0  0  0  0  0  0  0  0
  -14.8691  -57.0248  -25.5116 H   0  0  0  0  0  0  0  0  0  0  0  0
   -6.1598  -53.9576  -31.9629 H   0  0  0  0  0  0  0  0  0  0  0  0
   -7.0742  -53.0611  -27.8777 H   0  0  0  0  0  0  0  0  0  0  0  0
   -8.4928  -54.7031  -32.2762 H   0  0  0  0  0  0  0  0  0  0  0  0
  -10.1583  -51.8581  -24.9680 H   0  0  0  0  0  0  0  0  0  0  0  0
  -16.0843  -58.8819  -24.7963 H   0  0  0  0  0  0  0  0  0  0  0  0
  -16.8711  -57.3487  -25.3034 H   0  0  0  0  0  0  0  0  0  0  0  0
  -17.8076  -58.8815  -25.3034 H   0  0  0  0  0  0  0  0  0  0  0  0
  -10.9927  -55.3916  -28.2862 H   0  0  0  0  0  0  0  0  0  0  0  0
   -8.6279  -52.0760  -26.8855 H   0  0  0  0  0  0  0  0  0  0  0  0
  -11.5183  -56.1622  -31.6363 H   0  0  0  0  0  0  0  0  0  0  0  0
  -11.3933  -54.5183  -32.3496 H   0  0  0  0  0  0  0  0  0  0  0  0
   -9.9655  -55.6084  -32.3496 H   0  0  0  0  0  0  0  0  0  0  0  0
  -17.4337  -57.4428  -30.3349 H   0  0  0  0  0  0  0  0  0  0  0  0
  -17.8848  -58.5949  -28.9805 H   0  0  0  0  0  0  0  0  0  0  0  0
  -13.2013  -55.2265  -25.2219 H   0  0  0  0  0  0  0  0  0  0  0  0
 24 23  1  0
 28  5  1  0
 28  4  1  0
 12  9  2  0
 12 17  1  0
  9 18  1  0
  5 29  1  0
  4  6  1  0
 23 17  1  0
 17 11  2  0
 29 27  1  0
 18 22  1  0
 18 10  2  0
  6 27  1  0
 27  3  1  0
 22 31  3  0
  2  3  1  0
  2  1  2  0
 11 10  1  0
 11 15  1  0
  3  7  2  0
  1 25  1  0
 15 19  2  0
 15 21  1  0
 19 14  1  0
  7 26  1  0
  7  8  1  0
 25  8  2  0
 25 30  1  0
 26 16  1  0
 21 13  2  0
 14 30  1  0
 14 20  2  0
 13 20  1  0
  1 32  1  0
  2 33  1  0
  4 34  1  0
  4 35  1  0
  5 36  1  0
  5 37  1  0
  6 38  1  0
  6 39  1  0
  8 40  1  0
  9 41  1  0
 10 42  1  0
 12 43  1  0
 13 44  1  0
 16 45  1  0
 16 46  1  0
 16 47  1  0
 19 48  1  0
 21 49  1  0
 24 50  1  0
 24 51  1  0
 24 52  1  0
 29 53  1  0
 29 54  1  0
 30 55  1  0
A    1
C14
A    2
C16
A    3
C17
A    4
C22
A    5
C21
A    6
C20
A    7
C19
A    8
C18
A    9
C3
A   10
C2
A   11
C4
A   12
C5
A   13
C11
A   14
C9
A   15
C8
A   16
C24
A   17
C6
A   18
C1
A   19
C7
A   20
N1
A   21
C10
A   22
C12
A   23
O1
A   24
C13
A   25
C15
A   26
O2
A   27
N2
A   28
O3
A   29
C23
A   30
N3
A   31
N4
M  END
