5AXB_NRN_A_502
     RDKit          3D

 31 33  0  0  0  0  0  0  0  0999 V2000
  -30.7740  -41.2510   31.7030 N   0  0  0  0  0  0  0  0  0  0  0  0
  -31.1680  -40.9100   30.4380 C   0  0  0  0  0  0  0  0  0  0  0  0
  -30.2740  -40.7660   29.4160 N   0  0  0  0  0  0  0  0  0  0  0  0
  -32.5120  -40.6940   30.1300 C   0  0  0  0  0  0  0  0  0  0  0  0
  -33.6550  -40.7710   30.8370 N   0  0  0  0  0  0  0  0  0  0  0  0
  -34.6880  -40.4960   30.0340 C   0  0  0  0  0  0  0  0  0  0  0  0
  -34.2020  -40.2770   28.7940 N   0  0  0  0  0  0  0  0  0  0  0  0
  -32.8640  -40.4090   28.8230 C   0  0  0  0  0  0  0  0  0  0  0  0
  -31.9300  -40.2740   27.8350 N   0  0  0  0  0  0  0  0  0  0  0  0
  -30.6360  -40.4530   28.1600 C   0  0  0  0  0  0  0  0  0  0  0  0
  -34.9360  -40.0250   27.5380 C   0  0  0  0  0  0  0  0  0  0  0  0
  -35.8840  -41.2120   27.2330 C   0  0  0  0  0  0  0  0  0  0  0  0
  -35.2190  -42.3370   26.6490 O   0  0  0  0  0  0  0  0  0  0  0  0
  -35.8800  -38.8420   27.5370 C   0  0  0  0  0  0  0  0  0  0  0  0
  -36.6640  -39.1720   26.2490 C   0  0  0  0  0  0  0  0  0  0  0  0
  -37.8910  -38.4480   26.1080 O   0  0  0  0  0  0  0  0  0  0  0  0
  -36.9810  -40.6510   26.3350 C   0  0  0  0  0  0  0  0  0  0  0  0
  -36.9980  -41.1850   25.0100 O   0  0  0  0  0  0  0  0  0  0  0  0
  -31.2493  -40.8396   32.5189 H   0  0  0  0  0  0  0  0  0  0  0  0
  -30.0020  -41.9191   31.8394 H   0  0  0  0  0  0  0  0  0  0  0  0
  -35.7463  -40.4554   30.3312 H   0  0  0  0  0  0  0  0  0  0  0  0
  -29.8628  -40.3414   27.3856 H   0  0  0  0  0  0  0  0  0  0  0  0
  -34.1221  -39.8540   26.8180 H   0  0  0  0  0  0  0  0  0  0  0  0
  -36.3004  -41.6182   28.1666 H   0  0  0  0  0  0  0  0  0  0  0  0
  -34.8719  -42.9242   27.3665 H   0  0  0  0  0  0  0  0  0  0  0  0
  -35.3438  -37.8845   27.4614 H   0  0  0  0  0  0  0  0  0  0  0  0
  -36.4873  -38.7162   28.4455 H   0  0  0  0  0  0  0  0  0  0  0  0
  -36.0517  -38.8905   25.3796 H   0  0  0  0  0  0  0  0  0  0  0  0
  -38.2530  -38.2344   27.0043 H   0  0  0  0  0  0  0  0  0  0  0  0
  -37.9644  -40.9025   26.7589 H   0  0  0  0  0  0  0  0  0  0  0  0
  -37.0295  -42.1736   25.0530 H   0  0  0  0  0  0  0  0  0  0  0  0
 18 17  1  0
 16 15  1  0
 15 17  1  0
 15 14  1  0
 17 12  1  0
 13 12  1  0
 12 11  1  0
 14 11  1  0
 11  7  1  0
  9 10  2  0
  9  8  1  0
 10  3  1  0
  7  8  1  0
  7  6  1  0
  8  4  2  0
  3  2  2  0
  6  5  2  0
  4  2  1  0
  4  5  1  0
  2  1  1  0
  1 19  1  0
  1 20  1  0
  6 21  1  0
 10 22  1  0
 11 23  1  0
 12 24  1  0
 13 25  1  0
 14 26  1  0
 14 27  1  0
 15 28  1  0
 16 29  1  0
 17 30  1  0
 18 31  1  0
A    1
N6
A    2
C6
A    3
N1
A    4
C5
A    5
N7
A    6
C8
A    7
N9
A    8
C4
A    9
N3
A   10
C2
A   11
C1A
A   12
C2A
A   13
O2A
A   14
C5A
A   15
C4A
A   16
O5A
A   17
C3A
A   18
O3A
M  END
