5AZ5_MBL_A_901
     RDKit          3D

 36 37  0  0  0  0  0  0  0  0999 V2000
   22.0310   21.4230   41.6900 N   0  0  0  0  0  0  0  0  0  0  0  0
   21.3890   21.2870   40.5050 C   0  0  0  0  0  0  0  0  0  0  0  0
   21.9940   21.1260   39.3220 N   0  0  0  0  0  0  0  0  0  0  0  0
   23.4290   21.0950   39.0540 C   0  0  0  0  0  0  0  0  0  0  0  0
   24.0060   19.7570   39.4760 C   0  0  0  0  0  0  0  0  0  0  0  0
   23.4100   18.5470   38.7460 C   0  0  0  0  0  0  0  0  0  0  0  0
   23.9030   17.2830   39.4530 C   0  0  0  0  0  0  0  0  0  0  0  0
   23.4580   16.0030   38.8020 C   0  0  0  0  0  0  0  0  0  0  0  0
   21.0040   21.0500   38.4310 C   0  0  0  0  0  0  0  0  0  0  0  0
   20.0640   21.2830   40.4460 N   0  0  0  0  0  0  0  0  0  0  0  0
   19.7890   21.1520   39.1210 C   0  0  0  0  0  0  0  0  0  0  0  0
   18.4080   21.0820   38.5600 C   0  0  0  0  0  0  0  0  0  0  0  0
   18.1900   20.7570   37.2340 C   0  0  0  0  0  0  0  0  0  0  0  0
   17.3050   21.3060   39.3940 C   0  0  0  0  0  0  0  0  0  0  0  0
   16.0000   21.2150   38.8990 C   0  0  0  0  0  0  0  0  0  0  0  0
   15.7810   20.8990   37.5590 C   0  0  0  0  0  0  0  0  0  0  0  0
   16.8890   20.6640   36.7370 C   0  0  0  0  0  0  0  0  0  0  0  0
   21.5117   21.3130   42.5727 H   0  0  0  0  0  0  0  0  0  0  0  0
   23.0385   21.6364   41.7084 H   0  0  0  0  0  0  0  0  0  0  0  0
   23.6020   21.2434   37.9779 H   0  0  0  0  0  0  0  0  0  0  0  0
   23.9206   21.8967   39.6245 H   0  0  0  0  0  0  0  0  0  0  0  0
   23.8265   19.6303   40.5538 H   0  0  0  0  0  0  0  0  0  0  0  0
   25.0748   19.7824   39.2172 H   0  0  0  0  0  0  0  0  0  0  0  0
   23.7417   18.5424   37.6972 H   0  0  0  0  0  0  0  0  0  0  0  0
   22.3110   18.5920   38.7626 H   0  0  0  0  0  0  0  0  0  0  0  0
   25.0028   17.3004   39.4650 H   0  0  0  0  0  0  0  0  0  0  0  0
   23.4672   17.2937   40.4629 H   0  0  0  0  0  0  0  0  0  0  0  0
   23.2020   15.2666   39.5780 H   0  0  0  0  0  0  0  0  0  0  0  0
   22.5749   16.1978   38.1758 H   0  0  0  0  0  0  0  0  0  0  0  0
   24.2715   15.6080   38.1758 H   0  0  0  0  0  0  0  0  0  0  0  0
   21.1212   20.9284   37.3440 H   0  0  0  0  0  0  0  0  0  0  0  0
   19.0454   20.5709   36.5679 H   0  0  0  0  0  0  0  0  0  0  0  0
   17.4674   21.5569   40.4526 H   0  0  0  0  0  0  0  0  0  0  0  0
   15.1452   21.3930   39.5680 H   0  0  0  0  0  0  0  0  0  0  0  0
   14.7593   20.8357   37.1564 H   0  0  0  0  0  0  0  0  0  0  0  0
   16.7318   20.4013   35.6805 H   0  0  0  0  0  0  0  0  0  0  0  0
 17 13  2  0
 17 16  1  0
 13 12  1  0
 16 15  2  0
  9 11  2  0
  9  3  1  0
 12 11  1  0
 12 14  2  0
  6  7  1  0
  6  5  1  0
  8  7  1  0
 15 14  1  0
  4  3  1  0
  4  5  1  0
 11 10  1  0
  3  2  1  0
 10  2  2  0
  2  1  1  0
  1 18  1  0
  1 19  1  0
  4 20  1  0
  4 21  1  0
  5 22  1  0
  5 23  1  0
  6 24  1  0
  6 25  1  0
  7 26  1  0
  7 27  1  0
  8 28  1  0
  8 29  1  0
  8 30  1  0
  9 31  1  0
 13 32  1  0
 14 33  1  0
 15 34  1  0
 16 35  1  0
 17 36  1  0
A    1
N2
A    2
C8
A    3
N
A    4
C9
A    5
C10
A    6
C11
A    7
C12
A    8
C13
A    9
C7
A   10
N1
A   11
C6
A   12
C3
A   13
C1
A   14
C5
A   15
C4
A   16
C2
A   17
C
M  END
