5B09_4MX_A_201
     RDKit          3D

 32 32  0  0  0  0  0  0  0  0999 V2000
    9.3960   18.9680    8.4770 C   0  0  0  0  0  0  0  0  0  0  0  0
   12.3260   19.9200    4.5630 O   0  0  0  0  0  0  0  0  0  0  0  0
   14.5850   16.9970    2.7840 O   0  0  0  0  0  0  0  0  0  0  0  0
   10.8100   19.5180    8.3780 C   0  0  0  0  0  0  0  0  0  0  0  0
   11.7800   18.4670    7.8570 C   0  0  0  0  0  0  0  0  0  0  0  0
   11.2640   17.9800    6.5160 C   0  0  0  0  0  0  0  0  0  0  0  0
   12.2760   17.1240    5.7860 C   0  0  0  0  0  0  0  0  0  0  0  0
   12.5520   15.8500    6.2720 C   0  0  0  0  0  0  0  0  0  0  0  0
   13.4590   14.9990    5.6440 C   0  0  0  0  0  0  0  0  0  0  0  0
   14.1300   15.3860    4.4850 C   0  0  0  0  0  0  0  0  0  0  0  0
   13.9170   16.6390    3.9190 C   0  0  0  0  0  0  0  0  0  0  0  0
   12.9630   17.5850    4.5530 C   0  0  0  0  0  0  0  0  0  0  0  0
   12.7490   18.9350    3.9170 C   0  0  0  0  0  0  0  0  0  0  0  0
   13.0460   19.0500    2.7120 O   0  0  0  0  0  0  0  0  0  0  0  0
   13.6860   13.7660    6.1790 O   0  0  0  0  0  0  0  0  0  0  0  0
    8.4980   19.9870    9.1410 C   0  0  0  0  0  0  0  0  0  0  0  0
    9.0172   18.7495    7.4677 H   0  0  0  0  0  0  0  0  0  0  0  0
    9.4052   18.0454    9.0760 H   0  0  0  0  0  0  0  0  0  0  0  0
   12.3333   19.9029    5.5528 H   0  0  0  0  0  0  0  0  0  0  0  0
   15.4557   17.4637    2.8484 H   0  0  0  0  0  0  0  0  0  0  0  0
   11.1378   19.8440    9.3761 H   0  0  0  0  0  0  0  0  0  0  0  0
   10.8041   20.3628    7.6736 H   0  0  0  0  0  0  0  0  0  0  0  0
   11.8351   17.6261    8.5640 H   0  0  0  0  0  0  0  0  0  0  0  0
   12.7870   18.8959    7.7472 H   0  0  0  0  0  0  0  0  0  0  0  0
   11.0236   18.8531    5.8916 H   0  0  0  0  0  0  0  0  0  0  0  0
   10.3738   17.3616    6.7032 H   0  0  0  0  0  0  0  0  0  0  0  0
   12.0379   15.5036    7.1807 H   0  0  0  0  0  0  0  0  0  0  0  0
   14.8383   14.6905    4.0110 H   0  0  0  0  0  0  0  0  0  0  0  0
   13.7075   13.6492    7.1618 H   0  0  0  0  0  0  0  0  0  0  0  0
    8.5814   19.8924   10.2338 H   0  0  0  0  0  0  0  0  0  0  0  0
    8.8035   20.9988    8.8362 H   0  0  0  0  0  0  0  0  0  0  0  0
    7.4558   19.8112    8.8362 H   0  0  0  0  0  0  0  0  0  0  0  0
 14 13  2  0
  3 11  1  0
 13 12  1  0
 13  2  1  0
 11 10  2  0
 11 12  1  0
 10  9  1  0
 12  7  2  0
  9 15  1  0
  9  8  2  0
  7  8  1  0
  7  6  1  0
  6  5  1  0
  5  4  1  0
  4  1  1  0
  1 16  1  0
  1 17  1  0
  1 18  1  0
  2 19  1  0
  3 20  1  0
  4 21  1  0
  4 22  1  0
  5 23  1  0
  5 24  1  0
  6 25  1  0
  6 26  1  0
  8 27  1  0
 10 28  1  0
 15 29  1  0
 16 30  1  0
 16 31  1  0
 16 32  1  0
A    1
C1
A    2
O1
A    3
O2
A    4
C2
A    5
C3
A    6
C4
A    7
C5
A    8
C6
A    9
C7
A   10
C8
A   11
C9
A   12
C10
A   13
C11
A   14
O
A   15
O3
A   16
C
M  END
