5B0X_HCK_A_401
     RDKit          3D

 39 41  0  0  0  0  0  0  0  0999 V2000
  -12.0580    5.0720   14.2320 C   0  0  0  0  0  0  0  0  0  0  0  0
  -12.6500    5.4010   12.9970 C   0  0  0  0  0  0  0  0  0  0  0  0
  -13.1660    4.4110   12.1320 C   0  0  0  0  0  0  0  0  0  0  0  0
  -13.0550    3.0610   12.4840 C   0  0  0  0  0  0  0  0  0  0  0  0
  -12.4190    2.7300   13.7010 C   0  0  0  0  0  0  0  0  0  0  0  0
  -11.9430    3.7270   14.5800 C   0  0  0  0  0  0  0  0  0  0  0  0
  -12.7540    6.7270   12.6020 C   0  0  0  0  0  0  0  0  0  0  0  0
  -12.3620    7.8320   13.3870 C   0  0  0  0  0  0  0  0  0  0  0  0
  -12.5690    9.0100   12.7100 N   0  0  0  0  0  0  0  0  0  0  0  0
  -13.0940    8.8250   11.4540 C   0  0  0  0  0  0  0  0  0  0  0  0
  -13.3530    7.1660   11.0890 S   0  0  0  0  0  0  0  0  0  0  0  0
  -12.2590    1.3240   14.0850 C   0  0  0  0  0  0  0  0  0  0  0  0
  -11.4420    1.0600   14.9670 O   0  0  0  0  0  0  0  0  0  0  0  0
  -12.8990    0.4490   13.4970 O   0  0  0  0  0  0  0  0  0  0  0  0
  -13.3860    9.9220   10.5160 N   0  0  0  0  0  0  0  0  0  0  0  0
  -13.7260    9.6530    9.2330 C   0  0  0  0  0  0  0  0  0  0  0  0
  -13.6530   10.7870    8.2920 C   0  0  0  0  0  0  0  0  0  0  0  0
  -14.0460    8.5220    8.8880 O   0  0  0  0  0  0  0  0  0  0  0  0
  -13.6730   10.5090    6.9050 C   0  0  0  0  0  0  0  0  0  0  0  0
  -13.5940   11.5650    5.9810 C   0  0  0  0  0  0  0  0  0  0  0  0
  -13.4870   12.8970    6.4480 C   0  0  0  0  0  0  0  0  0  0  0  0
  -13.4950   13.1750    7.8330 C   0  0  0  0  0  0  0  0  0  0  0  0
  -13.5750   12.1190    8.7580 C   0  0  0  0  0  0  0  0  0  0  0  0
  -13.3940   13.9990    5.5940 O   0  0  0  0  0  0  0  0  0  0  0  0
  -13.4150   13.7560    4.1870 C   0  0  0  0  0  0  0  0  0  0  0  0
  -11.6940    5.8599   14.9078 H   0  0  0  0  0  0  0  0  0  0  0  0
  -13.6518    4.6990   11.1881 H   0  0  0  0  0  0  0  0  0  0  0  0
  -13.4545    2.2745   11.8269 H   0  0  0  0  0  0  0  0  0  0  0  0
  -11.4823    3.4430   15.5376 H   0  0  0  0  0  0  0  0  0  0  0  0
  -11.9470    7.7603   14.4032 H   0  0  0  0  0  0  0  0  0  0  0  0
  -11.6980    1.1427   15.9197 H   0  0  0  0  0  0  0  0  0  0  0  0
  -13.3314   10.8990   10.8374 H   0  0  0  0  0  0  0  0  0  0  0  0
  -13.7501    9.4703    6.5511 H   0  0  0  0  0  0  0  0  0  0  0  0
  -13.6152   11.3576    4.9009 H   0  0  0  0  0  0  0  0  0  0  0  0
  -13.4388   14.2150    8.1870 H   0  0  0  0  0  0  0  0  0  0  0  0
  -13.5769   12.3284    9.8379 H   0  0  0  0  0  0  0  0  0  0  0  0
  -13.5084   12.6755    4.0029 H   0  0  0  0  0  0  0  0  0  0  0  0
  -14.2712   14.2800    3.7371 H   0  0  0  0  0  0  0  0  0  0  0  0
  -12.4816   14.1253    3.7371 H   0  0  0  0  0  0  0  0  0  0  0  0
 25 24  1  0
 24 21  1  0
 20 21  1  0
 20 19  2  0
 21 22  2  0
 19 17  1  0
 22 23  1  0
 17 23  2  0
 17 16  1  0
 18 16  2  0
 16 15  1  0
 15 10  1  0
 11 10  1  0
 11  7  1  0
 10  9  2  0
  3  4  2  0
  3  2  1  0
  4  5  1  0
  7  2  1  0
  7  8  2  0
  9  8  1  0
  2  1  2  0
 14 12  2  0
  5 12  1  0
  5  6  2  0
 12 13  1  0
  1  6  1  0
  1 26  1  0
  3 27  1  0
  4 28  1  0
  6 29  1  0
  8 30  1  0
 13 31  1  0
 15 32  1  0
 19 33  1  0
 20 34  1  0
 22 35  1  0
 23 36  1  0
 25 37  1  0
 25 38  1  0
 25 39  1  0
A    1
C1
A    2
C2
A    3
C3
A    4
C4
A    5
C5
A    6
C6
A    7
C13
A    8
C15
A    9
N16
A   10
C17
A   11
S18
A   12
C24
A   13
O26
A   14
O28
A   15
N30
A   16
C32
A   17
C33
A   18
O36
A   19
C38
A   20
C39
A   21
C40
A   22
C41
A   23
C42
A   24
O49
A   25
C51
M  END
