5B2U_W06_A_502
     RDKit          3D

 44 45  0  0  0  0  0  0  0  0999 V2000
    3.0490  -29.5600   23.2750 F   0  0  0  0  0  0  0  0  0  0  0  0
    3.3290  -28.4980   23.9980 C   0  0  0  0  0  0  0  0  0  0  0  0
    2.1980  -28.0070   24.5330 F   0  0  0  0  0  0  0  0  0  0  0  0
    3.8270  -27.5380   23.1960 F   0  0  0  0  0  0  0  0  0  0  0  0
    4.3830  -28.7880   25.0580 C   0  0  0  0  0  0  0  0  0  0  0  0
    5.0410  -29.4880   24.8540 F   0  0  0  0  0  0  0  0  0  0  0  0
    4.8470  -27.4490   25.6520 F   0  0  0  0  0  0  0  0  0  0  0  0
    3.5860  -29.4530   26.2710 C   0  0  0  0  0  0  0  0  0  0  0  0
    3.1840  -30.7460   25.8770 F   0  0  0  0  0  0  0  0  0  0  0  0
    2.5470  -28.7780   26.5710 F   0  0  0  0  0  0  0  0  0  0  0  0
    4.3700  -29.5030   27.6220 C   0  0  0  0  0  0  0  0  0  0  0  0
    3.6040  -28.9990   28.6450 F   0  0  0  0  0  0  0  0  0  0  0  0
    5.5640  -28.7910   27.5200 F   0  0  0  0  0  0  0  0  0  0  0  0
    4.7230  -30.9120   28.0470 C   0  0  0  0  0  0  0  0  0  0  0  0
    5.3620  -30.8510   29.2200 F   0  0  0  0  0  0  0  0  0  0  0  0
    5.5510  -31.3800   27.0510 F   0  0  0  0  0  0  0  0  0  0  0  0
    3.5100  -31.8810   28.1590 C   0  0  0  0  0  0  0  0  0  0  0  0
    3.6760  -33.0200   27.7380 O   0  0  0  0  0  0  0  0  0  0  0  0
    2.3310  -31.4350   28.6870 N   0  0  0  0  0  0  0  0  0  0  0  0
    1.1070  -32.2960   28.7180 C   0  0  0  0  0  0  0  0  0  0  0  0
   -0.1950  -31.4870   29.0070 C   0  0  0  0  0  0  0  0  0  0  0  0
   -0.1480  -30.2540   28.8230 O   0  0  0  0  0  0  0  0  0  0  0  0
   -1.2190  -32.1260   29.3690 O   0  0  0  0  0  0  0  0  0  0  0  0
    1.2470  -33.4640   29.6720 C   0  0  0  0  0  0  0  0  0  0  0  0
    1.0100  -33.0590   31.1440 C   0  0  0  0  0  0  0  0  0  0  0  0
    0.8040  -33.9730   32.0930 C   0  0  0  0  0  0  0  0  0  0  0  0
    0.7430  -35.3100   32.0350 C   0  0  0  0  0  0  0  0  0  0  0  0
    0.5050  -36.0630   33.1790 C   0  0  0  0  0  0  0  0  0  0  0  0
    0.3480  -35.3820   34.3780 C   0  0  0  0  0  0  0  0  0  0  0  0
    0.4210  -33.9870   34.3880 C   0  0  0  0  0  0  0  0  0  0  0  0
    0.6420  -33.3170   33.2510 C   0  0  0  0  0  0  0  0  0  0  0  0
    0.7530  -32.0040   32.9920 N   0  0  0  0  0  0  0  0  0  0  0  0
    0.9920  -31.8420   31.6850 C   0  0  0  0  0  0  0  0  0  0  0  0
    2.2835  -30.4815   29.0737 H   0  0  0  0  0  0  0  0  0  0  0  0
    1.0105  -32.7084   27.7028 H   0  0  0  0  0  0  0  0  0  0  0  0
   -1.4123  -32.2466   30.3324 H   0  0  0  0  0  0  0  0  0  0  0  0
    0.5124  -34.2348   29.3958 H   0  0  0  0  0  0  0  0  0  0  0  0
    2.2778  -33.8393   29.5910 H   0  0  0  0  0  0  0  0  0  0  0  0
    0.8830  -35.8185   31.0697 H   0  0  0  0  0  0  0  0  0  0  0  0
    0.4433  -37.1604   33.1354 H   0  0  0  0  0  0  0  0  0  0  0  0
    0.1678  -35.9354   35.3115 H   0  0  0  0  0  0  0  0  0  0  0  0
    0.2965  -33.4379   35.3330 H   0  0  0  0  0  0  0  0  0  0  0  0
    0.6682  -31.2465   33.6848 H   0  0  0  0  0  0  0  0  0  0  0  0
    1.1442  -30.8879   31.1591 H   0  0  0  0  0  0  0  0  0  0  0  0
  4  2  1  0
  1  2  1  0
  2  3  1  0
  2  5  1  0
  6  5  1  0
  5  7  1  0
  5  8  1  0
  9  8  1  0
  8 10  1  0
  8 11  1  0
 16 14  1  0
 13 11  1  0
 11 14  1  0
 11 12  1  0
 18 17  2  0
 14 17  1  0
 14 15  1  0
 17 19  1  0
 19 20  1  0
 20 21  1  0
 20 24  1  0
 22 21  2  0
 21 23  1  0
 24 25  1  0
 25 33  2  0
 25 26  1  0
 33 32  1  0
 27 26  2  0
 27 28  1  0
 26 31  1  0
 32 31  1  0
 28 29  2  0
 31 30  2  0
 29 30  1  0
 19 34  1  0
 20 35  1  0
 23 36  1  0
 24 37  1  0
 24 38  1  0
 27 39  1  0
 28 40  1  0
 29 41  1  0
 30 42  1  0
 32 43  1  0
 33 44  1  0
A    1
FAW
A    2
CAV
A    3
FAX
A    4
FAY
A    5
CAU
A    6
FAZ
A    7
FBA
A    8
CAT
A    9
FBB
A   10
FBC
A   11
CAS
A   12
FBD
A   13
FBE
A   14
CAR
A   15
FBF
A   16
FBG
A   17
CAP
A   18
OAQ
A   19
N
A   20
CA
A   21
C
A   22
O
A   23
OXT
A   24
CB
A   25
CG
A   26
CD2
A   27
CE3
A   28
CZ3
A   29
CH2
A   30
CZ2
A   31
CE2
A   32
NE1
A   33
CD1
M  END
