5B2X_W0T_A_502
     RDKit          3D

 47 48  0  0  0  0  0  0  0  0999 V2000
    0.9570  -27.3030   25.7810 F   0  0  0  0  0  0  0  0  0  0  0  0
    1.2210  -27.6950   24.5380 C   0  0  0  0  0  0  0  0  0  0  0  0
    2.2210  -26.9860   24.0200 F   0  0  0  0  0  0  0  0  0  0  0  0
    0.1020  -27.5130   23.8620 F   0  0  0  0  0  0  0  0  0  0  0  0
    1.6080  -29.1770   24.4760 C   0  0  0  0  0  0  0  0  0  0  0  0
    2.0990  -29.4820   23.2640 F   0  0  0  0  0  0  0  0  0  0  0  0
    0.5110  -29.9030   24.7210 F   0  0  0  0  0  0  0  0  0  0  0  0
    2.7130  -29.4560   25.5040 C   0  0  0  0  0  0  0  0  0  0  0  0
    3.4680  -28.3700   25.6640 F   0  0  0  0  0  0  0  0  0  0  0  0
    3.4720  -30.4200   25.0250 F   0  0  0  0  0  0  0  0  0  0  0  0
    2.1640  -29.9210   26.8650 C   0  0  0  0  0  0  0  0  0  0  0  0
    1.3480  -29.0020   27.3860 F   0  0  0  0  0  0  0  0  0  0  0  0
    1.5100  -31.0680   26.6770 F   0  0  0  0  0  0  0  0  0  0  0  0
    3.3490  -30.1240   27.8180 C   0  0  0  0  0  0  0  0  0  0  0  0
    3.9970  -28.9590   27.9030 F   0  0  0  0  0  0  0  0  0  0  0  0
    4.1380  -31.0790   27.3300 F   0  0  0  0  0  0  0  0  0  0  0  0
    2.9350  -30.5740   29.2240 C   0  0  0  0  0  0  0  0  0  0  0  0
    2.3880  -29.5570   29.8970 F   0  0  0  0  0  0  0  0  0  0  0  0
    4.0420  -30.9680   29.8270 F   0  0  0  0  0  0  0  0  0  0  0  0
    1.9590  -31.7610   29.1520 C   0  0  0  0  0  0  0  0  0  0  0  0
    2.2950  -32.8190   28.6020 O   0  0  0  0  0  0  0  0  0  0  0  0
    0.7330  -31.5180   29.6660 N   0  0  0  0  0  0  0  0  0  0  0  0
   -0.3510  -32.5280   29.6350 C   0  0  0  0  0  0  0  0  0  0  0  0
   -1.7300  -31.8740   29.8970 C   0  0  0  0  0  0  0  0  0  0  0  0
   -1.7720  -30.6300   29.8530 O   0  0  0  0  0  0  0  0  0  0  0  0
   -2.7240  -32.6230   30.0560 O   0  0  0  0  0  0  0  0  0  0  0  0
   -0.0010  -33.6620   30.5930 C   0  0  0  0  0  0  0  0  0  0  0  0
   -0.2820  -33.2890   32.0590 C   0  0  0  0  0  0  0  0  0  0  0  0
   -0.6180  -34.2000   32.9740 C   0  0  0  0  0  0  0  0  0  0  0  0
   -0.8280  -35.5200   32.8780 C   0  0  0  0  0  0  0  0  0  0  0  0
   -1.2020  -36.2660   33.9840 C   0  0  0  0  0  0  0  0  0  0  0  0
   -1.3520  -35.5960   35.1840 C   0  0  0  0  0  0  0  0  0  0  0  0
   -1.1240  -34.2190   35.2380 C   0  0  0  0  0  0  0  0  0  0  0  0
   -0.7650  -33.5520   34.1370 C   0  0  0  0  0  0  0  0  0  0  0  0
   -0.4980  -32.2550   33.9250 N   0  0  0  0  0  0  0  0  0  0  0  0
   -0.1840  -32.0910   32.6360 C   0  0  0  0  0  0  0  0  0  0  0  0
    0.5457  -30.5999   30.0937 H   0  0  0  0  0  0  0  0  0  0  0  0
   -0.4374  -32.9700   28.6314 H   0  0  0  0  0  0  0  0  0  0  0  0
   -3.0294  -32.8531   30.9692 H   0  0  0  0  0  0  0  0  0  0  0  0
   -0.6010  -34.5458   30.3307 H   0  0  0  0  0  0  0  0  0  0  0  0
    1.0754  -33.8671   30.4961 H   0  0  0  0  0  0  0  0  0  0  0  0
   -0.7015  -36.0191   31.9059 H   0  0  0  0  0  0  0  0  0  0  0  0
   -1.3731  -37.3501   33.9101 H   0  0  0  0  0  0  0  0  0  0  0  0
   -1.6490  -36.1438   36.0905 H   0  0  0  0  0  0  0  0  0  0  0  0
   -1.2404  -33.6814   36.1906 H   0  0  0  0  0  0  0  0  0  0  0  0
   -0.5296  -31.5103   34.6359 H   0  0  0  0  0  0  0  0  0  0  0  0
    0.1006  -31.1485   32.1455 H   0  0  0  0  0  0  0  0  0  0  0  0
  6  5  1  0
  4  2  1  0
  3  2  1  0
  5  2  1  0
  5  7  1  0
  5  8  1  0
  2  1  1  0
 10  8  1  0
  8  9  1  0
  8 11  1  0
 13 11  1  0
 11 12  1  0
 11 14  1  0
 16 14  1  0
 14 15  1  0
 14 17  1  0
 21 20  2  0
 20 17  1  0
 20 22  1  0
 17 19  1  0
 17 18  1  0
 23 22  1  0
 23 24  1  0
 23 27  1  0
 25 24  2  0
 24 26  1  0
 27 28  1  0
 28 36  2  0
 28 29  1  0
 36 35  1  0
 30 29  2  0
 30 31  1  0
 29 34  1  0
 35 34  1  0
 31 32  2  0
 34 33  2  0
 32 33  1  0
 22 37  1  0
 23 38  1  0
 26 39  1  0
 27 40  1  0
 27 41  1  0
 30 42  1  0
 31 43  1  0
 32 44  1  0
 33 45  1  0
 35 46  1  0
 36 47  1  0
A    1
FAX
A    2
CAW
A    3
FAY
A    4
FAZ
A    5
CAV
A    6
FBA
A    7
FBB
A    8
CAU
A    9
FBC
A   10
FBD
A   11
CAT
A   12
FBE
A   13
FBF
A   14
CAS
A   15
FBG
A   16
FBH
A   17
CAR
A   18
FBI
A   19
FBJ
A   20
CAP
A   21
OAQ
A   22
N
A   23
CA
A   24
C
A   25
O
A   26
OXT
A   27
CB
A   28
CG
A   29
CD2
A   30
CE3
A   31
CZ3
A   32
CH2
A   33
CZ2
A   34
CE2
A   35
NE1
A   36
CD1
M  END
