5B2Y_W10_A_502
     RDKit          3D

 56 57  0  0  0  0  0  0  0  0999 V2000
   26.3580   24.0140   22.0890 F   0  0  0  0  0  0  0  0  0  0  0  0
   27.5680   23.6310   21.6920 C   0  0  0  0  0  0  0  0  0  0  0  0
   27.4970   22.4380   21.1120 F   0  0  0  0  0  0  0  0  0  0  0  0
   28.3550   23.5140   22.7630 F   0  0  0  0  0  0  0  0  0  0  0  0
   28.1900   24.6340   20.6950 C   0  0  0  0  0  0  0  0  0  0  0  0
   28.0470   24.1800   19.4460 F   0  0  0  0  0  0  0  0  0  0  0  0
   29.4810   24.6310   20.9820 F   0  0  0  0  0  0  0  0  0  0  0  0
   27.6150   26.0920   20.7480 C   0  0  0  0  0  0  0  0  0  0  0  0
   26.3000   26.0550   20.5560 F   0  0  0  0  0  0  0  0  0  0  0  0
   28.1220   26.8110   19.7420 F   0  0  0  0  0  0  0  0  0  0  0  0
   27.9370   26.8620   22.0650 C   0  0  0  0  0  0  0  0  0  0  0  0
   28.9510   27.6990   21.8410 F   0  0  0  0  0  0  0  0  0  0  0  0
   28.2950   26.0150   23.0330 F   0  0  0  0  0  0  0  0  0  0  0  0
   26.7340   27.7150   22.5430 C   0  0  0  0  0  0  0  0  0  0  0  0
   25.6980   26.9260   22.8160 F   0  0  0  0  0  0  0  0  0  0  0  0
   26.3800   28.5450   21.5580 F   0  0  0  0  0  0  0  0  0  0  0  0
   27.1170   28.5370   23.8040 C   0  0  0  0  0  0  0  0  0  0  0  0
   27.9080   29.5480   23.4250 F   0  0  0  0  0  0  0  0  0  0  0  0
   27.8080   27.7760   24.6530 F   0  0  0  0  0  0  0  0  0  0  0  0
   25.8710   29.0860   24.5590 C   0  0  0  0  0  0  0  0  0  0  0  0
   25.1580   28.0860   25.0720 F   0  0  0  0  0  0  0  0  0  0  0  0
   25.0940   29.7410   23.6980 F   0  0  0  0  0  0  0  0  0  0  0  0
   26.3260   29.9970   25.7340 C   0  0  0  0  0  0  0  0  0  0  0  0
   27.1220   30.9630   25.2790 F   0  0  0  0  0  0  0  0  0  0  0  0
   27.0070   29.2520   26.6040 F   0  0  0  0  0  0  0  0  0  0  0  0
   25.1850   30.6620   26.5350 C   0  0  0  0  0  0  0  0  0  0  0  0
   24.5550   29.7480   27.2900 F   0  0  0  0  0  0  0  0  0  0  0  0
   24.3180   31.2270   25.7040 F   0  0  0  0  0  0  0  0  0  0  0  0
   25.7840   31.7510   27.4630 C   0  0  0  0  0  0  0  0  0  0  0  0
   25.2520   32.8620   27.5850 O   0  0  0  0  0  0  0  0  0  0  0  0
   26.9290   31.3970   28.0830 N   0  0  0  0  0  0  0  0  0  0  0  0
   27.6210   32.2530   29.0530 C   0  0  0  0  0  0  0  0  0  0  0  0
   29.0460   31.6960   29.2320 C   0  0  0  0  0  0  0  0  0  0  0  0
   29.9780   32.4950   29.4820 O   0  0  0  0  0  0  0  0  0  0  0  0
   29.1760   30.4570   29.1140 O   0  0  0  0  0  0  0  0  0  0  0  0
   26.7490   32.0640   30.2820 C   0  0  0  0  0  0  0  0  0  0  0  0
   27.5580   32.3520   31.5490 C   0  0  0  0  0  0  0  0  0  0  0  0
   27.8810   33.5520   32.0190 C   0  0  0  0  0  0  0  0  0  0  0  0
   27.6580   34.7910   31.5690 C   0  0  0  0  0  0  0  0  0  0  0  0
   28.1420   35.8800   32.2920 C   0  0  0  0  0  0  0  0  0  0  0  0
   28.8500   35.6650   33.4660 C   0  0  0  0  0  0  0  0  0  0  0  0
   29.0480   34.3530   33.8780 C   0  0  0  0  0  0  0  0  0  0  0  0
   28.5670   33.3380   33.1560 C   0  0  0  0  0  0  0  0  0  0  0  0
   28.6390   32.0190   33.3610 N   0  0  0  0  0  0  0  0  0  0  0  0
   28.0050   31.4050   32.3670 C   0  0  0  0  0  0  0  0  0  0  0  0
   27.3386   30.4777   27.8638 H   0  0  0  0  0  0  0  0  0  0  0  0
   27.7409   33.3145   28.7907 H   0  0  0  0  0  0  0  0  0  0  0  0
   30.2164   32.6993   30.4209 H   0  0  0  0  0  0  0  0  0  0  0  0
   25.8940   32.7542   30.2313 H   0  0  0  0  0  0  0  0  0  0  0  0
   26.3893   31.0249   30.3124 H   0  0  0  0  0  0  0  0  0  0  0  0
   27.0973   34.9497   30.6360 H   0  0  0  0  0  0  0  0  0  0  0  0
   27.9636   36.9046   31.9338 H   0  0  0  0  0  0  0  0  0  0  0  0
   29.2428   36.5083   34.0530 H   0  0  0  0  0  0  0  0  0  0  0  0
   29.6045   34.1492   34.8047 H   0  0  0  0  0  0  0  0  0  0  0  0
   29.1062   31.5570   34.1542 H   0  0  0  0  0  0  0  0  0  0  0  0
   27.8751   30.3195   32.2448 H   0  0  0  0  0  0  0  0  0  0  0  0
  6  5  1  0
 10  8  1  0
  9  8  1  0
  5  8  1  0
  5  7  1  0
  5  2  1  0
  8 11  1  0
  3  2  1  0
 16 14  1  0
  2  1  1  0
  2  4  1  0
 12 11  1  0
 11 14  1  0
 11 13  1  0
 14 15  1  0
 14 17  1  0
 18 17  1  0
 22 20  1  0
 17 20  1  0
 17 19  1  0
 20 21  1  0
 20 23  1  0
 24 23  1  0
 28 26  1  0
 23 26  1  0
 23 25  1  0
 26 27  1  0
 26 29  1  0
 29 30  2  0
 29 31  1  0
 31 32  1  0
 32 33  1  0
 32 36  1  0
 35 33  2  0
 33 34  1  0
 36 37  1  0
 37 38  1  0
 37 45  2  0
 39 38  2  0
 39 40  1  0
 38 43  1  0
 40 41  2  0
 45 44  1  0
 43 44  1  0
 43 42  2  0
 41 42  1  0
 31 46  1  0
 32 47  1  0
 34 48  1  0
 36 49  1  0
 36 50  1  0
 39 51  1  0
 40 52  1  0
 41 53  1  0
 42 54  1  0
 44 55  1  0
 45 56  1  0
A    1
FBQ
A    2
CAZ
A    3
FBR
A    4
FBS
A    5
CAY
A    6
FBO
A    7
FBP
A    8
CAX
A    9
FBA
A   10
FBB
A   11
CAW
A   12
FBC
A   13
FBD
A   14
CAV
A   15
FBE
A   16
FBF
A   17
CAU
A   18
FBG
A   19
FBH
A   20
CAT
A   21
FBI
A   22
FBJ
A   23
CAS
A   24
FBK
A   25
FBL
A   26
CAR
A   27
FBM
A   28
FBN
A   29
CAP
A   30
OAQ
A   31
N
A   32
CA
A   33
C
A   34
O
A   35
OXT
A   36
CB
A   37
CG
A   38
CD2
A   39
CE3
A   40
CZ3
A   41
CH2
A   42
CZ2
A   43
CE2
A   44
NE1
A   45
CD1
M  END
