5B41_YSV_A_501
     RDKit          3D

 74 76  0  0  0  0  0  0  0  0999 V2000
    9.1440   -1.5710   28.3190 O   0  0  0  0  0  0  0  0  0  0  0  0
    8.6050   -0.5970   27.4300 C   0  0  0  0  0  0  0  0  0  0  0  0
    7.8530    0.4460   28.2540 C   0  0  0  0  0  0  0  0  0  0  0  0
    7.6390   -1.3100   26.4760 C   0  0  0  0  0  0  0  0  0  0  0  0
    9.7720    0.0210   26.6500 C   0  0  0  0  0  0  0  0  0  0  0  0
   10.6540    0.9140   27.5390 C   0  0  0  0  0  0  0  0  0  0  0  0
   11.8550    1.4590   26.7530 C   0  0  0  0  0  0  0  0  0  0  0  0
   12.7570    2.2790   27.6570 C   0  0  0  0  0  0  0  0  0  0  0  0
   13.3340    1.4140   28.7510 C   0  0  0  0  0  0  0  0  0  0  0  0
   13.8940    3.0290   26.9190 C   0  0  0  0  0  0  0  0  0  0  0  0
   14.5640    2.2980   25.7420 C   0  0  0  0  0  0  0  0  0  0  0  0
   13.5300    4.3990   26.3890 C   0  0  0  0  0  0  0  0  0  0  0  0
   12.2710    4.3310   25.4950 C   0  0  0  0  0  0  0  0  0  0  0  0
   14.7760    4.6900   25.5390 C   0  0  0  0  0  0  0  0  0  0  0  0
   15.1050    3.3740   24.7800 C   0  0  0  0  0  0  0  0  0  0  0  0
   13.3780    5.4980   27.3980 C   0  0  0  0  0  0  0  0  0  0  0  0
   13.1230    6.8720   26.6740 C   0  0  0  0  0  0  0  0  0  0  0  0
   14.2260    7.1760   25.6300 C   0  0  0  0  0  0  0  0  0  0  0  0
   14.5760    5.9630   24.7760 C   0  0  0  0  0  0  0  0  0  0  0  0
   14.7140    6.0280   23.4360 C   0  0  0  0  0  0  0  0  0  0  0  0
   14.4880    7.2910   22.7160 C   0  0  0  0  0  0  0  0  0  0  0  0
   14.2760    7.3540   21.3820 C   0  0  0  0  0  0  0  0  0  0  0  0
   14.0390    8.7150   20.7710 C   0  0  0  0  0  0  0  0  0  0  0  0
   14.2080    6.1050   20.5420 C   0  0  0  0  0  0  0  0  0  0  0  0
   14.7010    6.2670   19.1080 C   0  0  0  0  0  0  0  0  0  0  0  0
   14.2200    5.2350   18.2490 O   0  0  0  0  0  0  0  0  0  0  0  0
   14.3300    7.6060   18.5580 C   0  0  0  0  0  0  0  0  0  0  0  0
   13.7430    7.7580   17.3850 C   0  0  0  0  0  0  0  0  0  0  0  0
   14.7100    8.8170   19.3930 C   0  0  0  0  0  0  0  0  0  0  0  0
   16.1190    8.8290   19.5120 O   0  0  0  0  0  0  0  0  0  0  0  0
    8.9868   -1.2870   29.2543 H   0  0  0  0  0  0  0  0  0  0  0  0
    7.9997    0.2425   29.3250 H   0  0  0  0  0  0  0  0  0  0  0  0
    8.2374    1.4486   28.0152 H   0  0  0  0  0  0  0  0  0  0  0  0
    6.7803    0.3981   28.0152 H   0  0  0  0  0  0  0  0  0  0  0  0
    6.8889   -1.8636   27.0599 H   0  0  0  0  0  0  0  0  0  0  0  0
    7.1342   -0.5663   25.8419 H   0  0  0  0  0  0  0  0  0  0  0  0
    8.2009   -2.0115   25.8419 H   0  0  0  0  0  0  0  0  0  0  0  0
   10.3906   -0.7891   26.2364 H   0  0  0  0  0  0  0  0  0  0  0  0
    9.3506    0.6491   25.8513 H   0  0  0  0  0  0  0  0  0  0  0  0
   10.0535    1.7580   27.9091 H   0  0  0  0  0  0  0  0  0  0  0  0
   11.0296    0.3105   28.3785 H   0  0  0  0  0  0  0  0  0  0  0  0
   12.4281    0.6166   26.3383 H   0  0  0  0  0  0  0  0  0  0  0  0
   11.4852    2.1034   25.9419 H   0  0  0  0  0  0  0  0  0  0  0  0
   12.1107    3.0583   28.0870 H   0  0  0  0  0  0  0  0  0  0  0  0
   13.0570    1.8292   29.7312 H   0  0  0  0  0  0  0  0  0  0  0  0
   12.9356    0.3928   28.6595 H   0  0  0  0  0  0  0  0  0  0  0  0
   14.4299    1.3896   28.6595 H   0  0  0  0  0  0  0  0  0  0  0  0
   14.6021    3.0997   27.7578 H   0  0  0  0  0  0  0  0  0  0  0  0
   13.8279    1.6659   25.2237 H   0  0  0  0  0  0  0  0  0  0  0  0
   15.3787    1.6510   26.0993 H   0  0  0  0  0  0  0  0  0  0  0  0
   11.3733    4.2825   26.1289 H   0  0  0  0  0  0  0  0  0  0  0  0
   12.2234    5.2279   24.8599 H   0  0  0  0  0  0  0  0  0  0  0  0
   12.3203    3.4342   24.8599 H   0  0  0  0  0  0  0  0  0  0  0  0
   15.6952    4.9233   26.0963 H   0  0  0  0  0  0  0  0  0  0  0  0
   14.5908    3.3350   23.8084 H   0  0  0  0  0  0  0  0  0  0  0  0
   16.1727    3.2568   24.5425 H   0  0  0  0  0  0  0  0  0  0  0  0
   12.5265    5.2711   28.0564 H   0  0  0  0  0  0  0  0  0  0  0  0
   14.3024    5.5712   27.9897 H   0  0  0  0  0  0  0  0  0  0  0  0
   13.1108    7.6752   27.4254 H   0  0  0  0  0  0  0  0  0  0  0  0
   12.1580    6.8122   26.1495 H   0  0  0  0  0  0  0  0  0  0  0  0
   15.1313    7.5064   26.1602 H   0  0  0  0  0  0  0  0  0  0  0  0
   13.8416    7.9569   24.9574 H   0  0  0  0  0  0  0  0  0  0  0  0
   14.9989    5.1259   22.8747 H   0  0  0  0  0  0  0  0  0  0  0  0
   14.4917    8.2291   23.2905 H   0  0  0  0  0  0  0  0  0  0  0  0
   14.4577    9.4862   21.4343 H   0  0  0  0  0  0  0  0  0  0  0  0
   12.9560    8.8634   20.6483 H   0  0  0  0  0  0  0  0  0  0  0  0
   13.1598    5.7733   20.5074 H   0  0  0  0  0  0  0  0  0  0  0  0
   14.8802    5.3763   21.0185 H   0  0  0  0  0  0  0  0  0  0  0  0
   15.7975    6.1871   19.1442 H   0  0  0  0  0  0  0  0  0  0  0  0
   13.8712    4.4867   18.7954 H   0  0  0  0  0  0  0  0  0  0  0  0
   13.4894    8.7654   17.0233 H   0  0  0  0  0  0  0  0  0  0  0  0
   13.5076    6.8772   16.7695 H   0  0  0  0  0  0  0  0  0  0  0  0
   14.3718    9.7514   18.9213 H   0  0  0  0  0  0  0  0  0  0  0  0
   16.3693    8.8311   20.4698 H   0  0  0  0  0  0  0  0  0  0  0  0
 28 27  2  3
 26 25  1  0
 27 25  1  0
 27 29  1  0
 25 24  1  0
 29 30  1  0
 29 23  1  0
 24 22  1  0
 23 22  1  0
 22 21  2  0
 21 20  1  0
 20 19  2  0
 19 14  1  0
 19 18  1  0
 15 14  1  0
 15 11  1  0
 13 12  1  0
 14 12  1  0
 18 17  1  0
 11 10  1  0
 12 10  1  0
 12 16  1  0
  4  2  1  0
  5  2  1  0
  5  6  1  0
 17 16  1  0
  7  6  1  0
  7  8  1  0
 10  8  1  0
  2  3  1  0
  2  1  1  0
  8  9  1  0
  1 31  1  0
  3 32  1  0
  3 33  1  0
  3 34  1  0
  4 35  1  0
  4 36  1  0
  4 37  1  0
  5 38  1  0
  5 39  1  0
  6 40  1  0
  6 41  1  0
  7 42  1  0
  7 43  1  0
  8 44  1  0
  9 45  1  0
  9 46  1  0
  9 47  1  0
 10 48  1  0
 11 49  1  0
 11 50  1  0
 13 51  1  0
 13 52  1  0
 13 53  1  0
 14 54  1  0
 15 55  1  0
 15 56  1  0
 16 57  1  0
 16 58  1  0
 17 59  1  0
 17 60  1  0
 18 61  1  0
 18 62  1  0
 20 63  1  0
 21 64  1  0
 23 65  1  0
 23 66  1  0
 24 67  1  0
 24 68  1  0
 25 69  1  0
 26 70  1  0
 28 71  1  0
 28 72  1  0
 29 73  1  0
 30 74  1  0
A    1
O3
A    2
C25
A    3
C27
A    4
C26
A    5
C24
A    6
C23
A    7
C22
A    8
C20
A    9
C21
A   10
C17
A   11
C16
A   12
C13
A   13
C18
A   14
C14
A   15
C15
A   16
C12
A   17
C11
A   18
C9
A   19
C8
A   20
C7
A   21
C6
A   22
C5
A   23
C10
A   24
C4
A   25
C3
A   26
O2
A   27
C2
A   28
C28
A   29
C1
A   30
O1
M  END
