5B4K_6DT_A_1003
     RDKit          3D

 43 47  0  0  0  0  0  0  0  0999 V2000
   -2.0650   -4.5280  -24.0210 C   0  0  0  0  0  0  0  0  0  0  0  0
   -1.7940   -5.4570  -25.0000 C   0  0  0  0  0  0  0  0  0  0  0  0
   -1.0940   -4.0500  -23.1710 C   0  0  0  0  0  0  0  0  0  0  0  0
   -0.5360   -5.9800  -25.2010 C   0  0  0  0  0  0  0  0  0  0  0  0
    5.6170   -4.6760  -21.7700 C   0  0  0  0  0  0  0  0  0  0  0  0
    3.6990   -3.3740  -21.2750 C   0  0  0  0  0  0  0  0  0  0  0  0
    6.3470   -3.9630  -20.8450 C   0  0  0  0  0  0  0  0  0  0  0  0
    4.4130   -2.6520  -20.3450 C   0  0  0  0  0  0  0  0  0  0  0  0
    8.5490   -1.9930  -15.0680 C   0  0  0  0  0  0  0  0  0  0  0  0
    9.2160   -1.2540  -16.0190 C   0  0  0  0  0  0  0  0  0  0  0  0
    5.5850   -3.7510  -16.1370 C   0  0  0  0  0  0  0  0  0  0  0  0
    0.1810   -4.5590  -23.3530 C   0  0  0  0  0  0  0  0  0  0  0  0
    7.4360   -2.5850  -15.7150 C   0  0  0  0  0  0  0  0  0  0  0  0
    0.4220   -5.4910  -24.3420 C   0  0  0  0  0  0  0  0  0  0  0  0
    7.4430   -2.1980  -17.0380 C   0  0  0  0  0  0  0  0  0  0  0  0
    4.2870   -4.3960  -21.9930 C   0  0  0  0  0  0  0  0  0  0  0  0
    5.7370   -2.9590  -20.1330 C   0  0  0  0  0  0  0  0  0  0  0  0
    6.4640   -2.6330  -17.9030 C   0  0  0  0  0  0  0  0  0  0  0  0
    2.2750   -5.0140  -23.2240 C   0  0  0  0  0  0  0  0  0  0  0  0
    8.9510   -0.7490  -18.4270 C   0  0  0  0  0  0  0  0  0  0  0  0
    6.4850   -3.3890  -15.2160 N   0  0  0  0  0  0  0  0  0  0  0  0
    5.5040   -3.4340  -17.4320 N   0  0  0  0  0  0  0  0  0  0  0  0
    1.3370   -4.2730  -22.6740 N   0  0  0  0  0  0  0  0  0  0  0  0
    1.7510   -5.7690  -24.2330 N   0  0  0  0  0  0  0  0  0  0  0  0
    8.5370   -1.3890  -17.1970 N   0  0  0  0  0  0  0  0  0  0  0  0
    3.5990   -5.1460  -22.9660 N   0  0  0  0  0  0  0  0  0  0  0  0
    6.4810   -2.2360  -19.2210 O   0  0  0  0  0  0  0  0  0  0  0  0
   -3.0941   -4.1545  -23.9143 H   0  0  0  0  0  0  0  0  0  0  0  0
   -2.6158   -5.7954  -25.6482 H   0  0  0  0  0  0  0  0  0  0  0  0
   -1.3177   -3.3064  -22.3919 H   0  0  0  0  0  0  0  0  0  0  0  0
   -0.3158   -6.7242  -25.9806 H   0  0  0  0  0  0  0  0  0  0  0  0
    6.1037   -5.4815  -22.3395 H   0  0  0  0  0  0  0  0  0  0  0  0
    2.6402   -3.1319  -21.4491 H   0  0  0  0  0  0  0  0  0  0  0  0
    7.4091   -4.1954  -20.6778 H   0  0  0  0  0  0  0  0  0  0  0  0
    3.9312   -1.8409  -19.7794 H   0  0  0  0  0  0  0  0  0  0  0  0
    8.8267   -2.1028  -14.0093 H   0  0  0  0  0  0  0  0  0  0  0  0
   10.1295   -0.6624  -15.8595 H   0  0  0  0  0  0  0  0  0  0  0  0
    4.7868   -4.4133  -15.7706 H   0  0  0  0  0  0  0  0  0  0  0  0
    9.5347    0.1534  -18.1924 H   0  0  0  0  0  0  0  0  0  0  0  0
    9.5706   -1.4447  -19.0118 H   0  0  0  0  0  0  0  0  0  0  0  0
    8.0624   -0.4691  -19.0118 H   0  0  0  0  0  0  0  0  0  0  0  0
    1.4487   -3.6121  -21.8919 H   0  0  0  0  0  0  0  0  0  0  0  0
    4.1333   -5.8354  -23.5139 H   0  0  0  0  0  0  0  0  0  0  0  0
  4  2  1  0
  4 14  2  0
  2  1  2  0
 14 24  1  0
 14 12  1  0
 24 19  2  0
  1  3  1  0
 12  3  2  0
 12 23  1  0
 19 26  1  0
 19 23  1  0
 26 16  1  0
 16  5  2  0
 16  6  1  0
  5  7  1  0
  6  8  2  0
  7 17  2  0
  8 17  1  0
 17 27  1  0
 27 18  1  0
 20 25  1  0
 18 22  2  0
 18 15  1  0
 22 11  1  0
 25 15  1  0
 25 10  1  0
 15 13  2  0
 11 21  2  0
 10  9  2  0
 13 21  1  0
 13  9  1  0
  1 28  1  0
  2 29  1  0
  3 30  1  0
  4 31  1  0
  5 32  1  0
  6 33  1  0
  7 34  1  0
  8 35  1  0
  9 36  1  0
 10 37  1  0
 11 38  1  0
 20 39  1  0
 20 40  1  0
 20 41  1  0
 23 42  1  0
 26 43  1  0
A    1
C20
A    2
C21
A    3
C19
A    4
C22
A    5
C11
A    6
C13
A    7
C10
A    8
C14
A    9
C4
A   10
C3
A   11
C26
A   12
C18
A   13
C5
A   14
C23
A   15
C6
A   16
C12
A   17
C9
A   18
C7
A   19
C16
A   20
C1
A   21
N27
A   22
N25
A   23
N17
A   24
N24
A   25
N2
A   26
N15
A   27
O8
M  END
