5B4O_6DQ_A_201
     RDKit          3D

 25 27  0  0  0  0  0  0  0  0999 V2000
   41.6580   42.7690    8.3040 C   0  0  0  0  0  0  0  0  0  0  0  0
   41.6970   40.0870    7.4350 C   0  0  0  0  0  0  0  0  0  0  0  0
   39.5010   39.9280   10.9030 C   0  0  0  0  0  0  0  0  0  0  0  0
   39.0320   39.4790   13.3290 C   0  0  0  0  0  0  0  0  0  0  0  0
   38.4910   38.6680   14.3390 C   0  0  0  0  0  0  0  0  0  0  0  0
   37.8470   37.4830   13.9780 C   0  0  0  0  0  0  0  0  0  0  0  0
   40.9230   41.7960    9.0360 C   0  0  0  0  0  0  0  0  0  0  0  0
   40.9550   40.4440    8.5880 C   0  0  0  0  0  0  0  0  0  0  0  0
   40.1510   42.2260   10.2460 C   0  0  0  0  0  0  0  0  0  0  0  0
   40.0950   39.1490    9.4220 S   0  0  0  0  0  0  0  0  0  0  0  0
   39.6130   41.2790   11.0620 N   0  0  0  0  0  0  0  0  0  0  0  0
   40.0210   43.4130   10.5590 O   0  0  0  0  0  0  0  0  0  0  0  0
   42.4000   42.4050    7.1560 C   0  0  0  0  0  0  0  0  0  0  0  0
   42.4210   41.0620    6.7160 C   0  0  0  0  0  0  0  0  0  0  0  0
   38.9220   39.0960   11.9720 C   0  0  0  0  0  0  0  0  0  0  0  0
   38.2530   37.8770   11.6950 C   0  0  0  0  0  0  0  0  0  0  0  0
   37.7290   37.0920   12.6770 N   0  0  0  0  0  0  0  0  0  0  0  0
   41.6494   43.8180    8.6348 H   0  0  0  0  0  0  0  0  0  0  0  0
   41.7089   39.0402    7.0971 H   0  0  0  0  0  0  0  0  0  0  0  0
   39.5435   40.4161   13.5940 H   0  0  0  0  0  0  0  0  0  0  0  0
   38.5730   38.9609   15.3961 H   0  0  0  0  0  0  0  0  0  0  0  0
   37.4219   36.8454   14.7671 H   0  0  0  0  0  0  0  0  0  0  0  0
   42.9635   43.1710    6.6030 H   0  0  0  0  0  0  0  0  0  0  0  0
   42.9961   40.7795    5.8219 H   0  0  0  0  0  0  0  0  0  0  0  0
   38.1535   37.5533   10.6484 H   0  0  0  0  0  0  0  0  0  0  0  0
 14 13  1  0
 14  2  2  0
 13  1  2  0
  2  8  1  0
  1  7  1  0
  8  7  2  0
  8 10  1  0
  7  9  1  0
 10  3  1  0
  9 12  2  0
  9 11  1  0
  3 11  2  0
  3 15  1  0
 16 15  1  0
 16 17  2  0
 15  4  2  0
 17  6  1  0
  4  5  1  0
  6  5  2  0
  1 18  1  0
  2 19  1  0
  4 20  1  0
  5 21  1  0
  6 22  1  0
 13 23  1  0
 14 24  1  0
 16 25  1  0
A    1
C4
A    2
C6
A    3
C10
A    4
C13
A    5
C15
A    6
C17
A    7
C1
A    8
C2
A    9
C3
A   10
S5
A   11
N7
A   12
O8
A   13
C9
A   14
C11
A   15
C12
A   16
C14
A   17
N16
M  END
