5B59_KTO_A_201
     RDKit          3D

 51 54  0  0  0  0  0  0  0  0999 V2000
   -5.8160  -20.7570   19.1520 O   0  0  0  0  0  0  0  0  0  0  0  0
   -5.8440  -21.0850   17.9690 C   0  0  0  0  0  0  0  0  0  0  0  0
   -4.7380  -21.9850   17.4560 C   0  0  0  0  0  0  0  0  0  0  0  0
   -5.2670  -22.9790   16.4260 C   0  0  0  0  0  0  0  0  0  0  0  0
   -6.9900  -20.6150   17.0740 C   0  0  0  0  0  0  0  0  0  0  0  0
   -7.3100  -21.6490   15.9900 C   0  0  0  0  0  0  0  0  0  0  0  0
   -8.2270  -22.7640   16.4920 C   0  0  0  0  0  0  0  0  0  0  0  0
   -7.5050  -23.6840   17.4780 C   0  0  0  0  0  0  0  0  0  0  0  0
   -6.1010  -24.1260   17.0150 C   0  0  0  0  0  0  0  0  0  0  0  0
   -6.0700  -22.2380   15.4260 N   0  0  0  0  0  0  0  0  0  0  0  0
   -5.3470  -21.2720   14.8310 O   0  0  0  0  0  0  0  0  0  0  0  0
   -4.9250  -21.4920   13.4750 C   0  0  0  0  0  0  0  0  0  0  0  0
   -4.3400  -20.2100   12.9030 C   0  0  0  0  0  0  0  0  0  0  0  0
   -5.2040  -18.9710   13.2470 C   0  0  0  0  0  0  0  0  0  0  0  0
   -6.5240  -18.9380   12.5960 N   0  0  0  0  0  0  0  0  0  0  0  0
   -4.4470  -17.7320   12.8880 C   0  0  0  0  0  0  0  0  0  0  0  0
   -3.5370  -17.4660   13.6490 O   0  0  0  0  0  0  0  0  0  0  0  0
   -6.0600  -22.0930   12.6140 C   0  0  0  0  0  0  0  0  0  0  0  0
   -5.9250  -21.5800   11.2650 O   0  0  0  0  0  0  0  0  0  0  0  0
   -5.9200  -23.5640   12.7320 N   0  0  0  0  0  0  0  0  0  0  0  0
   -4.6660  -23.8620   13.1680 C   0  0  0  0  0  0  0  0  0  0  0  0
   -3.9810  -22.6490   13.6000 C   0  0  0  0  0  0  0  0  0  0  0  0
   -3.9920  -25.0750   13.2270 C   0  0  0  0  0  0  0  0  0  0  0  0
   -2.6690  -25.0690   13.7260 C   0  0  0  0  0  0  0  0  0  0  0  0
   -2.0290  -23.8900   14.1590 C   0  0  0  0  0  0  0  0  0  0  0  0
   -2.6970  -22.6690   14.1140 C   0  0  0  0  0  0  0  0  0  0  0  0
   -4.3064  -22.5405   18.3017 H   0  0  0  0  0  0  0  0  0  0  0  0
   -3.9744  -21.3573   16.9734 H   0  0  0  0  0  0  0  0  0  0  0  0
   -4.3890  -23.4601   15.9703 H   0  0  0  0  0  0  0  0  0  0  0  0
   -6.7036  -19.6683   16.5927 H   0  0  0  0  0  0  0  0  0  0  0  0
   -7.8850  -20.4789   17.6989 H   0  0  0  0  0  0  0  0  0  0  0  0
   -7.8461  -21.1046   15.1987 H   0  0  0  0  0  0  0  0  0  0  0  0
   -9.0955  -22.3132   16.9944 H   0  0  0  0  0  0  0  0  0  0  0  0
   -8.5430  -23.3659   15.6272 H   0  0  0  0  0  0  0  0  0  0  0  0
   -7.4014  -23.1515   18.4349 H   0  0  0  0  0  0  0  0  0  0  0  0
   -8.1128  -24.5969   17.5634 H   0  0  0  0  0  0  0  0  0  0  0  0
   -6.2158  -24.9047   16.2466 H   0  0  0  0  0  0  0  0  0  0  0  0
   -5.5664  -24.4954   17.9025 H   0  0  0  0  0  0  0  0  0  0  0  0
   -4.2772  -20.3060   11.8090 H   0  0  0  0  0  0  0  0  0  0  0  0
   -3.3450  -20.0634   13.3485 H   0  0  0  0  0  0  0  0  0  0  0  0
   -5.4037  -19.0319   14.3270 H   0  0  0  0  0  0  0  0  0  0  0  0
   -7.2611  -18.9196   13.3152 H   0  0  0  0  0  0  0  0  0  0  0  0
   -6.5962  -18.0949   12.0087 H   0  0  0  0  0  0  0  0  0  0  0  0
   -4.6924  -17.1148   12.0112 H   0  0  0  0  0  0  0  0  0  0  0  0
   -7.0746  -21.8180   12.9379 H   0  0  0  0  0  0  0  0  0  0  0  0
   -5.6732  -20.6232   11.2995 H   0  0  0  0  0  0  0  0  0  0  0  0
   -6.6559  -24.2520   12.5177 H   0  0  0  0  0  0  0  0  0  0  0  0
   -4.4711  -26.0085   12.8968 H   0  0  0  0  0  0  0  0  0  0  0  0
   -2.1186  -26.0200   13.7783 H   0  0  0  0  0  0  0  0  0  0  0  0
   -0.9961  -23.9348   14.5346 H   0  0  0  0  0  0  0  0  0  0  0  0
   -2.2177  -21.7476   14.4765 H   0  0  0  0  0  0  0  0  0  0  0  0
 19 18  1  0
 15 14  1  0
 18 20  1  0
 18 12  1  0
 20 21  1  0
 16 14  1  0
 16 17  2  0
 13 14  1  0
 13 12  1  0
 21 23  2  0
 21 22  1  0
 23 24  1  0
 12 22  1  0
 12 11  1  0
 22 26  2  0
 24 25  2  0
 26 25  1  0
 11 10  1  0
 10  6  1  0
 10  4  1  0
  6  7  1  0
  6  5  1  0
  4  9  1  0
  4  3  1  0
  7  8  1  0
  9  8  1  0
  5  2  1  0
  3  2  1  0
  2  1  2  0
  3 27  1  0
  3 28  1  0
  4 29  1  0
  5 30  1  0
  5 31  1  0
  6 32  1  0
  7 33  1  0
  7 34  1  0
  8 35  1  0
  8 36  1  0
  9 37  1  0
  9 38  1  0
 13 39  1  0
 13 40  1  0
 14 41  1  0
 15 42  1  0
 15 43  1  0
 16 44  1  0
 18 45  1  0
 19 46  1  0
 20 47  1  0
 23 48  1  0
 24 49  1  0
 25 50  1  0
 26 51  1  0
A    1
O20
A    2
C17
A    3
C15
A    4
C14
A    5
C11
A    6
C13
A    7
C12
A    8
C16
A    9
C10
A   10
N18
A   11
O19
A   12
C1
A   13
C23
A   14
C22
A   15
N21
A   16
C24
A   17
O25
A   18
C2
A   19
O49
A   20
N3
A   21
C4
A   22
C5
A   23
C6
A   24
C7
A   25
C8
A   26
C9
M  END
