5B5B_AKX_A_501
     RDKit          3D

 94 98  0  0  0  0  0  0  0  0999 V2000
  160.6300   -0.5540   50.9850 O   0  0  0  0  0  0  0  0  0  0  0  0
  160.0330    0.7840   51.0020 C   0  0  0  0  0  0  0  0  0  0  0  0
  158.6390    0.6380   50.3800 C   0  0  0  0  0  0  0  0  0  0  0  0
  158.5800    0.1190   48.9740 C   0  0  0  0  0  0  0  0  0  0  0  0
  158.5130    0.9690   47.8660 C   0  0  0  0  0  0  0  0  0  0  0  0
  158.4500    0.4230   46.5730 C   0  0  0  0  0  0  0  0  0  0  0  0
  158.4600   -0.9650   46.4210 C   0  0  0  0  0  0  0  0  0  0  0  0
  158.5340   -1.7900   47.5390 C   0  0  0  0  0  0  0  0  0  0  0  0
  158.5880   -1.2480   48.7970 C   0  0  0  0  0  0  0  0  0  0  0  0
  159.8440    1.2650   52.4620 C   0  0  0  0  0  0  0  0  0  0  0  0
  159.2950    2.6840   52.7080 C   0  0  0  0  0  0  0  0  0  0  0  0
  157.9130    2.9280   52.7730 C   0  0  0  0  0  0  0  0  0  0  0  0
  157.4230    4.2030   53.0200 C   0  0  0  0  0  0  0  0  0  0  0  0
  158.3030    5.2570   53.2410 C   0  0  0  0  0  0  0  0  0  0  0  0
  159.6760    5.0200   53.1950 C   0  0  0  0  0  0  0  0  0  0  0  0
  160.1560    3.7540   52.9210 C   0  0  0  0  0  0  0  0  0  0  0  0
  160.8400    1.7680   50.1190 C   0  0  0  0  0  0  0  0  0  0  0  0
  162.3080    1.9120   50.5160 C   0  0  0  0  0  0  0  0  0  0  0  0
  163.0370    2.9990   49.6850 C   0  0  0  0  0  0  0  0  0  0  0  0
  164.0410    2.3630   48.7940 C   0  0  0  0  0  0  0  0  0  0  0  0
  163.3080    1.2970   47.9650 C   0  0  0  0  0  0  0  0  0  0  0  0
  164.9360    3.3240   47.9360 C   0  0  0  0  0  0  0  0  0  0  0  0
  164.4530    4.5590   47.1530 C   0  0  0  0  0  0  0  0  0  0  0  0
  163.2530    4.3170   46.2490 C   0  0  0  0  0  0  0  0  0  0  0  0
  164.2100    5.8430   47.9570 C   0  0  0  0  0  0  0  0  0  0  0  0
  164.0830    7.0880   47.0200 C   0  0  0  0  0  0  0  0  0  0  0  0
  165.3380    7.2650   46.1490 C   0  0  0  0  0  0  0  0  0  0  0  0
  165.6450    2.5200   46.8370 C   0  0  0  0  0  0  0  0  0  0  0  0
  166.0980    3.4750   45.7050 C   0  0  0  0  0  0  0  0  0  0  0  0
  165.6780    4.7990   46.2570 C   0  0  0  0  0  0  0  0  0  0  0  0
  165.5240    6.0020   45.3430 C   0  0  0  0  0  0  0  0  0  0  0  0
  165.5060    5.9780   43.9740 C   0  0  0  0  0  0  0  0  0  0  0  0
  165.3000    7.2310   43.1930 C   0  0  0  0  0  0  0  0  0  0  0  0
  165.1130    7.2800   41.8590 C   0  0  0  0  0  0  0  0  0  0  0  0
  164.8980    8.6200   41.1740 C   0  0  0  0  0  0  0  0  0  0  0  0
  165.5460    8.6510   39.7730 C   0  0  0  0  0  0  0  0  0  0  0  0
  166.9740    8.6430   39.8610 O   0  0  0  0  0  0  0  0  0  0  0  0
  165.0610    6.0190   41.0280 C   0  0  0  0  0  0  0  0  0  0  0  0
  165.5720    6.1530   39.5970 C   0  0  0  0  0  0  0  0  0  0  0  0
  165.1560    5.0520   38.8150 O   0  0  0  0  0  0  0  0  0  0  0  0
  165.1220    7.4320   38.9920 C   0  0  0  0  0  0  0  0  0  0  0  0
  164.4110    7.4880   37.8720 C   0  0  0  0  0  0  0  0  0  0  0  0
  160.7689   -0.8652   51.9145 H   0  0  0  0  0  0  0  0  0  0  0  0
  158.1642    1.6302   50.3893 H   0  0  0  0  0  0  0  0  0  0  0  0
  158.1281   -0.1213   50.9902 H   0  0  0  0  0  0  0  0  0  0  0  0
  158.5096    2.0601   48.0059 H   0  0  0  0  0  0  0  0  0  0  0  0
  158.3936    1.0799   45.6925 H   0  0  0  0  0  0  0  0  0  0  0  0
  158.4093   -1.4072   45.4151 H   0  0  0  0  0  0  0  0  0  0  0  0
  158.5492   -2.8826   47.4128 H   0  0  0  0  0  0  0  0  0  0  0  0
  158.6382   -1.9104   49.6737 H   0  0  0  0  0  0  0  0  0  0  0  0
  159.1521    0.5613   52.9478 H   0  0  0  0  0  0  0  0  0  0  0  0
  160.8664    1.3001   52.8664 H   0  0  0  0  0  0  0  0  0  0  0  0
  157.2086    2.0961   52.6259 H   0  0  0  0  0  0  0  0  0  0  0  0
  156.3375    4.3799   53.0410 H   0  0  0  0  0  0  0  0  0  0  0  0
  157.9198    6.2667   53.4498 H   0  0  0  0  0  0  0  0  0  0  0  0
  160.3804    5.8449   53.3777 H   0  0  0  0  0  0  0  0  0  0  0  0
  161.2424    3.5893   52.8703 H   0  0  0  0  0  0  0  0  0  0  0  0
  160.3665    2.7586   50.1862 H   0  0  0  0  0  0  0  0  0  0  0  0
  160.8291    1.3565   49.0989 H   0  0  0  0  0  0  0  0  0  0  0  0
  162.8135    0.9478   50.3586 H   0  0  0  0  0  0  0  0  0  0  0  0
  162.3432    2.2155   51.5727 H   0  0  0  0  0  0  0  0  0  0  0  0
  163.5440    3.6995   50.3649 H   0  0  0  0  0  0  0  0  0  0  0  0
  162.3016    3.5424   49.0735 H   0  0  0  0  0  0  0  0  0  0  0  0
  164.8087    1.9056   49.4354 H   0  0  0  0  0  0  0  0  0  0  0  0
  162.8160    0.5816   48.6404 H   0  0  0  0  0  0  0  0  0  0  0  0
  162.5515    1.7820   47.3306 H   0  0  0  0  0  0  0  0  0  0  0  0
  164.0317    0.7643   47.3306 H   0  0  0  0  0  0  0  0  0  0  0  0
  165.4728    3.7490   48.7969 H   0  0  0  0  0  0  0  0  0  0  0  0
  162.3599    4.1369   46.8655 H   0  0  0  0  0  0  0  0  0  0  0  0
  163.0883    5.2000   45.6140 H   0  0  0  0  0  0  0  0  0  0  0  0
  163.4434    3.4392   45.6140 H   0  0  0  0  0  0  0  0  0  0  0  0
  165.0530    5.9985   48.6463 H   0  0  0  0  0  0  0  0  0  0  0  0
  163.2671    5.7303   48.5122 H   0  0  0  0  0  0  0  0  0  0  0  0
  163.9459    7.9881   47.6373 H   0  0  0  0  0  0  0  0  0  0  0  0
  163.2195    6.9349   46.3560 H   0  0  0  0  0  0  0  0  0  0  0  0
  166.2167    7.4330   46.7890 H   0  0  0  0  0  0  0  0  0  0  0  0
  165.2230    8.1322   45.4821 H   0  0  0  0  0  0  0  0  0  0  0  0
  164.9525    1.7697   46.4278 H   0  0  0  0  0  0  0  0  0  0  0  0
  166.5246    2.0155   47.2632 H   0  0  0  0  0  0  0  0  0  0  0  0
  165.5836    3.2512   44.7588 H   0  0  0  0  0  0  0  0  0  0  0  0
  167.1679    3.4075   45.4584 H   0  0  0  0  0  0  0  0  0  0  0  0
  166.5592    5.1555   46.8106 H   0  0  0  0  0  0  0  0  0  0  0  0
  165.6451    5.0238   43.4448 H   0  0  0  0  0  0  0  0  0  0  0  0
  165.3006    8.1829   43.7443 H   0  0  0  0  0  0  0  0  0  0  0  0
  165.3448    9.4128   41.7919 H   0  0  0  0  0  0  0  0  0  0  0  0
  163.8157    8.7773   41.0567 H   0  0  0  0  0  0  0  0  0  0  0  0
  165.2168    9.5741   39.2734 H   0  0  0  0  0  0  0  0  0  0  0  0
  167.2460    8.6415   40.8129 H   0  0  0  0  0  0  0  0  0  0  0  0
  164.0137    5.6854   40.9839 H   0  0  0  0  0  0  0  0  0  0  0  0
  165.7343    5.3037   41.5229 H   0  0  0  0  0  0  0  0  0  0  0  0
  166.6717    6.1595   39.6239 H   0  0  0  0  0  0  0  0  0  0  0  0
  164.8763    4.3117   39.4098 H   0  0  0  0  0  0  0  0  0  0  0  0
  164.1338    6.5605   37.3496 H   0  0  0  0  0  0  0  0  0  0  0  0
  164.0992    8.4619   37.4666 H   0  0  0  0  0  0  0  0  0  0  0  0
 42 41  2  3
 37 36  1  0
 41 36  1  0
 41 39  1  0
 36 35  1  0
 39 40  1  0
 39 38  1  0
 35 34  1  0
 38 34  1  0
 34 33  2  0
 33 32  1  0
 32 31  2  0
 31 27  1  0
 31 30  1  0
 29 30  1  0
 29 28  1  0
 27 26  1  0
 24 23  1  0
 30 23  1  0
  7  6  1  0
  7  8  2  0
  6  5  2  0
 28 22  1  0
 26 25  1  0
 23 22  1  0
 23 25  1  0
  8  9  1  0
  5  4  1  0
 22 20  1  0
 21 20  1  0
 20 19  1  0
  9  4  2  0
  4  3  1  0
 19 18  1  0
 17 18  1  0
 17  2  1  0
  3  2  1  0
  1  2  1  0
  2 10  1  0
 10 11  1  0
 11 12  2  0
 11 16  1  0
 12 13  1  0
 16 15  2  0
 13 14  2  0
 15 14  1  0
  1 43  1  0
  3 44  1  0
  3 45  1  0
  5 46  1  0
  6 47  1  0
  7 48  1  0
  8 49  1  0
  9 50  1  0
 10 51  1  0
 10 52  1  0
 12 53  1  0
 13 54  1  0
 14 55  1  0
 15 56  1  0
 16 57  1  0
 17 58  1  0
 17 59  1  0
 18 60  1  0
 18 61  1  0
 19 62  1  0
 19 63  1  0
 20 64  1  0
 21 65  1  0
 21 66  1  0
 21 67  1  0
 22 68  1  0
 24 69  1  0
 24 70  1  0
 24 71  1  0
 25 72  1  0
 25 73  1  0
 26 74  1  0
 26 75  1  0
 27 76  1  0
 27 77  1  0
 28 78  1  0
 28 79  1  0
 29 80  1  0
 29 81  1  0
 30 82  1  0
 32 83  1  0
 33 84  1  0
 35 85  1  0
 35 86  1  0
 36 87  1  0
 37 88  1  0
 38 89  1  0
 38 90  1  0
 39 91  1  0
 40 92  1  0
 42 93  1  0
 42 94  1  0
A    1
O3
A    2
C25
A    3
C27
A    4
C34
A    5
C39
A    6
C38
A    7
C37
A    8
C36
A    9
C35
A   10
C26
A   11
C28
A   12
C33
A   13
C32
A   14
C31
A   15
C30
A   16
C29
A   17
C24
A   18
C23
A   19
C22
A   20
C20
A   21
C21
A   22
C17
A   23
C13
A   24
C18
A   25
C12
A   26
C11
A   27
C9
A   28
C16
A   29
C15
A   30
C14
A   31
C8
A   32
C7
A   33
C6
A   34
C5
A   35
C10
A   36
C1
A   37
O1
A   38
C4
A   39
C3
A   40
O2
A   41
C2
A   42
C40
M  END
