5B5F_6F3_A_200
     RDKit          3D

 33 35  0  0  0  0  0  0  0  0999 V2000
   12.1140   -5.6350   -3.5880 C   0  0  0  0  0  0  0  0  0  0  0  0
   10.9000   -7.6980   -4.6420 C   0  0  0  0  0  0  0  0  0  0  0  0
   11.1620   -8.9840   -4.9590 C   0  0  0  0  0  0  0  0  0  0  0  0
   10.4070   -9.6840   -5.9580 C   0  0  0  0  0  0  0  0  0  0  0  0
    9.2370   -7.6770   -6.3060 C   0  0  0  0  0  0  0  0  0  0  0  0
   14.1680   -4.8220   -0.4760 N   0  0  0  0  0  0  0  0  0  0  0  0
    9.5340  -12.0840   -6.5020 N   0  0  0  0  0  0  0  0  0  0  0  0
   11.5520  -11.2940   -7.6710 O   0  0  0  0  0  0  0  0  0  0  0  0
   10.7690  -11.2180   -6.3920 S   0  0  0  0  0  0  0  0  0  0  0  0
   11.6470  -11.7690   -5.3570 O   0  0  0  0  0  0  0  0  0  0  0  0
    8.7170  -11.9130   -5.3220 C   0  0  0  0  0  0  0  0  0  0  0  0
    9.4410   -8.9900   -6.6140 C   0  0  0  0  0  0  0  0  0  0  0  0
    9.9750   -7.0420   -5.3910 C   0  0  0  0  0  0  0  0  0  0  0  0
   11.6530   -6.9730   -3.6930 C   0  0  0  0  0  0  0  0  0  0  0  0
   12.0140   -7.5480   -2.5270 O   0  0  0  0  0  0  0  0  0  0  0  0
   12.8400   -6.7380   -1.8150 C   0  0  0  0  0  0  0  0  0  0  0  0
   13.2500   -6.9880   -0.5250 C   0  0  0  0  0  0  0  0  0  0  0  0
   13.9920   -6.0420    0.1040 C   0  0  0  0  0  0  0  0  0  0  0  0
   13.5760   -4.4010   -1.6420 C   0  0  0  0  0  0  0  0  0  0  0  0
   13.7030   -3.2410   -2.1380 O   0  0  0  0  0  0  0  0  0  0  0  0
   12.8430   -5.4640   -2.3690 C   0  0  0  0  0  0  0  0  0  0  0  0
   11.9370   -4.8459   -4.3337 H   0  0  0  0  0  0  0  0  0  0  0  0
   11.9759   -9.5089   -4.4374 H   0  0  0  0  0  0  0  0  0  0  0  0
    8.4410   -7.1243   -6.8265 H   0  0  0  0  0  0  0  0  0  0  0  0
   14.7976   -4.1598   -0.0005 H   0  0  0  0  0  0  0  0  0  0  0  0
    8.9950  -11.8085   -7.3353 H   0  0  0  0  0  0  0  0  0  0  0  0
    9.3385  -12.0431   -4.4237 H   0  0  0  0  0  0  0  0  0  0  0  0
    8.2794  -10.9038   -5.3221 H   0  0  0  0  0  0  0  0  0  0  0  0
    7.9114  -12.6620   -5.3221 H   0  0  0  0  0  0  0  0  0  0  0  0
    8.8299   -9.4816   -7.3853 H   0  0  0  0  0  0  0  0  0  0  0  0
    9.8304   -5.9620   -5.2403 H   0  0  0  0  0  0  0  0  0  0  0  0
   12.9838   -7.9276   -0.0187 H   0  0  0  0  0  0  0  0  0  0  0  0
   14.4503   -6.2597    1.0800 H   0  0  0  0  0  0  0  0  0  0  0  0
  8  9  2  0
 12  5  2  0
 12  4  1  0
  7  9  1  0
  7 11  1  0
  9  4  1  0
  9 10  2  0
  5 13  1  0
  4  3  2  0
 13  2  2  0
  3  2  1  0
  2 14  1  0
 14  1  2  0
 14 15  1  0
  1 21  1  0
 15 16  1  0
 21 16  2  0
 21 19  1  0
 20 19  2  0
 16 17  1  0
 19  6  1  0
 17 18  2  0
  6 18  1  0
  1 22  1  0
  3 23  1  0
  5 24  1  0
  6 25  1  0
  7 26  1  0
 11 27  1  0
 11 28  1  0
 11 29  1  0
 12 30  1  0
 13 31  1  0
 17 32  1  0
 18 33  1  0
A    1
C8
A    2
C4
A    3
C5
A    4
C6
A    5
C2
A    6
N1
A    7
N2
A    8
O4
A    9
S1
A   10
O3
A   11
C14
A   12
C1
A   13
C3
A   14
C7
A   15
O1
A   16
C10
A   17
C13
A   18
C12
A   19
C11
A   20
O2
A   21
C9
M  END
