5BML_4TW_A_501
     RDKit          3D

 43 45  0  0  0  0  0  0  0  0999 V2000
   51.7520  107.6620   37.7850 C   0  0  0  0  0  0  0  0  0  0  0  0
   49.9670  107.8570   37.5130 S   0  0  0  0  0  0  0  0  0  0  0  0
   49.2620  106.9420   38.3600 O   0  0  0  0  0  0  0  0  0  0  0  0
   49.6770  109.2520   37.4180 O   0  0  0  0  0  0  0  0  0  0  0  0
   49.5840  107.3460   35.9840 N   0  0  0  0  0  0  0  0  0  0  0  0
   49.8280  106.0360   35.5790 C   0  0  0  0  0  0  0  0  0  0  0  0
   48.9440  104.9840   35.8970 C   0  0  0  0  0  0  0  0  0  0  0  0
   49.2230  103.6990   35.4440 C   0  0  0  0  0  0  0  0  0  0  0  0
   50.3960  103.4720   34.7160 C   0  0  0  0  0  0  0  0  0  0  0  0
   51.2860  104.5180   34.4220 C   0  0  0  0  0  0  0  0  0  0  0  0
   50.9940  105.8000   34.8420 C   0  0  0  0  0  0  0  0  0  0  0  0
   52.5350  104.3030   33.6100 C   0  0  0  0  0  0  0  0  0  0  0  0
   52.1690  104.4360   32.1580 C   0  0  0  0  0  0  0  0  0  0  0  0
   52.0400  105.5590   31.7070 O   0  0  0  0  0  0  0  0  0  0  0  0
   51.9590  103.3200   31.4010 N   0  0  0  0  0  0  0  0  0  0  0  0
   51.5940  103.3530   30.0280 C   0  0  0  0  0  0  0  0  0  0  0  0
   51.4270  102.2710   29.2580 C   0  0  0  0  0  0  0  0  0  0  0  0
   51.0100  102.5220   27.9550 C   0  0  0  0  0  0  0  0  0  0  0  0
   50.8440  103.8330   27.6810 C   0  0  0  0  0  0  0  0  0  0  0  0
   51.2500  104.8010   29.0740 S   0  0  0  0  0  0  0  0  0  0  0  0
   50.8370  101.4750   26.9000 C   0  0  0  0  0  0  0  0  0  0  0  0
   50.5070  101.8340   25.5740 C   0  0  0  0  0  0  0  0  0  0  0  0
   50.3680  100.8690   24.5960 C   0  0  0  0  0  0  0  0  0  0  0  0
   50.5750   99.5990   24.8940 N   0  0  0  0  0  0  0  0  0  0  0  0
   50.9090   99.2170   26.1260 C   0  0  0  0  0  0  0  0  0  0  0  0
   51.0740  100.1270   27.1560 C   0  0  0  0  0  0  0  0  0  0  0  0
   51.0720   97.9030   26.3920 F   0  0  0  0  0  0  0  0  0  0  0  0
   51.9580  107.6395   38.8653 H   0  0  0  0  0  0  0  0  0  0  0  0
   52.0921  106.7214   37.3272 H   0  0  0  0  0  0  0  0  0  0  0  0
   52.2871  108.5070   37.3272 H   0  0  0  0  0  0  0  0  0  0  0  0
   49.1578  108.0092   35.3211 H   0  0  0  0  0  0  0  0  0  0  0  0
   48.0429  105.1779   36.4973 H   0  0  0  0  0  0  0  0  0  0  0  0
   48.5300  102.8714   35.6555 H   0  0  0  0  0  0  0  0  0  0  0  0
   50.6257  102.4544   34.3671 H   0  0  0  0  0  0  0  0  0  0  0  0
   51.6732  106.6305   34.5991 H   0  0  0  0  0  0  0  0  0  0  0  0
   52.9385  103.2981   33.8035 H   0  0  0  0  0  0  0  0  0  0  0  0
   53.3017  105.0434   33.8819 H   0  0  0  0  0  0  0  0  0  0  0  0
   52.0716  102.4004   31.8510 H   0  0  0  0  0  0  0  0  0  0  0  0
   51.6074  101.2519   29.6306 H   0  0  0  0  0  0  0  0  0  0  0  0
   50.5012  104.2343   26.7159 H   0  0  0  0  0  0  0  0  0  0  0  0
   50.3592  102.8935   25.3179 H   0  0  0  0  0  0  0  0  0  0  0  0
   50.0859  101.1570   23.5725 H   0  0  0  0  0  0  0  0  0  0  0  0
   51.3860   99.7921   28.1562 H   0  0  0  0  0  0  0  0  0  0  0  0
 23 24  1  0
 23 22  2  0
 24 25  2  0
 22 21  1  0
 25 27  1  0
 25 26  1  0
 21 26  2  0
 21 18  1  0
 19 18  2  0
 19 20  1  0
 18 17  1  0
 20 16  1  0
 17 16  2  0
 16 15  1  0
 15 13  1  0
 14 13  2  0
 13 12  1  0
 12 10  1  0
 10  9  2  0
 10 11  1  0
  9  8  1  0
 11  6  2  0
  8  7  2  0
  6  7  1  0
  6  5  1  0
  5  2  1  0
  4  2  2  0
  2  1  1  0
  2  3  2  0
  1 28  1  0
  1 29  1  0
  1 30  1  0
  5 31  1  0
  7 32  1  0
  8 33  1  0
  9 34  1  0
 11 35  1  0
 12 36  1  0
 12 37  1  0
 15 38  1  0
 17 39  1  0
 19 40  1  0
 22 41  1  0
 23 42  1  0
 26 43  1  0
A    1
C1
A    2
S2
A    3
O3
A    4
O4
A    5
N5
A    6
C6
A    7
C7
A    8
C8
A    9
C9
A   10
C10
A   11
C11
A   12
C12
A   13
C13
A   14
O14
A   15
N15
A   16
C16
A   17
C17
A   18
C18
A   19
C19
A   20
S20
A   21
C21
A   22
C22
A   23
C23
A   24
N24
A   25
C25
A   26
C26
A   27
F27
M  END
