5BO2_7P1_A_400
     RDKit          3D

 45 46  0  0  0  0  0  0  0  0999 V2000
    1.1720  -19.7530    4.4650 C   0  0  0  0  0  0  0  0  0  0  0  0
    1.8750  -19.6220    5.8010 C   0  0  0  0  0  0  0  0  0  0  0  0
    2.6000  -18.6210    6.0400 O   0  0  0  0  0  0  0  0  0  0  0  0
    1.7330  -20.5170    6.6770 O   0  0  0  0  0  0  0  0  0  0  0  0
    1.9040  -19.6160    3.2930 C   0  0  0  0  0  0  0  0  0  0  0  0
    1.2770  -19.7390    2.0630 C   0  0  0  0  0  0  0  0  0  0  0  0
   -0.0810  -20.0000    2.0030 C   0  0  0  0  0  0  0  0  0  0  0  0
   -0.8130  -20.1420    3.1730 C   0  0  0  0  0  0  0  0  0  0  0  0
   -0.1960  -20.0170    4.4170 C   0  0  0  0  0  0  0  0  0  0  0  0
   -0.9040  -20.1540    5.6540 N   0  0  0  0  0  0  0  0  0  0  0  0
   -2.3280  -20.1520    5.7810 C   0  0  0  0  0  0  0  0  0  0  0  0
   -3.1440  -19.3850    4.9610 C   0  0  0  0  0  0  0  0  0  0  0  0
   -4.5180  -19.4130    5.1160 C   0  0  0  0  0  0  0  0  0  0  0  0
   -5.0950  -20.1950    6.1010 C   0  0  0  0  0  0  0  0  0  0  0  0
   -4.2850  -20.9460    6.9390 C   0  0  0  0  0  0  0  0  0  0  0  0
   -2.9130  -20.9270    6.7770 C   0  0  0  0  0  0  0  0  0  0  0  0
   -2.0660  -21.7650    7.7070 C   0  0  0  0  0  0  0  0  0  0  0  0
   -0.8620  -21.4640    7.9040 O   0  0  0  0  0  0  0  0  0  0  0  0
   -2.5730  -22.7550    8.2930 O   0  0  0  0  0  0  0  0  0  0  0  0
   -6.4950  -20.1780    6.2410 O   0  0  0  0  0  0  0  0  0  0  0  0
   -7.1460  -21.3700    6.5950 C   0  0  0  0  0  0  0  0  0  0  0  0
   -8.3630  -21.0360    7.4220 C   0  0  0  0  0  0  0  0  0  0  0  0
   -8.1830  -21.5440    8.8360 C   0  0  0  0  0  0  0  0  0  0  0  0
   -9.6780  -22.4450    9.3010 P   0  0  0  0  0  0  0  0  0  0  0  0
  -10.0500  -22.2900   10.7250 O   0  0  0  0  0  0  0  0  0  0  0  0
  -10.8940  -22.0200    8.5690 O   0  0  0  0  0  0  0  0  0  0  0  0
   -9.5840  -23.9090    9.0710 O   0  0  0  0  0  0  0  0  0  0  0  0
    1.7706  -20.2800    7.6375 H   0  0  0  0  0  0  0  0  0  0  0  0
    2.9834  -19.4095    3.3408 H   0  0  0  0  0  0  0  0  0  0  0  0
    1.8580  -19.6293    1.1354 H   0  0  0  0  0  0  0  0  0  0  0  0
   -0.5800  -20.0949    1.0273 H   0  0  0  0  0  0  0  0  0  0  0  0
   -1.8907  -20.3553    3.1186 H   0  0  0  0  0  0  0  0  0  0  0  0
   -0.3475  -20.2617    6.5140 H   0  0  0  0  0  0  0  0  0  0  0  0
   -2.6948  -18.7506    4.1827 H   0  0  0  0  0  0  0  0  0  0  0  0
   -5.1557  -18.8103    4.4526 H   0  0  0  0  0  0  0  0  0  0  0  0
   -4.7355  -21.5581    7.7343 H   0  0  0  0  0  0  0  0  0  0  0  0
   -2.5905  -22.7891    9.2823 H   0  0  0  0  0  0  0  0  0  0  0  0
   -7.4537  -21.9067    5.6855 H   0  0  0  0  0  0  0  0  0  0  0  0
   -6.4643  -22.0081    7.1764 H   0  0  0  0  0  0  0  0  0  0  0  0
   -8.5018  -19.9450    7.4418 H   0  0  0  0  0  0  0  0  0  0  0  0
   -9.2461  -21.5163    6.9754 H   0  0  0  0  0  0  0  0  0  0  0  0
   -7.3128  -22.2152    8.8834 H   0  0  0  0  0  0  0  0  0  0  0  0
   -8.0140  -20.7034    9.5251 H   0  0  0  0  0  0  0  0  0  0  0  0
   -9.3039  -22.6009   11.2967 H   0  0  0  0  0  0  0  0  0  0  0  0
   -9.5538  -24.3786    9.9420 H   0  0  0  0  0  0  0  0  0  0  0  0
  7  6  2  0
  7  8  1  0
  6  5  1  0
  8  9  2  0
  5  1  2  0
  9  1  1  0
  9 10  1  0
  1  2  1  0
 12 13  2  0
 12 11  1  0
 13 14  1  0
 10 11  1  0
 11 16  2  0
  2  3  2  0
  2  4  1  0
 14 20  1  0
 14 15  2  0
 20 21  1  0
 21 22  1  0
 16 15  1  0
 16 17  1  0
 22 23  1  0
 17 18  2  0
 17 19  1  0
 26 24  2  0
 23 24  1  0
 27 24  1  0
 24 25  1  0
  4 28  1  0
  5 29  1  0
  6 30  1  0
  7 31  1  0
  8 32  1  0
 10 33  1  0
 12 34  1  0
 13 35  1  0
 15 36  1  0
 19 37  1  0
 21 38  1  0
 21 39  1  0
 22 40  1  0
 22 41  1  0
 23 42  1  0
 23 43  1  0
 25 44  1  0
 27 45  1  0
A    1
C01
A    2
C02
A    3
O03
A    4
O04
A    5
C05
A    6
C06
A    7
C07
A    8
C08
A    9
C09
A   10
N10
A   11
C11
A   12
C12
A   13
C13
A   14
C14
A   15
C15
A   16
C16
A   17
C17
A   18
O18
A   19
O19
A   20
O20
A   21
C21
A   22
C22
A   23
C23
A   24
P24
A   25
O25
A   26
O26
A   27
O27
M  END
