1RO7_CSF_C_1001
     RDKit          3D

 72 74  0  0  0  0  0  0  0  0999 V2000
   22.0770   -5.5180   11.4770 C   0  0  0  0  0  0  0  0  0  0  0  0
   21.9970   -4.0220   11.1880 C   0  0  0  0  0  0  0  0  0  0  0  0
   20.7490   -3.7580   13.4930 C   0  0  0  0  0  0  0  0  0  0  0  0
   21.4410   -4.9830   13.8350 O   0  0  0  0  0  0  0  0  0  0  0  0
   22.4110   -5.6590   12.9880 C   0  0  0  0  0  0  0  0  0  0  0  0
   20.8810   -3.2790   12.0160 C   0  0  0  0  0  0  0  0  0  0  0  0
   21.6900   -3.9200    9.7810 O   0  0  0  0  0  0  0  0  0  0  0  0
   23.0680   -6.2430   10.7660 N   0  0  0  0  0  0  0  0  0  0  0  0
   22.3910   -7.0410   13.6690 C   0  0  0  0  0  0  0  0  0  0  0  0
   22.6710   -7.1910   15.1290 C   0  0  0  0  0  0  0  0  0  0  0  0
   22.8830   -8.6310   15.6290 C   0  0  0  0  0  0  0  0  0  0  0  0
   22.9140   -8.6710   17.0250 O   0  0  0  0  0  0  0  0  0  0  0  0
   23.8720   -6.5210   15.5430 O   0  0  0  0  0  0  0  0  0  0  0  0
   21.0900   -7.6480   13.3690 O   0  0  0  0  0  0  0  0  0  0  0  0
   19.7750   -3.1080   14.3550 C   0  0  0  0  0  0  0  0  0  0  0  0
   19.3490   -1.8470   14.1000 O   0  0  0  0  0  0  0  0  0  0  0  0
   19.3480   -3.7510   15.2650 O   0  0  0  0  0  0  0  0  0  0  0  0
   21.8640   -2.8540   13.9650 O   0  0  0  0  0  0  0  0  0  0  0  0
   24.4260   -2.9000   13.2690 O   0  0  0  0  0  0  0  0  0  0  0  0
   24.5280    2.3840   13.5730 N   0  0  0  0  0  0  0  0  0  0  0  0
   24.4510    3.4810   12.6140 C   0  0  0  0  0  0  0  0  0  0  0  0
   25.5060    3.5440   11.5960 N   0  0  0  0  0  0  0  0  0  0  0  0
   26.5470    2.5950   11.5370 C   0  0  0  0  0  0  0  0  0  0  0  0
   26.6330    1.4460   12.5320 C   0  0  0  0  0  0  0  0  0  0  0  0
   25.6160    1.4120   13.4910 C   0  0  0  0  0  0  0  0  0  0  0  0
   21.7910    0.5380   14.6540 C   0  0  0  0  0  0  0  0  0  0  0  0
   22.0020    1.9640   14.2310 C   0  0  0  0  0  0  0  0  0  0  0  0
   23.4190    2.3110   14.6620 C   0  0  0  0  0  0  0  0  0  0  0  0
   23.7820    1.3490   15.6830 O   0  0  0  0  0  0  0  0  0  0  0  0
   22.6850    0.4400   15.9070 C   0  0  0  0  0  0  0  0  0  0  0  0
   23.4590   -2.6900   14.3770 P   0  0  0  0  0  0  0  0  0  0  0  0
   24.0280   -1.3670   15.0100 O   0  0  0  0  0  0  0  0  0  0  0  0
   23.2440   -0.8980   16.1270 C   0  0  0  0  0  0  0  0  0  0  0  0
   20.4400    0.2870   15.0540 O   0  0  0  0  0  0  0  0  0  0  0  0
   21.1320    2.8850   14.9200 O   0  0  0  0  0  0  0  0  0  0  0  0
   27.4470    2.7140   10.6070 N   0  0  0  0  0  0  0  0  0  0  0  0
   23.5180    4.3690   12.6300 O   0  0  0  0  0  0  0  0  0  0  0  0
   23.8200   -3.6330   15.3510 O   0  0  0  0  0  0  0  0  0  0  0  0
   23.0150   -7.5000   10.2800 C   0  0  0  0  0  0  0  0  0  0  0  0
   22.0080   -8.2010   10.4260 O   0  0  0  0  0  0  0  0  0  0  0  0
   24.2340   -8.0200    9.5510 C   0  0  0  0  0  0  0  0  0  0  0  0
   19.6540   -3.7120   11.5910 F   0  0  0  0  0  0  0  0  0  0  0  0
   21.1125   -5.9423   11.1612 H   0  0  0  0  0  0  0  0  0  0  0  0
   22.9458   -3.5431   11.4717 H   0  0  0  0  0  0  0  0  0  0  0  0
   23.4372   -5.2675   12.9284 H   0  0  0  0  0  0  0  0  0  0  0  0
   21.1456   -2.2168   11.9075 H   0  0  0  0  0  0  0  0  0  0  0  0
   20.7566   -3.6099    9.6685 H   0  0  0  0  0  0  0  0  0  0  0  0
   23.9505   -5.7393   10.5976 H   0  0  0  0  0  0  0  0  0  0  0  0
   23.2767   -7.5346   13.2426 H   0  0  0  0  0  0  0  0  0  0  0  0
   21.7524   -6.7603   15.5541 H   0  0  0  0  0  0  0  0  0  0  0  0
   22.0584   -9.2633   15.2682 H   0  0  0  0  0  0  0  0  0  0  0  0
   23.8449   -9.0003   15.2439 H   0  0  0  0  0  0  0  0  0  0  0  0
   22.3499   -7.9432   17.3886 H   0  0  0  0  0  0  0  0  0  0  0  0
   23.9130   -6.4981   16.5319 H   0  0  0  0  0  0  0  0  0  0  0  0
   20.6243   -7.8653   14.2151 H   0  0  0  0  0  0  0  0  0  0  0  0
   19.1418   -1.2336   14.8489 H   0  0  0  0  0  0  0  0  0  0  0  0
   27.4374    0.6964   12.4989 H   0  0  0  0  0  0  0  0  0  0  0  0
   25.6363    0.5999   14.2327 H   0  0  0  0  0  0  0  0  0  0  0  0
   22.0148   -0.1719   13.8441 H   0  0  0  0  0  0  0  0  0  0  0  0
   21.8076    2.0494   13.1517 H   0  0  0  0  0  0  0  0  0  0  0  0
   23.3798    3.3550   15.0062 H   0  0  0  0  0  0  0  0  0  0  0  0
   22.0764    0.6765   16.7923 H   0  0  0  0  0  0  0  0  0  0  0  0
   23.8864   -0.8681   17.0194 H   0  0  0  0  0  0  0  0  0  0  0  0
   22.4005   -1.5925   16.2545 H   0  0  0  0  0  0  0  0  0  0  0  0
   20.3850    0.2768   16.0424 H   0  0  0  0  0  0  0  0  0  0  0  0
   21.2391    2.7716   15.8976 H   0  0  0  0  0  0  0  0  0  0  0  0
   28.4364    2.8448   10.8616 H   0  0  0  0  0  0  0  0  0  0  0  0
   27.1708    2.6775    9.6154 H   0  0  0  0  0  0  0  0  0  0  0  0
   23.6732   -3.2496   16.2519 H   0  0  0  0  0  0  0  0  0  0  0  0
   24.9893   -8.3422   10.2830 H   0  0  0  0  0  0  0  0  0  0  0  0
   23.9472   -8.8741    8.9199 H   0  0  0  0  0  0  0  0  0  0  0  0
   24.6520   -7.2219    8.9199 H   0  0  0  0  0  0  0  0  0  0  0  0
  1  2  1  0
  1  5  1  0
  1  8  1  0
  2  6  1  0
  2  7  1  0
  3  4  1  0
  3  6  1  0
  3 15  1  0
  3 18  1  0
  4  5  1  0
  5  9  1  0
  6 42  1  0
  8 39  1  0
  9 10  1  0
  9 14  1  0
 10 11  1  0
 10 13  1  0
 11 12  1  0
 15 16  1  0
 15 17  2  0
 18 31  1  0
 19 31  2  0
 20 21  1  0
 20 25  1  0
 20 28  1  0
 21 22  1  0
 21 37  2  0
 22 23  2  0
 23 24  1  0
 23 36  1  0
 24 25  2  0
 26 27  1  0
 26 30  1  0
 26 34  1  0
 27 28  1  0
 27 35  1  0
 28 29  1  0
 29 30  1  0
 30 33  1  0
 31 32  1  0
 31 38  1  0
 32 33  1  0
 39 40  2  0
 39 41  1  0
  1 43  1  0
  2 44  1  0
  5 45  1  0
  6 46  1  0
  7 47  1  0
  8 48  1  0
  9 49  1  0
 10 50  1  0
 11 51  1  0
 11 52  1  0
 12 53  1  0
 13 54  1  0
 14 55  1  0
 16 56  1  0
 24 57  1  0
 25 58  1  0
 26 59  1  0
 27 60  1  0
 28 61  1  0
 30 62  1  0
 33 63  1  0
 33 64  1  0
 34 65  1  0
 35 66  1  0
 36 67  1  0
 36 68  1  0
 38 69  1  0
 41 70  1  0
 41 71  1  0
 41 72  1  0
A    1
C5A
A    2
C4A
A    3
C2A
A    4
O6A
A    5
C6A
A    6
C3A
A    7
O4A
A    8
N5A
A    9
C7A
A   10
C8A
A   11
C9A
A   12
O9A
A   13
O8A
A   14
O7A
A   15
C1A
A   16
OBA
A   17
OAA
A   18
O1A
A   19
O2A
A   20
N1
A   21
C2
A   22
N3
A   23
C4
A   24
C5
A   25
C6
A   26
C3'
A   27
C2'
A   28
C1'
A   29
O4'
A   30
C4'
A   31
PA
A   32
O5'
A   33
C5'
A   34
O3'
A   35
O2'
A   36
N4
A   37
O2
A   38
O3A
A   39
C10
A   40
O10
A   41
C11
A   42
F3A
M  END
