5BOD_TTJ_A_301
     RDKit          3D

 41 43  0  0  0  0  0  0  0  0999 V2000
   24.1620   19.6080   69.5880 C   0  0  0  0  0  0  0  0  0  0  0  0
   25.3570   19.9380   70.3290 O   0  0  0  0  0  0  0  0  0  0  0  0
   25.6200   18.9320   71.3230 C   0  0  0  0  0  0  0  0  0  0  0  0
   25.8210   17.5950   70.6340 C   0  0  0  0  0  0  0  0  0  0  0  0
   24.6400   17.2610   69.8910 O   0  0  0  0  0  0  0  0  0  0  0  0
   24.3540   18.2670   68.8990 C   0  0  0  0  0  0  0  0  0  0  0  0
   23.0840   17.8640   68.1410 C   0  0  0  0  0  0  0  0  0  0  0  0
   21.9790   18.2400   68.5280 O   0  0  0  0  0  0  0  0  0  0  0  0
   23.3270   17.0710   67.0770 N   0  0  0  0  0  0  0  0  0  0  0  0
   22.3560   16.5750   66.2980 C   0  0  0  0  0  0  0  0  0  0  0  0
   21.0970   16.9970   66.1480 C   0  0  0  0  0  0  0  0  0  0  0  0
   22.5680   15.5140   65.5250 N   0  0  0  0  0  0  0  0  0  0  0  0
   21.4320   15.2520   64.8730 N   0  0  0  0  0  0  0  0  0  0  0  0
   20.5500   16.1640   65.2620 C   0  0  0  0  0  0  0  0  0  0  0  0
   19.3000   16.1900   64.8070 C   0  0  0  0  0  0  0  0  0  0  0  0
   18.3760   17.1180   65.2740 C   0  0  0  0  0  0  0  0  0  0  0  0
   17.0770   17.1040   64.7720 C   0  0  0  0  0  0  0  0  0  0  0  0
   16.1460   18.0270   65.2290 C   0  0  0  0  0  0  0  0  0  0  0  0
   16.7010   16.1690   63.8130 C   0  0  0  0  0  0  0  0  0  0  0  0
   17.6260   15.2420   63.3500 C   0  0  0  0  0  0  0  0  0  0  0  0
   17.2550   14.3050   62.3940 C   0  0  0  0  0  0  0  0  0  0  0  0
   18.9220   15.2540   63.8500 C   0  0  0  0  0  0  0  0  0  0  0  0
   23.9710   20.3851   68.8333 H   0  0  0  0  0  0  0  0  0  0  0  0
   23.3055   19.5502   70.2758 H   0  0  0  0  0  0  0  0  0  0  0  0
   26.5279   19.1973   71.8846 H   0  0  0  0  0  0  0  0  0  0  0  0
   24.7704   18.8668   72.0186 H   0  0  0  0  0  0  0  0  0  0  0  0
   26.0120   16.8179   71.3888 H   0  0  0  0  0  0  0  0  0  0  0  0
   26.6802   17.6589   69.9502 H   0  0  0  0  0  0  0  0  0  0  0  0
   25.1873   18.3534   68.1862 H   0  0  0  0  0  0  0  0  0  0  0  0
   24.3044   16.8358   66.8530 H   0  0  0  0  0  0  0  0  0  0  0  0
   20.6148   17.8496   66.6486 H   0  0  0  0  0  0  0  0  0  0  0  0
   23.4501   14.9884   65.4436 H   0  0  0  0  0  0  0  0  0  0  0  0
   18.6686   17.8574   66.0340 H   0  0  0  0  0  0  0  0  0  0  0  0
   16.1426   18.0304   66.3290 H   0  0  0  0  0  0  0  0  0  0  0  0
   16.4112   19.0288   64.8600 H   0  0  0  0  0  0  0  0  0  0  0  0
   15.1466   17.7531   64.8600 H   0  0  0  0  0  0  0  0  0  0  0  0
   15.6728   16.1638   63.4220 H   0  0  0  0  0  0  0  0  0  0  0  0
   16.8943   13.3940   62.8941 H   0  0  0  0  0  0  0  0  0  0  0  0
   16.4534   14.7201   61.7654 H   0  0  0  0  0  0  0  0  0  0  0  0
   18.1235   14.0588   61.7654 H   0  0  0  0  0  0  0  0  0  0  0  0
   19.6544   14.5182   63.4866 H   0  0  0  0  0  0  0  0  0  0  0  0
 21 20  1  0
 20 19  2  0
 20 22  1  0
 19 17  1  0
 22 15  2  0
 17 18  1  0
 17 16  2  0
 15 14  1  0
 15 16  1  0
 13 14  2  0
 13 12  1  0
 14 11  1  0
 12 10  1  0
 11 10  2  0
 10  9  1  0
  9  7  1  0
  7  8  2  0
  7  6  1  0
  6  1  1  0
  6  5  1  0
  1  2  1  0
  5  4  1  0
  2  3  1  0
  4  3  1  0
  1 23  1  0
  1 24  1  0
  3 25  1  0
  3 26  1  0
  4 27  1  0
  4 28  1  0
  6 29  1  0
  9 30  1  0
 11 31  1  0
 12 32  1  0
 16 33  1  0
 18 34  1  0
 18 35  1  0
 18 36  1  0
 19 37  1  0
 21 38  1  0
 21 39  1  0
 21 40  1  0
 22 41  1  0
A    1
CAD
A    2
OAC
A    3
CAT
A    4
CAB
A    5
OAA
A    6
CAS
A    7
CAQ
A    8
OAR
A    9
NAP
A   10
CAN
A   11
CAO
A   12
NAM
A   13
NAL
A   14
CAK
A   15
CAJ
A   16
CAE
A   17
CAF
A   18
CAU
A   19
CAG
A   20
CAH
A   21
CAV
A   22
CAI
M  END
