5BOJ_4TX_A_201
     RDKit          3D

 40 40  0  0  0  0  0  0  0  0999 V2000
   -0.2170   -0.7090    8.5210 C   0  0  0  0  0  0  0  0  0  0  0  0
   -0.9080    0.8040    6.0700 C   0  0  0  0  0  0  0  0  0  0  0  0
    0.2090    0.4180    5.1340 C   0  0  0  0  0  0  0  0  0  0  0  0
    0.7320    0.1510    2.6760 C   0  0  0  0  0  0  0  0  0  0  0  0
    0.0040   -1.2670    9.7780 C   0  0  0  0  0  0  0  0  0  0  0  0
    0.3510   -0.4610   10.8480 C   0  0  0  0  0  0  0  0  0  0  0  0
    0.4930    0.9060   10.6810 C   0  0  0  0  0  0  0  0  0  0  0  0
   -1.1820    0.0790    1.2840 O   0  0  0  0  0  0  0  0  0  0  0  0
    0.0290   -0.0370    1.3540 C   0  0  0  0  0  0  0  0  0  0  0  0
    0.6990   -0.3190    0.2400 O   0  0  0  0  0  0  0  0  0  0  0  0
    1.5570   -1.0790    3.0220 C   0  0  0  0  0  0  0  0  0  0  0  0
    1.6370    1.3660    2.5690 C   0  0  0  0  0  0  0  0  0  0  0  0
   -0.3470    0.3440    3.7260 C   0  0  0  0  0  0  0  0  0  0  0  0
   -0.2620    1.3460    7.2040 O   0  0  0  0  0  0  0  0  0  0  0  0
   -0.0780    0.6720    8.3700 C   0  0  0  0  0  0  0  0  0  0  0  0
    0.2670    1.4670    9.4300 C   0  0  0  0  0  0  0  0  0  0  0  0
    0.4030    2.9400    9.1490 C   0  0  0  0  0  0  0  0  0  0  0  0
   -0.1450   -2.7450   10.0060 C   0  0  0  0  0  0  0  0  0  0  0  0
   -0.4950   -1.3426    7.6659 H   0  0  0  0  0  0  0  0  0  0  0  0
   -1.5021   -0.0789    6.3483 H   0  0  0  0  0  0  0  0  0  0  0  0
   -1.6052    1.5194    5.6095 H   0  0  0  0  0  0  0  0  0  0  0  0
    1.0077    1.1730    5.1783 H   0  0  0  0  0  0  0  0  0  0  0  0
    0.6255   -0.5572    5.4264 H   0  0  0  0  0  0  0  0  0  0  0  0
    0.5153   -0.9098   11.8387 H   0  0  0  0  0  0  0  0  0  0  0  0
    0.7820    1.5420   11.5307 H   0  0  0  0  0  0  0  0  0  0  0  0
    1.6101   -0.7025    0.2940 H   0  0  0  0  0  0  0  0  0  0  0  0
    1.6245   -1.1796    4.1153 H   0  0  0  0  0  0  0  0  0  0  0  0
    1.0757   -1.9738    2.6005 H   0  0  0  0  0  0  0  0  0  0  0  0
    2.5675   -0.9732    2.6005 H   0  0  0  0  0  0  0  0  0  0  0  0
    1.8991    1.7179    3.5777 H   0  0  0  0  0  0  0  0  0  0  0  0
    2.5540    1.0935    2.0259 H   0  0  0  0  0  0  0  0  0  0  0  0
    1.1134    2.1665    2.0259 H   0  0  0  0  0  0  0  0  0  0  0  0
   -1.0479   -0.5019    3.6691 H   0  0  0  0  0  0  0  0  0  0  0  0
   -0.8451    1.3021    3.5162 H   0  0  0  0  0  0  0  0  0  0  0  0
    0.4539    3.4914   10.0994 H   0  0  0  0  0  0  0  0  0  0  0  0
    1.3216    3.1198    8.5711 H   0  0  0  0  0  0  0  0  0  0  0  0
   -0.4671    3.2849    8.5711 H   0  0  0  0  0  0  0  0  0  0  0  0
   -0.1656   -2.9490   11.0867 H   0  0  0  0  0  0  0  0  0  0  0  0
   -1.0829   -3.0938    9.5491 H   0  0  0  0  0  0  0  0  0  0  0  0
    0.7044   -3.2740    9.5491 H   0  0  0  0  0  0  0  0  0  0  0  0
  6  7  2  0
  6  5  1  0
  7 16  1  0
 18  5  1  0
  5  1  2  0
 16 17  1  0
 16 15  2  0
  1 15  1  0
 15 14  1  0
 14  2  1  0
  2  3  1  0
  3 13  1  0
 13  4  1  0
 12  4  1  0
 11  4  1  0
  4  9  1  0
  9  8  2  0
  9 10  1  0
  1 19  1  0
  2 20  1  0
  2 21  1  0
  3 22  1  0
  3 23  1  0
  6 24  1  0
  7 25  1  0
 10 26  1  0
 11 27  1  0
 11 28  1  0
 11 29  1  0
 12 30  1  0
 12 31  1  0
 12 32  1  0
 13 33  1  0
 13 34  1  0
 17 35  1  0
 17 36  1  0
 17 37  1  0
 18 38  1  0
 18 39  1  0
 18 40  1  0
A    1
C8
A    2
C6
A    3
C5
A    4
C1
A    5
C9
A    6
C10
A    7
C11
A    8
O
A    9
C
A   10
O1
A   11
C2
A   12
C3
A   13
C4
A   14
O2
A   15
C7
A   16
C12
A   17
C13
A   18
C14
M  END
