5BQ0_4US_A_701
     RDKit          3D

 55 59  0  0  0  0  0  0  0  0999 V2000
  -23.6890    6.6910    2.0310 C   0  0  0  0  0  0  0  0  0  0  0  0
  -24.1560    6.9260    8.6690 C   0  0  0  0  0  0  0  0  0  0  0  0
  -23.9030    8.5720    6.9340 C   0  0  0  0  0  0  0  0  0  0  0  0
  -22.7600    7.6970    6.4180 C   0  0  0  0  0  0  0  0  0  0  0  0
  -23.9350    7.3330   -1.3150 C   0  0  0  0  0  0  0  0  0  0  0  0
  -23.3660    5.8510    7.9300 C   0  0  0  0  0  0  0  0  0  0  0  0
  -25.7300    8.9570    8.5260 C   0  0  0  0  0  0  0  0  0  0  0  0
  -24.9400    6.6260   -1.9790 C   0  0  0  0  0  0  0  0  0  0  0  0
  -26.1820    7.1940   -2.1910 C   0  0  0  0  0  0  0  0  0  0  0  0
  -26.4680    8.4550   -1.7080 C   0  0  0  0  0  0  0  0  0  0  0  0
  -25.5030    9.1630   -1.0110 C   0  0  0  0  0  0  0  0  0  0  0  0
  -22.8490    5.7870    4.1220 C   0  0  0  0  0  0  0  0  0  0  0  0
  -23.8520    6.4250    3.3870 C   0  0  0  0  0  0  0  0  0  0  0  0
  -20.7170    5.7640    0.0620 C   0  0  0  0  0  0  0  0  0  0  0  0
  -22.0210    6.3160    0.0300 C   0  0  0  0  0  0  0  0  0  0  0  0
  -22.5720    6.7280   -1.2010 C   0  0  0  0  0  0  0  0  0  0  0  0
  -21.8030    6.5830   -2.3590 C   0  0  0  0  0  0  0  0  0  0  0  0
  -20.5140    6.0540   -2.3060 C   0  0  0  0  0  0  0  0  0  0  0  0
  -19.9370    5.6460   -1.0930 C   0  0  0  0  0  0  0  0  0  0  0  0
  -18.5980    4.9690   -1.0140 C   0  0  0  0  0  0  0  0  0  0  0  0
  -18.3290    4.2540   -0.0130 O   0  0  0  0  0  0  0  0  0  0  0  0
  -17.7790    5.0110   -2.0520 N   0  0  0  0  0  0  0  0  0  0  0  0
  -20.3940    5.4580    1.3680 N   0  0  0  0  0  0  0  0  0  0  0  0
  -21.4550    5.7860    2.1830 C   0  0  0  0  0  0  0  0  0  0  0  0
  -22.4930    6.3370    1.4000 C   0  0  0  0  0  0  0  0  0  0  0  0
  -21.6100    5.5410    3.5360 C   0  0  0  0  0  0  0  0  0  0  0  0
  -23.0830    5.3610    5.5340 C   0  0  0  0  0  0  0  0  0  0  0  0
  -23.3280    4.1840    5.7370 O   0  0  0  0  0  0  0  0  0  0  0  0
  -23.0640    6.2590    6.5390 N   0  0  0  0  0  0  0  0  0  0  0  0
  -24.8840    8.0310    7.7660 N   0  0  0  0  0  0  0  0  0  0  0  0
  -24.2460    8.6000   -0.8250 C   0  0  0  0  0  0  0  0  0  0  0  0
  -23.0720    9.4970    0.0630 Cl  0  0  0  0  0  0  0  0  0  0  0  0
  -24.4947    7.1759    1.4603 H   0  0  0  0  0  0  0  0  0  0  0  0
  -23.4593    7.4498    9.3400 H   0  0  0  0  0  0  0  0  0  0  0  0
  -24.9685    6.3885    9.1799 H   0  0  0  0  0  0  0  0  0  0  0  0
  -23.4403    9.4015    7.4889 H   0  0  0  0  0  0  0  0  0  0  0  0
  -24.4608    8.8189    6.0186 H   0  0  0  0  0  0  0  0  0  0  0  0
  -21.8533    7.9181    7.0003 H   0  0  0  0  0  0  0  0  0  0  0  0
  -22.6146    7.9239    5.3515 H   0  0  0  0  0  0  0  0  0  0  0  0
  -23.9569    4.9234    7.9101 H   0  0  0  0  0  0  0  0  0  0  0  0
  -22.4138    5.6976    8.4590 H   0  0  0  0  0  0  0  0  0  0  0  0
  -25.5790    8.7917    9.6030 H   0  0  0  0  0  0  0  0  0  0  0  0
  -25.4597    9.9927    8.2725 H   0  0  0  0  0  0  0  0  0  0  0  0
  -26.7858    8.7811    8.2725 H   0  0  0  0  0  0  0  0  0  0  0  0
  -24.7407    5.6053   -2.3374 H   0  0  0  0  0  0  0  0  0  0  0  0
  -26.9487    6.6367   -2.7491 H   0  0  0  0  0  0  0  0  0  0  0  0
  -27.4611    8.8971   -1.8764 H   0  0  0  0  0  0  0  0  0  0  0  0
  -25.7293   10.1614   -0.6085 H   0  0  0  0  0  0  0  0  0  0  0  0
  -24.7851    6.7216    3.8884 H   0  0  0  0  0  0  0  0  0  0  0  0
  -22.2216    6.8913   -3.3284 H   0  0  0  0  0  0  0  0  0  0  0  0
  -19.9357    5.9540   -3.2364 H   0  0  0  0  0  0  0  0  0  0  0  0
  -16.7612    5.0632   -1.9031 H   0  0  0  0  0  0  0  0  0  0  0  0
  -18.1592    4.9915   -3.0091 H   0  0  0  0  0  0  0  0  0  0  0  0
  -19.5024    5.0497    1.6831 H   0  0  0  0  0  0  0  0  0  0  0  0
  -20.7712    5.1595    4.1367 H   0  0  0  0  0  0  0  0  0  0  0  0
 17 18  2  0
 17 16  1  0
 18 19  1  0
  9  8  2  0
  9 10  1  0
 22 20  1  0
  8  5  1  0
 10 11  2  0
  5 16  1  0
  5 31  2  0
 16 15  2  0
 19 20  1  0
 19 14  2  0
 20 21  2  0
 11 31  1  0
 31 32  1  0
 15 14  1  0
 15 25  1  0
 14 23  1  0
 23 24  1  0
 25  1  2  0
 25 24  1  0
  1 13  1  0
 24 26  2  0
 13 12  2  0
 26 12  1  0
 12 27  1  0
 27 28  2  0
 27 29  1  0
  4 29  1  0
  4  3  1  0
 29  6  1  0
  3 30  1  0
 30  7  1  0
 30  2  1  0
  6  2  1  0
  1 33  1  0
  2 34  1  0
  2 35  1  0
  3 36  1  0
  3 37  1  0
  4 38  1  0
  4 39  1  0
  6 40  1  0
  6 41  1  0
  7 42  1  0
  7 43  1  0
  7 44  1  0
  8 45  1  0
  9 46  1  0
 10 47  1  0
 11 48  1  0
 13 49  1  0
 17 50  1  0
 18 51  1  0
 22 52  1  0
 22 53  1  0
 23 54  1  0
 26 55  1  0
A    1
C13
A    2
C18
A    3
C17
A    4
C16
A    5
C15
A    6
C19
A    7
C20
A    8
C21
A    9
C22
A   10
C23
A   11
C24
A   12
C11
A   13
C12
A   14
C1
A   15
C2
A   16
C3
A   17
C4
A   18
C5
A   19
C6
A   20
C7
A   21
O1
A   22
N1
A   23
N2
A   24
C8
A   25
C9
A   26
C10
A   27
C14
A   28
O2
A   29
N3
A   30
N4
A   31
C25
A   32
CL1
M  END
