5BQI_4UL_A_201
     RDKit          3D

 57 59  0  0  0  0  0  0  0  0999 V2000
    8.8210   16.2070   30.5320 O   0  0  0  0  0  0  0  0  0  0  0  0
   17.7360   18.0650   25.0870 C   0  0  0  0  0  0  0  0  0  0  0  0
   16.5080   17.4940   25.3930 C   0  0  0  0  0  0  0  0  0  0  0  0
   17.0270   17.8860   30.3760 C   0  0  0  0  0  0  0  0  0  0  0  0
   16.3140   17.3290   31.4170 N   0  0  0  0  0  0  0  0  0  0  0  0
   16.1240   17.2990   26.7080 C   0  0  0  0  0  0  0  0  0  0  0  0
   16.9560   17.6860   27.7560 C   0  0  0  0  0  0  0  0  0  0  0  0
   16.5600   17.4480   29.1580 C   0  0  0  0  0  0  0  0  0  0  0  0
   18.1330   18.8420   30.6810 C   0  0  0  0  0  0  0  0  0  0  0  0
   15.3300   14.2070   35.4480 F   0  0  0  0  0  0  0  0  0  0  0  0
   14.7610   13.2310   34.6940 C   0  0  0  0  0  0  0  0  0  0  0  0
   15.6010   13.0580   33.6380 F   0  0  0  0  0  0  0  0  0  0  0  0
   13.3890   13.6670   34.1390 C   0  0  0  0  0  0  0  0  0  0  0  0
   12.3490   12.9020   34.4970 N   0  0  0  0  0  0  0  0  0  0  0  0
   11.1310   13.2230   34.0370 C   0  0  0  0  0  0  0  0  0  0  0  0
   10.8680   14.3030   33.2150 C   0  0  0  0  0  0  0  0  0  0  0  0
    9.4750   14.5870   32.7130 C   0  0  0  0  0  0  0  0  0  0  0  0
    9.2930   14.1630   31.3300 N   0  0  0  0  0  0  0  0  0  0  0  0
    9.0880   15.0260   30.3290 C   0  0  0  0  0  0  0  0  0  0  0  0
    9.1930   14.4560   28.9270 C   0  0  0  0  0  0  0  0  0  0  0  0
    7.8490   14.5630   28.2040 C   0  0  0  0  0  0  0  0  0  0  0  0
   10.3140   15.1460   28.1460 C   0  0  0  0  0  0  0  0  0  0  0  0
   11.9510   15.0850   32.8320 C   0  0  0  0  0  0  0  0  0  0  0  0
   13.2330   14.7870   33.2900 C   0  0  0  0  0  0  0  0  0  0  0  0
   14.3390   15.6960   32.8460 C   0  0  0  0  0  0  0  0  0  0  0  0
   15.0220   16.3180   33.6570 O   0  0  0  0  0  0  0  0  0  0  0  0
   14.5170   15.7980   31.4860 N   0  0  0  0  0  0  0  0  0  0  0  0
   15.4380   16.5520   30.8010 C   0  0  0  0  0  0  0  0  0  0  0  0
   15.5400   16.5750   29.4540 N   0  0  0  0  0  0  0  0  0  0  0  0
   18.1960   18.2420   27.4480 C   0  0  0  0  0  0  0  0  0  0  0  0
   18.5740   18.4370   26.1310 C   0  0  0  0  0  0  0  0  0  0  0  0
   18.1490   18.2710   23.6660 C   0  0  0  0  0  0  0  0  0  0  0  0
   17.6590   17.3420   22.8480 F   0  0  0  0  0  0  0  0  0  0  0  0
   17.7460   19.4400   23.1770 F   0  0  0  0  0  0  0  0  0  0  0  0
   19.4690   18.2330   23.5040 F   0  0  0  0  0  0  0  0  0  0  0  0
   15.8316   17.1927   24.5795 H   0  0  0  0  0  0  0  0  0  0  0  0
   16.4343   17.4810   32.4286 H   0  0  0  0  0  0  0  0  0  0  0  0
   15.1519   16.8337   26.9280 H   0  0  0  0  0  0  0  0  0  0  0  0
   18.2443   18.9382   31.7711 H   0  0  0  0  0  0  0  0  0  0  0  0
   19.0720   18.4665   30.2483 H   0  0  0  0  0  0  0  0  0  0  0  0
   17.8973   19.8255   30.2483 H   0  0  0  0  0  0  0  0  0  0  0  0
   14.6082   12.3237   35.2969 H   0  0  0  0  0  0  0  0  0  0  0  0
   10.2854   12.5849   34.3332 H   0  0  0  0  0  0  0  0  0  0  0  0
    9.2877   15.6689   32.7798 H   0  0  0  0  0  0  0  0  0  0  0  0
    8.7682   14.0201   33.3367 H   0  0  0  0  0  0  0  0  0  0  0  0
    9.3236   13.1562   31.1147 H   0  0  0  0  0  0  0  0  0  0  0  0
    9.4494   13.3886   28.9969 H   0  0  0  0  0  0  0  0  0  0  0  0
    7.0383   14.6275   28.9447 H   0  0  0  0  0  0  0  0  0  0  0  0
    7.8424   15.4645   27.5737 H   0  0  0  0  0  0  0  0  0  0  0  0
    7.6999   13.6739   27.5737 H   0  0  0  0  0  0  0  0  0  0  0  0
   11.0332   15.5887   28.8508 H   0  0  0  0  0  0  0  0  0  0  0  0
   10.8280   14.4077   27.5129 H   0  0  0  0  0  0  0  0  0  0  0  0
    9.8864   15.9375   27.5129 H   0  0  0  0  0  0  0  0  0  0  0  0
   11.7954   15.9444   32.1633 H   0  0  0  0  0  0  0  0  0  0  0  0
   13.8769   15.2364   30.9065 H   0  0  0  0  0  0  0  0  0  0  0  0
   18.8811   18.5287   28.2595 H   0  0  0  0  0  0  0  0  0  0  0  0
   19.5502   18.8922   25.9079 H   0  0  0  0  0  0  0  0  0  0  0  0
 33 32  1  0
 34 32  1  0
 35 32  1  0
 32  2  1  0
  2  3  2  0
  2 31  1  0
  3  6  1  0
 31 30  2  0
  6  7  2  0
 30  7  1  0
  7  8  1  0
 22 20  1  0
 21 20  1  0
 20 19  1  0
  8 29  1  0
  8  4  2  0
 29 28  2  0
 19  1  2  0
 19 18  1  0
  4  9  1  0
  4  5  1  0
 28  5  1  0
 28 27  1  0
 18 17  1  0
 27 25  1  0
 17 16  1  0
 23 16  2  0
 23 24  1  0
 25 24  1  0
 25 26  2  0
 16 15  1  0
 24 13  2  0
 12 11  1  0
 15 14  2  0
 13 14  1  0
 13 11  1  0
 11 10  1  0
  3 36  1  0
  5 37  1  0
  6 38  1  0
  9 39  1  0
  9 40  1  0
  9 41  1  0
 11 42  1  0
 15 43  1  0
 17 44  1  0
 17 45  1  0
 18 46  1  0
 20 47  1  0
 21 48  1  0
 21 49  1  0
 21 50  1  0
 22 51  1  0
 22 52  1  0
 22 53  1  0
 23 54  1  0
 27 55  1  0
 30 56  1  0
 31 57  1  0
A    1
O1
A    2
C7
A    3
C6
A    4
C1
A    5
N1
A    6
C5
A    7
C4
A    8
C3
A    9
C2
A   10
F4
A   11
C22
A   12
F3
A   13
C13
A   14
N3
A   15
C14
A   16
C15
A   17
C17
A   18
N4
A   19
C18
A   20
C19
A   21
C21
A   22
C20
A   23
C16
A   24
C12
A   25
C11
A   26
O
A   27
N2
A   28
C
A   29
N
A   30
C9
A   31
C8
A   32
C10
A   33
F2
A   34
F1
A   35
F
M  END
