5BRN_4X2_A_302
     RDKit          3D

 36 37  0  0  0  0  0  0  0  0999 V2000
  -14.8330   15.3860  -19.4730 N   0  0  0  0  0  0  0  0  0  0  0  0
  -14.6860   14.5030  -18.4210 C   0  0  0  0  0  0  0  0  0  0  0  0
  -14.5180   12.5750  -17.1350 C   0  0  0  0  0  0  0  0  0  0  0  0
  -14.3480   14.5870  -16.0220 C   0  0  0  0  0  0  0  0  0  0  0  0
  -14.7520   16.6180  -18.9930 C   0  0  0  0  0  0  0  0  0  0  0  0
  -19.0000   20.8970  -21.5620 O   0  0  0  0  0  0  0  0  0  0  0  0
  -18.0650   19.8820  -22.1850 P   0  0  0  0  0  0  0  0  0  0  0  0
  -16.6540   20.3920  -22.0930 O   0  0  0  0  0  0  0  0  0  0  0  0
  -18.4460   19.6930  -23.6400 O   0  0  0  0  0  0  0  0  0  0  0  0
  -18.2220   18.2820  -21.2800 C   0  0  0  0  0  0  0  0  0  0  0  0
  -17.3480   17.1580  -21.8700 C   0  0  0  0  0  0  0  0  0  0  0  0
  -17.1140   16.1980  -20.8570 O   0  0  0  0  0  0  0  0  0  0  0  0
  -16.4930   15.0330  -21.3000 C   0  0  0  0  0  0  0  0  0  0  0  0
  -17.1920   13.8020  -20.7370 C   0  0  0  0  0  0  0  0  0  0  0  0
  -18.0190   13.2490  -21.7680 O   0  0  0  0  0  0  0  0  0  0  0  0
  -15.0230   15.0210  -20.8780 C   0  0  0  0  0  0  0  0  0  0  0  0
  -14.6800   13.1530  -18.3090 N   0  0  0  0  0  0  0  0  0  0  0  0
  -14.3530   13.2580  -15.9990 N   0  0  0  0  0  0  0  0  0  0  0  0
  -14.1710   15.3180  -14.8120 O   0  0  0  0  0  0  0  0  0  0  0  0
  -14.5190   15.2800  -17.2660 C   0  0  0  0  0  0  0  0  0  0  0  0
  -14.5650   16.5840  -17.6570 N   0  0  0  0  0  0  0  0  0  0  0  0
  -14.5188   11.4760  -17.0888 H   0  0  0  0  0  0  0  0  0  0  0  0
  -14.8263   17.5352  -19.5957 H   0  0  0  0  0  0  0  0  0  0  0  0
  -18.9436   20.8357  -20.5755 H   0  0  0  0  0  0  0  0  0  0  0  0
  -16.3980   20.4845  -21.1412 H   0  0  0  0  0  0  0  0  0  0  0  0
  -17.9242   18.4425  -20.2333 H   0  0  0  0  0  0  0  0  0  0  0  0
  -19.2700   17.9596  -21.3688 H   0  0  0  0  0  0  0  0  0  0  0  0
  -17.8698   16.6864  -22.7158 H   0  0  0  0  0  0  0  0  0  0  0  0
  -16.3933   17.5697  -22.2293 H   0  0  0  0  0  0  0  0  0  0  0  0
  -16.5572   15.0094  -22.3979 H   0  0  0  0  0  0  0  0  0  0  0  0
  -17.8122   14.0873  -19.8745 H   0  0  0  0  0  0  0  0  0  0  0  0
  -16.4500   13.0609  -20.4052 H   0  0  0  0  0  0  0  0  0  0  0  0
  -18.7678   12.7483  -21.3573 H   0  0  0  0  0  0  0  0  0  0  0  0
  -14.6203   14.0096  -21.0359 H   0  0  0  0  0  0  0  0  0  0  0  0
  -14.4971   15.7696  -21.4887 H   0  0  0  0  0  0  0  0  0  0  0  0
  -14.2300   12.7563  -15.1079 H   0  0  0  0  0  0  0  0  0  0  0  0
  9  7  2  0
  7  8  1  0
  7  6  1  0
  7 10  1  0
 11 10  1  0
 11 12  1  0
 15 14  1  0
 13 16  1  0
 13 12  1  0
 13 14  1  0
 16  1  1  0
  1  5  1  0
  1  2  1  0
  5 21  2  0
  2 17  1  0
  2 20  2  0
 17  3  2  0
 21 20  1  0
 20  4  1  0
  3 18  1  0
  4 18  1  0
  4 19  2  0
  3 22  1  0
  5 23  1  0
  6 24  1  0
  8 25  1  0
 10 26  1  0
 10 27  1  0
 11 28  1  0
 11 29  1  0
 13 30  1  0
 14 31  1  0
 14 32  1  0
 15 33  1  0
 16 34  1  0
 16 35  1  0
 18 36  1  0
A    1
N12
A    2
C13
A    3
C15
A    4
C17
A    5
C21
A    6
O01
A    7
P02
A    8
O03
A    9
O04
A   10
C05
A   11
C06
A   12
O07
A   13
C08
A   14
C09
A   15
O10
A   16
C11
A   17
N14
A   18
N16
A   19
O18
A   20
C19
A   21
N20
M  END
