5BST_4UU_A_601
     RDKit          3D

 54 57  0  0  0  0  0  0  0  0999 V2000
    1.4140   24.1310   15.8180 C   0  0  0  0  0  0  0  0  0  0  0  0
   -0.6670   31.5730   14.9710 O   0  0  0  0  0  0  0  0  0  0  0  0
   -0.3950   32.5300   15.6890 C   0  0  0  0  0  0  0  0  0  0  0  0
    0.9720   33.0690   15.8080 C   0  0  0  0  0  0  0  0  0  0  0  0
    2.0200   32.3160   15.4830 C   0  0  0  0  0  0  0  0  0  0  0  0
    3.4120   32.8160   15.5750 C   0  0  0  0  0  0  0  0  0  0  0  0
    4.4520   31.9380   15.2500 C   0  0  0  0  0  0  0  0  0  0  0  0
    5.7780   32.3680   15.3110 C   0  0  0  0  0  0  0  0  0  0  0  0
    3.7010   34.1240   15.9620 C   0  0  0  0  0  0  0  0  0  0  0  0
    5.0250   34.5590   16.0170 C   0  0  0  0  0  0  0  0  0  0  0  0
    6.0650   33.6820   15.6940 C   0  0  0  0  0  0  0  0  0  0  0  0
    7.2610   34.0790   15.7480 O   0  0  0  0  0  0  0  0  0  0  0  0
   -1.4430   33.1740   16.4520 O   0  0  0  0  0  0  0  0  0  0  0  0
   -3.0150   32.8260   16.3300 P   0  0  0  0  0  0  0  0  0  0  0  0
   -3.5960   33.5430   17.5130 O   0  0  0  0  0  0  0  0  0  0  0  0
   -3.5180   33.1610   14.9550 O   0  0  0  0  0  0  0  0  0  0  0  0
   -3.1910   31.2500   16.5170 O   0  0  0  0  0  0  0  0  0  0  0  0
   -2.5360   30.6100   17.6030 C   0  0  0  0  0  0  0  0  0  0  0  0
   -2.7340   29.1230   17.4640 C   0  0  0  0  0  0  0  0  0  0  0  0
   -1.9960   28.4010   18.5680 C   0  0  0  0  0  0  0  0  0  0  0  0
   -2.6860   28.4490   19.8170 O   0  0  0  0  0  0  0  0  0  0  0  0
   -1.8700   27.0160   17.9680 C   0  0  0  0  0  0  0  0  0  0  0  0
   -3.1180   26.2960   18.0110 O   0  0  0  0  0  0  0  0  0  0  0  0
   -2.1220   28.6310   16.2670 O   0  0  0  0  0  0  0  0  0  0  0  0
   -1.5360   27.3510   16.5210 C   0  0  0  0  0  0  0  0  0  0  0  0
   -0.0660   27.4050   16.3160 N   0  0  0  0  0  0  0  0  0  0  0  0
    0.7140   26.3390   16.1130 C   0  0  0  0  0  0  0  0  0  0  0  0
    0.4290   25.0130   16.0340 N   0  0  0  0  0  0  0  0  0  0  0  0
    0.7280   28.4950   16.3070 C   0  0  0  0  0  0  0  0  0  0  0  0
    2.0120   28.1240   16.0870 N   0  0  0  0  0  0  0  0  0  0  0  0
    2.0190   26.7840   15.9640 C   0  0  0  0  0  0  0  0  0  0  0  0
    3.0220   25.8380   15.7340 C   0  0  0  0  0  0  0  0  0  0  0  0
    2.6850   24.5360   15.6640 N   0  0  0  0  0  0  0  0  0  0  0  0
    4.3120   26.2090   15.5840 N   0  0  0  0  0  0  0  0  0  0  0  0
    1.1778   23.0579   15.7660 H   0  0  0  0  0  0  0  0  0  0  0  0
    1.1263   34.0973   16.1667 H   0  0  0  0  0  0  0  0  0  0  0  0
    1.8471   31.2872   15.1341 H   0  0  0  0  0  0  0  0  0  0  0  0
    4.2235   30.9059   14.9456 H   0  0  0  0  0  0  0  0  0  0  0  0
    6.5948   31.6758   15.0587 H   0  0  0  0  0  0  0  0  0  0  0  0
    2.8845   34.8130   16.2240 H   0  0  0  0  0  0  0  0  0  0  0  0
    5.2048   34.8981   17.0478 H   0  0  0  0  0  0  0  0  0  0  0  0
    5.0753   35.3142   15.2188 H   0  0  0  0  0  0  0  0  0  0  0  0
   -3.2605   33.1289   18.3473 H   0  0  0  0  0  0  0  0  0  0  0  0
   -1.4618   30.8460   17.5809 H   0  0  0  0  0  0  0  0  0  0  0  0
   -2.9543   30.9607   18.5580 H   0  0  0  0  0  0  0  0  0  0  0  0
   -3.8204   28.9511   17.4780 H   0  0  0  0  0  0  0  0  0  0  0  0
   -1.0261   28.8412   18.8428 H   0  0  0  0  0  0  0  0  0  0  0  0
   -2.0309   28.4034   20.5579 H   0  0  0  0  0  0  0  0  0  0  0  0
   -1.1406   26.3812   18.4924 H   0  0  0  0  0  0  0  0  0  0  0  0
   -3.3796   26.1451   18.9538 H   0  0  0  0  0  0  0  0  0  0  0  0
   -1.9253   26.5836   15.8358 H   0  0  0  0  0  0  0  0  0  0  0  0
    0.3847   29.5294   16.4559 H   0  0  0  0  0  0  0  0  0  0  0  0
    4.8991   26.3778   16.4133 H   0  0  0  0  0  0  0  0  0  0  0  0
    4.7087   26.3231   14.6403 H   0  0  0  0  0  0  0  0  0  0  0  0
 16 14  2  0
  2  3  2  0
  7  8  2  0
  7  6  1  0
  8 11  1  0
  5  6  1  0
  5  4  2  0
  6  9  2  0
 34 32  1  0
 33 32  1  0
 33  1  2  0
  3  4  1  0
  3 13  1  0
 11 12  2  0
 11 10  1  0
 32 31  2  0
  1 28  1  0
  9 10  1  0
 31 30  1  0
 31 27  1  0
 28 27  2  0
 30 29  2  0
 27 26  1  0
 24 25  1  0
 24 19  1  0
 29 26  1  0
 26 25  1  0
 14 13  1  0
 14 17  1  0
 14 15  1  0
 17 18  1  0
 25 22  1  0
 19 18  1  0
 19 20  1  0
 22 23  1  0
 22 20  1  0
 20 21  1  0
  1 35  1  0
  4 36  1  0
  5 37  1  0
  7 38  1  0
  8 39  1  0
  9 40  1  0
 10 41  1  0
 10 42  1  0
 15 43  1  0
 18 44  1  0
 18 45  1  0
 19 46  1  0
 20 47  1  0
 21 48  1  0
 22 49  1  0
 23 50  1  0
 25 51  1  0
 29 52  1  0
 34 53  1  0
 34 54  1  0
A    1
C2
A    2
O34
A    3
CAR
A    4
CAQ
A    5
CAP
A    6
CAK
A    7
CAJ
A    8
CAD
A    9
CAH
A   10
CAS
A   11
CAC
A   12
OBF
A   13
O2P
A   14
P
A   15
O1P
A   16
O3P
A   17
O5'
A   18
C5'
A   19
C4'
A   20
C3'
A   21
O3'
A   22
C2'
A   23
O2'
A   24
O4'
A   25
C1'
A   26
N9
A   27
C4
A   28
N3
A   29
C8
A   30
N7
A   31
C5
A   32
C6
A   33
N1
A   34
N6
M  END
