5BSU_4UV_A_601
     RDKit          3D

 53 56  0  0  0  0  0  0  0  0999 V2000
   -3.5280   33.6710   17.5360 O   0  0  0  0  0  0  0  0  0  0  0  0
   -2.9390   32.9780   16.3470 P   0  0  0  0  0  0  0  0  0  0  0  0
   -3.4140   33.3040   14.9560 O   0  0  0  0  0  0  0  0  0  0  0  0
   -1.3620   33.3110   16.4880 O   0  0  0  0  0  0  0  0  0  0  0  0
   -0.2810   32.7340   15.7030 C   0  0  0  0  0  0  0  0  0  0  0  0
    1.0500   33.3680   15.7810 C   0  0  0  0  0  0  0  0  0  0  0  0
    2.1400   32.6250   15.5770 C   0  0  0  0  0  0  0  0  0  0  0  0
    3.5230   33.1590   15.6140 C   0  0  0  0  0  0  0  0  0  0  0  0
    3.8230   34.4620   16.0280 C   0  0  0  0  0  0  0  0  0  0  0  0
    5.1530   34.9160   16.0240 C   0  0  0  0  0  0  0  0  0  0  0  0
    6.1730   34.0560   15.5950 C   0  0  0  0  0  0  0  0  0  0  0  0
    7.3690   34.4440   15.5760 O   0  0  0  0  0  0  0  0  0  0  0  0
    5.8720   32.7690   15.1810 C   0  0  0  0  0  0  0  0  0  0  0  0
    6.7930   32.0080   14.7930 O   0  0  0  0  0  0  0  0  0  0  0  0
    4.5530   32.3140   15.1890 C   0  0  0  0  0  0  0  0  0  0  0  0
   -0.4690   31.7470   14.9930 O   0  0  0  0  0  0  0  0  0  0  0  0
   -3.0430   31.3900   16.5320 O   0  0  0  0  0  0  0  0  0  0  0  0
   -2.3630   30.7570   17.6210 C   0  0  0  0  0  0  0  0  0  0  0  0
   -2.5050   29.2530   17.4900 C   0  0  0  0  0  0  0  0  0  0  0  0
   -1.8940   28.7570   16.2920 O   0  0  0  0  0  0  0  0  0  0  0  0
   -1.3040   27.4740   16.5440 C   0  0  0  0  0  0  0  0  0  0  0  0
   -1.6140   27.1440   17.9980 C   0  0  0  0  0  0  0  0  0  0  0  0
   -2.8420   26.4120   18.0320 O   0  0  0  0  0  0  0  0  0  0  0  0
   -1.8200   28.5140   18.6230 C   0  0  0  0  0  0  0  0  0  0  0  0
   -2.6460   28.4600   19.7870 O   0  0  0  0  0  0  0  0  0  0  0  0
    0.1670   27.5380   16.3240 N   0  0  0  0  0  0  0  0  0  0  0  0
    0.9260   28.6440   16.2840 C   0  0  0  0  0  0  0  0  0  0  0  0
    2.2190   28.2920   16.0570 N   0  0  0  0  0  0  0  0  0  0  0  0
    2.2560   26.9340   15.9600 C   0  0  0  0  0  0  0  0  0  0  0  0
    0.9560   26.4800   16.1300 C   0  0  0  0  0  0  0  0  0  0  0  0
    3.2580   25.9900   15.7360 C   0  0  0  0  0  0  0  0  0  0  0  0
    4.5490   26.3500   15.5500 N   0  0  0  0  0  0  0  0  0  0  0  0
    2.9460   24.6760   15.7010 N   0  0  0  0  0  0  0  0  0  0  0  0
    1.6820   24.2660   15.8740 C   0  0  0  0  0  0  0  0  0  0  0  0
    0.6900   25.1440   16.0850 N   0  0  0  0  0  0  0  0  0  0  0  0
   -3.1777   33.2589   18.3652 H   0  0  0  0  0  0  0  0  0  0  0  0
    1.1425   34.4410   16.0048 H   0  0  0  0  0  0  0  0  0  0  0  0
    2.0044   31.5534   15.3692 H   0  0  0  0  0  0  0  0  0  0  0  0
    3.0155   35.1325   16.3574 H   0  0  0  0  0  0  0  0  0  0  0  0
    5.3914   35.9376   16.3548 H   0  0  0  0  0  0  0  0  0  0  0  0
    4.3231   31.2896   14.8607 H   0  0  0  0  0  0  0  0  0  0  0  0
   -1.2975   31.0295   17.5978 H   0  0  0  0  0  0  0  0  0  0  0  0
   -2.8018   31.0883   18.5737 H   0  0  0  0  0  0  0  0  0  0  0  0
   -3.5907   29.0760   17.4924 H   0  0  0  0  0  0  0  0  0  0  0  0
   -1.7033   26.7030   15.8686 H   0  0  0  0  0  0  0  0  0  0  0  0
   -0.8400   26.5506   18.5068 H   0  0  0  0  0  0  0  0  0  0  0  0
   -3.1063   26.2544   18.9730 H   0  0  0  0  0  0  0  0  0  0  0  0
   -0.8912   28.9831   18.9797 H   0  0  0  0  0  0  0  0  0  0  0  0
   -2.0778   28.4971   20.5969 H   0  0  0  0  0  0  0  0  0  0  0  0
    0.5596   29.6729   16.4143 H   0  0  0  0  0  0  0  0  0  0  0  0
    5.1585   26.5200   16.3627 H   0  0  0  0  0  0  0  0  0  0  0  0
    4.9223   26.4541   14.5957 H   0  0  0  0  0  0  0  0  0  0  0  0
    1.4538   23.1904   15.8424 H   0  0  0  0  0  0  0  0  0  0  0  0
 14 13  2  0
  3  2  2  0
 16  5  2  0
 13 15  1  0
 13 11  1  0
 15  8  2  0
 32 31  1  0
 12 11  2  0
  7  8  1  0
  7  6  2  0
 11 10  1  0
  8  9  1  0
 33 31  1  0
 33 34  2  0
  5  6  1  0
  5  4  1  0
 31 29  2  0
 34 35  1  0
 29 28  1  0
 29 30  1  0
 10  9  2  0
 28 27  2  0
 35 30  2  0
 30 26  1  0
 27 26  1  0
 20 21  1  0
 20 19  1  0
 26 21  1  0
  2  4  1  0
  2 17  1  0
  2  1  1  0
 17 18  1  0
 21 22  1  0
 19 18  1  0
 19 24  1  0
 22 23  1  0
 22 24  1  0
 24 25  1  0
  1 36  1  0
  6 37  1  0
  7 38  1  0
  9 39  1  0
 10 40  1  0
 15 41  1  0
 18 42  1  0
 18 43  1  0
 19 44  1  0
 21 45  1  0
 22 46  1  0
 23 47  1  0
 24 48  1  0
 25 49  1  0
 27 50  1  0
 32 51  1  0
 32 52  1  0
 34 53  1  0
A    1
O1P
A    2
P
A    3
O3P
A    4
O2P
A    5
CAR
A    6
CAQ
A    7
CAP
A    8
CAK
A    9
CAH
A   10
CAS
A   11
CAC
A   12
OBF
A   13
CAD
A   14
O35
A   15
CAJ
A   16
O34
A   17
O5'
A   18
C5'
A   19
C4'
A   20
O4'
A   21
C1'
A   22
C2'
A   23
O2'
A   24
C3'
A   25
O3'
A   26
N9
A   27
C8
A   28
N7
A   29
C5
A   30
C4
A   31
C6
A   32
N6
A   33
N1
A   34
C2
A   35
N3
M  END
