3K9F_LFX_F_0
     RDKit          3D

 46 49  0  0  0  0  0  0  0  0999 V2000
  -23.8480   49.4940  -32.9850 C   0  0  0  0  0  0  0  0  0  0  0  0
  -23.3820   48.8210  -40.1740 F   0  0  0  0  0  0  0  0  0  0  0  0
  -19.9060   52.4010  -41.9300 N   0  0  0  0  0  0  0  0  0  0  0  0
  -23.8470   50.2520  -32.0260 O   0  0  0  0  0  0  0  0  0  0  0  0
  -21.0730   50.3010  -41.2000 C   0  0  0  0  0  0  0  0  0  0  0  0
  -21.9740   51.2070  -40.4430 N   0  0  0  0  0  0  0  0  0  0  0  0
  -21.6730   52.5820  -38.0410 O   0  0  0  0  0  0  0  0  0  0  0  0
  -22.2750   52.5290  -41.0460 C   0  0  0  0  0  0  0  0  0  0  0  0
  -22.4490   51.6880  -35.5820 N   0  0  0  0  0  0  0  0  0  0  0  0
  -24.2930   48.1010  -35.3520 O   0  0  0  0  0  0  0  0  0  0  0  0
  -21.6250   52.8800  -35.6210 C   0  0  0  0  0  0  0  0  0  0  0  0
  -23.6530   48.3120  -32.6800 O   0  0  0  0  0  0  0  0  0  0  0  0
  -22.4740   50.7470  -39.1860 C   0  0  0  0  0  0  0  0  0  0  0  0
  -22.6710   50.9570  -36.7310 C   0  0  0  0  0  0  0  0  0  0  0  0
  -22.2340   51.4520  -37.9880 C   0  0  0  0  0  0  0  0  0  0  0  0
  -19.7180   50.9810  -41.5200 C   0  0  0  0  0  0  0  0  0  0  0  0
  -21.3340   52.7280  -42.2670 C   0  0  0  0  0  0  0  0  0  0  0  0
  -21.5990   53.4950  -37.0640 C   0  0  0  0  0  0  0  0  0  0  0  0
  -23.3280   49.7050  -36.6790 C   0  0  0  0  0  0  0  0  0  0  0  0
  -23.1250   49.5070  -39.1010 C   0  0  0  0  0  0  0  0  0  0  0  0
  -22.8530   51.2080  -34.3700 C   0  0  0  0  0  0  0  0  0  0  0  0
  -23.5060   48.9710  -37.8690 C   0  0  0  0  0  0  0  0  0  0  0  0
  -20.1720   52.5190  -35.1190 C   0  0  0  0  0  0  0  0  0  0  0  0
  -23.7360   49.2220  -35.4210 C   0  0  0  0  0  0  0  0  0  0  0  0
  -18.7870   53.0050  -42.7370 C   0  0  0  0  0  0  0  0  0  0  0  0
  -23.5060   49.9680  -34.2450 C   0  0  0  0  0  0  0  0  0  0  0  0
  -21.5621   50.0180  -42.1438 H   0  0  0  0  0  0  0  0  0  0  0  0
  -20.8751   49.4149  -40.5790 H   0  0  0  0  0  0  0  0  0  0  0  0
  -23.3242   52.5586  -41.3751 H   0  0  0  0  0  0  0  0  0  0  0  0
  -22.1167   53.3294  -40.3083 H   0  0  0  0  0  0  0  0  0  0  0  0
  -22.0519   53.6438  -34.9544 H   0  0  0  0  0  0  0  0  0  0  0  0
  -23.6093   48.0474  -31.7270 H   0  0  0  0  0  0  0  0  0  0  0  0
  -19.2275   50.4340  -42.3387 H   0  0  0  0  0  0  0  0  0  0  0  0
  -19.0980   50.9621  -40.6116 H   0  0  0  0  0  0  0  0  0  0  0  0
  -21.3916   53.7768  -42.5938 H   0  0  0  0  0  0  0  0  0  0  0  0
  -21.6616   52.0465  -43.0659 H   0  0  0  0  0  0  0  0  0  0  0  0
  -20.6613   54.0573  -37.1848 H   0  0  0  0  0  0  0  0  0  0  0  0
  -22.4883   54.1359  -37.1557 H   0  0  0  0  0  0  0  0  0  0  0  0
  -22.6631   51.8065  -33.4668 H   0  0  0  0  0  0  0  0  0  0  0  0
  -23.9497   47.9653  -37.8269 H   0  0  0  0  0  0  0  0  0  0  0  0
  -20.1546   52.5147  -34.0191 H   0  0  0  0  0  0  0  0  0  0  0  0
  -19.8912   51.5238  -35.4941 H   0  0  0  0  0  0  0  0  0  0  0  0
  -19.4581   53.2671  -35.4941 H   0  0  0  0  0  0  0  0  0  0  0  0
  -18.0256   53.4160  -42.0578 H   0  0  0  0  0  0  0  0  0  0  0  0
  -18.3325   52.2297  -43.3713 H   0  0  0  0  0  0  0  0  0  0  0  0
  -19.1857   53.8104  -43.3713 H   0  0  0  0  0  0  0  0  0  0  0  0
 26  1  1  0
  1 12  1  0
  1  4  2  0
  2 20  1  0
 25  3  1  0
 17  3  1  0
  3 16  1  0
 16  5  1  0
  5  6  1  0
  8  6  1  0
  6 13  1  0
  7 15  1  0
  7 18  1  0
 17  8  1  0
 14  9  1  0
 11  9  1  0
  9 21  1  0
 24 10  2  0
 18 11  1  0
 11 23  1  0
 13 20  2  0
 13 15  1  0
 15 14  2  0
 14 19  1  0
 22 19  2  0
 19 24  1  0
 20 22  1  0
 21 26  2  0
 24 26  1  0
  5 27  1  0
  5 28  1  0
  8 29  1  0
  8 30  1  0
 11 31  1  0
 12 32  1  0
 16 33  1  0
 16 34  1  0
 17 35  1  0
 17 36  1  0
 18 37  1  0
 18 38  1  0
 21 39  1  0
 22 40  1  0
 23 41  1  0
 23 42  1  0
 23 43  1  0
 25 44  1  0
 25 45  1  0
 25 46  1  0
A    1
C
A    2
F
A    3
N
A    4
O
A    5
C01
A    6
N01
A    7
O01
A    8
C02
A    9
N02
A   10
O02
A   11
C03
A   12
O03
A   13
C04
A   14
C05
A   15
C06
A   16
C07
A   17
C08
A   18
C09
A   19
C10
A   20
C11
A   21
C12
A   22
C13
A   23
C14
A   24
C15
A   25
C16
A   26
C17
M  END
