5BUI_4V9_A_402
     RDKit          3D

 37 40  0  0  0  0  0  0  0  0999 V2000
  -12.8260    2.0930   14.9400 C   0  0  0  0  0  0  0  0  0  0  0  0
  -10.5290    2.2360   14.8700 C   0  0  0  0  0  0  0  0  0  0  0  0
  -10.4590    2.6720   16.1800 C   0  0  0  0  0  0  0  0  0  0  0  0
  -17.7500    0.8370   14.5950 C   0  0  0  0  0  0  0  0  0  0  0  0
  -18.5450    1.4430   15.6920 C   0  0  0  0  0  0  0  0  0  0  0  0
  -17.9360    1.9860   16.8250 C   0  0  0  0  0  0  0  0  0  0  0  0
  -18.6910    2.5560   17.8360 C   0  0  0  0  0  0  0  0  0  0  0  0
  -20.0520    2.5830   17.6910 C   0  0  0  0  0  0  0  0  0  0  0  0
  -20.6930    2.0650   16.6000 C   0  0  0  0  0  0  0  0  0  0  0  0
  -19.9310    1.4830   15.6020 C   0  0  0  0  0  0  0  0  0  0  0  0
  -20.8140    3.1220   18.6990 F   0  0  0  0  0  0  0  0  0  0  0  0
  -16.3660    1.0430   14.2730 C   0  0  0  0  0  0  0  0  0  0  0  0
  -15.3330    1.9060   14.9310 C   0  0  0  0  0  0  0  0  0  0  0  0
  -18.2610   -0.0370   13.7210 N   0  0  0  0  0  0  0  0  0  0  0  0
  -17.2630   -0.3920   12.8540 N   0  0  0  0  0  0  0  0  0  0  0  0
  -16.0900    0.2600   13.1610 C   0  0  0  0  0  0  0  0  0  0  0  0
  -14.7680    0.2080   12.4650 C   0  0  0  0  0  0  0  0  0  0  0  0
  -14.0030    1.4830   12.8200 C   0  0  0  0  0  0  0  0  0  0  0  0
  -14.0000    1.8070   14.2540 N   0  0  0  0  0  0  0  0  0  0  0  0
  -12.8530    2.5450   16.2690 C   0  0  0  0  0  0  0  0  0  0  0  0
  -11.6390    2.8330   16.8770 C   0  0  0  0  0  0  0  0  0  0  0  0
  -11.6820    1.9410   14.2420 N   0  0  0  0  0  0  0  0  0  0  0  0
   -9.5892    2.1239   14.3094 H   0  0  0  0  0  0  0  0  0  0  0  0
   -9.4893    2.8847   16.6537 H   0  0  0  0  0  0  0  0  0  0  0  0
  -16.8400    1.9606   16.9158 H   0  0  0  0  0  0  0  0  0  0  0  0
  -18.2101    2.9759   18.7318 H   0  0  0  0  0  0  0  0  0  0  0  0
  -21.7890    2.1098   16.5174 H   0  0  0  0  0  0  0  0  0  0  0  0
  -20.4299    1.0456   14.7246 H   0  0  0  0  0  0  0  0  0  0  0  0
  -15.2227    1.5904   15.9789 H   0  0  0  0  0  0  0  0  0  0  0  0
  -15.6709    2.9505   14.8617 H   0  0  0  0  0  0  0  0  0  0  0  0
  -19.2316   -0.3813   13.7035 H   0  0  0  0  0  0  0  0  0  0  0  0
  -14.9198    0.1533   11.3769 H   0  0  0  0  0  0  0  0  0  0  0  0
  -14.2019   -0.6806   12.7811 H   0  0  0  0  0  0  0  0  0  0  0  0
  -12.9601    1.3617   12.4920 H   0  0  0  0  0  0  0  0  0  0  0  0
  -14.5175    2.3113   12.3109 H   0  0  0  0  0  0  0  0  0  0  0  0
  -13.8033    2.6666   16.8096 H   0  0  0  0  0  0  0  0  0  0  0  0
  -11.6175    3.1905   17.9171 H   0  0  0  0  0  0  0  0  0  0  0  0
 17 18  1  0
 17 16  1  0
 18 19  1  0
 15 16  2  0
 15 14  1  0
 16 12  1  0
 14  4  1  0
 22  2  2  0
 22  1  1  0
 19 13  1  0
 19  1  1  0
 12  4  2  0
 12 13  1  0
  4  5  1  0
  2  3  1  0
  1 20  2  0
 10  5  1  0
 10  9  2  0
  5  6  2  0
  3 21  2  0
 20 21  1  0
  9  8  1  0
  6  7  1  0
  8  7  2  0
  8 11  1  0
  2 23  1  0
  3 24  1  0
  6 25  1  0
  7 26  1  0
  9 27  1  0
 10 28  1  0
 13 29  1  0
 13 30  1  0
 14 31  1  0
 17 32  1  0
 17 33  1  0
 18 34  1  0
 18 35  1  0
 20 36  1  0
 21 37  1  0
A    1
C1
A    2
C2
A    3
C3
A    4
C11
A    5
C12
A    6
C13
A    7
C14
A    8
C15
A    9
C16
A   10
C17
A   11
F
A   12
C7
A   13
C6
A   14
N4
A   15
N3
A   16
C8
A   17
C9
A   18
C10
A   19
N1
A   20
C5
A   21
C4
A   22
N2
M  END
