5BVK_4VC_A_1007
     RDKit          3D

 30 31  0  0  0  0  0  0  0  0999 V2000
   27.6130   29.5840   35.7710 C   0  0  0  0  0  0  0  0  0  0  0  0
   27.9630   28.6120   34.8510 C   0  0  0  0  0  0  0  0  0  0  0  0
   26.4570   29.5800   33.2630 C   0  0  0  0  0  0  0  0  0  0  0  0
   26.1050   30.5540   34.1820 C   0  0  0  0  0  0  0  0  0  0  0  0
   26.6800   30.5680   35.4490 C   0  0  0  0  0  0  0  0  0  0  0  0
   23.9730   33.6330   38.2620 C   0  0  0  0  0  0  0  0  0  0  0  0
   24.0410   35.1370   38.1540 C   0  0  0  0  0  0  0  0  0  0  0  0
   25.2470   35.7940   37.9640 C   0  0  0  0  0  0  0  0  0  0  0  0
   25.2520   37.1660   37.8720 C   0  0  0  0  0  0  0  0  0  0  0  0
   24.0680   37.8560   37.9690 C   0  0  0  0  0  0  0  0  0  0  0  0
   28.3630   29.5520   37.3360 Cl  0  0  0  0  0  0  0  0  0  0  0  0
   27.3820   28.6130   33.5970 C   0  0  0  0  0  0  0  0  0  0  0  0
   26.3660   31.5350   36.4360 N   0  0  0  0  0  0  0  0  0  0  0  0
   25.1910   32.2260   36.6350 C   0  0  0  0  0  0  0  0  0  0  0  0
   24.2440   32.1790   35.8480 O   0  0  0  0  0  0  0  0  0  0  0  0
   25.1670   32.9610   37.7690 N   0  0  0  0  0  0  0  0  0  0  0  0
   22.8950   37.2420   38.1520 N   0  0  0  0  0  0  0  0  0  0  0  0
   22.8910   35.9060   38.2410 C   0  0  0  0  0  0  0  0  0  0  0  0
   28.7012   27.8410   35.1166 H   0  0  0  0  0  0  0  0  0  0  0  0
   25.9975   29.5774   32.2636 H   0  0  0  0  0  0  0  0  0  0  0  0
   25.3661   31.3216   33.9087 H   0  0  0  0  0  0  0  0  0  0  0  0
   23.1093   33.2807   37.6790 H   0  0  0  0  0  0  0  0  0  0  0  0
   23.8822   33.3890   39.3307 H   0  0  0  0  0  0  0  0  0  0  0  0
   26.1860   35.2261   37.8880 H   0  0  0  0  0  0  0  0  0  0  0  0
   26.1977   37.7074   37.7217 H   0  0  0  0  0  0  0  0  0  0  0  0
   24.0860   38.9532   37.8933 H   0  0  0  0  0  0  0  0  0  0  0  0
   27.6579   27.8409   32.8637 H   0  0  0  0  0  0  0  0  0  0  0  0
   27.1239   31.7521   37.0988 H   0  0  0  0  0  0  0  0  0  0  0  0
   26.0376   33.0503   38.3121 H   0  0  0  0  0  0  0  0  0  0  0  0
   21.9289   35.3941   38.3903 H   0  0  0  0  0  0  0  0  0  0  0  0
  3 12  2  0
  3  4  1  0
 12  2  1  0
  4  5  2  0
  2  1  2  0
  5  1  1  0
  5 13  1  0
  1 11  1  0
 15 14  2  0
 13 14  1  0
 14 16  1  0
 16  6  1  0
  9  8  2  0
  9 10  1  0
  8  7  1  0
 10 17  2  0
 17 18  1  0
  7 18  2  0
  7  6  1  0
  2 19  1  0
  3 20  1  0
  4 21  1  0
  6 22  1  0
  6 23  1  0
  8 24  1  0
  9 25  1  0
 10 26  1  0
 12 27  1  0
 13 28  1  0
 16 29  1  0
 18 30  1  0
A    1
C2
A    2
C3
A    3
C5
A    4
C6
A    5
C7
A    6
C12
A    7
C13
A    8
C14
A    9
C15
A   10
C16
A   11
CL1
A   12
C4
A   13
N8
A   14
C9
A   15
O10
A   16
N11
A   17
N17
A   18
C18
M  END
