1A2K_GDP_C_220
     RDKit          3D

 43 45  0  0  0  0  0  0  0  0999 V2000
   53.3840   -6.0660   83.1750 P   0  0  0  0  0  0  0  0  0  0  0  0
   53.6250   -4.5730   83.2550 O   0  0  0  0  0  0  0  0  0  0  0  0
   51.9100   -6.1950   83.1850 O   0  0  0  0  0  0  0  0  0  0  0  0
   53.9720   -6.6220   81.9940 O   0  0  0  0  0  0  0  0  0  0  0  0
   54.1170   -6.4620   84.5780 O   0  0  0  0  0  0  0  0  0  0  0  0
   55.3950   -7.2430   85.0080 P   0  0  0  0  0  0  0  0  0  0  0  0
   56.6670   -6.5230   84.7700 O   0  0  0  0  0  0  0  0  0  0  0  0
   55.1090   -7.3910   86.4820 O   0  0  0  0  0  0  0  0  0  0  0  0
   55.2230   -8.5740   84.2300 O   0  0  0  0  0  0  0  0  0  0  0  0
   54.4670   -9.6340   84.7750 C   0  0  0  0  0  0  0  0  0  0  0  0
   55.0630  -10.9490   85.1560 C   0  0  0  0  0  0  0  0  0  0  0  0
   55.9150  -11.4830   84.1220 O   0  0  0  0  0  0  0  0  0  0  0  0
   55.8350  -11.0450   86.4610 C   0  0  0  0  0  0  0  0  0  0  0  0
   55.4990  -12.1840   87.2500 O   0  0  0  0  0  0  0  0  0  0  0  0
   57.2850  -11.0960   86.0080 C   0  0  0  0  0  0  0  0  0  0  0  0
   58.0870  -11.6440   87.0340 O   0  0  0  0  0  0  0  0  0  0  0  0
   57.1680  -11.8950   84.6650 C   0  0  0  0  0  0  0  0  0  0  0  0
   58.3320  -11.5660   83.8100 N   0  0  0  0  0  0  0  0  0  0  0  0
   58.6270  -10.3210   83.2850 C   0  0  0  0  0  0  0  0  0  0  0  0
   59.7410  -10.2530   82.5980 N   0  0  0  0  0  0  0  0  0  0  0  0
   60.2410  -11.5530   82.7130 C   0  0  0  0  0  0  0  0  0  0  0  0
   61.4280  -12.0700   82.1400 C   0  0  0  0  0  0  0  0  0  0  0  0
   62.2390  -11.5060   81.4120 O   0  0  0  0  0  0  0  0  0  0  0  0
   61.5530  -13.4170   82.4500 N   0  0  0  0  0  0  0  0  0  0  0  0
   60.6400  -14.1560   83.1940 C   0  0  0  0  0  0  0  0  0  0  0  0
   61.0210  -15.4210   83.3590 N   0  0  0  0  0  0  0  0  0  0  0  0
   59.5130  -13.6800   83.6820 N   0  0  0  0  0  0  0  0  0  0  0  0
   59.3790  -12.3570   83.4240 C   0  0  0  0  0  0  0  0  0  0  0  0
   51.5876   -6.2232   84.1206 H   0  0  0  0  0  0  0  0  0  0  0  0
   54.6670   -7.2792   82.2494 H   0  0  0  0  0  0  0  0  0  0  0  0
   55.8563   -7.0043   87.0036 H   0  0  0  0  0  0  0  0  0  0  0  0
   54.0030   -9.2358   85.6894 H   0  0  0  0  0  0  0  0  0  0  0  0
   53.8391   -9.9184   83.9178 H   0  0  0  0  0  0  0  0  0  0  0  0
   54.1446  -11.5360   85.3045 H   0  0  0  0  0  0  0  0  0  0  0  0
   55.6038  -10.1989   87.1249 H   0  0  0  0  0  0  0  0  0  0  0  0
   55.5674  -11.9522   88.2100 H   0  0  0  0  0  0  0  0  0  0  0  0
   57.7953  -10.1393   85.8229 H   0  0  0  0  0  0  0  0  0  0  0  0
   57.7147  -11.3896   87.9153 H   0  0  0  0  0  0  0  0  0  0  0  0
   57.1873  -12.9895   84.7732 H   0  0  0  0  0  0  0  0  0  0  0  0
   57.9727   -9.4493   83.4336 H   0  0  0  0  0  0  0  0  0  0  0  0
   62.3884  -13.9082   82.1012 H   0  0  0  0  0  0  0  0  0  0  0  0
   61.1365  -15.8045   84.3080 H   0  0  0  0  0  0  0  0  0  0  0  0
   61.2003  -16.0162   82.5377 H   0  0  0  0  0  0  0  0  0  0  0  0
  1  2  2  0
  1  3  1  0
  1  4  1  0
  1  5  1  0
  5  6  1  0
  6  7  2  0
  6  8  1  0
  6  9  1  0
  9 10  1  0
 10 11  1  0
 11 12  1  0
 11 13  1  0
 12 17  1  0
 13 14  1  0
 13 15  1  0
 15 16  1  0
 15 17  1  0
 17 18  1  0
 18 19  1  0
 18 28  1  0
 19 20  2  0
 20 21  1  0
 21 22  1  0
 21 28  2  0
 22 23  2  0
 22 24  1  0
 24 25  1  0
 25 26  1  0
 25 27  2  0
 27 28  1  0
  3 29  1  0
  4 30  1  0
  8 31  1  0
 10 32  1  0
 10 33  1  0
 11 34  1  0
 13 35  1  0
 14 36  1  0
 15 37  1  0
 16 38  1  0
 17 39  1  0
 19 40  1  0
 24 41  1  0
 26 42  1  0
 26 43  1  0
A    1
PB
A    2
O1B
A    3
O2B
A    4
O3B
A    5
O3A
A    6
PA
A    7
O1A
A    8
O2A
A    9
O5'
A   10
C5'
A   11
C4'
A   12
O4'
A   13
C3'
A   14
O3'
A   15
C2'
A   16
O2'
A   17
C1'
A   18
N9
A   19
C8
A   20
N7
A   21
C5
A   22
C6
A   23
O6
A   24
N1
A   25
C2
A   26
N2
A   27
N3
A   28
C4
M  END
