5BX0_4W5_A_4000
     RDKit          3D

 24 25  0  0  0  0  0  0  0  0999 V2000
   18.2100  -28.6860   -2.7630 C   0  0  0  0  0  0  0  0  0  0  0  0
   20.5260  -29.8950   -2.6840 C   0  0  0  0  0  0  0  0  0  0  0  0
   20.4000  -27.6720   -2.8910 C   0  0  0  0  0  0  0  0  0  0  0  0
   19.6010  -28.8230   -2.7730 C   0  0  0  0  0  0  0  0  0  0  0  0
   16.1600  -27.2520   -2.7770 C   0  0  0  0  0  0  0  0  0  0  0  0
   14.0690  -28.4250   -3.0120 C   0  0  0  0  0  0  0  0  0  0  0  0
   13.8070  -28.5290   -4.4850 C   0  0  0  0  0  0  0  0  0  0  0  0
   19.8450  -26.4020   -3.0260 C   0  0  0  0  0  0  0  0  0  0  0  0
   18.4620  -26.2870   -3.0140 C   0  0  0  0  0  0  0  0  0  0  0  0
   17.6390  -27.4150   -2.8670 C   0  0  0  0  0  0  0  0  0  0  0  0
   21.7700  -29.4540   -2.7250 N   0  0  0  0  0  0  0  0  0  0  0  0
   21.6860  -28.0930   -2.8490 N   0  0  0  0  0  0  0  0  0  0  0  0
   15.5200  -28.4340   -2.8160 O   0  0  0  0  0  0  0  0  0  0  0  0
   15.5970  -26.1750   -2.6960 O   0  0  0  0  0  0  0  0  0  0  0  0
   17.5679  -29.5746   -2.6737 H   0  0  0  0  0  0  0  0  0  0  0  0
   20.2440  -30.9543   -2.5928 H   0  0  0  0  0  0  0  0  0  0  0  0
   13.6440  -27.4887   -2.6211 H   0  0  0  0  0  0  0  0  0  0  0  0
   13.6029  -29.2659   -2.4776 H   0  0  0  0  0  0  0  0  0  0  0  0
   12.7962  -28.9302   -4.6502 H   0  0  0  0  0  0  0  0  0  0  0  0
   13.8850  -27.5317   -4.9426 H   0  0  0  0  0  0  0  0  0  0  0  0
   14.5477  -29.2013   -4.9426 H   0  0  0  0  0  0  0  0  0  0  0  0
   20.4850  -25.5145   -3.1390 H   0  0  0  0  0  0  0  0  0  0  0  0
   18.0020  -25.2936   -3.1217 H   0  0  0  0  0  0  0  0  0  0  0  0
   22.6295  -30.0193   -2.6740 H   0  0  0  0  0  0  0  0  0  0  0  0
  7  6  1  0
  8  9  2  0
  8  3  1  0
  9 10  1  0
  6 13  1  0
  3 12  2  0
  3  4  1  0
 10  5  1  0
 10  1  2  0
 12 11  1  0
 13  5  1  0
  5 14  2  0
  4  1  1  0
  4  2  2  0
 11  2  1  0
  1 15  1  0
  2 16  1  0
  6 17  1  0
  6 18  1  0
  7 19  1  0
  7 20  1  0
  7 21  1  0
  8 22  1  0
  9 23  1  0
 11 24  1  0
A    1
C4
A    2
C5
A    3
C8
A    4
C9
A    5
C10
A    6
C13
A    7
C14
A    8
C1
A    9
C2
A   10
C3
A   11
N6
A   12
N7
A   13
O11
A   14
O12
M  END
