1BGU_UDP_A_353
     RDKit          3D

 39 40  0  0  0  0  0  0  0  0999 V2000
   53.5890    3.8670   16.7080 N   0  0  0  0  0  0  0  0  0  0  0  0
   52.3090    4.2200   17.0540 C   0  0  0  0  0  0  0  0  0  0  0  0
   51.8150    3.7850   18.2510 N   0  0  0  0  0  0  0  0  0  0  0  0
   52.5310    3.0100   19.1190 C   0  0  0  0  0  0  0  0  0  0  0  0
   53.9800    2.7010   18.9070 C   0  0  0  0  0  0  0  0  0  0  0  0
   54.4420    3.0790   17.6910 C   0  0  0  0  0  0  0  0  0  0  0  0
   51.6150    4.9280   16.3290 O   0  0  0  0  0  0  0  0  0  0  0  0
   51.9880    2.5000   20.0960 O   0  0  0  0  0  0  0  0  0  0  0  0
   54.1160    4.2140   15.3700 C   0  0  0  0  0  0  0  0  0  0  0  0
   54.9390    5.4210   15.5210 C   0  0  0  0  0  0  0  0  0  0  0  0
   54.6770    6.3860   14.5020 O   0  0  0  0  0  0  0  0  0  0  0  0
   56.3470    4.8890   15.5780 C   0  0  0  0  0  0  0  0  0  0  0  0
   56.2780    3.7870   14.6630 C   0  0  0  0  0  0  0  0  0  0  0  0
   55.0370    3.1750   15.0220 O   0  0  0  0  0  0  0  0  0  0  0  0
   57.3190    5.8360   15.1580 O   0  0  0  0  0  0  0  0  0  0  0  0
   57.4020    2.8570   14.8920 C   0  0  0  0  0  0  0  0  0  0  0  0
   57.2290    1.6930   14.0240 O   0  0  0  0  0  0  0  0  0  0  0  0
   58.2750    0.4800   14.1250 P   0  0  0  0  0  0  0  0  0  0  0  0
   58.0860   -0.1810   15.3780 O   0  0  0  0  0  0  0  0  0  0  0  0
   57.8890   -0.4420   13.0540 O   0  0  0  0  0  0  0  0  0  0  0  0
   59.7750    0.9510   13.9520 O   0  0  0  0  0  0  0  0  0  0  0  0
   60.6870    1.9280   13.0930 P   0  0  0  0  0  0  0  0  0  0  0  0
   59.9420    2.9790   12.6010 O   0  0  0  0  0  0  0  0  0  0  0  0
   61.1880    1.1230   11.9640 O   0  0  0  0  0  0  0  0  0  0  0  0
   61.6930    2.5860   13.9760 O   0  0  0  0  0  0  0  0  0  0  0  0
   50.8557    4.0545   18.5120 H   0  0  0  0  0  0  0  0  0  0  0  0
   54.6096    2.2136   19.6660 H   0  0  0  0  0  0  0  0  0  0  0  0
   55.4686    2.8070   17.4046 H   0  0  0  0  0  0  0  0  0  0  0  0
   53.3050    4.3466   14.6388 H   0  0  0  0  0  0  0  0  0  0  0  0
   54.7167    6.0023   16.4280 H   0  0  0  0  0  0  0  0  0  0  0  0
   54.4419    7.2520   14.9202 H   0  0  0  0  0  0  0  0  0  0  0  0
   56.6608    4.6249   16.5987 H   0  0  0  0  0  0  0  0  0  0  0  0
   56.3377    4.0804   13.6045 H   0  0  0  0  0  0  0  0  0  0  0  0
   57.7425    6.2486   15.9521 H   0  0  0  0  0  0  0  0  0  0  0  0
   58.3519    3.3583   14.6546 H   0  0  0  0  0  0  0  0  0  0  0  0
   57.4193    2.5408   15.9454 H   0  0  0  0  0  0  0  0  0  0  0  0
   57.5385   -1.2791   13.4496 H   0  0  0  0  0  0  0  0  0  0  0  0
   61.6778    0.3360   12.3116 H   0  0  0  0  0  0  0  0  0  0  0  0
   61.4531    2.4291   14.9236 H   0  0  0  0  0  0  0  0  0  0  0  0
  1  2  1  0
  1  6  1  0
  1  9  1  0
  2  3  1  0
  2  7  2  0
  3  4  1  0
  4  5  1  0
  4  8  2  0
  5  6  2  0
  9 10  1  0
  9 14  1  0
 10 11  1  0
 10 12  1  0
 12 13  1  0
 12 15  1  0
 13 14  1  0
 13 16  1  0
 16 17  1  0
 17 18  1  0
 18 19  2  0
 18 20  1  0
 18 21  1  0
 21 22  1  0
 22 23  2  0
 22 24  1  0
 22 25  1  0
  3 26  1  0
  5 27  1  0
  6 28  1  0
  9 29  1  0
 10 30  1  0
 11 31  1  0
 12 32  1  0
 13 33  1  0
 15 34  1  0
 16 35  1  0
 16 36  1  0
 20 37  1  0
 24 38  1  0
 25 39  1  0
A    1
N1
A    2
C2
A    3
N3
A    4
C4
A    5
C5
A    6
C6
A    7
O2
A    8
O4
A    9
C1'
A   10
C2'
A   11
O2'
A   12
C3'
A   13
C4'
A   14
O4'
A   15
O3'
A   16
C5'
A   17
O5'
A   18
PA
A   19
O1A
A   20
O2A
A   21
O3A
A   22
PB
A   23
O1B
A   24
O2B
A   25
O3B
M  END
