5BZC_4WT_A_201
     RDKit          3D

 27 28  0  0  0  0  0  0  0  0999 V2000
   10.5200   -6.4900    1.1810 C   0  0  0  0  0  0  0  0  0  0  0  0
   11.4910   -5.6060    1.8440 N   0  0  0  0  0  0  0  0  0  0  0  0
   12.3830   -4.9690    0.8380 C   0  0  0  0  0  0  0  0  0  0  0  0
   11.6810   -4.4320   -0.2920 C   0  0  0  0  0  0  0  0  0  0  0  0
   12.3330   -3.4860   -1.1080 C   0  0  0  0  0  0  0  0  0  0  0  0
   11.7010   -2.9390   -2.2290 C   0  0  0  0  0  0  0  0  0  0  0  0
   10.3820   -3.3150   -2.5430 C   0  0  0  0  0  0  0  0  0  0  0  0
    9.7290   -4.2430   -1.7340 C   0  0  0  0  0  0  0  0  0  0  0  0
   10.3580   -4.8230   -0.6140 C   0  0  0  0  0  0  0  0  0  0  0  0
    9.6320   -5.7600    0.1680 C   0  0  0  0  0  0  0  0  0  0  0  0
    8.9530   -6.8030   -0.7730 C   0  0  0  0  0  0  0  0  0  0  0  0
    8.5460   -5.0100    0.9590 C   0  0  0  0  0  0  0  0  0  0  0  0
    9.8754   -6.9404    1.9502 H   0  0  0  0  0  0  0  0  0  0  0  0
   11.0933   -7.2476    0.6266 H   0  0  0  0  0  0  0  0  0  0  0  0
   12.0602   -6.1589    2.5007 H   0  0  0  0  0  0  0  0  0  0  0  0
   13.0965   -5.7246    0.4775 H   0  0  0  0  0  0  0  0  0  0  0  0
   12.8837   -4.1265    1.3375 H   0  0  0  0  0  0  0  0  0  0  0  0
   13.3574   -3.1723   -0.8586 H   0  0  0  0  0  0  0  0  0  0  0  0
   12.2340   -2.2161   -2.8641 H   0  0  0  0  0  0  0  0  0  0  0  0
    9.8725   -2.8818   -3.4163 H   0  0  0  0  0  0  0  0  0  0  0  0
    8.6952   -4.5305   -1.9760 H   0  0  0  0  0  0  0  0  0  0  0  0
    8.4522   -7.5723   -0.1669 H   0  0  0  0  0  0  0  0  0  0  0  0
    8.2114   -6.2960   -1.4078 H   0  0  0  0  0  0  0  0  0  0  0  0
    9.7168   -7.2760   -1.4078 H   0  0  0  0  0  0  0  0  0  0  0  0
    8.7259   -5.1342    2.0371 H   0  0  0  0  0  0  0  0  0  0  0  0
    8.5782   -3.9408    0.7027 H   0  0  0  0  0  0  0  0  0  0  0  0
    7.5575   -5.4188    0.7027 H   0  0  0  0  0  0  0  0  0  0  0  0
  7  6  2  0
  7  8  1  0
  6  5  1  0
  8  9  2  0
  5  4  2  0
 11 10  1  0
  9  4  1  0
  9 10  1  0
  4  3  1  0
 10 12  1  0
 10  1  1  0
  3  2  1  0
  1  2  1  0
  1 13  1  0
  1 14  1  0
  2 15  1  0
  3 16  1  0
  3 17  1  0
  5 18  1  0
  6 19  1  0
  7 20  1  0
  8 21  1  0
 11 22  1  0
 11 23  1  0
 11 24  1  0
 12 25  1  0
 12 26  1  0
 12 27  1  0
A    1
CAH
A    2
NAI
A    3
CAG
A    4
CAJ
A    5
CAE
A    6
CAC
A    7
CAD
A    8
CAF
A    9
CAK
A   10
CAL
A   11
CAB
A   12
CAA
M  END
