5BZG_4X6_A_202
     RDKit          3D

 26 27  0  0  0  0  0  0  0  0999 V2000
   10.4530   -6.7590    0.8960 C   0  0  0  0  0  0  0  0  0  0  0  0
    9.5620   -6.0500   -0.1400 C   0  0  0  0  0  0  0  0  0  0  0  0
   10.2440   -5.0330   -0.8450 C   0  0  0  0  0  0  0  0  0  0  0  0
    9.5780   -4.3680   -1.8850 C   0  0  0  0  0  0  0  0  0  0  0  0
    8.3250   -4.7570   -2.1380 N   0  0  0  0  0  0  0  0  0  0  0  0
   10.1890   -3.3530   -2.6250 C   0  0  0  0  0  0  0  0  0  0  0  0
   11.4990   -2.9860   -2.3150 C   0  0  0  0  0  0  0  0  0  0  0  0
   12.1880   -3.6290   -1.2810 C   0  0  0  0  0  0  0  0  0  0  0  0
   11.5710   -4.6540   -0.5400 C   0  0  0  0  0  0  0  0  0  0  0  0
   12.2930   -5.2760    0.5010 C   0  0  0  0  0  0  0  0  0  0  0  0
   11.3690   -5.8040    1.5250 N   0  0  0  0  0  0  0  0  0  0  0  0
   12.1060   -6.4430    2.6130 C   0  0  0  0  0  0  0  0  0  0  0  0
    9.8169   -7.2137    1.6697 H   0  0  0  0  0  0  0  0  0  0  0  0
   11.0432   -7.5346    0.3860 H   0  0  0  0  0  0  0  0  0  0  0  0
    8.7046   -5.6008    0.3827 H   0  0  0  0  0  0  0  0  0  0  0  0
    9.2431   -6.8047   -0.8740 H   0  0  0  0  0  0  0  0  0  0  0  0
    7.6807   -4.9570   -1.3596 H   0  0  0  0  0  0  0  0  0  0  0  0
    8.0034   -4.8569   -3.1114 H   0  0  0  0  0  0  0  0  0  0  0  0
    9.6460   -2.8509   -3.4393 H   0  0  0  0  0  0  0  0  0  0  0  0
   11.9928   -2.1866   -2.8869 H   0  0  0  0  0  0  0  0  0  0  0  0
   13.2203   -3.3310   -1.0453 H   0  0  0  0  0  0  0  0  0  0  0  0
   12.8858   -6.1045    0.0861 H   0  0  0  0  0  0  0  0  0  0  0  0
   12.9563   -4.5332    0.9682 H   0  0  0  0  0  0  0  0  0  0  0  0
   11.7075   -6.0975    3.5783 H   0  0  0  0  0  0  0  0  0  0  0  0
   11.9943   -7.5349    2.5399 H   0  0  0  0  0  0  0  0  0  0  0  0
   13.1710   -6.1777    2.5399 H   0  0  0  0  0  0  0  0  0  0  0  0
  6  7  2  0
  6  4  1  0
  7  8  1  0
  5  4  1  0
  4  3  2  0
  8  9  2  0
  3  9  1  0
  3  2  1  0
  9 10  1  0
  2  1  1  0
 10 11  1  0
  1 11  1  0
 11 12  1  0
  1 13  1  0
  1 14  1  0
  2 15  1  0
  2 16  1  0
  5 17  1  0
  5 18  1  0
  6 19  1  0
  7 20  1  0
  8 21  1  0
 10 22  1  0
 10 23  1  0
 12 24  1  0
 12 25  1  0
 12 26  1  0
A    1
CAG
A    2
CAF
A    3
CAK
A    4
CAI
A    5
NAB
A    6
CAD
A    7
CAC
A    8
CAE
A    9
CAJ
A   10
CAH
A   11
NAL
A   12
CAA
M  END
