5BZI_4WU_A_201
     RDKit          3D

 23 24  0  0  0  0  0  0  0  0999 V2000
   12.9640   -4.7880    0.4180 C   0  0  0  0  0  0  0  0  0  0  0  0
   12.3840   -5.9340    1.2550 C   0  0  0  0  0  0  0  0  0  0  0  0
   10.9370   -5.7930    1.4890 N   0  0  0  0  0  0  0  0  0  0  0  0
   10.1820   -5.6820    0.2160 C   0  0  0  0  0  0  0  0  0  0  0  0
   10.7350   -4.7340   -0.6880 C   0  0  0  0  0  0  0  0  0  0  0  0
   12.0750   -4.3200   -0.5810 C   0  0  0  0  0  0  0  0  0  0  0  0
   12.5750   -3.3910   -1.5020 C   0  0  0  0  0  0  0  0  0  0  0  0
   11.7610   -2.8740   -2.5130 C   0  0  0  0  0  0  0  0  0  0  0  0
   10.4210   -3.2560   -2.6550 C   0  0  0  0  0  0  0  0  0  0  0  0
    9.9420   -4.2030   -1.7320 C   0  0  0  0  0  0  0  0  0  0  0  0
    8.6700   -4.6150   -1.7780 N   0  0  0  0  0  0  0  0  0  0  0  0
   13.8834   -5.1428   -0.0708 H   0  0  0  0  0  0  0  0  0  0  0  0
   13.1569   -3.9488    1.1026 H   0  0  0  0  0  0  0  0  0  0  0  0
   12.5640   -6.8816    0.7263 H   0  0  0  0  0  0  0  0  0  0  0  0
   12.8820   -5.9134    2.2356 H   0  0  0  0  0  0  0  0  0  0  0  0
   10.7709   -4.9455    2.0503 H   0  0  0  0  0  0  0  0  0  0  0  0
    9.1496   -5.3814    0.4480 H   0  0  0  0  0  0  0  0  0  0  0  0
   10.2285   -6.6649   -0.2757 H   0  0  0  0  0  0  0  0  0  0  0  0
   13.6227   -3.0640   -1.4284 H   0  0  0  0  0  0  0  0  0  0  0  0
   12.1854   -2.1448   -3.2189 H   0  0  0  0  0  0  0  0  0  0  0  0
    9.7789   -2.8385   -3.4446 H   0  0  0  0  0  0  0  0  0  0  0  0
    8.1512   -4.7830   -0.9042 H   0  0  0  0  0  0  0  0  0  0  0  0
    8.2095   -4.7641   -2.6872 H   0  0  0  0  0  0  0  0  0  0  0  0
  9  8  2  0
  9 10  1  0
  8  7  1  0
 11 10  1  0
 10  5  2  0
  7  6  2  0
  5  6  1  0
  5  4  1  0
  6  1  1  0
  4  3  1  0
  1  2  1  0
  2  3  1  0
  1 12  1  0
  1 13  1  0
  2 14  1  0
  2 15  1  0
  3 16  1  0
  4 17  1  0
  4 18  1  0
  7 19  1  0
  8 20  1  0
  9 21  1  0
 11 22  1  0
 11 23  1  0
A    1
CAF
A    2
CAE
A    3
NAH
A    4
CAG
A    5
CAK
A    6
CAJ
A    7
CAD
A    8
CAB
A    9
CAC
A   10
CAI
A   11
NAA
M  END
