5BZK_4WP_A_202
     RDKit          3D

 33 34  0  0  0  0  0  0  0  0999 V2000
   11.3840   -6.6390    0.6470 C   0  0  0  0  0  0  0  0  0  0  0  0
   12.1310   -5.4000    0.1910 C   0  0  0  0  0  0  0  0  0  0  0  0
   11.4700   -4.7180   -0.8530 C   0  0  0  0  0  0  0  0  0  0  0  0
   12.1780   -3.6940   -1.4960 C   0  0  0  0  0  0  0  0  0  0  0  0
   11.5740   -2.9700   -2.5290 C   0  0  0  0  0  0  0  0  0  0  0  0
   10.2640   -3.2330   -2.9330 C   0  0  0  0  0  0  0  0  0  0  0  0
    9.5650   -4.2640   -2.2920 C   0  0  0  0  0  0  0  0  0  0  0  0
   10.1450   -5.0040   -1.2510 C   0  0  0  0  0  0  0  0  0  0  0  0
    9.3930   -6.0350   -0.6350 C   0  0  0  0  0  0  0  0  0  0  0  0
    9.9370   -6.4150    0.6910 N   0  0  0  0  0  0  0  0  0  0  0  0
    9.3830   -7.7210    1.0790 C   0  0  0  0  0  0  0  0  0  0  0  0
    8.6070   -7.6090    2.3930 C   0  0  0  0  0  0  0  0  0  0  0  0
    7.2230   -8.2470    2.2000 C   0  0  0  0  0  0  0  0  0  0  0  0
    6.9850   -9.3450    2.7280 O   0  0  0  0  0  0  0  0  0  0  0  0
    6.3370   -7.5040    1.4160 O   0  0  0  0  0  0  0  0  0  0  0  0
    5.9320   -8.1890    0.2080 C   0  0  0  0  0  0  0  0  0  0  0  0
   11.5962   -7.4607   -0.0528 H   0  0  0  0  0  0  0  0  0  0  0  0
   11.7229   -6.8886    1.6633 H   0  0  0  0  0  0  0  0  0  0  0  0
   13.1287   -5.7006   -0.1615 H   0  0  0  0  0  0  0  0  0  0  0  0
   12.1918   -4.7144    1.0491 H   0  0  0  0  0  0  0  0  0  0  0  0
   13.2079   -3.4598   -1.1886 H   0  0  0  0  0  0  0  0  0  0  0  0
   12.1437   -2.1760   -3.0341 H   0  0  0  0  0  0  0  0  0  0  0  0
    9.7924   -2.6455   -3.7345 H   0  0  0  0  0  0  0  0  0  0  0  0
    8.5390   -4.4984   -2.6120 H   0  0  0  0  0  0  0  0  0  0  0  0
    8.3572   -5.6881   -0.5059 H   0  0  0  0  0  0  0  0  0  0  0  0
    9.4427   -6.9211   -1.2849 H   0  0  0  0  0  0  0  0  0  0  0  0
    8.7054   -8.0754    0.2883 H   0  0  0  0  0  0  0  0  0  0  0  0
   10.2121   -8.4307    1.2166 H   0  0  0  0  0  0  0  0  0  0  0  0
    9.1505   -8.1367    3.1906 H   0  0  0  0  0  0  0  0  0  0  0  0
    8.4975   -6.5517    2.6761 H   0  0  0  0  0  0  0  0  0  0  0  0
    5.3886   -9.1081    0.4723 H   0  0  0  0  0  0  0  0  0  0  0  0
    5.2766   -7.5328   -0.3835 H   0  0  0  0  0  0  0  0  0  0  0  0
    6.8229   -8.4470   -0.3835 H   0  0  0  0  0  0  0  0  0  0  0  0
  6  5  2  0
  6  7  1  0
  5  4  1  0
  7  8  2  0
  4  3  2  0
  8  3  1  0
  8  9  1  0
  3  2  1  0
  9 10  1  0
  2  1  1  0
 16 15  1  0
  1 10  1  0
 10 11  1  0
 11 12  1  0
 15 13  1  0
 13 12  1  0
 13 14  2  0
  1 17  1  0
  1 18  1  0
  2 19  1  0
  2 20  1  0
  4 21  1  0
  5 22  1  0
  6 23  1  0
  7 24  1  0
  9 25  1  0
  9 26  1  0
 11 27  1  0
 11 28  1  0
 12 29  1  0
 12 30  1  0
 16 31  1  0
 16 32  1  0
 16 33  1  0
A    1
CAJ
A    2
CAH
A    3
CAN
A    4
CAE
A    5
CAC
A    6
CAD
A    7
CAF
A    8
CAO
A    9
CAK
A   10
NAP
A   11
CAI
A   12
CAG
A   13
CAM
A   14
OAB
A   15
OAL
A   16
CAA
M  END
