5BZL_4WO_A_203
     RDKit          3D

 35 36  0  0  0  0  0  0  0  0999 V2000
   12.5300   -6.0650    0.9300 C   0  0  0  0  0  0  0  0  0  0  0  0
   13.0250   -4.7940    0.3200 C   0  0  0  0  0  0  0  0  0  0  0  0
   12.1450   -4.3150   -0.6860 C   0  0  0  0  0  0  0  0  0  0  0  0
   12.6840   -3.4060   -1.5840 C   0  0  0  0  0  0  0  0  0  0  0  0
   11.9080   -2.8710   -2.5980 C   0  0  0  0  0  0  0  0  0  0  0  0
   10.5620   -3.2340   -2.7290 C   0  0  0  0  0  0  0  0  0  0  0  0
   10.0050   -4.1680   -1.8370 C   0  0  0  0  0  0  0  0  0  0  0  0
    8.7040   -4.5350   -1.9660 N   0  0  0  0  0  0  0  0  0  0  0  0
   10.7940   -4.7100   -0.7970 C   0  0  0  0  0  0  0  0  0  0  0  0
   10.2480   -5.6430    0.1180 C   0  0  0  0  0  0  0  0  0  0  0  0
   11.1140   -5.9290    1.3040 N   0  0  0  0  0  0  0  0  0  0  0  0
   10.7570   -7.1410    2.0530 C   0  0  0  0  0  0  0  0  0  0  0  0
    9.4550   -6.9580    2.8220 C   0  0  0  0  0  0  0  0  0  0  0  0
    8.3350   -7.3940    1.8900 C   0  0  0  0  0  0  0  0  0  0  0  0
    8.5640   -8.0640    0.8800 O   0  0  0  0  0  0  0  0  0  0  0  0
    7.0980   -6.9760    2.2480 O   0  0  0  0  0  0  0  0  0  0  0  0
    6.1940   -7.3530    1.2000 C   0  0  0  0  0  0  0  0  0  0  0  0
   12.6371   -6.8833    0.2027 H   0  0  0  0  0  0  0  0  0  0  0  0
   13.1206   -6.2853    1.8315 H   0  0  0  0  0  0  0  0  0  0  0  0
   14.0132   -4.9751   -0.1280 H   0  0  0  0  0  0  0  0  0  0  0  0
   13.0841   -4.0341    1.1131 H   0  0  0  0  0  0  0  0  0  0  0  0
   13.7384   -3.1072   -1.4897 H   0  0  0  0  0  0  0  0  0  0  0  0
   12.3520   -2.1556   -3.3059 H   0  0  0  0  0  0  0  0  0  0  0  0
    9.9442   -2.7916   -3.5244 H   0  0  0  0  0  0  0  0  0  0  0  0
    8.1290   -4.6972   -1.1270 H   0  0  0  0  0  0  0  0  0  0  0  0
    8.2921   -4.6512   -2.9029 H   0  0  0  0  0  0  0  0  0  0  0  0
    9.2882   -5.2467    0.4811 H   0  0  0  0  0  0  0  0  0  0  0  0
   10.1427   -6.5919   -0.4284 H   0  0  0  0  0  0  0  0  0  0  0  0
   10.6408   -7.9764    1.3469 H   0  0  0  0  0  0  0  0  0  0  0  0
   11.5592   -7.3488    2.7764 H   0  0  0  0  0  0  0  0  0  0  0  0
    9.3255   -5.9025    3.1033 H   0  0  0  0  0  0  0  0  0  0  0  0
    9.4543   -7.5518    3.7480 H   0  0  0  0  0  0  0  0  0  0  0  0
    5.2636   -7.7410    1.6403 H   0  0  0  0  0  0  0  0  0  0  0  0
    5.9669   -6.4746    0.5780 H   0  0  0  0  0  0  0  0  0  0  0  0
    6.6583   -8.1325    0.5780 H   0  0  0  0  0  0  0  0  0  0  0  0
  6  5  2  0
  6  7  1  0
  5  4  1  0
  8  7  1  0
  7  9  2  0
  4  3  2  0
  9  3  1  0
  9 10  1  0
  3  2  1  0
 10 11  1  0
  2  1  1  0
 15 14  2  0
  1 11  1  0
 17 16  1  0
 11 12  1  0
 14 16  1  0
 14 13  1  0
 12 13  1  0
  1 18  1  0
  1 19  1  0
  2 20  1  0
  2 21  1  0
  4 22  1  0
  5 23  1  0
  6 24  1  0
  8 25  1  0
  8 26  1  0
 10 27  1  0
 10 28  1  0
 12 29  1  0
 12 30  1  0
 13 31  1  0
 13 32  1  0
 17 33  1  0
 17 34  1  0
 17 35  1  0
A    1
CAJ
A    2
CAH
A    3
CAO
A    4
CAF
A    5
CAD
A    6
CAE
A    7
CAN
A    8
NAB
A    9
CAP
A   10
CAK
A   11
NAQ
A   12
CAI
A   13
CAG
A   14
CAM
A   15
OAC
A   16
OAL
A   17
CAA
M  END
