5BZM_4X8_A_201
     RDKit          3D

 40 42  0  0  0  0  0  0  0  0999 V2000
   12.2590   -5.9640    1.0570 C   0  0  0  0  0  0  0  0  0  0  0  0
   12.8450   -4.7810    0.2830 C   0  0  0  0  0  0  0  0  0  0  0  0
   11.9860   -4.3120   -0.7330 C   0  0  0  0  0  0  0  0  0  0  0  0
   12.5130   -3.4520   -1.7060 C   0  0  0  0  0  0  0  0  0  0  0  0
   11.7140   -2.9450   -2.7370 C   0  0  0  0  0  0  0  0  0  0  0  0
   10.3530   -3.2630   -2.8340 C   0  0  0  0  0  0  0  0  0  0  0  0
    9.8460   -4.1490   -1.8510 C   0  0  0  0  0  0  0  0  0  0  0  0
    8.5490   -4.5000   -1.8750 N   0  0  0  0  0  0  0  0  0  0  0  0
   10.6190   -4.6620   -0.7800 C   0  0  0  0  0  0  0  0  0  0  0  0
   10.0480   -5.5550    0.2020 C   0  0  0  0  0  0  0  0  0  0  0  0
   10.8520   -5.7310    1.4460 N   0  0  0  0  0  0  0  0  0  0  0  0
   10.3240   -6.7790    2.3800 C   0  0  0  0  0  0  0  0  0  0  0  0
   11.0870   -6.8970    3.5770 C   0  0  0  0  0  0  0  0  0  0  0  0
   11.0440   -5.8760    4.4520 N   0  0  0  0  0  0  0  0  0  0  0  0
   11.7780   -5.8780    5.6580 C   0  0  0  0  0  0  0  0  0  0  0  0
   12.5680   -6.9730    5.9840 C   0  0  0  0  0  0  0  0  0  0  0  0
   12.6170   -8.0340    5.0870 C   0  0  0  0  0  0  0  0  0  0  0  0
   13.3580   -9.1050    5.3620 N   0  0  0  0  0  0  0  0  0  0  0  0
   11.8860   -8.0220    3.8810 C   0  0  0  0  0  0  0  0  0  0  0  0
   11.9650   -9.1170    3.0040 C   0  0  0  0  0  0  0  0  0  0  0  0
   12.3079   -6.8618    0.4233 H   0  0  0  0  0  0  0  0  0  0  0  0
   12.8482   -6.0926    1.9769 H   0  0  0  0  0  0  0  0  0  0  0  0
   13.7931   -5.0970   -0.1767 H   0  0  0  0  0  0  0  0  0  0  0  0
   12.9919   -3.9581    0.9980 H   0  0  0  0  0  0  0  0  0  0  0  0
   13.5752   -3.1701   -1.6584 H   0  0  0  0  0  0  0  0  0  0  0  0
   12.1652   -2.2811   -3.4891 H   0  0  0  0  0  0  0  0  0  0  0  0
    9.7143   -2.8486   -3.6279 H   0  0  0  0  0  0  0  0  0  0  0  0
    8.0366   -4.6387   -0.9923 H   0  0  0  0  0  0  0  0  0  0  0  0
    8.0673   -4.6303   -2.7761 H   0  0  0  0  0  0  0  0  0  0  0  0
    9.0617   -5.1605    0.4876 H   0  0  0  0  0  0  0  0  0  0  0  0
   10.0047   -6.5451   -0.2753 H   0  0  0  0  0  0  0  0  0  0  0  0
    9.2894   -6.5192    2.6486 H   0  0  0  0  0  0  0  0  0  0  0  0
   10.3839   -7.7447    1.8566 H   0  0  0  0  0  0  0  0  0  0  0  0
   11.7244   -5.0147    6.3376 H   0  0  0  0  0  0  0  0  0  0  0  0
   13.1381   -6.9999    6.9243 H   0  0  0  0  0  0  0  0  0  0  0  0
   13.5398   -9.3678    6.3412 H   0  0  0  0  0  0  0  0  0  0  0  0
   13.7496   -9.6709    4.5956 H   0  0  0  0  0  0  0  0  0  0  0  0
   12.0322  -10.0483    3.5854 H   0  0  0  0  0  0  0  0  0  0  0  0
   11.0665   -9.1446    2.3700 H   0  0  0  0  0  0  0  0  0  0  0  0
   12.8581   -9.0153    2.3700 H   0  0  0  0  0  0  0  0  0  0  0  0
  6  5  2  0
  6  7  1  0
  5  4  1  0
  8  7  1  0
  7  9  2  0
  4  3  2  0
  9  3  1  0
  9 10  1  0
  3  2  1  0
 10 11  1  0
  2  1  1  0
  1 11  1  0
 11 12  1  0
 12 13  1  0
 20 19  1  0
 13 19  1  0
 13 14  2  0
 19 17  2  0
 14 15  1  0
 17 18  1  0
 17 16  1  0
 15 16  2  0
  1 21  1  0
  1 22  1  0
  2 23  1  0
  2 24  1  0
  4 25  1  0
  5 26  1  0
  6 27  1  0
  8 28  1  0
  8 29  1  0
 10 30  1  0
 10 31  1  0
 12 32  1  0
 12 33  1  0
 15 34  1  0
 16 35  1  0
 18 36  1  0
 18 37  1  0
 20 38  1  0
 20 39  1  0
 20 40  1  0
A    1
CAJ
A    2
CAI
A    3
CAQ
A    4
CAG
A    5
CAD
A    6
CAF
A    7
CAO
A    8
NAC
A    9
CAS
A   10
CAL
A   11
NAT
A   12
CAK
A   13
CAR
A   14
NAM
A   15
CAE
A   16
CAH
A   17
CAN
A   18
NAB
A   19
CAP
A   20
CAA
M  END
