5BZN_4XD_A_202
     RDKit          3D

 33 34  0  0  0  0  0  0  0  0999 V2000
   12.0820   -6.1020    0.9450 C   0  0  0  0  0  0  0  0  0  0  0  0
   12.7300   -4.8900    0.2770 C   0  0  0  0  0  0  0  0  0  0  0  0
   11.9510   -4.3330   -0.7670 C   0  0  0  0  0  0  0  0  0  0  0  0
   12.5670   -3.4320   -1.6520 C   0  0  0  0  0  0  0  0  0  0  0  0
   11.8410   -2.8580   -2.6820 C   0  0  0  0  0  0  0  0  0  0  0  0
   10.4940   -3.1540   -2.8700 C   0  0  0  0  0  0  0  0  0  0  0  0
    9.8730   -4.0660   -2.0040 C   0  0  0  0  0  0  0  0  0  0  0  0
    8.5380   -4.3620   -2.1870 N   0  0  0  0  0  0  0  0  0  0  0  0
   10.5870   -4.6490   -0.9390 C   0  0  0  0  0  0  0  0  0  0  0  0
    9.9190   -5.5600   -0.0750 C   0  0  0  0  0  0  0  0  0  0  0  0
   10.6330   -5.9040    1.1920 N   0  0  0  0  0  0  0  0  0  0  0  0
   10.0810   -7.0630    1.9290 C   0  0  0  0  0  0  0  0  0  0  0  0
    8.6210   -6.9060    2.3320 C   0  0  0  0  0  0  0  0  0  0  0  0
    7.8450   -7.2770    1.1890 O   0  0  0  0  0  0  0  0  0  0  0  0
    6.4370   -7.2430    1.4340 C   0  0  0  0  0  0  0  0  0  0  0  0
   12.2126   -6.9773    0.2917 H   0  0  0  0  0  0  0  0  0  0  0  0
   12.5712   -6.2495    1.9191 H   0  0  0  0  0  0  0  0  0  0  0  0
   13.6995   -5.2000   -0.1401 H   0  0  0  0  0  0  0  0  0  0  0  0
   12.8353   -4.1142    1.0496 H   0  0  0  0  0  0  0  0  0  0  0  0
   13.6307   -3.1815   -1.5260 H   0  0  0  0  0  0  0  0  0  0  0  0
   12.3387   -2.1541   -3.3652 H   0  0  0  0  0  0  0  0  0  0  0  0
    9.9259   -2.6805   -3.6843 H   0  0  0  0  0  0  0  0  0  0  0  0
    7.9241   -4.4981   -1.3712 H   0  0  0  0  0  0  0  0  0  0  0  0
    8.1552   -4.4469   -3.1394 H   0  0  0  0  0  0  0  0  0  0  0  0
    8.9485   -5.1180    0.1948 H   0  0  0  0  0  0  0  0  0  0  0  0
    9.8434   -6.5019   -0.6381 H   0  0  0  0  0  0  0  0  0  0  0  0
   10.1687   -7.9531    1.2886 H   0  0  0  0  0  0  0  0  0  0  0  0
   10.6593   -7.1509    2.8606 H   0  0  0  0  0  0  0  0  0  0  0  0
    8.4132   -5.8623    2.6106 H   0  0  0  0  0  0  0  0  0  0  0  0
    8.3771   -7.5347    3.2010 H   0  0  0  0  0  0  0  0  0  0  0  0
    6.2536   -7.2386    2.5186 H   0  0  0  0  0  0  0  0  0  0  0  0
    6.0087   -6.3343    0.9860 H   0  0  0  0  0  0  0  0  0  0  0  0
    5.9653   -8.1300    0.9860 H   0  0  0  0  0  0  0  0  0  0  0  0
  6  5  2  0
  6  7  1  0
  5  4  1  0
  8  7  1  0
  7  9  2  0
  4  3  2  0
  9  3  1  0
  9 10  1  0
  3  2  1  0
 10 11  1  0
  2  1  1  0
  1 11  1  0
 14 15  1  0
 14 13  1  0
 11 12  1  0
 12 13  1  0
  1 16  1  0
  1 17  1  0
  2 18  1  0
  2 19  1  0
  4 20  1  0
  5 21  1  0
  6 22  1  0
  8 23  1  0
  8 24  1  0
 10 25  1  0
 10 26  1  0
 12 27  1  0
 12 28  1  0
 13 29  1  0
 13 30  1  0
 15 31  1  0
 15 32  1  0
 15 33  1  0
A    1
CAI
A    2
CAG
A    3
CAM
A    4
CAE
A    5
CAC
A    6
CAD
A    7
CAL
A    8
NAB
A    9
CAN
A   10
CAJ
A   11
NAO
A   12
CAH
A   13
CAF
A   14
OAK
A   15
CAA
M  END
