5BZR_4XM_A_202
     RDKit          3D

 47 49  0  0  0  0  0  0  0  0999 V2000
   12.1580   -6.3280    0.9200 C   0  0  0  0  0  0  0  0  0  0  0  0
   12.6890   -4.9990    0.3940 C   0  0  0  0  0  0  0  0  0  0  0  0
   11.8750   -4.4810   -0.6330 C   0  0  0  0  0  0  0  0  0  0  0  0
   12.4160   -3.5340   -1.5080 C   0  0  0  0  0  0  0  0  0  0  0  0
   11.6670   -2.9680   -2.5510 C   0  0  0  0  0  0  0  0  0  0  0  0
   10.3300   -3.3260   -2.7620 C   0  0  0  0  0  0  0  0  0  0  0  0
    9.8040   -4.2950   -1.8790 C   0  0  0  0  0  0  0  0  0  0  0  0
    8.5430   -4.7060   -1.9970 N   0  0  0  0  0  0  0  0  0  0  0  0
   10.5420   -4.8750   -0.8170 C   0  0  0  0  0  0  0  0  0  0  0  0
    9.9290   -5.8420    0.0320 C   0  0  0  0  0  0  0  0  0  0  0  0
   10.7140   -6.2630    1.2220 N   0  0  0  0  0  0  0  0  0  0  0  0
   10.2520   -7.5880    1.7100 C   0  0  0  0  0  0  0  0  0  0  0  0
   10.5600   -7.8210    3.2080 C   0  0  0  0  0  0  0  0  0  0  0  0
   10.3180   -9.2910    3.5820 C   0  0  0  0  0  0  0  0  0  0  0  0
   10.9280   -9.6070    4.8490 O   0  0  0  0  0  0  0  0  0  0  0  0
   10.3910  -10.8730    5.3410 C   0  0  0  0  0  0  0  0  0  0  0  0
    9.9590  -10.7520    6.8400 C   0  0  0  0  0  0  0  0  0  0  0  0
   10.8320  -11.5430    7.8390 C   0  0  0  0  0  0  0  0  0  0  0  0
   11.1780  -12.8310    7.3150 O   0  0  0  0  0  0  0  0  0  0  0  0
   12.0980  -12.6050    6.2390 C   0  0  0  0  0  0  0  0  0  0  0  0
   11.3440  -12.0740    5.0140 C   0  0  0  0  0  0  0  0  0  0  0  0
   12.3278   -7.1047    0.1598 H   0  0  0  0  0  0  0  0  0  0  0  0
   12.6913   -6.5631    1.8529 H   0  0  0  0  0  0  0  0  0  0  0  0
   13.7048   -5.1518    0.0006 H   0  0  0  0  0  0  0  0  0  0  0  0
   12.6917   -4.2784    1.2251 H   0  0  0  0  0  0  0  0  0  0  0  0
   13.4625   -3.2226   -1.3745 H   0  0  0  0  0  0  0  0  0  0  0  0
   12.1392   -2.2292   -3.2153 H   0  0  0  0  0  0  0  0  0  0  0  0
    9.7262   -2.8800   -3.5661 H   0  0  0  0  0  0  0  0  0  0  0  0
    7.9801   -4.8895   -1.1541 H   0  0  0  0  0  0  0  0  0  0  0  0
    8.1304   -4.8405   -2.9311 H   0  0  0  0  0  0  0  0  0  0  0  0
    8.9782   -5.4199    0.3895 H   0  0  0  0  0  0  0  0  0  0  0  0
    9.8200   -6.7470   -0.5837 H   0  0  0  0  0  0  0  0  0  0  0  0
    9.1643   -7.6568    1.5609 H   0  0  0  0  0  0  0  0  0  0  0  0
   10.7940   -8.3563    1.1391 H   0  0  0  0  0  0  0  0  0  0  0  0
   11.6113   -7.5650    3.4060 H   0  0  0  0  0  0  0  0  0  0  0  0
    9.8960   -7.1852    3.8119 H   0  0  0  0  0  0  0  0  0  0  0  0
    9.2350   -9.4720    3.6487 H   0  0  0  0  0  0  0  0  0  0  0  0
   10.7674   -9.9292    2.8069 H   0  0  0  0  0  0  0  0  0  0  0  0
    9.4655  -11.1085    4.7951 H   0  0  0  0  0  0  0  0  0  0  0  0
    9.9973   -9.6892    7.1210 H   0  0  0  0  0  0  0  0  0  0  0  0
    8.9502  -11.1858    6.9042 H   0  0  0  0  0  0  0  0  0  0  0  0
   11.7538  -10.9765    8.0374 H   0  0  0  0  0  0  0  0  0  0  0  0
   10.2586  -11.6860    8.7668 H   0  0  0  0  0  0  0  0  0  0  0  0
   12.5960  -13.5509    5.9796 H   0  0  0  0  0  0  0  0  0  0  0  0
   12.8488  -11.8647    6.5525 H   0  0  0  0  0  0  0  0  0  0  0  0
   10.7414  -12.8927    4.5937 H   0  0  0  0  0  0  0  0  0  0  0  0
   12.0984  -11.7054    4.3034 H   0  0  0  0  0  0  0  0  0  0  0  0
  6  5  2  0
  6  7  1  0
  5  4  1  0
  8  7  1  0
  7  9  2  0
  4  3  2  0
  9  3  1  0
  9 10  1  0
  3  2  1  0
 10 11  1  0
  2  1  1  0
  1 11  1  0
 11 12  1  0
 12 13  1  0
 13 14  1  0
 14 15  1  0
 15 16  1  0
 21 16  1  0
 21 20  1  0
 16 17  1  0
 20 19  1  0
 17 18  1  0
 19 18  1  0
  1 22  1  0
  1 23  1  0
  2 24  1  0
  2 25  1  0
  4 26  1  0
  5 27  1  0
  6 28  1  0
  8 29  1  0
  8 30  1  0
 10 31  1  0
 10 32  1  0
 12 33  1  0
 12 34  1  0
 13 35  1  0
 13 36  1  0
 14 37  1  0
 14 38  1  0
 16 39  1  0
 17 40  1  0
 17 41  1  0
 18 42  1  0
 18 43  1  0
 20 44  1  0
 20 45  1  0
 21 46  1  0
 21 47  1  0
A    1
CAM
A    2
CAI
A    3
CAR
A    4
CAD
A    5
CAB
A    6
CAC
A    7
CAQ
A    8
NAA
A    9
CAS
A   10
CAN
A   11
NAU
A   12
CAL
A   13
CAE
A   14
CAF
A   15
OAP
A   16
CAT
A   17
CAJ
A   18
CAG
A   19
OAO
A   20
CAH
A   21
CAK
M  END
