5BZT_4XJ_A_203
     RDKit          3D

 40 41  0  0  0  0  0  0  0  0999 V2000
    6.3970   -7.2660    1.3070 C   0  0  0  0  0  0  0  0  0  0  0  0
   12.0690   -6.1110    0.9010 C   0  0  0  0  0  0  0  0  0  0  0  0
   12.6790   -4.8710    0.2640 C   0  0  0  0  0  0  0  0  0  0  0  0
   11.8680   -4.3220   -0.7520 C   0  0  0  0  0  0  0  0  0  0  0  0
   12.4230   -3.3750   -1.6210 C   0  0  0  0  0  0  0  0  0  0  0  0
   11.6480   -2.8040   -2.6350 C   0  0  0  0  0  0  0  0  0  0  0  0
   10.2930   -3.1230   -2.8160 C   0  0  0  0  0  0  0  0  0  0  0  0
    9.7590   -4.0830   -1.9430 C   0  0  0  0  0  0  0  0  0  0  0  0
    8.4650   -4.4430   -2.0510 N   0  0  0  0  0  0  0  0  0  0  0  0
   10.5120   -4.6720   -0.9020 C   0  0  0  0  0  0  0  0  0  0  0  0
    9.8980   -5.6250   -0.0510 C   0  0  0  0  0  0  0  0  0  0  0  0
   10.6340   -5.9260    1.1970 N   0  0  0  0  0  0  0  0  0  0  0  0
   10.0680   -7.0320    2.0310 C   0  0  0  0  0  0  0  0  0  0  0  0
    8.5540   -6.8680    2.2920 C   0  0  0  0  0  0  0  0  0  0  0  0
    7.8190   -7.3580    1.1600 O   0  0  0  0  0  0  0  0  0  0  0  0
   10.4030   -8.4510    1.4990 C   0  0  0  0  0  0  0  0  0  0  0  0
   11.6410   -8.9060    2.0780 O   0  0  0  0  0  0  0  0  0  0  0  0
   12.3370   -9.7920    1.1900 C   0  0  0  0  0  0  0  0  0  0  0  0
    6.1392   -7.2493    2.3762 H   0  0  0  0  0  0  0  0  0  0  0  0
    6.0379   -6.3427    0.8288 H   0  0  0  0  0  0  0  0  0  0  0  0
    5.9219   -8.1353    0.8288 H   0  0  0  0  0  0  0  0  0  0  0  0
   12.1836   -6.9592    0.2101 H   0  0  0  0  0  0  0  0  0  0  0  0
   12.5922   -6.3005    1.8499 H   0  0  0  0  0  0  0  0  0  0  0  0
   13.6521   -5.1422   -0.1714 H   0  0  0  0  0  0  0  0  0  0  0  0
   12.7819   -4.1107    1.0522 H   0  0  0  0  0  0  0  0  0  0  0  0
   13.4759   -3.0782   -1.5053 H   0  0  0  0  0  0  0  0  0  0  0  0
   12.1171   -2.0784   -3.3157 H   0  0  0  0  0  0  0  0  0  0  0  0
    9.6838   -2.6470   -3.5985 H   0  0  0  0  0  0  0  0  0  0  0  0
    7.9016   -4.5998   -1.2031 H   0  0  0  0  0  0  0  0  0  0  0  0
    8.0393   -4.5614   -2.9814 H   0  0  0  0  0  0  0  0  0  0  0  0
    8.9037   -5.2437    0.2245 H   0  0  0  0  0  0  0  0  0  0  0  0
    9.8674   -6.5657   -0.6203 H   0  0  0  0  0  0  0  0  0  0  0  0
   10.5795   -6.9405    3.0005 H   0  0  0  0  0  0  0  0  0  0  0  0
    8.3216   -5.8042    2.4479 H   0  0  0  0  0  0  0  0  0  0  0  0
    8.2717   -7.4393    3.1886 H   0  0  0  0  0  0  0  0  0  0  0  0
    9.5944   -9.1446    1.7728 H   0  0  0  0  0  0  0  0  0  0  0  0
   10.5038   -8.4155    0.4042 H   0  0  0  0  0  0  0  0  0  0  0  0
   12.9115  -10.5233    1.7776 H   0  0  0  0  0  0  0  0  0  0  0  0
   11.6103  -10.3209    0.5558 H   0  0  0  0  0  0  0  0  0  0  0  0
   13.0229   -9.2112    0.5558 H   0  0  0  0  0  0  0  0  0  0  0  0
  7  6  2  0
  7  8  1  0
  6  5  1  0
  9  8  1  0
  8 10  2  0
  5  4  2  0
 10  4  1  0
 10 11  1  0
  4  3  1  0
 11 12  1  0
  3  2  1  0
  2 12  1  0
 15  1  1  0
 15 14  1  0
 18 17  1  0
 12 13  1  0
 16 13  1  0
 16 17  1  0
 13 14  1  0
  1 19  1  0
  1 20  1  0
  1 21  1  0
  2 22  1  0
  2 23  1  0
  3 24  1  0
  3 25  1  0
  5 26  1  0
  6 27  1  0
  7 28  1  0
  9 29  1  0
  9 30  1  0
 11 31  1  0
 11 32  1  0
 13 33  1  0
 14 34  1  0
 14 35  1  0
 16 36  1  0
 16 37  1  0
 18 38  1  0
 18 39  1  0
 18 40  1  0
A    1
C3
A    2
CAI
A    3
CAG
A    4
CAM
A    5
CAE
A    6
CAC
A    7
CAD
A    8
CAL
A    9
NAB
A   10
CAN
A   11
CAJ
A   12
NAO
A   13
CAH
A   14
C1
A   15
O2
A   16
CAF
A   17
OAK
A   18
CAA
M  END
