1AUX_AGS_A_800
     RDKit          3D

 47 49  0  0  0  0  0  0  0  0999 V2000
   21.1730   31.0120   21.8090 P   0  0  0  0  0  0  0  0  0  0  0  0
   21.2460   30.2540   23.6130 S   0  0  0  0  0  0  0  0  0  0  0  0
   19.7600   31.5930   21.4800 O   0  0  0  0  0  0  0  0  0  0  0  0
   22.1810   32.1090   21.6650 O   0  0  0  0  0  0  0  0  0  0  0  0
   21.7870   29.7030   19.2010 P   0  0  0  0  0  0  0  0  0  0  0  0
   20.8580   28.6810   18.6000 O   0  0  0  0  0  0  0  0  0  0  0  0
   21.7580   31.1040   18.6660 O   0  0  0  0  0  0  0  0  0  0  0  0
   21.5920   29.8050   20.7710 O   0  0  0  0  0  0  0  0  0  0  0  0
   24.6530   29.4550   19.9310 P   0  0  0  0  0  0  0  0  0  0  0  0
   25.7880   29.2770   18.9560 O   0  0  0  0  0  0  0  0  0  0  0  0
   24.5930   30.8130   20.5850 O   0  0  0  0  0  0  0  0  0  0  0  0
   23.2890   29.1760   19.0890 O   0  0  0  0  0  0  0  0  0  0  0  0
   24.5970   28.2190   20.9930 O   0  0  0  0  0  0  0  0  0  0  0  0
   23.9190   28.5200   22.2410 C   0  0  0  0  0  0  0  0  0  0  0  0
   24.8550   28.5200   23.4590 C   0  0  0  0  0  0  0  0  0  0  0  0
   25.7700   27.3750   23.3670 O   0  0  0  0  0  0  0  0  0  0  0  0
   25.7950   29.7230   23.6300 C   0  0  0  0  0  0  0  0  0  0  0  0
   25.1640   30.8570   24.2340 O   0  0  0  0  0  0  0  0  0  0  0  0
   26.9890   29.1170   24.4190 C   0  0  0  0  0  0  0  0  0  0  0  0
   26.9010   29.2060   25.8320 O   0  0  0  0  0  0  0  0  0  0  0  0
   27.0600   27.6830   23.9430 C   0  0  0  0  0  0  0  0  0  0  0  0
   28.1380   27.4120   22.9130 N   0  0  0  0  0  0  0  0  0  0  0  0
   27.9870   27.7970   21.6020 C   0  0  0  0  0  0  0  0  0  0  0  0
   29.0200   27.5120   20.8030 N   0  0  0  0  0  0  0  0  0  0  0  0
   29.9340   26.9210   21.6450 C   0  0  0  0  0  0  0  0  0  0  0  0
   31.2570   26.3980   21.4340 C   0  0  0  0  0  0  0  0  0  0  0  0
   31.9050   26.4030   20.2440 N   0  0  0  0  0  0  0  0  0  0  0  0
   31.8820   25.8680   22.5120 N   0  0  0  0  0  0  0  0  0  0  0  0
   31.2460   25.8490   23.7150 C   0  0  0  0  0  0  0  0  0  0  0  0
   30.0230   26.3120   24.0370 N   0  0  0  0  0  0  0  0  0  0  0  0
   29.4070   26.8570   22.9580 C   0  0  0  0  0  0  0  0  0  0  0  0
   19.2799   31.7904   22.3230 H   0  0  0  0  0  0  0  0  0  0  0  0
   22.4640   32.4170   22.5623 H   0  0  0  0  0  0  0  0  0  0  0  0
   21.7447   31.7451   19.4203 H   0  0  0  0  0  0  0  0  0  0  0  0
   24.5977   30.7058   21.5692 H   0  0  0  0  0  0  0  0  0  0  0  0
   23.4574   29.5148   22.1559 H   0  0  0  0  0  0  0  0  0  0  0  0
   23.1731   27.7282   22.4046 H   0  0  0  0  0  0  0  0  0  0  0  0
   24.1472   28.5161   24.3010 H   0  0  0  0  0  0  0  0  0  0  0  0
   26.1256   30.1656   22.6788 H   0  0  0  0  0  0  0  0  0  0  0  0
   25.2100   30.7743   25.2195 H   0  0  0  0  0  0  0  0  0  0  0  0
   27.9028   29.6948   24.2163 H   0  0  0  0  0  0  0  0  0  0  0  0
   27.5342   28.5656   26.2431 H   0  0  0  0  0  0  0  0  0  0  0  0
   27.3178   27.0533   24.8073 H   0  0  0  0  0  0  0  0  0  0  0  0
   27.0813   28.3032   21.2368 H   0  0  0  0  0  0  0  0  0  0  0  0
   32.9346   26.4109   20.2183 H   0  0  0  0  0  0  0  0  0  0  0  0
   31.3679   26.3989   19.3651 H   0  0  0  0  0  0  0  0  0  0  0  0
   31.8103   25.3910   24.5407 H   0  0  0  0  0  0  0  0  0  0  0  0
  1  2  2  0
  1  3  1  0
  1  4  1  0
  1  8  1  0
  5  6  2  0
  5  7  1  0
  5  8  1  0
  5 12  1  0
  9 10  2  0
  9 11  1  0
  9 12  1  0
  9 13  1  0
 13 14  1  0
 14 15  1  0
 15 16  1  0
 15 17  1  0
 16 21  1  0
 17 18  1  0
 17 19  1  0
 19 20  1  0
 19 21  1  0
 21 22  1  0
 22 23  1  0
 22 31  1  0
 23 24  2  0
 24 25  1  0
 25 26  1  0
 25 31  2  0
 26 27  1  0
 26 28  2  0
 28 29  1  0
 29 30  2  0
 30 31  1  0
  3 32  1  0
  4 33  1  0
  7 34  1  0
 11 35  1  0
 14 36  1  0
 14 37  1  0
 15 38  1  0
 17 39  1  0
 18 40  1  0
 19 41  1  0
 20 42  1  0
 21 43  1  0
 23 44  1  0
 27 45  1  0
 27 46  1  0
 29 47  1  0
A    1
PG
A    2
S1G
A    3
O2G
A    4
O3G
A    5
PB
A    6
O1B
A    7
O2B
A    8
O3B
A    9
PA
A   10
O1A
A   11
O2A
A   12
O3A
A   13
O5'
A   14
C5'
A   15
C4'
A   16
O4'
A   17
C3'
A   18
O3'
A   19
C2'
A   20
O2'
A   21
C1'
A   22
N9
A   23
C8
A   24
N7
A   25
C5
A   26
C6
A   27
N6
A   28
N1
A   29
C2
A   30
N3
A   31
C4
M  END
