5C0L_4WJ_A_402
     RDKit          3D

 25 26  0  0  0  0  0  0  0  0999 V2000
  -15.8950  -19.4140   -6.3820 C   0  0  0  0  0  0  0  0  0  0  0  0
  -14.5830  -19.5010   -5.9870 C   0  0  0  0  0  0  0  0  0  0  0  0
  -14.5030  -19.5010   -4.6660 N   0  0  0  0  0  0  0  0  0  0  0  0
  -16.6370  -19.3600   -5.2960 C   0  0  0  0  0  0  0  0  0  0  0  0
  -16.1430  -19.3830   -2.8350 C   0  0  0  0  0  0  0  0  0  0  0  0
  -15.7460  -20.6940   -2.1510 C   0  0  0  0  0  0  0  0  0  0  0  0
  -15.8130  -18.1940   -0.6450 C   0  0  0  0  0  0  0  0  0  0  0  0
  -15.5390  -18.1660   -2.1400 C   0  0  0  0  0  0  0  0  0  0  0  0
  -16.5780  -19.3760   -8.1340 Br  0  0  0  0  0  0  0  0  0  0  0  0
  -15.7950  -19.4120   -4.2570 N   0  0  0  0  0  0  0  0  0  0  0  0
  -15.9870  -20.6480   -0.6510 C   0  0  0  0  0  0  0  0  0  0  0  0
  -15.3120  -19.4650   -0.0550 N   0  0  0  0  0  0  0  0  0  0  0  0
  -13.7227  -19.5619   -6.6698 H   0  0  0  0  0  0  0  0  0  0  0  0
  -17.7336  -19.2866   -5.2513 H   0  0  0  0  0  0  0  0  0  0  0  0
  -17.2355  -19.2868   -2.7506 H   0  0  0  0  0  0  0  0  0  0  0  0
  -16.3403  -21.5135   -2.5814 H   0  0  0  0  0  0  0  0  0  0  0  0
  -14.6704  -20.8529   -2.3181 H   0  0  0  0  0  0  0  0  0  0  0  0
  -15.3031  -17.3451   -0.1661 H   0  0  0  0  0  0  0  0  0  0  0  0
  -16.8978  -18.1232   -0.4773 H   0  0  0  0  0  0  0  0  0  0  0  0
  -14.4515  -18.1614   -2.3054 H   0  0  0  0  0  0  0  0  0  0  0  0
  -15.9994  -17.2602   -2.5614 H   0  0  0  0  0  0  0  0  0  0  0  0
  -17.0682  -20.5835   -0.4592 H   0  0  0  0  0  0  0  0  0  0  0  0
  -15.5767  -21.5610   -0.1949 H   0  0  0  0  0  0  0  0  0  0  0  0
  -15.4888  -19.4551    0.9597 H   0  0  0  0  0  0  0  0  0  0  0  0
  -14.3035  -19.5362   -0.2518 H   0  0  0  0  0  0  0  0  0  0  0  0
  9  1  1  0
  1  2  1  0
  1  4  2  0
  2  3  2  0
  4 10  1  0
  3 10  1  0
 10  5  1  0
  5  6  1  0
  5  8  1  0
  6 11  1  0
  8  7  1  0
 11 12  1  0
  7 12  1  0
  2 13  1  0
  4 14  1  0
  5 15  1  0
  6 16  1  0
  6 17  1  0
  7 18  1  0
  7 19  1  0
  8 20  1  0
  8 21  1  0
 11 22  1  0
 11 23  1  0
 12 24  1  0
 12 25  1  0
M  CHG  1  12   1
A    1
C2
A    2
C3
A    3
N4
A    4
C6
A    5
C7
A    6
C8
A    7
C11
A    8
C12
A    9
BR1
A   10
N5
A   11
C9
A   12
N10
M  END
