5C1Q_4YK_B_401
     RDKit          3D

 31 34  0  0  0  0  0  0  0  0999 V2000
  -21.8140  -33.2170   -3.5380 C   0  0  0  0  0  0  0  0  0  0  0  0
  -21.8700  -32.5340   -2.2520 O   0  0  0  0  0  0  0  0  0  0  0  0
  -22.1550  -33.2140   -1.0600 C   0  0  0  0  0  0  0  0  0  0  0  0
  -22.0600  -32.5380    0.1690 C   0  0  0  0  0  0  0  0  0  0  0  0
  -22.3370  -33.1700    1.4080 C   0  0  0  0  0  0  0  0  0  0  0  0
  -22.2170  -32.4020    2.6270 N   0  0  0  0  0  0  0  0  0  0  0  0
  -22.4850  -33.0290    3.8920 C   0  0  0  0  0  0  0  0  0  0  0  0
  -22.3800  -32.3980    4.9780 O   0  0  0  0  0  0  0  0  0  0  0  0
  -22.8550  -34.3460    3.8540 C   0  0  0  0  0  0  0  0  0  0  0  0
  -23.2400  -35.3110    5.1600 S   0  0  0  0  0  0  0  0  0  0  0  0
  -23.5450  -36.5770    4.4150 C   0  0  0  0  0  0  0  0  0  0  0  0
  -23.9230  -37.7000    5.0130 C   0  0  0  0  0  0  0  0  0  0  0  0
  -24.1760  -38.7980    4.2270 C   0  0  0  0  0  0  0  0  0  0  0  0
  -24.0220  -38.6680    2.8520 C   0  0  0  0  0  0  0  0  0  0  0  0
  -23.6280  -37.4560    2.2870 C   0  0  0  0  0  0  0  0  0  0  0  0
  -23.3810  -36.3930    3.0500 C   0  0  0  0  0  0  0  0  0  0  0  0
  -22.9850  -35.1230    2.7000 C   0  0  0  0  0  0  0  0  0  0  0  0
  -22.7300  -34.5420    1.4710 C   0  0  0  0  0  0  0  0  0  0  0  0
  -22.8330  -35.1950    0.2260 C   0  0  0  0  0  0  0  0  0  0  0  0
  -22.5510  -34.5600   -0.9930 C   0  0  0  0  0  0  0  0  0  0  0  0
  -21.7251  -34.3010   -3.3739 H   0  0  0  0  0  0  0  0  0  0  0  0
  -22.7324  -33.0062   -4.1055 H   0  0  0  0  0  0  0  0  0  0  0  0
  -20.9422  -32.8594   -4.1055 H   0  0  0  0  0  0  0  0  0  0  0  0
  -21.7597  -31.4798    0.1696 H   0  0  0  0  0  0  0  0  0  0  0  0
  -21.9408  -31.4104    2.5890 H   0  0  0  0  0  0  0  0  0  0  0  0
  -24.0306  -37.7501    6.1066 H   0  0  0  0  0  0  0  0  0  0  0  0
  -24.4914  -39.7527    4.6732 H   0  0  0  0  0  0  0  0  0  0  0  0
  -24.2136  -39.5333    2.2005 H   0  0  0  0  0  0  0  0  0  0  0  0
  -23.5196  -37.3766    1.1952 H   0  0  0  0  0  0  0  0  0  0  0  0
  -23.1483  -36.2487    0.2094 H   0  0  0  0  0  0  0  0  0  0  0  0
  -22.6430  -35.1348   -1.9263 H   0  0  0  0  0  0  0  0  0  0  0  0
  1  2  1  0
  2  3  1  0
  3  4  2  0
  3 20  1  0
  4  5  1  0
  5  6  1  0
  5 18  2  0
  6  7  1  0
  7  8  2  0
  7  9  1  0
  9 10  1  0
  9 17  2  0
 10 11  1  0
 11 12  1  0
 11 16  2  0
 12 13  2  0
 13 14  1  0
 14 15  2  0
 15 16  1  0
 16 17  1  0
 17 18  1  0
 18 19  1  0
 19 20  2  0
  1 21  1  0
  1 22  1  0
  1 23  1  0
  4 24  1  0
  6 25  1  0
 12 26  1  0
 13 27  1  0
 14 28  1  0
 15 29  1  0
 19 30  1  0
 20 31  1  0
A    1
CAT
A    2
OAS
A    3
CAQ
A    4
CAR
A    5
CAM
A    6
NAC
A    7
CAL
A    8
OAB
A    9
CAK
A   10
SAA
A   11
CAJ
A   12
CAI
A   13
CAH
A   14
CAG
A   15
CAF
A   16
CAE
A   17
CAD
A   18
CAN
A   19
CAO
A   20
CAP
M  END
