5C26_50H_A_701
     RDKit          3D

 48 51  0  0  0  0  0  0  0  0999 V2000
   -1.8760    0.2660  -13.7480 N   0  0  0  0  0  0  0  0  0  0  0  0
   -4.0070    1.3430  -13.4920 C   0  0  0  0  0  0  0  0  0  0  0  0
   -2.9260    5.1040  -10.0380 C   0  0  0  0  0  0  0  0  0  0  0  0
   -2.8380    3.1440  -11.5770 C   0  0  0  0  0  0  0  0  0  0  0  0
    1.8300   -2.8830  -15.9950 C   0  0  0  0  0  0  0  0  0  0  0  0
    2.6500   -2.0880  -15.2110 C   0  0  0  0  0  0  0  0  0  0  0  0
    2.1080   -1.0520  -14.4680 C   0  0  0  0  0  0  0  0  0  0  0  0
   -1.0060    3.5970  -10.0670 C   0  0  0  0  0  0  0  0  0  0  0  0
   -0.3450    2.4900  -10.5500 C   0  0  0  0  0  0  0  0  0  0  0  0
   -0.9350    1.7200  -11.5360 C   0  0  0  0  0  0  0  0  0  0  0  0
    0.4720   -2.6220  -16.0430 C   0  0  0  0  0  0  0  0  0  0  0  0
    0.7440   -0.8040  -14.5260 C   0  0  0  0  0  0  0  0  0  0  0  0
   -5.5230   -0.4430  -16.1050 C   0  0  0  0  0  0  0  0  0  0  0  0
   -5.6850    0.4970  -15.1120 C   0  0  0  0  0  0  0  0  0  0  0  0
   -2.1720    2.0290  -12.0650 C   0  0  0  0  0  0  0  0  0  0  0  0
   -2.2500    3.9090  -10.5770 C   0  0  0  0  0  0  0  0  0  0  0  0
   -0.0910   -1.5880  -15.3100 C   0  0  0  0  0  0  0  0  0  0  0  0
   -3.6330   -0.3110  -15.1450 C   0  0  0  0  0  0  0  0  0  0  0  0
   -2.7270    1.1750  -13.1310 C   0  0  0  0  0  0  0  0  0  0  0  0
   -2.2750   -0.4710  -14.7510 C   0  0  0  0  0  0  0  0  0  0  0  0
    4.6030   -2.8320  -16.2930 C   0  0  0  0  0  0  0  0  0  0  0  0
    2.3050    0.5840  -12.8090 C   0  0  0  0  0  0  0  0  0  0  0  0
   -4.2400   -0.9420  -16.1250 N   0  0  0  0  0  0  0  0  0  0  0  0
   -4.4640    0.5610  -14.5110 N   0  0  0  0  0  0  0  0  0  0  0  0
   -4.2970    5.0980  -10.1370 N   0  0  0  0  0  0  0  0  0  0  0  0
   -1.4880   -1.3990  -15.4240 N   0  0  0  0  0  0  0  0  0  0  0  0
   -2.2630    6.0070   -9.5450 O   0  0  0  0  0  0  0  0  0  0  0  0
    4.0310   -2.3040  -15.0950 O   0  0  0  0  0  0  0  0  0  0  0  0
    2.9970   -0.2890  -13.7000 O   0  0  0  0  0  0  0  0  0  0  0  0
   -4.6566    2.0757  -12.9908 H   0  0  0  0  0  0  0  0  0  0  0  0
   -3.8240    3.4204  -11.9787 H   0  0  0  0  0  0  0  0  0  0  0  0
    2.2552   -3.7154  -16.5749 H   0  0  0  0  0  0  0  0  0  0  0  0
   -0.5495    4.2233   -9.2864 H   0  0  0  0  0  0  0  0  0  0  0  0
    0.6453    2.2198  -10.1546 H   0  0  0  0  0  0  0  0  0  0  0  0
   -0.4018    0.8337  -11.9103 H   0  0  0  0  0  0  0  0  0  0  0  0
   -0.1746   -3.2477  -16.6758 H   0  0  0  0  0  0  0  0  0  0  0  0
    0.3184    0.0256  -13.9424 H   0  0  0  0  0  0  0  0  0  0  0  0
   -6.3194   -0.7562  -16.7961 H   0  0  0  0  0  0  0  0  0  0  0  0
   -6.5924    1.0660  -14.8614 H   0  0  0  0  0  0  0  0  0  0  0  0
    5.3888   -3.5574  -16.0354 H   0  0  0  0  0  0  0  0  0  0  0  0
    3.8211   -3.3325  -16.8830 H   0  0  0  0  0  0  0  0  0  0  0  0
    5.0395   -2.0126  -16.8830 H   0  0  0  0  0  0  0  0  0  0  0  0
    2.5295    0.3008  -11.7701 H   0  0  0  0  0  0  0  0  0  0  0  0
    2.6298    1.6201  -12.9849 H   0  0  0  0  0  0  0  0  0  0  0  0
    1.2221    0.5043  -12.9849 H   0  0  0  0  0  0  0  0  0  0  0  0
   -4.8749    5.0955   -9.2844 H   0  0  0  0  0  0  0  0  0  0  0  0
   -4.7464    5.0960  -11.0638 H   0  0  0  0  0  0  0  0  0  0  0  0
   -1.9794   -2.0209  -16.0818 H   0  0  0  0  0  0  0  0  0  0  0  0
 21 28  1  0
 23 13  1  0
 23 18  2  0
 13 14  2  0
 11  5  2  0
 11 17  1  0
  5  6  1  0
 26 17  1  0
 26 20  1  0
 17 12  2  0
  6 28  1  0
  6  7  2  0
 18 20  1  0
 18 24  1  0
 14 24  1  0
 20  1  2  0
 12  7  1  0
 24  2  1  0
  7 29  1  0
  1 19  1  0
 29 22  1  0
  2 19  2  0
 19 15  1  0
 15  4  2  0
 15 10  1  0
  4 16  1  0
 10  9  2  0
 16  8  2  0
 16  3  1  0
  9  8  1  0
 25  3  1  0
  3 27  2  0
  2 30  1  0
  4 31  1  0
  5 32  1  0
  8 33  1  0
  9 34  1  0
 10 35  1  0
 11 36  1  0
 12 37  1  0
 13 38  1  0
 14 39  1  0
 21 40  1  0
 21 41  1  0
 21 42  1  0
 22 43  1  0
 22 44  1  0
 22 45  1  0
 25 46  1  0
 25 47  1  0
 26 48  1  0
A    1
N2
A    2
C6
A    3
C9
A    4
C13
A    5
C20
A    6
C18
A    7
C16
A    8
C26
A    9
C27
A   10
C25
A   11
C22
A   12
C15
A   13
C12
A   14
C14
A   15
C10
A   16
C11
A   17
C17
A   18
C3
A   19
C5
A   20
C1
A   21
C29
A   22
C28
A   23
N7
A   24
N4
A   25
N21
A   26
N8
A   27
O19
A   28
O24
A   29
O23
M  END
