5C27_50J_A_701
     RDKit          3D

 65 69  0  0  0  0  0  0  0  0999 V2000
   -8.4040    6.0570   14.3120 C   0  0  0  0  0  0  0  0  0  0  0  0
   -6.1260    5.5810   13.6660 C   0  0  0  0  0  0  0  0  0  0  0  0
   -5.8260    6.4480   14.4210 O   0  0  0  0  0  0  0  0  0  0  0  0
   -3.6520    3.5360   11.6580 C   0  0  0  0  0  0  0  0  0  0  0  0
   -2.4730    4.1490   12.1770 C   0  0  0  0  0  0  0  0  0  0  0  0
   -0.5960    3.4450   10.7660 C   0  0  0  0  0  0  0  0  0  0  0  0
    0.8210    3.0970   10.8780 C   0  0  0  0  0  0  0  0  0  0  0  0
    1.7250    3.5850    9.9330 C   0  0  0  0  0  0  0  0  0  0  0  0
    3.0640    3.2320   10.0660 C   0  0  0  0  0  0  0  0  0  0  0  0
    3.4960    2.4110   11.0970 C   0  0  0  0  0  0  0  0  0  0  0  0
    2.6040    1.9180   12.0500 C   0  0  0  0  0  0  0  0  0  0  0  0
    4.3140    1.1470   13.5660 C   0  0  0  0  0  0  0  0  0  0  0  0
    5.9340    0.3440   15.1790 C   0  0  0  0  0  0  0  0  0  0  0  0
    5.8140   -0.5490   16.1460 C   0  0  0  0  0  0  0  0  0  0  0  0
    4.5720   -1.0350   16.1970 N   0  0  0  0  0  0  0  0  0  0  0  0
    3.8800   -0.4730   15.2310 C   0  0  0  0  0  0  0  0  0  0  0  0
    1.7090   -1.4610   15.4800 N   0  0  0  0  0  0  0  0  0  0  0  0
    0.3610   -1.7520   15.2860 C   0  0  0  0  0  0  0  0  0  0  0  0
   -2.3460   -2.4510   14.9960 C   0  0  0  0  0  0  0  0  0  0  0  0
   -4.5390   -3.0350   15.9280 C   0  0  0  0  0  0  0  0  0  0  0  0
   -1.8210   -1.3890   14.2070 C   0  0  0  0  0  0  0  0  0  0  0  0
   -2.2420    0.4310   12.5730 C   0  0  0  0  0  0  0  0  0  0  0  0
   -7.4300    5.2770   13.5100 N   0  0  0  0  0  0  0  0  0  0  0  0
   -4.9490    5.0050   13.0580 C   0  0  0  0  0  0  0  0  0  0  0  0
   -4.9180    3.9680   12.1150 C   0  0  0  0  0  0  0  0  0  0  0  0
   -1.1950    3.8030   11.8840 N   0  0  0  0  0  0  0  0  0  0  0  0
   -1.1640    3.3900    9.7060 O   0  0  0  0  0  0  0  0  0  0  0  0
    1.2660    2.2570   11.9410 C   0  0  0  0  0  0  0  0  0  0  0  0
    3.0430    1.0450   13.1680 C   0  0  0  0  0  0  0  0  0  0  0  0
    4.7420    0.4090   14.5920 N   0  0  0  0  0  0  0  0  0  0  0  0
    2.5530   -0.5960   14.8020 C   0  0  0  0  0  0  0  0  0  0  0  0
   -0.1670   -2.7890   16.0520 C   0  0  0  0  0  0  0  0  0  0  0  0
   -1.5200   -3.1240   15.9100 C   0  0  0  0  0  0  0  0  0  0  0  0
   -3.6600   -2.8000   14.8470 O   0  0  0  0  0  0  0  0  0  0  0  0
   -2.6570   -0.7030   13.2930 O   0  0  0  0  0  0  0  0  0  0  0  0
   -0.4620   -1.0700   14.3860 C   0  0  0  0  0  0  0  0  0  0  0  0
    2.1950    0.1560   13.7930 N   0  0  0  0  0  0  0  0  0  0  0  0
   -2.5850    5.1620   13.1090 C   0  0  0  0  0  0  0  0  0  0  0  0
   -3.7810    5.6070   13.5470 C   0  0  0  0  0  0  0  0  0  0  0  0
   -8.2071    5.8993   15.3827 H   0  0  0  0  0  0  0  0  0  0  0  0
   -8.3022    7.1261   14.0740 H   0  0  0  0  0  0  0  0  0  0  0  0
   -9.4250    5.7240   14.0740 H   0  0  0  0  0  0  0  0  0  0  0  0
   -3.5766    2.7342   10.9087 H   0  0  0  0  0  0  0  0  0  0  0  0
    1.3886    4.2296    9.1076 H   0  0  0  0  0  0  0  0  0  0  0  0
    3.7958    3.6121    9.3380 H   0  0  0  0  0  0  0  0  0  0  0  0
    4.5609    2.1437   11.1646 H   0  0  0  0  0  0  0  0  0  0  0  0
    5.0024    1.8340   13.0520 H   0  0  0  0  0  0  0  0  0  0  0  0
    6.8352    0.9164   14.9138 H   0  0  0  0  0  0  0  0  0  0  0  0
    6.6295   -0.8515   16.8194 H   0  0  0  0  0  0  0  0  0  0  0  0
    2.1520   -1.9736   16.2559 H   0  0  0  0  0  0  0  0  0  0  0  0
   -4.0006   -2.8911   16.8764 H   0  0  0  0  0  0  0  0  0  0  0  0
   -5.3823   -2.3308   15.8746 H   0  0  0  0  0  0  0  0  0  0  0  0
   -4.9184   -4.0661   15.8746 H   0  0  0  0  0  0  0  0  0  0  0  0
   -1.9512    1.2255   13.2760 H   0  0  0  0  0  0  0  0  0  0  0  0
   -1.3816    0.1687   11.9398 H   0  0  0  0  0  0  0  0  0  0  0  0
   -3.0685    0.7860   11.9398 H   0  0  0  0  0  0  0  0  0  0  0  0
   -7.7363    4.5364   12.8630 H   0  0  0  0  0  0  0  0  0  0  0  0
   -5.8454    3.5072   11.7441 H   0  0  0  0  0  0  0  0  0  0  0  0
   -0.5658    3.8243   12.6992 H   0  0  0  0  0  0  0  0  0  0  0  0
    0.5430    1.8767   12.6777 H   0  0  0  0  0  0  0  0  0  0  0  0
    0.4709   -3.3383   16.7600 H   0  0  0  0  0  0  0  0  0  0  0  0
   -1.9434   -3.9303   16.5269 H   0  0  0  0  0  0  0  0  0  0  0  0
   -0.0300   -0.2503   13.7932 H   0  0  0  0  0  0  0  0  0  0  0  0
   -1.6684    5.6214   13.5076 H   0  0  0  0  0  0  0  0  0  0  0  0
   -3.8388    6.4288   14.2759 H   0  0  0  0  0  0  0  0  0  0  0  0
 27  6  2  0
  8  9  2  0
  8  7  1  0
  9 10  1  0
  6  7  1  0
  6 26  1  0
  7 28  2  0
 10 11  2  0
  4 25  2  0
  4  5  1  0
 26  5  1  0
 28 11  1  0
 11 29  1  0
 25 24  1  0
  5 38  2  0
 22 35  1  0
 24 39  2  0
 24  2  1  0
 38 39  1  0
 29 12  2  0
 29 37  1  0
 35 21  1  0
 23  2  1  0
 23  1  1  0
 12 30  1  0
  2  3  2  0
 37 31  2  0
 21 36  1  0
 21 19  2  0
 36 18  2  0
 30 13  1  0
 30 16  1  0
 31 16  1  0
 31 17  1  0
 34 19  1  0
 34 20  1  0
 19 33  1  0
 13 14  2  0
 16 15  2  0
 18 17  1  0
 18 32  1  0
 33 32  2  0
 14 15  1  0
  1 40  1  0
  1 41  1  0
  1 42  1  0
  4 43  1  0
  8 44  1  0
  9 45  1  0
 10 46  1  0
 12 47  1  0
 13 48  1  0
 14 49  1  0
 17 50  1  0
 20 51  1  0
 20 52  1  0
 20 53  1  0
 22 54  1  0
 22 55  1  0
 22 56  1  0
 23 57  1  0
 25 58  1  0
 26 59  1  0
 28 60  1  0
 32 61  1  0
 33 62  1  0
 36 63  1  0
 38 64  1  0
 39 65  1  0
A    1
C1
A    2
C3
A    3
O4
A    4
C7
A    5
C8
A    6
C10
A    7
C12
A    8
C13
A    9
C14
A   10
C15
A   11
C16
A   12
C19
A   13
C21
A   14
C22
A   15
N23
A   16
C24
A   17
N26
A   18
C27
A   19
C30
A   20
C32
A   21
C33
A   22
C35
A   23
N2
A   24
C5
A   25
C6
A   26
N9
A   27
O11
A   28
C17
A   29
C18
A   30
N20
A   31
C25
A   32
C28
A   33
C29
A   34
O31
A   35
O34
A   36
C36
A   37
N37
A   38
C38
A   39
C39
M  END
