5C28_4XV_A_803
     RDKit          3D

 22 23  0  0  0  0  0  0  0  0999 V2000
    4.3910   11.6160   43.0560 C   0  0  0  0  0  0  0  0  0  0  0  0
    3.9510   13.1040   41.3420 C   0  0  0  0  0  0  0  0  0  0  0  0
    3.2290   13.9100   42.1270 N   0  0  0  0  0  0  0  0  0  0  0  0
    4.1320   13.4590   39.9290 C   0  0  0  0  0  0  0  0  0  0  0  0
    4.4490   14.8690   39.5240 C   0  0  0  0  0  0  0  0  0  0  0  0
    3.1100   13.5230   43.3930 C   0  0  0  0  0  0  0  0  0  0  0  0
    4.5250   11.9650   41.7660 N   0  0  0  0  0  0  0  0  0  0  0  0
    3.6650   12.3890   43.9400 C   0  0  0  0  0  0  0  0  0  0  0  0
    5.0070   10.4160   43.4630 N   0  0  0  0  0  0  0  0  0  0  0  0
    3.4580   12.0800   45.3910 C   0  0  0  0  0  0  0  0  0  0  0  0
    3.0920   14.2910   39.2340 C   0  0  0  0  0  0  0  0  0  0  0  0
    2.1860   14.5780   44.3610 Cl  0  0  0  0  0  0  0  0  0  0  0  0
    4.6039   12.4817   39.7494 H   0  0  0  0  0  0  0  0  0  0  0  0
    5.1530   15.0596   38.7006 H   0  0  0  0  0  0  0  0  0  0  0  0
    4.8177   15.7641   40.0465 H   0  0  0  0  0  0  0  0  0  0  0  0
    5.1145   10.2066   44.4657 H   0  0  0  0  0  0  0  0  0  0  0  0
    5.3498    9.7481   42.7578 H   0  0  0  0  0  0  0  0  0  0  0  0
    3.9665   12.8390   46.0037 H   0  0  0  0  0  0  0  0  0  0  0  0
    2.3816   12.0869   45.6174 H   0  0  0  0  0  0  0  0  0  0  0  0
    3.8740   11.0872   45.6174 H   0  0  0  0  0  0  0  0  0  0  0  0
    2.2119   14.6479   39.7890 H   0  0  0  0  0  0  0  0  0  0  0  0
    2.4740   14.1704   38.3321 H   0  0  0  0  0  0  0  0  0  0  0  0
 11  5  1  0
 11  4  1  0
  5  4  1  0
  4  2  1  0
  2  7  1  0
  2  3  2  0
  7  1  2  0
  3  6  1  0
  1  9  1  0
  1  8  1  0
  6  8  2  0
  6 12  1  0
  8 10  1  0
  4 13  1  0
  5 14  1  0
  5 15  1  0
  9 16  1  0
  9 17  1  0
 10 18  1  0
 10 19  1  0
 10 20  1  0
 11 21  1  0
 11 22  1  0
A    1
C2
A    2
C3
A    3
N4
A    4
C7
A    5
C9
A    6
C
A    7
N
A    8
C1
A    9
N5
A   10
C6
A   11
C8
A   12
CL
M  END
