5C2A_4Y2_A_803
     RDKit          3D

 37 39  0  0  0  0  0  0  0  0999 V2000
    4.5140   12.2570   45.1750 C   0  0  0  0  0  0  0  0  0  0  0  0
    3.6290   12.8260   47.4960 C   0  0  0  0  0  0  0  0  0  0  0  0
    3.1230   14.7470   41.2580 C   0  0  0  0  0  0  0  0  0  0  0  0
    9.2790   11.9070   44.1990 C   0  0  0  0  0  0  0  0  0  0  0  0
    8.1100   10.0960   43.6450 C   0  0  0  0  0  0  0  0  0  0  0  0
    7.1680   10.7400   44.4120 C   0  0  0  0  0  0  0  0  0  0  0  0
   10.4180   12.8460   44.2500 C   0  0  0  0  0  0  0  0  0  0  0  0
    5.7980   10.2970   44.7440 C   0  0  0  0  0  0  0  0  0  0  0  0
    3.2800   14.2080   45.4590 C   0  0  0  0  0  0  0  0  0  0  0  0
    3.3970   14.5210   44.1780 N   0  0  0  0  0  0  0  0  0  0  0  0
    7.8010   12.2300   45.0030 S   0  0  0  0  0  0  0  0  0  0  0  0
    4.0830   13.6760   43.4020 C   0  0  0  0  0  0  0  0  0  0  0  0
    4.6380   12.5490   43.8680 N   0  0  0  0  0  0  0  0  0  0  0  0
    3.8230   13.0880   46.0350 C   0  0  0  0  0  0  0  0  0  0  0  0
    4.2210   14.0140   41.9740 C   0  0  0  0  0  0  0  0  0  0  0  0
    4.4190   15.4380   41.5290 C   0  0  0  0  0  0  0  0  0  0  0  0
    2.3750   15.3630   46.3610 Cl  0  0  0  0  0  0  0  0  0  0  0  0
    9.2920   10.7760   43.5420 N   0  0  0  0  0  0  0  0  0  0  0  0
    7.9910    8.7940   42.9450 C   0  0  0  0  0  0  0  0  0  0  0  0
    5.0940   11.0930   45.7260 N   0  0  0  0  0  0  0  0  0  0  0  0
    4.1838   13.5753   48.0797 H   0  0  0  0  0  0  0  0  0  0  0  0
    2.5585   12.8896   47.7409 H   0  0  0  0  0  0  0  0  0  0  0  0
    4.0021   11.8206   47.7409 H   0  0  0  0  0  0  0  0  0  0  0  0
    2.2162   15.0469   41.8038 H   0  0  0  0  0  0  0  0  0  0  0  0
    2.5196   14.5544   40.3587 H   0  0  0  0  0  0  0  0  0  0  0  0
   10.6731   13.0563   45.2991 H   0  0  0  0  0  0  0  0  0  0  0  0
   11.2859   12.3975   43.7444 H   0  0  0  0  0  0  0  0  0  0  0  0
   10.1432   13.7835   43.7444 H   0  0  0  0  0  0  0  0  0  0  0  0
    5.2070   10.3072   43.8163 H   0  0  0  0  0  0  0  0  0  0  0  0
    5.9101    9.3003   45.1957 H   0  0  0  0  0  0  0  0  0  0  0  0
    4.7641   13.0699   41.8201 H   0  0  0  0  0  0  0  0  0  0  0  0
    5.1052   15.6644   40.6996 H   0  0  0  0  0  0  0  0  0  0  0  0
    4.7112   16.3743   42.0269 H   0  0  0  0  0  0  0  0  0  0  0  0
    7.9170    7.9846   43.6862 H   0  0  0  0  0  0  0  0  0  0  0  0
    7.0894    8.7976   42.3148 H   0  0  0  0  0  0  0  0  0  0  0  0
    8.8783    8.6341   42.3148 H   0  0  0  0  0  0  0  0  0  0  0  0
    5.0233   10.8378   46.7214 H   0  0  0  0  0  0  0  0  0  0  0  0
  3 16  1  0
  3 15  1  0
 16 15  1  0
 15 12  1  0
 19  5  1  0
 12 13  2  0
 12 10  1  0
 18  5  1  0
 18  4  2  0
  5  6  2  0
 13  1  1  0
 10  9  2  0
  4  7  1  0
  4 11  1  0
  6  8  1  0
  6 11  1  0
  8 20  1  0
  1 20  1  0
  1 14  2  0
  9 14  1  0
  9 17  1  0
 14  2  1  0
  2 21  1  0
  2 22  1  0
  2 23  1  0
  3 24  1  0
  3 25  1  0
  7 26  1  0
  7 27  1  0
  7 28  1  0
  8 29  1  0
  8 30  1  0
 15 31  1  0
 16 32  1  0
 16 33  1  0
 19 34  1  0
 19 35  1  0
 19 36  1  0
 20 37  1  0
A    1
C3
A    2
C5
A    3
C7
A    4
C9
A    5
C11
A    6
C12
A    7
C13
A    8
C15
A    9
C
A   10
N
A   11
S
A   12
C1
A   13
N2
A   14
C4
A   15
C6
A   16
C8
A   17
CL
A   18
N10
A   19
C14
A   20
N16
M  END
