2RJ7_DA8_A_452
     RDKit          3D

 61 62  0  0  0  0  0  0  0  0999 V2000
   -4.6730   -4.3320    5.8580 C   0  0  0  0  0  0  0  0  0  0  0  0
   -6.2020   -4.2890    5.7990 C   0  0  0  0  0  0  0  0  0  0  0  0
   -6.7580   -5.7450    5.8500 C   0  0  0  0  0  0  0  0  0  0  0  0
   -7.9790   -5.9610    4.9630 C   0  0  0  0  0  0  0  0  0  0  0  0
   -8.6540   -7.3530    4.8900 C   0  0  0  0  0  0  0  0  0  0  0  0
   -8.1220   -8.5070    5.7440 C   0  0  0  0  0  0  0  0  0  0  0  0
   -8.8470   -9.6610    5.5470 O   0  0  0  0  0  0  0  0  0  0  0  0
   -8.3850  -10.7370    6.3650 C   0  0  0  0  0  0  0  0  0  0  0  0
   -7.0300  -11.0680    5.9840 O   0  0  0  0  0  0  0  0  0  0  0  0
   -6.5240  -12.1890    6.7220 C   0  0  0  0  0  0  0  0  0  0  0  0
   -5.0050  -12.3820    6.4460 C   0  0  0  0  0  0  0  0  0  0  0  0
   -4.3170  -11.1660    6.8470 O   0  0  0  0  0  0  0  0  0  0  0  0
   -7.3550  -13.4610    6.4360 C   0  0  0  0  0  0  0  0  0  0  0  0
   -7.3330  -13.7900    5.0320 O   0  0  0  0  0  0  0  0  0  0  0  0
   -8.7890  -13.1990    6.8620 C   0  0  0  0  0  0  0  0  0  0  0  0
   -9.3020  -11.9450    6.1150 C   0  0  0  0  0  0  0  0  0  0  0  0
  -10.6090  -11.6370    6.5590 O   0  0  0  0  0  0  0  0  0  0  0  0
  -11.6210  -12.2450    5.7320 C   0  0  0  0  0  0  0  0  0  0  0  0
  -11.6790  -11.7220    4.3930 O   0  0  0  0  0  0  0  0  0  0  0  0
  -11.9970  -10.2810    4.3380 C   0  0  0  0  0  0  0  0  0  0  0  0
  -11.9550   -9.7950    2.8980 C   0  0  0  0  0  0  0  0  0  0  0  0
  -13.3680  -10.0060    5.0050 C   0  0  0  0  0  0  0  0  0  0  0  0
  -14.4340  -10.5510    4.2230 O   0  0  0  0  0  0  0  0  0  0  0  0
  -13.3720  -10.5690    6.4630 C   0  0  0  0  0  0  0  0  0  0  0  0
  -14.6550  -10.3640    7.1220 O   0  0  0  0  0  0  0  0  0  0  0  0
  -13.0150  -12.0660    6.4370 C   0  0  0  0  0  0  0  0  0  0  0  0
  -12.9470  -12.5160    7.7700 O   0  0  0  0  0  0  0  0  0  0  0  0
   -4.3467   -4.3412    6.9085 H   0  0  0  0  0  0  0  0  0  0  0  0
   -4.3120   -5.2407    5.3540 H   0  0  0  0  0  0  0  0  0  0  0  0
   -4.2615   -3.4451    5.3540 H   0  0  0  0  0  0  0  0  0  0  0  0
   -6.5874   -3.7177    6.6564 H   0  0  0  0  0  0  0  0  0  0  0  0
   -6.5224   -3.8034    4.8654 H   0  0  0  0  0  0  0  0  0  0  0  0
   -5.9641   -6.4326    5.5230 H   0  0  0  0  0  0  0  0  0  0  0  0
   -7.0734   -5.9348    6.8866 H   0  0  0  0  0  0  0  0  0  0  0  0
   -8.7485   -5.2539    5.3064 H   0  0  0  0  0  0  0  0  0  0  0  0
   -7.5780   -5.8240    3.9479 H   0  0  0  0  0  0  0  0  0  0  0  0
   -9.7080   -7.2100    5.1704 H   0  0  0  0  0  0  0  0  0  0  0  0
   -8.4448   -7.6820    3.8614 H   0  0  0  0  0  0  0  0  0  0  0  0
   -7.0720   -8.6951    5.4753 H   0  0  0  0  0  0  0  0  0  0  0  0
   -8.2122   -8.2211    6.8024 H   0  0  0  0  0  0  0  0  0  0  0  0
   -8.4032  -10.4584    7.4290 H   0  0  0  0  0  0  0  0  0  0  0  0
   -6.6296  -11.9863    7.7980 H   0  0  0  0  0  0  0  0  0  0  0  0
   -4.6254  -13.2348    7.0279 H   0  0  0  0  0  0  0  0  0  0  0  0
   -4.8334  -12.5835    5.3783 H   0  0  0  0  0  0  0  0  0  0  0  0
   -4.2876  -11.1140    7.8352 H   0  0  0  0  0  0  0  0  0  0  0  0
   -6.9243  -14.3049    6.9949 H   0  0  0  0  0  0  0  0  0  0  0  0
   -7.2673  -14.7719    4.9241 H   0  0  0  0  0  0  0  0  0  0  0  0
   -9.4162  -14.0657    6.6062 H   0  0  0  0  0  0  0  0  0  0  0  0
   -8.8353  -13.0354    7.9488 H   0  0  0  0  0  0  0  0  0  0  0  0
   -9.3065  -12.1621    5.0366 H   0  0  0  0  0  0  0  0  0  0  0  0
  -11.3555  -13.3070    5.6241 H   0  0  0  0  0  0  0  0  0  0  0  0
  -11.2403   -9.7168    4.9030 H   0  0  0  0  0  0  0  0  0  0  0  0
  -11.8603   -8.6992    2.8835 H   0  0  0  0  0  0  0  0  0  0  0  0
  -11.0923  -10.2444    2.3843 H   0  0  0  0  0  0  0  0  0  0  0  0
  -12.8820  -10.0898    2.3843 H   0  0  0  0  0  0  0  0  0  0  0  0
  -13.5300   -8.9193    5.0577 H   0  0  0  0  0  0  0  0  0  0  0  0
  -15.1345  -10.9091    4.8240 H   0  0  0  0  0  0  0  0  0  0  0  0
  -12.6175  -10.0183    7.0438 H   0  0  0  0  0  0  0  0  0  0  0  0
  -14.5287  -10.3842    8.1037 H   0  0  0  0  0  0  0  0  0  0  0  0
  -13.7696  -12.6449    5.8843 H   0  0  0  0  0  0  0  0  0  0  0  0
  -13.0630  -11.7480    8.3839 H   0  0  0  0  0  0  0  0  0  0  0  0
  1  2  1  0
  2  3  1  0
  3  4  1  0
  4  5  1  0
  5  6  1  0
  6  7  1  0
  7  8  1  0
  8  9  1  0
  8 16  1  0
  9 10  1  0
 10 11  1  0
 10 13  1  0
 11 12  1  0
 13 14  1  0
 13 15  1  0
 15 16  1  0
 16 17  1  0
 17 18  1  0
 18 19  1  0
 18 26  1  0
 19 20  1  0
 20 21  1  0
 20 22  1  0
 22 23  1  0
 22 24  1  0
 24 25  1  0
 24 26  1  0
 26 27  1  0
  1 28  1  0
  1 29  1  0
  1 30  1  0
  2 31  1  0
  2 32  1  0
  3 33  1  0
  3 34  1  0
  4 35  1  0
  4 36  1  0
  5 37  1  0
  5 38  1  0
  6 39  1  0
  6 40  1  0
  8 41  1  0
 10 42  1  0
 11 43  1  0
 11 44  1  0
 12 45  1  0
 13 46  1  0
 14 47  1  0
 15 48  1  0
 15 49  1  0
 16 50  1  0
 18 51  1  0
 20 52  1  0
 21 53  1  0
 21 54  1  0
 21 55  1  0
 22 56  1  0
 23 57  1  0
 24 58  1  0
 25 59  1  0
 26 60  1  0
 27 61  1  0
A    1
C16
A    2
C15
A    3
C14
A    4
C13
A    5
C12
A    6
C11
A    7
O1
A    8
C1
A    9
O5
A   10
C5
A   11
C6
A   12
O6
A   13
C4
A   14
O4
A   15
C3
A   16
C2
A   17
O2
A   18
C1F
A   19
O5F
A   20
C5F
A   21
C6F
A   22
C4F
A   23
O4F
A   24
C3F
A   25
O3F
A   26
C2F
A   27
O2F
M  END
