5C3H_4XE_A_402
     RDKit          3D

 37 38  0  0  0  0  0  0  0  0999 V2000
  -15.2870  -18.9790   -4.9410 C   0  0  0  0  0  0  0  0  0  0  0  0
  -16.5630  -18.9590   -4.1090 C   0  0  0  0  0  0  0  0  0  0  0  0
  -16.4290  -19.2820   -2.6800 N   0  0  0  0  0  0  0  0  0  0  0  0
  -15.7510  -18.2300   -1.9110 C   0  0  0  0  0  0  0  0  0  0  0  0
  -15.8000  -18.5420   -0.4250 C   0  0  0  0  0  0  0  0  0  0  0  0
  -15.8740  -20.9430   -0.9480 C   0  0  0  0  0  0  0  0  0  0  0  0
  -14.1920  -19.0080   -7.0830 C   0  0  0  0  0  0  0  0  0  0  0  0
  -14.4660  -19.5760   -8.4670 C   0  0  0  0  0  0  0  0  0  0  0  0
  -15.5780  -18.8090   -9.1660 C   0  0  0  0  0  0  0  0  0  0  0  0
  -16.8210  -18.7640   -8.3020 C   0  0  0  0  0  0  0  0  0  0  0  0
  -16.5020  -18.1900   -6.9320 C   0  0  0  0  0  0  0  0  0  0  0  0
  -14.1800  -19.0190   -4.4140 O   0  0  0  0  0  0  0  0  0  0  0  0
  -15.1990  -19.8780   -0.1610 N   0  0  0  0  0  0  0  0  0  0  0  0
  -15.8370  -20.6040   -2.4250 C   0  0  0  0  0  0  0  0  0  0  0  0
  -15.4220  -18.9470   -6.2870 N   0  0  0  0  0  0  0  0  0  0  0  0
  -16.9925  -17.9490   -4.1829 H   0  0  0  0  0  0  0  0  0  0  0  0
  -17.1914  -19.7593   -4.5270 H   0  0  0  0  0  0  0  0  0  0  0  0
  -14.7011  -18.1657   -2.2330 H   0  0  0  0  0  0  0  0  0  0  0  0
  -16.2619  -17.2726   -2.0906 H   0  0  0  0  0  0  0  0  0  0  0  0
  -15.2367  -17.7747    0.1263 H   0  0  0  0  0  0  0  0  0  0  0  0
  -16.8489  -18.5480   -0.0935 H   0  0  0  0  0  0  0  0  0  0  0  0
  -16.9207  -21.0288   -0.6208 H   0  0  0  0  0  0  0  0  0  0  0  0
  -15.3508  -21.8967   -0.7849 H   0  0  0  0  0  0  0  0  0  0  0  0
  -13.4621  -19.6504   -6.5686 H   0  0  0  0  0  0  0  0  0  0  0  0
  -13.7961  -17.9878   -7.1950 H   0  0  0  0  0  0  0  0  0  0  0  0
  -14.7637  -20.6305   -8.3696 H   0  0  0  0  0  0  0  0  0  0  0  0
  -13.5493  -19.4858   -9.0683 H   0  0  0  0  0  0  0  0  0  0  0  0
  -15.2387  -17.7817   -9.3646 H   0  0  0  0  0  0  0  0  0  0  0  0
  -15.8211  -19.3193  -10.1097 H   0  0  0  0  0  0  0  0  0  0  0  0
  -17.5778  -18.1328   -8.7907 H   0  0  0  0  0  0  0  0  0  0  0  0
  -17.2018  -19.7883   -8.1764 H   0  0  0  0  0  0  0  0  0  0  0  0
  -16.1897  -17.1413   -7.0444 H   0  0  0  0  0  0  0  0  0  0  0  0
  -17.4026  -18.2567   -6.3039 H   0  0  0  0  0  0  0  0  0  0  0  0
  -15.2903  -20.0940    0.8420 H   0  0  0  0  0  0  0  0  0  0  0  0
  -14.2081  -19.8480   -0.4404 H   0  0  0  0  0  0  0  0  0  0  0  0
  -16.4032  -21.3647   -2.9825 H   0  0  0  0  0  0  0  0  0  0  0  0
  -14.7872  -20.5858   -2.7530 H   0  0  0  0  0  0  0  0  0  0  0  0
  9  8  1  0
  9 10  1  0
  8  7  1  0
 10 11  1  0
  7 15  1  0
 11 15  1  0
 15  1  1  0
  1 12  2  0
  1  2  1  0
  2  3  1  0
  3 14  1  0
  3  4  1  0
 14  6  1  0
  4  5  1  0
  6 13  1  0
  5 13  1  0
  2 16  1  0
  2 17  1  0
  4 18  1  0
  4 19  1  0
  5 20  1  0
  5 21  1  0
  6 22  1  0
  6 23  1  0
  7 24  1  0
  7 25  1  0
  8 26  1  0
  8 27  1  0
  9 28  1  0
  9 29  1  0
 10 30  1  0
 10 31  1  0
 11 32  1  0
 11 33  1  0
 13 34  1  0
 13 35  1  0
 14 36  1  0
 14 37  1  0
M  CHG  1  13   1
A    1
C2
A    2
C3
A    3
N4
A    4
C5
A    5
C6
A    6
C8
A    7
C11
A    8
C12
A    9
C13
A   10
C14
A   11
C15
A   12
O1
A   13
N7
A   14
C9
A   15
N10
M  END
