5C4G_BQR_E_803
     RDKit          3D

 46 48  0  0  0  0  0  0  0  0999 V2000
  -24.5420   16.3200  -41.1340 N   0  0  0  0  0  0  0  0  0  0  0  0
  -23.8830   15.7370  -42.2450 C   0  0  0  0  0  0  0  0  0  0  0  0
  -16.9740   11.2060  -39.0390 C   0  0  0  0  0  0  0  0  0  0  0  0
  -14.2720   13.7350  -35.5970 C   0  0  0  0  0  0  0  0  0  0  0  0
  -17.0790   13.1930  -37.7810 C   0  0  0  0  0  0  0  0  0  0  0  0
  -16.3940   13.4280  -36.6000 C   0  0  0  0  0  0  0  0  0  0  0  0
  -18.3790   13.6480  -37.9320 C   0  0  0  0  0  0  0  0  0  0  0  0
  -17.0120   14.1160  -35.5680 C   0  0  0  0  0  0  0  0  0  0  0  0
  -18.9950   14.3420  -36.9030 C   0  0  0  0  0  0  0  0  0  0  0  0
  -18.3150   14.5710  -35.7180 C   0  0  0  0  0  0  0  0  0  0  0  0
  -20.4190   14.8270  -37.0670 C   0  0  0  0  0  0  0  0  0  0  0  0
  -20.9390   15.0380  -38.3370 C   0  0  0  0  0  0  0  0  0  0  0  0
  -21.2060   15.0480  -35.9450 C   0  0  0  0  0  0  0  0  0  0  0  0
  -22.2520   15.4770  -38.4700 C   0  0  0  0  0  0  0  0  0  0  0  0
  -24.0340   16.1110  -39.8280 C   0  0  0  0  0  0  0  0  0  0  0  0
  -22.9010   12.0620  -42.7580 C   0  0  0  0  0  0  0  0  0  0  0  0
  -22.5100   15.4850  -36.0890 C   0  0  0  0  0  0  0  0  0  0  0  0
  -23.0280   15.6970  -37.3490 C   0  0  0  0  0  0  0  0  0  0  0  0
  -24.8360   16.3400  -38.7140 C   0  0  0  0  0  0  0  0  0  0  0  0
  -23.8910   14.2280  -42.1420 C   0  0  0  0  0  0  0  0  0  0  0  0
  -24.7300   13.6610  -41.4680 O   0  0  0  0  0  0  0  0  0  0  0  0
  -22.7830   15.6920  -39.6640 N   0  0  0  0  0  0  0  0  0  0  0  0
  -22.9110   13.4780  -42.8410 N   0  0  0  0  0  0  0  0  0  0  0  0
  -24.3040   16.1240  -37.4860 N   0  0  0  0  0  0  0  0  0  0  0  0
  -16.4590   12.4970  -38.8330 O   0  0  0  0  0  0  0  0  0  0  0  0
  -15.0750   12.9630  -36.4540 O   0  0  0  0  0  0  0  0  0  0  0  0
  -25.3862   16.8929  -41.2753 H   0  0  0  0  0  0  0  0  0  0  0  0
  -22.8420   16.0912  -42.2736 H   0  0  0  0  0  0  0  0  0  0  0  0
  -24.4123   16.0309  -43.1634 H   0  0  0  0  0  0  0  0  0  0  0  0
  -17.1647   10.7279  -38.0669 H   0  0  0  0  0  0  0  0  0  0  0  0
  -17.9144   11.2725  -39.6057 H   0  0  0  0  0  0  0  0  0  0  0  0
  -16.2460   10.6069  -39.6057 H   0  0  0  0  0  0  0  0  0  0  0  0
  -14.5184   13.4981  -34.5514 H   0  0  0  0  0  0  0  0  0  0  0  0
  -13.2121   13.5081  -35.7844 H   0  0  0  0  0  0  0  0  0  0  0  0
  -14.4570   14.8030  -35.7844 H   0  0  0  0  0  0  0  0  0  0  0  0
  -18.9224   13.4582  -38.8694 H   0  0  0  0  0  0  0  0  0  0  0  0
  -16.4697   14.3018  -34.6292 H   0  0  0  0  0  0  0  0  0  0  0  0
  -18.8070   15.1128  -34.8968 H   0  0  0  0  0  0  0  0  0  0  0  0
  -20.3193   14.8599  -39.2282 H   0  0  0  0  0  0  0  0  0  0  0  0
  -20.7920   14.8754  -34.9406 H   0  0  0  0  0  0  0  0  0  0  0  0
  -22.8988   11.7567  -41.7012 H   0  0  0  0  0  0  0  0  0  0  0  0
  -23.7963   11.6593  -43.2542 H   0  0  0  0  0  0  0  0  0  0  0  0
  -22.0001   11.6720  -43.2542 H   0  0  0  0  0  0  0  0  0  0  0  0
  -23.1328   15.6631  -35.2000 H   0  0  0  0  0  0  0  0  0  0  0  0
  -25.8737   16.6870  -38.8269 H   0  0  0  0  0  0  0  0  0  0  0  0
  -22.2038   13.9634  -43.4111 H   0  0  0  0  0  0  0  0  0  0  0  0
 23 16  1  0
 23 20  1  0
  2 20  1  0
  2  1  1  0
 20 21  2  0
  1 15  1  0
 15 22  2  0
 15 19  1  0
 22 14  1  0
  3 25  1  0
 25  5  1  0
 19 24  2  0
 14 12  2  0
 14 18  1  0
 12 11  1  0
  7  5  2  0
  7  9  1  0
  5  6  1  0
 24 18  1  0
 18 17  2  0
 11  9  1  0
 11 13  2  0
  9 10  2  0
  6 26  1  0
  6  8  2  0
 26  4  1  0
 17 13  1  0
 10  8  1  0
  1 27  1  0
  2 28  1  0
  2 29  1  0
  3 30  1  0
  3 31  1  0
  3 32  1  0
  4 33  1  0
  4 34  1  0
  4 35  1  0
  7 36  1  0
  8 37  1  0
 10 38  1  0
 12 39  1  0
 13 40  1  0
 16 41  1  0
 16 42  1  0
 16 43  1  0
 17 44  1  0
 19 45  1  0
 23 46  1  0
A    1
N
A    2
CA
A    3
CAA
A    4
CAB
A    5
CAE
A    6
CAF
A    7
CAG
A    8
CAH
A    9
CAI
A   10
CAJ
A   11
CAK
A   12
CAL
A   13
CAN
A   14
CAO
A   15
CAQ
A   16
CAV
A   17
CAW
A   18
CAX
A   19
CAZ
A   20
C
A   21
O
A   22
NAP
A   23
NAU
A   24
NAY
A   25
OAC
A   26
OAD
M  END
