5C7C_4YC_A_402
     RDKit          3D

 47 49  0  0  0  0  0  0  0  0999 V2000
  -15.2520  -21.3420   -0.6490 C   0  0  0  0  0  0  0  0  0  0  0  0
  -15.6980  -19.9800   -1.1620 C   0  0  0  0  0  0  0  0  0  0  0  0
  -15.6570  -19.8880   -2.6840 C   0  0  0  0  0  0  0  0  0  0  0  0
  -16.0320  -18.5500   -3.1630 N   0  0  0  0  0  0  0  0  0  0  0  0
  -16.1670  -18.4730   -4.6270 C   0  0  0  0  0  0  0  0  0  0  0  0
  -14.9210  -18.7960   -5.4400 C   0  0  0  0  0  0  0  0  0  0  0  0
  -15.9480  -18.4970   -9.0110 C   0  0  0  0  0  0  0  0  0  0  0  0
  -16.9030  -19.2620   -9.9190 C   0  0  0  0  0  0  0  0  0  0  0  0
  -15.9450  -17.0320   -9.4230 C   0  0  0  0  0  0  0  0  0  0  0  0
  -14.5400  -19.0640   -9.0320 C   0  0  0  0  0  0  0  0  0  0  0  0
  -13.7460  -19.4040  -10.1130 C   0  0  0  0  0  0  0  0  0  0  0  0
  -12.4720  -19.9130   -9.9010 C   0  0  0  0  0  0  0  0  0  0  0  0
  -12.0050  -20.0770   -8.6120 C   0  0  0  0  0  0  0  0  0  0  0  0
  -14.0560  -19.2350   -7.7420 C   0  0  0  0  0  0  0  0  0  0  0  0
  -15.1720  -17.5550   -1.0820 C   0  0  0  0  0  0  0  0  0  0  0  0
  -13.8530  -19.0250   -4.8890 O   0  0  0  0  0  0  0  0  0  0  0  0
  -15.0450  -18.8200   -6.8180 N   0  0  0  0  0  0  0  0  0  0  0  0
  -16.3400  -18.6540   -7.5290 C   0  0  0  0  0  0  0  0  0  0  0  0
  -10.4060  -20.7160   -8.3560 Cl  0  0  0  0  0  0  0  0  0  0  0  0
  -12.7840  -19.7430   -7.5210 C   0  0  0  0  0  0  0  0  0  0  0  0
  -15.1470  -17.5190   -2.6020 C   0  0  0  0  0  0  0  0  0  0  0  0
  -14.8060  -18.9120   -0.5960 N   0  0  0  0  0  0  0  0  0  0  0  0
  -15.2533  -21.3379    0.4510 H   0  0  0  0  0  0  0  0  0  0  0  0
  -15.9437  -22.1157   -1.0136 H   0  0  0  0  0  0  0  0  0  0  0  0
  -14.2366  -21.5567   -1.0136 H   0  0  0  0  0  0  0  0  0  0  0  0
  -16.7398  -19.8392   -0.8381 H   0  0  0  0  0  0  0  0  0  0  0  0
  -16.3574  -20.6251   -3.1037 H   0  0  0  0  0  0  0  0  0  0  0  0
  -14.6260  -20.0899   -3.0099 H   0  0  0  0  0  0  0  0  0  0  0  0
  -16.4760  -17.4483   -4.8811 H   0  0  0  0  0  0  0  0  0  0  0  0
  -16.8992  -19.2493   -4.8940 H   0  0  0  0  0  0  0  0  0  0  0  0
  -17.6151  -19.8325   -9.3047 H   0  0  0  0  0  0  0  0  0  0  0  0
  -17.4532  -18.5519  -10.5539 H   0  0  0  0  0  0  0  0  0  0  0  0
  -16.3301  -19.9539  -10.5539 H   0  0  0  0  0  0  0  0  0  0  0  0
  -15.9437  -16.3983   -8.5239 H   0  0  0  0  0  0  0  0  0  0  0  0
  -15.0464  -16.8212  -10.0214 H   0  0  0  0  0  0  0  0  0  0  0  0
  -16.8427  -16.8176  -10.0214 H   0  0  0  0  0  0  0  0  0  0  0  0
  -14.1233  -19.2713  -11.1377 H   0  0  0  0  0  0  0  0  0  0  0  0
  -11.8367  -20.1847  -10.7569 H   0  0  0  0  0  0  0  0  0  0  0  0
  -14.4525  -16.8216   -0.6890 H   0  0  0  0  0  0  0  0  0  0  0  0
  -16.1858  -17.3093   -0.7331 H   0  0  0  0  0  0  0  0  0  0  0  0
  -16.8691  -17.7590   -7.1697 H   0  0  0  0  0  0  0  0  0  0  0  0
  -17.0203  -19.5024   -7.3635 H   0  0  0  0  0  0  0  0  0  0  0  0
  -12.4034  -19.8771   -6.4977 H   0  0  0  0  0  0  0  0  0  0  0  0
  -14.1190  -17.6978   -2.9501 H   0  0  0  0  0  0  0  0  0  0  0  0
  -15.4985  -16.5320   -2.9372 H   0  0  0  0  0  0  0  0  0  0  0  0
  -14.8814  -18.9275    0.4311 H   0  0  0  0  0  0  0  0  0  0  0  0
  -13.8435  -19.1086   -0.9055 H   0  0  0  0  0  0  0  0  0  0  0  0
 11 12  1  0
 11 10  2  0
  8  7  1  0
 12 13  2  0
  9  7  1  0
 10  7  1  0
 10 14  1  0
  7 18  1  0
 13 19  1  0
 13 20  1  0
 14 20  2  0
 14 17  1  0
 18 17  1  0
 17  6  1  0
  6 16  2  0
  6  5  1  0
  5  4  1  0
  4  3  1  0
  4 21  1  0
  3  2  1  0
 21 15  1  0
  2  1  1  0
  2 22  1  0
 15 22  1  0
  1 23  1  0
  1 24  1  0
  1 25  1  0
  2 26  1  0
  3 27  1  0
  3 28  1  0
  5 29  1  0
  5 30  1  0
  8 31  1  0
  8 32  1  0
  8 33  1  0
  9 34  1  0
  9 35  1  0
  9 36  1  0
 11 37  1  0
 12 38  1  0
 15 39  1  0
 15 40  1  0
 18 41  1  0
 18 42  1  0
 20 43  1  0
 21 44  1  0
 21 45  1  0
 22 46  1  0
 22 47  1  0
M  CHG  1  22   1
A    1
C1
A    2
C2
A    3
C3
A    4
N4
A    5
C5
A    6
C6
A    7
C10
A    8
C11
A    9
C12
A   10
C13
A   11
C14
A   12
C15
A   13
C16
A   14
C19
A   15
C21
A   16
O7
A   17
N8
A   18
C9
A   19
CL1
A   20
C18
A   21
C20
A   22
N22
M  END
