5C7D_4YF_A_402
     RDKit          3D

 40 42  0  0  0  0  0  0  0  0999 V2000
  -15.4820  -21.5650   -0.3400 C   0  0  0  0  0  0  0  0  0  0  0  0
  -15.9400  -20.1800   -0.7710 C   0  0  0  0  0  0  0  0  0  0  0  0
  -15.9310  -20.0100   -2.2880 C   0  0  0  0  0  0  0  0  0  0  0  0
  -16.2950  -18.6450   -2.6870 N   0  0  0  0  0  0  0  0  0  0  0  0
  -16.4840  -18.4850   -4.1340 C   0  0  0  0  0  0  0  0  0  0  0  0
  -15.2970  -18.8430   -5.0100 C   0  0  0  0  0  0  0  0  0  0  0  0
  -16.6400  -18.9460   -8.4410 C   0  0  0  0  0  0  0  0  0  0  0  0
  -15.1740  -19.2430   -8.5910 C   0  0  0  0  0  0  0  0  0  0  0  0
  -14.4120  -19.5530   -9.6980 C   0  0  0  0  0  0  0  0  0  0  0  0
  -12.5370  -19.7120   -8.4210 C   0  0  0  0  0  0  0  0  0  0  0  0
  -13.1920  -19.4140   -7.2590 C   0  0  0  0  0  0  0  0  0  0  0  0
  -15.3910  -17.7610   -0.5850 C   0  0  0  0  0  0  0  0  0  0  0  0
  -14.2060  -19.1140   -4.5200 O   0  0  0  0  0  0  0  0  0  0  0  0
  -15.5010  -18.8470   -6.3700 N   0  0  0  0  0  0  0  0  0  0  0  0
  -16.7530  -18.4000   -7.0340 C   0  0  0  0  0  0  0  0  0  0  0  0
  -13.1010  -19.7860   -9.6150 N   0  0  0  0  0  0  0  0  0  0  0  0
  -10.8280  -20.0240   -8.3680 Cl  0  0  0  0  0  0  0  0  0  0  0  0
  -14.5440  -19.1750   -7.3570 C   0  0  0  0  0  0  0  0  0  0  0  0
  -15.3800  -17.6570   -2.1000 C   0  0  0  0  0  0  0  0  0  0  0  0
  -15.0380  -19.1430   -0.1660 N   0  0  0  0  0  0  0  0  0  0  0  0
  -15.4639  -21.6199    0.7585 H   0  0  0  0  0  0  0  0  0  0  0  0
  -16.1782  -22.3203   -0.7334 H   0  0  0  0  0  0  0  0  0  0  0  0
  -14.4727  -21.7564   -0.7334 H   0  0  0  0  0  0  0  0  0  0  0  0
  -16.9752  -20.0561   -0.4203 H   0  0  0  0  0  0  0  0  0  0  0  0
  -16.6520  -20.7139   -2.7292 H   0  0  0  0  0  0  0  0  0  0  0  0
  -14.9110  -20.2103   -2.6479 H   0  0  0  0  0  0  0  0  0  0  0  0
  -16.7359  -17.4314   -4.3248 H   0  0  0  0  0  0  0  0  0  0  0  0
  -17.2763  -19.1975   -4.4073 H   0  0  0  0  0  0  0  0  0  0  0  0
  -16.9664  -18.1987   -9.1792 H   0  0  0  0  0  0  0  0  0  0  0  0
  -17.2733  -19.8298   -8.6076 H   0  0  0  0  0  0  0  0  0  0  0  0
  -14.9012  -19.6100  -10.6816 H   0  0  0  0  0  0  0  0  0  0  0  0
  -12.6654  -19.3675   -6.2944 H   0  0  0  0  0  0  0  0  0  0  0  0
  -14.6583  -17.0554   -0.1664 H   0  0  0  0  0  0  0  0  0  0  0  0
  -16.3978  -17.5182   -0.2144 H   0  0  0  0  0  0  0  0  0  0  0  0
  -16.8184  -17.3020   -7.0453 H   0  0  0  0  0  0  0  0  0  0  0  0
  -17.6558  -18.7543   -6.5149 H   0  0  0  0  0  0  0  0  0  0  0  0
  -14.3605  -17.8429   -2.4688 H   0  0  0  0  0  0  0  0  0  0  0  0
  -15.7088  -16.6485   -2.3912 H   0  0  0  0  0  0  0  0  0  0  0  0
  -15.1071  -19.2041    0.8599 H   0  0  0  0  0  0  0  0  0  0  0  0
  -14.0807  -19.3330   -0.4952 H   0  0  0  0  0  0  0  0  0  0  0  0
  9 16  1  0
  9  8  2  0
 16 10  2  0
  8  7  1  0
  8 18  1  0
  7 15  1  0
 10 17  1  0
 10 11  1  0
 18 11  2  0
 18 14  1  0
 15 14  1  0
 14  6  1  0
  6 13  2  0
  6  5  1  0
  5  4  1  0
  4  3  1  0
  4 19  1  0
  3  2  1  0
 19 12  1  0
  2  1  1  0
  2 20  1  0
 12 20  1  0
  1 21  1  0
  1 22  1  0
  1 23  1  0
  2 24  1  0
  3 25  1  0
  3 26  1  0
  5 27  1  0
  5 28  1  0
  7 29  1  0
  7 30  1  0
  9 31  1  0
 11 32  1  0
 12 33  1  0
 12 34  1  0
 15 35  1  0
 15 36  1  0
 19 37  1  0
 19 38  1  0
 20 39  1  0
 20 40  1  0
M  CHG  1  20   1
A    1
C1
A    2
C2
A    3
C3
A    4
N4
A    5
C5
A    6
C6
A    7
C10
A    8
C11
A    9
C12
A   10
C14
A   11
C16
A   12
C19
A   13
O7
A   14
N8
A   15
C9
A   16
N13
A   17
CL
A   18
C17
A   19
C18
A   20
N20
M  END
