5C4Q_BMF_A_201
     RDKit          3D

 42 44  0  0  0  0  0  0  0  0999 V2000
   -0.6740   21.8930   50.2950 C   0  0  0  0  0  0  0  0  0  0  0  0
   -2.8880   22.2850   49.4760 N   0  0  0  0  0  0  0  0  0  0  0  0
   -3.9230   23.2010   51.9910 C   0  0  0  0  0  0  0  0  0  0  0  0
   -3.8960   23.2740   54.4920 C   0  0  0  0  0  0  0  0  0  0  0  0
   -2.5980   22.8110   51.8250 C   0  0  0  0  0  0  0  0  0  0  0  0
   -4.8770   22.2690   47.3130 C   0  0  0  0  0  0  0  0  0  0  0  0
    1.5220   21.1280   51.0690 C   0  0  0  0  0  0  0  0  0  0  0  0
    3.4320   20.5500   49.5300 C   0  0  0  0  0  0  0  0  0  0  0  0
    2.0180   21.0090   49.7540 C   0  0  0  0  0  0  0  0  0  0  0  0
    1.1520   21.3440   48.7060 C   0  0  0  0  0  0  0  0  0  0  0  0
    1.5770   21.2350   47.3290 N   0  0  0  0  0  0  0  0  0  0  0  0
    0.8160   20.2550   46.1950 S   0  0  0  0  0  0  0  0  0  0  0  0
    1.3600   18.6800   46.4830 C   0  0  0  0  0  0  0  0  0  0  0  0
   -0.5660   20.3060   46.5190 O   0  0  0  0  0  0  0  0  0  0  0  0
    1.2250   20.6670   44.9000 O   0  0  0  0  0  0  0  0  0  0  0  0
   -0.1670   21.7640   48.9960 C   0  0  0  0  0  0  0  0  0  0  0  0
   -2.0820   22.3430   50.5470 C   0  0  0  0  0  0  0  0  0  0  0  0
   -4.1770   22.6750   49.6850 N   0  0  0  0  0  0  0  0  0  0  0  0
   -4.7620   23.1350   50.8760 C   0  0  0  0  0  0  0  0  0  0  0  0
   -4.4860   23.6640   53.2500 N   0  0  0  0  0  0  0  0  0  0  0  0
   -4.6280   23.8240   55.5380 O   0  0  0  0  0  0  0  0  0  0  0  0
   -2.9380   22.5950   54.6100 O   0  0  0  0  0  0  0  0  0  0  0  0
   -6.0640   23.4150   50.6040 N   0  0  0  0  0  0  0  0  0  0  0  0
   -6.2950   23.1480   49.2960 N   0  0  0  0  0  0  0  0  0  0  0  0
   -5.1620   22.6880   48.7020 C   0  0  0  0  0  0  0  0  0  0  0  0
    0.1990   21.5570   51.3380 C   0  0  0  0  0  0  0  0  0  0  0  0
   -1.9177   22.8579   52.6882 H   0  0  0  0  0  0  0  0  0  0  0  0
   -4.2584   21.3595   47.3240 H   0  0  0  0  0  0  0  0  0  0  0  0
   -5.8229   22.0628   46.7908 H   0  0  0  0  0  0  0  0  0  0  0  0
   -4.3377   23.0730   46.7908 H   0  0  0  0  0  0  0  0  0  0  0  0
    2.1833   20.8799   51.9122 H   0  0  0  0  0  0  0  0  0  0  0  0
    3.9238   20.3903   50.5009 H   0  0  0  0  0  0  0  0  0  0  0  0
    3.4261   19.6076   48.9626 H   0  0  0  0  0  0  0  0  0  0  0  0
    3.9807   21.3162   48.9626 H   0  0  0  0  0  0  0  0  0  0  0  0
    2.3911   21.7883   47.0258 H   0  0  0  0  0  0  0  0  0  0  0  0
    1.4203   18.5054   47.5674 H   0  0  0  0  0  0  0  0  0  0  0  0
    0.6579   17.9618   46.0345 H   0  0  0  0  0  0  0  0  0  0  0  0
    2.3557   18.5482   46.0345 H   0  0  0  0  0  0  0  0  0  0  0  0
   -0.8324   22.0029   48.1533 H   0  0  0  0  0  0  0  0  0  0  0  0
   -5.3143   24.2762   53.2463 H   0  0  0  0  0  0  0  0  0  0  0  0
   -4.3729   23.6323   56.4752 H   0  0  0  0  0  0  0  0  0  0  0  0
   -0.1475   21.6273   52.3796 H   0  0  0  0  0  0  0  0  0  0  0  0
 13 12  1  0
 15 12  2  0
 12 14  2  0
 12 11  1  0
 11 10  1  0
  8  9  1  0
 10  9  1  0
 10 16  2  0
  9  7  2  0
 16  1  1  0
  7 26  1  0
  1 26  2  0
  1 17  1  0
 22  4  2  0
  5 17  1  0
  5  3  2  0
 17  2  2  0
  4 21  1  0
  4 20  1  0
  3 20  1  0
  3 19  1  0
  2 18  1  0
 18 19  1  0
 18 25  1  0
 19 23  2  0
 25  6  1  0
 25 24  2  0
 23 24  1  0
  5 27  1  0
  6 28  1  0
  6 29  1  0
  6 30  1  0
  7 31  1  0
  8 32  1  0
  8 33  1  0
  8 34  1  0
 11 35  1  0
 13 36  1  0
 13 37  1  0
 13 38  1  0
 16 39  1  0
 20 40  1  0
 21 41  1  0
 26 42  1  0
A    1
C10
A    2
N12
A    3
C15
A    4
C17
A    5
C22
A    6
C26
A    7
C28
A    8
C01
A    9
C02
A   10
C03
A   11
N04
A   12
S05
A   13
C06
A   14
O07
A   15
O08
A   16
C09
A   17
C11
A   18
N13
A   19
C14
A   20
N16
A   21
O18
A   22
O21
A   23
N23
A   24
N24
A   25
C25
A   26
C27
M  END
