5C87_4YS_A_802
     RDKit          3D

 18 19  0  0  0  0  0  0  0  0999 V2000
    7.9260  -11.3340    3.7080 C   0  0  0  0  0  0  0  0  0  0  0  0
    6.6690  -10.7760    3.5010 C   0  0  0  0  0  0  0  0  0  0  0  0
    5.7510  -11.4340    2.6930 C   0  0  0  0  0  0  0  0  0  0  0  0
    6.0820  -12.6460    2.0910 C   0  0  0  0  0  0  0  0  0  0  0  0
    7.3390  -13.2060    2.2920 C   0  0  0  0  0  0  0  0  0  0  0  0
    8.2580  -12.5450    3.1070 C   0  0  0  0  0  0  0  0  0  0  0  0
    9.5150  -13.1010    3.3210 C   0  0  0  0  0  0  0  0  0  0  0  0
    9.8370  -14.3120    2.7150 C   0  0  0  0  0  0  0  0  0  0  0  0
    8.8960  -14.9650    1.9050 N   0  0  0  0  0  0  0  0  0  0  0  0
    7.6880  -14.4270    1.7050 C   0  0  0  0  0  0  0  0  0  0  0  0
    6.7680  -15.0560    0.9140 O   0  0  0  0  0  0  0  0  0  0  0  0
    8.6581  -10.8183    4.3468 H   0  0  0  0  0  0  0  0  0  0  0  0
    6.4036   -9.8192    3.9744 H   0  0  0  0  0  0  0  0  0  0  0  0
    4.7560  -10.9954    2.5272 H   0  0  0  0  0  0  0  0  0  0  0  0
    5.3472  -13.1614    1.4550 H   0  0  0  0  0  0  0  0  0  0  0  0
   10.2471  -12.5888    3.9626 H   0  0  0  0  0  0  0  0  0  0  0  0
   10.8305  -14.7575    2.8714 H   0  0  0  0  0  0  0  0  0  0  0  0
    9.1366  -15.8632    1.4621 H   0  0  0  0  0  0  0  0  0  0  0  0
 11 10  2  0
 10  9  1  0
 10  5  1  0
  9  8  1  0
  4  5  2  0
  4  3  1  0
  5  6  1  0
  3  2  2  0
  8  7  2  0
  6  7  1  0
  6  1  2  0
  2  1  1  0
  1 12  1  0
  2 13  1  0
  3 14  1  0
  4 15  1  0
  7 16  1  0
  8 17  1  0
  9 18  1  0
A    1
CAE
A    2
CAB
A    3
CAC
A    4
CAF
A    5
CAK
A    6
CAJ
A    7
CAG
A    8
CAD
A    9
NAH
A   10
CAI
A   11
OAA
M  END
