5C8N_4YX_A_1102
     RDKit          3D

 63 66  0  0  0  0  0  0  0  0999 V2000
  -52.7300    1.3400  -19.7870 C   0  0  0  0  0  0  0  0  0  0  0  0
  -53.7190    2.2970  -19.9760 C   0  0  0  0  0  0  0  0  0  0  0  0
  -50.7840   -1.2780  -21.3360 C   0  0  0  0  0  0  0  0  0  0  0  0
  -53.9970    1.6700  -22.2130 C   0  0  0  0  0  0  0  0  0  0  0  0
  -53.0060    0.7000  -22.1340 C   0  0  0  0  0  0  0  0  0  0  0  0
  -52.3660    0.5340  -20.8950 C   0  0  0  0  0  0  0  0  0  0  0  0
  -49.3450   -0.9350  -21.6970 C   0  0  0  0  0  0  0  0  0  0  0  0
  -51.0860   -2.7420  -21.0570 C   0  0  0  0  0  0  0  0  0  0  0  0
  -51.9620    0.9610  -18.7290 N   0  0  0  0  0  0  0  0  0  0  0  0
  -50.2140   -0.6470  -18.1260 C   0  0  0  0  0  0  0  0  0  0  0  0
  -51.1810   -0.0150  -19.0960 C   0  0  0  0  0  0  0  0  0  0  0  0
  -54.3050    2.4290  -21.1600 N   0  0  0  0  0  0  0  0  0  0  0  0
  -51.3890   -0.3070  -20.4310 N   0  0  0  0  0  0  0  0  0  0  0  0
  -54.6960    1.9350  -23.3780 N   0  0  0  0  0  0  0  0  0  0  0  0
  -54.7860    1.1170  -24.4820 C   0  0  0  0  0  0  0  0  0  0  0  0
  -55.9270    1.2060  -25.2850 C   0  0  0  0  0  0  0  0  0  0  0  0
  -55.9870    0.3840  -26.4020 C   0  0  0  0  0  0  0  0  0  0  0  0
  -54.9710   -0.4310  -26.6580 N   0  0  0  0  0  0  0  0  0  0  0  0
  -53.8910   -0.4730  -25.8910 C   0  0  0  0  0  0  0  0  0  0  0  0
  -53.8000    0.2860  -24.8160 N   0  0  0  0  0  0  0  0  0  0  0  0
  -52.8520   -1.3450  -26.1790 N   0  0  0  0  0  0  0  0  0  0  0  0
  -52.5660   -1.6570  -27.5970 C   0  0  0  0  0  0  0  0  0  0  0  0
  -51.9310   -3.0490  -27.6180 C   0  0  0  0  0  0  0  0  0  0  0  0
  -50.6760   -3.1080  -26.7170 C   0  0  0  0  0  0  0  0  0  0  0  0
  -50.9320   -2.5400  -25.3000 C   0  0  0  0  0  0  0  0  0  0  0  0
  -51.6460   -1.1690  -25.3540 C   0  0  0  0  0  0  0  0  0  0  0  0
  -50.2630   -4.5790  -26.5570 C   0  0  0  0  0  0  0  0  0  0  0  0
  -49.7130   -5.1270  -27.8850 C   0  0  0  0  0  0  0  0  0  0  0  0
  -49.1760   -6.4810  -27.7120 N   0  0  0  0  0  0  0  0  0  0  0  0
  -49.6490   -2.3510  -27.3940 O   0  0  0  0  0  0  0  0  0  0  0  0
  -48.4320   -2.0840  -26.6810 C   0  0  0  0  0  0  0  0  0  0  0  0
  -54.0179    2.9481  -19.1413 H   0  0  0  0  0  0  0  0  0  0  0  0
  -51.3363   -1.1584  -22.2798 H   0  0  0  0  0  0  0  0  0  0  0  0
  -52.7337    0.0871  -23.0059 H   0  0  0  0  0  0  0  0  0  0  0  0
  -48.7593   -0.7954  -20.7764 H   0  0  0  0  0  0  0  0  0  0  0  0
  -48.9098   -1.7546  -22.2877 H   0  0  0  0  0  0  0  0  0  0  0  0
  -49.3263   -0.0072  -22.2877 H   0  0  0  0  0  0  0  0  0  0  0  0
  -51.1204   -2.9086  -19.9702 H   0  0  0  0  0  0  0  0  0  0  0  0
  -52.0577   -3.0067  -21.4995 H   0  0  0  0  0  0  0  0  0  0  0  0
  -50.2984   -3.3696  -21.4995 H   0  0  0  0  0  0  0  0  0  0  0  0
  -50.5372   -0.4358  -17.0960 H   0  0  0  0  0  0  0  0  0  0  0  0
  -50.1912   -1.7349  -18.2873 H   0  0  0  0  0  0  0  0  0  0  0  0
  -49.2085   -0.2312  -18.2873 H   0  0  0  0  0  0  0  0  0  0  0  0
  -55.1985    2.8329  -23.4236 H   0  0  0  0  0  0  0  0  0  0  0  0
  -56.7449    1.9000  -25.0413 H   0  0  0  0  0  0  0  0  0  0  0  0
  -56.8640    0.4077  -27.0655 H   0  0  0  0  0  0  0  0  0  0  0  0
  -51.8696   -0.9157  -28.0159 H   0  0  0  0  0  0  0  0  0  0  0  0
  -53.4840   -1.6302  -28.2024 H   0  0  0  0  0  0  0  0  0  0  0  0
  -52.6660   -3.7835  -27.2571 H   0  0  0  0  0  0  0  0  0  0  0  0
  -51.6279   -3.2766  -28.6506 H   0  0  0  0  0  0  0  0  0  0  0  0
  -51.5612   -3.2479  -24.7404 H   0  0  0  0  0  0  0  0  0  0  0  0
  -49.9594   -2.4010  -24.8053 H   0  0  0  0  0  0  0  0  0  0  0  0
  -50.9846   -0.4160  -25.8074 H   0  0  0  0  0  0  0  0  0  0  0  0
  -51.9084   -0.8226  -24.3435 H   0  0  0  0  0  0  0  0  0  0  0  0
  -51.1396   -5.1712  -26.2554 H   0  0  0  0  0  0  0  0  0  0  0  0
  -49.4785   -4.6487  -25.7890 H   0  0  0  0  0  0  0  0  0  0  0  0
  -48.9109   -4.4648  -28.2429 H   0  0  0  0  0  0  0  0  0  0  0  0
  -50.5346   -5.1662  -28.6154 H   0  0  0  0  0  0  0  0  0  0  0  0
  -49.0925   -6.6915  -26.7072 H   0  0  0  0  0  0  0  0  0  0  0  0
  -49.8109   -7.1612  -28.1537 H   0  0  0  0  0  0  0  0  0  0  0  0
  -48.6243   -2.1262  -25.5988 H   0  0  0  0  0  0  0  0  0  0  0  0
  -47.6771   -2.8379  -26.9489 H   0  0  0  0  0  0  0  0  0  0  0  0
  -48.0620   -1.0833  -26.9489 H   0  0  0  0  0  0  0  0  0  0  0  0
 28 29  1  0
 28 27  1  0
 23 22  1  0
 23 24  1  0
 22 21  1  0
 30 24  1  0
 30 31  1  0
 24 27  1  0
 24 25  1  0
 18 17  1  0
 18 19  2  0
 17 16  2  0
 21 19  1  0
 21 26  1  0
 19 20  1  0
 26 25  1  0
 16 15  1  0
 20 15  2  0
 15 14  1  0
 14  4  1  0
  4  5  2  0
  4 12  1  0
  5  6  1  0
  7  3  1  0
  3  8  1  0
  3 13  1  0
 12  2  2  0
  6 13  1  0
  6  1  2  0
 13 11  1  0
  2  1  1  0
  1  9  1  0
 11  9  2  0
 11 10  1  0
  2 32  1  0
  3 33  1  0
  5 34  1  0
  7 35  1  0
  7 36  1  0
  7 37  1  0
  8 38  1  0
  8 39  1  0
  8 40  1  0
 10 41  1  0
 10 42  1  0
 10 43  1  0
 14 44  1  0
 16 45  1  0
 17 46  1  0
 22 47  1  0
 22 48  1  0
 23 49  1  0
 23 50  1  0
 25 51  1  0
 25 52  1  0
 26 53  1  0
 26 54  1  0
 27 55  1  0
 27 56  1  0
 28 57  1  0
 28 58  1  0
 29 59  1  0
 29 60  1  0
 31 61  1  0
 31 62  1  0
 31 63  1  0
A    1
C4
A    2
C5
A    3
C11
A    4
C7
A    5
C8
A    6
C9
A    7
C12
A    8
C13
A    9
N3
A   10
C1
A   11
C2
A   12
N6
A   13
N10
A   14
N14
A   15
C15
A   16
C16
A   17
C17
A   18
N18
A   19
C19
A   20
N20
A   21
N21
A   22
C22
A   23
C23
A   24
C24
A   25
C25
A   26
C26
A   27
C27
A   28
C28
A   29
N29
A   30
O30
A   31
C31
M  END
