5C9C_4Z5_A_900
     RDKit          3D

 60 62  0  0  0  0  0  0  0  0999 V2000
   -4.0160   25.4460    6.0250 O   0  0  0  0  0  0  0  0  0  0  0  0
   -2.8380   25.7850    6.1930 C   0  0  0  0  0  0  0  0  0  0  0  0
   -2.0060   26.1340    5.1940 N   0  0  0  0  0  0  0  0  0  0  0  0
   -2.3320   26.1870    3.7630 C   0  0  0  0  0  0  0  0  0  0  0  0
   -2.9940   27.5180    3.3950 C   0  0  0  0  0  0  0  0  0  0  0  0
   -3.1960   27.8710    1.9290 C   0  0  0  0  0  0  0  0  0  0  0  0
   -3.7010   29.2940    1.9480 C   0  0  0  0  0  0  0  0  0  0  0  0
   -4.3090   27.0430    1.3140 C   0  0  0  0  0  0  0  0  0  0  0  0
   -1.9240   27.7370    1.0930 C   0  0  0  0  0  0  0  0  0  0  0  0
   -2.2760   25.8070    7.4070 N   0  0  0  0  0  0  0  0  0  0  0  0
   -2.8900   25.5580    8.5910 C   0  0  0  0  0  0  0  0  0  0  0  0
   -3.8460   24.5670    8.7720 C   0  0  0  0  0  0  0  0  0  0  0  0
   -2.4940   26.3190    9.6620 C   0  0  0  0  0  0  0  0  0  0  0  0
   -1.5380   27.2320    9.4730 F   0  0  0  0  0  0  0  0  0  0  0  0
   -3.0510   26.1530   10.9250 C   0  0  0  0  0  0  0  0  0  0  0  0
   -4.0310   25.1870   11.1250 C   0  0  0  0  0  0  0  0  0  0  0  0
   -4.6050   25.0570   12.5170 C   0  0  0  0  0  0  0  0  0  0  0  0
   -4.4300   24.3920   10.0340 C   0  0  0  0  0  0  0  0  0  0  0  0
   -5.4660   23.3580   10.2970 C   0  0  0  0  0  0  0  0  0  0  0  0
   -6.8000   23.7180   10.4760 C   0  0  0  0  0  0  0  0  0  0  0  0
   -7.7320   22.7090   10.7440 C   0  0  0  0  0  0  0  0  0  0  0  0
   -9.0730   23.0030   10.9450 C   0  0  0  0  0  0  0  0  0  0  0  0
   -5.0810   22.0080   10.3890 C   0  0  0  0  0  0  0  0  0  0  0  0
   -3.6310   21.5850   10.1880 C   0  0  0  0  0  0  0  0  0  0  0  0
   -6.0140   21.0460   10.6430 N   0  0  0  0  0  0  0  0  0  0  0  0
   -7.3110   21.3870   10.8300 C   0  0  0  0  0  0  0  0  0  0  0  0
   -8.2140   20.4340   11.1110 N   0  0  0  0  0  0  0  0  0  0  0  0
   -9.5180   20.7350   11.3100 C   0  0  0  0  0  0  0  0  0  0  0  0
   -9.9350   22.0230   11.2320 N   0  0  0  0  0  0  0  0  0  0  0  0
  -10.3990   19.7380   11.5800 N   0  0  0  0  0  0  0  0  0  0  0  0
   -9.9520   18.3600   11.6920 C   0  0  0  0  0  0  0  0  0  0  0  0
   -1.0443   26.3895    5.4599 H   0  0  0  0  0  0  0  0  0  0  0  0
   -3.0212   25.3645    3.5213 H   0  0  0  0  0  0  0  0  0  0  0  0
   -1.3984   26.0918    3.1892 H   0  0  0  0  0  0  0  0  0  0  0  0
   -2.3767   28.3153    3.8345 H   0  0  0  0  0  0  0  0  0  0  0  0
   -4.0189   27.4135    3.7805 H   0  0  0  0  0  0  0  0  0  0  0  0
   -3.8193   29.6272    2.9896 H   0  0  0  0  0  0  0  0  0  0  0  0
   -2.9794   29.9461    1.4341 H   0  0  0  0  0  0  0  0  0  0  0  0
   -4.6722   29.3453    1.4341 H   0  0  0  0  0  0  0  0  0  0  0  0
   -4.9152   26.5920    2.1135 H   0  0  0  0  0  0  0  0  0  0  0  0
   -4.9454   27.6890    0.6913 H   0  0  0  0  0  0  0  0  0  0  0  0
   -3.8732   26.2478    0.6913 H   0  0  0  0  0  0  0  0  0  0  0  0
   -1.0545   27.6454    1.7605 H   0  0  0  0  0  0  0  0  0  0  0  0
   -1.9950   26.8414    0.4583 H   0  0  0  0  0  0  0  0  0  0  0  0
   -1.8068   28.6278    0.4583 H   0  0  0  0  0  0  0  0  0  0  0  0
   -1.2728   26.0369    7.4469 H   0  0  0  0  0  0  0  0  0  0  0  0
   -4.1429   23.9237    7.9305 H   0  0  0  0  0  0  0  0  0  0  0  0
   -2.7178   26.7833   11.7627 H   0  0  0  0  0  0  0  0  0  0  0  0
   -3.8126   25.2365   13.2586 H   0  0  0  0  0  0  0  0  0  0  0  0
   -5.4085   25.7959   12.6528 H   0  0  0  0  0  0  0  0  0  0  0  0
   -5.0117   24.0440   12.6528 H   0  0  0  0  0  0  0  0  0  0  0  0
   -7.1132   24.7703   10.4083 H   0  0  0  0  0  0  0  0  0  0  0  0
   -9.4263   24.0419   10.8682 H   0  0  0  0  0  0  0  0  0  0  0  0
   -3.1508   21.4449   11.1677 H   0  0  0  0  0  0  0  0  0  0  0  0
   -3.5993   20.6402    9.6256 H   0  0  0  0  0  0  0  0  0  0  0  0
   -3.0962   22.3646    9.6256 H   0  0  0  0  0  0  0  0  0  0  0  0
  -11.3965   19.9611   11.7070 H   0  0  0  0  0  0  0  0  0  0  0  0
   -9.8639   18.0883   12.7543 H   0  0  0  0  0  0  0  0  0  0  0  0
  -10.6812   17.6971   11.2033 H   0  0  0  0  0  0  0  0  0  0  0  0
   -8.9725   18.2514   11.2033 H   0  0  0  0  0  0  0  0  0  0  0  0
  9  6  1  0
  8  6  1  0
  6  7  1  0
  6  5  1  0
  5  4  1  0
  4  3  1  0
  3  2  1  0
  1  2  2  0
  2 10  1  0
 10 11  1  0
 11 12  2  0
 11 13  1  0
 12 18  1  0
 14 13  1  0
 13 15  2  0
 18 19  1  0
 18 16  2  0
 24 23  1  0
 19 23  1  0
 19 20  2  0
 23 25  2  0
 20 21  1  0
 25 26  1  0
 21 26  2  0
 21 22  1  0
 26 27  1  0
 15 16  1  0
 22 29  2  0
 27 28  2  0
 16 17  1  0
 29 28  1  0
 28 30  1  0
 30 31  1  0
  3 32  1  0
  4 33  1  0
  4 34  1  0
  5 35  1  0
  5 36  1  0
  7 37  1  0
  7 38  1  0
  7 39  1  0
  8 40  1  0
  8 41  1  0
  8 42  1  0
  9 43  1  0
  9 44  1  0
  9 45  1  0
 10 46  1  0
 12 47  1  0
 15 48  1  0
 17 49  1  0
 17 50  1  0
 17 51  1  0
 20 52  1  0
 22 53  1  0
 24 54  1  0
 24 55  1  0
 24 56  1  0
 30 57  1  0
 31 58  1  0
 31 59  1  0
 31 60  1  0
A    1
O29
A    2
C23
A    3
N24
A    4
C25
A    5
C26
A    6
C27
A    7
C31
A    8
C30
A    9
C28
A   10
N22
A   11
C16
A   12
C15
A   13
C17
A   14
F20
A   15
C18
A   16
C19
A   17
C21
A   18
C12
A   19
C8
A   20
C7
A   21
C6
A   22
C1
A   23
C9
A   24
C11
A   25
N10
A   26
C5
A   27
N4
A   28
C3
A   29
N2
A   30
N13
A   31
C14
M  END
