5C9R_4YZ_A_802
     RDKit          3D

 22 22  0  0  0  0  0  0  0  0999 V2000
   31.0870   75.6720   60.7360 C   0  0  0  0  0  0  0  0  0  0  0  0
   32.6300   77.3150   61.5390 C   0  0  0  0  0  0  0  0  0  0  0  0
   36.7900   80.2590   61.8550 O   0  0  0  0  0  0  0  0  0  0  0  0
   37.3850   79.6040   62.7440 C   0  0  0  0  0  0  0  0  0  0  0  0
   38.5810   79.7240   63.0910 O   0  0  0  0  0  0  0  0  0  0  0  0
   36.5430   78.4540   63.5190 C   0  0  0  0  0  0  0  0  0  0  0  0
   35.0830   78.5500   63.2460 C   0  0  0  0  0  0  0  0  0  0  0  0
   34.1690   77.0010   63.8460 S   0  0  0  0  0  0  0  0  0  0  0  0
   32.9700   76.4920   62.6260 C   0  0  0  0  0  0  0  0  0  0  0  0
   32.3470   75.2650   62.7370 C   0  0  0  0  0  0  0  0  0  0  0  0
   31.4130   74.8610   61.8050 C   0  0  0  0  0  0  0  0  0  0  0  0
   29.8710   75.0850   59.5920 Cl  0  0  0  0  0  0  0  0  0  0  0  0
   31.6790   76.9140   60.5680 C   0  0  0  0  0  0  0  0  0  0  0  0
   33.1152   78.2971   61.4391 H   0  0  0  0  0  0  0  0  0  0  0  0
   38.8176   79.7477   64.0520 H   0  0  0  0  0  0  0  0  0  0  0  0
   36.9017   77.4681   63.1885 H   0  0  0  0  0  0  0  0  0  0  0  0
   36.6956   78.5922   64.5996 H   0  0  0  0  0  0  0  0  0  0  0  0
   34.6778   79.4299   63.7671 H   0  0  0  0  0  0  0  0  0  0  0  0
   34.9374   78.6410   62.1595 H   0  0  0  0  0  0  0  0  0  0  0  0
   32.5980   74.6018   63.5780 H   0  0  0  0  0  0  0  0  0  0  0  0
   30.9229   73.8824   61.9148 H   0  0  0  0  0  0  0  0  0  0  0  0
   31.4214   77.5612   59.7167 H   0  0  0  0  0  0  0  0  0  0  0  0
 12  1  1  0
 11  1  2  0
 11 10  1  0
  1 13  1  0
 10  9  2  0
 13  2  2  0
  3  4  2  0
  9  2  1  0
  9  8  1  0
  4  5  1  0
  4  6  1  0
  7  6  1  0
  7  8  1  0
  2 14  1  0
  5 15  1  0
  6 16  1  0
  6 17  1  0
  7 18  1  0
  7 19  1  0
 10 20  1  0
 11 21  1  0
 13 22  1  0
A    1
C10
A    2
C13
A    3
O01
A    4
C02
A    5
O03
A    6
C04
A    7
C05
A    8
S06
A    9
C07
A   10
C08
A   11
C09
A   12
CL11
A   13
C12
M  END
