5C9W_4Z3_A_804
     RDKit          3D

 20 20  0  0  0  0  0  0  0  0999 V2000
   30.3020   74.8240   61.4000 C   0  0  0  0  0  0  0  0  0  0  0  0
   36.7460   80.7960   61.5020 O   0  0  0  0  0  0  0  0  0  0  0  0
   35.7720   79.8190   61.6460 N   0  0  0  0  0  0  0  0  0  0  0  0
   35.3590   79.5320   62.7990 C   0  0  0  0  0  0  0  0  0  0  0  0
   34.1510   78.5940   62.9160 C   0  0  0  0  0  0  0  0  0  0  0  0
   33.5130   78.6130   63.9130 O   0  0  0  0  0  0  0  0  0  0  0  0
   33.6150   77.9780   61.6930 N   0  0  0  0  0  0  0  0  0  0  0  0
   32.5400   76.9710   61.6490 C   0  0  0  0  0  0  0  0  0  0  0  0
   31.4980   77.0520   60.5190 C   0  0  0  0  0  0  0  0  0  0  0  0
   30.3830   75.9960   60.3880 C   0  0  0  0  0  0  0  0  0  0  0  0
   31.3530   74.7290   62.5360 C   0  0  0  0  0  0  0  0  0  0  0  0
   32.4710   75.7820   62.6680 C   0  0  0  0  0  0  0  0  0  0  0  0
   33.7920   75.5940   64.0990 Br  0  0  0  0  0  0  0  0  0  0  0  0
   29.5075   74.0682   61.3130 H   0  0  0  0  0  0  0  0  0  0  0  0
   37.1564   81.2077   62.3033 H   0  0  0  0  0  0  0  0  0  0  0  0
   35.8487   79.9408   63.6951 H   0  0  0  0  0  0  0  0  0  0  0  0
   34.0237   78.2741   60.7951 H   0  0  0  0  0  0  0  0  0  0  0  0
   31.5500   77.8769   59.7932 H   0  0  0  0  0  0  0  0  0  0  0  0
   29.6446   76.0738   59.5764 H   0  0  0  0  0  0  0  0  0  0  0  0
   31.3001   73.8997   63.2568 H   0  0  0  0  0  0  0  0  0  0  0  0
 10  9  1  0
 10  1  2  0
  9  8  2  0
  1 11  1  0
  2  3  1  0
  8  7  1  0
  8 12  1  0
  7  5  1  0
  3  4  2  0
 11 12  2  0
 12 13  1  0
  5  4  1  0
  5  6  2  0
  1 14  1  0
  2 15  1  0
  4 16  1  0
  7 17  1  0
  9 18  1  0
 10 19  1  0
 11 20  1  0
A    1
C10
A    2
O01
A    3
N02
A    4
C03
A    5
C04
A    6
O05
A    7
N06
A    8
C07
A    9
C08
A   10
C09
A   11
C11
A   12
C12
A   13
BR13
M  END
