5C9X_4Z4_A_804
     RDKit          3D

 15 15  0  0  0  0  0  0  0  0999 V2000
   32.1160   76.2480   62.3860 C   0  0  0  0  0  0  0  0  0  0  0  0
   34.9740   80.0210   61.4040 O   0  0  0  0  0  0  0  0  0  0  0  0
   34.4570   79.3540   62.3730 C   0  0  0  0  0  0  0  0  0  0  0  0
   34.8020   79.4520   63.6080 O   0  0  0  0  0  0  0  0  0  0  0  0
   33.3390   78.3360   62.0130 C   0  0  0  0  0  0  0  0  0  0  0  0
   32.5430   78.6360   60.9220 C   0  0  0  0  0  0  0  0  0  0  0  0
   31.5090   77.7550   60.5290 C   0  0  0  0  0  0  0  0  0  0  0  0
   30.7260   78.0270   59.4990 F   0  0  0  0  0  0  0  0  0  0  0  0
   31.3180   76.5620   61.2800 C   0  0  0  0  0  0  0  0  0  0  0  0
   30.0250   75.5410   60.7400 Cl  0  0  0  0  0  0  0  0  0  0  0  0
   33.1390   77.1630   62.7330 C   0  0  0  0  0  0  0  0  0  0  0  0
   34.1560   76.7580   64.1360 Cl  0  0  0  0  0  0  0  0  0  0  0  0
   31.9546   75.3258   62.9634 H   0  0  0  0  0  0  0  0  0  0  0  0
   34.1428   79.2647   64.3225 H   0  0  0  0  0  0  0  0  0  0  0  0
   32.7152   79.5643   60.3575 H   0  0  0  0  0  0  0  0  0  0  0  0
  8  7  1  0
  7  6  2  0
  7  9  1  0
 10  9  1  0
  6  5  1  0
  9  1  2  0
  2  3  2  0
  5  3  1  0
  5 11  2  0
  1 11  1  0
  3  4  1  0
 11 12  1  0
  1 13  1  0
  4 14  1  0
  6 15  1  0
A    1
C10
A    2
O01
A    3
C02
A    4
O03
A    5
C04
A    6
C05
A    7
C06
A    8
F07
A    9
C08
A   10
CL09
A   11
C11
A   12
CL12
M  END
