5CAH_4ZA_A_803
     RDKit          3D

 16 17  0  0  0  0  0  0  0  0999 V2000
   31.8760   77.8090   62.1520 C   0  0  0  0  0  0  0  0  0  0  0  0
   34.6360   77.8960   65.2750 O   0  0  0  0  0  0  0  0  0  0  0  0
   34.4500   78.8980   64.5490 C   0  0  0  0  0  0  0  0  0  0  0  0
   34.9680   80.0210   64.6640 O   0  0  0  0  0  0  0  0  0  0  0  0
   33.4610   78.7400   63.3930 C   0  0  0  0  0  0  0  0  0  0  0  0
   33.2130   79.5910   62.3160 C   0  0  0  0  0  0  0  0  0  0  0  0
   32.2110   79.0150   61.5230 C   0  0  0  0  0  0  0  0  0  0  0  0
   31.4510   79.2310   60.3420 C   0  0  0  0  0  0  0  0  0  0  0  0
   30.5910   78.2230   60.1230 C   0  0  0  0  0  0  0  0  0  0  0  0
   30.6890   76.9660   61.3360 S   0  0  0  0  0  0  0  0  0  0  0  0
   32.6240   77.6510   63.2690 N   0  0  0  0  0  0  0  0  0  0  0  0
   34.6188   77.9887   66.2605 H   0  0  0  0  0  0  0  0  0  0  0  0
   33.7171   80.5493   62.1223 H   0  0  0  0  0  0  0  0  0  0  0  0
   31.5539   80.1113   59.6904 H   0  0  0  0  0  0  0  0  0  0  0  0
   29.8973   78.1910   59.2699 H   0  0  0  0  0  0  0  0  0  0  0  0
   32.5761   76.8520   63.9172 H   0  0  0  0  0  0  0  0  0  0  0  0
  9  8  2  0
  9 10  1  0
  8  7  1  0
 10  1  1  0
  7  1  2  0
  7  6  1  0
  1 11  1  0
  6  5  2  0
 11  5  1  0
  5  3  1  0
  3  4  2  0
  3  2  1  0
  2 12  1  0
  6 13  1  0
  8 14  1  0
  9 15  1  0
 11 16  1  0
A    1
C10
A    2
O01
A    3
C02
A    4
O03
A    5
C04
A    6
C05
A    7
C06
A    8
C07
A    9
C08
A   10
S09
A   11
N11
M  END
