5CAL_4Z8_A_1101
     RDKit          3D

 54 56  0  0  0  0  0  0  0  0999 V2000
  -52.7840    1.5370  -19.3620 C   0  0  0  0  0  0  0  0  0  0  0  0
  -53.7480    2.4970  -19.6950 C   0  0  0  0  0  0  0  0  0  0  0  0
  -50.5890   -1.2760  -20.3250 C   0  0  0  0  0  0  0  0  0  0  0  0
  -53.8730    1.7240  -21.8930 C   0  0  0  0  0  0  0  0  0  0  0  0
  -52.8930    0.7500  -21.6510 C   0  0  0  0  0  0  0  0  0  0  0  0
  -52.3360    0.6320  -20.3640 C   0  0  0  0  0  0  0  0  0  0  0  0
  -51.4300   -2.3860  -20.9680 C   0  0  0  0  0  0  0  0  0  0  0  0
  -49.5080   -0.7450  -21.2710 C   0  0  0  0  0  0  0  0  0  0  0  0
  -52.1060    1.2470  -18.2230 N   0  0  0  0  0  0  0  0  0  0  0  0
  -50.3980   -0.3090  -17.3570 C   0  0  0  0  0  0  0  0  0  0  0  0
  -51.2960    0.2520  -18.4330 C   0  0  0  0  0  0  0  0  0  0  0  0
  -54.2560    2.5440  -20.9140 N   0  0  0  0  0  0  0  0  0  0  0  0
  -51.3910   -0.1800  -19.7360 N   0  0  0  0  0  0  0  0  0  0  0  0
  -54.5000    1.9380  -23.1310 N   0  0  0  0  0  0  0  0  0  0  0  0
  -54.5270    1.1190  -24.2560 C   0  0  0  0  0  0  0  0  0  0  0  0
  -55.6330    1.1620  -25.1240 C   0  0  0  0  0  0  0  0  0  0  0  0
  -55.6200    0.3330  -26.2400 C   0  0  0  0  0  0  0  0  0  0  0  0
  -54.5700   -0.4650  -26.4540 N   0  0  0  0  0  0  0  0  0  0  0  0
  -53.5430   -0.4940  -25.6070 C   0  0  0  0  0  0  0  0  0  0  0  0
  -53.5100    0.3020  -24.5500 N   0  0  0  0  0  0  0  0  0  0  0  0
  -52.4410   -1.2840  -25.8610 N   0  0  0  0  0  0  0  0  0  0  0  0
  -52.2180   -2.5520  -25.1530 C   0  0  0  0  0  0  0  0  0  0  0  0
  -50.9280   -3.2700  -25.6050 C   0  0  0  0  0  0  0  0  0  0  0  0
  -50.7370   -3.1550  -27.1290 C   0  0  0  0  0  0  0  0  0  0  0  0
  -49.7450   -2.6010  -24.9020 C   0  0  0  0  0  0  0  0  0  0  0  0
  -50.9650   -4.7320  -25.1810 C   0  0  0  0  0  0  0  0  0  0  0  0
  -51.4460   -5.0580  -24.1060 O   0  0  0  0  0  0  0  0  0  0  0  0
  -50.4470   -5.7080  -25.9660 N   0  0  0  0  0  0  0  0  0  0  0  0
  -54.0850    3.2178  -18.9355 H   0  0  0  0  0  0  0  0  0  0  0  0
  -50.0795   -1.7580  -19.4776 H   0  0  0  0  0  0  0  0  0  0  0  0
  -52.5623    0.0834  -22.4611 H   0  0  0  0  0  0  0  0  0  0  0  0
  -51.8936   -2.9979  -20.1801 H   0  0  0  0  0  0  0  0  0  0  0  0
  -52.2156   -1.9357  -21.5925 H   0  0  0  0  0  0  0  0  0  0  0  0
  -50.7839   -3.0205  -21.5925 H   0  0  0  0  0  0  0  0  0  0  0  0
  -48.6742   -0.3354  -20.6819 H   0  0  0  0  0  0  0  0  0  0  0  0
  -49.1407   -1.5652  -21.9053 H   0  0  0  0  0  0  0  0  0  0  0  0
  -49.9327    0.0471  -21.9053 H   0  0  0  0  0  0  0  0  0  0  0  0
  -50.8068   -0.0536  -16.3682 H   0  0  0  0  0  0  0  0  0  0  0  0
  -50.3423   -1.4028  -17.4594 H   0  0  0  0  0  0  0  0  0  0  0  0
  -49.3906    0.1206  -17.4594 H   0  0  0  0  0  0  0  0  0  0  0  0
  -55.0126    2.8270  -23.2191 H   0  0  0  0  0  0  0  0  0  0  0  0
  -56.4829    1.8316  -24.9257 H   0  0  0  0  0  0  0  0  0  0  0  0
  -56.4675    0.3341  -26.9413 H   0  0  0  0  0  0  0  0  0  0  0  0
  -51.7560   -0.9766  -26.5661 H   0  0  0  0  0  0  0  0  0  0  0  0
  -52.1458   -2.3448  -24.0751 H   0  0  0  0  0  0  0  0  0  0  0  0
  -53.0648   -3.2146  -25.3850 H   0  0  0  0  0  0  0  0  0  0  0  0
  -49.8124   -2.5983  -27.3417 H   0  0  0  0  0  0  0  0  0  0  0  0
  -50.6678   -4.1617  -27.5669 H   0  0  0  0  0  0  0  0  0  0  0  0
  -51.5944   -2.6228  -27.5669 H   0  0  0  0  0  0  0  0  0  0  0  0
  -49.8763   -2.6752  -23.8124 H   0  0  0  0  0  0  0  0  0  0  0  0
  -48.8120   -3.1052  -25.1941 H   0  0  0  0  0  0  0  0  0  0  0  0
  -49.6962   -1.5416  -25.1941 H   0  0  0  0  0  0  0  0  0  0  0  0
  -50.0080   -6.5352  -25.5371 H   0  0  0  0  0  0  0  0  0  0  0  0
  -50.4924   -5.6225  -26.9914 H   0  0  0  0  0  0  0  0  0  0  0  0
 24 23  1  0
 18 17  1  0
 18 19  2  0
 17 16  2  0
 28 26  1  0
 21 19  1  0
 21 22  1  0
 19 20  1  0
 23 26  1  0
 23 22  1  0
 23 25  1  0
 26 27  2  0
 16 15  1  0
 20 15  2  0
 15 14  1  0
 14  4  1  0
  4  5  2  0
  4 12  1  0
  5  6  1  0
  8  3  1  0
  7  3  1  0
 12  2  2  0
  6 13  1  0
  6  1  2  0
  3 13  1  0
 13 11  1  0
  2  1  1  0
  1  9  1  0
 11  9  2  0
 11 10  1  0
  2 29  1  0
  3 30  1  0
  5 31  1  0
  7 32  1  0
  7 33  1  0
  7 34  1  0
  8 35  1  0
  8 36  1  0
  8 37  1  0
 10 38  1  0
 10 39  1  0
 10 40  1  0
 14 41  1  0
 16 42  1  0
 17 43  1  0
 21 44  1  0
 22 45  1  0
 22 46  1  0
 24 47  1  0
 24 48  1  0
 24 49  1  0
 25 50  1  0
 25 51  1  0
 25 52  1  0
 28 53  1  0
 28 54  1  0
A    1
C4
A    2
C5
A    3
C11
A    4
C7
A    5
C8
A    6
C9
A    7
C12
A    8
C13
A    9
N3
A   10
C1
A   11
C2
A   12
N6
A   13
N10
A   14
N14
A   15
C15
A   16
C16
A   17
C17
A   18
N18
A   19
C19
A   20
N20
A   21
N21
A   22
C22
A   23
C23
A   24
C24
A   25
C25
A   26
C26
A   27
O27
A   28
N28
M  END
