5CAP_4ZH_A_1103
     RDKit          3D

 55 57  0  0  0  0  0  0  0  0999 V2000
  -54.2690    1.3930  -21.0150 C   0  0  0  0  0  0  0  0  0  0  0  0
  -55.2370    2.3870  -21.2280 C   0  0  0  0  0  0  0  0  0  0  0  0
  -52.2580   -1.2760  -22.4910 C   0  0  0  0  0  0  0  0  0  0  0  0
  -55.4830    1.7980  -23.4800 C   0  0  0  0  0  0  0  0  0  0  0  0
  -54.4940    0.8090  -23.3500 C   0  0  0  0  0  0  0  0  0  0  0  0
  -53.8870    0.5840  -22.1080 C   0  0  0  0  0  0  0  0  0  0  0  0
  -52.6970   -2.7290  -22.3600 C   0  0  0  0  0  0  0  0  0  0  0  0
  -50.8160   -0.9720  -22.9060 C   0  0  0  0  0  0  0  0  0  0  0  0
  -53.5400    0.9720  -19.9470 N   0  0  0  0  0  0  0  0  0  0  0  0
  -51.8030   -0.6690  -19.3070 C   0  0  0  0  0  0  0  0  0  0  0  0
  -52.7500   -0.0060  -20.2890 C   0  0  0  0  0  0  0  0  0  0  0  0
  -55.7980    2.5480  -22.4190 N   0  0  0  0  0  0  0  0  0  0  0  0
  -52.9320   -0.2920  -21.6260 N   0  0  0  0  0  0  0  0  0  0  0  0
  -56.1430    2.0630  -24.7050 N   0  0  0  0  0  0  0  0  0  0  0  0
  -56.1600    1.2080  -25.7970 C   0  0  0  0  0  0  0  0  0  0  0  0
  -57.2130    1.1600  -26.7440 C   0  0  0  0  0  0  0  0  0  0  0  0
  -57.1070    0.2090  -27.7750 C   0  0  0  0  0  0  0  0  0  0  0  0
  -56.0250   -0.6060  -27.8560 N   0  0  0  0  0  0  0  0  0  0  0  0
  -55.0790   -0.5330  -26.9170 C   0  0  0  0  0  0  0  0  0  0  0  0
  -55.1370    0.3750  -25.9490 N   0  0  0  0  0  0  0  0  0  0  0  0
  -53.9140   -1.2090  -26.9400 O   0  0  0  0  0  0  0  0  0  0  0  0
  -53.7850   -2.5970  -27.1580 C   0  0  0  0  0  0  0  0  0  0  0  0
  -52.3440   -2.8720  -27.5790 C   0  0  0  0  0  0  0  0  0  0  0  0
  -51.3790   -2.7980  -26.3890 C   0  0  0  0  0  0  0  0  0  0  0  0
  -52.4070   -4.3340  -28.0240 C   0  0  0  0  0  0  0  0  0  0  0  0
  -51.7840   -1.7550  -28.9280 S   0  0  0  0  0  0  0  0  0  0  0  0
  -52.8290   -1.5520  -29.8710 O   0  0  0  0  0  0  0  0  0  0  0  0
  -50.5550   -2.2500  -29.4160 O   0  0  0  0  0  0  0  0  0  0  0  0
  -51.4920   -0.1300  -28.2220 C   0  0  0  0  0  0  0  0  0  0  0  0
  -55.5344    3.0416  -20.3955 H   0  0  0  0  0  0  0  0  0  0  0  0
  -52.7316   -1.0653  -23.4612 H   0  0  0  0  0  0  0  0  0  0  0  0
  -54.1962    0.2110  -24.2239 H   0  0  0  0  0  0  0  0  0  0  0  0
  -52.7769   -2.9933  -21.2952 H   0  0  0  0  0  0  0  0  0  0  0  0
  -53.6753   -2.8616  -22.8451 H   0  0  0  0  0  0  0  0  0  0  0  0
  -51.9558   -3.3811  -22.8451 H   0  0  0  0  0  0  0  0  0  0  0  0
  -50.1956   -0.8412  -22.0071 H   0  0  0  0  0  0  0  0  0  0  0  0
  -50.4229   -1.8070  -23.5045 H   0  0  0  0  0  0  0  0  0  0  0  0
  -50.7935   -0.0494  -23.5045 H   0  0  0  0  0  0  0  0  0  0  0  0
  -52.1241   -0.4442  -18.2792 H   0  0  0  0  0  0  0  0  0  0  0  0
  -51.8142   -1.7576  -19.4648 H   0  0  0  0  0  0  0  0  0  0  0  0
  -50.7840   -0.2861  -19.4648 H   0  0  0  0  0  0  0  0  0  0  0  0
  -56.6476    2.9568  -24.7912 H   0  0  0  0  0  0  0  0  0  0  0  0
  -58.0767    1.8377  -26.6758 H   0  0  0  0  0  0  0  0  0  0  0  0
  -57.9091    0.1251  -28.5230 H   0  0  0  0  0  0  0  0  0  0  0  0
  -54.4745   -2.9164  -27.9533 H   0  0  0  0  0  0  0  0  0  0  0  0
  -54.0302   -3.1539  -26.2417 H   0  0  0  0  0  0  0  0  0  0  0  0
  -51.9506   -2.8418  -25.4502 H   0  0  0  0  0  0  0  0  0  0  0  0
  -50.6785   -3.6451  -26.4317 H   0  0  0  0  0  0  0  0  0  0  0  0
  -50.8159   -1.8540  -26.4317 H   0  0  0  0  0  0  0  0  0  0  0  0
  -52.4351   -4.9859  -27.1384 H   0  0  0  0  0  0  0  0  0  0  0  0
  -53.3129   -4.4951  -28.6268 H   0  0  0  0  0  0  0  0  0  0  0  0
  -51.5183   -4.5724  -28.6268 H   0  0  0  0  0  0  0  0  0  0  0  0
  -51.5045   -0.1995  -27.1243 H   0  0  0  0  0  0  0  0  0  0  0  0
  -50.5123    0.2436  -28.5546 H   0  0  0  0  0  0  0  0  0  0  0  0
  -52.2803    0.5613  -28.5546 H   0  0  0  0  0  0  0  0  0  0  0  0
 27 26  2  0
 28 26  2  0
 26 29  1  0
 26 23  1  0
 25 23  1  0
 18 17  1  0
 18 19  2  0
 17 16  2  0
 23 22  1  0
 23 24  1  0
 22 21  1  0
 21 19  1  0
 19 20  1  0
 16 15  1  0
 20 15  2  0
 15 14  1  0
 14  4  1  0
  4  5  2  0
  4 12  1  0
  5  6  1  0
  8  3  1  0
  3  7  1  0
  3 13  1  0
 12  2  2  0
  6 13  1  0
  6  1  2  0
 13 11  1  0
  2  1  1  0
  1  9  1  0
 11  9  2  0
 11 10  1  0
  2 30  1  0
  3 31  1  0
  5 32  1  0
  7 33  1  0
  7 34  1  0
  7 35  1  0
  8 36  1  0
  8 37  1  0
  8 38  1  0
 10 39  1  0
 10 40  1  0
 10 41  1  0
 14 42  1  0
 16 43  1  0
 17 44  1  0
 22 45  1  0
 22 46  1  0
 24 47  1  0
 24 48  1  0
 24 49  1  0
 25 50  1  0
 25 51  1  0
 25 52  1  0
 29 53  1  0
 29 54  1  0
 29 55  1  0
A    1
C4
A    2
C5
A    3
C11
A    4
C7
A    5
C8
A    6
C9
A    7
C12
A    8
C13
A    9
N3
A   10
C1
A   11
C2
A   12
N6
A   13
N10
A   14
N14
A   15
C15
A   16
C16
A   17
C17
A   18
N18
A   19
C19
A   20
N20
A   21
O21
A   22
C22
A   23
C23
A   24
C24
A   25
C25
A   26
S26
A   27
O27
A   28
O28
A   29
C29
M  END
