5CAS_4ZQ_A_1102
     RDKit          3D

 59 62  0  0  0  0  0  0  0  0999 V2000
  -49.5290   -0.9330  -21.9370 C   0  0  0  0  0  0  0  0  0  0  0  0
  -52.7010    1.1850  -19.6160 C   0  0  0  0  0  0  0  0  0  0  0  0
  -53.6990    2.1450  -19.7830 C   0  0  0  0  0  0  0  0  0  0  0  0
  -53.9630    1.5540  -22.0310 C   0  0  0  0  0  0  0  0  0  0  0  0
  -52.9340    0.6070  -21.9630 C   0  0  0  0  0  0  0  0  0  0  0  0
  -52.3000    0.3960  -20.7280 C   0  0  0  0  0  0  0  0  0  0  0  0
  -50.5780   -1.4870  -20.9850 C   0  0  0  0  0  0  0  0  0  0  0  0
  -51.4850   -2.5990  -21.5440 C   0  0  0  0  0  0  0  0  0  0  0  0
  -51.1220   -0.1330  -18.9190 C   0  0  0  0  0  0  0  0  0  0  0  0
  -50.0070   -0.1520  -16.6200 C   0  0  0  0  0  0  0  0  0  0  0  0
  -50.1210   -0.8110  -17.9990 C   0  0  0  0  0  0  0  0  0  0  0  0
  -51.9480    0.8060  -18.5630 N   0  0  0  0  0  0  0  0  0  0  0  0
  -54.2950    2.2700  -20.9560 N   0  0  0  0  0  0  0  0  0  0  0  0
  -51.3020   -0.4340  -20.2480 N   0  0  0  0  0  0  0  0  0  0  0  0
  -48.7110   -0.0380  -21.2590 F   0  0  0  0  0  0  0  0  0  0  0  0
  -48.7580   -1.9750  -22.4320 F   0  0  0  0  0  0  0  0  0  0  0  0
  -50.1300   -0.2570  -22.9890 F   0  0  0  0  0  0  0  0  0  0  0  0
  -54.6470    1.8740  -23.2090 N   0  0  0  0  0  0  0  0  0  0  0  0
  -54.8220    1.1100  -24.3530 C   0  0  0  0  0  0  0  0  0  0  0  0
  -56.0020    1.2570  -25.1000 C   0  0  0  0  0  0  0  0  0  0  0  0
  -56.1520    0.4760  -26.2450 C   0  0  0  0  0  0  0  0  0  0  0  0
  -55.1840   -0.3760  -26.5810 N   0  0  0  0  0  0  0  0  0  0  0  0
  -54.0720   -0.5150  -25.8420 C   0  0  0  0  0  0  0  0  0  0  0  0
  -53.8870    0.2600  -24.7720 N   0  0  0  0  0  0  0  0  0  0  0  0
  -53.0250   -1.3500  -26.2420 N   0  0  0  0  0  0  0  0  0  0  0  0
  -52.0410   -1.8280  -25.2400 C   0  0  0  0  0  0  0  0  0  0  0  0
  -50.6300   -1.8160  -25.8790 C   0  0  0  0  0  0  0  0  0  0  0  0
  -50.6230   -2.6120  -27.2070 C   0  0  0  0  0  0  0  0  0  0  0  0
  -51.7110   -2.1110  -28.1830 C   0  0  0  0  0  0  0  0  0  0  0  0
  -53.0940   -2.0810  -27.5270 C   0  0  0  0  0  0  0  0  0  0  0  0
  -51.4170   -0.7950  -28.5290 F   0  0  0  0  0  0  0  0  0  0  0  0
  -49.3540   -2.4510  -27.8440 O   0  0  0  0  0  0  0  0  0  0  0  0
  -48.5140   -3.6060  -27.7360 C   0  0  0  0  0  0  0  0  0  0  0  0
  -50.5620   -2.1560  -17.8340 O   0  0  0  0  0  0  0  0  0  0  0  0
  -53.9883    2.7942  -18.9434 H   0  0  0  0  0  0  0  0  0  0  0  0
  -52.6294    0.0416  -22.8560 H   0  0  0  0  0  0  0  0  0  0  0  0
  -49.9819   -2.0309  -20.2374 H   0  0  0  0  0  0  0  0  0  0  0  0
  -51.9389   -3.1555  -20.7107 H   0  0  0  0  0  0  0  0  0  0  0  0
  -52.2780   -2.1502  -22.1603 H   0  0  0  0  0  0  0  0  0  0  0  0
  -50.8860   -3.2856  -22.1603 H   0  0  0  0  0  0  0  0  0  0  0  0
  -50.1388   -0.9138  -15.8375 H   0  0  0  0  0  0  0  0  0  0  0  0
  -49.0152    0.3123  -16.5164 H   0  0  0  0  0  0  0  0  0  0  0  0
  -50.7852    0.6185  -16.5164 H   0  0  0  0  0  0  0  0  0  0  0  0
  -49.1235   -0.7356  -18.4565 H   0  0  0  0  0  0  0  0  0  0  0  0
  -55.0813    2.8077  -23.2293 H   0  0  0  0  0  0  0  0  0  0  0  0
  -56.7838    1.9665  -24.7912 H   0  0  0  0  0  0  0  0  0  0  0  0
  -57.0578    0.5619  -26.8632 H   0  0  0  0  0  0  0  0  0  0  0  0
  -52.0550   -1.1645  -24.3627 H   0  0  0  0  0  0  0  0  0  0  0  0
  -52.2981   -2.8492  -24.9221 H   0  0  0  0  0  0  0  0  0  0  0  0
  -49.9135   -2.2729  -25.1805 H   0  0  0  0  0  0  0  0  0  0  0  0
  -50.3465   -0.7743  -26.0900 H   0  0  0  0  0  0  0  0  0  0  0  0
  -50.8218   -3.6661  -26.9635 H   0  0  0  0  0  0  0  0  0  0  0  0
  -51.7238   -2.7925  -29.0464 H   0  0  0  0  0  0  0  0  0  0  0  0
  -53.8048   -1.5751  -28.1969 H   0  0  0  0  0  0  0  0  0  0  0  0
  -53.4292   -3.1119  -27.3402 H   0  0  0  0  0  0  0  0  0  0  0  0
  -48.3450   -3.8384  -26.6742 H   0  0  0  0  0  0  0  0  0  0  0  0
  -49.0023   -4.4616  -28.2254 H   0  0  0  0  0  0  0  0  0  0  0  0
  -47.5496   -3.4051  -28.2254 H   0  0  0  0  0  0  0  0  0  0  0  0
  -50.6305   -2.3648  -16.8687 H   0  0  0  0  0  0  0  0  0  0  0  0
 31 29  1  0
 29 30  1  0
 29 28  1  0
 32 33  1  0
 32 28  1  0
 30 25  1  0
 28 27  1  0
 22 21  1  0
 22 23  2  0
 21 20  2  0
 25 23  1  0
 25 26  1  0
 27 26  1  0
 23 24  1  0
 20 19  1  0
 24 19  2  0
 19 18  1  0
 18  4  1  0
 17  1  1  0
 16  1  1  0
  4  5  2  0
  4 13  1  0
  5  6  1  0
  1 15  1  0
  1  7  1  0
  8  7  1  0
  7 14  1  0
 13  3  2  0
  6 14  1  0
  6  2  2  0
 14  9  1  0
  3  2  1  0
  2 12  1  0
  9 12  2  0
  9 11  1  0
 11 34  1  0
 11 10  1  0
  3 35  1  0
  5 36  1  0
  7 37  1  0
  8 38  1  0
  8 39  1  0
  8 40  1  0
 10 41  1  0
 10 42  1  0
 10 43  1  0
 11 44  1  0
 18 45  1  0
 20 46  1  0
 21 47  1  0
 26 48  1  0
 26 49  1  0
 27 50  1  0
 27 51  1  0
 28 52  1  0
 29 53  1  0
 30 54  1  0
 30 55  1  0
 33 56  1  0
 33 57  1  0
 33 58  1  0
 34 59  1  0
A    1
C14
A    2
C5
A    3
C6
A    4
C8
A    5
C9
A    6
C10
A    7
C12
A    8
C13
A    9
C3
A   10
C1
A   11
C2
A   12
N4
A   13
N7
A   14
N11
A   15
F15
A   16
F16
A   17
F17
A   18
N18
A   19
C19
A   20
C20
A   21
C21
A   22
N22
A   23
C23
A   24
N24
A   25
N25
A   26
C26
A   27
C27
A   28
C28
A   29
C29
A   30
C30
A   31
F31
A   32
O32
A   33
C33
A   34
O34
M  END
