5CBB_4ZF_A_802
     RDKit          3D

 26 28  0  0  0  0  0  0  0  0999 V2000
   33.1150   77.9280   64.0400 C   0  0  0  0  0  0  0  0  0  0  0  0
   30.9450   77.7770   61.2770 C   0  0  0  0  0  0  0  0  0  0  0  0
   31.9110   79.5830   60.0130 C   0  0  0  0  0  0  0  0  0  0  0  0
   32.8830   79.0580   62.1060 C   0  0  0  0  0  0  0  0  0  0  0  0
   38.6020   81.8760   65.3570 O   0  0  0  0  0  0  0  0  0  0  0  0
   37.7030   81.1350   65.7660 C   0  0  0  0  0  0  0  0  0  0  0  0
   37.5220   80.6780   66.8950 O   0  0  0  0  0  0  0  0  0  0  0  0
   36.5880   80.7530   64.7320 C   0  0  0  0  0  0  0  0  0  0  0  0
   35.5950   79.7700   64.8180 C   0  0  0  0  0  0  0  0  0  0  0  0
   34.7890   79.8060   63.6420 C   0  0  0  0  0  0  0  0  0  0  0  0
   35.3180   80.8540   62.8280 N   0  0  0  0  0  0  0  0  0  0  0  0
   36.4160   81.4240   63.5250 N   0  0  0  0  0  0  0  0  0  0  0  0
   33.6940   79.0090   63.2850 C   0  0  0  0  0  0  0  0  0  0  0  0
   32.0730   77.3470   63.4370 N   0  0  0  0  0  0  0  0  0  0  0  0
   31.9010   78.0230   62.2520 C   0  0  0  0  0  0  0  0  0  0  0  0
   30.9640   78.5750   60.1700 C   0  0  0  0  0  0  0  0  0  0  0  0
   32.8600   79.8360   60.9700 C   0  0  0  0  0  0  0  0  0  0  0  0
   33.4950   77.6098   65.0220 H   0  0  0  0  0  0  0  0  0  0  0  0
   30.2032   76.9729   61.3914 H   0  0  0  0  0  0  0  0  0  0  0  0
   31.8978   80.1925   59.0974 H   0  0  0  0  0  0  0  0  0  0  0  0
   37.7387   81.2251   67.6911 H   0  0  0  0  0  0  0  0  0  0  0  0
   35.4577   79.0775   65.6615 H   0  0  0  0  0  0  0  0  0  0  0  0
   34.9669   81.1434   61.9039 H   0  0  0  0  0  0  0  0  0  0  0  0
   36.9931   82.2089   63.1906 H   0  0  0  0  0  0  0  0  0  0  0  0
   30.2124   78.4177   59.3824 H   0  0  0  0  0  0  0  0  0  0  0  0
   33.5906   80.6468   60.8325 H   0  0  0  0  0  0  0  0  0  0  0  0
  3 16  2  0
  3 17  1  0
 16  2  1  0
 17  4  2  0
  2 15  2  0
  4 15  1  0
  4 13  1  0
 15 14  1  0
 11 12  1  0
 11 10  1  0
 13 10  2  0
 13  1  1  0
 12  8  1  0
 14  1  2  0
 10  9  1  0
  8  9  2  0
  8  6  1  0
  5  6  2  0
  6  7  1  0
  1 18  1  0
  2 19  1  0
  3 20  1  0
  7 21  1  0
  9 22  1  0
 11 23  1  0
 12 24  1  0
 16 25  1  0
 17 26  1  0
A    1
C10
A    2
C13
A    3
C15
A    4
C17
A    5
O01
A    6
C02
A    7
O03
A    8
C04
A    9
C05
A   10
C06
A   11
N07
A   12
N08
A   13
C09
A   14
N11
A   15
C12
A   16
C14
A   17
C16
M  END
