5CBS_E42_A_301
     RDKit          3D

 34 35  0  0  0  0  0  0  0  0999 V2000
   59.9830    0.6430   40.4580 C   0  0  0  0  0  0  0  0  0  0  0  0
   60.8480    1.2090   41.4140 C   0  0  0  0  0  0  0  0  0  0  0  0
   61.0430    0.5410   42.6390 C   0  0  0  0  0  0  0  0  0  0  0  0
   60.3960   -0.6600   42.9120 C   0  0  0  0  0  0  0  0  0  0  0  0
   59.5490   -1.2130   41.9470 C   0  0  0  0  0  0  0  0  0  0  0  0
   59.3350   -0.5750   40.7130 C   0  0  0  0  0  0  0  0  0  0  0  0
   56.6780   -2.3600   37.8550 C   0  0  0  0  0  0  0  0  0  0  0  0
   56.6630   -0.9790   38.0520 C   0  0  0  0  0  0  0  0  0  0  0  0
   57.5310   -0.3850   38.9830 C   0  0  0  0  0  0  0  0  0  0  0  0
   58.4230   -1.1780   39.7220 C   0  0  0  0  0  0  0  0  0  0  0  0
   58.4150   -2.5670   39.5120 C   0  0  0  0  0  0  0  0  0  0  0  0
   57.5540   -3.1460   38.5870 C   0  0  0  0  0  0  0  0  0  0  0  0
   57.5990   -4.5070   38.4460 O   0  0  0  0  0  0  0  0  0  0  0  0
   61.5320    2.5240   41.1030 C   0  0  0  0  0  0  0  0  0  0  0  0
   60.8990    3.7430   41.8180 C   0  0  0  0  0  0  0  0  0  0  0  0
   59.4630    3.9110   41.3880 N   0  0  0  0  0  0  0  0  0  0  0  0
   60.9860    3.5450   43.3610 C   0  0  0  0  0  0  0  0  0  0  0  0
   59.8950    3.5890   44.0020 O   0  0  0  0  0  0  0  0  0  0  0  0
   62.1380    3.3130   43.8270 O   0  0  0  0  0  0  0  0  0  0  0  0
   59.8137    1.1606   39.5023 H   0  0  0  0  0  0  0  0  0  0  0  0
   61.7174    0.9758   43.3914 H   0  0  0  0  0  0  0  0  0  0  0  0
   60.5490   -1.1683   43.8754 H   0  0  0  0  0  0  0  0  0  0  0  0
   59.0404   -2.1654   42.1574 H   0  0  0  0  0  0  0  0  0  0  0  0
   55.9989   -2.8222   37.1234 H   0  0  0  0  0  0  0  0  0  0  0  0
   55.9675   -0.3518   37.4750 H   0  0  0  0  0  0  0  0  0  0  0  0
   57.5117    0.7045   39.1334 H   0  0  0  0  0  0  0  0  0  0  0  0
   59.1003   -3.2060   40.0882 H   0  0  0  0  0  0  0  0  0  0  0  0
   57.6182   -5.0874   39.2478 H   0  0  0  0  0  0  0  0  0  0  0  0
   62.5849    2.4488   41.4125 H   0  0  0  0  0  0  0  0  0  0  0  0
   61.4217    2.6943   40.0219 H   0  0  0  0  0  0  0  0  0  0  0  0
   61.4515    4.6532   41.5419 H   0  0  0  0  0  0  0  0  0  0  0  0
   58.8612    3.9814   42.2209 H   0  0  0  0  0  0  0  0  0  0  0  0
   59.3713    4.7684   40.8247 H   0  0  0  0  0  0  0  0  0  0  0  0
   59.9022    3.5887   44.9920 H   0  0  0  0  0  0  0  0  0  0  0  0
  7  8  2  0
  7 12  1  0
  8  9  1  0
 13 12  1  0
 12 11  2  0
  9 10  2  0
 11 10  1  0
 10  6  1  0
  1  6  2  0
  1  2  1  0
  6  5  1  0
 14  2  1  0
 14 15  1  0
 16 15  1  0
  2  3  2  0
 15 17  1  0
  5  4  2  0
  3  4  1  0
 17 19  2  0
 17 18  1  0
  1 20  1  0
  3 21  1  0
  4 22  1  0
  5 23  1  0
  7 24  1  0
  8 25  1  0
  9 26  1  0
 11 27  1  0
 13 28  1  0
 14 29  1  0
 14 30  1  0
 15 31  1  0
 16 32  1  0
 16 33  1  0
 18 34  1  0
A    1
C1
A    2
C2
A    3
C3
A    4
C4
A    5
C5
A    6
C6
A    7
C7
A    8
C8
A    9
C9
A   10
C10
A   11
C11
A   12
C12
A   13
O1
A   14
C13
A   15
C14
A   16
N1
A   17
C15
A   18
O2
A   19
O3
M  END
