5CBT_4ZL_A_201
     RDKit          3D

 33 33  0  0  0  0  0  0  0  0999 V2000
   -1.4860   -6.5930    4.8920 C   0  0  0  0  0  0  0  0  0  0  0  0
   -2.1290   -7.5190    5.7820 C   0  0  0  0  0  0  0  0  0  0  0  0
   -3.4970   -7.9110    5.6230 C   0  0  0  0  0  0  0  0  0  0  0  0
   -4.1390   -7.4980    4.4100 C   0  0  0  0  0  0  0  0  0  0  0  0
   -3.4570   -6.6330    3.5170 C   0  0  0  0  0  0  0  0  0  0  0  0
   -2.1850   -6.1270    3.7230 C   0  0  0  0  0  0  0  0  0  0  0  0
   -1.5810   -5.2080    2.5670 C   0  0  0  0  0  0  0  0  0  0  0  0
   -1.2120   -4.0600    3.5230 N   0  0  0  0  0  0  0  0  0  0  0  0
   -0.1830   -3.2980    3.0290 C   0  0  0  0  0  0  0  0  0  0  0  0
    0.4690   -3.4940    1.9300 O   0  0  0  0  0  0  0  0  0  0  0  0
   -0.1310   -2.1520    3.8270 N   0  0  0  0  0  0  0  0  0  0  0  0
    1.0380   -1.3310    3.7790 C   0  0  0  0  0  0  0  0  0  0  0  0
    2.0390   -2.0660    4.6720 C   0  0  0  0  0  0  0  0  0  0  0  0
    1.8150   -2.8350    5.6470 O   0  0  0  0  0  0  0  0  0  0  0  0
    3.2130   -1.4090    4.5220 O   0  0  0  0  0  0  0  0  0  0  0  0
    4.3560   -1.7450    5.3570 C   0  0  0  0  0  0  0  0  0  0  0  0
    5.6260   -1.0550    4.9780 C   0  0  0  0  0  0  0  0  0  0  0  0
   -0.4650   -6.2418    5.1025 H   0  0  0  0  0  0  0  0  0  0  0  0
   -1.5497   -7.9423    6.6158 H   0  0  0  0  0  0  0  0  0  0  0  0
   -4.0259   -8.4967    6.3894 H   0  0  0  0  0  0  0  0  0  0  0  0
   -5.1540   -7.8497    4.1733 H   0  0  0  0  0  0  0  0  0  0  0  0
   -3.9771   -6.3426    2.5923 H   0  0  0  0  0  0  0  0  0  0  0  0
   -2.3252   -4.9190    1.8103 H   0  0  0  0  0  0  0  0  0  0  0  0
   -0.7898   -5.6280    1.9286 H   0  0  0  0  0  0  0  0  0  0  0  0
   -1.6801   -3.8849    4.4236 H   0  0  0  0  0  0  0  0  0  0  0  0
   -0.9212   -1.9033    4.4390 H   0  0  0  0  0  0  0  0  0  0  0  0
    1.4175   -1.2498    2.7497 H   0  0  0  0  0  0  0  0  0  0  0  0
    0.8473   -0.3005    4.1133 H   0  0  0  0  0  0  0  0  0  0  0  0
    4.1144   -1.4735    6.3952 H   0  0  0  0  0  0  0  0  0  0  0  0
    4.5341   -2.8223    5.2237 H   0  0  0  0  0  0  0  0  0  0  0  0
    6.1688   -0.7601    5.8882 H   0  0  0  0  0  0  0  0  0  0  0  0
    6.2509   -1.7377    4.3834 H   0  0  0  0  0  0  0  0  0  0  0  0
    5.3933   -0.1593    4.3834 H   0  0  0  0  0  0  0  0  0  0  0  0
 10  9  2  0
  7  8  1  0
  7  6  1  0
  9  8  1  0
  9 11  1  0
  5  6  1  0
  5  4  2  0
  6  1  2  0
 12 11  1  0
 12 13  1  0
  4  3  1  0
 15 13  1  0
 15 16  1  0
 13 14  2  0
  1  2  1  0
 17 16  1  0
  3  2  2  0
  1 18  1  0
  2 19  1  0
  3 20  1  0
  4 21  1  0
  5 22  1  0
  7 23  1  0
  7 24  1  0
  8 25  1  0
 11 26  1  0
 12 27  1  0
 12 28  1  0
 16 29  1  0
 16 30  1  0
 17 31  1  0
 17 32  1  0
 17 33  1  0
A    1
CAA
A    2
CAB
A    3
CAC
A    4
CAD
A    5
CAE
A    6
CAF
A    7
CAG
A    8
NAH
A    9
CAI
A   10
OAO
A   11
NAJ
A   12
CAK
A   13
CAL
A   14
OAQ
A   15
OAM
A   16
CAN
A   17
CAP
M  END
