5CBU_4ZM_A_205
     RDKit          3D

 42 43  0  0  0  0  0  0  0  0999 V2000
   -0.2010   -2.2980    3.5840 N   0  0  0  0  0  0  0  0  0  0  0  0
    5.5400   -1.0930    4.8220 C   0  0  0  0  0  0  0  0  0  0  0  0
    3.2790   -1.5730    4.3250 O   0  0  0  0  0  0  0  0  0  0  0  0
   -1.6830   -3.9300    3.2140 N   0  0  0  0  0  0  0  0  0  0  0  0
    4.3840   -1.9760    5.2020 C   0  0  0  0  0  0  0  0  0  0  0  0
    1.7640   -2.8590    5.4630 O   0  0  0  0  0  0  0  0  0  0  0  0
   -7.3050   -8.8930    7.3370 N   0  0  0  0  0  0  0  0  0  0  0  0
    2.0340   -2.1430    4.5130 C   0  0  0  0  0  0  0  0  0  0  0  0
    0.2520   -3.8350    2.0460 O   0  0  0  0  0  0  0  0  0  0  0  0
    1.0810   -1.6450    3.4800 C   0  0  0  0  0  0  0  0  0  0  0  0
   -0.5070   -3.3990    2.9110 C   0  0  0  0  0  0  0  0  0  0  0  0
   -2.2560   -5.1660    2.6760 C   0  0  0  0  0  0  0  0  0  0  0  0
   -2.3670   -6.1440    3.8100 C   0  0  0  0  0  0  0  0  0  0  0  0
   -3.5720   -6.6400    4.3360 C   0  0  0  0  0  0  0  0  0  0  0  0
   -3.6300   -7.5110    5.4390 C   0  0  0  0  0  0  0  0  0  0  0  0
   -1.1770   -6.4950    4.4200 C   0  0  0  0  0  0  0  0  0  0  0  0
   -1.2120   -7.3760    5.4690 C   0  0  0  0  0  0  0  0  0  0  0  0
   -2.4010   -7.8890    5.9900 C   0  0  0  0  0  0  0  0  0  0  0  0
   -4.9050   -8.0670    6.0770 C   0  0  0  0  0  0  0  0  0  0  0  0
   -6.0190   -7.2750    6.1480 C   0  0  0  0  0  0  0  0  0  0  0  0
   -7.2190   -7.6680    6.7360 C   0  0  0  0  0  0  0  0  0  0  0  0
   -6.2080   -9.6840    7.3140 C   0  0  0  0  0  0  0  0  0  0  0  0
   -5.0060   -9.3050    6.7210 C   0  0  0  0  0  0  0  0  0  0  0  0
   -0.9109   -1.8907    4.2093 H   0  0  0  0  0  0  0  0  0  0  0  0
    6.0302   -0.7185    5.7327 H   0  0  0  0  0  0  0  0  0  0  0  0
    6.2630   -1.6710    4.2276 H   0  0  0  0  0  0  0  0  0  0  0  0
    5.1726   -0.2435    4.2276 H   0  0  0  0  0  0  0  0  0  0  0  0
   -2.2551   -3.4189    3.9013 H   0  0  0  0  0  0  0  0  0  0  0  0
    4.1133   -1.8223    6.2570 H   0  0  0  0  0  0  0  0  0  0  0  0
    4.6292   -3.0421    5.0864 H   0  0  0  0  0  0  0  0  0  0  0  0
    1.5014   -1.8400    2.4824 H   0  0  0  0  0  0  0  0  0  0  0  0
    0.9327   -0.5667    3.6389 H   0  0  0  0  0  0  0  0  0  0  0  0
   -3.2520   -4.9656    2.2542 H   0  0  0  0  0  0  0  0  0  0  0  0
   -1.6193   -5.5716    1.8759 H   0  0  0  0  0  0  0  0  0  0  0  0
   -4.5158   -6.3322    3.8622 H   0  0  0  0  0  0  0  0  0  0  0  0
   -0.2219   -6.0758    4.0705 H   0  0  0  0  0  0  0  0  0  0  0  0
   -0.2605   -7.6931    5.9207 H   0  0  0  0  0  0  0  0  0  0  0  0
   -2.3715   -8.5919    6.8356 H   0  0  0  0  0  0  0  0  0  0  0  0
   -5.9632   -6.2658    5.7139 H   0  0  0  0  0  0  0  0  0  0  0  0
   -8.0910   -6.9977    6.7169 H   0  0  0  0  0  0  0  0  0  0  0  0
   -6.2681  -10.6754    7.7869 H   0  0  0  0  0  0  0  0  0  0  0  0
   -4.1370   -9.9783    6.7590 H   0  0  0  0  0  0  0  0  0  0  0  0
  9 11  2  0
 12  4  1  0
 12 13  1  0
 11  4  1  0
 11  1  1  0
 10  1  1  0
 10  8  1  0
 13 14  2  0
 13 16  1  0
  3  8  1  0
  3  5  1  0
 14 15  1  0
 16 17  2  0
  8  6  2  0
  2  5  1  0
 15 18  2  0
 15 19  1  0
 17 18  1  0
 19 20  2  0
 19 23  1  0
 20 21  1  0
 23 22  2  0
 21  7  2  0
 22  7  1  0
  1 24  1  0
  2 25  1  0
  2 26  1  0
  2 27  1  0
  4 28  1  0
  5 29  1  0
  5 30  1  0
 10 31  1  0
 10 32  1  0
 12 33  1  0
 12 34  1  0
 14 35  1  0
 16 36  1  0
 17 37  1  0
 18 38  1  0
 20 39  1  0
 21 40  1  0
 22 41  1  0
 23 42  1  0
A    1
N
A    2
C
A    3
O
A    4
N1
A    5
C1
A    6
O1
A    7
N2
A    8
C2
A    9
O2
A   10
C3
A   11
C4
A   12
C5
A   13
C6
A   14
C7
A   15
C8
A   16
C11
A   17
C10
A   18
C9
A   19
C12
A   20
C16
A   21
C15
A   22
C14
A   23
C13
M  END
