5CBV_4ZP_A_205
     RDKit          3D

 42 43  0  0  0  0  0  0  0  0999 V2000
   -1.8280   -4.8570    2.4240 C   0  0  0  0  0  0  0  0  0  0  0  0
   -1.0970   -6.2080    4.4030 C   0  0  0  0  0  0  0  0  0  0  0  0
   -1.3280   -7.1480    5.3830 C   0  0  0  0  0  0  0  0  0  0  0  0
   -2.5280   -7.7620    5.5550 C   0  0  0  0  0  0  0  0  0  0  0  0
   -3.5420   -7.4220    4.6030 C   0  0  0  0  0  0  0  0  0  0  0  0
   -3.3000   -6.5040    3.5900 C   0  0  0  0  0  0  0  0  0  0  0  0
   -2.0780   -5.8720    3.4920 C   0  0  0  0  0  0  0  0  0  0  0  0
   -4.8770   -8.0530    4.6640 C   0  0  0  0  0  0  0  0  0  0  0  0
   -5.4400   -8.7080    3.5750 C   0  0  0  0  0  0  0  0  0  0  0  0
   -7.4190   -9.1850    4.8000 C   0  0  0  0  0  0  0  0  0  0  0  0
   -6.6780   -9.2560    3.6600 N   0  0  0  0  0  0  0  0  0  0  0  0
   -6.8500   -8.5450    5.8910 C   0  0  0  0  0  0  0  0  0  0  0  0
   -5.5900   -7.9650    5.8480 C   0  0  0  0  0  0  0  0  0  0  0  0
   -1.5560   -3.6140    3.0980 N   0  0  0  0  0  0  0  0  0  0  0  0
   -0.3920   -2.9640    3.0030 C   0  0  0  0  0  0  0  0  0  0  0  0
   -0.2450   -1.9250    3.8090 N   0  0  0  0  0  0  0  0  0  0  0  0
    0.9750   -1.1550    3.8400 C   0  0  0  0  0  0  0  0  0  0  0  0
    2.0250   -1.8950    4.6470 C   0  0  0  0  0  0  0  0  0  0  0  0
    0.5350   -3.2880    2.2600 O   0  0  0  0  0  0  0  0  0  0  0  0
    1.7300   -2.7290    5.4520 O   0  0  0  0  0  0  0  0  0  0  0  0
    3.3390   -1.4190    4.4770 O   0  0  0  0  0  0  0  0  0  0  0  0
    4.4520   -1.8980    5.2080 C   0  0  0  0  0  0  0  0  0  0  0  0
    5.6350   -1.0590    4.7840 C   0  0  0  0  0  0  0  0  0  0  0  0
   -2.7150   -4.7549    1.7815 H   0  0  0  0  0  0  0  0  0  0  0  0
   -0.9859   -5.1541    1.7816 H   0  0  0  0  0  0  0  0  0  0  0  0
   -0.1144   -5.7169    4.3454 H   0  0  0  0  0  0  0  0  0  0  0  0
   -0.5017   -7.4143    6.0585 H   0  0  0  0  0  0  0  0  0  0  0  0
   -2.7088   -8.4746    6.3732 H   0  0  0  0  0  0  0  0  0  0  0  0
   -4.0902   -6.2786    2.8587 H   0  0  0  0  0  0  0  0  0  0  0  0
   -4.8755   -8.7828    2.6339 H   0  0  0  0  0  0  0  0  0  0  0  0
   -8.4288   -9.6180    4.8536 H   0  0  0  0  0  0  0  0  0  0  0  0
   -7.4214   -8.4951    6.8296 H   0  0  0  0  0  0  0  0  0  0  0  0
   -5.1710   -7.4518    6.7261 H   0  0  0  0  0  0  0  0  0  0  0  0
   -2.2973   -3.2043    3.6841 H   0  0  0  0  0  0  0  0  0  0  0  0
   -1.0219   -1.6588    4.4307 H   0  0  0  0  0  0  0  0  0  0  0  0
    1.3402   -1.0067    2.8131 H   0  0  0  0  0  0  0  0  0  0  0  0
    0.7781   -0.1783    4.3061 H   0  0  0  0  0  0  0  0  0  0  0  0
    4.2743   -1.7866    6.2878 H   0  0  0  0  0  0  0  0  0  0  0  0
    4.6292   -2.9654    5.0101 H   0  0  0  0  0  0  0  0  0  0  0  0
    6.1594   -0.6871    5.6765 H   0  0  0  0  0  0  0  0  0  0  0  0
    6.3230   -1.6722    4.1834 H   0  0  0  0  0  0  0  0  0  0  0  0
    5.2838   -0.2070    4.1834 H   0  0  0  0  0  0  0  0  0  0  0  0
 19 15  2  0
  1 14  1  0
  1  7  1  0
 15 14  1  0
 15 16  1  0
  7  6  1  0
  7  2  2  0
  9 11  2  0
  9  8  1  0
  6  5  2  0
 11 10  1  0
 16 17  1  0
 17 18  1  0
  2  3  1  0
 21 18  1  0
 21 22  1  0
  5  8  1  0
  5  4  1  0
 18 20  2  0
  8 13  2  0
 23 22  1  0
 10 12  2  0
  3  4  2  0
 13 12  1  0
  1 24  1  0
  1 25  1  0
  2 26  1  0
  3 27  1  0
  4 28  1  0
  6 29  1  0
  9 30  1  0
 10 31  1  0
 12 32  1  0
 13 33  1  0
 14 34  1  0
 16 35  1  0
 17 36  1  0
 17 37  1  0
 22 38  1  0
 22 39  1  0
 23 40  1  0
 23 41  1  0
 23 42  1  0
A    1
C1
A    2
C2
A    3
C3
A    4
C4
A    5
C5
A    6
C6
A    7
C7
A    8
C8
A    9
C9
A   10
C11
A   11
N10
A   12
C12
A   13
C13
A   14
N14
A   15
C15
A   16
N16
A   17
C17
A   18
C18
A   19
O19
A   20
O20
A   21
O21
A   22
C22
A   23
C23
M  END
