5CBW_4ZO_A_206
     RDKit          3D

 40 40  0  0  0  0  0  0  0  0999 V2000
   -5.6750   -8.9100    6.7950 C   0  0  0  0  0  0  0  0  0  0  0  0
   -6.8720   -8.5170    5.9470 C   0  0  0  0  0  0  0  0  0  0  0  0
   -3.6130   -6.4410    3.4760 C   0  0  0  0  0  0  0  0  0  0  0  0
   -4.3470   -7.2240    4.3890 C   0  0  0  0  0  0  0  0  0  0  0  0
   -3.7760   -7.7140    5.6000 C   0  0  0  0  0  0  0  0  0  0  0  0
   -2.3890   -7.4240    5.8090 C   0  0  0  0  0  0  0  0  0  0  0  0
   -1.6720   -6.6180    4.9100 C   0  0  0  0  0  0  0  0  0  0  0  0
   -2.2800   -6.1420    3.7400 C   0  0  0  0  0  0  0  0  0  0  0  0
   -1.5000   -5.2680    2.7760 C   0  0  0  0  0  0  0  0  0  0  0  0
   -1.4750   -3.9240    3.4460 N   0  0  0  0  0  0  0  0  0  0  0  0
   -0.3550   -3.1500    3.2030 C   0  0  0  0  0  0  0  0  0  0  0  0
    0.5040   -3.4550    2.4300 O   0  0  0  0  0  0  0  0  0  0  0  0
   -0.3330   -1.9250    3.8900 N   0  0  0  0  0  0  0  0  0  0  0  0
    0.8960   -1.1030    3.8640 C   0  0  0  0  0  0  0  0  0  0  0  0
    1.9040   -1.7580    4.7850 C   0  0  0  0  0  0  0  0  0  0  0  0
    1.5090   -2.6790    5.5640 O   0  0  0  0  0  0  0  0  0  0  0  0
    3.2300   -1.1520    4.6600 O   0  0  0  0  0  0  0  0  0  0  0  0
    4.3730   -1.9780    4.9140 C   0  0  0  0  0  0  0  0  0  0  0  0
    5.4950   -1.0180    4.8310 C   0  0  0  0  0  0  0  0  0  0  0  0
   -4.3880   -8.4810    6.5930 N   0  0  0  0  0  0  0  0  0  0  0  0
   -5.9050   -9.6720    7.7600 O   0  0  0  0  0  0  0  0  0  0  0  0
   -7.7112   -8.2415    6.6026 H   0  0  0  0  0  0  0  0  0  0  0  0
   -6.6057   -7.6591    5.3121 H   0  0  0  0  0  0  0  0  0  0  0  0
   -7.1661   -9.3658    5.3121 H   0  0  0  0  0  0  0  0  0  0  0  0
   -4.0917   -6.0678    2.5586 H   0  0  0  0  0  0  0  0  0  0  0  0
   -5.3955   -7.4652    4.1598 H   0  0  0  0  0  0  0  0  0  0  0  0
   -1.8766   -7.8399    6.6890 H   0  0  0  0  0  0  0  0  0  0  0  0
   -0.6251   -6.3581    5.1255 H   0  0  0  0  0  0  0  0  0  0  0  0
   -2.0076   -5.2102    1.8018 H   0  0  0  0  0  0  0  0  0  0  0  0
   -0.4923   -5.6581    2.5701 H   0  0  0  0  0  0  0  0  0  0  0  0
   -2.2442   -3.5990    4.0490 H   0  0  0  0  0  0  0  0  0  0  0  0
   -1.1639   -1.6027    4.4063 H   0  0  0  0  0  0  0  0  0  0  0  0
    1.2963   -1.0589    2.8404 H   0  0  0  0  0  0  0  0  0  0  0  0
    0.6811   -0.0759    4.1941 H   0  0  0  0  0  0  0  0  0  0  0  0
    4.3167   -2.4365    5.9123 H   0  0  0  0  0  0  0  0  0  0  0  0
    4.4669   -2.8198    4.2122 H   0  0  0  0  0  0  0  0  0  0  0  0
    5.8174   -0.7422    5.8459 H   0  0  0  0  0  0  0  0  0  0  0  0
    6.3350   -1.4814    4.2927 H   0  0  0  0  0  0  0  0  0  0  0  0
    5.1672   -0.1165    4.2927 H   0  0  0  0  0  0  0  0  0  0  0  0
   -3.7362   -8.7895    7.3284 H   0  0  0  0  0  0  0  0  0  0  0  0
 12 11  2  0
  9 10  1  0
  9  8  1  0
 11 10  1  0
 11 13  1  0
  3  8  2  0
  3  4  1  0
  8  7  1  0
 14 13  1  0
 14 15  1  0
  4  5  2  0
 17 15  1  0
 17 18  1  0
 15 16  2  0
 19 18  1  0
  7  6  2  0
  5  6  1  0
  5 20  1  0
  2  1  1  0
 20  1  1  0
  1 21  2  0
  2 22  1  0
  2 23  1  0
  2 24  1  0
  3 25  1  0
  4 26  1  0
  6 27  1  0
  7 28  1  0
  9 29  1  0
  9 30  1  0
 10 31  1  0
 13 32  1  0
 14 33  1  0
 14 34  1  0
 18 35  1  0
 18 36  1  0
 19 37  1  0
 19 38  1  0
 19 39  1  0
 20 40  1  0
A    1
C3
A    2
C5
A    3
CAA
A    4
CAB
A    5
CAC
A    6
CAD
A    7
CAE
A    8
CAF
A    9
CAG
A   10
NAH
A   11
CAI
A   12
OAO
A   13
NAJ
A   14
CAK
A   15
CAL
A   16
OAQ
A   17
OAM
A   18
CAN
A   19
CAP
A   20
N2
A   21
O4
M  END
