5CCZ_50C_A_801
     RDKit          3D

 24 25  0  0  0  0  0  0  0  0999 V2000
   30.1050   78.8690   59.6540 C   0  0  0  0  0  0  0  0  0  0  0  0
   28.8910   78.2840   61.6940 C   0  0  0  0  0  0  0  0  0  0  0  0
   32.9420   81.7840   61.8980 C   0  0  0  0  0  0  0  0  0  0  0  0
   33.1490   80.5340   62.6160 C   0  0  0  0  0  0  0  0  0  0  0  0
   34.1850   80.3310   63.5670 C   0  0  0  0  0  0  0  0  0  0  0  0
   35.1390   81.2110   64.0190 N   0  0  0  0  0  0  0  0  0  0  0  0
   34.0140   79.0100   64.0370 N   0  0  0  0  0  0  0  0  0  0  0  0
   32.9830   78.4010   63.4550 N   0  0  0  0  0  0  0  0  0  0  0  0
   32.4220   79.2820   62.5830 C   0  0  0  0  0  0  0  0  0  0  0  0
   31.2360   78.9690   61.7930 C   0  0  0  0  0  0  0  0  0  0  0  0
   31.2490   79.1210   60.3980 C   0  0  0  0  0  0  0  0  0  0  0  0
   28.9280   78.4410   60.3000 C   0  0  0  0  0  0  0  0  0  0  0  0
   27.8310   78.1620   59.5620 F   0  0  0  0  0  0  0  0  0  0  0  0
   30.0500   78.5580   62.4180 C   0  0  0  0  0  0  0  0  0  0  0  0
   30.1169   79.0031   58.5623 H   0  0  0  0  0  0  0  0  0  0  0  0
   27.9725   77.9538   62.2013 H   0  0  0  0  0  0  0  0  0  0  0  0
   32.8063   82.6032   62.6195 H   0  0  0  0  0  0  0  0  0  0  0  0
   33.8177   81.9932   61.2661 H   0  0  0  0  0  0  0  0  0  0  0  0
   32.0456   81.6998   61.2661 H   0  0  0  0  0  0  0  0  0  0  0  0
   35.2809   81.3418   65.0308 H   0  0  0  0  0  0  0  0  0  0  0  0
   35.7121   81.7397   63.3460 H   0  0  0  0  0  0  0  0  0  0  0  0
   34.6164   78.5694   64.7469 H   0  0  0  0  0  0  0  0  0  0  0  0
   32.1712   79.4417   59.8914 H   0  0  0  0  0  0  0  0  0  0  0  0
   30.0338   78.4486   63.5124 H   0  0  0  0  0  0  0  0  0  0  0  0
 13 12  1  0
  1 12  2  0
  1 11  1  0
 12  2  1  0
 11 10  2  0
  2 14  2  0
 10 14  1  0
 10  9  1  0
  3  4  1  0
  4  9  1  0
  4  5  2  0
  9  8  2  0
  8  7  1  0
  5  6  1  0
  5  7  1  0
  1 15  1  0
  2 16  1  0
  3 17  1  0
  3 18  1  0
  3 19  1  0
  6 20  1  0
  6 21  1  0
  7 22  1  0
 11 23  1  0
 14 24  1  0
A    1
C10
A    2
C13
A    3
C01
A    4
C02
A    5
C03
A    6
N04
A    7
N05
A    8
N06
A    9
C07
A   10
C08
A   11
C09
A   12
C11
A   13
F12
A   14
C14
M  END
