5CDO_50M_S_6002
     RDKit          3D

 45 48  0  0  0  0  0  0  0  0999 V2000
   77.6570  -13.1030    4.2610 C   0  0  0  0  0  0  0  0  0  0  0  0
   76.8140  -14.3380    4.0500 C   0  0  0  0  0  0  0  0  0  0  0  0
   76.8690  -15.3160    5.1810 C   0  0  0  0  0  0  0  0  0  0  0  0
   76.8600  -14.4530    1.7560 C   0  0  0  0  0  0  0  0  0  0  0  0
   77.2450  -10.2280    1.8850 C   0  0  0  0  0  0  0  0  0  0  0  0
   77.2250   -8.2170    3.1090 C   0  0  0  0  0  0  0  0  0  0  0  0
   77.3560   -8.8960    4.2930 C   0  0  0  0  0  0  0  0  0  0  0  0
   77.4210  -10.2690    4.2390 C   0  0  0  0  0  0  0  0  0  0  0  0
   77.6080  -10.9690    5.5220 C   0  0  0  0  0  0  0  0  0  0  0  0
   77.1220  -12.3780    5.4910 C   0  0  0  0  0  0  0  0  0  0  0  0
   77.7450  -12.9930    6.6920 C   0  0  0  0  0  0  0  0  0  0  0  0
   75.9230  -12.6310    7.9900 C   0  0  0  0  0  0  0  0  0  0  0  0
   75.6470  -12.2070    5.5780 C   0  0  0  0  0  0  0  0  0  0  0  0
   77.2750  -15.1080    2.9400 O   0  0  0  0  0  0  0  0  0  0  0  0
   77.4160  -15.2030    0.5720 C   0  0  0  0  0  0  0  0  0  0  0  0
   77.5410  -13.1040    1.7460 C   0  0  0  0  0  0  0  0  0  0  0  0
   77.4510  -12.3820    3.0210 N   0  0  0  0  0  0  0  0  0  0  0  0
   77.3950  -10.9600    3.0450 C   0  0  0  0  0  0  0  0  0  0  0  0
   77.1630   -8.8620    1.9050 C   0  0  0  0  0  0  0  0  0  0  0  0
   79.0040  -13.4240    6.4370 O   0  0  0  0  0  0  0  0  0  0  0  0
   77.2010  -13.0990    7.8540 N   0  0  0  0  0  0  0  0  0  0  0  0
   75.4190  -12.6010    9.1010 O   0  0  0  0  0  0  0  0  0  0  0  0
   75.1910  -12.2580    6.8750 N   0  0  0  0  0  0  0  0  0  0  0  0
   74.9690  -11.9100    4.6070 O   0  0  0  0  0  0  0  0  0  0  0  0
   77.1340   -6.7960    3.0870 N   0  0  0  0  0  0  0  0  0  0  0  0
   77.7860   -6.1760    3.9310 O   0  0  0  0  0  0  0  0  0  0  0  0
   76.3670   -6.3530    2.2290 O   0  0  0  0  0  0  0  0  0  0  0  0
   78.7284  -13.2612    4.4533 H   0  0  0  0  0  0  0  0  0  0  0  0
   75.8029  -13.9247    3.9200 H   0  0  0  0  0  0  0  0  0  0  0  0
   76.8385  -14.7730    6.1371 H   0  0  0  0  0  0  0  0  0  0  0  0
   76.0078  -15.9975    5.1187 H   0  0  0  0  0  0  0  0  0  0  0  0
   77.8012  -15.8966    5.1187 H   0  0  0  0  0  0  0  0  0  0  0  0
   75.7629  -14.3864    1.7119 H   0  0  0  0  0  0  0  0  0  0  0  0
   77.1900  -10.7550    0.9210 H   0  0  0  0  0  0  0  0  0  0  0  0
   77.4073   -8.3613    5.2529 H   0  0  0  0  0  0  0  0  0  0  0  0
   78.6805  -10.9731    5.7664 H   0  0  0  0  0  0  0  0  0  0  0  0
   77.0172  -10.4329    6.2794 H   0  0  0  0  0  0  0  0  0  0  0  0
   78.0362  -16.0396    0.9262 H   0  0  0  0  0  0  0  0  0  0  0  0
   76.5872  -15.5932   -0.0370 H   0  0  0  0  0  0  0  0  0  0  0  0
   78.0302  -14.5234   -0.0370 H   0  0  0  0  0  0  0  0  0  0  0  0
   78.6043  -13.2547    1.5078 H   0  0  0  0  0  0  0  0  0  0  0  0
   77.0223  -12.4904    0.9947 H   0  0  0  0  0  0  0  0  0  0  0  0
   77.0494   -8.2937    0.9701 H   0  0  0  0  0  0  0  0  0  0  0  0
   79.6166  -13.6337    7.1859 H   0  0  0  0  0  0  0  0  0  0  0  0
   74.2083  -11.9926    7.0323 H   0  0  0  0  0  0  0  0  0  0  0  0
 15  4  1  0
 16  4  1  0
 16 17  1  0
  4 14  1  0
  5 19  1  0
  5 18  2  0
 19  6  2  0
 27 25  2  0
 14  2  1  0
 17 18  1  0
 17  1  1  0
 18  8  1  0
 25  6  1  0
 25 26  1  0
  6  7  1  0
  2  1  1  0
  2  3  1  0
  8  7  2  0
  8  9  1  0
  1 10  1  0
 24 13  2  0
 10  9  1  0
 10 13  1  0
 10 11  1  0
 13 23  1  0
 20 11  1  0
 11 21  2  0
 23 12  1  0
 21 12  1  0
 12 22  2  0
  1 28  1  0
  2 29  1  0
  3 30  1  0
  3 31  1  0
  3 32  1  0
  4 33  1  0
  5 34  1  0
  7 35  1  0
  9 36  1  0
  9 37  1  0
 15 38  1  0
 15 39  1  0
 15 40  1  0
 16 41  1  0
 16 42  1  0
 19 43  1  0
 20 44  1  0
 23 45  1  0
M  CHG  2  25   1  26  -1
A    1
C2
A    2
C3
A    3
C5
A    4
C7
A    5
C13
A    6
C15
A    7
C16
A    8
C17
A    9
C18
A   10
C19
A   11
C20
A   12
C23
A   13
C26
A   14
O6
A   15
C9
A   16
C10
A   17
N11
A   18
C12
A   19
C14
A   20
O21
A   21
N22
A   22
O24
A   23
N25
A   24
O27
A   25
N28
A   26
O29
A   27
O30
M  END
