5CDO_53L_F_2101
     RDKit          3D

 45 48  0  0  0  0  0  0  0  0999 V2000
   60.8220  -46.5120   55.3230 C   0  0  0  0  0  0  0  0  0  0  0  0
   60.0760  -45.2080   55.4600 C   0  0  0  0  0  0  0  0  0  0  0  0
   60.3120  -44.2490   54.3270 C   0  0  0  0  0  0  0  0  0  0  0  0
   60.5030  -44.4820   56.6040 O   0  0  0  0  0  0  0  0  0  0  0  0
   59.9780  -45.0930   57.7590 C   0  0  0  0  0  0  0  0  0  0  0  0
   60.4640  -44.3260   58.9650 C   0  0  0  0  0  0  0  0  0  0  0  0
   60.5850  -46.4710   57.8290 C   0  0  0  0  0  0  0  0  0  0  0  0
   60.4930  -47.2000   56.5620 N   0  0  0  0  0  0  0  0  0  0  0  0
   60.3410  -48.6120   56.5620 C   0  0  0  0  0  0  0  0  0  0  0  0
   60.0850  -49.3060   57.7270 C   0  0  0  0  0  0  0  0  0  0  0  0
   59.9030  -50.6630   57.7220 C   0  0  0  0  0  0  0  0  0  0  0  0
   59.9650  -51.3240   56.5260 C   0  0  0  0  0  0  0  0  0  0  0  0
   60.2060  -50.6830   55.3400 C   0  0  0  0  0  0  0  0  0  0  0  0
   60.3770  -49.3200   55.3770 C   0  0  0  0  0  0  0  0  0  0  0  0
   60.6720  -48.6520   54.0900 C   0  0  0  0  0  0  0  0  0  0  0  0
   60.3110  -47.2120   54.0800 C   0  0  0  0  0  0  0  0  0  0  0  0
   58.8490  -47.2860   53.8690 C   0  0  0  0  0  0  0  0  0  0  0  0
   58.1450  -47.4990   55.0030 O   0  0  0  0  0  0  0  0  0  0  0  0
   58.2670  -47.2560   52.7190 N   0  0  0  0  0  0  0  0  0  0  0  0
   59.0390  -47.0510   51.6100 C   0  0  0  0  0  0  0  0  0  0  0  0
   58.5200  -47.1080   50.5070 O   0  0  0  0  0  0  0  0  0  0  0  0
   60.3610  -46.6890   51.7520 N   0  0  0  0  0  0  0  0  0  0  0  0
   61.0500  -46.6390   52.9320 C   0  0  0  0  0  0  0  0  0  0  0  0
   62.2050  -46.2630   53.0440 O   0  0  0  0  0  0  0  0  0  0  0  0
   59.7690  -52.7400   56.5450 N   0  0  0  0  0  0  0  0  0  0  0  0
   60.2030  -53.3250   57.5410 O   0  0  0  0  0  0  0  0  0  0  0  0
   59.1630  -53.2360   55.5890 O   0  0  0  0  0  0  0  0  0  0  0  0
   61.9124  -46.4394   55.1971 H   0  0  0  0  0  0  0  0  0  0  0  0
   59.0229  -45.5229   55.5035 H   0  0  0  0  0  0  0  0  0  0  0  0
   60.5564  -43.2559   54.7321 H   0  0  0  0  0  0  0  0  0  0  0  0
   61.1483  -44.6092   53.7099 H   0  0  0  0  0  0  0  0  0  0  0  0
   59.4040  -44.1800   53.7099 H   0  0  0  0  0  0  0  0  0  0  0  0
   58.8786  -45.1209   57.7338 H   0  0  0  0  0  0  0  0  0  0  0  0
   60.1386  -44.8396   59.8817 H   0  0  0  0  0  0  0  0  0  0  0  0
   61.5624  -44.2705   58.9460 H   0  0  0  0  0  0  0  0  0  0  0  0
   60.0451  -43.3091   58.9460 H   0  0  0  0  0  0  0  0  0  0  0  0
   60.0588  -47.0472   58.6043 H   0  0  0  0  0  0  0  0  0  0  0  0
   61.6530  -46.3495   58.0628 H   0  0  0  0  0  0  0  0  0  0  0  0
   60.0260  -48.7579   58.6789 H   0  0  0  0  0  0  0  0  0  0  0  0
   59.7114  -51.2088   58.6576 H   0  0  0  0  0  0  0  0  0  0  0  0
   60.2607  -51.2389   54.3924 H   0  0  0  0  0  0  0  0  0  0  0  0
   60.1057  -49.1595   53.2952 H   0  0  0  0  0  0  0  0  0  0  0  0
   61.7585  -48.7168   53.9306 H   0  0  0  0  0  0  0  0  0  0  0  0
   58.5757  -47.3687   55.8848 H   0  0  0  0  0  0  0  0  0  0  0  0
   60.8741  -46.4343   50.8960 H   0  0  0  0  0  0  0  0  0  0  0  0
 21 20  2  0
 20 22  1  0
 20 19  1  0
 22 23  1  0
 19 17  2  0
 23 24  2  0
 23 16  1  0
 17 16  1  0
 17 18  1  0
 16 15  1  0
 16  1  1  0
 15 14  1  0
  3  2  1  0
  1  2  1  0
  1  8  1  0
 13 14  2  0
 13 12  1  0
 14  9  1  0
  2  4  1  0
 27 25  2  0
 12 25  1  0
 12 11  2  0
 25 26  1  0
  8  9  1  0
  8  7  1  0
  9 10  2  0
  4  5  1  0
 11 10  1  0
  5  7  1  0
  5  6  1  0
  1 28  1  0
  2 29  1  0
  3 30  1  0
  3 31  1  0
  3 32  1  0
  5 33  1  0
  6 34  1  0
  6 35  1  0
  6 36  1  0
  7 37  1  0
  7 38  1  0
 10 39  1  0
 11 40  1  0
 13 41  1  0
 15 42  1  0
 15 43  1  0
 18 44  1  0
 22 45  1  0
M  CHG  2  25   1  26  -1
A    1
C2
A    2
C3
A    3
C5
A    4
O6
A    5
C7
A    6
C9
A    7
C10
A    8
N11
A    9
C12
A   10
C13
A   11
C14
A   12
C15
A   13
C16
A   14
C17
A   15
C18
A   16
C19
A   17
C20
A   18
O21
A   19
N22
A   20
C23
A   21
O24
A   22
N25
A   23
C26
A   24
O27
A   25
N28
A   26
O29
A   27
O30
M  END
