5CEH_50P_A_904
     RDKit          3D

 35 37  0  0  0  0  0  0  0  0999 V2000
  128.7810  369.3110  115.5250 C   0  0  0  0  0  0  0  0  0  0  0  0
  129.3700  368.2490  114.8500 C   0  0  0  0  0  0  0  0  0  0  0  0
  129.6840  369.6550  112.9220 C   0  0  0  0  0  0  0  0  0  0  0  0
  130.0530  370.1310  111.6540 C   0  0  0  0  0  0  0  0  0  0  0  0
  129.5960  371.4570  111.6220 C   0  0  0  0  0  0  0  0  0  0  0  0
  128.6270  370.6240  114.8920 C   0  0  0  0  0  0  0  0  0  0  0  0
  126.6570  369.3810  116.9110 C   0  0  0  0  0  0  0  0  0  0  0  0
  128.7950  370.2170  117.9140 C   0  0  0  0  0  0  0  0  0  0  0  0
  128.1810  369.2310  116.9190 C   0  0  0  0  0  0  0  0  0  0  0  0
  129.8080  368.4460  113.5520 N   0  0  0  0  0  0  0  0  0  0  0  0
  129.0220  371.8180  112.7590 N   0  0  0  0  0  0  0  0  0  0  0  0
  129.0940  370.7030  113.5660 N   0  0  0  0  0  0  0  0  0  0  0  0
  128.1660  371.6130  115.4540 O   0  0  0  0  0  0  0  0  0  0  0  0
  130.8410  369.4290  110.6700 C   0  0  0  0  0  0  0  0  0  0  0  0
  131.4860  368.8380  109.9270 N   0  0  0  0  0  0  0  0  0  0  0  0
  129.6490  366.8870  115.3690 C   0  0  0  0  0  0  0  0  0  0  0  0
  128.6570  366.1530  116.0220 C   0  0  0  0  0  0  0  0  0  0  0  0
  128.9220  364.8740  116.4750 C   0  0  0  0  0  0  0  0  0  0  0  0
  130.1520  364.3020  116.2830 C   0  0  0  0  0  0  0  0  0  0  0  0
  131.1390  365.0100  115.6370 C   0  0  0  0  0  0  0  0  0  0  0  0
  130.8910  366.2940  115.1850 C   0  0  0  0  0  0  0  0  0  0  0  0
  129.7025  372.1210  110.7515 H   0  0  0  0  0  0  0  0  0  0  0  0
  126.2867  369.4174  117.9462 H   0  0  0  0  0  0  0  0  0  0  0  0
  126.3828  370.3105  116.3905 H   0  0  0  0  0  0  0  0  0  0  0  0
  126.2068  368.5228  116.3905 H   0  0  0  0  0  0  0  0  0  0  0  0
  128.5856  369.8807  118.9402 H   0  0  0  0  0  0  0  0  0  0  0  0
  129.8829  370.2650  117.7587 H   0  0  0  0  0  0  0  0  0  0  0  0
  128.3581  371.2145  117.7587 H   0  0  0  0  0  0  0  0  0  0  0  0
  128.4344  368.2181  117.2653 H   0  0  0  0  0  0  0  0  0  0  0  0
  130.2398  367.6601  113.0453 H   0  0  0  0  0  0  0  0  0  0  0  0
  127.6611  366.5939  116.1766 H   0  0  0  0  0  0  0  0  0  0  0  0
  128.1354  364.3085  116.9961 H   0  0  0  0  0  0  0  0  0  0  0  0
  130.3494  363.2817  116.6436 H   0  0  0  0  0  0  0  0  0  0  0  0
  132.1277  364.5542  115.4795 H   0  0  0  0  0  0  0  0  0  0  0  0
  131.6885  366.8525  114.6730 H   0  0  0  0  0  0  0  0  0  0  0  0
 15 14  3  0
 14  4  1  0
  5  4  1  0
  5 11  2  0
  4  3  2  0
 11 12  1  0
  3 10  1  0
  3 12  1  0
 10  2  1  0
 12  6  1  0
  2 16  1  0
  2  1  2  0
  6 13  2  0
  6  1  1  0
 21 16  1  0
 21 20  2  0
 16 17  2  0
 20 19  1  0
  1  9  1  0
 17 18  1  0
 19 18  2  0
  7  9  1  0
  9  8  1  0
  5 22  1  0
  7 23  1  0
  7 24  1  0
  7 25  1  0
  8 26  1  0
  8 27  1  0
  8 28  1  0
  9 29  1  0
 10 30  1  0
 17 31  1  0
 18 32  1  0
 19 33  1  0
 20 34  1  0
 21 35  1  0
A    1
C4
A    2
C5
A    3
C8
A    4
C9
A    5
C10
A    6
C13
A    7
C3
A    8
C1
A    9
C2
A   10
N6
A   11
N11
A   12
N12
A   13
O14
A   14
C15
A   15
N16
A   16
C17
A   17
C18
A   18
C19
A   19
C20
A   20
C21
A   21
C22
M  END
