5CEI_50R_A_508
     RDKit          3D

 32 34  0  0  0  0  0  0  0  0999 V2000
    5.5210   58.8400   53.1600 C   0  0  0  0  0  0  0  0  0  0  0  0
    5.7480   58.7770   51.8390 C   0  0  0  0  0  0  0  0  0  0  0  0
    8.8330   60.6720   52.1690 C   0  0  0  0  0  0  0  0  0  0  0  0
    6.9210   59.4080   51.3980 C   0  0  0  0  0  0  0  0  0  0  0  0
    7.4820   59.5230   50.0910 C   0  0  0  0  0  0  0  0  0  0  0  0
    8.6740   60.1960   49.9240 C   0  0  0  0  0  0  0  0  0  0  0  0
    7.6310   60.0010   52.4520 C   0  0  0  0  0  0  0  0  0  0  0  0
    3.5460   57.4150   53.2360 N   0  0  0  0  0  0  0  0  0  0  0  0
    4.3860   58.2500   53.8730 C   0  0  0  0  0  0  0  0  0  0  0  0
    2.4330   56.8340   53.9880 C   0  0  0  0  0  0  0  0  0  0  0  0
    4.2330   58.4830   55.0580 O   0  0  0  0  0  0  0  0  0  0  0  0
    9.3230   60.7380   50.9450 N   0  0  0  0  0  0  0  0  0  0  0  0
    6.7720   59.7430   53.9780 S   0  0  0  0  0  0  0  0  0  0  0  0
    6.8680   59.0190   48.9900 O   0  0  0  0  0  0  0  0  0  0  0  0
    6.6370   57.7090   48.7050 C   0  0  0  0  0  0  0  0  0  0  0  0
    5.7670   57.4250   47.6620 C   0  0  0  0  0  0  0  0  0  0  0  0
    5.4860   56.1200   47.3140 C   0  0  0  0  0  0  0  0  0  0  0  0
    6.0720   55.0690   47.9940 C   0  0  0  0  0  0  0  0  0  0  0  0
    6.9500   55.3550   49.0340 C   0  0  0  0  0  0  0  0  0  0  0  0
    7.2370   56.6650   49.3920 C   0  0  0  0  0  0  0  0  0  0  0  0
    5.6170   53.0880   47.4140 I   0  0  0  0  0  0  0  0  0  0  0  0
    5.0611   58.2654   51.1487 H   0  0  0  0  0  0  0  0  0  0  0  0
    9.3811   61.1560   52.9908 H   0  0  0  0  0  0  0  0  0  0  0  0
    9.0990   60.2858   48.9134 H   0  0  0  0  0  0  0  0  0  0  0  0
    3.6830   57.1893   52.2404 H   0  0  0  0  0  0  0  0  0  0  0  0
    2.6266   56.9350   55.0661 H   0  0  0  0  0  0  0  0  0  0  0  0
    1.5023   57.3613   53.7316 H   0  0  0  0  0  0  0  0  0  0  0  0
    2.3336   55.7689   53.7316 H   0  0  0  0  0  0  0  0  0  0  0  0
    5.2962   58.2495   47.1065 H   0  0  0  0  0  0  0  0  0  0  0  0
    4.7894   55.9140   46.4880 H   0  0  0  0  0  0  0  0  0  0  0  0
    7.4254   54.5285   49.5825 H   0  0  0  0  0  0  0  0  0  0  0  0
    7.9359   56.8734   50.2154 H   0  0  0  0  0  0  0  0  0  0  0  0
 17 16  2  0
 17 18  1  0
 21 18  1  0
 16 15  1  0
 18 19  2  0
 15 14  1  0
 15 20  2  0
 14  5  1  0
 19 20  1  0
  6  5  1  0
  6 12  2  0
  5  4  2  0
 12  3  1  0
  4  2  1  0
  4  7  1  0
  2  1  2  0
  3  7  2  0
  7 13  1  0
  1  9  1  0
  1 13  1  0
  8  9  1  0
  8 10  1  0
  9 11  2  0
  2 22  1  0
  3 23  1  0
  6 24  1  0
  8 25  1  0
 10 26  1  0
 10 27  1  0
 10 28  1  0
 16 29  1  0
 17 30  1  0
 19 31  1  0
 20 32  1  0
A    1
C5
A    2
C6
A    3
C11
A    4
C7
A    5
C8
A    6
C9
A    7
C12
A    8
N2
A    9
C3
A   10
C1
A   11
O4
A   12
N10
A   13
S13
A   14
O14
A   15
C15
A   16
C16
A   17
C17
A   18
C18
A   19
C19
A   20
C20
A   21
I21
M  END
