5CF4_50Y_A_4000
     RDKit          3D

 60 64  0  0  0  0  0  0  0  0999 V2000
    0.5860   45.5980    1.1590 C   0  0  0  0  0  0  0  0  0  0  0  0
   -0.3220   46.7010    1.5730 C   0  0  0  0  0  0  0  0  0  0  0  0
   -0.8930   48.5330   -0.9790 C   0  0  0  0  0  0  0  0  0  0  0  0
   -0.8180   47.5360   -3.3850 C   0  0  0  0  0  0  0  0  0  0  0  0
   -0.0070   49.8470   -2.7750 C   0  0  0  0  0  0  0  0  0  0  0  0
   -0.5870   46.0990   -3.0820 C   0  0  0  0  0  0  0  0  0  0  0  0
   -1.9650   46.5910   -3.3640 C   0  0  0  0  0  0  0  0  0  0  0  0
   -0.8250   51.0930   -2.7710 C   0  0  0  0  0  0  0  0  0  0  0  0
   -6.7000   44.4280    0.1240 C   0  0  0  0  0  0  0  0  0  0  0  0
   -3.5810   43.1820    5.7800 C   0  0  0  0  0  0  0  0  0  0  0  0
   -3.6700   46.3530    0.1020 C   0  0  0  0  0  0  0  0  0  0  0  0
   -2.7240   46.1200    1.1100 C   0  0  0  0  0  0  0  0  0  0  0  0
   -2.8630   45.3750    2.2140 N   0  0  0  0  0  0  0  0  0  0  0  0
   -4.0220   44.7160    2.3820 C   0  0  0  0  0  0  0  0  0  0  0  0
   -5.0170   44.7640    1.3750 C   0  0  0  0  0  0  0  0  0  0  0  0
   -4.8460   45.5810    0.2560 C   0  0  0  0  0  0  0  0  0  0  0  0
   -3.0910   47.2900   -0.7990 C   0  0  0  0  0  0  0  0  0  0  0  0
   -1.8210   47.5600   -0.3520 C   0  0  0  0  0  0  0  0  0  0  0  0
   -1.5820   46.8290    0.8100 N   0  0  0  0  0  0  0  0  0  0  0  0
   -6.2000   44.0490    1.2750 N   0  0  0  0  0  0  0  0  0  0  0  0
   -5.9480   45.3500   -0.5400 N   0  0  0  0  0  0  0  0  0  0  0  0
   -4.2040   44.0450    3.5310 N   0  0  0  0  0  0  0  0  0  0  0  0
   -6.2710   45.9690   -1.8200 C   0  0  0  0  0  0  0  0  0  0  0  0
   -0.4660   49.4190   -0.2500 O   0  0  0  0  0  0  0  0  0  0  0  0
   -0.6150   48.5560   -2.3130 N   0  0  0  0  0  0  0  0  0  0  0  0
   -0.4460   50.4520   -4.0640 C   0  0  0  0  0  0  0  0  0  0  0  0
   -3.2710   44.1350    4.6410 C   0  0  0  0  0  0  0  0  0  0  0  0
   -3.0540   43.6660    7.1060 C   0  0  0  0  0  0  0  0  0  0  0  0
   -3.8500   44.7770    7.5060 O   0  0  0  0  0  0  0  0  0  0  0  0
   -3.4270   45.3460    8.7400 C   0  0  0  0  0  0  0  0  0  0  0  0
    0.9933   45.1032    2.0531 H   0  0  0  0  0  0  0  0  0  0  0  0
    0.0247   44.8667    0.5589 H   0  0  0  0  0  0  0  0  0  0  0  0
    1.4115   46.0084    0.5589 H   0  0  0  0  0  0  0  0  0  0  0  0
    0.2302   47.6468    1.4706 H   0  0  0  0  0  0  0  0  0  0  0  0
   -0.6242   46.4631    2.6036 H   0  0  0  0  0  0  0  0  0  0  0  0
   -0.4397   48.2600   -4.1217 H   0  0  0  0  0  0  0  0  0  0  0  0
    0.9614   49.5513   -2.3451 H   0  0  0  0  0  0  0  0  0  0  0  0
   -0.3112   45.7889   -2.0633 H   0  0  0  0  0  0  0  0  0  0  0  0
    0.0578   45.3100   -3.4964 H   0  0  0  0  0  0  0  0  0  0  0  0
   -2.7069   46.6441   -2.5536 H   0  0  0  0  0  0  0  0  0  0  0  0
   -2.7597   46.3158   -4.0730 H   0  0  0  0  0  0  0  0  0  0  0  0
   -0.3688   52.0497   -2.4767 H   0  0  0  0  0  0  0  0  0  0  0  0
   -1.7718   51.4008   -2.3031 H   0  0  0  0  0  0  0  0  0  0  0  0
   -7.6475   44.0345   -0.2726 H   0  0  0  0  0  0  0  0  0  0  0  0
   -4.6725   43.0683    5.8559 H   0  0  0  0  0  0  0  0  0  0  0  0
   -3.0857   42.2257    5.5558 H   0  0  0  0  0  0  0  0  0  0  0  0
   -3.5724   47.7192   -1.6900 H   0  0  0  0  0  0  0  0  0  0  0  0
   -5.0353   43.4447    3.6288 H   0  0  0  0  0  0  0  0  0  0  0  0
   -6.7734   46.9318   -1.6453 H   0  0  0  0  0  0  0  0  0  0  0  0
   -5.3454   46.1366   -2.3902 H   0  0  0  0  0  0  0  0  0  0  0  0
   -6.9379   45.3056   -2.3902 H   0  0  0  0  0  0  0  0  0  0  0  0
   -1.2114   49.9506   -4.6745 H   0  0  0  0  0  0  0  0  0  0  0  0
    0.0636   50.7882   -4.9791 H   0  0  0  0  0  0  0  0  0  0  0  0
   -2.2620   43.9097    4.2652 H   0  0  0  0  0  0  0  0  0  0  0  0
   -3.3516   45.1548    5.0455 H   0  0  0  0  0  0  0  0  0  0  0  0
   -3.1273   42.8632    7.8544 H   0  0  0  0  0  0  0  0  0  0  0  0
   -1.9975   43.9594    7.0180 H   0  0  0  0  0  0  0  0  0  0  0  0
   -3.8545   44.7709    9.5746 H   0  0  0  0  0  0  0  0  0  0  0  0
   -2.3290   45.3176    8.7996 H   0  0  0  0  0  0  0  0  0  0  0  0
   -3.7706   46.3893    8.7996 H   0  0  0  0  0  0  0  0  0  0  0  0
 26  8  1  0
 26  5  1  0
  7  4  1  0
  7  6  1  0
  4  6  1  0
  4 25  1  0
  8  5  1  0
  5 25  1  0
 25  3  1  0
 23 21  1  0
  3 18  1  0
  3 24  2  0
 17 18  2  0
 17 11  1  0
 21  9  1  0
 21 16  1  0
 18 19  1  0
 11 16  2  0
 11 12  1  0
  9 20  2  0
 16 15  1  0
 19 12  1  0
 19  2  1  0
 12 13  2  0
  1  2  1  0
 20 15  1  0
 15 14  2  0
 13 14  1  0
 14 22  1  0
 22 27  1  0
 27 10  1  0
 10 28  1  0
 28 29  1  0
 29 30  1  0
  1 31  1  0
  1 32  1  0
  1 33  1  0
  2 34  1  0
  2 35  1  0
  4 36  1  0
  5 37  1  0
  6 38  1  0
  6 39  1  0
  7 40  1  0
  7 41  1  0
  8 42  1  0
  8 43  1  0
  9 44  1  0
 10 45  1  0
 10 46  1  0
 17 47  1  0
 22 48  1  0
 23 49  1  0
 23 50  1  0
 23 51  1  0
 26 52  1  0
 26 53  1  0
 27 54  1  0
 27 55  1  0
 28 56  1  0
 28 57  1  0
 30 58  1  0
 30 59  1  0
 30 60  1  0
A    1
C17
A    2
C16
A    3
C15
A    4
C20
A    5
C21
A    6
C22
A    7
C23
A    8
C24
A    9
C11
A   10
C27
A   11
C1
A   12
C2
A   13
N3
A   14
C4
A   15
C5
A   16
C6
A   17
C7
A   18
C8
A   19
N9
A   20
N10
A   21
N12
A   22
N13
A   23
C14
A   24
O18
A   25
N19
A   26
C25
A   27
C26
A   28
C28
A   29
O29
A   30
C30
M  END
