5CF5_50W_A_4000
     RDKit          3D

 59 64  0  0  0  0  0  0  0  0999 V2000
   -0.9730   48.3170   -1.2310 C   0  0  0  0  0  0  0  0  0  0  0  0
    0.5290   45.8440    0.9710 C   0  0  0  0  0  0  0  0  0  0  0  0
   -0.4790   46.8640    1.4210 C   0  0  0  0  0  0  0  0  0  0  0  0
   -0.0690   49.3950   -3.2020 C   0  0  0  0  0  0  0  0  0  0  0  0
   -1.2030   47.1430   -3.4630 C   0  0  0  0  0  0  0  0  0  0  0  0
   -0.7780   45.7530   -3.1410 C   0  0  0  0  0  0  0  0  0  0  0  0
   -0.1490   46.4820   -4.2810 C   0  0  0  0  0  0  0  0  0  0  0  0
   -0.7490   50.2080   -4.2500 C   0  0  0  0  0  0  0  0  0  0  0  0
   -1.9830   47.4410   -0.5970 C   0  0  0  0  0  0  0  0  0  0  0  0
   -3.7720   46.1910   -0.0610 C   0  0  0  0  0  0  0  0  0  0  0  0
   -2.8030   46.0360    0.9410 C   0  0  0  0  0  0  0  0  0  0  0  0
   -2.8740   45.2950    2.0550 N   0  0  0  0  0  0  0  0  0  0  0  0
   -4.0110   44.6230    2.2770 C   0  0  0  0  0  0  0  0  0  0  0  0
   -5.0580   44.6450    1.3200 C   0  0  0  0  0  0  0  0  0  0  0  0
   -4.9450   45.4310    0.1760 C   0  0  0  0  0  0  0  0  0  0  0  0
   -6.2500   43.9380    1.3040 N   0  0  0  0  0  0  0  0  0  0  0  0
   -6.8090   44.2900    0.1710 C   0  0  0  0  0  0  0  0  0  0  0  0
   -6.0910   45.1910   -0.5520 N   0  0  0  0  0  0  0  0  0  0  0  0
   -3.2320   47.0850   -1.0230 C   0  0  0  0  0  0  0  0  0  0  0  0
   -1.7120   46.8050    0.6100 N   0  0  0  0  0  0  0  0  0  0  0  0
   -6.4710   45.7550   -1.8440 C   0  0  0  0  0  0  0  0  0  0  0  0
   -4.2010   44.0190    3.5140 N   0  0  0  0  0  0  0  0  0  0  0  0
   -0.8070   48.2730   -2.5740 N   0  0  0  0  0  0  0  0  0  0  0  0
   -0.3740   49.1240   -0.5230 O   0  0  0  0  0  0  0  0  0  0  0  0
   -0.4820   50.7950   -2.9020 C   0  0  0  0  0  0  0  0  0  0  0  0
   -3.3210   44.0530    4.5570 C   0  0  0  0  0  0  0  0  0  0  0  0
   -3.6320   43.4970    5.6970 N   0  0  0  0  0  0  0  0  0  0  0  0
   -1.8310   44.9360    4.5570 S   0  0  0  0  0  0  0  0  0  0  0  0
   -2.6740   43.7770    6.6500 C   0  0  0  0  0  0  0  0  0  0  0  0
   -1.6250   44.5420    6.2340 C   0  0  0  0  0  0  0  0  0  0  0  0
   -2.8460   43.1790    8.0080 C   0  0  0  0  0  0  0  0  0  0  0  0
   -0.4740   45.1240    7.0090 C   0  0  0  0  0  0  0  0  0  0  0  0
    0.9932   45.3743    1.8507 H   0  0  0  0  0  0  0  0  0  0  0  0
    0.0270   45.0743    0.3665 H   0  0  0  0  0  0  0  0  0  0  0  0
    1.3046   46.3369    0.3665 H   0  0  0  0  0  0  0  0  0  0  0  0
   -0.0378   47.8673    1.3272 H   0  0  0  0  0  0  0  0  0  0  0  0
   -0.7443   46.6474    2.4663 H   0  0  0  0  0  0  0  0  0  0  0  0
    0.8764   48.8359   -3.1420 H   0  0  0  0  0  0  0  0  0  0  0  0
   -2.1730   47.6206   -3.6657 H   0  0  0  0  0  0  0  0  0  0  0  0
   -1.4585   44.9108   -3.3349 H   0  0  0  0  0  0  0  0  0  0  0  0
   -0.4028   45.2425   -2.2418 H   0  0  0  0  0  0  0  0  0  0  0  0
   -0.3656   46.1774   -5.3155 H   0  0  0  0  0  0  0  0  0  0  0  0
    0.8822   46.7320   -4.5709 H   0  0  0  0  0  0  0  0  0  0  0  0
   -0.1841   50.5608   -5.1255 H   0  0  0  0  0  0  0  0  0  0  0  0
   -1.6418   50.0773   -4.8792 H   0  0  0  0  0  0  0  0  0  0  0  0
   -7.7768   43.8903   -0.1661 H   0  0  0  0  0  0  0  0  0  0  0  0
   -3.7281   47.4283   -1.9428 H   0  0  0  0  0  0  0  0  0  0  0  0
   -7.0792   46.6577   -1.6854 H   0  0  0  0  0  0  0  0  0  0  0  0
   -5.5652   46.0179   -2.4100 H   0  0  0  0  0  0  0  0  0  0  0  0
   -7.0549   45.0142   -2.4100 H   0  0  0  0  0  0  0  0  0  0  0  0
   -5.0804   43.5018    3.6559 H   0  0  0  0  0  0  0  0  0  0  0  0
    0.2794   51.5802   -2.7848 H   0  0  0  0  0  0  0  0  0  0  0  0
   -1.0968   51.2759   -2.1269 H   0  0  0  0  0  0  0  0  0  0  0  0
   -2.6276   43.9383    8.7733 H   0  0  0  0  0  0  0  0  0  0  0  0
   -3.8817   42.8274    8.1253 H   0  0  0  0  0  0  0  0  0  0  0  0
   -2.1554   42.3309    8.1253 H   0  0  0  0  0  0  0  0  0  0  0  0
   -0.6702   45.0248    8.0868 H   0  0  0  0  0  0  0  0  0  0  0  0
    0.4501   44.5848    6.7534 H   0  0  0  0  0  0  0  0  0  0  0  0
   -0.3605   46.1878    6.7534 H   0  0  0  0  0  0  0  0  0  0  0  0
  7  5  1  0
  7  6  1  0
  8  4  1  0
  8 25  1  0
  5  6  1  0
  5 23  1  0
  4 25  1  0
  4 23  1  0
 23  1  1  0
 21 18  1  0
  1  9  1  0
  1 24  2  0
 19  9  2  0
 19 10  1  0
  9 20  1  0
 18 17  1  0
 18 15  1  0
 10 15  2  0
 10 11  1  0
 17 16  2  0
 15 14  1  0
 20 11  1  0
 20  3  1  0
 11 12  2  0
  2  3  1  0
 16 14  1  0
 14 13  2  0
 12 13  1  0
 13 22  1  0
 22 26  1  0
 26 28  1  0
 26 27  2  0
 28 30  1  0
 27 29  1  0
 30 29  2  0
 30 32  1  0
 29 31  1  0
  2 33  1  0
  2 34  1  0
  2 35  1  0
  3 36  1  0
  3 37  1  0
  4 38  1  0
  5 39  1  0
  6 40  1  0
  6 41  1  0
  7 42  1  0
  7 43  1  0
  8 44  1  0
  8 45  1  0
 17 46  1  0
 19 47  1  0
 21 48  1  0
 21 49  1  0
 21 50  1  0
 22 51  1  0
 25 52  1  0
 25 53  1  0
 31 54  1  0
 31 55  1  0
 31 56  1  0
 32 57  1  0
 32 58  1  0
 32 59  1  0
A    1
C13
A    2
C17
A    3
C16
A    4
C20
A    5
C21
A    6
C22
A    7
C23
A    8
C24
A    9
C11
A   10
C1
A   11
C2
A   12
N3
A   13
C4
A   14
C5
A   15
C6
A   16
N7
A   17
C8
A   18
N9
A   19
C10
A   20
N12
A   21
C14
A   22
N15
A   23
N18
A   24
O19
A   25
C25
A   26
C26
A   27
N27
A   28
S28
A   29
C29
A   30
C30
A   31
C31
A   32
C32
M  END
