5CF6_50O_A_4000
     RDKit          3D

 55 59  0  0  0  0  0  0  0  0999 V2000
   -7.5530  -56.6650    0.9170 C   0  0  0  0  0  0  0  0  0  0  0  0
  -12.0490  -59.3760   -4.5190 C   0  0  0  0  0  0  0  0  0  0  0  0
  -10.0820  -62.0390    2.0480 C   0  0  0  0  0  0  0  0  0  0  0  0
  -10.5110  -55.7690   -2.0340 C   0  0  0  0  0  0  0  0  0  0  0  0
  -10.5500  -54.3120   -2.4140 C   0  0  0  0  0  0  0  0  0  0  0  0
   -9.0500  -56.2930    2.7350 C   0  0  0  0  0  0  0  0  0  0  0  0
  -11.5950  -62.5860    0.1110 C   0  0  0  0  0  0  0  0  0  0  0  0
   -9.3930  -57.2320    3.8330 C   0  0  0  0  0  0  0  0  0  0  0  0
   -9.8910  -58.6640   -1.0820 C   0  0  0  0  0  0  0  0  0  0  0  0
   -9.7470  -59.5100    0.0280 C   0  0  0  0  0  0  0  0  0  0  0  0
   -9.1640  -57.5090   -0.8480 N   0  0  0  0  0  0  0  0  0  0  0  0
  -10.6030  -58.8870   -2.2000 N   0  0  0  0  0  0  0  0  0  0  0  0
   -8.5390  -57.6380    0.3890 C   0  0  0  0  0  0  0  0  0  0  0  0
  -11.2800  -60.9510   -1.2090 C   0  0  0  0  0  0  0  0  0  0  0  0
  -10.4860  -60.7120   -0.0870 C   0  0  0  0  0  0  0  0  0  0  0  0
  -11.9730  -62.1430   -1.0670 N   0  0  0  0  0  0  0  0  0  0  0  0
   -8.8840  -58.8460    0.9450 C   0  0  0  0  0  0  0  0  0  0  0  0
  -11.3190  -60.0140   -2.2640 C   0  0  0  0  0  0  0  0  0  0  0  0
  -10.6910  -61.7890    0.7470 N   0  0  0  0  0  0  0  0  0  0  0  0
   -9.1240  -56.3290   -1.7330 C   0  0  0  0  0  0  0  0  0  0  0  0
  -12.0840  -60.2290   -3.3480 N   0  0  0  0  0  0  0  0  0  0  0  0
   -7.6720  -56.2410    2.1920 N   0  0  0  0  0  0  0  0  0  0  0  0
   -6.5460  -56.4790    0.2770 O   0  0  0  0  0  0  0  0  0  0  0  0
  -11.6800  -54.0750   -3.2550 O   0  0  0  0  0  0  0  0  0  0  0  0
  -11.1230  -56.5210   -3.0860 O   0  0  0  0  0  0  0  0  0  0  0  0
   -6.5790  -55.6420    3.0170 C   0  0  0  0  0  0  0  0  0  0  0  0
   -9.3170  -55.7650    4.0970 C   0  0  0  0  0  0  0  0  0  0  0  0
   -5.1560  -55.9830    2.7310 C   0  0  0  0  0  0  0  0  0  0  0  0
   -5.8170  -56.5040    3.9660 C   0  0  0  0  0  0  0  0  0  0  0  0
  -12.0058  -58.3229   -4.2043 H   0  0  0  0  0  0  0  0  0  0  0  0
  -11.1599  -59.6157   -5.1208 H   0  0  0  0  0  0  0  0  0  0  0  0
  -12.9547  -59.5420   -5.1208 H   0  0  0  0  0  0  0  0  0  0  0  0
  -10.7849  -61.7505    2.8434 H   0  0  0  0  0  0  0  0  0  0  0  0
   -9.8419  -63.1084    2.1410 H   0  0  0  0  0  0  0  0  0  0  0  0
   -9.1598  -61.4467    2.1410 H   0  0  0  0  0  0  0  0  0  0  0  0
  -11.0583  -55.8587   -1.0841 H   0  0  0  0  0  0  0  0  0  0  0  0
   -9.6284  -54.0478   -2.9533 H   0  0  0  0  0  0  0  0  0  0  0  0
  -10.6297  -53.6958   -1.5063 H   0  0  0  0  0  0  0  0  0  0  0  0
   -9.4545  -56.1046    1.7295 H   0  0  0  0  0  0  0  0  0  0  0  0
  -11.9761  -63.5213    0.5469 H   0  0  0  0  0  0  0  0  0  0  0  0
  -10.3675  -57.7422    3.8367 H   0  0  0  0  0  0  0  0  0  0  0  0
   -8.9236  -58.1269    4.2676 H   0  0  0  0  0  0  0  0  0  0  0  0
   -8.5535  -59.2303    1.9213 H   0  0  0  0  0  0  0  0  0  0  0  0
   -8.6477  -56.6171   -2.6818 H   0  0  0  0  0  0  0  0  0  0  0  0
   -8.5553  -55.5440   -1.2131 H   0  0  0  0  0  0  0  0  0  0  0  0
  -12.7238  -61.0362   -3.3463 H   0  0  0  0  0  0  0  0  0  0  0  0
  -12.4789  -53.9074   -2.6948 H   0  0  0  0  0  0  0  0  0  0  0  0
  -11.6974  -57.2268   -2.6961 H   0  0  0  0  0  0  0  0  0  0  0  0
   -7.1488  -54.7048    3.1004 H   0  0  0  0  0  0  0  0  0  0  0  0
   -8.4930  -55.3562    4.7002 H   0  0  0  0  0  0  0  0  0  0  0  0
   -9.9993  -55.0136    4.5211 H   0  0  0  0  0  0  0  0  0  0  0  0
   -4.9095  -56.6694    1.9076 H   0  0  0  0  0  0  0  0  0  0  0  0
   -4.2442  -55.4045    2.5214 H   0  0  0  0  0  0  0  0  0  0  0  0
   -6.0574  -57.5740    4.0518 H   0  0  0  0  0  0  0  0  0  0  0  0
   -5.5937  -56.4681    5.0425 H   0  0  0  0  0  0  0  0  0  0  0  0
  2 21  1  0
 21 18  1  0
 24  5  1  0
 25  4  1  0
  5  4  1  0
 18 12  1  0
 18 14  2  0
 12  9  2  0
  4 20  1  0
 20 11  1  0
 14 16  1  0
 14 15  1  0
  9 11  1  0
  9 10  1  0
 16  7  2  0
 11 13  1  0
 15 10  2  0
 15 19  1  0
 10 17  1  0
  7 19  1  0
 23  1  2  0
 13  1  1  0
 13 17  2  0
 19  3  1  0
  1 22  1  0
 22  6  1  0
 22 26  1  0
 28 26  1  0
 28 29  1  0
  6  8  1  0
  6 27  1  0
 26 29  1  0
  8 27  1  0
  2 30  1  0
  2 31  1  0
  2 32  1  0
  3 33  1  0
  3 34  1  0
  3 35  1  0
  4 36  1  0
  5 37  1  0
  5 38  1  0
  6 39  1  0
  7 40  1  0
  8 41  1  0
  8 42  1  0
 17 43  1  0
 20 44  1  0
 20 45  1  0
 21 46  1  0
 24 47  1  0
 25 48  1  0
 26 49  1  0
 27 50  1  0
 27 51  1  0
 28 52  1  0
 28 53  1  0
 29 54  1  0
 29 55  1  0
A    1
C13
A    2
C18
A    3
C17
A    4
C16
A    5
C21
A    6
C24
A    7
C12
A    8
C27
A    9
C1
A   10
C2
A   11
N3
A   12
N4
A   13
C5
A   14
C6
A   15
C7
A   16
N8
A   17
C9
A   18
C10
A   19
N11
A   20
C14
A   21
N15
A   22
N19
A   23
O20
A   24
O22
A   25
O23
A   26
C25
A   27
C26
A   28
C28
A   29
C29
M  END
