5CGA_KP6_A_301
     RDKit          3D

 25 25  0  0  0  0  0  0  0  0999 V2000
   -9.8760   -1.9510   -6.7510 O   0  0  0  0  0  0  0  0  0  0  0  0
   -9.6470   -0.6840   -7.3780 C   0  0  0  0  0  0  0  0  0  0  0  0
   -8.4370    0.0260   -6.7130 C   0  0  0  0  0  0  0  0  0  0  0  0
   -8.3280    1.4520   -7.1880 C   0  0  0  0  0  0  0  0  0  0  0  0
   -7.7280    1.9220   -8.4710 C   0  0  0  0  0  0  0  0  0  0  0  0
   -7.0750    1.0550   -9.4780 C   0  0  0  0  0  0  0  0  0  0  0  0
   -7.8520    3.2840   -8.5240 N   0  0  0  0  0  0  0  0  0  0  0  0
   -7.5080    4.2740   -9.5830 C   0  0  0  0  0  0  0  0  0  0  0  0
   -8.5250    3.7510   -7.4160 N   0  0  0  0  0  0  0  0  0  0  0  0
   -8.8500    2.6970   -6.5750 C   0  0  0  0  0  0  0  0  0  0  0  0
   -9.5670    2.7180   -5.2390 C   0  0  0  0  0  0  0  0  0  0  0  0
   -9.8561   -1.8408   -5.7674 H   0  0  0  0  0  0  0  0  0  0  0  0
   -9.4364   -0.8390   -8.4465 H   0  0  0  0  0  0  0  0  0  0  0  0
  -10.5428   -0.0562   -7.2618 H   0  0  0  0  0  0  0  0  0  0  0  0
   -8.5696    0.0185   -5.6210 H   0  0  0  0  0  0  0  0  0  0  0  0
   -7.5171   -0.5099   -6.9899 H   0  0  0  0  0  0  0  0  0  0  0  0
   -6.4889    0.2769   -8.9671 H   0  0  0  0  0  0  0  0  0  0  0  0
   -7.8429    0.5817  -10.1075 H   0  0  0  0  0  0  0  0  0  0  0  0
   -6.4080    1.6623  -10.1075 H   0  0  0  0  0  0  0  0  0  0  0  0
   -7.1814    5.2139   -9.1141 H   0  0  0  0  0  0  0  0  0  0  0  0
   -6.6959    3.8747  -10.2084 H   0  0  0  0  0  0  0  0  0  0  0  0
   -8.3927    4.4643  -10.2084 H   0  0  0  0  0  0  0  0  0  0  0  0
   -8.8270    2.6963   -4.4254 H   0  0  0  0  0  0  0  0  0  0  0  0
  -10.1707    3.6342   -5.1612 H   0  0  0  0  0  0  0  0  0  0  0  0
  -10.2233    1.8387   -5.1612 H   0  0  0  0  0  0  0  0  0  0  0  0
  8  7  1  0
  6  5  1  0
  7  5  1  0
  7  9  1  0
  5  4  2  0
  9 10  2  0
  2  1  1  0
  2  3  1  0
  4  3  1  0
  4 10  1  0
 10 11  1  0
  1 12  1  0
  2 13  1  0
  2 14  1  0
  3 15  1  0
  3 16  1  0
  6 17  1  0
  6 18  1  0
  6 19  1  0
  8 20  1  0
  8 21  1  0
  8 22  1  0
 11 23  1  0
 11 24  1  0
 11 25  1  0
A    1
O11
A    2
C10
A    3
C09
A    4
C08
A    5
C06
A    6
C07
A    7
N04
A    8
C05
A    9
N03
A   10
C02
A   11
C01
M  END
