2CLI_F9F_A_1269
     RDKit          3D

 33 33  0  0  0  0  0  0  0  0999 V2000
   50.8670   23.3970   15.0090 C   0  0  0  0  0  0  0  0  0  0  0  0
   49.6770   23.3090   15.8670 C   0  0  0  0  0  0  0  0  0  0  0  0
   48.9080   24.5840   15.9470 C   0  0  0  0  0  0  0  0  0  0  0  0
   49.2410   25.7730   15.3120 C   0  0  0  0  0  0  0  0  0  0  0  0
   50.4920   25.7890   14.4320 C   0  0  0  0  0  0  0  0  0  0  0  0
   51.2740   24.6020   14.3160 C   0  0  0  0  0  0  0  0  0  0  0  0
   51.7890   22.3450   14.7630 O   0  0  0  0  0  0  0  0  0  0  0  0
   51.3560   20.9420   14.5680 C   0  0  0  0  0  0  0  0  0  0  0  0
   52.3740   20.2670   14.0460 F   0  0  0  0  0  0  0  0  0  0  0  0
   50.3800   20.8300   13.6300 F   0  0  0  0  0  0  0  0  0  0  0  0
   50.9450   20.3080   15.6980 F   0  0  0  0  0  0  0  0  0  0  0  0
   48.1940   27.2170   15.5520 S   0  0  0  0  0  0  0  0  0  0  0  0
   48.7980   28.5920   14.7060 N   0  0  0  0  0  0  0  0  0  0  0  0
   48.9810   28.4750   13.2410 C   0  0  0  0  0  0  0  0  0  0  0  0
   47.8140   28.9640   12.5750 C   0  0  0  0  0  0  0  0  0  0  0  0
   47.7940   28.4390   11.2590 O   0  0  0  0  0  0  0  0  0  0  0  0
   48.0480   29.4660   10.0210 P   0  0  0  0  0  0  0  0  0  0  0  0
   49.2120   30.3470   10.3130 O   0  0  0  0  0  0  0  0  0  0  0  0
   48.2890   28.6460    8.8260 O   0  0  0  0  0  0  0  0  0  0  0  0
   46.8070   30.2620    9.8870 O   0  0  0  0  0  0  0  0  0  0  0  0
   48.0870   27.4380   17.0120 O   0  0  0  0  0  0  0  0  0  0  0  0
   46.8790   26.9040   14.9320 O   0  0  0  0  0  0  0  0  0  0  0  0
   49.3824   22.3920   16.3983 H   0  0  0  0  0  0  0  0  0  0  0  0
   47.9968   24.5825   16.5632 H   0  0  0  0  0  0  0  0  0  0  0  0
   50.7846   26.7038   13.8958 H   0  0  0  0  0  0  0  0  0  0  0  0
   52.1857   24.6016   13.7006 H   0  0  0  0  0  0  0  0  0  0  0  0
   48.1417   29.3682   14.8727 H   0  0  0  0  0  0  0  0  0  0  0  0
   49.8549   29.0673   12.9321 H   0  0  0  0  0  0  0  0  0  0  0  0
   49.1407   27.4199   12.9742 H   0  0  0  0  0  0  0  0  0  0  0  0
   46.9138   28.6396   13.1176 H   0  0  0  0  0  0  0  0  0  0  0  0
   47.8318   30.0634   12.5419 H   0  0  0  0  0  0  0  0  0  0  0  0
   49.3240   30.4318   11.2930 H   0  0  0  0  0  0  0  0  0  0  0  0
   46.4593   30.4850   10.7867 H   0  0  0  0  0  0  0  0  0  0  0  0
  1  2  2  0
  1  6  1  0
  1  7  1  0
  2  3  1  0
  3  4  2  0
  4  5  1  0
  4 12  1  0
  5  6  2  0
  7  8  1  0
  8  9  1  0
  8 10  1  0
  8 11  1  0
 12 13  1  0
 12 21  2  0
 12 22  2  0
 13 14  1  0
 14 15  1  0
 15 16  1  0
 16 17  1  0
 17 18  1  0
 17 19  2  0
 17 20  1  0
  2 23  1  0
  3 24  1  0
  5 25  1  0
  6 26  1  0
 13 27  1  0
 14 28  1  0
 14 29  1  0
 15 30  1  0
 15 31  1  0
 18 32  1  0
 20 33  1  0
A    1
C1
A    2
C2
A    3
C3
A    4
C4
A    5
C5
A    6
C6
A    7
O7
A    8
C8
A    9
F9F
A   10
F10
A   11
F11
A   12
S12
A   13
N13
A   14
C14
A   15
C15
A   16
O16
A   17
P17
A   18
O18
A   19
O19
A   20
O20
A   21
O21
A   22
O22
M  END
