5CI7_51W_A_401
     RDKit          3D

 51 53  0  0  0  0  0  0  0  0999 V2000
   -4.7170  -41.1960  -17.8050 N   0  0  0  0  0  0  0  0  0  0  0  0
   -3.4090  -40.5840  -17.9560 C   0  0  0  0  0  0  0  0  0  0  0  0
   -1.5640  -39.2060  -17.3170 C   0  0  0  0  0  0  0  0  0  0  0  0
    0.4400  -38.5730  -15.9770 C   0  0  0  0  0  0  0  0  0  0  0  0
    2.4050  -37.1230  -13.2090 C   0  0  0  0  0  0  0  0  0  0  0  0
    1.2760  -36.1520  -13.2390 C   0  0  0  0  0  0  0  0  0  0  0  0
    0.4910  -36.4660  -14.4910 C   0  0  0  0  0  0  0  0  0  0  0  0
   -0.8640  -39.5320  -18.4590 C   0  0  0  0  0  0  0  0  0  0  0  0
   -2.6810  -40.9250  -19.1020 C   0  0  0  0  0  0  0  0  0  0  0  0
   -3.4290  -35.3390  -14.8380 N   0  0  0  0  0  0  0  0  0  0  0  0
   -3.7160  -36.7340  -14.7380 C   0  0  0  0  0  0  0  0  0  0  0  0
   -5.0780  -37.1460  -14.2570 C   0  0  0  0  0  0  0  0  0  0  0  0
   -5.1680  -38.4460  -13.5130 C   0  0  0  0  0  0  0  0  0  0  0  0
   -6.3760  -39.2000  -13.6890 N   0  0  0  0  0  0  0  0  0  0  0  0
   -6.5120  -40.0800  -14.8020 C   0  0  0  0  0  0  0  0  0  0  0  0
   -7.6710  -40.8500  -14.9270 C   0  0  0  0  0  0  0  0  0  0  0  0
   -9.2580  -40.7810  -13.5310 I   0  0  0  0  0  0  0  0  0  0  0  0
   -7.7840  -41.7050  -16.0080 C   0  0  0  0  0  0  0  0  0  0  0  0
   -6.7960  -41.7420  -16.8910 N   0  0  0  0  0  0  0  0  0  0  0  0
   -5.6920  -41.0180  -16.7770 C   0  0  0  0  0  0  0  0  0  0  0  0
   -2.8490  -39.7300  -17.0470 C   0  0  0  0  0  0  0  0  0  0  0  0
   -0.9290  -38.3030  -16.3930 N   0  0  0  0  0  0  0  0  0  0  0  0
    1.0860  -37.6550  -15.0520 N   0  0  0  0  0  0  0  0  0  0  0  0
    2.4200  -37.7650  -14.5350 C   0  0  0  0  0  0  0  0  0  0  0  0
    1.0310  -39.5710  -16.4080 O   0  0  0  0  0  0  0  0  0  0  0  0
   -1.4330  -40.4030  -19.3670 C   0  0  0  0  0  0  0  0  0  0  0  0
   -5.5380  -40.1840  -15.7270 N   0  0  0  0  0  0  0  0  0  0  0  0
   -4.9807  -41.8566  -18.5500 H   0  0  0  0  0  0  0  0  0  0  0  0
    2.2430  -37.8742  -12.4219 H   0  0  0  0  0  0  0  0  0  0  0  0
    3.3610  -36.6246  -12.9905 H   0  0  0  0  0  0  0  0  0  0  0  0
    1.6589  -35.1215  -13.2762 H   0  0  0  0  0  0  0  0  0  0  0  0
    0.6492  -36.2344  -12.3388 H   0  0  0  0  0  0  0  0  0  0  0  0
    0.5612  -35.6316  -15.2043 H   0  0  0  0  0  0  0  0  0  0  0  0
   -0.5752  -36.6186  -14.2677 H   0  0  0  0  0  0  0  0  0  0  0  0
    0.1326  -39.1048  -18.6441 H   0  0  0  0  0  0  0  0  0  0  0  0
   -3.1209  -41.6355  -19.8173 H   0  0  0  0  0  0  0  0  0  0  0  0
   -3.3463  -34.9369  -13.8933 H   0  0  0  0  0  0  0  0  0  0  0  0
   -2.5431  -35.2063  -15.3464 H   0  0  0  0  0  0  0  0  0  0  0  0
   -3.5789  -37.1678  -15.7395 H   0  0  0  0  0  0  0  0  0  0  0  0
   -3.0302  -37.0980  -13.9588 H   0  0  0  0  0  0  0  0  0  0  0  0
   -5.4488  -36.3542  -13.5895 H   0  0  0  0  0  0  0  0  0  0  0  0
   -5.6729  -37.2951  -15.1702 H   0  0  0  0  0  0  0  0  0  0  0  0
   -4.3288  -39.0775  -13.8401 H   0  0  0  0  0  0  0  0  0  0  0  0
   -5.1459  -38.1746  -12.4472 H   0  0  0  0  0  0  0  0  0  0  0  0
   -7.1453  -39.1053  -13.0107 H   0  0  0  0  0  0  0  0  0  0  0  0
   -8.6736  -42.3400  -16.1323 H   0  0  0  0  0  0  0  0  0  0  0  0
   -3.3860  -39.4569  -16.1266 H   0  0  0  0  0  0  0  0  0  0  0  0
   -1.4340  -37.4808  -16.0327 H   0  0  0  0  0  0  0  0  0  0  0  0
    2.7064  -38.8230  -14.4425 H   0  0  0  0  0  0  0  0  0  0  0  0
    3.1485  -37.2832  -15.2037 H   0  0  0  0  0  0  0  0  0  0  0  0
   -0.8981  -40.6763  -20.2885 H   0  0  0  0  0  0  0  0  0  0  0  0
 26  9  1  0
 26  8  2  0
  9  2  2  0
  8  3  1  0
  2  1  1  0
  2 21  1  0
  1 20  1  0
  3 21  2  0
  3 22  1  0
 19 20  2  0
 19 18  1  0
 20 27  1  0
 25  4  2  0
 22  4  1  0
 18 16  2  0
  4 23  1  0
 27 15  2  0
 23 24  1  0
 23  7  1  0
 16 15  1  0
 16 17  1  0
 10 11  1  0
 15 14  1  0
 11 12  1  0
 24  5  1  0
  7  6  1  0
 12 13  1  0
 14 13  1  0
  6  5  1  0
  1 28  1  0
  5 29  1  0
  5 30  1  0
  6 31  1  0
  6 32  1  0
  7 33  1  0
  7 34  1  0
  8 35  1  0
  9 36  1  0
 10 37  1  0
 10 38  1  0
 11 39  1  0
 11 40  1  0
 12 41  1  0
 12 42  1  0
 13 43  1  0
 13 44  1  0
 14 45  1  0
 18 46  1  0
 21 47  1  0
 22 48  1  0
 24 49  1  0
 24 50  1  0
 26 51  1  0
A    1
N12
A    2
C13
A    3
C15
A    4
C17
A    5
C20
A    6
C21
A    7
C22
A    8
C24
A    9
C26
A   10
N01
A   11
C02
A   12
C03
A   13
C04
A   14
N05
A   15
C06
A   16
C07
A   17
I08
A   18
C09
A   19
N10
A   20
C11
A   21
C14
A   22
N16
A   23
N18
A   24
C19
A   25
O23
A   26
C25
A   27
N27
M  END
