5CNJ_52Q_A_602
     RDKit          3D

 31 33  0  0  0  0  0  0  0  0999 V2000
    6.6680   33.9290  -28.0320 C   0  0  0  0  0  0  0  0  0  0  0  0
    7.9760   33.6290  -27.4100 C   0  0  0  0  0  0  0  0  0  0  0  0
    6.9490   34.5060  -32.6910 C   0  0  0  0  0  0  0  0  0  0  0  0
    6.4680   35.9020  -26.8020 C   0  0  0  0  0  0  0  0  0  0  0  0
    5.1380   34.9220  -25.2430 C   0  0  0  0  0  0  0  0  0  0  0  0
    8.5510   32.3980  -27.7650 C   0  0  0  0  0  0  0  0  0  0  0  0
    6.6950   35.5260  -30.8240 C   0  0  0  0  0  0  0  0  0  0  0  0
    6.7490   33.5970  -26.5950 C   0  0  0  0  0  0  0  0  0  0  0  0
    6.1840   35.2980  -28.1410 C   0  0  0  0  0  0  0  0  0  0  0  0
    6.5160   34.7950  -25.8020 C   0  0  0  0  0  0  0  0  0  0  0  0
    5.6980   34.8330  -32.5870 N   0  0  0  0  0  0  0  0  0  0  0  0
    5.5360   35.4760  -31.4080 N   0  0  0  0  0  0  0  0  0  0  0  0
    7.6200   34.9300  -31.5990 N   0  0  0  0  0  0  0  0  0  0  0  0
    7.5750   35.0870  -24.8500 N   0  0  0  0  0  0  0  0  0  0  0  0
    7.7420   31.3260  -27.8330 O   0  0  0  0  0  0  0  0  0  0  0  0
    5.0390   35.0320  -23.9030 O   0  0  0  0  0  0  0  0  0  0  0  0
    9.7600   32.3920  -28.0310 O   0  0  0  0  0  0  0  0  0  0  0  0
    4.2330   34.9220  -26.0920 O   0  0  0  0  0  0  0  0  0  0  0  0
    7.1280   36.2240  -29.3250 S   0  0  0  0  0  0  0  0  0  0  0  0
    6.2344   33.5627  -28.9742 H   0  0  0  0  0  0  0  0  0  0  0  0
    8.9440   34.1438  -27.3210 H   0  0  0  0  0  0  0  0  0  0  0  0
    7.3949   33.9659  -33.5392 H   0  0  0  0  0  0  0  0  0  0  0  0
    7.4345   36.4267  -26.8258 H   0  0  0  0  0  0  0  0  0  0  0  0
    5.6856   36.6274  -26.5344 H   0  0  0  0  0  0  0  0  0  0  0  0
    6.3182   32.8512  -25.9108 H   0  0  0  0  0  0  0  0  0  0  0  0
    5.1268   35.3128  -28.4447 H   0  0  0  0  0  0  0  0  0  0  0  0
    4.9600   34.6379  -33.2785 H   0  0  0  0  0  0  0  0  0  0  0  0
    7.2120   34.9869  -23.8913 H   0  0  0  0  0  0  0  0  0  0  0  0
    8.3552   34.4298  -24.9921 H   0  0  0  0  0  0  0  0  0  0  0  0
    7.4181   30.8968  -27.0018 H   0  0  0  0  0  0  0  0  0  0  0  0
    5.5727   34.4390  -23.3169 H   0  0  0  0  0  0  0  0  0  0  0  0
  3 11  1  0
  3 13  2  0
 11 12  1  0
 13  7  1  0
 12  7  2  0
  7 19  1  0
 19  9  1  0
  9  1  1  0
  9  4  1  0
  1  2  1  0
  1  8  1  0
 17  6  2  0
 15  6  1  0
  6  2  1  0
  2  8  1  0
  4 10  1  0
  8 10  1  0
 18  5  2  0
 10  5  1  0
 10 14  1  0
  5 16  1  0
  1 20  1  0
  2 21  1  0
  3 22  1  0
  4 23  1  0
  4 24  1  0
  8 25  1  0
  9 26  1  0
 11 27  1  0
 14 28  1  0
 14 29  1  0
 15 30  1  0
 16 31  1  0
A    1
C7
A    2
C6
A    3
C1
A    4
C5
A    5
C4
A    6
C3
A    7
C2
A    8
C8
A    9
C9
A   10
C10
A   11
N11
A   12
N12
A   13
N13
A   14
N14
A   15
O15
A   16
O16
A   17
O17
A   18
O18
A   19
S19
M  END
