2DBW_GGL_B_601
     RDKit          3D

 18 17  0  0  0  0  0  0  0  0999 V2000
   13.7900  -35.9780  -24.7050 N   0  0  0  0  0  0  0  0  0  0  0  0
   14.8280  -35.0890  -24.1850 C   0  0  0  0  0  0  0  0  0  0  0  0
   14.2590  -34.0800  -23.1920 C   0  0  0  0  0  0  0  0  0  0  0  0
   15.0660  -33.3070  -22.6340 O   0  0  0  0  0  0  0  0  0  0  0  0
   15.5430  -34.3590  -25.3250 C   0  0  0  0  0  0  0  0  0  0  0  0
   14.6910  -34.1300  -26.5580 C   0  0  0  0  0  0  0  0  0  0  0  0
   15.4500  -33.5290  -27.8300 C   0  0  0  0  0  0  0  0  0  0  0  0
   16.4070  -32.6240  -27.6190 O   0  0  0  0  0  0  0  0  0  0  0  0
   13.0280  -33.8830  -23.2120 O   0  0  0  0  0  0  0  0  0  0  0  0
   13.2840  -36.4114  -23.9195 H   0  0  0  0  0  0  0  0  0  0  0  0
   13.1304  -35.4357  -25.2809 H   0  0  0  0  0  0  0  0  0  0  0  0
   15.5574  -35.7171  -23.6526 H   0  0  0  0  0  0  0  0  0  0  0  0
   15.8754  -33.3796  -24.9505 H   0  0  0  0  0  0  0  0  0  0  0  0
   16.3761  -35.0062  -25.6366 H   0  0  0  0  0  0  0  0  0  0  0  0
   14.2557  -35.0968  -26.8511 H   0  0  0  0  0  0  0  0  0  0  0  0
   13.9479  -33.3720  -26.2695 H   0  0  0  0  0  0  0  0  0  0  0  0
   15.1908  -33.8521  -28.8490 H   0  0  0  0  0  0  0  0  0  0  0  0
   12.5257  -33.8026  -22.3627 H   0  0  0  0  0  0  0  0  0  0  0  0
  1  2  1  0
  2  3  1  0
  2  5  1  0
  3  4  2  0
  3  9  1  0
  5  6  1  0
  6  7  1  0
  7  8  2  0
  1 10  1  0
  1 11  1  0
  2 12  1  0
  5 13  1  0
  5 14  1  0
  6 15  1  0
  6 16  1  0
  7 17  1  0
  9 18  1  0
A    1
N
A    2
CA
A    3
C
A    4
O
A    5
CB
A    6
CG
A    7
CD
A    8
OE1
A    9
OXT
M  END
