5COI_55K_A_201
     RDKit          3D

 50 53  0  0  0  0  0  0  0  0999 V2000
    4.9710    9.7520   -3.4320 C   0  0  0  0  0  0  0  0  0  0  0  0
    5.5890    8.7470   -4.3600 C   0  0  0  0  0  0  0  0  0  0  0  0
    5.7050    7.4860   -3.5160 C   0  0  0  0  0  0  0  0  0  0  0  0
    4.8350    7.5370   -2.3530 C   0  0  0  0  0  0  0  0  0  0  0  0
    4.5080    9.0200   -2.1630 C   0  0  0  0  0  0  0  0  0  0  0  0
    2.9790    9.1070   -1.9180 C   0  0  0  0  0  0  0  0  0  0  0  0
    2.5980    9.2310   -0.7370 O   0  0  0  0  0  0  0  0  0  0  0  0
    2.2140    8.9950   -2.8980 O   0  0  0  0  0  0  0  0  0  0  0  0
    5.2870    9.5490   -0.9800 C   0  0  0  0  0  0  0  0  0  0  0  0
    4.7860   10.9230   -0.7330 N   0  0  0  0  0  0  0  0  0  0  0  0
    5.6950   11.6970    0.4820 S   0  0  0  0  0  0  0  0  0  0  0  0
    7.1070   11.7190    0.1180 O   0  0  0  0  0  0  0  0  0  0  0  0
    5.0940   13.0630    0.7070 O   0  0  0  0  0  0  0  0  0  0  0  0
    5.5460   10.7240    1.9640 C   0  0  0  0  0  0  0  0  0  0  0  0
    6.7110   10.1890    2.5310 C   0  0  0  0  0  0  0  0  0  0  0  0
    6.5750    9.3940    3.6760 C   0  0  0  0  0  0  0  0  0  0  0  0
    5.3660    9.1620    4.2040 C   0  0  0  0  0  0  0  0  0  0  0  0
    4.2570    9.6500    3.6110 C   0  0  0  0  0  0  0  0  0  0  0  0
    4.2870   10.4480    2.5180 C   0  0  0  0  0  0  0  0  0  0  0  0
    3.0380   10.9320    2.0250 C   0  0  0  0  0  0  0  0  0  0  0  0
    1.8830   10.5380    2.7170 C   0  0  0  0  0  0  0  0  0  0  0  0
    1.9630    9.7020    3.8700 C   0  0  0  0  0  0  0  0  0  0  0  0
    3.1750    9.2610    4.3070 C   0  0  0  0  0  0  0  0  0  0  0  0
    3.6520    8.4680    5.3340 C   0  0  0  0  0  0  0  0  0  0  0  0
    3.0130    7.7480    6.1190 O   0  0  0  0  0  0  0  0  0  0  0  0
    4.9790    8.4140    5.2440 N   0  0  0  0  0  0  0  0  0  0  0  0
    5.8550    7.6800    6.1580 C   0  0  0  0  0  0  0  0  0  0  0  0
    6.0740    6.2400    5.6540 C   0  0  0  0  0  0  0  0  0  0  0  0
    5.7133   10.5196   -3.1681 H   0  0  0  0  0  0  0  0  0  0  0  0
    4.1148   10.2406   -3.9201 H   0  0  0  0  0  0  0  0  0  0  0  0
    6.5804    9.0842   -4.6968 H   0  0  0  0  0  0  0  0  0  0  0  0
    4.9937    8.5918   -5.2719 H   0  0  0  0  0  0  0  0  0  0  0  0
    5.4269    6.6179   -4.1317 H   0  0  0  0  0  0  0  0  0  0  0  0
    6.7439    7.4026   -3.1643 H   0  0  0  0  0  0  0  0  0  0  0  0
    3.9164    6.9591   -2.5325 H   0  0  0  0  0  0  0  0  0  0  0  0
    5.3128    7.1033   -1.4621 H   0  0  0  0  0  0  0  0  0  0  0  0
    3.2188    9.0289    0.0072 H   0  0  0  0  0  0  0  0  0  0  0  0
    5.1149    8.9162   -0.0968 H   0  0  0  0  0  0  0  0  0  0  0  0
    6.3686    9.5476   -1.1804 H   0  0  0  0  0  0  0  0  0  0  0  0
    4.8555   11.4682   -1.6041 H   0  0  0  0  0  0  0  0  0  0  0  0
    7.6996   10.3871    2.0911 H   0  0  0  0  0  0  0  0  0  0  0  0
    7.4684    8.9565    4.1456 H   0  0  0  0  0  0  0  0  0  0  0  0
    2.9835   11.5851    1.1415 H   0  0  0  0  0  0  0  0  0  0  0  0
    0.8987   10.8797    2.3644 H   0  0  0  0  0  0  0  0  0  0  0  0
    1.0465    9.4138    4.4057 H   0  0  0  0  0  0  0  0  0  0  0  0
    6.8257    8.1936    6.2200 H   0  0  0  0  0  0  0  0  0  0  0  0
    5.3826    7.6421    7.1507 H   0  0  0  0  0  0  0  0  0  0  0  0
    6.1771    5.5622    6.5142 H   0  0  0  0  0  0  0  0  0  0  0  0
    5.2127    5.9300    5.0441 H   0  0  0  0  0  0  0  0  0  0  0  0
    6.9885    6.2001    5.0441 H   0  0  0  0  0  0  0  0  0  0  0  0
  2  3  1  0
  2  1  1  0
  3  4  1  0
  1  5  1  0
  8  6  2  0
  4  5  1  0
  5  6  1  0
  5  9  1  0
  6  7  1  0
  9 10  1  0
 10 11  1  0
 12 11  2  0
 11 13  2  0
 11 14  1  0
 14 19  1  0
 14 15  2  0
 20 19  2  0
 20 21  1  0
 19 18  1  0
 15 16  1  0
 21 22  2  0
 18 17  1  0
 18 23  2  0
 16 17  2  0
 22 23  1  0
 17 26  1  0
 23 24  1  0
 26 24  1  0
 26 27  1  0
 24 25  2  0
 28 27  1  0
  1 29  1  0
  1 30  1  0
  2 31  1  0
  2 32  1  0
  3 33  1  0
  3 34  1  0
  4 35  1  0
  4 36  1  0
  7 37  1  0
  9 38  1  0
  9 39  1  0
 10 40  1  0
 15 41  1  0
 16 42  1  0
 20 43  1  0
 21 44  1  0
 22 45  1  0
 27 46  1  0
 27 47  1  0
 28 48  1  0
 28 49  1  0
 28 50  1  0
A    1
CAV
A    2
CAW
A    3
CAX
A    4
CAY
A    5
CAU
A    6
CAZ
A    7
OBB
A    8
OBA
A    9
CAT
A   10
NAS
A   11
SAP
A   12
OAQ
A   13
OAR
A   14
CAC
A   15
CAB
A   16
CAA
A   17
CAF
A   18
CAE
A   19
CAD
A   20
CAG
A   21
CAH
A   22
CAI
A   23
CAJ
A   24
CAL
A   25
OAM
A   26
NAK
A   27
CAN
A   28
CAO
M  END
