1C3Q_TZE_A_301
     RDKit          3D

 18 18  0  0  0  0  0  0  0  0999 V2000
   27.5680    4.5630   30.3700 C   0  0  0  0  0  0  0  0  0  0  0  0
   28.4400    5.5860   30.6910 N   0  0  0  0  0  0  0  0  0  0  0  0
   29.6000    5.1750   31.5050 C   0  0  0  0  0  0  0  0  0  0  0  0
   29.5360    3.8240   31.7140 C   0  0  0  0  0  0  0  0  0  0  0  0
   28.1530    3.0260   31.0250 S   0  0  0  0  0  0  0  0  0  0  0  0
   30.5700    6.1900   32.1270 C   0  0  0  0  0  0  0  0  0  0  0  0
   30.5070    2.8630   32.3730 C   0  0  0  0  0  0  0  0  0  0  0  0
   30.4650    2.8920   33.9180 C   0  0  0  0  0  0  0  0  0  0  0  0
   31.8260    2.9600   34.3450 O   0  0  0  0  0  0  0  0  0  0  0  0
   26.6417    4.6864   29.7897 H   0  0  0  0  0  0  0  0  0  0  0  0
   30.5114    6.1287   33.2237 H   0  0  0  0  0  0  0  0  0  0  0  0
   31.5961    5.9637   31.8014 H   0  0  0  0  0  0  0  0  0  0  0  0
   30.2974    7.2047   31.8014 H   0  0  0  0  0  0  0  0  0  0  0  0
   30.2655    1.8432   32.0390 H   0  0  0  0  0  0  0  0  0  0  0  0
   31.5184    3.1764   32.0750 H   0  0  0  0  0  0  0  0  0  0  0  0
   29.9092    3.7739   34.2692 H   0  0  0  0  0  0  0  0  0  0  0  0
   29.9577    2.0049   34.3251 H   0  0  0  0  0  0  0  0  0  0  0  0
   31.8618    2.9618   35.3344 H   0  0  0  0  0  0  0  0  0  0  0  0
  1  2  2  0
  1  5  1  0
  2  3  1  0
  3  4  2  0
  3  6  1  0
  4  5  1  0
  4  7  1  0
  7  8  1  0
  8  9  1  0
  1 10  1  0
  6 11  1  0
  6 12  1  0
  6 13  1  0
  7 14  1  0
  7 15  1  0
  8 16  1  0
  8 17  1  0
  9 18  1  0
A    1
C1
A    2
N1
A    3
C2
A    4
C3
A    5
S1
A    6
CM
A    7
C1'
A    8
C2'
A    9
OXT
M  END
