5COP_53F_B_500
     RDKit          3D

 83 86  0  0  0  0  0  0  0  0999 V2000
   -7.5630   15.9840   -8.5210 N   0  0  0  0  0  0  0  0  0  0  0  0
   -7.8130   15.7770   -7.1800 C   0  0  0  0  0  0  0  0  0  0  0  0
   -7.0730   15.1920   -4.9290 C   0  0  0  0  0  0  0  0  0  0  0  0
   -8.3350   15.3180   -4.2980 C   0  0  0  0  0  0  0  0  0  0  0  0
   -9.3250   15.6970   -5.2380 C   0  0  0  0  0  0  0  0  0  0  0  0
   -7.1670   17.3360   -2.0760 C   0  0  0  0  0  0  0  0  0  0  0  0
   -5.9910   17.4940   -1.0600 C   0  0  0  0  0  0  0  0  0  0  0  0
   -5.4110   18.9080   -1.1100 C   0  0  0  0  0  0  0  0  0  0  0  0
   -6.4300   17.2410    0.3870 C   0  0  0  0  0  0  0  0  0  0  0  0
  -14.2250   10.6080    3.8300 C   0  0  0  0  0  0  0  0  0  0  0  0
   -6.8070   15.4000   -6.2660 C   0  0  0  0  0  0  0  0  0  0  0  0
  -13.5310   10.5700    2.6040 O   0  0  0  0  0  0  0  0  0  0  0  0
   -9.1070   15.9210   -6.5930 C   0  0  0  0  0  0  0  0  0  0  0  0
   -7.7090   14.1030   -2.0510 O   0  0  0  0  0  0  0  0  0  0  0  0
   -8.5860   15.0520   -2.6140 S   0  0  0  0  0  0  0  0  0  0  0  0
   -9.9670   14.7320   -2.3970 O   0  0  0  0  0  0  0  0  0  0  0  0
   -8.3540   16.4860   -1.6800 N   0  0  0  0  0  0  0  0  0  0  0  0
   -9.5620   17.3890   -1.4700 C   0  0  0  0  0  0  0  0  0  0  0  0
  -10.1470   17.4120   -0.0310 C   0  0  0  0  0  0  0  0  0  0  0  0
  -11.2650   18.1840    0.0570 O   0  0  0  0  0  0  0  0  0  0  0  0
  -10.3860   16.0280    0.6380 C   0  0  0  0  0  0  0  0  0  0  0  0
  -11.7330   15.4490    0.1070 C   0  0  0  0  0  0  0  0  0  0  0  0
  -12.2430   14.1880    0.7720 C   0  0  0  0  0  0  0  0  0  0  0  0
  -11.4880   13.0150    0.7420 C   0  0  0  0  0  0  0  0  0  0  0  0
  -13.4670   14.0990    1.4540 C   0  0  0  0  0  0  0  0  0  0  0  0
  -13.8940   12.9120    2.0580 C   0  0  0  0  0  0  0  0  0  0  0  0
  -13.1170   11.7560    2.0090 C   0  0  0  0  0  0  0  0  0  0  0  0
  -12.5510   12.1820    6.1320 O   0  0  0  0  0  0  0  0  0  0  0  0
  -11.8980   11.8280    1.3330 C   0  0  0  0  0  0  0  0  0  0  0  0
  -10.5030   16.1450    2.0900 N   0  0  0  0  0  0  0  0  0  0  0  0
   -9.8500   15.2800    2.9410 C   0  0  0  0  0  0  0  0  0  0  0  0
   -9.0790   14.4050    2.5110 O   0  0  0  0  0  0  0  0  0  0  0  0
  -10.3190   15.1930    4.2100 O   0  0  0  0  0  0  0  0  0  0  0  0
   -9.6960   14.3590    5.1670 C   0  0  0  0  0  0  0  0  0  0  0  0
   -8.7020   15.1340    6.0030 C   0  0  0  0  0  0  0  0  0  0  0  0
  -10.8030   13.8300    6.0740 C   0  0  0  0  0  0  0  0  0  0  0  0
  -12.0970   13.2880    5.4310 C   0  0  0  0  0  0  0  0  0  0  0  0
  -13.1160   14.4860    5.5470 C   0  0  0  0  0  0  0  0  0  0  0  0
  -12.4660   15.5340    6.2400 O   0  0  0  0  0  0  0  0  0  0  0  0
  -11.4120   14.9340    6.9750 C   0  0  0  0  0  0  0  0  0  0  0  0
  -10.5370   15.9450    7.4780 O   0  0  0  0  0  0  0  0  0  0  0  0
   -9.4040   16.3180    6.6980 C   0  0  0  0  0  0  0  0  0  0  0  0
   -6.8019   16.6142   -8.8117 H   0  0  0  0  0  0  0  0  0  0  0  0
   -8.1375   15.5083   -9.2314 H   0  0  0  0  0  0  0  0  0  0  0  0
   -6.2248   14.9006   -4.2921 H   0  0  0  0  0  0  0  0  0  0  0  0
  -10.3518   15.8247   -4.8648 H   0  0  0  0  0  0  0  0  0  0  0  0
   -6.7466   16.8991   -2.9938 H   0  0  0  0  0  0  0  0  0  0  0  0
   -7.5814   18.3508   -2.1680 H   0  0  0  0  0  0  0  0  0  0  0  0
   -5.2412   16.7457   -1.3563 H   0  0  0  0  0  0  0  0  0  0  0  0
   -5.2591   19.2784   -0.0855 H   0  0  0  0  0  0  0  0  0  0  0  0
   -4.4474   18.8905   -1.6403 H   0  0  0  0  0  0  0  0  0  0  0  0
   -6.1093   19.5722   -1.6403 H   0  0  0  0  0  0  0  0  0  0  0  0
   -5.6869   17.6692    1.0758 H   0  0  0  0  0  0  0  0  0  0  0  0
   -7.4075   17.7143    0.5617 H   0  0  0  0  0  0  0  0  0  0  0  0
   -6.5106   16.1580    0.5617 H   0  0  0  0  0  0  0  0  0  0  0  0
  -13.5047   10.5686    4.6604 H   0  0  0  0  0  0  0  0  0  0  0  0
  -14.8069   11.5394    3.8932 H   0  0  0  0  0  0  0  0  0  0  0  0
  -14.9051    9.7457    3.8932 H   0  0  0  0  0  0  0  0  0  0  0  0
   -5.7779   15.2677   -6.6312 H   0  0  0  0  0  0  0  0  0  0  0  0
   -9.9538   16.2170   -7.2297 H   0  0  0  0  0  0  0  0  0  0  0  0
   -9.2651   18.4158   -1.7301 H   0  0  0  0  0  0  0  0  0  0  0  0
  -10.3571   16.9777   -2.1092 H   0  0  0  0  0  0  0  0  0  0  0  0
   -9.3358   17.8696    0.5543 H   0  0  0  0  0  0  0  0  0  0  0  0
  -11.4863   18.3368    1.0098 H   0  0  0  0  0  0  0  0  0  0  0  0
   -9.5304   15.3801    0.3966 H   0  0  0  0  0  0  0  0  0  0  0  0
  -12.5017   16.2258    0.2325 H   0  0  0  0  0  0  0  0  0  0  0  0
  -11.5325   15.1635   -0.9362 H   0  0  0  0  0  0  0  0  0  0  0  0
  -10.5181   13.0319    0.2234 H   0  0  0  0  0  0  0  0  0  0  0  0
  -14.1095   14.9897    1.5151 H   0  0  0  0  0  0  0  0  0  0  0  0
  -14.8612   12.8904    2.5815 H   0  0  0  0  0  0  0  0  0  0  0  0
  -12.4798   12.3554    7.1041 H   0  0  0  0  0  0  0  0  0  0  0  0
  -11.2569   10.9365    1.2681 H   0  0  0  0  0  0  0  0  0  0  0  0
  -11.0886   16.8933    2.4875 H   0  0  0  0  0  0  0  0  0  0  0  0
   -9.1500   13.5484    4.6623 H   0  0  0  0  0  0  0  0  0  0  0  0
   -8.2705   14.4685    6.7652 H   0  0  0  0  0  0  0  0  0  0  0  0
   -7.9058   15.5204    5.3497 H   0  0  0  0  0  0  0  0  0  0  0  0
  -10.2295   13.0276    6.5611 H   0  0  0  0  0  0  0  0  0  0  0  0
  -11.9557   12.9611    4.3902 H   0  0  0  0  0  0  0  0  0  0  0  0
  -13.4110   14.8262    4.5434 H   0  0  0  0  0  0  0  0  0  0  0  0
  -14.0229   14.1715    6.0842 H   0  0  0  0  0  0  0  0  0  0  0  0
  -11.7340   14.4203    7.8928 H   0  0  0  0  0  0  0  0  0  0  0  0
   -8.6764   16.8114    7.3592 H   0  0  0  0  0  0  0  0  0  0  0  0
   -9.7714   16.9815    5.9013 H   0  0  0  0  0  0  0  0  0  0  0  0
  1  2  1  0
  2 13  2  0
  2 11  1  0
 13  5  1  0
 11  3  2  0
  5  4  2  0
  3  4  1  0
  4 15  1  0
 15 16  2  0
 15 14  2  0
 15 17  1  0
  6 17  1  0
  6  7  1  0
 17 18  1  0
 18 19  1  0
  8  7  1  0
  7  9  1  0
 19 20  1  0
 19 21  1  0
 22 21  1  0
 22 23  1  0
 21 30  1  0
 24 23  2  0
 24 29  1  0
 23 25  1  0
 29 27  2  0
 25 26  2  0
 27 26  1  0
 27 12  1  0
 30 31  1  0
 32 31  2  0
 12 10  1  0
 31 33  1  0
 33 34  1  0
 34 35  1  0
 34 36  1  0
 37 38  1  0
 37 36  1  0
 37 28  1  0
 38 39  1  0
 35 42  1  0
 36 40  1  0
 39 40  1  0
 42 41  1  0
 40 41  1  0
  1 43  1  0
  1 44  1  0
  3 45  1  0
  5 46  1  0
  6 47  1  0
  6 48  1  0
  7 49  1  0
  8 50  1  0
  8 51  1  0
  8 52  1  0
  9 53  1  0
  9 54  1  0
  9 55  1  0
 10 56  1  0
 10 57  1  0
 10 58  1  0
 11 59  1  0
 13 60  1  0
 18 61  1  0
 18 62  1  0
 19 63  1  0
 20 64  1  0
 21 65  1  0
 22 66  1  0
 22 67  1  0
 24 68  1  0
 25 69  1  0
 26 70  1  0
 28 71  1  0
 29 72  1  0
 30 73  1  0
 34 74  1  0
 35 75  1  0
 35 76  1  0
 36 77  1  0
 37 78  1  0
 38 79  1  0
 38 80  1  0
 40 81  1  0
 42 82  1  0
 42 83  1  0
A    1
N1
A    2
C2
A    3
C4
A    4
C5
A    5
C6
A    6
C12
A    7
C13
A    8
C14
A    9
C15
A   10
C1
A   11
C3
A   12
O1
A   13
C7
A   14
O10
A   15
S8
A   16
O9
A   17
N11
A   18
C16
A   19
C17
A   20
O18
A   21
C19
A   22
C32
A   23
C07
A   24
C08
A   25
C06
A   26
C05
A   27
C09
A   28
O41
A   29
C03
A   30
N20
A   31
C21
A   32
O22
A   33
O23
A   34
C24
A   35
C01
A   36
C31
A   37
C41
A   38
C29
A   39
O28
A   40
C27
A   41
O01
A   42
C02
M  END
