2XY5_SWE_A_1882
     RDKit          3D

 45 46  0  0  0  0  0  0  0  0999 V2000
   18.3750   18.0640   35.4850 C   0  0  0  0  0  0  0  0  0  0  0  0
   17.2300   18.2810   34.6970 O   0  0  0  0  0  0  0  0  0  0  0  0
   19.5370   18.6390   34.7050 C   0  0  0  0  0  0  0  0  0  0  0  0
   19.2450   19.9810   34.4170 O   0  0  0  0  0  0  0  0  0  0  0  0
   19.7130   17.8520   33.4210 C   0  0  0  0  0  0  0  0  0  0  0  0
   20.7760   18.4010   32.6780 O   0  0  0  0  0  0  0  0  0  0  0  0
   19.9930   16.4130   33.8360 C   0  0  0  0  0  0  0  0  0  0  0  0
   20.2100   15.6360   32.6830 O   0  0  0  0  0  0  0  0  0  0  0  0
   18.8170   15.8530   34.6420 C   0  0  0  0  0  0  0  0  0  0  0  0
   18.5330   16.6770   35.7510 O   0  0  0  0  0  0  0  0  0  0  0  0
   19.1220   14.4600   35.1730 C   0  0  0  0  0  0  0  0  0  0  0  0
   20.5020   14.3280   35.4450 O   0  0  0  0  0  0  0  0  0  0  0  0
   15.3510   19.5620   35.4190 C   0  0  0  0  0  0  0  0  0  0  0  0
   13.9630   19.3610   35.5650 O   0  0  0  0  0  0  0  0  0  0  0  0
   15.9710   18.1900   35.3220 C   0  0  0  0  0  0  0  0  0  0  0  0
   15.1730   17.3760   34.4860 O   0  0  0  0  0  0  0  0  0  0  0  0
   15.9460   17.5720   36.7090 C   0  0  0  0  0  0  0  0  0  0  0  0
   15.2700   18.4220   37.6180 O   0  0  0  0  0  0  0  0  0  0  0  0
   15.2050   16.2640   36.5550 C   0  0  0  0  0  0  0  0  0  0  0  0
   15.8380   15.2250   37.2860 O   0  0  0  0  0  0  0  0  0  0  0  0
   15.1250   16.0660   35.0450 C   0  0  0  0  0  0  0  0  0  0  0  0
   13.8520   15.3270   34.6590 C   0  0  0  0  0  0  0  0  0  0  0  0
   12.9480   16.1020   33.9220 O   0  0  0  0  0  0  0  0  0  0  0  0
   18.3028   18.5527   36.4679 H   0  0  0  0  0  0  0  0  0  0  0  0
   20.4688   18.5770   35.2863 H   0  0  0  0  0  0  0  0  0  0  0  0
   19.1356   20.4838   35.2628 H   0  0  0  0  0  0  0  0  0  0  0  0
   18.8206   17.8906   32.7791 H   0  0  0  0  0  0  0  0  0  0  0  0
   21.4626   18.7556   33.2968 H   0  0  0  0  0  0  0  0  0  0  0  0
   20.8899   16.3829   34.4722 H   0  0  0  0  0  0  0  0  0  0  0  0
   20.4666   14.7172   32.9477 H   0  0  0  0  0  0  0  0  0  0  0  0
   17.9561   15.8145   33.9583 H   0  0  0  0  0  0  0  0  0  0  0  0
   18.5524   14.2923   36.0990 H   0  0  0  0  0  0  0  0  0  0  0  0
   18.8354   13.7178   34.4133 H   0  0  0  0  0  0  0  0  0  0  0  0
   20.6455   14.3143   36.4245 H   0  0  0  0  0  0  0  0  0  0  0  0
   15.5581   20.1387   34.5055 H   0  0  0  0  0  0  0  0  0  0  0  0
   15.7639   20.1277   36.2672 H   0  0  0  0  0  0  0  0  0  0  0  0
   13.7338   19.3278   36.5275 H   0  0  0  0  0  0  0  0  0  0  0  0
   16.9603   17.4210   37.1071 H   0  0  0  0  0  0  0  0  0  0  0  0
   15.4854   18.1512   38.5456 H   0  0  0  0  0  0  0  0  0  0  0  0
   14.1916   16.2598   36.9829 H   0  0  0  0  0  0  0  0  0  0  0  0
   15.7351   15.3940   38.2560 H   0  0  0  0  0  0  0  0  0  0  0  0
   15.9508   15.4459   34.6662 H   0  0  0  0  0  0  0  0  0  0  0  0
   14.1297   14.4506   34.0550 H   0  0  0  0  0  0  0  0  0  0  0  0
   13.3463   15.0507   35.5960 H   0  0  0  0  0  0  0  0  0  0  0  0
   12.3620   16.6044   34.5420 H   0  0  0  0  0  0  0  0  0  0  0  0
  1  2  1  0
  1  3  1  0
  1 10  1  0
  2 15  1  0
  3  4  1  0
  3  5  1  0
  5  6  1  0
  5  7  1  0
  7  8  1  0
  7  9  1  0
  9 10  1  0
  9 11  1  0
 11 12  1  0
 13 14  1  0
 13 15  1  0
 15 16  1  0
 15 17  1  0
 16 21  1  0
 17 18  1  0
 17 19  1  0
 19 20  1  0
 19 21  1  0
 21 22  1  0
 22 23  1  0
  1 24  1  0
  3 25  1  0
  4 26  1  0
  5 27  1  0
  6 28  1  0
  7 29  1  0
  8 30  1  0
  9 31  1  0
 11 32  1  0
 11 33  1  0
 12 34  1  0
 13 35  1  0
 13 36  1  0
 14 37  1  0
 17 38  1  0
 18 39  1  0
 19 40  1  0
 20 41  1  0
 21 42  1  0
 22 43  1  0
 22 44  1  0
 23 45  1  0
A    1
C1
A    2
O1
A    3
C2
A    4
O2
A    5
C3
A    6
O3
A    7
C4
A    8
O4
A    9
C5
A   10
O5
A   11
C6
A   12
O6
A   13
C1'
A   14
O1'
A   15
C2'
A   16
O2'
A   17
C3'
A   18
O3'
A   19
C4'
A   20
O4'
A   21
C5'
A   22
C6'
A   23
O6'
M  END
