5CP9_6O5_B_301
     RDKit          3D

 18 18  0  0  0  0  0  0  0  0999 V2000
   -2.6950   28.4760  -11.0070 C   0  0  0  0  0  0  0  0  0  0  0  0
   -2.2590   27.2280  -10.8570 C   0  0  0  0  0  0  0  0  0  0  0  0
   -3.3060   26.4200  -10.7070 C   0  0  0  0  0  0  0  0  0  0  0  0
   -4.4440   27.1790  -10.7590 O   0  0  0  0  0  0  0  0  0  0  0  0
   -4.0200   28.4580  -10.9500 C   0  0  0  0  0  0  0  0  0  0  0  0
   -4.9750   29.6330  -11.0720 C   0  0  0  0  0  0  0  0  0  0  0  0
   -5.6970   29.5940  -12.4110 C   0  0  0  0  0  0  0  0  0  0  0  0
   -5.6580   30.9710  -13.0690 C   0  0  0  0  0  0  0  0  0  0  0  0
   -6.6120   31.7370  -12.8170 O   0  0  0  0  0  0  0  0  0  0  0  0
   -4.6730   31.2220  -13.8010 O   0  0  0  0  0  0  0  0  0  0  0  0
   -2.0665   29.3669  -11.1528 H   0  0  0  0  0  0  0  0  0  0  0  0
   -1.2045   26.9148  -10.8570 H   0  0  0  0  0  0  0  0  0  0  0  0
   -3.2640   25.3299  -10.5656 H   0  0  0  0  0  0  0  0  0  0  0  0
   -4.4065   30.5715  -10.9941 H   0  0  0  0  0  0  0  0  0  0  0  0
   -5.7190   29.5731  -10.2640 H   0  0  0  0  0  0  0  0  0  0  0  0
   -6.7440   29.2968  -12.2512 H   0  0  0  0  0  0  0  0  0  0  0  0
   -5.1974   28.8670  -13.0681 H   0  0  0  0  0  0  0  0  0  0  0  0
   -6.8552   31.9323  -11.8774 H   0  0  0  0  0  0  0  0  0  0  0  0
 10  8  2  0
  8  9  1  0
  8  7  1  0
  7  6  1  0
  6  5  1  0
  1  5  2  0
  1  2  1  0
  5  4  1  0
  2  3  2  0
  4  3  1  0
  1 11  1  0
  2 12  1  0
  3 13  1  0
  6 14  1  0
  6 15  1  0
  7 16  1  0
  7 17  1  0
  9 18  1  0
A    1
CAE
A    2
CAC
A    3
CAD
A    4
OAH
A    5
CAJ
A    6
CAG
A    7
CAF
A    8
CAI
A    9
OAB
A   10
OAA
M  END
