5CPP_ADO_A_422
     RDKit          3D

 25 27  0  0  0  0  0  0  0  0999 V2000
   46.4610   44.9700   15.3710 C   0  0  0  0  0  0  0  0  0  0  0  0
   45.0150   44.7760   14.8050 C   0  0  0  0  0  0  0  0  0  0  0  0
   45.0250   44.2900   13.3020 C   0  0  0  0  0  0  0  0  0  0  0  0
   45.8530   45.3610   12.4280 C   0  0  0  0  0  0  0  0  0  0  0  0
   47.2870   45.5450   12.9900 C   0  0  0  0  0  0  0  0  0  0  0  0
   48.0410   44.1310   12.8760 C   0  0  0  0  0  0  0  0  0  0  0  0
   47.2400   43.0910   13.7520 C   0  0  0  0  0  0  0  0  0  0  0  0
   47.2190   43.5230   15.2620 C   0  0  0  0  0  0  0  0  0  0  0  0
   47.2030   45.9790   14.5080 C   0  0  0  0  0  0  0  0  0  0  0  0
   45.7160   42.9290   13.3000 C   0  0  0  0  0  0  0  0  0  0  0  0
   43.9840   44.8270   15.4210 O   0  0  0  0  0  0  0  0  0  0  0  0
   46.4330   45.3295   16.4102 H   0  0  0  0  0  0  0  0  0  0  0  0
   44.0155   44.2052   12.8733 H   0  0  0  0  0  0  0  0  0  0  0  0
   45.9164   45.0056   11.3889 H   0  0  0  0  0  0  0  0  0  0  0  0
   45.3316   46.3286   12.4724 H   0  0  0  0  0  0  0  0  0  0  0  0
   47.8299   46.3187   12.4272 H   0  0  0  0  0  0  0  0  0  0  0  0
   48.0618   43.8005   11.8270 H   0  0  0  0  0  0  0  0  0  0  0  0
   49.0787   44.2168   13.2308 H   0  0  0  0  0  0  0  0  0  0  0  0
   47.7672   42.1360   13.6105 H   0  0  0  0  0  0  0  0  0  0  0  0
   48.2489   43.6132   15.6376 H   0  0  0  0  0  0  0  0  0  0  0  0
   46.6890   42.7707   15.8646 H   0  0  0  0  0  0  0  0  0  0  0  0
   46.6800   46.9448   14.5687 H   0  0  0  0  0  0  0  0  0  0  0  0
   48.2324   46.0467   14.8898 H   0  0  0  0  0  0  0  0  0  0  0  0
   45.1979   42.2561   13.9992 H   0  0  0  0  0  0  0  0  0  0  0  0
   45.6827   42.5079   12.2843 H   0  0  0  0  0  0  0  0  0  0  0  0
  1  2  1  0
  1  8  1  0
  1  9  1  0
  2  3  1  0
  2 11  2  0
  3  4  1  0
  3 10  1  0
  4  5  1  0
  5  6  1  0
  5  9  1  0
  6  7  1  0
  7  8  1  0
  7 10  1  0
  1 12  1  0
  3 13  1  0
  4 14  1  0
  4 15  1  0
  5 16  1  0
  6 17  1  0
  6 18  1  0
  7 19  1  0
  8 20  1  0
  8 21  1  0
  9 22  1  0
  9 23  1  0
 10 24  1  0
 10 25  1  0
A    1
C1
A    2
C2
A    3
C3
A    4
C4
A    5
C5
A    6
C6
A    7
C7
A    8
C8
A    9
C9
A   10
C10
A   11
O2
M  END
