5CPR_539_B_403
     RDKit          3D

 40 43  0  0  0  0  0  0  0  0999 V2000
   -3.8740  -14.3640   24.4410 C   0  0  0  0  0  0  0  0  0  0  0  0
   -3.6600  -15.4610   25.2720 C   0  0  0  0  0  0  0  0  0  0  0  0
   -3.3670  -16.6960   24.7300 C   0  0  0  0  0  0  0  0  0  0  0  0
   -3.0960  -17.7140   25.6300 C   0  0  0  0  0  0  0  0  0  0  0  0
   -1.9360  -19.3900   24.1740 C   0  0  0  0  0  0  0  0  0  0  0  0
   -1.8670  -21.7300   24.7460 N   0  0  0  0  0  0  0  0  0  0  0  0
   -2.5880  -21.4020   25.8280 C   0  0  0  0  0  0  0  0  0  0  0  0
   -3.6780  -15.3670   26.6540 C   0  0  0  0  0  0  0  0  0  0  0  0
   -2.8570  -12.9240   28.9650 C   0  0  0  0  0  0  0  0  0  0  0  0
   -3.6500  -11.6560   29.1320 C   0  0  0  0  0  0  0  0  0  0  0  0
   -5.1080  -12.0220   29.1740 C   0  0  0  0  0  0  0  0  0  0  0  0
   -3.3570  -16.8440   23.3470 C   0  0  0  0  0  0  0  0  0  0  0  0
   -3.0050  -20.1210   26.1440 C   0  0  0  0  0  0  0  0  0  0  0  0
   -1.5750  -20.7020   23.9360 C   0  0  0  0  0  0  0  0  0  0  0  0
   -2.6800  -19.0720   25.2960 C   0  0  0  0  0  0  0  0  0  0  0  0
   -3.6210  -15.7780   22.5090 C   0  0  0  0  0  0  0  0  0  0  0  0
   -3.8480  -14.5340   23.0660 C   0  0  0  0  0  0  0  0  0  0  0  0
   -5.1940  -13.5320   29.0930 C   0  0  0  0  0  0  0  0  0  0  0  0
   -3.8400  -14.0270   28.6330 C   0  0  0  0  0  0  0  0  0  0  0  0
   -3.1860  -17.5480   26.9600 N   0  0  0  0  0  0  0  0  0  0  0  0
   -3.4560  -16.4210   27.4570 N   0  0  0  0  0  0  0  0  0  0  0  0
   -3.9310  -14.0980   27.1880 N   0  0  0  0  0  0  0  0  0  0  0  0
   -3.6570  -16.0530   20.7930 Cl  0  0  0  0  0  0  0  0  0  0  0  0
   -4.1190  -13.1830   22.0420 Cl  0  0  0  0  0  0  0  0  0  0  0  0
   -4.0623  -13.3700   24.8730 H   0  0  0  0  0  0  0  0  0  0  0  0
   -1.6323  -18.5992   23.4723 H   0  0  0  0  0  0  0  0  0  0  0  0
   -2.8692  -22.2126   26.5164 H   0  0  0  0  0  0  0  0  0  0  0  0
   -2.3252  -13.1615   29.8982 H   0  0  0  0  0  0  0  0  0  0  0  0
   -2.1091  -12.8142   28.1659 H   0  0  0  0  0  0  0  0  0  0  0  0
   -3.3632  -11.1570   30.0694 H   0  0  0  0  0  0  0  0  0  0  0  0
   -3.4524  -10.9688   28.2961 H   0  0  0  0  0  0  0  0  0  0  0  0
   -5.6350  -11.5684   28.3217 H   0  0  0  0  0  0  0  0  0  0  0  0
   -5.5763  -11.6536   30.0986 H   0  0  0  0  0  0  0  0  0  0  0  0
   -3.1344  -17.8295   22.9119 H   0  0  0  0  0  0  0  0  0  0  0  0
   -3.5882  -19.9362   27.0582 H   0  0  0  0  0  0  0  0  0  0  0  0
   -1.0086  -20.9185   23.0182 H   0  0  0  0  0  0  0  0  0  0  0  0
   -5.9698  -13.8283   28.3716 H   0  0  0  0  0  0  0  0  0  0  0  0
   -5.4593  -13.9635   30.0694 H   0  0  0  0  0  0  0  0  0  0  0  0
   -3.5461  -14.9861   29.0843 H   0  0  0  0  0  0  0  0  0  0  0  0
   -4.1625  -13.2826   26.6029 H   0  0  0  0  0  0  0  0  0  0  0  0
 23 16  1  0
 24 17  1  0
 16 17  1  0
 16 12  2  0
 17  1  2  0
 12  3  1  0
 14  5  2  0
 14  6  1  0
  5 15  1  0
  1  2  1  0
  3  2  2  0
  3  4  1  0
  6  7  2  0
  2  8  1  0
 15  4  1  0
 15 13  2  0
  4 20  2  0
  7 13  1  0
  8 22  1  0
  8 21  2  0
 20 21  1  0
 22 19  1  0
 19  9  1  0
 19 18  1  0
  9 10  1  0
 18 11  1  0
 10 11  1  0
  1 25  1  0
  5 26  1  0
  7 27  1  0
  9 28  1  0
  9 29  1  0
 10 30  1  0
 10 31  1  0
 11 32  1  0
 11 33  1  0
 12 34  1  0
 13 35  1  0
 14 36  1  0
 18 37  1  0
 18 38  1  0
 19 39  1  0
 22 40  1  0
A    1
C5
A    2
C6
A    3
C7
A    4
C8
A    5
C10
A    6
N12
A    7
C13
A    8
C17
A    9
C20
A   10
C21
A   11
C22
A   12
C24
A   13
C14
A   14
C11
A   15
C9
A   16
C2
A   17
C3
A   18
C23
A   19
C19
A   20
N15
A   21
N16
A   22
N18
A   23
CL1
A   24
CL4
M  END
