5CQ4_53C_A_2002
     RDKit          3D

 18 18  0  0  0  0  0  0  0  0999 V2000
   15.8360   37.5410   29.4600 C   0  0  0  0  0  0  0  0  0  0  0  0
   15.6410   39.0010   29.8100 C   0  0  0  0  0  0  0  0  0  0  0  0
   14.2670   39.6010   29.7170 C   0  0  0  0  0  0  0  0  0  0  0  0
   13.2070   38.8030   29.3030 C   0  0  0  0  0  0  0  0  0  0  0  0
   11.9320   39.3370   29.2010 C   0  0  0  0  0  0  0  0  0  0  0  0
   11.7250   40.6720   29.5310 C   0  0  0  0  0  0  0  0  0  0  0  0
   12.7870   41.4630   29.9530 C   0  0  0  0  0  0  0  0  0  0  0  0
   14.0680   40.9320   30.0480 C   0  0  0  0  0  0  0  0  0  0  0  0
   12.5670   42.8080   30.2880 O   0  0  0  0  0  0  0  0  0  0  0  0
   16.5840   39.6790   30.1510 O   0  0  0  0  0  0  0  0  0  0  0  0
   15.9150   36.9498   30.3842 H   0  0  0  0  0  0  0  0  0  0  0  0
   14.9771   37.1873   28.8707 H   0  0  0  0  0  0  0  0  0  0  0  0
   16.7576   37.4251   28.8707 H   0  0  0  0  0  0  0  0  0  0  0  0
   13.3803   37.7453   29.0557 H   0  0  0  0  0  0  0  0  0  0  0  0
   11.0928   38.7115   28.8626 H   0  0  0  0  0  0  0  0  0  0  0  0
   10.7160   41.1039   29.4577 H   0  0  0  0  0  0  0  0  0  0  0  0
   14.9096   41.5576   30.3803 H   0  0  0  0  0  0  0  0  0  0  0  0
   12.5224   43.0804   31.2387 H   0  0  0  0  0  0  0  0  0  0  0  0
  5  4  1  0
  5  6  2  0
  4  3  2  0
  1  2  1  0
  6  7  1  0
  3  2  1  0
  3  8  1  0
  2 10  2  0
  7  8  2  0
  7  9  1  0
  1 11  1  0
  1 12  1  0
  1 13  1  0
  4 14  1  0
  5 15  1  0
  6 16  1  0
  8 17  1  0
  9 18  1  0
A    1
C01
A    2
C02
A    3
C03
A    4
C04
A    5
C05
A    6
C06
A    7
C07
A    8
C08
A    9
O09
A   10
O10
M  END
