4BXA_JRJ_A_1333
     RDKit          3D

 40 42  0  0  0  0  0  0  0  0999 V2000
   48.4530    2.5740   25.7730 N   0  0  0  0  0  0  0  0  0  0  0  0
   48.6690    1.3620   25.1360 C   0  0  0  0  0  0  0  0  0  0  0  0
   47.8930    0.1790   25.6130 C   0  0  0  0  0  0  0  0  0  0  0  0
   48.5410   -0.7130   26.6210 C   0  0  0  0  0  0  0  0  0  0  0  0
   48.3800   -0.3550   28.1470 C   0  0  0  0  0  0  0  0  0  0  0  0
   47.6230   -1.2430   28.9510 N   0  0  0  0  0  0  0  0  0  0  0  0
   47.6110   -1.2880   30.3290 C   0  0  0  0  0  0  0  0  0  0  0  0
   46.6690   -2.3760   30.7020 C   0  0  0  0  0  0  0  0  0  0  0  0
   46.2690   -2.8690   32.1450 C   0  0  0  0  0  0  0  0  0  0  0  0
   46.9070   -4.0840   32.6880 C   0  0  0  0  0  0  0  0  0  0  0  0
   46.4410   -4.5100   34.0670 N   0  0  0  0  0  0  0  0  0  0  0  0
   45.4600   -5.2730   34.2720 N   0  0  0  0  0  0  0  0  0  0  0  0
   45.3140   -5.4440   35.6580 C   0  0  0  0  0  0  0  0  0  0  0  0
   44.3750   -6.2030   36.5180 C   0  0  0  0  0  0  0  0  0  0  0  0
   43.0300   -7.2100   35.7530 Br  0  0  0  0  0  0  0  0  0  0  0  0
   44.5060   -6.1550   37.8770 C   0  0  0  0  0  0  0  0  0  0  0  0
   43.2850   -7.1460   39.0510 Br  0  0  0  0  0  0  0  0  0  0  0  0
   45.5200   -5.3940   38.4590 C   0  0  0  0  0  0  0  0  0  0  0  0
   45.6750   -5.3530   40.3740 Br  0  0  0  0  0  0  0  0  0  0  0  0
   46.4750   -4.6200   37.5950 C   0  0  0  0  0  0  0  0  0  0  0  0
   47.9070   -3.5440   38.4270 Br  0  0  0  0  0  0  0  0  0  0  0  0
   46.3560   -4.6590   36.2550 C   0  0  0  0  0  0  0  0  0  0  0  0
   47.0180   -4.1070   35.2160 N   0  0  0  0  0  0  0  0  0  0  0  0
   46.2080   -2.8790   29.4430 N   0  0  0  0  0  0  0  0  0  0  0  0
   46.7600   -2.2230   28.4820 N   0  0  0  0  0  0  0  0  0  0  0  0
   48.4778    2.4349   26.7933 H   0  0  0  0  0  0  0  0  0  0  0  0
   49.1883    3.2414   25.4995 H   0  0  0  0  0  0  0  0  0  0  0  0
   48.4310    1.5034   24.0714 H   0  0  0  0  0  0  0  0  0  0  0  0
   49.7175    1.1144   25.3579 H   0  0  0  0  0  0  0  0  0  0  0  0
   46.9600    0.5552   26.0581 H   0  0  0  0  0  0  0  0  0  0  0  0
   47.7692   -0.4520   24.7205 H   0  0  0  0  0  0  0  0  0  0  0  0
   48.1267   -1.7218   26.4775 H   0  0  0  0  0  0  0  0  0  0  0  0
   49.6184   -0.6034   26.4282 H   0  0  0  0  0  0  0  0  0  0  0  0
   49.3895   -0.2975   28.5802 H   0  0  0  0  0  0  0  0  0  0  0  0
   47.8100    0.5858   28.1555 H   0  0  0  0  0  0  0  0  0  0  0  0
   48.1839   -0.6470   31.0152 H   0  0  0  0  0  0  0  0  0  0  0  0
   46.4955   -2.0476   32.8407 H   0  0  0  0  0  0  0  0  0  0  0  0
   45.2102   -3.1495   32.0441 H   0  0  0  0  0  0  0  0  0  0  0  0
   46.7052   -4.9117   31.9922 H   0  0  0  0  0  0  0  0  0  0  0  0
   47.9746   -3.8410   32.7936 H   0  0  0  0  0  0  0  0  0  0  0  0
  1  2  1  0
  2  3  1  0
  3  4  1  0
  4  5  1  0
  5  6  1  0
  6  7  1  0
  6 25  1  0
  7  8  2  0
  8  9  1  0
  8 24  1  0
  9 10  1  0
 10 11  1  0
 11 12  1  0
 11 23  1  0
 12 13  2  0
 13 14  1  0
 13 22  1  0
 14 15  1  0
 14 16  2  0
 16 17  1  0
 16 18  1  0
 18 19  1  0
 18 20  2  0
 20 21  1  0
 20 22  1  0
 22 23  2  0
 24 25  2  0
  1 26  1  0
  1 27  1  0
  2 28  1  0
  2 29  1  0
  3 30  1  0
  3 31  1  0
  4 32  1  0
  4 33  1  0
  5 34  1  0
  5 35  1  0
  7 36  1  0
  9 37  1  0
  9 38  1  0
 10 39  1  0
 10 40  1  0
A    1
N01
A    2
C02
A    3
C03
A    4
C04
A    5
C05
A    6
N06
A    7
C07
A    8
C08
A    9
C09
A   10
C10
A   11
N11
A   12
N12
A   13
C13
A   14
C14
A   15
BR1
A   16
C16
A   17
BR2
A   18
C18
A   19
BR3
A   20
C20
A   21
BR4
A   22
C22
A   23
N23
A   24
N24
A   25
N25
M  END
