5CS6_K82_A_404
     RDKit          3D

 27 27  0  0  0  0  0  0  0  0999 V2000
   34.8480  152.3520  337.7990 Cl  0  0  0  0  0  0  0  0  0  0  0  0
   33.6650  153.6000  337.5830 C   0  0  0  0  0  0  0  0  0  0  0  0
   33.7710  154.7600  338.3220 C   0  0  0  0  0  0  0  0  0  0  0  0
   32.8370  155.7760  338.1700 C   0  0  0  0  0  0  0  0  0  0  0  0
   32.9770  157.0330  338.9720 C   0  0  0  0  0  0  0  0  0  0  0  0
   34.0180  157.8620  338.3610 N   0  0  0  0  0  0  0  0  0  0  0  0
   31.8010  155.5890  337.2650 C   0  0  0  0  0  0  0  0  0  0  0  0
   31.6920  154.4270  336.5230 C   0  0  0  0  0  0  0  0  0  0  0  0
   32.6290  153.4190  336.6760 C   0  0  0  0  0  0  0  0  0  0  0  0
   32.6150  152.2290  335.9980 O   0  0  0  0  0  0  0  0  0  0  0  0
   31.7880  152.1320  334.8300 C   0  0  0  0  0  0  0  0  0  0  0  0
   31.4400  150.6980  334.5930 C   0  0  0  0  0  0  0  0  0  0  0  0
   30.1760  150.5450  333.7920 C   0  0  0  0  0  0  0  0  0  0  0  0
   34.5997  154.8807  339.0353 H   0  0  0  0  0  0  0  0  0  0  0  0
   32.0222  157.5792  338.9750 H   0  0  0  0  0  0  0  0  0  0  0  0
   33.2506  156.7892  340.0092 H   0  0  0  0  0  0  0  0  0  0  0  0
   34.5790  158.3088  339.1003 H   0  0  0  0  0  0  0  0  0  0  0  0
   34.6275  157.2723  337.7765 H   0  0  0  0  0  0  0  0  0  0  0  0
   31.0503  156.3825  337.1352 H   0  0  0  0  0  0  0  0  0  0  0  0
   30.8618  154.3036  335.8120 H   0  0  0  0  0  0  0  0  0  0  0  0
   32.3324  152.5273  333.9597 H   0  0  0  0  0  0  0  0  0  0  0  0
   30.8679  152.7163  334.9786 H   0  0  0  0  0  0  0  0  0  0  0  0
   31.3058  150.2007  335.5650 H   0  0  0  0  0  0  0  0  0  0  0  0
   32.2604  150.2417  334.0197 H   0  0  0  0  0  0  0  0  0  0  0  0
   29.3196  150.4413  334.4746 H   0  0  0  0  0  0  0  0  0  0  0  0
   30.0341  151.4325  333.1578 H   0  0  0  0  0  0  0  0  0  0  0  0
   30.2499  149.6492  333.1578 H   0  0  0  0  0  0  0  0  0  0  0  0
 13 12  1  0
 12 11  1  0
 11 10  1  0
 10  9  1  0
  8  9  1  0
  8  7  2  0
  9  2  2  0
  7  4  1  0
  2  1  1  0
  2  3  1  0
  4  3  2  0
  4  5  1  0
  6  5  1  0
  3 14  1  0
  5 15  1  0
  5 16  1  0
  6 17  1  0
  6 18  1  0
  7 19  1  0
  8 20  1  0
 11 21  1  0
 11 22  1  0
 12 23  1  0
 12 24  1  0
 13 25  1  0
 13 26  1  0
 13 27  1  0
A    1
CL
A    2
C4
A    3
C5
A    4
C6
A    5
C7
A    6
N
A    7
C8
A    8
C9
A    9
C3
A   10
O
A   11
C2
A   12
C1
A   13
C
M  END
