5CSX_54J_A_801
     RDKit          3D

 73 77  0  0  0  0  0  0  0  0999 V2000
   16.0260  -81.8280   93.0800 N   0  0  0  0  0  0  0  0  0  0  0  0
   16.9190  -81.1710   92.1060 C   0  0  0  0  0  0  0  0  0  0  0  0
   17.3390  -79.7930   92.6390 C   0  0  0  0  0  0  0  0  0  0  0  0
   16.0910  -78.9490   92.8970 C   0  0  0  0  0  0  0  0  0  0  0  0
   15.1810  -79.6880   93.8820 C   0  0  0  0  0  0  0  0  0  0  0  0
   14.8030  -81.0310   93.2650 C   0  0  0  0  0  0  0  0  0  0  0  0
   16.7640  -77.4580   94.8510 C   0  0  0  0  0  0  0  0  0  0  0  0
   17.2610  -74.2670   91.9720 C   0  0  0  0  0  0  0  0  0  0  0  0
   17.1960  -76.0790   88.8280 C   0  0  0  0  0  0  0  0  0  0  0  0
   16.6120  -79.5180   86.5370 C   0  0  0  0  0  0  0  0  0  0  0  0
   17.0830  -75.9680   90.2860 C   0  0  0  0  0  0  0  0  0  0  0  0
   17.8380  -72.5870   89.2620 C   0  0  0  0  0  0  0  0  0  0  0  0
   15.1390  -84.0030   93.8420 C   0  0  0  0  0  0  0  0  0  0  0  0
   15.6920  -83.1990   92.6580 C   0  0  0  0  0  0  0  0  0  0  0  0
   16.5280  -77.6310   93.4090 N   0  0  0  0  0  0  0  0  0  0  0  0
   16.7800  -76.5690   92.5240 C   0  0  0  0  0  0  0  0  0  0  0  0
   16.9940  -75.2370   92.9310 C   0  0  0  0  0  0  0  0  0  0  0  0
   17.3070  -74.6220   90.6150 C   0  0  0  0  0  0  0  0  0  0  0  0
   17.5390  -73.9480   89.4230 N   0  0  0  0  0  0  0  0  0  0  0  0
   17.4700  -74.8290   88.3800 C   0  0  0  0  0  0  0  0  0  0  0  0
   17.0100  -77.3020   88.0110 C   0  0  0  0  0  0  0  0  0  0  0  0
   17.4580  -77.3780   86.6750 C   0  0  0  0  0  0  0  0  0  0  0  0
   17.2390  -78.4930   85.9830 N   0  0  0  0  0  0  0  0  0  0  0  0
   16.1690  -79.4940   87.7760 N   0  0  0  0  0  0  0  0  0  0  0  0
   16.3380  -78.4240   88.5330 C   0  0  0  0  0  0  0  0  0  0  0  0
   16.8390  -76.8560   91.2390 N   0  0  0  0  0  0  0  0  0  0  0  0
   16.9850  -71.7780   88.5170 C   0  0  0  0  0  0  0  0  0  0  0  0
   15.8660  -72.3050   87.9850 F   0  0  0  0  0  0  0  0  0  0  0  0
   17.2720  -70.4300   88.3440 C   0  0  0  0  0  0  0  0  0  0  0  0
   18.4280  -69.8790   88.8870 C   0  0  0  0  0  0  0  0  0  0  0  0
   19.3060  -70.6780   89.6120 C   0  0  0  0  0  0  0  0  0  0  0  0
   20.4560  -70.1040   90.1690 N   0  0  0  0  0  0  0  0  0  0  0  0
   21.9500  -70.3350   89.5030 S   0  0  0  0  0  0  0  0  0  0  0  0
   22.8310  -69.7070   90.4130 O   0  0  0  0  0  0  0  0  0  0  0  0
   22.0610  -71.7340   89.2690 O   0  0  0  0  0  0  0  0  0  0  0  0
   21.8520  -69.4410   87.9380 C   0  0  0  0  0  0  0  0  0  0  0  0
   23.0860  -69.7660   87.0990 C   0  0  0  0  0  0  0  0  0  0  0  0
   22.8480  -69.2760   85.6700 C   0  0  0  0  0  0  0  0  0  0  0  0
   19.0090  -72.0360   89.7990 C   0  0  0  0  0  0  0  0  0  0  0  0
   19.8660  -72.7910   90.5130 F   0  0  0  0  0  0  0  0  0  0  0  0
   16.3899  -81.0477   91.1495 H   0  0  0  0  0  0  0  0  0  0  0  0
   17.8141  -81.7922   91.9546 H   0  0  0  0  0  0  0  0  0  0  0  0
   17.8990  -79.9172   93.5776 H   0  0  0  0  0  0  0  0  0  0  0  0
   17.9770  -79.2900   91.8974 H   0  0  0  0  0  0  0  0  0  0  0  0
   15.5106  -78.7872   91.9767 H   0  0  0  0  0  0  0  0  0  0  0  0
   15.7133  -79.8506   94.8308 H   0  0  0  0  0  0  0  0  0  0  0  0
   14.2772  -79.0943   94.0836 H   0  0  0  0  0  0  0  0  0  0  0  0
   14.3175  -80.8673   92.2916 H   0  0  0  0  0  0  0  0  0  0  0  0
   14.1057  -81.5642   93.9279 H   0  0  0  0  0  0  0  0  0  0  0  0
   16.0031  -78.0158   95.4166 H   0  0  0  0  0  0  0  0  0  0  0  0
   17.7637  -77.8388   95.1072 H   0  0  0  0  0  0  0  0  0  0  0  0
   16.7017  -76.3901   95.1072 H   0  0  0  0  0  0  0  0  0  0  0  0
   17.4357  -73.2243   92.2757 H   0  0  0  0  0  0  0  0  0  0  0  0
   16.4547  -80.4269   85.9378 H   0  0  0  0  0  0  0  0  0  0  0  0
   15.4604  -83.5357   94.7845 H   0  0  0  0  0  0  0  0  0  0  0  0
   14.0401  -84.0159   93.7952 H   0  0  0  0  0  0  0  0  0  0  0  0
   15.5201  -85.0338   93.7952 H   0  0  0  0  0  0  0  0  0  0  0  0
   14.9342  -83.1587   91.8617 H   0  0  0  0  0  0  0  0  0  0  0  0
   16.6037  -83.6905   92.2875 H   0  0  0  0  0  0  0  0  0  0  0  0
   16.9502  -74.9677   93.9966 H   0  0  0  0  0  0  0  0  0  0  0  0
   17.6165  -74.5608   87.3233 H   0  0  0  0  0  0  0  0  0  0  0  0
   17.9807  -76.5278   86.2125 H   0  0  0  0  0  0  0  0  0  0  0  0
   15.9561  -78.4099   89.5645 H   0  0  0  0  0  0  0  0  0  0  0  0
   16.5799  -69.7934   87.7733 H   0  0  0  0  0  0  0  0  0  0  0  0
   18.6480  -68.8109   88.7430 H   0  0  0  0  0  0  0  0  0  0  0  0
   20.3679  -69.5233   91.0151 H   0  0  0  0  0  0  0  0  0  0  0  0
   21.8139  -68.3592   88.1335 H   0  0  0  0  0  0  0  0  0  0  0  0
   20.9444  -69.7430   87.3948 H   0  0  0  0  0  0  0  0  0  0  0  0
   23.2553  -70.8529   87.0946 H   0  0  0  0  0  0  0  0  0  0  0  0
   23.9706  -69.2691   87.5240 H   0  0  0  0  0  0  0  0  0  0  0  0
   22.3675  -68.2868   85.6968 H   0  0  0  0  0  0  0  0  0  0  0  0
   23.8105  -69.2020   85.1427 H   0  0  0  0  0  0  0  0  0  0  0  0
   22.1947  -69.9868   85.1427 H   0  0  0  0  0  0  0  0  0  0  0  0
 38 37  1  0
 23 10  2  0
 23 22  1  0
 10 24  1  0
 22 21  2  0
 37 36  1  0
 24 25  2  0
 36 33  1  0
 28 27  1  0
 21 25  1  0
 21  9  1  0
 29 27  2  0
 29 30  1  0
 20  9  2  0
 20 19  1  0
 27 12  1  0
  9 11  1  0
 30 31  2  0
 12 19  1  0
 12 39  2  0
 35 33  2  0
 19 18  1  0
 33 32  1  0
 33 34  2  0
 31 39  1  0
 31 32  1  0
 39 40  1  0
 11 18  1  0
 11 26  2  0
 18  8  2  0
 26 16  1  0
  8 17  1  0
  2  3  1  0
  2  1  1  0
 16 17  2  0
 16 15  1  0
  3  4  1  0
 14  1  1  0
 14 13  1  0
  4 15  1  0
  4  5  1  0
  1  6  1  0
  6  5  1  0
 15  7  1  0
  2 41  1  0
  2 42  1  0
  3 43  1  0
  3 44  1  0
  4 45  1  0
  5 46  1  0
  5 47  1  0
  6 48  1  0
  6 49  1  0
  7 50  1  0
  7 51  1  0
  7 52  1  0
  8 53  1  0
 10 54  1  0
 13 55  1  0
 13 56  1  0
 13 57  1  0
 14 58  1  0
 14 59  1  0
 17 60  1  0
 20 61  1  0
 22 62  1  0
 25 63  1  0
 29 64  1  0
 30 65  1  0
 32 66  1  0
 36 67  1  0
 36 68  1  0
 37 69  1  0
 37 70  1  0
 38 71  1  0
 38 72  1  0
 38 73  1  0
A    1
N3
A    2
C4
A    3
C5
A    4
C6
A    5
C7
A    6
C8
A    7
C10
A    8
C13
A    9
C17
A   10
C21
A   11
C24
A   12
C26
A   13
C1
A   14
C2
A   15
N9
A   16
C11
A   17
C12
A   18
C14
A   19
N15
A   20
C16
A   21
C18
A   22
C19
A   23
N20
A   24
N22
A   25
C23
A   26
N25
A   27
C27
A   28
F28
A   29
C29
A   30
C30
A   31
C31
A   32
N32
A   33
S33
A   34
O34
A   35
O35
A   36
C36
A   37
C37
A   38
C38
A   39
C39
A   40
F40
M  END
