5CTW_55D_A_301
     RDKit          3D

 26 26  0  0  0  0  0  0  0  0999 V2000
    0.9240   32.0450  -22.1050 O   0  0  0  0  0  0  0  0  0  0  0  0
    0.2380   31.8240  -23.1080 C   0  0  0  0  0  0  0  0  0  0  0  0
    0.4260   30.6940  -24.1360 C   0  0  0  0  0  0  0  0  0  0  0  0
    1.7540   29.9680  -23.9920 C   0  0  0  0  0  0  0  0  0  0  0  0
    1.8140   28.8190  -24.9620 C   0  0  0  0  0  0  0  0  0  0  0  0
   -0.8180   32.6320  -23.4570 N   0  0  0  0  0  0  0  0  0  0  0  0
   -1.2170   33.7230  -22.6340 C   0  0  0  0  0  0  0  0  0  0  0  0
   -2.3760   34.4680  -22.7800 C   0  0  0  0  0  0  0  0  0  0  0  0
   -3.2620   34.1320  -23.9190 C   0  0  0  0  0  0  0  0  0  0  0  0
   -4.2850   34.9670  -24.1180 N   0  0  0  0  0  0  0  0  0  0  0  0
   -3.0620   33.1560  -24.6850 O   0  0  0  0  0  0  0  0  0  0  0  0
   -0.3600   34.2650  -21.2560 S   0  0  0  0  0  0  0  0  0  0  0  0
   -1.5030   35.4700  -20.8950 C   0  0  0  0  0  0  0  0  0  0  0  0
   -2.5620   35.5050  -21.8010 C   0  0  0  0  0  0  0  0  0  0  0  0
    0.3722   31.1274  -25.1456 H   0  0  0  0  0  0  0  0  0  0  0  0
   -0.3706   29.9562  -23.9600 H   0  0  0  0  0  0  0  0  0  0  0  0
    1.8514   29.5849  -22.9655 H   0  0  0  0  0  0  0  0  0  0  0  0
    2.5756   30.6674  -24.2059 H   0  0  0  0  0  0  0  0  0  0  0  0
    1.8635   27.8715  -24.4054 H   0  0  0  0  0  0  0  0  0  0  0  0
    0.9143   28.8260  -25.5948 H   0  0  0  0  0  0  0  0  0  0  0  0
    2.7081   28.9197  -25.5948 H   0  0  0  0  0  0  0  0  0  0  0  0
   -1.3303   32.4445  -24.3306 H   0  0  0  0  0  0  0  0  0  0  0  0
   -4.7825   35.3731  -23.3127 H   0  0  0  0  0  0  0  0  0  0  0  0
   -4.5765   35.2050  -25.0768 H   0  0  0  0  0  0  0  0  0  0  0  0
   -1.4162   36.1514  -20.0358 H   0  0  0  0  0  0  0  0  0  0  0  0
   -3.4042   36.2119  -21.7718 H   0  0  0  0  0  0  0  0  0  0  0  0
  5  4  1  0
 11  9  2  0
  3  4  1  0
  3  2  1  0
 10  9  1  0
  9  8  1  0
  6  2  1  0
  6  7  1  0
  2  1  2  0
  8  7  2  0
  8 14  1  0
  7 12  1  0
 14 13  2  0
 12 13  1  0
  3 15  1  0
  3 16  1  0
  4 17  1  0
  4 18  1  0
  5 19  1  0
  5 20  1  0
  5 21  1  0
  6 22  1  0
 10 23  1  0
 10 24  1  0
 13 25  1  0
 14 26  1  0
A    1
O2
A    2
C6
A    3
C7
A    4
C8
A    5
C9
A    6
N2
A    7
C4
A    8
C1
A    9
C5
A   10
N1
A   11
O1
A   12
S1
A   13
C3
A   14
C2
M  END
