5CTX_55G_B_303
     RDKit          3D

 40 44  0  0  0  0  0  0  0  0999 V2000
   15.9170  -14.5220   28.5620 O   0  0  0  0  0  0  0  0  0  0  0  0
   15.2130  -15.3330   29.2550 C   0  0  0  0  0  0  0  0  0  0  0  0
   13.8530  -15.6430   28.9600 C   0  0  0  0  0  0  0  0  0  0  0  0
   13.0590  -16.4890   29.7620 C   0  0  0  0  0  0  0  0  0  0  0  0
   11.6020  -16.7410   29.4010 C   0  0  0  0  0  0  0  0  0  0  0  0
   10.7670  -15.6230   29.1410 C   0  0  0  0  0  0  0  0  0  0  0  0
    9.3990  -15.8070   28.8300 C   0  0  0  0  0  0  0  0  0  0  0  0
    8.8180  -17.0830   28.7530 C   0  0  0  0  0  0  0  0  0  0  0  0
    9.6460  -18.1940   29.0110 C   0  0  0  0  0  0  0  0  0  0  0  0
   11.0170  -18.0350   29.3310 C   0  0  0  0  0  0  0  0  0  0  0  0
   13.7430  -17.0480   30.9630 C   0  0  0  0  0  0  0  0  0  0  0  0
   13.5290  -17.9340   32.1190 C   0  0  0  0  0  0  0  0  0  0  0  0
   14.6270  -18.0680   32.9620 N   0  0  0  0  0  0  0  0  0  0  0  0
   15.6500  -17.2690   32.3220 N   0  0  0  0  0  0  0  0  0  0  0  0
   15.1920  -16.6940   31.1700 C   0  0  0  0  0  0  0  0  0  0  0  0
   15.8110  -15.8580   30.3410 N   0  0  0  0  0  0  0  0  0  0  0  0
   12.2030  -18.6080   32.3680 C   0  0  0  0  0  0  0  0  0  0  0  0
   12.1090  -20.2600   32.6960 S   0  0  0  0  0  0  0  0  0  0  0  0
   10.3990  -20.2220   32.7690 C   0  0  0  0  0  0  0  0  0  0  0  0
    9.9430  -18.9880   32.5890 N   0  0  0  0  0  0  0  0  0  0  0  0
   10.9260  -18.0560   32.3790 C   0  0  0  0  0  0  0  0  0  0  0  0
    9.5720  -21.4140   32.9960 C   0  0  0  0  0  0  0  0  0  0  0  0
    8.1770  -21.2310   32.9730 C   0  0  0  0  0  0  0  0  0  0  0  0
    7.3570  -22.3750   33.2030 C   0  0  0  0  0  0  0  0  0  0  0  0
    8.0020  -23.5960   33.4330 C   0  0  0  0  0  0  0  0  0  0  0  0
    9.3590  -23.6890   33.4750 N   0  0  0  0  0  0  0  0  0  0  0  0
   10.1260  -22.6460   33.1970 C   0  0  0  0  0  0  0  0  0  0  0  0
   13.3998  -15.1998   28.0610 H   0  0  0  0  0  0  0  0  0  0  0  0
   11.1862  -14.6068   29.1816 H   0  0  0  0  0  0  0  0  0  0  0  0
    8.7713  -14.9233   28.6428 H   0  0  0  0  0  0  0  0  0  0  0  0
    7.7550  -17.2109   28.5004 H   0  0  0  0  0  0  0  0  0  0  0  0
    9.2185  -19.2064   28.9629 H   0  0  0  0  0  0  0  0  0  0  0  0
   11.6359  -18.9228   29.5275 H   0  0  0  0  0  0  0  0  0  0  0  0
   14.6959  -18.6086   33.8360 H   0  0  0  0  0  0  0  0  0  0  0  0
   16.7889  -15.6015   30.5382 H   0  0  0  0  0  0  0  0  0  0  0  0
   10.7261  -16.9840   32.2343 H   0  0  0  0  0  0  0  0  0  0  0  0
    7.7350  -20.2415   32.7845 H   0  0  0  0  0  0  0  0  0  0  0  0
    6.2595  -22.3008   33.1998 H   0  0  0  0  0  0  0  0  0  0  0  0
    7.3971  -24.5024   33.5834 H   0  0  0  0  0  0  0  0  0  0  0  0
   11.2165  -22.7727   33.1275 H   0  0  0  0  0  0  0  0  0  0  0  0
  1  2  2  0
  8  7  1  0
  8  9  2  0
  7  6  2  0
  3  2  1  0
  3  4  2  0
  9 10  1  0
  6  5  1  0
  2 16  1  0
 10  5  2  0
  5  4  1  0
  4 11  1  0
 16 15  1  0
 11 15  1  0
 11 12  2  0
 15 14  2  0
 12 17  1  0
 12 13  1  0
 14 13  1  0
 17 21  2  0
 17 18  1  0
 21 20  1  0
 20 19  2  0
 18 19  1  0
 19 22  1  0
 23 22  2  0
 23 24  1  0
 22 27  1  0
 24 25  2  0
 27 26  2  0
 25 26  1  0
  3 28  1  0
  6 29  1  0
  7 30  1  0
  8 31  1  0
  9 32  1  0
 10 33  1  0
 13 34  1  0
 16 35  1  0
 21 36  1  0
 23 37  1  0
 24 38  1  0
 25 39  1  0
 27 40  1  0
A    1
O
A    2
C1
A    3
C14
A    4
C13
A    5
C15
A    6
C20
A    7
C19
A    8
C18
A    9
C17
A   10
C16
A   11
C3
A   12
C4
A   13
N2
A   14
N3
A   15
C2
A   16
N1
A   17
C5
A   18
S
A   19
C7
A   20
N4
A   21
C6
A   22
C8
A   23
C12
A   24
C11
A   25
C10
A   26
N5
A   27
C9
M  END
