5CSP_54G_A_401
     RDKit          3D

 19 19  0  0  0  0  0  0  0  0999 V2000
   93.0240   16.1560  131.5040 C   0  0  0  0  0  0  0  0  0  0  0  0
   92.7400   13.8610  130.9270 C   0  0  0  0  0  0  0  0  0  0  0  0
   92.3560   12.1020  132.6960 C   0  0  0  0  0  0  0  0  0  0  0  0
   92.6180   13.5150  132.2790 C   0  0  0  0  0  0  0  0  0  0  0  0
   92.7390   14.5270  133.2480 C   0  0  0  0  0  0  0  0  0  0  0  0
   92.9240   15.8430  132.8490 C   0  0  0  0  0  0  0  0  0  0  0  0
   92.3440   11.7790  133.8720 O   0  0  0  0  0  0  0  0  0  0  0  0
   92.1640   11.2640  131.7240 O   0  0  0  0  0  0  0  0  0  0  0  0
   92.6180   14.2750  134.5830 O   0  0  0  0  0  0  0  0  0  0  0  0
   92.9520   15.1730  130.5240 C   0  0  0  0  0  0  0  0  0  0  0  0
   93.1770   15.5060  129.0750 C   0  0  0  0  0  0  0  0  0  0  0  0
   93.1634   17.2052  131.2046 H   0  0  0  0  0  0  0  0  0  0  0  0
   92.6659   13.0722  130.1640 H   0  0  0  0  0  0  0  0  0  0  0  0
   92.9914   16.6403  133.6038 H   0  0  0  0  0  0  0  0  0  0  0  0
   92.3698   12.4740  134.5765 H   0  0  0  0  0  0  0  0  0  0  0  0
   92.9373   14.9400  135.2432 H   0  0  0  0  0  0  0  0  0  0  0  0
   93.7914   16.4153  128.9989 H   0  0  0  0  0  0  0  0  0  0  0  0
   93.6963   14.6703  128.5831 H   0  0  0  0  0  0  0  0  0  0  0  0
   92.2079   15.6760  128.5831 H   0  0  0  0  0  0  0  0  0  0  0  0
 11 10  1  0
 10  2  1  0
 10  1  2  0
  2  4  2  0
  1  6  1  0
  8  3  2  0
  4  3  1  0
  4  5  1  0
  3  7  1  0
  6  5  2  0
  5  9  1  0
  1 12  1  0
  2 13  1  0
  6 14  1  0
  7 15  1  0
  9 16  1  0
 11 17  1  0
 11 18  1  0
 11 19  1  0
A    1
C2
A    2
C7
A    3
C6
A    4
C5
A    5
C4
A    6
C3
A    7
O1
A    8
O2
A    9
O
A   10
C1
A   11
C
M  END
