5CU2_551_A_401
     RDKit          3D

 49 50  0  0  0  0  0  0  0  0999 V2000
    8.7880  130.5400  358.7480 C   0  0  0  0  0  0  0  0  0  0  0  0
    6.5730  131.6860  357.6130 O   0  0  0  0  0  0  0  0  0  0  0  0
    7.6260  132.3120  357.5460 C   0  0  0  0  0  0  0  0  0  0  0  0
    6.3380  134.9540  355.6570 C   0  0  0  0  0  0  0  0  0  0  0  0
    5.9560  135.5260  354.3130 C   0  0  0  0  0  0  0  0  0  0  0  0
    4.7300  137.3040  353.2040 C   0  0  0  0  0  0  0  0  0  0  0  0
    4.4700  138.7890  353.1450 C   0  0  0  0  0  0  0  0  0  0  0  0
    3.1920  139.2790  352.9440 C   0  0  0  0  0  0  0  0  0  0  0  0
    2.9510  140.6380  352.8600 C   0  0  0  0  0  0  0  0  0  0  0  0
    3.9930  141.5560  352.9710 C   0  0  0  0  0  0  0  0  0  0  0  0
    5.2760  141.0510  353.1670 C   0  0  0  0  0  0  0  0  0  0  0  0
    3.6710  143.0080  352.8780 C   0  0  0  0  0  0  0  0  0  0  0  0
    2.6000  143.4540  352.1080 C   0  0  0  0  0  0  0  0  0  0  0  0
    3.0550  145.7250  352.7120 C   0  0  0  0  0  0  0  0  0  0  0  0
    4.1160  145.3030  353.4790 C   0  0  0  0  0  0  0  0  0  0  0  0
    4.4240  143.9570  353.5640 C   0  0  0  0  0  0  0  0  0  0  0  0
    6.6370  142.1220  353.2400 Cl  0  0  0  0  0  0  0  0  0  0  0  0
    2.2970  144.8010  352.0280 C   0  0  0  0  0  0  0  0  0  0  0  0
    5.5130  139.6950  353.2640 C   0  0  0  0  0  0  0  0  0  0  0  0
    5.4510  136.8950  354.4090 N   0  0  0  0  0  0  0  0  0  0  0  0
    6.9090  133.5570  355.5680 C   0  0  0  0  0  0  0  0  0  0  0  0
    7.8330  133.2760  356.6560 N   0  0  0  0  0  0  0  0  0  0  0  0
    8.7720  132.0230  358.4890 C   0  0  0  0  0  0  0  0  0  0  0  0
    7.9440  129.9350  359.3470 O   0  0  0  0  0  0  0  0  0  0  0  0
    9.8670  129.9760  358.2250 O   0  0  0  0  0  0  0  0  0  0  0  0
    9.7050  128.6260  357.7320 C   0  0  0  0  0  0  0  0  0  0  0  0
    7.0915  135.6113  356.1155 H   0  0  0  0  0  0  0  0  0  0  0  0
    5.4201  134.8947  356.2603 H   0  0  0  0  0  0  0  0  0  0  0  0
    5.1741  134.8921  353.8694 H   0  0  0  0  0  0  0  0  0  0  0  0
    6.8621  135.5474  353.6896 H   0  0  0  0  0  0  0  0  0  0  0  0
    3.7641  136.7782  353.1786 H   0  0  0  0  0  0  0  0  0  0  0  0
    5.3617  137.0472  352.3409 H   0  0  0  0  0  0  0  0  0  0  0  0
    2.3523  138.5748  352.8493 H   0  0  0  0  0  0  0  0  0  0  0  0
    1.9237  140.9988  352.7036 H   0  0  0  0  0  0  0  0  0  0  0  0
    1.9872  142.7258  351.5564 H   0  0  0  0  0  0  0  0  0  0  0  0
    2.8131  146.7960  352.6453 H   0  0  0  0  0  0  0  0  0  0  0  0
    4.7223  146.0391  354.0272 H   0  0  0  0  0  0  0  0  0  0  0  0
    5.2746  143.6325  354.1814 H   0  0  0  0  0  0  0  0  0  0  0  0
    1.4469  145.1357  351.4154 H   0  0  0  0  0  0  0  0  0  0  0  0
    6.5363  139.3303  353.4369 H   0  0  0  0  0  0  0  0  0  0  0  0
    6.2470  137.5329  354.5518 H   0  0  0  0  0  0  0  0  0  0  0  0
    6.0825  132.8322  355.6078 H   0  0  0  0  0  0  0  0  0  0  0  0
    7.4636  133.4761  354.6215 H   0  0  0  0  0  0  0  0  0  0  0  0
    8.6845  133.8494  356.7398 H   0  0  0  0  0  0  0  0  0  0  0  0
    9.7223  132.3336  358.0302 H   0  0  0  0  0  0  0  0  0  0  0  0
    8.6456  132.5775  359.4306 H   0  0  0  0  0  0  0  0  0  0  0  0
    9.6218  127.9328  358.5820 H   0  0  0  0  0  0  0  0  0  0  0  0
    8.7932  128.5663  357.1195 H   0  0  0  0  0  0  0  0  0  0  0  0
   10.5767  128.3522  357.1195 H   0  0  0  0  0  0  0  0  0  0  0  0
 18 13  2  0
 18 14  1  0
 13 12  1  0
 14 15  2  0
  9  8  1  0
  9 10  2  0
 12 10  1  0
 12 16  2  0
  8  7  2  0
 10 11  1  0
  7  6  1  0
  7 19  1  0
 11 17  1  0
 11 19  2  0
  6 20  1  0
 15 16  1  0
  5 20  1  0
  5  4  1  0
 21  4  1  0
 21 22  1  0
 22  3  1  0
  3  2  2  0
  3 23  1  0
 26 25  1  0
 25  1  1  0
 23  1  1  0
  1 24  2  0
  4 27  1  0
  4 28  1  0
  5 29  1  0
  5 30  1  0
  6 31  1  0
  6 32  1  0
  8 33  1  0
  9 34  1  0
 13 35  1  0
 14 36  1  0
 15 37  1  0
 16 38  1  0
 18 39  1  0
 19 40  1  0
 20 41  1  0
 21 42  1  0
 21 43  1  0
 22 44  1  0
 23 45  1  0
 23 46  1  0
 26 47  1  0
 26 48  1  0
 26 49  1  0
A    1
C1
A    2
O2
A    3
C3
A    4
C5
A    5
C6
A    6
C7
A    7
C8
A    8
C9
A    9
C10
A   10
C11
A   11
C12
A   12
C14
A   13
C15
A   14
C17
A   15
C18
A   16
C19
A   17
CL
A   18
C16
A   19
C13
A   20
N1
A   21
C4
A   22
N
A   23
C2
A   24
O1
A   25
O
A   26
C
M  END
