5CU8_54T_A_2001
     RDKit          3D

 16 17  0  0  0  0  0  0  0  0999 V2000
   15.7240   38.9640   29.8340 N   0  0  0  0  0  0  0  0  0  0  0  0
   12.3980   40.4110   30.0270 C   0  0  0  0  0  0  0  0  0  0  0  0
   12.6810   41.7470   30.2420 C   0  0  0  0  0  0  0  0  0  0  0  0
   15.2220   37.7570   29.6550 C   0  0  0  0  0  0  0  0  0  0  0  0
   11.3780   42.8920   30.4190 Cl  0  0  0  0  0  0  0  0  0  0  0  0
   14.0040   42.1830   30.3160 C   0  0  0  0  0  0  0  0  0  0  0  0
   13.4550   39.5250   29.8990 C   0  0  0  0  0  0  0  0  0  0  0  0
   13.5320   37.8640   29.6500 S   0  0  0  0  0  0  0  0  0  0  0  0
   15.8890   36.6220   29.4890 N   0  0  0  0  0  0  0  0  0  0  0  0
   14.8140   39.9570   29.9740 C   0  0  0  0  0  0  0  0  0  0  0  0
   15.0700   41.3160   30.1790 C   0  0  0  0  0  0  0  0  0  0  0  0
   11.3578   40.0598   29.9592 H   0  0  0  0  0  0  0  0  0  0  0  0
   14.2043   43.2507   30.4889 H   0  0  0  0  0  0  0  0  0  0  0  0
   16.2044   36.0853   30.3096 H   0  0  0  0  0  0  0  0  0  0  0  0
   16.0913   36.2777   28.5396 H   0  0  0  0  0  0  0  0  0  0  0  0
   16.1037   41.6886   30.2303 H   0  0  0  0  0  0  0  0  0  0  0  0
  9  4  1  0
  8  4  1  0
  8  7  1  0
  4  1  2  0
  1 10  1  0
  7 10  2  0
  7  2  1  0
 10 11  1  0
  2  3  2  0
 11  6  2  0
  3  6  1  0
  3  5  1  0
  2 12  1  0
  6 13  1  0
  9 14  1  0
  9 15  1  0
 11 16  1  0
A    1
N1
A    2
C4
A    3
C5
A    4
C6
A    5
CL
A    6
C
A    7
C3
A    8
S
A    9
N
A   10
C2
A   11
C1
M  END
