5CVF_54Z_A_401
     RDKit          3D

 21 21  0  0  0  0  0  0  0  0999 V2000
   80.4630   19.1380  128.9090 C   0  0  0  0  0  0  0  0  0  0  0  0
   81.7320   21.5570  128.6430 C   0  0  0  0  0  0  0  0  0  0  0  0
   79.7500   20.2260  128.4230 C   0  0  0  0  0  0  0  0  0  0  0  0
   78.1480   19.7110  126.8250 C   0  0  0  0  0  0  0  0  0  0  0  0
   82.4480   20.4700  129.1230 C   0  0  0  0  0  0  0  0  0  0  0  0
   79.6720   17.6060  129.0910 Cl  0  0  0  0  0  0  0  0  0  0  0  0
   78.4210   20.0000  128.0930 O   0  0  0  0  0  0  0  0  0  0  0  0
   78.5870   18.5140  126.5010 F   0  0  0  0  0  0  0  0  0  0  0  0
   76.8550   19.7310  126.5950 F   0  0  0  0  0  0  0  0  0  0  0  0
   78.7040   20.5710  126.0000 F   0  0  0  0  0  0  0  0  0  0  0  0
   80.3960   21.4450  128.2930 C   0  0  0  0  0  0  0  0  0  0  0  0
   81.7930   19.2530  129.2540 C   0  0  0  0  0  0  0  0  0  0  0  0
   83.9080   20.5840  129.4920 C   0  0  0  0  0  0  0  0  0  0  0  0
   84.3850   19.6220  130.4710 N   0  0  0  0  0  0  0  0  0  0  0  0
   82.2359   22.5291  128.5380 H   0  0  0  0  0  0  0  0  0  0  0  0
   79.8499   22.3210  127.9131 H   0  0  0  0  0  0  0  0  0  0  0  0
   82.3376   18.3764  129.6348 H   0  0  0  0  0  0  0  0  0  0  0  0
   84.5002   20.4547  128.5741 H   0  0  0  0  0  0  0  0  0  0  0  0
   84.0238   21.5726  129.9603 H   0  0  0  0  0  0  0  0  0  0  0  0
   84.2071   19.9809  131.4199 H   0  0  0  0  0  0  0  0  0  0  0  0
   83.8896   18.7280  130.3435 H   0  0  0  0  0  0  0  0  0  0  0  0
 10  4  1  0
  8  4  1  0
  9  4  1  0
  4  7  1  0
  7  3  1  0
 11  3  1  0
 11  2  2  0
  3  1  2  0
  2  5  1  0
  1  6  1  0
  1 12  1  0
  5 12  2  0
  5 13  1  0
 13 14  1  0
  2 15  1  0
 11 16  1  0
 12 17  1  0
 13 18  1  0
 13 19  1  0
 14 20  1  0
 14 21  1  0
A    1
C6
A    2
C2
A    3
C4
A    4
C5
A    5
C1
A    6
CL
A    7
O
A    8
F2
A    9
F1
A   10
F
A   11
C3
A   12
C7
A   13
C
A   14
N
M  END
