5CXA_55L_A_306
     RDKit          3D

 76 78  0  0  0  0  0  0  0  0999 V2000
   10.9810   32.4360   10.3490 O   0  0  0  0  0  0  0  0  0  0  0  0
   10.3310   31.5270   10.8520 C   0  0  0  0  0  0  0  0  0  0  0  0
   10.2090   31.3740   12.1360 O   0  0  0  0  0  0  0  0  0  0  0  0
    9.6360   30.5500    9.9460 C   0  0  0  0  0  0  0  0  0  0  0  0
    9.0120   31.3000    8.7840 C   0  0  0  0  0  0  0  0  0  0  0  0
    8.0090   30.5430    7.9310 C   0  0  0  0  0  0  0  0  0  0  0  0
    7.0270   31.5720    7.4440 C   0  0  0  0  0  0  0  0  0  0  0  0
    7.4730   32.4040    6.5230 N   0  0  0  0  0  0  0  0  0  0  0  0
    5.8900   31.6420    7.9110 O   0  0  0  0  0  0  0  0  0  0  0  0
    8.7120   29.8440    6.8680 N   0  0  0  0  0  0  0  0  0  0  0  0
    8.0870   29.2050    5.8860 C   0  0  0  0  0  0  0  0  0  0  0  0
    6.8760   28.9590    5.8990 O   0  0  0  0  0  0  0  0  0  0  0  0
    8.9540   28.7650    4.7390 C   0  0  0  0  0  0  0  0  0  0  0  0
    9.4260   29.9380    3.8620 C   0  0  0  0  0  0  0  0  0  0  0  0
    8.2910   30.6470    3.1270 C   0  0  0  0  0  0  0  0  0  0  0  0
    8.8010   31.7470    2.2090 C   0  0  0  0  0  0  0  0  0  0  0  0
    9.6820   32.6060    2.6350 O   0  0  0  0  0  0  0  0  0  0  0  0
    8.3330   31.8040    1.0520 O   0  0  0  0  0  0  0  0  0  0  0  0
    8.3060   27.7090    3.9760 N   0  0  0  0  0  0  0  0  0  0  0  0
    8.9870   26.6070    3.7110 C   0  0  0  0  0  0  0  0  0  0  0  0
   10.0800   26.3850    4.2100 O   0  0  0  0  0  0  0  0  0  0  0  0
    8.3870   25.6320    2.7490 C   0  0  0  0  0  0  0  0  0  0  0  0
    9.3130   25.5300    1.5340 C   0  0  0  0  0  0  0  0  0  0  0  0
    8.7010   24.7450    0.3960 C   0  0  0  0  0  0  0  0  0  0  0  0
    9.0880   23.5740    0.1920 O   0  0  0  0  0  0  0  0  0  0  0  0
    7.8120   25.2780   -0.3050 O   0  0  0  0  0  0  0  0  0  0  0  0
    8.2870   24.2770    3.4510 C   0  0  0  0  0  0  0  0  0  0  0  0
    7.0720   23.9420    4.2570 C   0  0  0  0  0  0  0  0  0  0  0  0
    5.7570   24.2140    4.2350 C   0  0  0  0  0  0  0  0  0  0  0  0
    7.3210   23.0780    5.2880 O   0  0  0  0  0  0  0  0  0  0  0  0
    6.0960   22.8200    5.9490 N   0  0  0  0  0  0  0  0  0  0  0  0
    5.1870   23.5130    5.3040 C   0  0  0  0  0  0  0  0  0  0  0  0
    3.7630   23.4360    5.7380 C   0  0  0  0  0  0  0  0  0  0  0  0
    3.4100   22.6310    6.8190 C   0  0  0  0  0  0  0  0  0  0  0  0
    2.0820   22.5320    7.2170 C   0  0  0  0  0  0  0  0  0  0  0  0
    2.7670   24.1070    5.0410 C   0  0  0  0  0  0  0  0  0  0  0  0
    1.4450   24.0080    5.4460 C   0  0  0  0  0  0  0  0  0  0  0  0
    1.0870   23.2210    6.5310 C   0  0  0  0  0  0  0  0  0  0  0  0
   -0.3340   23.1330    6.9360 C   0  0  0  0  0  0  0  0  0  0  0  0
   -0.9060   21.9010    7.2160 C   0  0  0  0  0  0  0  0  0  0  0  0
   -1.1060   24.2820    7.0130 C   0  0  0  0  0  0  0  0  0  0  0  0
   -2.4420   24.2110    7.3860 C   0  0  0  0  0  0  0  0  0  0  0  0
   -3.0100   22.9890    7.6700 C   0  0  0  0  0  0  0  0  0  0  0  0
   -2.2430   21.8480    7.5850 C   0  0  0  0  0  0  0  0  0  0  0  0
   -2.9630   20.3160    7.9430 Cl  0  0  0  0  0  0  0  0  0  0  0  0
   10.6909   31.9784   12.7545 H   0  0  0  0  0  0  0  0  0  0  0  0
    8.8505   30.0230   10.5074 H   0  0  0  0  0  0  0  0  0  0  0  0
   10.3642   29.8192    9.5644 H   0  0  0  0  0  0  0  0  0  0  0  0
    9.8287   31.6269    8.1236 H   0  0  0  0  0  0  0  0  0  0  0  0
    8.4348   32.1137    9.2474 H   0  0  0  0  0  0  0  0  0  0  0  0
    7.4628   29.7619    8.4802 H   0  0  0  0  0  0  0  0  0  0  0  0
    7.9415   33.2779    6.8018 H   0  0  0  0  0  0  0  0  0  0  0  0
    7.3529   32.1799    5.5249 H   0  0  0  0  0  0  0  0  0  0  0  0
    9.7420   29.8443    6.8769 H   0  0  0  0  0  0  0  0  0  0  0  0
    9.8749   28.3411    5.1658 H   0  0  0  0  0  0  0  0  0  0  0  0
   10.1352   29.5508    3.1156 H   0  0  0  0  0  0  0  0  0  0  0  0
    9.8872   30.6774    4.5332 H   0  0  0  0  0  0  0  0  0  0  0  0
    7.6113   31.0914    3.8690 H   0  0  0  0  0  0  0  0  0  0  0  0
    7.7728   29.9016    2.5059 H   0  0  0  0  0  0  0  0  0  0  0  0
    9.8161   32.7367    3.6071 H   0  0  0  0  0  0  0  0  0  0  0  0
    7.3355   27.8178    3.6486 H   0  0  0  0  0  0  0  0  0  0  0  0
    7.3869   25.9516    2.4207 H   0  0  0  0  0  0  0  0  0  0  0  0
   10.2446   25.0333    1.8427 H   0  0  0  0  0  0  0  0  0  0  0  0
    9.4968   26.5518    1.1706 H   0  0  0  0  0  0  0  0  0  0  0  0
    9.2852   22.9775    0.9571 H   0  0  0  0  0  0  0  0  0  0  0  0
    8.3726   23.5072    2.6699 H   0  0  0  0  0  0  0  0  0  0  0  0
    9.0869   24.3221    4.2047 H   0  0  0  0  0  0  0  0  0  0  0  0
    5.2310   24.8609    3.5175 H   0  0  0  0  0  0  0  0  0  0  0  0
    4.1865   22.0708    7.3604 H   0  0  0  0  0  0  0  0  0  0  0  0
    1.8159   21.9045    8.0804 H   0  0  0  0  0  0  0  0  0  0  0  0
    3.0278   24.7189    4.1649 H   0  0  0  0  0  0  0  0  0  0  0  0
    0.6680   24.5619    4.8988 H   0  0  0  0  0  0  0  0  0  0  0  0
   -0.3091   20.9797    7.1467 H   0  0  0  0  0  0  0  0  0  0  0  0
   -0.6567   25.2579    6.7767 H   0  0  0  0  0  0  0  0  0  0  0  0
   -3.0449   25.1285    7.4544 H   0  0  0  0  0  0  0  0  0  0  0  0
   -4.0684   22.9246    7.9626 H   0  0  0  0  0  0  0  0  0  0  0  0
 26 24  2  0
 25 24  1  0
 24 23  1  0
 18 16  2  0
 23 22  1  0
 16 17  1  0
 16 15  1  0
 22 27  1  0
 22 20  1  0
 15 14  1  0
 27 28  1  0
 20 19  1  0
 20 21  2  0
 14 13  1  0
 19 13  1  0
 29 28  2  0
 29 32  1  0
 28 30  1  0
 13 11  1  0
 36 37  2  0
 36 33  1  0
 32 33  1  0
 32 31  2  0
 30 31  1  0
 37 38  1  0
 33 34  2  0
 11 12  2  0
 11 10  1  0
  8  7  1  0
 38 39  1  0
 38 35  2  0
 34 35  1  0
 10  6  1  0
 39 41  1  0
 39 40  2  0
 41 42  2  0
 40 44  1  0
 42 43  1  0
  7  9  2  0
  7  6  1  0
 44 43  2  0
 44 45  1  0
  6  5  1  0
  5  4  1  0
  4  2  1  0
  1  2  2  0
  2  3  1  0
  3 46  1  0
  4 47  1  0
  4 48  1  0
  5 49  1  0
  5 50  1  0
  6 51  1  0
  8 52  1  0
  8 53  1  0
 10 54  1  0
 13 55  1  0
 14 56  1  0
 14 57  1  0
 15 58  1  0
 15 59  1  0
 17 60  1  0
 19 61  1  0
 22 62  1  0
 23 63  1  0
 23 64  1  0
 25 65  1  0
 27 66  1  0
 27 67  1  0
 29 68  1  0
 34 69  1  0
 35 70  1  0
 36 71  1  0
 37 72  1  0
 40 73  1  0
 41 74  1  0
 42 75  1  0
 43 76  1  0
A    1
O43
A    2
C42
A    3
O44
A    4
C41
A    5
C40
A    6
C29
A    7
C37
A    8
N39
A    9
O38
A   10
N28
A   11
C27
A   12
O36
A   13
C26
A   14
C31
A   15
C32
A   16
C33
A   17
O35
A   18
O34
A   19
N25
A   20
C20
A   21
O30
A   22
C19
A   23
C21
A   24
C22
A   25
O24
A   26
O23
A   27
C71
A   28
C9
A   29
C8
A   30
O10
A   31
N11
A   32
C7
A   33
C6
A   34
C1
A   35
C2
A   36
C5
A   37
C4
A   38
C3
A   39
C12
A   40
C17
A   41
C13
A   42
C14
A   43
C15
A   44
C16
A   45
CL
M  END
