4KAH_BYZ_A_404
     RDKit          3D

  9  9  0  0  0  0  0  0  0  0999 V2000
   15.3700   10.7170  -29.1760 Br  0  0  0  0  0  0  0  0  0  0  0  0
   14.6650   11.6330  -30.8090 C   0  0  0  0  0  0  0  0  0  0  0  0
   13.9130   12.7920  -30.7530 C   0  0  0  0  0  0  0  0  0  0  0  0
   13.6510   13.0640  -32.0530 N   0  0  0  0  0  0  0  0  0  0  0  0
   14.2470   12.0660  -32.8660 N   0  0  0  0  0  0  0  0  0  0  0  0
   14.8890   11.1630  -32.0810 C   0  0  0  0  0  0  0  0  0  0  0  0
   13.6015   13.3586  -29.8631 H   0  0  0  0  0  0  0  0  0  0  0  0
   13.1059   13.8674  -32.3969 H   0  0  0  0  0  0  0  0  0  0  0  0
   15.4528   10.2701  -32.3890 H   0  0  0  0  0  0  0  0  0  0  0  0
  5  6  2  0
  5  4  1  0
  6  2  1  0
  4  3  1  0
  2  3  2  0
  2  1  1  0
  3  7  1  0
  4  8  1  0
  6  9  1  0
A    1
BR4
A    2
C4
A    3
C5
A    4
N1
A    5
N2
A    6
C3
M  END
