5CY3_55Y_A_701
     RDKit          3D

 40 43  0  0  0  0  0  0  0  0999 V2000
   -9.0280  -16.5720  -17.2420 N   0  0  0  0  0  0  0  0  0  0  0  0
   -1.5780  -10.4810  -17.3720 N   0  0  0  0  0  0  0  0  0  0  0  0
   -7.0410  -13.7070  -16.4250 C   0  0  0  0  0  0  0  0  0  0  0  0
   -7.7530  -12.6120  -16.3240 C   0  0  0  0  0  0  0  0  0  0  0  0
   -7.1310  -11.3670  -15.9900 C   0  0  0  0  0  0  0  0  0  0  0  0
   -5.3960  -10.0090  -15.4450 C   0  0  0  0  0  0  0  0  0  0  0  0
   -5.7400  -11.3110  -15.7710 C   0  0  0  0  0  0  0  0  0  0  0  0
   -8.9440  -15.2600  -17.0190 C   0  0  0  0  0  0  0  0  0  0  0  0
   -1.4540  -12.5980  -16.5350 C   0  0  0  0  0  0  0  0  0  0  0  0
   -1.2090  -10.4620  -16.0580 C   0  0  0  0  0  0  0  0  0  0  0  0
   -1.0540   -9.5200  -15.4080 O   0  0  0  0  0  0  0  0  0  0  0  0
   -1.7280  -11.7570  -17.8180 C   0  0  0  0  0  0  0  0  0  0  0  0
   -1.1170  -11.6810  -15.5790 O   0  0  0  0  0  0  0  0  0  0  0  0
   -2.7840  -13.3230  -16.1170 C   0  0  0  0  0  0  0  0  0  0  0  0
   -2.4740  -14.1880  -14.9580 C   0  0  0  0  0  0  0  0  0  0  0  0
   -3.6540  -12.3250  -15.8000 O   0  0  0  0  0  0  0  0  0  0  0  0
   -4.9900  -12.4820  -15.9370 C   0  0  0  0  0  0  0  0  0  0  0  0
   -6.7450   -8.9980  -15.4720 S   0  0  0  0  0  0  0  0  0  0  0  0
   -7.7030  -10.2040  -15.8560 N   0  0  0  0  0  0  0  0  0  0  0  0
   -5.6110  -13.6230  -16.2370 C   0  0  0  0  0  0  0  0  0  0  0  0
   -7.6460  -14.9860  -16.6990 C   0  0  0  0  0  0  0  0  0  0  0  0
   -7.0820  -16.2210  -16.7730 C   0  0  0  0  0  0  0  0  0  0  0  0
   -7.9420  -17.1580  -17.1160 N   0  0  0  0  0  0  0  0  0  0  0  0
  -10.2570  -17.2830  -17.6360 C   0  0  0  0  0  0  0  0  0  0  0  0
   -1.7235   -9.6404  -17.9492 H   0  0  0  0  0  0  0  0  0  0  0  0
   -8.8386  -12.6497  -16.4974 H   0  0  0  0  0  0  0  0  0  0  0  0
   -4.3758   -9.6781  -15.2005 H   0  0  0  0  0  0  0  0  0  0  0  0
   -9.7677  -14.5337  -17.0814 H   0  0  0  0  0  0  0  0  0  0  0  0
   -0.6696  -13.3556  -16.6787 H   0  0  0  0  0  0  0  0  0  0  0  0
   -2.7467  -11.9288  -18.1957 H   0  0  0  0  0  0  0  0  0  0  0  0
   -1.0631  -12.0088  -18.6573 H   0  0  0  0  0  0  0  0  0  0  0  0
   -3.2196  -13.9599  -16.9010 H   0  0  0  0  0  0  0  0  0  0  0  0
   -2.6713  -13.6374  -14.0264 H   0  0  0  0  0  0  0  0  0  0  0  0
   -3.1056  -15.0880  -14.9928 H   0  0  0  0  0  0  0  0  0  0  0  0
   -1.4146  -14.4819  -14.9928 H   0  0  0  0  0  0  0  0  0  0  0  0
   -5.0100  -14.5379  -16.3458 H   0  0  0  0  0  0  0  0  0  0  0  0
   -6.0192  -16.4171  -16.5680 H   0  0  0  0  0  0  0  0  0  0  0  0
  -10.8029  -17.5988  -16.7347 H   0  0  0  0  0  0  0  0  0  0  0  0
  -10.8926  -16.6131  -18.2337 H   0  0  0  0  0  0  0  0  0  0  0  0
   -9.9931  -18.1679  -18.2337 H   0  0  0  0  0  0  0  0  0  0  0  0
 12  2  1  0
 12  9  1  0
 24  1  1  0
  2 10  1  0
  1 23  1  0
  1  8  1  0
 23 22  2  0
  8 21  2  0
 22 21  1  0
 21  3  1  0
  9 14  1  0
  9 13  1  0
  3  4  2  0
  3 20  1  0
  4  5  1  0
 20 17  2  0
 14 16  1  0
 14 15  1  0
 10 13  1  0
 10 11  2  0
  5 19  2  0
  5  7  1  0
 17 16  1  0
 17  7  1  0
 19 18  1  0
  7  6  2  0
 18  6  1  0
  2 25  1  0
  4 26  1  0
  6 27  1  0
  8 28  1  0
  9 29  1  0
 12 30  1  0
 12 31  1  0
 14 32  1  0
 15 33  1  0
 15 34  1  0
 15 35  1  0
 20 36  1  0
 22 37  1  0
 24 38  1  0
 24 39  1  0
 24 40  1  0
A    1
N1
A    2
N3
A    3
C4
A    4
C5
A    5
C6
A    6
C7
A    7
C8
A    8
C10
A    9
C13
A   10
C15
A   11
O1
A   12
C14
A   13
O2
A   14
C1
A   15
C
A   16
O
A   17
C2
A   18
S
A   19
N
A   20
C3
A   21
C9
A   22
C12
A   23
N2
A   24
C11
M  END
