5CY9_E0A_A_202
     RDKit          3D

 43 45  0  0  0  0  0  0  0  0999 V2000
   -8.8750   24.3160   -6.4940 C   0  0  0  0  0  0  0  0  0  0  0  0
   -8.5290   22.9580   -6.9770 C   0  0  0  0  0  0  0  0  0  0  0  0
   -7.0850   22.8260   -6.5660 C   0  0  0  0  0  0  0  0  0  0  0  0
   -6.7720   21.3800   -6.8980 C   0  0  0  0  0  0  0  0  0  0  0  0
   -4.9900   21.1780   -6.6360 S   0  0  0  0  0  0  0  0  0  0  0  0
   -4.6470   19.7790   -7.0960 O   0  0  0  0  0  0  0  0  0  0  0  0
   -4.2640   22.2350   -7.4580 O   0  0  0  0  0  0  0  0  0  0  0  0
   -4.6160   21.3760   -5.0860 N   0  0  0  0  0  0  0  0  0  0  0  0
   -5.3110   20.7300   -4.0890 C   0  0  0  0  0  0  0  0  0  0  0  0
   -5.7320   19.3870   -4.1700 C   0  0  0  0  0  0  0  0  0  0  0  0
   -6.4260   18.8120   -3.0860 C   0  0  0  0  0  0  0  0  0  0  0  0
   -6.6670   19.5480   -1.9610 C   0  0  0  0  0  0  0  0  0  0  0  0
   -6.2490   20.8070   -1.8830 C   0  0  0  0  0  0  0  0  0  0  0  0
   -5.5910   21.4500   -2.8860 C   0  0  0  0  0  0  0  0  0  0  0  0
   -5.2070   22.7860   -2.5980 C   0  0  0  0  0  0  0  0  0  0  0  0
   -5.5560   23.3570   -1.3600 C   0  0  0  0  0  0  0  0  0  0  0  0
   -6.2300   22.5980   -0.3880 C   0  0  0  0  0  0  0  0  0  0  0  0
   -6.5930   21.3320   -0.6690 C   0  0  0  0  0  0  0  0  0  0  0  0
   -7.2400   20.3560    0.0030 C   0  0  0  0  0  0  0  0  0  0  0  0
   -7.8020   20.4080    1.1210 O   0  0  0  0  0  0  0  0  0  0  0  0
   -7.3090   19.2660   -0.7980 N   0  0  0  0  0  0  0  0  0  0  0  0
   -7.9650   18.0500   -0.3940 C   0  0  0  0  0  0  0  0  0  0  0  0
   -9.3640   18.0790   -0.9780 C   0  0  0  0  0  0  0  0  0  0  0  0
   -8.8772   24.3244   -5.3940 H   0  0  0  0  0  0  0  0  0  0  0  0
   -8.1320   25.0374   -6.8648 H   0  0  0  0  0  0  0  0  0  0  0  0
   -9.8726   24.5939   -6.8648 H   0  0  0  0  0  0  0  0  0  0  0  0
   -8.6403   22.8837   -8.0688 H   0  0  0  0  0  0  0  0  0  0  0  0
   -9.1762   22.1681   -6.5680 H   0  0  0  0  0  0  0  0  0  0  0  0
   -6.4452   23.5119   -7.1406 H   0  0  0  0  0  0  0  0  0  0  0  0
   -6.9079   23.0785   -5.5101 H   0  0  0  0  0  0  0  0  0  0  0  0
   -7.0307   21.1642   -7.9451 H   0  0  0  0  0  0  0  0  0  0  0  0
   -7.3515   20.6888   -6.2684 H   0  0  0  0  0  0  0  0  0  0  0  0
   -3.8377   22.0012   -4.8325 H   0  0  0  0  0  0  0  0  0  0  0  0
   -5.5208   18.7929   -5.0713 H   0  0  0  0  0  0  0  0  0  0  0  0
   -6.7736   17.7701   -3.1463 H   0  0  0  0  0  0  0  0  0  0  0  0
   -4.6405   23.3710   -3.3375 H   0  0  0  0  0  0  0  0  0  0  0  0
   -5.2991   24.4060   -1.1514 H   0  0  0  0  0  0  0  0  0  0  0  0
   -6.4594   23.0349    0.5951 H   0  0  0  0  0  0  0  0  0  0  0  0
   -8.0159   17.9961    0.7035 H   0  0  0  0  0  0  0  0  0  0  0  0
   -7.4108   17.1700   -0.7524 H   0  0  0  0  0  0  0  0  0  0  0  0
  -10.1017   18.0943   -0.1621 H   0  0  0  0  0  0  0  0  0  0  0  0
   -9.4840   18.9798   -1.5978 H   0  0  0  0  0  0  0  0  0  0  0  0
   -9.5212   17.1839   -1.5978 H   0  0  0  0  0  0  0  0  0  0  0  0
  7  5  2  0
  6  5  2  0
  2  3  1  0
  2  1  1  0
  4  5  1  0
  4  3  1  0
  5  8  1  0
  8  9  1  0
 10  9  2  0
 10 11  1  0
  9 14  1  0
 11 12  2  0
 14 15  2  0
 14 13  1  0
 15 16  1  0
 12 13  1  0
 12 21  1  0
 13 18  2  0
 16 17  2  0
 23 22  1  0
 21 22  1  0
 21 19  1  0
 18 17  1  0
 18 19  1  0
 19 20  2  0
  1 24  1  0
  1 25  1  0
  1 26  1  0
  2 27  1  0
  2 28  1  0
  3 29  1  0
  3 30  1  0
  4 31  1  0
  4 32  1  0
  8 33  1  0
 10 34  1  0
 11 35  1  0
 15 36  1  0
 16 37  1  0
 17 38  1  0
 22 39  1  0
 22 40  1  0
 23 41  1  0
 23 42  1  0
 23 43  1  0
A    1
CAW
A    2
CAV
A    3
CAS
A    4
CAR
A    5
SAQ
A    6
OAT
A    7
OAU
A    8
NAP
A    9
CAC
A   10
CAB
A   11
CAA
A   12
CAF
A   13
CAE
A   14
CAD
A   15
CAG
A   16
CAH
A   17
CAI
A   18
CAJ
A   19
CAL
A   20
OAM
A   21
NAK
A   22
CAN
A   23
CAO
M  END
