5D0C_E0B_A_206
     RDKit          3D

 54 57  0  0  0  0  0  0  0  0999 V2000
    5.7320    9.6900   -3.3530 C   0  0  0  0  0  0  0  0  0  0  0  0
    5.3800    9.3220   -4.7760 C   0  0  0  0  0  0  0  0  0  0  0  0
    5.6360    7.8510   -4.8640 N   0  0  0  0  0  0  0  0  0  0  0  0
    6.6850    7.3030   -5.5250 C   0  0  0  0  0  0  0  0  0  0  0  0
    7.4830    7.9560   -6.2000 O   0  0  0  0  0  0  0  0  0  0  0  0
    6.8790    5.7800   -5.5290 C   0  0  0  0  0  0  0  0  0  0  0  0
    4.6830    7.1160   -3.9770 C   0  0  0  0  0  0  0  0  0  0  0  0
    4.9690    7.4350   -2.5360 C   0  0  0  0  0  0  0  0  0  0  0  0
    4.7910    8.9530   -2.3650 C   0  0  0  0  0  0  0  0  0  0  0  0
    5.0840    9.2910   -0.9070 C   0  0  0  0  0  0  0  0  0  0  0  0
    4.7260   10.7110   -0.6010 N   0  0  0  0  0  0  0  0  0  0  0  0
    5.5540   11.4180    0.6080 S   0  0  0  0  0  0  0  0  0  0  0  0
    6.9970   11.4350    0.2520 O   0  0  0  0  0  0  0  0  0  0  0  0
    4.8760   12.7330    0.8270 O   0  0  0  0  0  0  0  0  0  0  0  0
    5.3260   10.4150    2.0710 C   0  0  0  0  0  0  0  0  0  0  0  0
    6.4460    9.8570    2.6480 C   0  0  0  0  0  0  0  0  0  0  0  0
    6.3820    9.0490    3.7760 C   0  0  0  0  0  0  0  0  0  0  0  0
    5.1680    8.8020    4.3320 C   0  0  0  0  0  0  0  0  0  0  0  0
    4.0720    9.3320    3.7420 C   0  0  0  0  0  0  0  0  0  0  0  0
    4.0710   10.1320    2.6560 C   0  0  0  0  0  0  0  0  0  0  0  0
    2.8140   10.6060    2.1780 C   0  0  0  0  0  0  0  0  0  0  0  0
    1.6530   10.2160    2.8730 C   0  0  0  0  0  0  0  0  0  0  0  0
    1.7620    9.3670    3.9870 C   0  0  0  0  0  0  0  0  0  0  0  0
    2.9790    8.9420    4.4270 C   0  0  0  0  0  0  0  0  0  0  0  0
    3.4430    8.1110    5.4250 C   0  0  0  0  0  0  0  0  0  0  0  0
    2.7780    7.4110    6.2210 O   0  0  0  0  0  0  0  0  0  0  0  0
    4.7670    8.0390    5.3640 N   0  0  0  0  0  0  0  0  0  0  0  0
    5.6450    7.2480    6.2370 C   0  0  0  0  0  0  0  0  0  0  0  0
    5.8530    5.8370    5.6520 C   0  0  0  0  0  0  0  0  0  0  0  0
    6.7733    9.4001   -3.1489 H   0  0  0  0  0  0  0  0  0  0  0  0
    5.6138   10.7757   -3.2216 H   0  0  0  0  0  0  0  0  0  0  0  0
    6.0166    9.8694   -5.4867 H   0  0  0  0  0  0  0  0  0  0  0  0
    4.3400    9.5785   -5.0264 H   0  0  0  0  0  0  0  0  0  0  0  0
    6.9257    5.4136   -4.4929 H   0  0  0  0  0  0  0  0  0  0  0  0
    6.0342    5.3041   -6.0485 H   0  0  0  0  0  0  0  0  0  0  0  0
    7.8161    5.5311   -6.0485 H   0  0  0  0  0  0  0  0  0  0  0  0
    3.6534    7.4182   -4.2193 H   0  0  0  0  0  0  0  0  0  0  0  0
    4.8027    6.0343   -4.1373 H   0  0  0  0  0  0  0  0  0  0  0  0
    4.2657    6.8968   -1.8836 H   0  0  0  0  0  0  0  0  0  0  0  0
    5.9888    7.1270   -2.2617 H   0  0  0  0  0  0  0  0  0  0  0  0
    3.7662    9.2781   -2.5977 H   0  0  0  0  0  0  0  0  0  0  0  0
    4.4963    8.6246   -0.2586 H   0  0  0  0  0  0  0  0  0  0  0  0
    6.1606    9.1553   -0.7264 H   0  0  0  0  0  0  0  0  0  0  0  0
    4.8827   11.2653   -1.4549 H   0  0  0  0  0  0  0  0  0  0  0  0
    7.4290   10.0593    2.1978 H   0  0  0  0  0  0  0  0  0  0  0  0
    7.2962    8.6179    4.2101 H   0  0  0  0  0  0  0  0  0  0  0  0
    2.7530   11.2566    1.2931 H   0  0  0  0  0  0  0  0  0  0  0  0
    0.6659   10.5742    2.5454 H   0  0  0  0  0  0  0  0  0  0  0  0
    0.8517    9.0409    4.5113 H   0  0  0  0  0  0  0  0  0  0  0  0
    6.6190    7.7517    6.3241 H   0  0  0  0  0  0  0  0  0  0  0  0
    5.1765    7.1583    7.2282 H   0  0  0  0  0  0  0  0  0  0  0  0
    5.9599    5.1120    6.4724 H   0  0  0  0  0  0  0  0  0  0  0  0
    4.9852    5.5651    5.0331 H   0  0  0  0  0  0  0  0  0  0  0  0
    6.7623    5.8270    5.0331 H   0  0  0  0  0  0  0  0  0  0  0  0
  5  4  2  0
  6  4  1  0
  4  3  1  0
  3  2  1  0
  3  7  1  0
  2  1  1  0
  7  8  1  0
  1  9  1  0
  8  9  1  0
  9 10  1  0
 10 11  1  0
 11 12  1  0
 13 12  2  0
 12 14  2  0
 12 15  1  0
 15 16  2  0
 15 20  1  0
 21 20  2  0
 21 22  1  0
 16 17  1  0
 20 19  1  0
 22 23  2  0
 19 18  1  0
 19 24  2  0
 17 18  2  0
 23 24  1  0
 18 27  1  0
 24 25  1  0
 27 25  1  0
 27 28  1  0
 25 26  2  0
 29 28  1  0
  1 30  1  0
  1 31  1  0
  2 32  1  0
  2 33  1  0
  6 34  1  0
  6 35  1  0
  6 36  1  0
  7 37  1  0
  7 38  1  0
  8 39  1  0
  8 40  1  0
  9 41  1  0
 10 42  1  0
 10 43  1  0
 11 44  1  0
 16 45  1  0
 17 46  1  0
 21 47  1  0
 22 48  1  0
 23 49  1  0
 28 50  1  0
 28 51  1  0
 29 52  1  0
 29 53  1  0
 29 54  1  0
A    1
CAV
A    2
CAW
A    3
NAX
A    4
CBA
A    5
OBC
A    6
CBB
A    7
CAY
A    8
CAZ
A    9
CAU
A   10
CAT
A   11
NAS
A   12
SAP
A   13
OAQ
A   14
OAR
A   15
CAC
A   16
CAB
A   17
CAA
A   18
CAF
A   19
CAE
A   20
CAD
A   21
CAG
A   22
CAH
A   23
CAI
A   24
CAJ
A   25
CAL
A   26
OAM
A   27
NAK
A   28
CAN
A   29
CAO
M  END
