3HUC_G97_A_362
     RDKit          3D

 43 46  0  0  0  0  0  0  0  0999 V2000
   24.7520   -1.9090  -20.8760 C   0  0  0  0  0  0  0  0  0  0  0  0
   25.3510   -2.9980  -21.5080 C   0  0  0  0  0  0  0  0  0  0  0  0
   24.8970   -4.2750  -21.2010 C   0  0  0  0  0  0  0  0  0  0  0  0
   23.8760   -4.4740  -20.2690 C   0  0  0  0  0  0  0  0  0  0  0  0
   23.2760   -3.3800  -19.6380 C   0  0  0  0  0  0  0  0  0  0  0  0
   23.7150   -2.0910  -19.9500 C   0  0  0  0  0  0  0  0  0  0  0  0
   23.1530   -0.9930  -19.3060 C   0  0  0  0  0  0  0  0  0  0  0  0
   23.0020    0.1980  -19.9310 N   0  0  0  0  0  0  0  0  0  0  0  0
   22.7970   -1.1460  -18.0150 N   0  0  0  0  0  0  0  0  0  0  0  0
   22.2710   -0.1250  -17.3250 C   0  0  0  0  0  0  0  0  0  0  0  0
   21.9000   -0.3240  -15.9950 C   0  0  0  0  0  0  0  0  0  0  0  0
   21.3380    0.7140  -15.2550 C   0  0  0  0  0  0  0  0  0  0  0  0
   21.0190    0.4530  -13.9710 N   0  0  0  0  0  0  0  0  0  0  0  0
   20.1930    1.1450  -13.1760 C   0  0  0  0  0  0  0  0  0  0  0  0
   19.5700    2.1540  -13.5240 O   0  0  0  0  0  0  0  0  0  0  0  0
   20.0260    0.6750  -11.8710 C   0  0  0  0  0  0  0  0  0  0  0  0
   19.1830    1.3240  -10.9700 C   0  0  0  0  0  0  0  0  0  0  0  0
   21.1580    1.9670  -15.8690 C   0  0  0  0  0  0  0  0  0  0  0  0
   21.5350    2.1660  -17.2050 C   0  0  0  0  0  0  0  0  0  0  0  0
   22.0950    1.1170  -17.9450 C   0  0  0  0  0  0  0  0  0  0  0  0
   22.4780    1.2630  -19.2890 C   0  0  0  0  0  0  0  0  0  0  0  0
   22.3330    2.4370  -19.9390 N   0  0  0  0  0  0  0  0  0  0  0  0
   22.4610    2.5860  -21.2810 C   0  0  0  0  0  0  0  0  0  0  0  0
   22.5710    3.7560  -21.9050 C   0  0  0  0  0  0  0  0  0  0  0  0
   22.6670    3.4550  -23.2030 C   0  0  0  0  0  0  0  0  0  0  0  0
   22.6040    2.1190  -23.3250 N   0  0  0  0  0  0  0  0  0  0  0  0
   22.4840    1.6090  -22.2000 N   0  0  0  0  0  0  0  0  0  0  0  0
   25.0985   -0.8910  -21.1075 H   0  0  0  0  0  0  0  0  0  0  0  0
   26.1646   -2.8496  -22.2333 H   0  0  0  0  0  0  0  0  0  0  0  0
   25.3496   -5.1442  -21.7007 H   0  0  0  0  0  0  0  0  0  0  0  0
   23.5428   -5.4948  -20.0306 H   0  0  0  0  0  0  0  0  0  0  0  0
   22.4693   -3.5322  -18.9059 H   0  0  0  0  0  0  0  0  0  0  0  0
   22.0523   -1.3078  -15.5271 H   0  0  0  0  0  0  0  0  0  0  0  0
   21.4632   -0.3766  -13.5523 H   0  0  0  0  0  0  0  0  0  0  0  0
   20.5703   -0.2247  -11.5481 H   0  0  0  0  0  0  0  0  0  0  0  0
   19.0673    0.9355   -9.9474 H   0  0  0  0  0  0  0  0  0  0  0  0
   18.6336    2.2246  -11.2817 H   0  0  0  0  0  0  0  0  0  0  0  0
   20.7181    2.7970  -15.2967 H   0  0  0  0  0  0  0  0  0  0  0  0
   21.3902    3.1505  -17.6739 H   0  0  0  0  0  0  0  0  0  0  0  0
   22.1109    3.2732  -19.3801 H   0  0  0  0  0  0  0  0  0  0  0  0
   22.5808    4.7572  -21.4494 H   0  0  0  0  0  0  0  0  0  0  0  0
   22.7781    4.1750  -24.0272 H   0  0  0  0  0  0  0  0  0  0  0  0
   22.6483    1.5992  -24.2131 H   0  0  0  0  0  0  0  0  0  0  0  0
  2  1  2  0
  1  6  1  0
  2  3  1  0
  3  4  2  0
  4  5  1  0
  6  5  2  0
  6  7  1  0
  8  7  2  0
  7  9  1  0
  8 21  1  0
  9 10  2  0
 20 10  1  0
 10 11  1  0
 11 12  2  0
 18 12  1  0
 12 13  1  0
 13 14  1  0
 15 14  2  0
 14 16  1  0
 16 17  2  3
 19 18  2  0
 20 19  1  0
 21 20  2  0
 22 21  1  0
 23 22  1  0
 27 23  2  0
 24 23  1  0
 25 24  2  0
 26 25  1  0
 26 27  1  0
  1 28  1  0
  2 29  1  0
  3 30  1  0
  4 31  1  0
  5 32  1  0
 11 33  1  0
 13 34  1  0
 16 35  1  0
 17 36  1  0
 17 37  1  0
 18 38  1  0
 19 39  1  0
 22 40  1  0
 24 41  1  0
 25 42  1  0
 26 43  1  0
A    1
CAH
A    2
CAE
A    3
CAD
A    4
CAF
A    5
CAI
A    6
CAW
A    7
C2
A    8
N1
A    9
N3
A   10
C4
A   11
CAM
A   12
CAU
A   13
NAQ
A   14
CAT
A   15
OAB
A   16
CAC
A   17
CAA
A   18
CAK
A   19
CAL
A   20
C5
A   21
C6
A   22
NAR
A   23
CAV
A   24
CAJ
A   25
CAG
A   26
NAS
A   27
NAN
M  END
