5D1S_56Q_A_801
     RDKit          3D

 34 34  0  0  0  0  0  0  0  0999 V2000
   11.7940   18.8150   26.5780 C   0  0  0  0  0  0  0  0  0  0  0  0
   12.5830   18.9060   27.8900 C   0  0  0  0  0  0  0  0  0  0  0  0
   14.2890   20.2710   28.9340 O   0  0  0  0  0  0  0  0  0  0  0  0
   10.2970   18.8840   26.5350 N   0  0  0  0  0  0  0  0  0  0  0  0
    9.2170   20.8300   27.8560 C   0  0  0  0  0  0  0  0  0  0  0  0
    8.1740   20.3590   28.6740 C   0  0  0  0  0  0  0  0  0  0  0  0
    7.9830   20.9050   29.9490 C   0  0  0  0  0  0  0  0  0  0  0  0
    8.8350   21.9060   30.3910 C   0  0  0  0  0  0  0  0  0  0  0  0
    9.8680   22.3810   29.5890 C   0  0  0  0  0  0  0  0  0  0  0  0
   10.0570   21.8410   28.3230 C   0  0  0  0  0  0  0  0  0  0  0  0
    9.5680   17.6180   26.6050 C   0  0  0  0  0  0  0  0  0  0  0  0
   12.3020   17.5590   25.8640 C   0  0  0  0  0  0  0  0  0  0  0  0
   13.4320   19.9330   27.8980 N   0  0  0  0  0  0  0  0  0  0  0  0
   12.5090   18.1110   28.8310 O   0  0  0  0  0  0  0  0  0  0  0  0
    9.4640   20.2080   26.3860 S   0  0  0  0  0  0  0  0  0  0  0  0
    8.1600   20.0470   25.7780 O   0  0  0  0  0  0  0  0  0  0  0  0
   10.2030   21.1460   25.5830 O   0  0  0  0  0  0  0  0  0  0  0  0
    8.6570   22.4370   31.6070 F   0  0  0  0  0  0  0  0  0  0  0  0
    6.8690   20.4170   30.8580 C   0  0  0  0  0  0  0  0  0  0  0  0
   11.9997   19.7798   26.0913 H   0  0  0  0  0  0  0  0  0  0  0  0
   13.8441   20.0955   29.8008 H   0  0  0  0  0  0  0  0  0  0  0  0
    7.5084   19.5616   28.3119 H   0  0  0  0  0  0  0  0  0  0  0  0
   10.5308   23.1790   29.9550 H   0  0  0  0  0  0  0  0  0  0  0  0
   10.8730   22.2125   27.6858 H   0  0  0  0  0  0  0  0  0  0  0  0
    9.4100   17.3436   27.6585 H   0  0  0  0  0  0  0  0  0  0  0  0
    8.5945   17.7273   26.1046 H   0  0  0  0  0  0  0  0  0  0  0  0
   10.1512   16.8309   26.1046 H   0  0  0  0  0  0  0  0  0  0  0  0
   12.6049   16.8101   26.6105 H   0  0  0  0  0  0  0  0  0  0  0  0
   11.5004   17.1456   25.2343 H   0  0  0  0  0  0  0  0  0  0  0  0
   13.1656   17.8192   25.2343 H   0  0  0  0  0  0  0  0  0  0  0  0
   13.4535   20.5296   27.0587 H   0  0  0  0  0  0  0  0  0  0  0  0
    7.1687   20.5483   31.9082 H   0  0  0  0  0  0  0  0  0  0  0  0
    5.9552   20.9973   30.6622 H   0  0  0  0  0  0  0  0  0  0  0  0
    6.6760   19.3519   30.6622 H   0  0  0  0  0  0  0  0  0  0  0  0
 17 15  2  0
 16 15  2  0
 12  1  1  0
 15  4  1  0
 15  5  1  0
  4  1  1  0
  4 11  1  0
  1  2  1  0
  5 10  2  0
  5  6  1  0
  2 13  1  0
  2 14  2  0
 13  3  1  0
 10  9  1  0
  6  7  2  0
  9  8  2  0
  7  8  1  0
  7 19  1  0
  8 18  1  0
  1 20  1  0
  3 21  1  0
  6 22  1  0
  9 23  1  0
 10 24  1  0
 11 25  1  0
 11 26  1  0
 11 27  1  0
 12 28  1  0
 12 29  1  0
 12 30  1  0
 13 31  1  0
 19 32  1  0
 19 33  1  0
 19 34  1  0
A    1
C1
A    2
C2
A    3
O5
A    4
N6
A    5
C10
A    6
C11
A    7
C12
A    8
C13
A    9
C14
A   10
C15
A   11
C18
A   12
C28
A   13
N4
A   14
O3
A   15
S7
A   16
O8
A   17
O9
A   18
F16
A   19
C17
M  END
