5D1T_56R_A_802
     RDKit          3D

 49 50  0  0  0  0  0  0  0  0999 V2000
   11.4710   18.8200   26.5280 C   0  0  0  0  0  0  0  0  0  0  0  0
   12.2300   19.0300   27.8390 C   0  0  0  0  0  0  0  0  0  0  0  0
    8.4850   16.5590   21.8970 C   0  0  0  0  0  0  0  0  0  0  0  0
   13.9000   20.3050   28.9490 O   0  0  0  0  0  0  0  0  0  0  0  0
    9.9800   18.8540   26.5370 N   0  0  0  0  0  0  0  0  0  0  0  0
    8.8960   20.7780   27.8540 C   0  0  0  0  0  0  0  0  0  0  0  0
    7.9220   20.3000   28.7340 C   0  0  0  0  0  0  0  0  0  0  0  0
    7.7960   20.8600   30.0020 C   0  0  0  0  0  0  0  0  0  0  0  0
    8.6400   21.8860   30.3850 C   0  0  0  0  0  0  0  0  0  0  0  0
    9.6130   22.3610   29.5100 C   0  0  0  0  0  0  0  0  0  0  0  0
    9.7450   21.8070   28.2450 C   0  0  0  0  0  0  0  0  0  0  0  0
    8.5080   17.0260   25.6620 C   0  0  0  0  0  0  0  0  0  0  0  0
    7.2210   16.6090   25.9940 C   0  0  0  0  0  0  0  0  0  0  0  0
    6.3420   16.1770   25.0030 C   0  0  0  0  0  0  0  0  0  0  0  0
    6.7560   16.1590   23.6750 C   0  0  0  0  0  0  0  0  0  0  0  0
    8.9190   17.0120   24.3320 C   0  0  0  0  0  0  0  0  0  0  0  0
    8.0450   16.5760   23.3420 C   0  0  0  0  0  0  0  0  0  0  0  0
    9.4400   17.5040   26.7540 C   0  0  0  0  0  0  0  0  0  0  0  0
   12.0050   17.5030   25.9760 C   0  0  0  0  0  0  0  0  0  0  0  0
   13.1100   20.0350   27.8300 N   0  0  0  0  0  0  0  0  0  0  0  0
   12.0990   18.3120   28.8360 O   0  0  0  0  0  0  0  0  0  0  0  0
    9.0790   20.1510   26.3890 S   0  0  0  0  0  0  0  0  0  0  0  0
    7.7850   19.9280   25.7960 O   0  0  0  0  0  0  0  0  0  0  0  0
    9.7000   21.1750   25.6010 O   0  0  0  0  0  0  0  0  0  0  0  0
    8.5220   22.4430   31.6060 F   0  0  0  0  0  0  0  0  0  0  0  0
    6.7400   20.3570   30.9580 C   0  0  0  0  0  0  0  0  0  0  0  0
    7.4680   17.3120   21.1170 N   0  0  0  0  0  0  0  0  0  0  0  0
   11.6630   19.7022   25.8997 H   0  0  0  0  0  0  0  0  0  0  0  0
    8.5461   15.5224   21.5342 H   0  0  0  0  0  0  0  0  0  0  0  0
    9.4787   17.0177   21.7868 H   0  0  0  0  0  0  0  0  0  0  0  0
   13.3788   20.1269   29.7716 H   0  0  0  0  0  0  0  0  0  0  0  0
    7.2551   19.4816   28.4250 H   0  0  0  0  0  0  0  0  0  0  0  0
   10.2794   23.1784   29.8227 H   0  0  0  0  0  0  0  0  0  0  0  0
   10.5168   22.1797   27.5555 H   0  0  0  0  0  0  0  0  0  0  0  0
    6.8967   16.6208   27.0450 H   0  0  0  0  0  0  0  0  0  0  0  0
    5.3255   15.8517   25.2694 H   0  0  0  0  0  0  0  0  0  0  0  0
    6.0677   15.8163   22.8883 H   0  0  0  0  0  0  0  0  0  0  0  0
    9.9327   17.3450   24.0648 H   0  0  0  0  0  0  0  0  0  0  0  0
    8.8869   17.5024   27.7048 H   0  0  0  0  0  0  0  0  0  0  0  0
   10.2991   16.8170   26.7596 H   0  0  0  0  0  0  0  0  0  0  0  0
   12.2745   16.8383   26.8100 H   0  0  0  0  0  0  0  0  0  0  0  0
   11.2306   17.0228   25.3599 H   0  0  0  0  0  0  0  0  0  0  0  0
   12.8952   17.6977   25.3599 H   0  0  0  0  0  0  0  0  0  0  0  0
   13.2069   20.6182   26.9866 H   0  0  0  0  0  0  0  0  0  0  0  0
    7.0762   20.5171   31.9930 H   0  0  0  0  0  0  0  0  0  0  0  0
    5.8012   20.9047   30.7885 H   0  0  0  0  0  0  0  0  0  0  0  0
    6.5737   19.2829   30.7885 H   0  0  0  0  0  0  0  0  0  0  0  0
    6.8236   17.7891   21.7635 H   0  0  0  0  0  0  0  0  0  0  0  0
    7.9383   18.0102   20.5235 H   0  0  0  0  0  0  0  0  0  0  0  0
 27  3  1  0
  3 17  1  0
 17 15  2  0
 17 16  1  0
 15 14  1  0
 16 12  2  0
 14 13  2  0
 24 22  2  0
 12 13  1  0
 12 18  1  0
 23 22  2  0
 19  1  1  0
 22  5  1  0
 22  6  1  0
  1  5  1  0
  1  2  1  0
  5 18  1  0
 20  2  1  0
 20  4  1  0
  2 21  2  0
  6 11  1  0
  6  7  2  0
 11 10  2  0
  7  8  1  0
 10  9  1  0
  8  9  2  0
  8 26  1  0
  9 25  1  0
  1 28  1  0
  3 29  1  0
  3 30  1  0
  4 31  1  0
  7 32  1  0
 10 33  1  0
 11 34  1  0
 13 35  1  0
 14 36  1  0
 15 37  1  0
 16 38  1  0
 18 39  1  0
 18 40  1  0
 19 41  1  0
 19 42  1  0
 19 43  1  0
 20 44  1  0
 26 45  1  0
 26 46  1  0
 26 47  1  0
 27 48  1  0
 27 49  1  0
A    1
C1
A    2
C2
A    3
C3
A    4
O5
A    5
N6
A    6
C10
A    7
C11
A    8
C12
A    9
C13
A   10
C14
A   11
C15
A   12
C19
A   13
C20
A   14
C21
A   15
C22
A   16
C24
A   17
C23
A   18
C18
A   19
C28
A   20
N4
A   21
O3
A   22
S7
A   23
O8
A   24
O9
A   25
F16
A   26
C17
A   27
N5
M  END
