5D25_56M_A_201
     RDKit          3D

 53 54  0  0  0  0  0  0  0  0999 V2000
    2.6800   56.4800   23.0050 C   0  0  0  0  0  0  0  0  0  0  0  0
    2.2720   55.4990   22.0920 C   0  0  0  0  0  0  0  0  0  0  0  0
    1.3720   54.4880   22.4890 C   0  0  0  0  0  0  0  0  0  0  0  0
    0.9050   54.4690   23.8040 C   0  0  0  0  0  0  0  0  0  0  0  0
    1.3150   55.4340   24.7190 C   0  0  0  0  0  0  0  0  0  0  0  0
    2.1970   56.4330   24.3090 C   0  0  0  0  0  0  0  0  0  0  0  0
    5.5760   61.1130   21.2530 C   0  0  0  0  0  0  0  0  0  0  0  0
    4.6330   60.2940   21.8570 C   0  0  0  0  0  0  0  0  0  0  0  0
    4.9180   58.9420   21.2740 C   0  0  0  0  0  0  0  0  0  0  0  0
    6.3940   60.2870   20.3410 C   0  0  0  0  0  0  0  0  0  0  0  0
    5.7730   62.5900   21.4080 C   0  0  0  0  0  0  0  0  0  0  0  0
    4.2060   57.6660   21.5760 C   0  0  0  0  0  0  0  0  0  0  0  0
    7.5420   60.7160   19.4600 C   0  0  0  0  0  0  0  0  0  0  0  0
    4.6580   63.3740   22.0320 C   0  0  0  0  0  0  0  0  0  0  0  0
    3.1130   51.0330   19.7480 C   0  0  0  0  0  0  0  0  0  0  0  0
    2.1090   50.8430   23.4740 C   0  0  0  0  0  0  0  0  0  0  0  0
    3.5730   60.6860   22.8620 C   0  0  0  0  0  0  0  0  0  0  0  0
    3.0510   52.2110   20.6940 C   0  0  0  0  0  0  0  0  0  0  0  0
    1.4280   50.9090   22.1340 C   0  0  0  0  0  0  0  0  0  0  0  0
    5.9400   59.0280   20.4190 N   0  0  0  0  0  0  0  0  0  0  0  0
    3.5370   57.4980   22.7160 N   0  0  0  0  0  0  0  0  0  0  0  0
    1.7930   52.1420   21.4360 N   0  0  0  0  0  0  0  0  0  0  0  0
    6.7970   63.1360   21.0020 O   0  0  0  0  0  0  0  0  0  0  0  0
    4.2860   56.7830   20.7350 O   0  0  0  0  0  0  0  0  0  0  0  0
    0.7150   53.9310   20.1690 O   0  0  0  0  0  0  0  0  0  0  0  0
   -0.4470   52.8870   21.9260 O   0  0  0  0  0  0  0  0  0  0  0  0
    2.5980   57.3920   25.1860 O   0  0  0  0  0  0  0  0  0  0  0  0
    0.8410   53.3440   21.4740 S   0  0  0  0  0  0  0  0  0  0  0  0
    2.6551   55.5172   21.0610 H   0  0  0  0  0  0  0  0  0  0  0  0
    0.2047   53.6821   24.1209 H   0  0  0  0  0  0  0  0  0  0  0  0
    0.9470   55.4089   25.7553 H   0  0  0  0  0  0  0  0  0  0  0  0
    8.3879   61.0321   20.0881 H   0  0  0  0  0  0  0  0  0  0  0  0
    7.8518   59.8729   18.8249 H   0  0  0  0  0  0  0  0  0  0  0  0
    7.2230   61.5556   18.8249 H   0  0  0  0  0  0  0  0  0  0  0  0
    4.7384   63.3175   23.1276 H   0  0  0  0  0  0  0  0  0  0  0  0
    4.7253   64.4246   21.7131 H   0  0  0  0  0  0  0  0  0  0  0  0
    3.6921   62.9552   21.7131 H   0  0  0  0  0  0  0  0  0  0  0  0
    3.1621   50.0994   20.3277 H   0  0  0  0  0  0  0  0  0  0  0  0
    2.2141   51.0241   19.1141 H   0  0  0  0  0  0  0  0  0  0  0  0
    4.0079   51.1185   19.1141 H   0  0  0  0  0  0  0  0  0  0  0  0
    1.3556   50.9160   24.2722 H   0  0  0  0  0  0  0  0  0  0  0  0
    2.6480   49.8884   23.5648 H   0  0  0  0  0  0  0  0  0  0  0  0
    2.8213   51.6763   23.5648 H   0  0  0  0  0  0  0  0  0  0  0  0
    3.9624   60.5420   23.8806 H   0  0  0  0  0  0  0  0  0  0  0  0
    3.3043   61.7429   22.7182 H   0  0  0  0  0  0  0  0  0  0  0  0
    2.6813   60.0582   22.7182 H   0  0  0  0  0  0  0  0  0  0  0  0
    3.8981   52.1698   21.3945 H   0  0  0  0  0  0  0  0  0  0  0  0
    3.1047   53.1529   20.1284 H   0  0  0  0  0  0  0  0  0  0  0  0
    0.3380   50.8843   22.2799 H   0  0  0  0  0  0  0  0  0  0  0  0
    1.7482   50.0483   21.5285 H   0  0  0  0  0  0  0  0  0  0  0  0
    6.3276   58.2336   19.8903 H   0  0  0  0  0  0  0  0  0  0  0  0
    3.6821   58.2065   23.4494 H   0  0  0  0  0  0  0  0  0  0  0  0
    2.5307   57.2310   26.1605 H   0  0  0  0  0  0  0  0  0  0  0  0
 13 10  1  0
 15 18  1  0
 25 28  2  0
 10 20  1  0
 10  7  2  0
 20  9  1  0
 18 22  1  0
 24 12  2  0
 23 11  2  0
  7 11  1  0
  7  8  1  0
  9 12  1  0
  9  8  2  0
 11 14  1  0
 22 28  1  0
 22 19  1  0
 28 26  2  0
 28  3  1  0
 12 21  1  0
  8 17  1  0
  2  3  2  0
  2  1  1  0
 19 16  1  0
  3  4  1  0
 21  1  1  0
  1  6  2  0
  4  5  2  0
  6  5  1  0
  6 27  1  0
  2 29  1  0
  4 30  1  0
  5 31  1  0
 13 32  1  0
 13 33  1  0
 13 34  1  0
 14 35  1  0
 14 36  1  0
 14 37  1  0
 15 38  1  0
 15 39  1  0
 15 40  1  0
 16 41  1  0
 16 42  1  0
 16 43  1  0
 17 44  1  0
 17 45  1  0
 17 46  1  0
 18 47  1  0
 18 48  1  0
 19 49  1  0
 19 50  1  0
 20 51  1  0
 21 52  1  0
 27 53  1  0
A    1
C11
A    2
C12
A    3
C13
A    4
C14
A    5
C15
A    6
C16
A    7
C4
A    8
C3
A    9
C7
A   10
C5
A   11
C27
A   12
C8
A   13
C26
A   14
C29
A   15
C23
A   16
C25
A   17
C2
A   18
C22
A   19
C24
A   20
N6
A   21
N10
A   22
N21
A   23
O28
A   24
O9
A   25
O19
A   26
O20
A   27
O17
A   28
S18
M  END
