5D3P_57E_A_201
     RDKit          3D

 48 50  0  0  0  0  0  0  0  0999 V2000
  -11.0100    7.6050   -1.9270 C   0  0  0  0  0  0  0  0  0  0  0  0
  -10.6620    8.1050   -0.5440 C   0  0  0  0  0  0  0  0  0  0  0  0
  -10.5520    6.9390    0.4030 C   0  0  0  0  0  0  0  0  0  0  0  0
  -11.5570    6.0660    0.8270 C   0  0  0  0  0  0  0  0  0  0  0  0
  -10.9730    5.0890    1.7780 C   0  0  0  0  0  0  0  0  0  0  0  0
   -9.3500    6.4350    1.1250 C   0  0  0  0  0  0  0  0  0  0  0  0
   -6.3190    8.5160    0.2300 C   0  0  0  0  0  0  0  0  0  0  0  0
   -5.7240    9.0190    1.4090 C   0  0  0  0  0  0  0  0  0  0  0  0
   -4.6750    9.9490    1.3130 C   0  0  0  0  0  0  0  0  0  0  0  0
   -4.2260   10.3270    0.0440 C   0  0  0  0  0  0  0  0  0  0  0  0
   -4.8110    9.8090   -1.1250 C   0  0  0  0  0  0  0  0  0  0  0  0
   -6.6250    8.2220   -2.1030 C   0  0  0  0  0  0  0  0  0  0  0  0
   -3.5340    8.2340    3.8910 C   0  0  0  0  0  0  0  0  0  0  0  0
  -11.6500    3.9500    2.4900 C   0  0  0  0  0  0  0  0  0  0  0  0
  -13.0120    6.0630    0.4910 C   0  0  0  0  0  0  0  0  0  0  0  0
  -13.6390    5.0200    0.4620 O   0  0  0  0  0  0  0  0  0  0  0  0
   -7.9750    7.0150    1.1120 C   0  0  0  0  0  0  0  0  0  0  0  0
  -13.7190    7.3720    0.2980 C   0  0  0  0  0  0  0  0  0  0  0  0
   -9.6790    5.3850    1.8880 N   0  0  0  0  0  0  0  0  0  0  0  0
   -7.3490    7.5700    0.0680 N   0  0  0  0  0  0  0  0  0  0  0  0
   -7.4330    6.9270    2.2150 O   0  0  0  0  0  0  0  0  0  0  0  0
   -7.4910    7.2060   -1.3470 C   0  0  0  0  0  0  0  0  0  0  0  0
   -5.8620    8.9060   -1.0010 C   0  0  0  0  0  0  0  0  0  0  0  0
   -3.9930   10.5450    2.6570 S   0  0  0  0  0  0  0  0  0  0  0  0
   -4.9920   10.8500    3.6230 O   0  0  0  0  0  0  0  0  0  0  0  0
   -3.2090   11.7250    2.3400 O   0  0  0  0  0  0  0  0  0  0  0  0
   -3.0150    9.4360    3.2600 N   0  0  0  0  0  0  0  0  0  0  0  0
  -11.6366    6.7047   -1.8445 H   0  0  0  0  0  0  0  0  0  0  0  0
  -11.5605    8.3863   -2.4716 H   0  0  0  0  0  0  0  0  0  0  0  0
  -10.0862    7.3601   -2.4716 H   0  0  0  0  0  0  0  0  0  0  0  0
   -9.7013    8.6397   -0.5792 H   0  0  0  0  0  0  0  0  0  0  0  0
  -11.4508    8.7868   -0.1933 H   0  0  0  0  0  0  0  0  0  0  0  0
   -6.0795    8.6849    2.3949 H   0  0  0  0  0  0  0  0  0  0  0  0
   -3.3972   11.0451   -0.0417 H   0  0  0  0  0  0  0  0  0  0  0  0
   -4.4451   10.1116   -2.1173 H   0  0  0  0  0  0  0  0  0  0  0  0
   -6.5742    8.4057   -3.1864 H   0  0  0  0  0  0  0  0  0  0  0  0
   -3.4864    8.3441    4.9844 H   0  0  0  0  0  0  0  0  0  0  0  0
   -4.5787    8.0801    3.5831 H   0  0  0  0  0  0  0  0  0  0  0  0
   -2.9296    7.3680    3.5831 H   0  0  0  0  0  0  0  0  0  0  0  0
  -11.5642    4.0943    3.5771 H   0  0  0  0  0  0  0  0  0  0  0  0
  -12.7125    3.9203    2.2068 H   0  0  0  0  0  0  0  0  0  0  0  0
  -11.1684    3.0025    2.2068 H   0  0  0  0  0  0  0  0  0  0  0  0
  -13.9552    7.8093    1.2793 H   0  0  0  0  0  0  0  0  0  0  0  0
  -13.0699    8.0601   -0.2634 H   0  0  0  0  0  0  0  0  0  0  0  0
  -14.6503    7.2064   -0.2634 H   0  0  0  0  0  0  0  0  0  0  0  0
   -9.0152    4.8710    2.4847 H   0  0  0  0  0  0  0  0  0  0  0  0
   -8.0873    6.3851   -1.7719 H   0  0  0  0  0  0  0  0  0  0  0  0
   -2.4162    9.1220    2.4830 H   0  0  0  0  0  0  0  0  0  0  0  0
 12 22  2  0
 12 23  1  0
  1  2  1  0
 22 20  1  0
 11 23  2  0
 11 10  1  0
 23  7  1  0
  2  3  1  0
 10  9  2  0
 20  7  1  0
 20 17  1  0
  7  8  2  0
 18 15  1  0
  3  4  1  0
  3  6  2  0
 16 15  2  0
 15  4  1  0
  4  5  2  0
 17  6  1  0
 17 21  2  0
  6 19  1  0
  9  8  1  0
  9 24  1  0
  5 19  1  0
  5 14  1  0
 26 24  2  0
 24 27  1  0
 24 25  2  0
 27 13  1  0
  1 28  1  0
  1 29  1  0
  1 30  1  0
  2 31  1  0
  2 32  1  0
  8 33  1  0
 10 34  1  0
 11 35  1  0
 12 36  1  0
 13 37  1  0
 13 38  1  0
 13 39  1  0
 14 40  1  0
 14 41  1  0
 14 42  1  0
 18 43  1  0
 18 44  1  0
 18 45  1  0
 19 46  1  0
 22 47  1  0
 27 48  1  0
A    1
C1
A    2
C2
A    3
C3
A    4
C4
A    5
C5
A    6
C7
A    7
C11
A    8
C12
A    9
C13
A   10
C14
A   11
C15
A   12
C17
A   13
C22
A   14
C26
A   15
C27
A   16
O28
A   17
C8
A   18
C29
A   19
N6
A   20
N10
A   21
O9
A   22
C6
A   23
C16
A   24
S18
A   25
O19
A   26
O20
A   27
N21
M  END
