5D41_57N_A_1103
     RDKit          3D

 40 43  0  0  0  0  0  0  0  0999 V2000
  -26.5910   34.0390   11.4620 C   0  0  0  0  0  0  0  0  0  0  0  0
  -24.8630   32.3530   12.0710 C   0  0  0  0  0  0  0  0  0  0  0  0
  -24.8770   29.9950   12.6940 C   0  0  0  0  0  0  0  0  0  0  0  0
  -17.9510   31.7930   13.2960 C   0  0  0  0  0  0  0  0  0  0  0  0
  -19.2290   32.2770   13.9530 C   0  0  0  0  0  0  0  0  0  0  0  0
  -20.5860   31.7760   13.4120 C   0  0  0  0  0  0  0  0  0  0  0  0
  -20.6300   30.8620   12.2810 C   0  0  0  0  0  0  0  0  0  0  0  0
  -19.3330   30.3670   11.6120 C   0  0  0  0  0  0  0  0  0  0  0  0
  -18.0020   30.8420   12.1320 C   0  0  0  0  0  0  0  0  0  0  0  0
  -22.0150   32.0690   13.8350 C   0  0  0  0  0  0  0  0  0  0  0  0
  -22.4030   32.7670   14.7080 O   0  0  0  0  0  0  0  0  0  0  0  0
  -24.3220   31.3510   13.0680 C   0  0  0  0  0  0  0  0  0  0  0  0
  -26.0340   33.1180   12.4080 N   0  0  0  0  0  0  0  0  0  0  0  0
  -24.3080   32.5130   11.0430 O   0  0  0  0  0  0  0  0  0  0  0  0
  -27.7570   34.7670   11.7490 N   0  0  0  0  0  0  0  0  0  0  0  0
  -28.1220   35.6160   10.4900 C   0  0  0  0  0  0  0  0  0  0  0  0
  -27.1420   35.3350    9.4740 C   0  0  0  0  0  0  0  0  0  0  0  0
  -26.1450   34.3310   10.0010 S   0  0  0  0  0  0  0  0  0  0  0  0
  -25.8500   29.9070   11.5290 C   0  0  0  0  0  0  0  0  0  0  0  0
  -26.4220   28.5550   11.1430 C   0  0  0  0  0  0  0  0  0  0  0  0
  -26.0170   27.3170   11.9200 C   0  0  0  0  0  0  0  0  0  0  0  0
  -25.0420   27.4030   13.0900 C   0  0  0  0  0  0  0  0  0  0  0  0
  -24.4680   28.7550   13.4820 C   0  0  0  0  0  0  0  0  0  0  0  0
  -22.0800   30.5670   11.9760 C   0  0  0  0  0  0  0  0  0  0  0  0
  -22.8950   31.3130   12.9570 N   0  0  0  0  0  0  0  0  0  0  0  0
  -16.9782   32.1404   13.6740 H   0  0  0  0  0  0  0  0  0  0  0  0
  -19.1902   32.9747   14.8025 H   0  0  0  0  0  0  0  0  0  0  0  0
  -19.3791   29.6718   10.7608 H   0  0  0  0  0  0  0  0  0  0  0  0
  -17.0701   30.4946   11.6621 H   0  0  0  0  0  0  0  0  0  0  0  0
  -24.6062   31.6238   14.0950 H   0  0  0  0  0  0  0  0  0  0  0  0
  -26.4735   33.0033   13.3324 H   0  0  0  0  0  0  0  0  0  0  0  0
  -28.9746   36.3048   10.3966 H   0  0  0  0  0  0  0  0  0  0  0  0
  -27.1224   35.7824    8.4693 H   0  0  0  0  0  0  0  0  0  0  0  0
  -26.1359   30.8119   10.9727 H   0  0  0  0  0  0  0  0  0  0  0  0
  -27.1275   28.4734   10.3030 H   0  0  0  0  0  0  0  0  0  0  0  0
  -26.4337   26.3398   11.6348 H   0  0  0  0  0  0  0  0  0  0  0  0
  -24.7573   26.4964   13.6441 H   0  0  0  0  0  0  0  0  0  0  0  0
  -23.7656   28.8380   14.3245 H   0  0  0  0  0  0  0  0  0  0  0  0
  -22.3246   30.8961   10.9553 H   0  0  0  0  0  0  0  0  0  0  0  0
  -22.2806   29.4875   12.0431 H   0  0  0  0  0  0  0  0  0  0  0  0
 17 18  1  0
 17 16  2  0
 18  1  1  0
 16 15  1  0
 14  2  2  0
 20 19  2  0
 20 21  1  0
  1 15  2  0
  1 13  1  0
 19  3  1  0
  8  9  1  0
  8  7  2  0
 21 22  2  0
 24  7  1  0
 24 25  1  0
  2 13  1  0
  2 12  1  0
  9  4  2  0
  7  6  1  0
  3 12  1  0
  3 23  2  0
 25 12  1  0
 25 10  1  0
 22 23  1  0
  4  5  1  0
  6 10  1  0
  6  5  2  0
 10 11  2  0
  4 26  1  0
  5 27  1  0
  8 28  1  0
  9 29  1  0
 12 30  1  0
 13 31  1  0
 16 32  1  0
 17 33  1  0
 19 34  1  0
 20 35  1  0
 21 36  1  0
 22 37  1  0
 23 38  1  0
 24 39  1  0
 24 40  1  0
A    1
C14
A    2
C11
A    3
C10
A    4
C01
A    5
C02
A    6
C03
A    7
C04
A    8
C05
A    9
C06
A   10
C07
A   11
O08
A   12
C09
A   13
N12
A   14
O13
A   15
N15
A   16
C16
A   17
C17
A   18
S18
A   19
C19
A   20
C20
A   21
C21
A   22
C22
A   23
C23
A   24
C24
A   25
N25
M  END
