5D47_L19_A_201
     RDKit          3D

 55 59  0  0  0  0  0  0  0  0999 V2000
    6.5610    5.8800   14.3270 O   0  0  0  0  0  0  0  0  0  0  0  0
    6.6970    5.8990   15.5130 C   0  0  0  0  0  0  0  0  0  0  0  0
    6.0880    4.8870   16.0920 O   0  0  0  0  0  0  0  0  0  0  0  0
    7.4820    6.9880   16.2690 C   0  0  0  0  0  0  0  0  0  0  0  0
    6.7240    8.3060   16.4860 C   0  0  0  0  0  0  0  0  0  0  0  0
    5.5630    7.9490   17.3160 N   0  0  0  0  0  0  0  0  0  0  0  0
    4.2690    7.7320   16.8280 C   0  0  0  0  0  0  0  0  0  0  0  0
    3.7990    7.9560   15.4140 C   0  0  0  0  0  0  0  0  0  0  0  0
    4.0770    9.2280   14.8930 C   0  0  0  0  0  0  0  0  0  0  0  0
    3.7170    9.5420   13.5770 C   0  0  0  0  0  0  0  0  0  0  0  0
    3.0250    8.5460   12.8200 C   0  0  0  0  0  0  0  0  0  0  0  0
    2.7350    7.2250   13.3260 C   0  0  0  0  0  0  0  0  0  0  0  0
    3.1430    6.9450   14.6190 C   0  0  0  0  0  0  0  0  0  0  0  0
    3.3830    7.3040   17.9230 C   0  0  0  0  0  0  0  0  0  0  0  0
    4.3030    7.2250   19.1020 C   0  0  0  0  0  0  0  0  0  0  0  0
    4.0480    6.8750   20.4400 C   0  0  0  0  0  0  0  0  0  0  0  0
    5.1430    6.9690   21.3100 C   0  0  0  0  0  0  0  0  0  0  0  0
    4.9960    6.5460   22.7170 C   0  0  0  0  0  0  0  0  0  0  0  0
    5.3580    7.7570   23.5350 C   0  0  0  0  0  0  0  0  0  0  0  0
    3.9020    7.2220   23.5310 C   0  0  0  0  0  0  0  0  0  0  0  0
    6.4440    7.3580   20.8760 C   0  0  0  0  0  0  0  0  0  0  0  0
    6.7390    7.7020   19.5540 C   0  0  0  0  0  0  0  0  0  0  0  0
    5.6760    7.6460   18.6320 C   0  0  0  0  0  0  0  0  0  0  0  0
    1.9330    6.9540   17.8540 C   0  0  0  0  0  0  0  0  0  0  0  0
    0.9230    7.7910   17.3410 C   0  0  0  0  0  0  0  0  0  0  0  0
   -0.4230    7.3190   17.2980 C   0  0  0  0  0  0  0  0  0  0  0  0
   -0.6860    6.0890   17.8000 N   0  0  0  0  0  0  0  0  0  0  0  0
    0.2140    5.2260   18.3360 C   0  0  0  0  0  0  0  0  0  0  0  0
    1.5730    5.6110   18.3750 C   0  0  0  0  0  0  0  0  0  0  0  0
    2.5730    4.8030   18.9020 O   0  0  0  0  0  0  0  0  0  0  0  0
    2.0640    3.7620   19.7280 C   0  0  0  0  0  0  0  0  0  0  0  0
    6.0534    4.8295   17.0797 H   0  0  0  0  0  0  0  0  0  0  0  0
    7.7571    6.5868   17.2556 H   0  0  0  0  0  0  0  0  0  0  0  0
    8.3492    7.2338   15.6385 H   0  0  0  0  0  0  0  0  0  0  0  0
    7.3608    9.0364   17.0066 H   0  0  0  0  0  0  0  0  0  0  0  0
    6.4234    8.7696   15.5349 H   0  0  0  0  0  0  0  0  0  0  0  0
    4.5787    9.9803   15.5194 H   0  0  0  0  0  0  0  0  0  0  0  0
    3.9585   10.5222   13.1401 H   0  0  0  0  0  0  0  0  0  0  0  0
    2.6970    8.7987   11.8009 H   0  0  0  0  0  0  0  0  0  0  0  0
    2.2138    6.4755   12.7123 H   0  0  0  0  0  0  0  0  0  0  0  0
    2.9662    5.9457   15.0434 H   0  0  0  0  0  0  0  0  0  0  0  0
    3.0545    6.5489   20.7814 H   0  0  0  0  0  0  0  0  0  0  0  0
    5.2587    5.4814   22.6301 H   0  0  0  0  0  0  0  0  0  0  0  0
    5.9825    7.6479   24.4340 H   0  0  0  0  0  0  0  0  0  0  0  0
    5.8328    8.7266   23.3243 H   0  0  0  0  0  0  0  0  0  0  0  0
    3.1055    7.7880   23.0258 H   0  0  0  0  0  0  0  0  0  0  0  0
    3.1808    6.9011   24.2971 H   0  0  0  0  0  0  0  0  0  0  0  0
    7.2554    7.3889   21.6180 H   0  0  0  0  0  0  0  0  0  0  0  0
    7.7523    8.0019   19.2485 H   0  0  0  0  0  0  0  0  0  0  0  0
    1.1695    8.7993   16.9768 H   0  0  0  0  0  0  0  0  0  0  0  0
   -1.2251    7.9374   16.8688 H   0  0  0  0  0  0  0  0  0  0  0  0
   -0.1067    4.2505   18.7305 H   0  0  0  0  0  0  0  0  0  0  0  0
    2.1973    4.0346   20.7853 H   0  0  0  0  0  0  0  0  0  0  0  0
    0.9938    3.6179   19.5186 H   0  0  0  0  0  0  0  0  0  0  0  0
    2.6075    2.8289   19.5186 H   0  0  0  0  0  0  0  0  0  0  0  0
 11 12  2  0
 11 10  1  0
 12 13  1  0
 10  9  2  0
  1  2  2  0
 13  8  2  0
  9  8  1  0
  8  7  1  0
  2  3  1  0
  2  4  1  0
  4  5  1  0
  5  6  1  0
  7  6  1  0
  7 14  2  0
 26 25  2  0
 26 27  1  0
  6 23  1  0
 25 24  1  0
 27 28  2  0
 24 14  1  0
 24 29  2  0
 14 15  1  0
 28 29  1  0
 29 30  1  0
 23 15  2  0
 23 22  1  0
 30 31  1  0
 15 16  1  0
 22 21  2  0
 16 17  2  0
 21 17  1  0
 17 18  1  0
 18 20  1  0
 18 19  1  0
 20 19  1  0
  3 32  1  0
  4 33  1  0
  4 34  1  0
  5 35  1  0
  5 36  1  0
  9 37  1  0
 10 38  1  0
 11 39  1  0
 12 40  1  0
 13 41  1  0
 16 42  1  0
 18 43  1  0
 19 44  1  0
 19 45  1  0
 20 46  1  0
 20 47  1  0
 21 48  1  0
 22 49  1  0
 25 50  1  0
 26 51  1  0
 28 52  1  0
 31 53  1  0
 31 54  1  0
 31 55  1  0
A    1
O1
A    2
C22
A    3
O2
A    4
C21
A    5
C20
A    6
N1
A    7
C13
A    8
C14
A    9
C15
A   10
C16
A   11
C17
A   12
C18
A   13
C19
A   14
C6
A   15
C7
A   16
C8
A   17
C9
A   18
C23
A   19
C24
A   20
C25
A   21
C10
A   22
C11
A   23
C12
A   24
C5
A   25
C4
A   26
C3
A   27
N
A   28
C2
A   29
C1
A   30
O
A   31
C
M  END
