5D48_L96_A_201
     RDKit          3D

 65 69  0  0  0  0  0  0  0  0999 V2000
    6.3400    5.7860   14.3660 O   0  0  0  0  0  0  0  0  0  0  0  0
    6.5110    5.6580   15.5860 C   0  0  0  0  0  0  0  0  0  0  0  0
    5.9080    4.6340   16.2140 O   0  0  0  0  0  0  0  0  0  0  0  0
    7.2940    6.6870   16.3870 C   0  0  0  0  0  0  0  0  0  0  0  0
    6.3920    7.9000   16.6720 C   0  0  0  0  0  0  0  0  0  0  0  0
    5.2690    7.5250   17.5370 N   0  0  0  0  0  0  0  0  0  0  0  0
    3.9530    7.4230   17.1020 C   0  0  0  0  0  0  0  0  0  0  0  0
    3.1370    6.9640   18.1970 C   0  0  0  0  0  0  0  0  0  0  0  0
    1.6300    6.7030   18.1390 C   0  0  0  0  0  0  0  0  0  0  0  0
    0.6060    7.7040   17.9180 C   0  0  0  0  0  0  0  0  0  0  0  0
    0.8340    9.1920   17.8130 C   0  0  0  0  0  0  0  0  0  0  0  0
   -0.5930    7.0150   17.8450 N   0  0  0  0  0  0  0  0  0  0  0  0
   -0.3330    5.6440   17.9970 N   0  0  0  0  0  0  0  0  0  0  0  0
    1.0010    5.3800   18.1530 C   0  0  0  0  0  0  0  0  0  0  0  0
    1.6460    4.0420   18.3770 C   0  0  0  0  0  0  0  0  0  0  0  0
    4.0060    6.8110   19.3580 C   0  0  0  0  0  0  0  0  0  0  0  0
    3.7540    6.5070   20.6940 C   0  0  0  0  0  0  0  0  0  0  0  0
    4.7750    6.5420   21.6030 C   0  0  0  0  0  0  0  0  0  0  0  0
    4.5300    6.0790   23.0130 C   0  0  0  0  0  0  0  0  0  0  0  0
    3.3900    6.7330   23.7850 C   0  0  0  0  0  0  0  0  0  0  0  0
    4.8770    7.1200   24.0640 C   0  0  0  0  0  0  0  0  0  0  0  0
    6.0910    6.8610   21.1730 C   0  0  0  0  0  0  0  0  0  0  0  0
    6.3600    7.2440   19.8490 C   0  0  0  0  0  0  0  0  0  0  0  0
    5.3550    7.2420   18.8710 C   0  0  0  0  0  0  0  0  0  0  0  0
    3.4920    7.6970   15.7120 C   0  0  0  0  0  0  0  0  0  0  0  0
    3.1820    6.7210   14.7640 C   0  0  0  0  0  0  0  0  0  0  0  0
    2.7070    7.1190   13.4770 C   0  0  0  0  0  0  0  0  0  0  0  0
    2.6310    8.4970   13.1500 C   0  0  0  0  0  0  0  0  0  0  0  0
    2.9530    9.4600   14.1290 C   0  0  0  0  0  0  0  0  0  0  0  0
    3.4100    9.0890   15.3970 C   0  0  0  0  0  0  0  0  0  0  0  0
    2.7670   10.8010   13.7780 O   0  0  0  0  0  0  0  0  0  0  0  0
    2.8460   11.8740   14.7170 C   0  0  0  0  0  0  0  0  0  0  0  0
    4.2400   12.4890   14.6190 C   0  0  0  0  0  0  0  0  0  0  0  0
    1.6950   12.8180   14.3050 C   0  0  0  0  0  0  0  0  0  0  0  0
    5.8892    4.6021   17.2033 H   0  0  0  0  0  0  0  0  0  0  0  0
    7.6220    6.2411   17.3376 H   0  0  0  0  0  0  0  0  0  0  0  0
    8.1755    7.0090   15.8131 H   0  0  0  0  0  0  0  0  0  0  0  0
    6.9853    8.6809   17.1702 H   0  0  0  0  0  0  0  0  0  0  0  0
    5.9915    8.2722   15.7175 H   0  0  0  0  0  0  0  0  0  0  0  0
    0.9003    9.6249   18.8221 H   0  0  0  0  0  0  0  0  0  0  0  0
    1.7717    9.3819   17.2702 H   0  0  0  0  0  0  0  0  0  0  0  0
   -0.0038    9.6539   17.2702 H   0  0  0  0  0  0  0  0  0  0  0  0
   -1.5212    7.4382   17.7028 H   0  0  0  0  0  0  0  0  0  0  0  0
    1.7363    3.8547   19.4572 H   0  0  0  0  0  0  0  0  0  0  0  0
    1.0280    3.2557   17.9189 H   0  0  0  0  0  0  0  0  0  0  0  0
    2.6461    4.0358   17.9189 H   0  0  0  0  0  0  0  0  0  0  0  0
    2.7369    6.2397   21.0167 H   0  0  0  0  0  0  0  0  0  0  0  0
    4.7935    5.0285   22.8204 H   0  0  0  0  0  0  0  0  0  0  0  0
    2.7186    7.4446   23.2822 H   0  0  0  0  0  0  0  0  0  0  0  0
    2.5467    6.3727   24.3924 H   0  0  0  0  0  0  0  0  0  0  0  0
    5.3595    6.8154   25.0044 H   0  0  0  0  0  0  0  0  0  0  0  0
    5.4520    8.0577   24.0760 H   0  0  0  0  0  0  0  0  0  0  0  0
    6.9193    6.8067   21.8947 H   0  0  0  0  0  0  0  0  0  0  0  0
    7.3795    7.5518   19.5735 H   0  0  0  0  0  0  0  0  0  0  0  0
    3.3024    5.6546   15.0057 H   0  0  0  0  0  0  0  0  0  0  0  0
    2.4013    6.3596   12.7423 H   0  0  0  0  0  0  0  0  0  0  0  0
    2.3237    8.8119   12.1419 H   0  0  0  0  0  0  0  0  0  0  0  0
    3.6999    9.8509   16.1356 H   0  0  0  0  0  0  0  0  0  0  0  0
    2.7257   11.5933   15.7737 H   0  0  0  0  0  0  0  0  0  0  0  0
    4.6357   12.6636   15.6304 H   0  0  0  0  0  0  0  0  0  0  0  0
    4.9069   11.8015   14.0780 H   0  0  0  0  0  0  0  0  0  0  0  0
    4.1818   13.4450   14.0780 H   0  0  0  0  0  0  0  0  0  0  0  0
    1.2079   13.2175   15.2067 H   0  0  0  0  0  0  0  0  0  0  0  0
    2.0983   13.6488   13.7074 H   0  0  0  0  0  0  0  0  0  0  0  0
    0.9591   12.2599   13.7074 H   0  0  0  0  0  0  0  0  0  0  0  0
 28 27  1  0
 28 29  2  0
 27 26  2  0
 31 29  1  0
 31 32  1  0
 29 30  1  0
 34 32  1  0
  1  2  2  0
 33 32  1  0
 26 25  1  0
 30 25  2  0
  2  3  1  0
  2  4  1  0
 25  7  1  0
  4  5  1  0
  5  6  1  0
  7  6  1  0
  7  8  2  0
  6 24  1  0
 11 10  1  0
 12 10  1  0
 12 13  1  0
 10  9  2  0
 13 14  2  0
  9 14  1  0
  9  8  1  0
 14 15  1  0
  8 16  1  0
 24 16  2  0
 24 23  1  0
 16 17  1  0
 23 22  2  0
 17 18  2  0
 22 18  1  0
 18 19  1  0
 19 20  1  0
 19 21  1  0
 20 21  1  0
  3 35  1  0
  4 36  1  0
  4 37  1  0
  5 38  1  0
  5 39  1  0
 11 40  1  0
 11 41  1  0
 11 42  1  0
 12 43  1  0
 15 44  1  0
 15 45  1  0
 15 46  1  0
 17 47  1  0
 19 48  1  0
 20 49  1  0
 20 50  1  0
 21 51  1  0
 21 52  1  0
 22 53  1  0
 23 54  1  0
 26 55  1  0
 27 56  1  0
 28 57  1  0
 30 58  1  0
 32 59  1  0
 33 60  1  0
 33 61  1  0
 33 62  1  0
 34 63  1  0
 34 64  1  0
 34 65  1  0
A    1
O1
A    2
C24
A    3
O2
A    4
C23
A    5
C22
A    6
N2
A    7
C12
A    8
C5
A    9
C2
A   10
C1
A   11
C
A   12
N1
A   13
N
A   14
C3
A   15
C4
A   16
C6
A   17
C7
A   18
C8
A   19
C25
A   20
C26
A   21
C27
A   22
C9
A   23
C10
A   24
C11
A   25
C13
A   26
C14
A   27
C15
A   28
C16
A   29
C17
A   30
C18
A   31
O
A   32
C19
A   33
C20
A   34
C21
M  END
