5D5Q_57O_A_201
     RDKit          3D

 25 25  0  0  0  0  0  0  0  0999 V2000
   16.4280    4.5110   15.1640 C   0  0  0  0  0  0  0  0  0  0  0  0
   12.3780    5.0460   12.6220 C   0  0  0  0  0  0  0  0  0  0  0  0
   17.7960    4.2570   12.8160 O   0  0  0  0  0  0  0  0  0  0  0  0
   14.4830    4.7160   11.4900 C   0  0  0  0  0  0  0  0  0  0  0  0
   14.9130    6.8970   10.1280 O   0  0  0  0  0  0  0  0  0  0  0  0
   13.5450    6.3180    8.4690 O   0  0  0  0  0  0  0  0  0  0  0  0
   14.1230    6.1140    9.5590 C   0  0  0  0  0  0  0  0  0  0  0  0
   13.8470    4.7750   10.2500 C   0  0  0  0  0  0  0  0  0  0  0  0
   15.8120    4.5180   11.5560 N   0  0  0  0  0  0  0  0  0  0  0  0
   16.4510    4.4490   12.7380 C   0  0  0  0  0  0  0  0  0  0  0  0
   15.7690    4.5800   13.9430 C   0  0  0  0  0  0  0  0  0  0  0  0
   14.4020    4.7790   13.8800 C   0  0  0  0  0  0  0  0  0  0  0  0
   13.6890    4.9110   15.0340 O   0  0  0  0  0  0  0  0  0  0  0  0
   13.7440    4.8480   12.6630 C   0  0  0  0  0  0  0  0  0  0  0  0
   15.6954    4.5877   15.9809 H   0  0  0  0  0  0  0  0  0  0  0  0
   16.9617    3.5521   15.2389 H   0  0  0  0  0  0  0  0  0  0  0  0
   17.1487    5.3386   15.2389 H   0  0  0  0  0  0  0  0  0  0  0  0
   11.9848    5.1030   13.6477 H   0  0  0  0  0  0  0  0  0  0  0  0
   12.1594    5.9852   12.0928 H   0  0  0  0  0  0  0  0  0  0  0  0
   11.9017    4.2075   12.0928 H   0  0  0  0  0  0  0  0  0  0  0  0
   18.2366    4.1941   13.7003 H   0  0  0  0  0  0  0  0  0  0  0  0
   14.9487    6.9324   11.1167 H   0  0  0  0  0  0  0  0  0  0  0  0
   12.7626    4.6612   10.3953 H   0  0  0  0  0  0  0  0  0  0  0  0
   14.2360    3.9647    9.6158 H   0  0  0  0  0  0  0  0  0  0  0  0
   14.1439    4.8268   15.9093 H   0  0  0  0  0  0  0  0  0  0  0  0
  6  7  2  0
  7  5  1  0
  7  8  1  0
  8  4  1  0
  4  9  2  0
  4 14  1  0
  9 10  1  0
  2 14  1  0
 14 12  2  0
 10  3  1  0
 10 11  2  0
 12 11  1  0
 12 13  1  0
 11  1  1  0
  1 15  1  0
  1 16  1  0
  1 17  1  0
  2 18  1  0
  2 19  1  0
  2 20  1  0
  3 21  1  0
  5 22  1  0
  8 23  1  0
  8 24  1  0
 13 25  1  0
A    1
CAA
A    2
CAB
A    3
OAE
A    4
CAM
A    5
OAD
A    6
OAC
A    7
CAI
A    8
CAG
A    9
NAH
A   10
CAL
A   11
CAJ
A   12
CAN
A   13
OAF
A   14
CAK
M  END
