5D69_57T_A_305
     RDKit          3D

 38 39  0  0  0  0  0  0  0  0999 V2000
   17.6560  -11.2990   26.7180 C   0  0  0  0  0  0  0  0  0  0  0  0
   19.0100  -11.4800   26.6400 C   0  0  0  0  0  0  0  0  0  0  0  0
   19.5960  -12.6460   27.0960 C   0  0  0  0  0  0  0  0  0  0  0  0
   21.6840  -12.8440   26.9150 I   0  0  0  0  0  0  0  0  0  0  0  0
   18.7880  -13.6560   27.6480 C   0  0  0  0  0  0  0  0  0  0  0  0
   17.3980  -13.4700   27.7260 C   0  0  0  0  0  0  0  0  0  0  0  0
   16.8460  -12.2640   27.2770 C   0  0  0  0  0  0  0  0  0  0  0  0
   15.4890  -11.9790   27.2600 C   0  0  0  0  0  0  0  0  0  0  0  0
   14.6290  -12.6670   26.2040 C   0  0  0  0  0  0  0  0  0  0  0  0
   15.2880  -13.7420   25.3380 C   0  0  0  0  0  0  0  0  0  0  0  0
   14.6290  -14.3720   24.4830 O   0  0  0  0  0  0  0  0  0  0  0  0
   16.5010  -13.9890   25.5030 O   0  0  0  0  0  0  0  0  0  0  0  0
   12.9320  -12.2590   25.9970 S   0  0  0  0  0  0  0  0  0  0  0  0
   13.0250  -11.1640   24.2730 S   0  0  0  0  0  0  0  0  0  0  0  0
   11.7470  -11.8060   23.2620 C   0  0  0  0  0  0  0  0  0  0  0  0
   10.5060  -12.3880   23.9400 C   0  0  0  0  0  0  0  0  0  0  0  0
   10.4240  -12.3970   25.1890 O   0  0  0  0  0  0  0  0  0  0  0  0
    9.5770  -12.8570   23.2450 O   0  0  0  0  0  0  0  0  0  0  0  0
   11.8130  -11.7670   21.7150 C   0  0  0  0  0  0  0  0  0  0  0  0
   12.9240  -11.2850   20.9950 C   0  0  0  0  0  0  0  0  0  0  0  0
   13.2540  -11.8970   19.7810 C   0  0  0  0  0  0  0  0  0  0  0  0
   14.3450  -11.4600   19.0360 C   0  0  0  0  0  0  0  0  0  0  0  0
   15.1290  -10.4100   19.5020 C   0  0  0  0  0  0  0  0  0  0  0  0
   16.8280   -9.7740   18.3950 I   0  0  0  0  0  0  0  0  0  0  0  0
   14.7950   -9.7940   20.7190 C   0  0  0  0  0  0  0  0  0  0  0  0
   13.6930  -10.2260   21.4560 C   0  0  0  0  0  0  0  0  0  0  0  0
   17.2085  -10.3721   26.3299 H   0  0  0  0  0  0  0  0  0  0  0  0
   19.6400  -10.6879   26.2091 H   0  0  0  0  0  0  0  0  0  0  0  0
   19.2425  -14.5873   28.0170 H   0  0  0  0  0  0  0  0  0  0  0  0
   16.7518  -14.2610   28.1343 H   0  0  0  0  0  0  0  0  0  0  0  0
   15.0468  -11.2794   27.9846 H   0  0  0  0  0  0  0  0  0  0  0  0
   16.8708  -14.0643   26.4182 H   0  0  0  0  0  0  0  0  0  0  0  0
   11.2420  -12.3072   25.7394 H   0  0  0  0  0  0  0  0  0  0  0  0
   10.9456  -12.1356   21.1478 H   0  0  0  0  0  0  0  0  0  0  0  0
   12.6436  -12.7339   19.4109 H   0  0  0  0  0  0  0  0  0  0  0  0
   14.5873  -11.9448   18.0788 H   0  0  0  0  0  0  0  0  0  0  0  0
   15.4090   -8.9622   21.0947 H   0  0  0  0  0  0  0  0  0  0  0  0
   13.4336   -9.7279   22.4018 H   0  0  0  0  0  0  0  0  0  0  0  0
 24 23  1  0
 22 23  1  0
 22 21  2  0
 23 25  2  0
 21 20  1  0
 25 26  1  0
 20 26  2  0
 20 19  1  0
 19 15  2  0
 18 16  2  0
 15 16  1  0
 15 14  1  0
 16 17  1  0
 14 13  1  0
 11 10  2  0
 10 12  1  0
 10  9  1  0
 13  9  1  0
  9  8  2  0
  2  1  2  0
  2  3  1  0
  1  7  1  0
  4  3  1  0
  3  5  2  0
  8  7  1  0
  7  6  2  0
  5  6  1  0
  1 27  1  0
  2 28  1  0
  5 29  1  0
  6 30  1  0
  8 31  1  0
 12 32  1  0
 17 33  1  0
 19 34  1  0
 21 35  1  0
 22 36  1  0
 25 37  1  0
 26 38  1  0
A    1
CAD
A    2
CAC
A    3
CAB
A    4
IAT
A    5
CAA
A    6
CAF
A    7
CAE
A    8
CAG
A    9
CAH
A   10
CAI
A   11
OAR
A   12
OAQ
A   13
SAJ
A   14
SAK
A   15
CAL
A   16
CAN
A   17
OAP
A   18
OAO
A   19
CAM
A   20
CAS
A   21
CAU
A   22
CAV
A   23
CAW
A   24
IAZ
A   25
CAX
A   26
CAY
M  END
