5D6Q_57V_B_303
     RDKit          3D

 41 43  0  0  0  0  0  0  0  0999 V2000
  -15.5230  -16.2070  -30.2150 O   0  0  0  0  0  0  0  0  0  0  0  0
  -19.3630  -16.3090  -31.2610 C   0  0  0  0  0  0  0  0  0  0  0  0
   -9.4040  -21.4410  -32.8900 C   0  0  0  0  0  0  0  0  0  0  0  0
  -10.6390  -20.5610  -32.5860 C   0  0  0  0  0  0  0  0  0  0  0  0
  -10.4050  -19.4550  -31.8630 C   0  0  0  0  0  0  0  0  0  0  0  0
  -11.5170  -18.5640  -31.4360 C   0  0  0  0  0  0  0  0  0  0  0  0
  -13.6470  -17.7300  -31.4340 C   0  0  0  0  0  0  0  0  0  0  0  0
  -15.8210  -16.8210  -31.2300 C   0  0  0  0  0  0  0  0  0  0  0  0
  -17.9720  -15.6220  -31.3870 C   0  0  0  0  0  0  0  0  0  0  0  0
  -16.9330  -16.6010  -31.8450 N   0  0  0  0  0  0  0  0  0  0  0  0
   -8.0760  -20.9890  -32.7320 C   0  0  0  0  0  0  0  0  0  0  0  0
   -7.0430  -21.9180  -32.9890 C   0  0  0  0  0  0  0  0  0  0  0  0
  -10.1730  -17.2360  -29.5800 C   0  0  0  0  0  0  0  0  0  0  0  0
  -14.9560  -17.6600  -31.8730 N   0  0  0  0  0  0  0  0  0  0  0  0
  -11.3620  -17.5300  -30.3910 C   0  0  0  0  0  0  0  0  0  0  0  0
   -9.6510  -22.7410  -33.2760 C   0  0  0  0  0  0  0  0  0  0  0  0
   -7.4140  -23.1880  -33.4090 C   0  0  0  0  0  0  0  0  0  0  0  0
  -12.9330  -16.7850  -30.1970 S   0  0  0  0  0  0  0  0  0  0  0  0
   -9.9260  -16.0040  -29.1150 N   0  0  0  0  0  0  0  0  0  0  0  0
   -8.7600  -16.0950  -28.3990 C   0  0  0  0  0  0  0  0  0  0  0  0
   -8.3370  -17.3890  -28.3790 C   0  0  0  0  0  0  0  0  0  0  0  0
   -9.2620  -18.1460  -29.0690 C   0  0  0  0  0  0  0  0  0  0  0  0
  -12.8140  -18.6680  -32.0040 N   0  0  0  0  0  0  0  0  0  0  0  0
   -8.6800  -23.5720  -33.5770 N   0  0  0  0  0  0  0  0  0  0  0  0
  -19.6154  -16.4337  -30.1976 H   0  0  0  0  0  0  0  0  0  0  0  0
  -20.1260  -15.6841  -31.7482 H   0  0  0  0  0  0  0  0  0  0  0  0
  -19.3306  -17.2947  -31.7482 H   0  0  0  0  0  0  0  0  0  0  0  0
  -11.6463  -20.8252  -32.9403 H   0  0  0  0  0  0  0  0  0  0  0  0
   -9.3721  -19.2027  -31.5810 H   0  0  0  0  0  0  0  0  0  0  0  0
  -17.6793  -15.2181  -30.4066 H   0  0  0  0  0  0  0  0  0  0  0  0
  -18.0448  -14.8130  -32.1288 H   0  0  0  0  0  0  0  0  0  0  0  0
  -17.1195  -17.1327  -32.7072 H   0  0  0  0  0  0  0  0  0  0  0  0
   -7.8548  -19.9571  -32.4219 H   0  0  0  0  0  0  0  0  0  0  0  0
   -5.9850  -21.6453  -32.8611 H   0  0  0  0  0  0  0  0  0  0  0  0
  -15.2731  -18.2300  -32.6702 H   0  0  0  0  0  0  0  0  0  0  0  0
  -10.6918  -23.0924  -33.3335 H   0  0  0  0  0  0  0  0  0  0  0  0
   -6.6185  -23.9192  -33.6150 H   0  0  0  0  0  0  0  0  0  0  0  0
  -10.4964  -15.1596  -29.2649 H   0  0  0  0  0  0  0  0  0  0  0  0
   -8.2454  -15.2518  -27.9150 H   0  0  0  0  0  0  0  0  0  0  0  0
   -7.4213  -17.7642  -27.8986 H   0  0  0  0  0  0  0  0  0  0  0  0
   -9.2734  -19.2395  -29.1879 H   0  0  0  0  0  0  0  0  0  0  0  0
 24 17  2  0
 24 16  1  0
 17 12  1  0
 16  3  2  0
 12 11  2  0
  3 11  1  0
  3  4  1  0
  4  5  2  0
 23  6  1  0
 23  7  2  0
 14  7  1  0
 14  8  1  0
  5  6  1  0
 10  9  1  0
 10  8  1  0
  6 15  2  0
  7 18  1  0
  9  2  1  0
  8  1  2  0
 15 18  1  0
 15 13  1  0
 13 19  1  0
 13 22  2  0
 19 20  1  0
 22 21  1  0
 20 21  2  0
  2 25  1  0
  2 26  1  0
  2 27  1  0
  4 28  1  0
  5 29  1  0
  9 30  1  0
  9 31  1  0
 10 32  1  0
 11 33  1  0
 12 34  1  0
 14 35  1  0
 16 36  1  0
 17 37  1  0
 19 38  1  0
 20 39  1  0
 21 40  1  0
 22 41  1  0
A    1
O
A    2
C1
A    3
C8
A    4
C7
A    5
C6
A    6
C5
A    7
C4
A    8
C3
A    9
C2
A   10
N1
A   11
C9
A   12
C10
A   13
C14
A   14
N2
A   15
C13
A   16
C12
A   17
C11
A   18
S
A   19
N5
A   20
C17
A   21
C16
A   22
C15
A   23
N3
A   24
N4
M  END
