4I5I_4I5_A_601
     RDKit          3D

 33 35  0  0  0  0  0  0  0  0999 V2000
   43.4360  -18.1020   20.3290 C   0  0  0  0  0  0  0  0  0  0  0  0
   41.3800  -25.4960   17.2130 N   0  0  0  0  0  0  0  0  0  0  0  0
   40.4510  -23.5980   17.9670 O   0  0  0  0  0  0  0  0  0  0  0  0
   43.5880  -16.3910   20.4250 Cl  0  0  0  0  0  0  0  0  0  0  0  0
   43.4170  -18.8450   21.5100 C   0  0  0  0  0  0  0  0  0  0  0  0
   43.0960  -22.1750   19.8940 N   0  0  0  0  0  0  0  0  0  0  0  0
   43.2940  -20.2390   21.4720 C   0  0  0  0  0  0  0  0  0  0  0  0
   43.2140  -20.8490   20.2140 C   0  0  0  0  0  0  0  0  0  0  0  0
   43.2270  -20.1370   19.0090 C   0  0  0  0  0  0  0  0  0  0  0  0
   43.3410  -18.7260   19.0740 C   0  0  0  0  0  0  0  0  0  0  0  0
   43.1140  -21.0920   17.9420 C   0  0  0  0  0  0  0  0  0  0  0  0
   43.0250  -22.3480   18.5370 C   0  0  0  0  0  0  0  0  0  0  0  0
   42.9150  -23.7320   17.9710 C   0  0  0  0  0  0  0  0  0  0  0  0
   43.8310  -23.9620   16.7540 C   0  0  0  0  0  0  0  0  0  0  0  0
   43.5250  -23.1160   15.5060 C   0  0  0  0  0  0  0  0  0  0  0  0
   43.9590  -21.6480   15.5800 C   0  0  0  0  0  0  0  0  0  0  0  0
   43.0780  -20.7710   16.4740 C   0  0  0  0  0  0  0  0  0  0  0  0
   41.4760  -24.2310   17.7270 C   0  0  0  0  0  0  0  0  0  0  0  0
   41.3185  -26.3059   17.8463 H   0  0  0  0  0  0  0  0  0  0  0  0
   41.3692  -25.6379   16.1929 H   0  0  0  0  0  0  0  0  0  0  0  0
   43.4994  -18.3310   22.4790 H   0  0  0  0  0  0  0  0  0  0  0  0
   43.0648  -22.9407   20.5822 H   0  0  0  0  0  0  0  0  0  0  0  0
   43.2614  -20.8337   22.3968 H   0  0  0  0  0  0  0  0  0  0  0  0
   43.3549  -18.1261   18.1521 H   0  0  0  0  0  0  0  0  0  0  0  0
   43.2916  -24.3722   18.7824 H   0  0  0  0  0  0  0  0  0  0  0  0
   44.8632  -23.7420   17.0641 H   0  0  0  0  0  0  0  0  0  0  0  0
   43.6628  -25.0061   16.4512 H   0  0  0  0  0  0  0  0  0  0  0  0
   44.0379  -23.5780   14.6495 H   0  0  0  0  0  0  0  0  0  0  0  0
   42.4291  -23.1020   15.4125 H   0  0  0  0  0  0  0  0  0  0  0  0
   44.9871  -21.6126   15.9696 H   0  0  0  0  0  0  0  0  0  0  0  0
   43.8719  -21.2437   14.5607 H   0  0  0  0  0  0  0  0  0  0  0  0
   42.0382  -20.8758   16.1307 H   0  0  0  0  0  0  0  0  0  0  0  0
   43.4784  -19.7507   16.3806 H   0  0  0  0  0  0  0  0  0  0  0  0
  1  4  1  0
  1  5  2  0
  1 10  1  0
  2 18  1  0
  3 18  2  0
  5  7  1  0
  6  8  1  0
  6 12  1  0
  7  8  2  0
  8  9  1  0
  9 10  2  0
  9 11  1  0
 11 12  2  0
 11 17  1  0
 12 13  1  0
 13 14  1  0
 13 18  1  0
 14 15  1  0
 15 16  1  0
 16 17  1  0
  2 19  1  0
  2 20  1  0
  5 21  1  0
  6 22  1  0
  7 23  1  0
 10 24  1  0
 13 25  1  0
 14 26  1  0
 14 27  1  0
 15 28  1  0
 15 29  1  0
 16 30  1  0
 16 31  1  0
 17 32  1  0
 17 33  1  0
A    1
C1
A    2
N1
A    3
O1
A    4
CL1
A    5
C2
A    6
N2
A    7
C3
A    8
C4
A    9
C5
A   10
C6
A   11
C7
A   12
C8
A   13
C9
A   14
C10
A   15
C11
A   16
C12
A   17
C13
A   18
C14
M  END
