5D9F_58G_A_301
     RDKit          3D

 40 42  0  0  0  0  0  0  0  0999 V2000
  -18.2440   45.3160  -12.7210 C   0  0  0  0  0  0  0  0  0  0  0  0
  -17.3140   44.6520  -11.9650 C   0  0  0  0  0  0  0  0  0  0  0  0
  -19.1120   44.6190  -13.5260 C   0  0  0  0  0  0  0  0  0  0  0  0
  -19.8870   42.3280   -7.0890 C   0  0  0  0  0  0  0  0  0  0  0  0
  -17.2520   43.2820  -12.0190 C   0  0  0  0  0  0  0  0  0  0  0  0
  -19.0460   43.2490  -13.5720 C   0  0  0  0  0  0  0  0  0  0  0  0
  -18.8280   41.9730   -7.8830 C   0  0  0  0  0  0  0  0  0  0  0  0
  -21.1810   40.8050   -8.3440 C   0  0  0  0  0  0  0  0  0  0  0  0
  -21.0900   41.7260   -7.3320 C   0  0  0  0  0  0  0  0  0  0  0  0
  -18.1150   42.5810  -12.8180 C   0  0  0  0  0  0  0  0  0  0  0  0
  -18.9880   41.0430   -8.8830 C   0  0  0  0  0  0  0  0  0  0  0  0
  -22.2550   42.0770   -6.5140 C   0  0  0  0  0  0  0  0  0  0  0  0
  -16.6420   40.7070  -12.5310 C   0  0  0  0  0  0  0  0  0  0  0  0
  -16.7300   39.7000  -11.4190 C   0  0  0  0  0  0  0  0  0  0  0  0
  -18.9350   40.5780  -11.7710 C   0  0  0  0  0  0  0  0  0  0  0  0
  -18.0450   41.1070  -12.8620 C   0  0  0  0  0  0  0  0  0  0  0  0
  -18.0630   39.8940  -10.7520 C   0  0  0  0  0  0  0  0  0  0  0  0
  -20.1580   40.4510   -9.1230 N   0  0  0  0  0  0  0  0  0  0  0  0
  -22.0900   43.2250   -5.7970 N   0  0  0  0  0  0  0  0  0  0  0  0
  -17.8370   40.7640   -9.6260 N   0  0  0  0  0  0  0  0  0  0  0  0
  -23.2520   41.3840   -6.5150 O   0  0  0  0  0  0  0  0  0  0  0  0
  -18.2959   46.4141  -12.6831 H   0  0  0  0  0  0  0  0  0  0  0  0
  -16.6221   45.2129  -11.3195 H   0  0  0  0  0  0  0  0  0  0  0  0
  -19.8568   45.1567  -14.1311 H   0  0  0  0  0  0  0  0  0  0  0  0
  -19.7732   43.0704   -6.2853 H   0  0  0  0  0  0  0  0  0  0  0  0
  -16.5048   42.7442  -11.4170 H   0  0  0  0  0  0  0  0  0  0  0  0
  -19.7400   42.6864  -14.2138 H   0  0  0  0  0  0  0  0  0  0  0  0
  -17.8433   42.4352   -7.7192 H   0  0  0  0  0  0  0  0  0  0  0  0
  -22.1565   40.3296   -8.5241 H   0  0  0  0  0  0  0  0  0  0  0  0
  -16.1582   40.2583  -13.4111 H   0  0  0  0  0  0  0  0  0  0  0  0
  -16.0434   41.5788  -12.2283 H   0  0  0  0  0  0  0  0  0  0  0  0
  -16.6565   38.6808  -11.8262 H   0  0  0  0  0  0  0  0  0  0  0  0
  -15.9087   39.8374  -10.7003 H   0  0  0  0  0  0  0  0  0  0  0  0
  -19.4807   41.4081  -11.2987 H   0  0  0  0  0  0  0  0  0  0  0  0
  -19.6680   39.8697  -12.1847 H   0  0  0  0  0  0  0  0  0  0  0  0
  -18.3466   40.7239  -13.8480 H   0  0  0  0  0  0  0  0  0  0  0  0
  -18.5306   38.9587  -10.4107 H   0  0  0  0  0  0  0  0  0  0  0  0
  -22.0944   43.1943   -4.7675 H   0  0  0  0  0  0  0  0  0  0  0  0
  -21.9609   44.1229   -6.2849 H   0  0  0  0  0  0  0  0  0  0  0  0
  -16.9103   41.1463   -9.3895 H   0  0  0  0  0  0  0  0  0  0  0  0
  6  3  1  0
  6 10  2  0
  3  1  2  0
 16 10  1  0
 16 13  1  0
 16 15  1  0
 10  5  1  0
  1  2  1  0
 13 14  1  0
  5  2  2  0
 15 17  1  0
 14 17  1  0
 17 20  1  0
 20 11  1  0
 18 11  2  0
 18  8  1  0
 11  7  1  0
  8  9  2  0
  7  4  2  0
  9  4  1  0
  9 12  1  0
 21 12  2  0
 12 19  1  0
  1 22  1  0
  2 23  1  0
  3 24  1  0
  4 25  1  0
  5 26  1  0
  6 27  1  0
  7 28  1  0
  8 29  1  0
 13 30  1  0
 13 31  1  0
 14 32  1  0
 14 33  1  0
 15 34  1  0
 15 35  1  0
 16 36  1  0
 17 37  1  0
 19 38  1  0
 19 39  1  0
 20 40  1  0
A    1
C17
A    2
C16
A    3
C18
A    4
C5
A    5
C15
A    6
C19
A    7
C6
A    8
C21
A    9
C4
A   10
C14
A   11
C7
A   12
C2
A   13
C11
A   14
C10
A   15
C13
A   16
C12
A   17
C9
A   18
N20
A   19
N1
A   20
N8
A   21
O3
M  END
