5D9K_584_A_401
     RDKit          3D

 51 53  0  0  0  0  0  0  0  0999 V2000
   -3.3840   14.3050   29.9230 C   0  0  0  0  0  0  0  0  0  0  0  0
   -4.9880   15.2660   28.5910 C   0  0  0  0  0  0  0  0  0  0  0  0
   -4.8700   16.4910   29.3100 C   0  0  0  0  0  0  0  0  0  0  0  0
   -7.4020   18.3950   27.6560 O   0  0  0  0  0  0  0  0  0  0  0  0
   -2.8970    8.3100   27.7560 O   0  0  0  0  0  0  0  0  0  0  0  0
   -9.0340   11.6080   26.8680 C   0  0  0  0  0  0  0  0  0  0  0  0
   -7.0450   11.6000   25.3660 C   0  0  0  0  0  0  0  0  0  0  0  0
   -5.9840   18.6060   29.9880 C   0  0  0  0  0  0  0  0  0  0  0  0
   -2.6040   11.9330   29.7140 C   0  0  0  0  0  0  0  0  0  0  0  0
   -3.8240   11.2630   29.6850 C   0  0  0  0  0  0  0  0  0  0  0  0
   -3.8830   10.0230   29.1070 C   0  0  0  0  0  0  0  0  0  0  0  0
   -2.7980    9.4260   28.5070 C   0  0  0  0  0  0  0  0  0  0  0  0
   -1.5900   10.0900   28.5830 C   0  0  0  0  0  0  0  0  0  0  0  0
   -1.4670   11.3250   29.1820 C   0  0  0  0  0  0  0  0  0  0  0  0
   -3.1520   15.4200   30.6280 N   0  0  0  0  0  0  0  0  0  0  0  0
   -4.2740   14.1740   28.9210 N   0  0  0  0  0  0  0  0  0  0  0  0
   -3.9000   16.4830   30.3050 C   0  0  0  0  0  0  0  0  0  0  0  0
   -2.5960   13.2370   30.2490 N   0  0  0  0  0  0  0  0  0  0  0  0
   -5.7690   15.2340   27.4440 N   0  0  0  0  0  0  0  0  0  0  0  0
   -6.0460   13.9620   26.7770 C   0  0  0  0  0  0  0  0  0  0  0  0
   -7.4640   13.4670   27.0280 C   0  0  0  0  0  0  0  0  0  0  0  0
   -7.5850   12.0020   26.7290 C   0  0  0  0  0  0  0  0  0  0  0  0
   -6.3370   16.4530   26.8350 C   0  0  0  0  0  0  0  0  0  0  0  0
   -6.5520   17.5420   27.8650 C   0  0  0  0  0  0  0  0  0  0  0  0
   -5.7870   17.5270   29.0160 N   0  0  0  0  0  0  0  0  0  0  0  0
   -5.4660   16.9920   25.7030 C   0  0  0  0  0  0  0  0  0  0  0  0
   -5.0240    9.3120   29.1820 F   0  0  0  0  0  0  0  0  0  0  0  0
   -0.5040    9.5090   28.0150 F   0  0  0  0  0  0  0  0  0  0  0  0
   -2.9755    7.4249   28.1926 H   0  0  0  0  0  0  0  0  0  0  0  0
   -9.2941   11.5373   27.9345 H   0  0  0  0  0  0  0  0  0  0  0  0
   -9.6681   12.3663   26.3855 H   0  0  0  0  0  0  0  0  0  0  0  0
   -9.1968   10.6330   26.3855 H   0  0  0  0  0  0  0  0  0  0  0  0
   -6.1689   10.9478   25.4965 H   0  0  0  0  0  0  0  0  0  0  0  0
   -7.8240   11.0602   24.8076 H   0  0  0  0  0  0  0  0  0  0  0  0
   -6.7514   12.5011   24.8076 H   0  0  0  0  0  0  0  0  0  0  0  0
   -5.9097   18.1993   31.0074 H   0  0  0  0  0  0  0  0  0  0  0  0
   -5.2115   19.3756   29.8431 H   0  0  0  0  0  0  0  0  0  0  0  0
   -6.9786   19.0530   29.8431 H   0  0  0  0  0  0  0  0  0  0  0  0
   -4.7248   11.7217   30.1188 H   0  0  0  0  0  0  0  0  0  0  0  0
   -0.4880   11.8232   29.2396 H   0  0  0  0  0  0  0  0  0  0  0  0
   -3.7350   17.4145   30.8664 H   0  0  0  0  0  0  0  0  0  0  0  0
   -1.8996   13.4089   30.9882 H   0  0  0  0  0  0  0  0  0  0  0  0
   -5.3380   13.2071   27.1496 H   0  0  0  0  0  0  0  0  0  0  0  0
   -5.9352   14.1219   25.6943 H   0  0  0  0  0  0  0  0  0  0  0  0
   -8.1587   14.0241   26.3822 H   0  0  0  0  0  0  0  0  0  0  0  0
   -7.7081   13.6287   28.0883 H   0  0  0  0  0  0  0  0  0  0  0  0
   -6.9568   11.4625   27.4531 H   0  0  0  0  0  0  0  0  0  0  0  0
   -7.3099   16.1581   26.4149 H   0  0  0  0  0  0  0  0  0  0  0  0
   -4.6029   17.5261   26.1270 H   0  0  0  0  0  0  0  0  0  0  0  0
   -5.1111   16.1554   25.0832 H   0  0  0  0  0  0  0  0  0  0  0  0
   -6.0564   17.6829   25.0832 H   0  0  0  0  0  0  0  0  0  0  0  0
  7 22  1  0
 26 23  1  0
 22  6  1  0
 22 21  1  0
 20 21  1  0
 20 19  1  0
 23 19  1  0
 23 24  1  0
 19  2  1  0
  4 24  2  0
  5 12  1  0
 24 25  1  0
 28 13  1  0
 12 13  2  0
 12 11  1  0
 13 14  1  0
  2 16  2  0
  2  3  1  0
 16  1  1  0
 25  3  1  0
 25  8  1  0
 11 27  1  0
 11 10  2  0
 14  9  2  0
  3 17  2  0
 10  9  1  0
  9 18  1  0
  1 18  1  0
  1 15  2  0
 17 15  1  0
  5 29  1  0
  6 30  1  0
  6 31  1  0
  6 32  1  0
  7 33  1  0
  7 34  1  0
  7 35  1  0
  8 36  1  0
  8 37  1  0
  8 38  1  0
 10 39  1  0
 14 40  1  0
 17 41  1  0
 18 42  1  0
 20 43  1  0
 20 44  1  0
 21 45  1  0
 21 46  1  0
 22 47  1  0
 23 48  1  0
 26 49  1  0
 26 50  1  0
 26 51  1  0
A    1
C1
A    2
C2
A    3
C3
A    4
O1
A    5
O2
A    6
C11
A    7
C12
A    8
C13
A    9
C14
A   10
C15
A   11
C16
A   12
C17
A   13
C18
A   14
C19
A   15
N1
A   16
N2
A   17
C4
A   18
N3
A   19
N4
A   20
C5
A   21
C6
A   22
C7
A   23
C8
A   24
C9
A   25
N5
A   26
C10
A   27
F1
A   28
F2
M  END
