5DAQ_58D_A_403
     RDKit          3D

 41 43  0  0  0  0  0  0  0  0999 V2000
  -24.9890  -20.1380   -3.3100 C   0  0  0  0  0  0  0  0  0  0  0  0
  -24.9630  -22.5810   -3.7480 C   0  0  0  0  0  0  0  0  0  0  0  0
  -24.8970  -24.0050   -3.1160 C   0  0  0  0  0  0  0  0  0  0  0  0
  -24.8030  -25.2210   -1.0990 C   0  0  0  0  0  0  0  0  0  0  0  0
  -23.1290  -23.3850    0.1130 C   0  0  0  0  0  0  0  0  0  0  0  0
  -25.6620  -22.5260   -4.9760 C   0  0  0  0  0  0  0  0  0  0  0  0
  -22.4880  -19.4040   -6.6010 C   0  0  0  0  0  0  0  0  0  0  0  0
  -22.5980  -23.7440    2.8960 C   0  0  0  0  0  0  0  0  0  0  0  0
  -23.1680  -24.8000    2.1150 O   0  0  0  0  0  0  0  0  0  0  0  0
  -23.5410  -24.5210    0.8270 C   0  0  0  0  0  0  0  0  0  0  0  0
  -24.3800  -25.4350    0.2070 C   0  0  0  0  0  0  0  0  0  0  0  0
  -23.5550  -23.1740   -1.2070 C   0  0  0  0  0  0  0  0  0  0  0  0
  -24.4200  -24.0880   -1.8190 C   0  0  0  0  0  0  0  0  0  0  0  0
  -26.5480  -23.3370   -5.2520 O   0  0  0  0  0  0  0  0  0  0  0  0
  -25.3550  -21.5310   -5.9140 N   0  0  0  0  0  0  0  0  0  0  0  0
  -24.3650  -20.5710   -5.6610 C   0  0  0  0  0  0  0  0  0  0  0  0
  -23.5200  -20.3300   -6.7410 C   0  0  0  0  0  0  0  0  0  0  0  0
  -22.2970  -18.7460   -5.3860 C   0  0  0  0  0  0  0  0  0  0  0  0
  -23.1420  -19.0000   -4.3020 C   0  0  0  0  0  0  0  0  0  0  0  0
  -24.1780  -19.9240   -4.4380 C   0  0  0  0  0  0  0  0  0  0  0  0
  -25.3870  -19.1630   -2.6690 O   0  0  0  0  0  0  0  0  0  0  0  0
  -25.4110  -21.3830   -2.9550 N   0  0  0  0  0  0  0  0  0  0  0  0
  -26.3490  -21.5670   -1.8120 C   0  0  0  0  0  0  0  0  0  0  0  0
  -23.8728  -22.4672   -3.8408 H   0  0  0  0  0  0  0  0  0  0  0  0
  -25.9154  -24.4207   -3.1239 H   0  0  0  0  0  0  0  0  0  0  0  0
  -24.1698  -24.5593   -3.7275 H   0  0  0  0  0  0  0  0  0  0  0  0
  -25.4571  -25.9641   -1.5784 H   0  0  0  0  0  0  0  0  0  0  0  0
  -22.4646  -22.6519    0.5938 H   0  0  0  0  0  0  0  0  0  0  0  0
  -21.8225  -19.1915   -7.4506 H   0  0  0  0  0  0  0  0  0  0  0  0
  -22.7207  -23.9714    3.9652 H   0  0  0  0  0  0  0  0  0  0  0  0
  -21.5273  -23.6513    2.6614 H   0  0  0  0  0  0  0  0  0  0  0  0
  -23.1080  -22.7980    2.6614 H   0  0  0  0  0  0  0  0  0  0  0  0
  -24.7115  -26.3319    0.7508 H   0  0  0  0  0  0  0  0  0  0  0  0
  -23.2087  -22.2893   -1.7614 H   0  0  0  0  0  0  0  0  0  0  0  0
  -25.8670  -21.5045   -6.8073 H   0  0  0  0  0  0  0  0  0  0  0  0
  -23.6650  -20.8634   -7.6920 H   0  0  0  0  0  0  0  0  0  0  0  0
  -21.4756  -18.0221   -5.2802 H   0  0  0  0  0  0  0  0  0  0  0  0
  -22.9909  -18.4745   -3.3475 H   0  0  0  0  0  0  0  0  0  0  0  0
  -25.7991  -21.4591   -0.8654 H   0  0  0  0  0  0  0  0  0  0  0  0
  -27.1431  -20.8075   -1.8634 H   0  0  0  0  0  0  0  0  0  0  0  0
  -26.7973  -22.5702   -1.8634 H   0  0  0  0  0  0  0  0  0  0  0  0
 17  7  2  0
 17 16  1  0
  7 18  1  0
 15 16  1  0
 15  6  1  0
 16 20  2  0
 18 19  2  0
 14  6  2  0
  6  2  1  0
 20 19  1  0
 20  1  1  0
  2  3  1  0
  2 22  1  0
  1 22  1  0
  1 21  2  0
  3 13  1  0
 22 23  1  0
 13 12  1  0
 13  4  2  0
 12  5  2  0
  4 11  1  0
  5 10  1  0
 11 10  2  0
 10  9  1  0
  9  8  1  0
  2 24  1  0
  3 25  1  0
  3 26  1  0
  4 27  1  0
  5 28  1  0
  7 29  1  0
  8 30  1  0
  8 31  1  0
  8 32  1  0
 11 33  1  0
 12 34  1  0
 15 35  1  0
 17 36  1  0
 18 37  1  0
 19 38  1  0
 23 39  1  0
 23 40  1  0
 23 41  1  0
A    1
C4
A    2
C7
A    3
C8
A    4
C10
A    5
C13
A    6
C15
A    7
C20
A    8
C22
A    9
O21
A   10
C12
A   11
C11
A   12
C14
A   13
C9
A   14
O16
A   15
N17
A   16
C18
A   17
C19
A   18
C1
A   19
C2
A   20
C3
A   21
O5
A   22
N6
A   23
C23
M  END
