5DAV_58J_A_402
     RDKit          3D

 39 41  0  0  0  0  0  0  0  0999 V2000
  -25.1110  -20.1460   -3.2650 C   0  0  0  0  0  0  0  0  0  0  0  0
  -25.3390  -22.4320   -3.6220 C   0  0  0  0  0  0  0  0  0  0  0  0
  -24.7750  -23.5600   -3.1360 C   0  0  0  0  0  0  0  0  0  0  0  0
  -24.1000  -25.0480   -1.2670 C   0  0  0  0  0  0  0  0  0  0  0  0
  -22.9690  -23.0230    0.1030 C   0  0  0  0  0  0  0  0  0  0  0  0
  -25.8790  -22.4700   -4.9850 C   0  0  0  0  0  0  0  0  0  0  0  0
  -22.9860  -19.2900   -6.7990 C   0  0  0  0  0  0  0  0  0  0  0  0
  -22.2230  -23.5070    2.8130 C   0  0  0  0  0  0  0  0  0  0  0  0
  -26.4330  -23.4630   -5.2990 O   0  0  0  0  0  0  0  0  0  0  0  0
  -25.7400  -21.4420   -5.8070 N   0  0  0  0  0  0  0  0  0  0  0  0
  -24.7300  -20.5430   -5.7290 C   0  0  0  0  0  0  0  0  0  0  0  0
  -24.3820  -19.9170   -4.5500 C   0  0  0  0  0  0  0  0  0  0  0  0
  -24.0100  -20.2130   -6.8590 C   0  0  0  0  0  0  0  0  0  0  0  0
  -22.6440  -18.6820   -5.6250 C   0  0  0  0  0  0  0  0  0  0  0  0
  -23.3750  -18.9990   -4.5170 C   0  0  0  0  0  0  0  0  0  0  0  0
  -25.5140  -21.3460   -2.8840 N   0  0  0  0  0  0  0  0  0  0  0  0
  -26.2420  -21.4890   -1.6740 C   0  0  0  0  0  0  0  0  0  0  0  0
  -25.3320  -19.1450   -2.6520 O   0  0  0  0  0  0  0  0  0  0  0  0
  -24.1500  -23.7820   -1.8160 C   0  0  0  0  0  0  0  0  0  0  0  0
  -23.5490  -22.7750   -1.1320 C   0  0  0  0  0  0  0  0  0  0  0  0
  -22.9640  -24.2830    0.6630 C   0  0  0  0  0  0  0  0  0  0  0  0
  -22.3790  -24.5210    1.8600 O   0  0  0  0  0  0  0  0  0  0  0  0
  -23.5430  -25.2970   -0.0280 C   0  0  0  0  0  0  0  0  0  0  0  0
  -24.7823  -24.4272   -3.8127 H   0  0  0  0  0  0  0  0  0  0  0  0
  -24.5194  -25.8896   -1.8378 H   0  0  0  0  0  0  0  0  0  0  0  0
  -22.5003  -22.1921    0.6506 H   0  0  0  0  0  0  0  0  0  0  0  0
  -22.4334  -19.0386   -7.7163 H   0  0  0  0  0  0  0  0  0  0  0  0
  -22.2895  -23.9391    3.8224 H   0  0  0  0  0  0  0  0  0  0  0  0
  -21.2408  -23.0292    2.6826 H   0  0  0  0  0  0  0  0  0  0  0  0
  -23.0162  -22.7561    2.6826 H   0  0  0  0  0  0  0  0  0  0  0  0
  -26.4420  -21.3183   -6.5505 H   0  0  0  0  0  0  0  0  0  0  0  0
  -24.2552  -20.6913   -7.8188 H   0  0  0  0  0  0  0  0  0  0  0  0
  -21.8117  -17.9646   -5.5744 H   0  0  0  0  0  0  0  0  0  0  0  0
  -23.1439  -18.4971   -3.5659 H   0  0  0  0  0  0  0  0  0  0  0  0
  -25.5625  -21.3555   -0.8193 H   0  0  0  0  0  0  0  0  0  0  0  0
  -27.0370  -20.7298   -1.6325 H   0  0  0  0  0  0  0  0  0  0  0  0
  -26.6907  -22.4925   -1.6325 H   0  0  0  0  0  0  0  0  0  0  0  0
  -23.5221  -21.7612   -1.5579 H   0  0  0  0  0  0  0  0  0  0  0  0
  -23.5686  -26.3116    0.3962 H   0  0  0  0  0  0  0  0  0  0  0  0
 13  7  2  0
 13 11  1  0
  7 14  1  0
 10 11  1  0
 10  6  1  0
 11 12  2  0
 14 15  2  0
  9  6  2  0
  6  2  1  0
 12 15  1  0
 12  1  1  0
  2  3  2  0
  2 16  1  0
  1 16  1  0
  1 18  2  0
  3 19  1  0
 16 17  1  0
 19  4  2  0
 19 20  1  0
  4 23  1  0
 20  5  2  0
 23 21  2  0
  5 21  1  0
 21 22  1  0
 22  8  1  0
  3 24  1  0
  4 25  1  0
  5 26  1  0
  7 27  1  0
  8 28  1  0
  8 29  1  0
  8 30  1  0
 10 31  1  0
 13 32  1  0
 14 33  1  0
 15 34  1  0
 17 35  1  0
 17 36  1  0
 17 37  1  0
 20 38  1  0
 23 39  1  0
A    1
C4
A    2
C7
A    3
C8
A    4
C10
A    5
C13
A    6
C15
A    7
C20
A    8
C22
A    9
O16
A   10
N17
A   11
C18
A   12
C3
A   13
C19
A   14
C1
A   15
C2
A   16
N6
A   17
C23
A   18
O5
A   19
C9
A   20
C14
A   21
C12
A   22
O21
A   23
C11
M  END
