5DB2_58R_A_601
     RDKit          3D

 61 65  0  0  0  0  0  0  0  0999 V2000
   13.4760    7.7840   12.5450 C   0  0  0  0  0  0  0  0  0  0  0  0
   13.7350    9.1350   12.4360 C   0  0  0  0  0  0  0  0  0  0  0  0
   12.6890    9.9450   12.0100 C   0  0  0  0  0  0  0  0  0  0  0  0
   11.4490    9.4460   11.7320 N   0  0  0  0  0  0  0  0  0  0  0  0
   12.2690    7.2440   12.3040 N   0  0  0  0  0  0  0  0  0  0  0  0
   19.3390    7.7690   12.4220 F   0  0  0  0  0  0  0  0  0  0  0  0
   18.0620    7.7100   12.1470 C   0  0  0  0  0  0  0  0  0  0  0  0
   17.7150    6.4670   11.8600 F   0  0  0  0  0  0  0  0  0  0  0  0
   17.8350    8.3960   11.0710 F   0  0  0  0  0  0  0  0  0  0  0  0
   17.2850    8.2120   13.3780 C   0  0  0  0  0  0  0  0  0  0  0  0
   15.7990    8.2310   13.0270 C   0  0  0  0  0  0  0  0  0  0  0  0
   14.7930    6.8820   13.0300 S   0  0  0  0  0  0  0  0  0  0  0  0
   15.0680    9.3630   12.6860 C   0  0  0  0  0  0  0  0  0  0  0  0
   11.2700    8.0880   11.9020 C   0  0  0  0  0  0  0  0  0  0  0  0
   12.8550   11.3020   11.9140 N   0  0  0  0  0  0  0  0  0  0  0  0
   11.8030   12.2740   11.5800 C   0  0  0  0  0  0  0  0  0  0  0  0
   11.8940   13.4460   12.5560 C   0  0  0  0  0  0  0  0  0  0  0  0
   10.8870   14.5270   12.2910 C   0  0  0  0  0  0  0  0  0  0  0  0
   11.9830   12.8150   10.2120 C   0  0  0  0  0  0  0  0  0  0  0  0
   10.9260   13.8840    9.9810 C   0  0  0  0  0  0  0  0  0  0  0  0
   11.1110   15.0480   10.9120 N   0  0  0  0  0  0  0  0  0  0  0  0
   10.0820   16.0880   10.5890 C   0  0  0  0  0  0  0  0  0  0  0  0
   10.1890   17.2990   11.4100 C   0  0  0  0  0  0  0  0  0  0  0  0
    9.0050   17.8200   11.9810 C   0  0  0  0  0  0  0  0  0  0  0  0
   11.3960   18.0030   11.5850 C   0  0  0  0  0  0  0  0  0  0  0  0
   11.4180   19.1780   12.3820 C   0  0  0  0  0  0  0  0  0  0  0  0
   10.2400   19.6710   12.8620 C   0  0  0  0  0  0  0  0  0  0  0  0
    9.0820   18.9830   12.6920 C   0  0  0  0  0  0  0  0  0  0  0  0
    8.0890   19.7150   13.3250 C   0  0  0  0  0  0  0  0  0  0  0  0
    8.6810   20.7900   13.8550 C   0  0  0  0  0  0  0  0  0  0  0  0
    8.0900   21.9010   14.6470 C   0  0  0  0  0  0  0  0  0  0  0  0
    7.6670   22.7120   15.2100 N   0  0  0  0  0  0  0  0  0  0  0  0
   10.0090   20.8010   13.6170 N   0  0  0  0  0  0  0  0  0  0  0  0
   11.0460   21.7990   14.0500 C   0  0  0  0  0  0  0  0  0  0  0  0
   11.1700   22.8940   13.0200 C   0  0  0  0  0  0  0  0  0  0  0  0
   10.1690   23.3460   12.4500 O   0  0  0  0  0  0  0  0  0  0  0  0
   12.4150   23.3790   12.8760 N   0  0  0  0  0  0  0  0  0  0  0  0
   17.4583    7.5368   14.2289 H   0  0  0  0  0  0  0  0  0  0  0  0
   17.6233    9.2210   13.6562 H   0  0  0  0  0  0  0  0  0  0  0  0
   15.5205   10.3635   12.6211 H   0  0  0  0  0  0  0  0  0  0  0  0
   10.2747    7.6632   11.7045 H   0  0  0  0  0  0  0  0  0  0  0  0
   13.7991   11.6737   12.0913 H   0  0  0  0  0  0  0  0  0  0  0  0
   10.8309   11.7629   11.6420 H   0  0  0  0  0  0  0  0  0  0  0  0
   11.7339   13.0635   13.5749 H   0  0  0  0  0  0  0  0  0  0  0  0
   12.8903   13.8948   12.4299 H   0  0  0  0  0  0  0  0  0  0  0  0
   11.0135   15.3402   13.0209 H   0  0  0  0  0  0  0  0  0  0  0  0
    9.8670   14.1256   12.3833 H   0  0  0  0  0  0  0  0  0  0  0  0
   11.8642   12.0082    9.4738 H   0  0  0  0  0  0  0  0  0  0  0  0
   12.9893   13.2457   10.1030 H   0  0  0  0  0  0  0  0  0  0  0  0
   10.9988   14.2408    8.9430 H   0  0  0  0  0  0  0  0  0  0  0  0
    9.9377   13.4408   10.1731 H   0  0  0  0  0  0  0  0  0  0  0  0
   10.1964   16.3733    9.5328 H   0  0  0  0  0  0  0  0  0  0  0  0
    9.0983   15.6430   10.7996 H   0  0  0  0  0  0  0  0  0  0  0  0
    8.0438   17.3001   11.8552 H   0  0  0  0  0  0  0  0  0  0  0  0
   12.3187   17.6439   11.1059 H   0  0  0  0  0  0  0  0  0  0  0  0
   12.3690   19.6823   12.6086 H   0  0  0  0  0  0  0  0  0  0  0  0
    7.0203   19.4603   13.3804 H   0  0  0  0  0  0  0  0  0  0  0  0
   12.0157   21.2918   14.1610 H   0  0  0  0  0  0  0  0  0  0  0  0
   10.7435   22.2400   15.0112 H   0  0  0  0  0  0  0  0  0  0  0  0
   12.9812   23.5996   13.7077 H   0  0  0  0  0  0  0  0  0  0  0  0
   12.8030   23.5302   11.9339 H   0  0  0  0  0  0  0  0  0  0  0  0
 20 19  1  0
 20 21  1  0
 19 16  1  0
 22 21  1  0
 22 23  1  0
 21 18  1  0
  9  7  1  0
 23 25  1  0
 23 24  2  0
 16 15  1  0
 16 17  1  0
 25 26  2  0
  4 14  2  0
  4  3  1  0
  8  7  1  0
 14  5  1  0
 15  3  1  0
 24 28  1  0
  3  2  2  0
  7  6  1  0
  7 10  1  0
 18 17  1  0
  5  1  2  0
 26 27  1  0
  2  1  1  0
  2 13  1  0
 36 35  2  0
  1 12  1  0
 13 11  2  0
 28 27  2  0
 28 29  1  0
 27 33  1  0
 37 35  1  0
 35 34  1  0
 11 12  1  0
 11 10  1  0
 29 30  2  0
 33 30  1  0
 33 34  1  0
 30 31  1  0
 31 32  3  0
 10 38  1  0
 10 39  1  0
 13 40  1  0
 14 41  1  0
 15 42  1  0
 16 43  1  0
 17 44  1  0
 17 45  1  0
 18 46  1  0
 18 47  1  0
 19 48  1  0
 19 49  1  0
 20 50  1  0
 20 51  1  0
 22 52  1  0
 22 53  1  0
 24 54  1  0
 25 55  1  0
 26 56  1  0
 29 57  1  0
 34 58  1  0
 34 59  1  0
 37 60  1  0
 37 61  1  0
A    1
C4
A    2
C5
A    3
C6
A    4
N1
A    5
N3
A    6
FAD
A    7
CBK
A    8
FAE
A    9
FAF
A   10
CAT
A   11
CBA
A   12
SAX
A   13
CAM
A   14
C2
A   15
NAW
A   16
CBH
A   17
CAO
A   18
CAQ
A   19
CAN
A   20
CAP
A   21
NBI
A   22
CAS
A   23
CAZ
A   24
CAK
A   25
CAI
A   26
CAJ
A   27
CBG
A   28
CBD
A   29
CAL
A   30
CBB
A   31
CAG
A   32
NAA
A   33
N
A   34
CA
A   35
C
A   36
O
A   37
NAB
M  END
