5DB3_58Q_A_610
     RDKit          3D

 71 76  0  0  0  0  0  0  0  0999 V2000
   13.3110    7.7050   12.6690 C   0  0  0  0  0  0  0  0  0  0  0  0
   13.6250    9.0580   12.5340 C   0  0  0  0  0  0  0  0  0  0  0  0
   12.5940    9.9200   12.0920 C   0  0  0  0  0  0  0  0  0  0  0  0
   11.3660    9.4530   11.7800 N   0  0  0  0  0  0  0  0  0  0  0  0
   12.0630    7.2540   12.3890 N   0  0  0  0  0  0  0  0  0  0  0  0
   19.2530    7.7520   12.5990 F   0  0  0  0  0  0  0  0  0  0  0  0
   17.9960    7.8000   12.3360 C   0  0  0  0  0  0  0  0  0  0  0  0
   17.6360    6.5090   11.9820 F   0  0  0  0  0  0  0  0  0  0  0  0
   17.7770    8.4870   11.2680 F   0  0  0  0  0  0  0  0  0  0  0  0
   17.1860    8.2480   13.5880 C   0  0  0  0  0  0  0  0  0  0  0  0
   15.6750    8.2140   13.2340 C   0  0  0  0  0  0  0  0  0  0  0  0
   14.6500    6.8540   13.1990 S   0  0  0  0  0  0  0  0  0  0  0  0
   14.9180    9.2940   12.8500 C   0  0  0  0  0  0  0  0  0  0  0  0
   11.0680    8.0840   11.9410 C   0  0  0  0  0  0  0  0  0  0  0  0
   12.7980   11.2840   11.9600 N   0  0  0  0  0  0  0  0  0  0  0  0
   11.7320   12.2160   11.4920 C   0  0  0  0  0  0  0  0  0  0  0  0
   11.5640   13.3250   12.5450 C   0  0  0  0  0  0  0  0  0  0  0  0
   10.7090   14.4620   12.0890 C   0  0  0  0  0  0  0  0  0  0  0  0
   12.2860   12.8700   10.2470 C   0  0  0  0  0  0  0  0  0  0  0  0
   11.3690   14.0460    9.8600 C   0  0  0  0  0  0  0  0  0  0  0  0
   11.3770   15.0700   10.9100 N   0  0  0  0  0  0  0  0  0  0  0  0
   10.5140   16.1820   10.4220 C   0  0  0  0  0  0  0  0  0  0  0  0
   10.4610   17.3810   11.3140 C   0  0  0  0  0  0  0  0  0  0  0  0
    9.2820   17.8140   11.9750 C   0  0  0  0  0  0  0  0  0  0  0  0
    8.0880   17.0450   11.9320 C   0  0  0  0  0  0  0  0  0  0  0  0
   11.5690   18.2320   11.4050 C   0  0  0  0  0  0  0  0  0  0  0  0
   12.6900   17.8110   10.7360 O   0  0  0  0  0  0  0  0  0  0  0  0
   13.9510   18.5150   10.8190 C   0  0  0  0  0  0  0  0  0  0  0  0
   11.5110   19.4010   12.2040 C   0  0  0  0  0  0  0  0  0  0  0  0
   10.3790   19.7640   12.8080 C   0  0  0  0  0  0  0  0  0  0  0  0
    9.2600   18.9880   12.6980 C   0  0  0  0  0  0  0  0  0  0  0  0
    8.2680   19.6170   13.4170 C   0  0  0  0  0  0  0  0  0  0  0  0
    8.8010   20.7550   13.9440 C   0  0  0  0  0  0  0  0  0  0  0  0
    8.1770   21.7730   14.7590 C   0  0  0  0  0  0  0  0  0  0  0  0
    7.6990   22.5650   15.3790 N   0  0  0  0  0  0  0  0  0  0  0  0
   10.0870   20.8780   13.5700 N   0  0  0  0  0  0  0  0  0  0  0  0
   11.0400   21.9480   13.8920 C   0  0  0  0  0  0  0  0  0  0  0  0
   10.8850   23.0800   12.8980 C   0  0  0  0  0  0  0  0  0  0  0  0
   11.8580   23.7500   12.3040 C   0  0  0  0  0  0  0  0  0  0  0  0
   11.2880   24.6880   11.5160 N   0  0  0  0  0  0  0  0  0  0  0  0
   10.0740   24.6180   11.6060 N   0  0  0  0  0  0  0  0  0  0  0  0
    9.7670   23.6400   12.4850 C   0  0  0  0  0  0  0  0  0  0  0  0
   17.3867    7.5627   14.4247 H   0  0  0  0  0  0  0  0  0  0  0  0
   17.4813    9.2654   13.8842 H   0  0  0  0  0  0  0  0  0  0  0  0
   15.3452   10.3065   12.8017 H   0  0  0  0  0  0  0  0  0  0  0  0
   10.0653    7.6931   11.7135 H   0  0  0  0  0  0  0  0  0  0  0  0
   13.7236   11.6701   12.1947 H   0  0  0  0  0  0  0  0  0  0  0  0
   10.7774   11.6970   11.3206 H   0  0  0  0  0  0  0  0  0  0  0  0
   11.1061   12.8846   13.4430 H   0  0  0  0  0  0  0  0  0  0  0  0
   12.5655   13.7351   12.7424 H   0  0  0  0  0  0  0  0  0  0  0  0
   10.6124   15.2067   12.8928 H   0  0  0  0  0  0  0  0  0  0  0  0
    9.6999   14.1107   11.8274 H   0  0  0  0  0  0  0  0  0  0  0  0
   12.3165   12.1382    9.4263 H   0  0  0  0  0  0  0  0  0  0  0  0
   13.3060   13.2355   10.4366 H   0  0  0  0  0  0  0  0  0  0  0  0
   11.7265   14.4895    8.9190 H   0  0  0  0  0  0  0  0  0  0  0  0
   10.3423   13.6711    9.7362 H   0  0  0  0  0  0  0  0  0  0  0  0
   10.8942   16.5034    9.4411 H   0  0  0  0  0  0  0  0  0  0  0  0
    9.4900   15.7819   10.3848 H   0  0  0  0  0  0  0  0  0  0  0  0
    7.7535   16.8296   12.9575 H   0  0  0  0  0  0  0  0  0  0  0  0
    7.3068   17.6101   11.4026 H   0  0  0  0  0  0  0  0  0  0  0  0
    8.2794   16.1000   11.4026 H   0  0  0  0  0  0  0  0  0  0  0  0
   14.2187   18.6644   11.8754 H   0  0  0  0  0  0  0  0  0  0  0  0
   14.7344   17.9237   10.3223 H   0  0  0  0  0  0  0  0  0  0  0  0
   13.8588   19.4922   10.3223 H   0  0  0  0  0  0  0  0  0  0  0  0
   12.4132   20.0181   12.3278 H   0  0  0  0  0  0  0  0  0  0  0  0
    7.2335   19.2648   13.5430 H   0  0  0  0  0  0  0  0  0  0  0  0
   12.0654   21.5531   13.8406 H   0  0  0  0  0  0  0  0  0  0  0  0
   10.8409   22.3223   14.9070 H   0  0  0  0  0  0  0  0  0  0  0  0
   12.9368   23.5753   12.4288 H   0  0  0  0  0  0  0  0  0  0  0  0
   11.8013   25.3604   10.9283 H   0  0  0  0  0  0  0  0  0  0  0  0
    8.7524   23.3581   12.8030 H   0  0  0  0  0  0  0  0  0  0  0  0
 20 19  1  0
 20 21  1  0
 19 16  1  0
 22 21  1  0
 22 23  1  0
 27 28  1  0
 27 26  1  0
 21 18  1  0
  9  7  1  0
 23 26  1  0
 23 24  2  0
 26 29  2  0
 16 15  1  0
 16 17  1  0
 40 41  1  0
 40 39  1  0
 41 42  2  0
  4 14  2  0
  4  3  1  0
 25 24  1  0
 14  5  1  0
 15  3  1  0
 24 31  1  0
  8  7  1  0
 18 17  1  0
  3  2  2  0
 29 30  1  0
 39 38  2  0
  7  6  1  0
  7 10  1  0
  5  1  2  0
 42 38  1  0
  2  1  1  0
  2 13  1  0
  1 12  1  0
 31 30  2  0
 31 32  1  0
 30 36  1  0
 13 11  2  0
 38 37  1  0
 12 11  1  0
 11 10  1  0
 32 33  2  0
 36 37  1  0
 36 33  1  0
 33 34  1  0
 34 35  3  0
 10 43  1  0
 10 44  1  0
 13 45  1  0
 14 46  1  0
 15 47  1  0
 16 48  1  0
 17 49  1  0
 17 50  1  0
 18 51  1  0
 18 52  1  0
 19 53  1  0
 19 54  1  0
 20 55  1  0
 20 56  1  0
 22 57  1  0
 22 58  1  0
 25 59  1  0
 25 60  1  0
 25 61  1  0
 28 62  1  0
 28 63  1  0
 28 64  1  0
 29 65  1  0
 32 66  1  0
 37 67  1  0
 37 68  1  0
 39 69  1  0
 40 70  1  0
 42 71  1  0
A    1
C4
A    2
C5
A    3
C6
A    4
N1
A    5
N3
A    6
FAD
A    7
CBP
A    8
FAE
A    9
FAF
A   10
CAT
A   11
CBE
A   12
SBA
A   13
CAL
A   14
C2
A   15
NAX
A   16
CBM
A   17
CAO
A   18
CAQ
A   19
CAN
A   20
CAP
A   21
NBN
A   22
CAR
A   23
CBH
A   24
CBC
A   25
CAB
A   26
CBF
A   27
OAZ
A   28
CAA
A   29
CAM
A   30
CBL
A   31
CBI
A   32
CAK
A   33
CBD
A   34
CAG
A   35
NAC
A   36
NBO
A   37
CAS
A   38
CBB
A   39
CAI
A   40
NAU
A   41
NAY
A   42
CAJ
M  END
