5COB_XOG_A_1002
     RDKit          3D

 26 25  0  0  0  0  0  0  0  0999 V2000
  -13.9440  -10.5880    9.2100 O   0  0  0  0  0  0  0  0  0  0  0  0
  -12.7120  -10.3930    8.5120 C   0  0  0  0  0  0  0  0  0  0  0  0
  -12.8670  -10.6920    7.0410 C   0  0  0  0  0  0  0  0  0  0  0  0
  -12.7910  -11.9540    6.5950 C   0  0  0  0  0  0  0  0  0  0  0  0
  -12.5910  -13.0780    7.5600 C   0  0  0  0  0  0  0  0  0  0  0  0
  -12.9330  -12.2540    5.1250 C   0  0  0  0  0  0  0  0  0  0  0  0
  -12.2750  -11.1290    4.3380 C   0  0  0  0  0  0  0  0  0  0  0  0
  -12.2360  -11.4670    2.8680 C   0  0  0  0  0  0  0  0  0  0  0  0
  -13.1340  -10.9210    2.0370 C   0  0  0  0  0  0  0  0  0  0  0  0
  -14.1960  -10.0030    2.5610 C   0  0  0  0  0  0  0  0  0  0  0  0
  -13.1140  -11.2370    0.5660 C   0  0  0  0  0  0  0  0  0  0  0  0
  -14.2630  -10.6230   -0.0230 O   0  0  0  0  0  0  0  0  0  0  0  0
  -11.7738  -10.0676    8.9851 H   0  0  0  0  0  0  0  0  0  0  0  0
  -13.0432   -9.8704    6.3311 H   0  0  0  0  0  0  0  0  0  0  0  0
  -12.6592  -12.6946    8.5887 H   0  0  0  0  0  0  0  0  0  0  0  0
  -13.3676  -13.8406    7.4007 H   0  0  0  0  0  0  0  0  0  0  0  0
  -11.5990  -13.5259    7.4007 H   0  0  0  0  0  0  0  0  0  0  0  0
  -13.9988  -12.3182    4.8604 H   0  0  0  0  0  0  0  0  0  0  0  0
  -12.4504  -13.2134    4.8872 H   0  0  0  0  0  0  0  0  0  0  0  0
  -11.2478  -10.9837    4.7037 H   0  0  0  0  0  0  0  0  0  0  0  0
  -12.8599  -10.2077    4.4765 H   0  0  0  0  0  0  0  0  0  0  0  0
  -11.4736  -12.1587    2.4803 H   0  0  0  0  0  0  0  0  0  0  0  0
  -14.1815  -10.0155    3.6608 H   0  0  0  0  0  0  0  0  0  0  0  0
  -14.0057   -8.9803    2.2034 H   0  0  0  0  0  0  0  0  0  0  0  0
  -15.1804  -10.3392    2.2034 H   0  0  0  0  0  0  0  0  0  0  0  0
  -12.3535  -11.8323    0.0394 H   0  0  0  0  0  0  0  0  0  0  0  0
 12 11  2  0
 11  9  1  0
  9 10  1  0
  9  8  2  0
  8  7  1  0
  7  6  1  0
  6  4  1  0
  4  3  2  0
  4  5  1  0
  3  2  1  0
  2  1  2  0
  2 13  1  0
  3 14  1  0
  5 15  1  0
  5 16  1  0
  5 17  1  0
  6 18  1  0
  6 19  1  0
  7 20  1  0
  7 21  1  0
  8 22  1  0
 10 23  1  0
 10 24  1  0
 10 25  1  0
 11 26  1  0
A    1
O2
A    2
C8
A    3
C7
A    4
C6
A    5
C10
A    6
C5
A    7
C4
A    8
C3
A    9
C2
A   10
C9
A   11
C1
A   12
O1
M  END
