5DDD_59X_A_601
     RDKit          3D

 47 50  0  0  0  0  0  0  0  0999 V2000
   13.1900    7.4520   12.2150 C   0  0  0  0  0  0  0  0  0  0  0  0
   13.3750    8.7680   11.9540 C   0  0  0  0  0  0  0  0  0  0  0  0
   12.2990    9.4800   11.4380 C   0  0  0  0  0  0  0  0  0  0  0  0
   11.1320    8.8540   11.2110 N   0  0  0  0  0  0  0  0  0  0  0  0
   12.0290    6.8390   12.0160 N   0  0  0  0  0  0  0  0  0  0  0  0
   17.6150    6.6850   11.8440 F   0  0  0  0  0  0  0  0  0  0  0  0
   17.8090    8.0020   11.9790 C   0  0  0  0  0  0  0  0  0  0  0  0
   16.9300    8.4480   13.1720 C   0  0  0  0  0  0  0  0  0  0  0  0
   15.4580    8.2200   12.7450 C   0  0  0  0  0  0  0  0  0  0  0  0
   14.5360    6.7780   12.8910 S   0  0  0  0  0  0  0  0  0  0  0  0
   14.6560    9.1660   12.2470 C   0  0  0  0  0  0  0  0  0  0  0  0
   10.9770    7.5210   11.4980 C   0  0  0  0  0  0  0  0  0  0  0  0
   12.2550   10.7980   11.1230 N   0  0  0  0  0  0  0  0  0  0  0  0
   11.0860   11.3100   10.3490 C   0  0  0  0  0  0  0  0  0  0  0  0
   11.1260   12.7840   10.1360 C   0  0  0  0  0  0  0  0  0  0  0  0
   13.1880   11.8490   11.7270 C   0  0  0  0  0  0  0  0  0  0  0  0
   12.2230   12.7520   12.5080 C   0  0  0  0  0  0  0  0  0  0  0  0
   11.3640   13.4340   11.5230 N   0  0  0  0  0  0  0  0  0  0  0  0
   10.7670   14.6020   11.8210 C   0  0  0  0  0  0  0  0  0  0  0  0
   10.8700   15.3580   13.3100 S   0  0  0  0  0  0  0  0  0  0  0  0
    9.9130   16.8010   12.9010 C   0  0  0  0  0  0  0  0  0  0  0  0
    8.8140   17.0670   13.9700 C   0  0  0  0  0  0  0  0  0  0  0  0
   10.8370   18.0210   12.7740 C   0  0  0  0  0  0  0  0  0  0  0  0
    9.3570   16.5830   11.5630 C   0  0  0  0  0  0  0  0  0  0  0  0
    9.9880   15.3160   10.9780 N   0  0  0  0  0  0  0  0  0  0  0  0
   18.8686    8.2120   12.1866 H   0  0  0  0  0  0  0  0  0  0  0  0
   17.5410    8.5429   11.0594 H   0  0  0  0  0  0  0  0  0  0  0  0
   17.1647    7.8464   14.0625 H   0  0  0  0  0  0  0  0  0  0  0  0
   17.1110    9.5027   13.4264 H   0  0  0  0  0  0  0  0  0  0  0  0
   15.0002   10.1977   12.0823 H   0  0  0  0  0  0  0  0  0  0  0  0
   10.0181    7.0153   11.3116 H   0  0  0  0  0  0  0  0  0  0  0  0
   10.1662   11.0605   10.8983 H   0  0  0  0  0  0  0  0  0  0  0  0
   11.1156   10.8345    9.3575 H   0  0  0  0  0  0  0  0  0  0  0  0
   11.9458   13.0449    9.4505 H   0  0  0  0  0  0  0  0  0  0  0  0
   10.1868   13.1426    9.6895 H   0  0  0  0  0  0  0  0  0  0  0  0
   13.9265   11.3849   12.3973 H   0  0  0  0  0  0  0  0  0  0  0  0
   13.7786   12.3912   10.9739 H   0  0  0  0  0  0  0  0  0  0  0  0
   12.7897   13.4936   13.0901 H   0  0  0  0  0  0  0  0  0  0  0  0
   11.6164   12.1590   13.2082 H   0  0  0  0  0  0  0  0  0  0  0  0
    9.2475   16.9621   14.9755 H   0  0  0  0  0  0  0  0  0  0  0  0
    8.4201   18.0864   13.8451 H   0  0  0  0  0  0  0  0  0  0  0  0
    7.9975   16.3405   13.8451 H   0  0  0  0  0  0  0  0  0  0  0  0
   11.1094   18.3807   13.7772 H   0  0  0  0  0  0  0  0  0  0  0  0
   11.7477   17.7358   12.2269 H   0  0  0  0  0  0  0  0  0  0  0  0
   10.3158   18.8204   12.2269 H   0  0  0  0  0  0  0  0  0  0  0  0
    9.5886   17.4446   10.9195 H   0  0  0  0  0  0  0  0  0  0  0  0
    8.2645   16.4688   11.6216 H   0  0  0  0  0  0  0  0  0  0  0  0
 15 14  1  0
 15 18  1  0
 14 13  1  0
 25 24  1  0
 25 19  2  0
 13  3  1  0
 13 16  1  0
  4  3  2  0
  4 12  1  0
  3  2  1  0
 12  5  2  0
 18 19  1  0
 18 17  1  0
 24 21  1  0
 16 17  1  0
 19 20  1  0
  6  7  1  0
  2  1  2  0
  2 11  1  0
  7  8  1  0
  5  1  1  0
  1 10  1  0
 11  9  2  0
  9 10  1  0
  9  8  1  0
 23 21  1  0
 21 20  1  0
 21 22  1  0
  7 26  1  0
  7 27  1  0
  8 28  1  0
  8 29  1  0
 11 30  1  0
 12 31  1  0
 14 32  1  0
 14 33  1  0
 15 34  1  0
 15 35  1  0
 16 36  1  0
 16 37  1  0
 17 38  1  0
 17 39  1  0
 22 40  1  0
 22 41  1  0
 22 42  1  0
 23 43  1  0
 23 44  1  0
 23 45  1  0
 24 46  1  0
 24 47  1  0
A    1
C4
A    2
C5
A    3
C6
A    4
N1
A    5
N3
A    6
FAC
A    7
CAF
A    8
CAG
A    9
CAS
A   10
SAQ
A   11
CAE
A   12
C2
A   13
NAX
A   14
CAK
A   15
CAI
A   16
CAJ
A   17
CAH
A   18
NAW
A   19
CAR
A   20
SAP
A   21
CAY
A   22
CAA
A   23
CAB
A   24
CAL
A   25
NAM
M  END
