2GY6_5A1_?_25
     RDKit          3D

 10 10  0  0  0  0  0  0  0  0999 V2000
   19.1420   29.0940   28.4850 C   0  0  0  0  0  0  0  0  0  0  0  0
   19.5430   28.3690   29.6150 C   0  0  0  0  0  0  0  0  0  0  0  0
   17.8040   29.5400   28.4120 C   0  0  0  0  0  0  0  0  0  0  0  0
   21.2980   28.6950   27.3900 N   0  0  0  0  0  0  0  0  0  0  0  0
   19.8000   29.9400   26.2590 N   0  0  0  0  0  0  0  0  0  0  0  0
   20.1170   29.3060   27.3830 C   0  0  0  0  0  0  0  0  0  0  0  0
   18.1070   29.4218   28.6621 H   0  0  0  0  0  0  0  0  0  0  0  0
   20.1169   27.7973   30.3592 H   0  0  0  0  0  0  0  0  0  0  0  0
   16.8010   29.9708   28.2761 H   0  0  0  0  0  0  0  0  0  0  0  0
   19.4445   29.2878   28.2533 H   0  0  0  0  0  0  0  0  0  0  0  0
  1  2  2  0
  1  5  1  0
  2  3  1  0
  3  4  2  0
  4  6  1  0
  5  6  2  0
  1  7  1  0
  2  8  1  0
  3  9  1  0
  6 10  1  0
A    1
C4
A    2
C5
A    3
C6
A    4
N1
A    5
N3
A    6
C2
M  END
