5DE1_59D_A_502
     RDKit          3D

 65 69  0  0  0  0  0  0  0  0999 V2000
  -21.1620   -1.6290   -6.0120 N   0  0  0  0  0  0  0  0  0  0  0  0
  -27.2230    3.5040   -3.3570 C   0  0  0  0  0  0  0  0  0  0  0  0
  -26.9540    1.9510    0.0670 C   0  0  0  0  0  0  0  0  0  0  0  0
  -29.0470    1.3380   -0.9020 C   0  0  0  0  0  0  0  0  0  0  0  0
  -25.3610    2.3720   -4.6370 C   0  0  0  0  0  0  0  0  0  0  0  0
  -25.2330    0.9660   -6.5480 C   0  0  0  0  0  0  0  0  0  0  0  0
  -23.1030    1.7860   -5.5420 C   0  0  0  0  0  0  0  0  0  0  0  0
  -24.0130    2.5860   -4.7110 C   0  0  0  0  0  0  0  0  0  0  0  0
  -21.8840   -0.5980   -6.5460 C   0  0  0  0  0  0  0  0  0  0  0  0
  -19.6940   -0.2590   -6.9490 C   0  0  0  0  0  0  0  0  0  0  0  0
  -17.2690    6.9830   -1.3380 C   0  0  0  0  0  0  0  0  0  0  0  0
  -18.1220    7.2620   -2.5540 C   0  0  0  0  0  0  0  0  0  0  0  0
  -17.8130    8.5640   -3.0260 O   0  0  0  0  0  0  0  0  0  0  0  0
  -19.5720    7.2320   -2.2020 C   0  0  0  0  0  0  0  0  0  0  0  0
  -20.0520    7.9630   -1.1380 C   0  0  0  0  0  0  0  0  0  0  0  0
  -21.3910    7.9310   -0.8200 C   0  0  0  0  0  0  0  0  0  0  0  0
  -22.2620    7.1700   -1.5650 C   0  0  0  0  0  0  0  0  0  0  0  0
  -21.7810    6.4370   -2.6250 C   0  0  0  0  0  0  0  0  0  0  0  0
  -22.6770    5.6730   -3.3800 N   0  0  0  0  0  0  0  0  0  0  0  0
  -22.5140    4.3200   -3.5570 C   0  0  0  0  0  0  0  0  0  0  0  0
  -21.4620    3.7000   -3.4990 O   0  0  0  0  0  0  0  0  0  0  0  0
  -23.7650    3.6820   -3.8490 C   0  0  0  0  0  0  0  0  0  0  0  0
  -24.8940    4.1200   -3.2800 N   0  0  0  0  0  0  0  0  0  0  0  0
  -25.8470    3.3100   -3.7720 N   0  0  0  0  0  0  0  0  0  0  0  0
  -27.5310    2.7300   -2.1180 C   0  0  0  0  0  0  0  0  0  0  0  0
  -26.6450    2.6720   -1.0620 C   0  0  0  0  0  0  0  0  0  0  0  0
  -28.1540    1.2860    0.1410 C   0  0  0  0  0  0  0  0  0  0  0  0
  -28.4510    0.5830    1.2450 F   0  0  0  0  0  0  0  0  0  0  0  0
  -28.7320    2.0610   -2.0300 C   0  0  0  0  0  0  0  0  0  0  0  0
  -26.1030    1.3390   -5.3640 C   0  0  0  0  0  0  0  0  0  0  0  0
  -26.3500    0.1280   -4.4990 C   0  0  0  0  0  0  0  0  0  0  0  0
  -23.8540    0.7070   -6.1690 N   0  0  0  0  0  0  0  0  0  0  0  0
  -23.3070   -0.5340   -6.4550 C   0  0  0  0  0  0  0  0  0  0  0  0
  -23.9750   -1.5440   -6.6290 O   0  0  0  0  0  0  0  0  0  0  0  0
  -20.9930    0.2680   -7.1400 C   0  0  0  0  0  0  0  0  0  0  0  0
  -19.8320   -1.4350   -6.2480 C   0  0  0  0  0  0  0  0  0  0  0  0
  -20.4420    6.4670   -2.9460 C   0  0  0  0  0  0  0  0  0  0  0  0
  -21.5623   -2.4324   -5.5069 H   0  0  0  0  0  0  0  0  0  0  0  0
  -27.8911    3.1689   -4.1640 H   0  0  0  0  0  0  0  0  0  0  0  0
  -27.3739    4.5727   -3.1448 H   0  0  0  0  0  0  0  0  0  0  0  0
  -26.2445    1.9068    0.9064 H   0  0  0  0  0  0  0  0  0  0  0  0
  -30.0072    0.8054   -0.8359 H   0  0  0  0  0  0  0  0  0  0  0  0
  -25.6455    0.0604   -7.0168 H   0  0  0  0  0  0  0  0  0  0  0  0
  -25.2329    1.8187   -7.2429 H   0  0  0  0  0  0  0  0  0  0  0  0
  -22.6569    2.4242   -6.3190 H   0  0  0  0  0  0  0  0  0  0  0  0
  -22.3029    1.3650   -4.9154 H   0  0  0  0  0  0  0  0  0  0  0  0
  -18.7505    0.1877   -7.2959 H   0  0  0  0  0  0  0  0  0  0  0  0
  -17.8551    7.1747   -0.4271 H   0  0  0  0  0  0  0  0  0  0  0  0
  -16.9447    5.9320   -1.3509 H   0  0  0  0  0  0  0  0  0  0  0  0
  -16.3863    7.6393   -1.3509 H   0  0  0  0  0  0  0  0  0  0  0  0
  -17.9182    6.4949   -3.3156 H   0  0  0  0  0  0  0  0  0  0  0  0
  -17.6694    9.1689   -2.2555 H   0  0  0  0  0  0  0  0  0  0  0  0
  -19.3619    8.5756   -0.5392 H   0  0  0  0  0  0  0  0  0  0  0  0
  -21.7659    8.5160    0.0328 H   0  0  0  0  0  0  0  0  0  0  0  0
  -23.3331    7.1479   -1.3153 H   0  0  0  0  0  0  0  0  0  0  0  0
  -23.4846    6.1393   -3.8172 H   0  0  0  0  0  0  0  0  0  0  0  0
  -25.6853    3.2060   -1.1238 H   0  0  0  0  0  0  0  0  0  0  0  0
  -29.4442    2.1049   -2.8671 H   0  0  0  0  0  0  0  0  0  0  0  0
  -27.0910    1.7094   -5.6750 H   0  0  0  0  0  0  0  0  0  0  0  0
  -26.2912    0.4163   -3.4391 H   0  0  0  0  0  0  0  0  0  0  0  0
  -27.3495   -0.2782   -4.7136 H   0  0  0  0  0  0  0  0  0  0  0  0
  -25.5894   -0.6372   -4.7136 H   0  0  0  0  0  0  0  0  0  0  0  0
  -21.2454    1.1999   -7.6671 H   0  0  0  0  0  0  0  0  0  0  0  0
  -19.0149   -2.1009   -5.9335 H   0  0  0  0  0  0  0  0  0  0  0  0
  -20.0675    5.8795   -3.7972 H   0  0  0  0  0  0  0  0  0  0  0  0
 16 15  1  0
 16 17  2  0
 15 14  2  0
 11 12  1  0
 28 27  1  0
 17 18  1  0
  4 27  1  0
  4 29  2  0
 27  3  2  0
 14 12  1  0
 14 37  1  0
 12 13  1  0
 29 25  1  0
 18 37  2  0
 18 19  1  0
  3 26  1  0
 19 20  1  0
 25 26  2  0
 25  2  1  0
 21 20  2  0
 20 22  1  0
 23 22  2  0
 23 24  1  0
 22  8  1  0
  2 24  1  0
 24  5  1  0
  8  5  2  0
  8  7  1  0
  5 30  1  0
 31 30  1  0
  7 32  1  0
 30  6  1  0
 32 33  1  0
 32  6  1  0
 36  1  1  0
 36 10  2  0
  1  9  1  0
 10 35  1  0
  9 35  2  0
  9 33  1  0
 33 34  2  0
  1 38  1  0
  2 39  1  0
  2 40  1  0
  3 41  1  0
  4 42  1  0
  6 43  1  0
  6 44  1  0
  7 45  1  0
  7 46  1  0
 10 47  1  0
 11 48  1  0
 11 49  1  0
 11 50  1  0
 12 51  1  0
 13 52  1  0
 15 53  1  0
 16 54  1  0
 17 55  1  0
 19 56  1  0
 26 57  1  0
 29 58  1  0
 30 59  1  0
 31 60  1  0
 31 61  1  0
 31 62  1  0
 35 63  1  0
 36 64  1  0
 37 65  1  0
A    1
N1
A    2
C10
A    3
C13
A    4
C15
A    5
C17
A    6
C20
A    7
C21
A    8
C22
A    9
C24
A   10
C26
A   11
C01
A   12
C02
A   13
O01
A   14
C03
A   15
C04
A   16
C05
A   17
C06
A   18
C07
A   19
N01
A   20
C08
A   21
O02
A   22
C09
A   23
N02
A   24
N03
A   25
C11
A   26
C12
A   27
C14
A   28
F
A   29
C16
A   30
C18
A   31
C19
A   32
N04
A   33
C23
A   34
O1
A   35
C25
A   36
C27
A   37
C1
M  END
