5DF9_59J_A_603
     RDKit          3D

 65 67  0  0  0  0  0  0  0  0999 V2000
  -41.8230   -9.8620  -40.1530 C   0  0  0  0  0  0  0  0  0  0  0  0
  -42.3590   -6.7130  -40.8220 C   0  0  0  0  0  0  0  0  0  0  0  0
  -42.1440   -4.6580  -42.3000 C   0  0  0  0  0  0  0  0  0  0  0  0
  -42.8560   -3.2840  -42.4380 C   0  0  0  0  0  0  0  0  0  0  0  0
  -42.3220  -10.2940  -41.5120 C   0  0  0  0  0  0  0  0  0  0  0  0
  -40.7190  -10.4490  -39.6120 C   0  0  0  0  0  0  0  0  0  0  0  0
  -44.3990   -5.5970  -41.7760 C   0  0  0  0  0  0  0  0  0  0  0  0
  -45.0020   -4.5470  -42.5840 C   0  0  0  0  0  0  0  0  0  0  0  0
  -44.8310   -2.3350  -43.7300 C   0  0  0  0  0  0  0  0  0  0  0  0
  -41.6500  -11.2900  -42.2010 C   0  0  0  0  0  0  0  0  0  0  0  0
  -39.9940  -11.5290  -40.3640 C   0  0  0  0  0  0  0  0  0  0  0  0
  -40.4390  -11.9320  -41.6060 C   0  0  0  0  0  0  0  0  0  0  0  0
  -45.7050   -1.4480  -42.8700 C   0  0  0  0  0  0  0  0  0  0  0  0
  -43.3640  -13.2150  -37.0150 S   0  0  0  0  0  0  0  0  0  0  0  0
  -43.6530   -8.4580  -35.1900 O   0  0  0  0  0  0  0  0  0  0  0  0
  -44.6940   -9.1170  -38.4660 O   0  0  0  0  0  0  0  0  0  0  0  0
  -41.0000  -12.6360  -32.3900 O   0  0  0  0  0  0  0  0  0  0  0  0
  -41.0000  -14.8070  -32.5910 O   0  0  0  0  0  0  0  0  0  0  0  0
  -41.1440   -6.7430  -40.7140 O   0  0  0  0  0  0  0  0  0  0  0  0
  -45.1140   -6.4230  -41.2260 O   0  0  0  0  0  0  0  0  0  0  0  0
  -46.1630   -4.6630  -42.9740 O   0  0  0  0  0  0  0  0  0  0  0  0
  -39.7570  -12.9340  -42.2930 O   0  0  0  0  0  0  0  0  0  0  0  0
  -42.6250  -12.2020  -34.7140 N   0  0  0  0  0  0  0  0  0  0  0  0
  -43.0160  -10.1100  -37.1890 N   0  0  0  0  0  0  0  0  0  0  0  0
  -43.1610   -7.7150  -40.1590 N   0  0  0  0  0  0  0  0  0  0  0  0
  -42.9900   -5.6610  -41.6280 N   0  0  0  0  0  0  0  0  0  0  0  0
  -44.2460   -3.4100  -42.9120 N   0  0  0  0  0  0  0  0  0  0  0  0
  -43.7130  -12.0540  -35.7170 C   0  0  0  0  0  0  0  0  0  0  0  0
  -43.9430  -10.6260  -36.1810 C   0  0  0  0  0  0  0  0  0  0  0  0
  -43.8570   -9.7000  -35.0120 C   0  0  0  0  0  0  0  0  0  0  0  0
  -42.3240  -13.5470  -34.1620 C   0  0  0  0  0  0  0  0  0  0  0  0
  -42.8520  -14.6670  -34.7750 C   0  0  0  0  0  0  0  0  0  0  0  0
  -42.9370  -14.7140  -36.2410 C   0  0  0  0  0  0  0  0  0  0  0  0
  -43.5070   -9.3290  -38.3240 C   0  0  0  0  0  0  0  0  0  0  0  0
  -43.7160  -15.5930  -33.9830 C   0  0  0  0  0  0  0  0  0  0  0  0
  -42.5250   -8.7690  -39.3360 C   0  0  0  0  0  0  0  0  0  0  0  0
  -41.3890  -13.6720  -32.9810 C   0  0  0  0  0  0  0  0  0  0  0  0
  -43.9740  -10.1520  -33.8550 O   0  0  0  0  0  0  0  0  0  0  0  0
  -41.8884   -5.0265  -43.3044 H   0  0  0  0  0  0  0  0  0  0  0  0
  -41.2438   -4.5105  -41.6853 H   0  0  0  0  0  0  0  0  0  0  0  0
  -42.2942   -2.6667  -43.1545 H   0  0  0  0  0  0  0  0  0  0  0  0
  -42.8853   -2.8226  -41.4399 H   0  0  0  0  0  0  0  0  0  0  0  0
  -43.2127   -9.8209  -41.9511 H   0  0  0  0  0  0  0  0  0  0  0  0
  -40.3577  -10.1316  -38.6227 H   0  0  0  0  0  0  0  0  0  0  0  0
  -44.0234   -1.7327  -44.1717 H   0  0  0  0  0  0  0  0  0  0  0  0
  -45.4430   -2.7806  -44.5280 H   0  0  0  0  0  0  0  0  0  0  0  0
  -42.0093  -11.6097  -43.1903 H   0  0  0  0  0  0  0  0  0  0  0  0
  -39.1040  -12.0007  -39.9220 H   0  0  0  0  0  0  0  0  0  0  0  0
  -45.5031   -1.6529  -41.8083 H   0  0  0  0  0  0  0  0  0  0  0  0
  -45.4838   -0.3928  -43.0883 H   0  0  0  0  0  0  0  0  0  0  0  0
  -46.7633   -1.6536  -43.0883 H   0  0  0  0  0  0  0  0  0  0  0  0
  -40.9885  -12.6053  -31.4005 H   0  0  0  0  0  0  0  0  0  0  0  0
  -39.2768  -13.6395  -41.7912 H   0  0  0  0  0  0  0  0  0  0  0  0
  -42.0075  -10.2987  -37.0982 H   0  0  0  0  0  0  0  0  0  0  0  0
  -44.1859   -7.6961  -40.2598 H   0  0  0  0  0  0  0  0  0  0  0  0
  -44.6872  -12.2884  -35.2631 H   0  0  0  0  0  0  0  0  0  0  0  0
  -44.9364  -10.6642  -36.6518 H   0  0  0  0  0  0  0  0  0  0  0  0
  -41.9220  -15.2479  -34.6874 H   0  0  0  0  0  0  0  0  0  0  0  0
  -43.6948  -15.4636  -36.5127 H   0  0  0  0  0  0  0  0  0  0  0  0
  -41.9245  -14.9588  -36.5946 H   0  0  0  0  0  0  0  0  0  0  0  0
  -43.5530  -15.4183  -32.9093 H   0  0  0  0  0  0  0  0  0  0  0  0
  -44.7723  -15.4086  -34.2282 H   0  0  0  0  0  0  0  0  0  0  0  0
  -43.4590  -16.6341  -34.2282 H   0  0  0  0  0  0  0  0  0  0  0  0
  -41.7093   -8.2822  -38.7812 H   0  0  0  0  0  0  0  0  0  0  0  0
  -43.8212   -9.5616  -33.0751 H   0  0  0  0  0  0  0  0  0  0  0  0
  9 27  1  0
  9 13  1  0
 21  8  2  0
 27  8  1  0
 27  4  1  0
  8  7  1  0
  4  3  1  0
  3 26  1  0
 22 12  1  0
 10 12  1  0
 10  5  2  0
  7 26  1  0
  7 20  2  0
 26  2  1  0
 12 11  2  0
  5  1  1  0
  2 19  2  0
  2 25  1  0
 11  6  1  0
 25 36  1  0
  1  6  2  0
  1 36  1  0
 36 34  1  0
 16 34  2  0
 34 24  1  0
 24 29  1  0
 14 33  1  0
 14 28  1  0
 33 32  1  0
 29 28  1  0
 29 30  1  0
 28 23  1  0
 15 30  2  0
 30 38  1  0
 32 31  1  0
 32 35  1  0
 23 31  2  0
 31 37  1  0
 37 18  2  0
 37 17  1  0
  3 39  1  0
  3 40  1  0
  4 41  1  0
  4 42  1  0
  5 43  1  0
  6 44  1  0
  9 45  1  0
  9 46  1  0
 10 47  1  0
 11 48  1  0
 13 49  1  0
 13 50  1  0
 13 51  1  0
 17 52  1  0
 22 53  1  0
 24 54  1  0
 25 55  1  0
 28 56  1  0
 29 57  1  0
 32 58  1  0
 33 59  1  0
 33 60  1  0
 35 61  1  0
 35 62  1  0
 35 63  1  0
 36 64  1  0
 38 65  1  0
A    1
C10
A    2
C11
A    3
C12
A    4
C13
A    5
C14
A    6
C15
A    7
C16
A    8
C17
A    9
C19
A   10
C20
A   11
C21
A   12
C22
A   13
C23
A   14
S01
A   15
O01
A   16
O02
A   17
O03
A   18
O04
A   19
O05
A   20
O06
A   21
O07
A   22
O
A   23
N01
A   24
N02
A   25
N03
A   26
N04
A   27
N05
A   28
C01
A   29
C02
A   30
C03
A   31
C07
A   32
C04
A   33
C05
A   34
C06
A   35
C08
A   36
CA
A   37
C09
A   38
O08
M  END
