5DFD_59E_A_501
     RDKit          3D

 52 56  0  0  0  0  0  0  0  0999 V2000
   -5.5150   -6.1460   -9.3080 C   0  0  0  0  0  0  0  0  0  0  0  0
   -6.4530   -7.0310   -8.6560 O   0  0  0  0  0  0  0  0  0  0  0  0
   -6.4370   -8.3030   -9.1050 C   0  0  0  0  0  0  0  0  0  0  0  0
   -5.6520   -8.6950   -9.9730 O   0  0  0  0  0  0  0  0  0  0  0  0
   -7.4950   -9.2620   -8.5270 C   0  0  0  0  0  0  0  0  0  0  0  0
   -7.6570   -8.9690   -7.0150 C   0  0  0  0  0  0  0  0  0  0  0  0
   -6.3350   -9.0840   -6.3090 N   0  0  0  0  0  0  0  0  0  0  0  0
   -8.5640   -9.8420   -6.3280 C   0  0  0  0  0  0  0  0  0  0  0  0
   -9.1340  -10.9550   -6.8390 N   0  0  0  0  0  0  0  0  0  0  0  0
   -9.8990  -11.5210   -5.8700 N   0  0  0  0  0  0  0  0  0  0  0  0
   -9.7590  -10.7570   -4.7920 C   0  0  0  0  0  0  0  0  0  0  0  0
  -10.4500  -11.0640   -3.4720 C   0  0  0  0  0  0  0  0  0  0  0  0
   -8.9530   -9.6850   -5.0480 N   0  0  0  0  0  0  0  0  0  0  0  0
   -8.5060   -8.6470   -4.2680 C   0  0  0  0  0  0  0  0  0  0  0  0
   -9.4730   -8.0500   -3.4330 C   0  0  0  0  0  0  0  0  0  0  0  0
   -9.1350   -6.9990   -2.5860 C   0  0  0  0  0  0  0  0  0  0  0  0
   -7.8180   -6.5200   -2.5860 C   0  0  0  0  0  0  0  0  0  0  0  0
   -7.3790   -5.4700   -1.7770 O   0  0  0  0  0  0  0  0  0  0  0  0
   -8.3500   -4.7070   -1.0500 C   0  0  0  0  0  0  0  0  0  0  0  0
   -6.8620   -7.0940   -3.4220 C   0  0  0  0  0  0  0  0  0  0  0  0
   -7.1860   -8.1570   -4.2700 C   0  0  0  0  0  0  0  0  0  0  0  0
   -6.1130   -8.6460   -5.0570 C   0  0  0  0  0  0  0  0  0  0  0  0
   -4.7790   -8.8330   -4.5640 C   0  0  0  0  0  0  0  0  0  0  0  0
   -3.6390   -8.5720   -5.2790 C   0  0  0  0  0  0  0  0  0  0  0  0
   -3.4250   -8.0910   -6.5220 C   0  0  0  0  0  0  0  0  0  0  0  0
   -2.1020   -8.0400   -6.7460 C   0  0  0  0  0  0  0  0  0  0  0  0
   -1.4780   -8.4710   -5.6520 N   0  0  0  0  0  0  0  0  0  0  0  0
   -2.4120   -8.8070   -4.7550 C   0  0  0  0  0  0  0  0  0  0  0  0
   -2.2480   -9.2730   -3.5070 C   0  0  0  0  0  0  0  0  0  0  0  0
   -3.3650   -9.5550   -2.7190 C   0  0  0  0  0  0  0  0  0  0  0  0
   -4.6250   -9.3130   -3.2520 C   0  0  0  0  0  0  0  0  0  0  0  0
   -4.9366   -5.6003   -8.5479 H   0  0  0  0  0  0  0  0  0  0  0  0
   -4.8308   -6.7353   -9.9362 H   0  0  0  0  0  0  0  0  0  0  0  0
   -6.0635   -5.4287   -9.9362 H   0  0  0  0  0  0  0  0  0  0  0  0
   -8.4557   -9.1056   -9.0394 H   0  0  0  0  0  0  0  0  0  0  0  0
   -7.1767  -10.3045   -8.6749 H   0  0  0  0  0  0  0  0  0  0  0  0
   -8.0673   -7.9489   -6.9828 H   0  0  0  0  0  0  0  0  0  0  0  0
   -9.7942  -10.7726   -2.6384 H   0  0  0  0  0  0  0  0  0  0  0  0
  -11.3924  -10.4999   -3.4116 H   0  0  0  0  0  0  0  0  0  0  0  0
  -10.6631  -12.1415   -3.4116 H   0  0  0  0  0  0  0  0  0  0  0  0
  -10.5087   -8.4202   -3.4515 H   0  0  0  0  0  0  0  0  0  0  0  0
   -9.8914   -6.5502   -1.9253 H   0  0  0  0  0  0  0  0  0  0  0  0
   -8.1847   -4.8369    0.0297 H   0  0  0  0  0  0  0  0  0  0  0  0
   -8.2504   -3.6430   -1.3108 H   0  0  0  0  0  0  0  0  0  0  0  0
   -9.3602   -5.0554   -1.3108 H   0  0  0  0  0  0  0  0  0  0  0  0
   -5.8337   -6.7034   -3.4144 H   0  0  0  0  0  0  0  0  0  0  0  0
   -4.2067   -7.7900   -7.2350 H   0  0  0  0  0  0  0  0  0  0  0  0
   -1.6175   -7.7006   -7.6734 H   0  0  0  0  0  0  0  0  0  0  0  0
   -0.4585   -8.5345   -5.5198 H   0  0  0  0  0  0  0  0  0  0  0  0
   -1.2360   -9.4322   -3.1063 H   0  0  0  0  0  0  0  0  0  0  0  0
   -3.2506   -9.9585   -1.7021 H   0  0  0  0  0  0  0  0  0  0  0  0
   -5.5173   -9.5003   -2.6367 H   0  0  0  0  0  0  0  0  0  0  0  0
  4  3  2  0
  1  2  1  0
  3  2  1  0
  3  5  1  0
  5  6  1  0
  6  8  1  0
  6  7  1  0
  9  8  2  0
  9 10  1  0
 26 25  2  0
 26 27  1  0
 25 24  1  0
  8 13  1  0
  7 22  2  0
 10 11  2  0
 27 28  1  0
 24 28  2  0
 24 23  1  0
 22 23  1  0
 22 21  1  0
 13 11  1  0
 13 14  1  0
 11 12  1  0
 28 29  1  0
 23 31  2  0
 21 14  2  0
 21 20  1  0
 14 15  1  0
 29 30  2  0
 15 16  2  0
 20 17  2  0
 31 30  1  0
 17 16  1  0
 17 18  1  0
 18 19  1  0
  1 32  1  0
  1 33  1  0
  1 34  1  0
  5 35  1  0
  5 36  1  0
  6 37  1  0
 12 38  1  0
 12 39  1  0
 12 40  1  0
 15 41  1  0
 16 42  1  0
 19 43  1  0
 19 44  1  0
 19 45  1  0
 20 46  1  0
 25 47  1  0
 26 48  1  0
 27 49  1  0
 29 50  1  0
 30 51  1  0
 31 52  1  0
A    1
CAW
A    2
OAU
A    3
CAT
A    4
OAV
A    5
CAS
A    6
CAI
A    7
NAH
A    8
CAJ
A    9
NAN
A   10
NAO
A   11
CAP
A   12
CAR
A   13
NAK
A   14
CAE
A   15
CAF
A   16
CAA
A   17
CAB
A   18
OAL
A   19
CAM
A   20
CAC
A   21
CAD
A   22
CAG
A   23
CAQ
A   24
CBB
A   25
CBE
A   26
CBD
A   27
NBC
A   28
CBA
A   29
CAZ
A   30
CAY
A   31
CAX
M  END
