3JAA_DZ4_A_501
     RDKit          3D

 47 49  0  0  0  0  0  0  0  0999 V2000
   -2.7510   28.6900    5.4530 N   0  0  0  0  0  0  0  0  0  0  0  0
   -4.0740   28.9710    5.2570 C   0  0  0  0  0  0  0  0  0  0  0  0
   -4.5440   29.1840    3.9900 N   0  0  0  0  0  0  0  0  0  0  0  0
   -3.7100   29.1380    2.9440 C   0  0  0  0  0  0  0  0  0  0  0  0
   -2.3040   28.8700    3.1470 C   0  0  0  0  0  0  0  0  0  0  0  0
   -1.8610   28.6370    4.4640 C   0  0  0  0  0  0  0  0  0  0  0  0
   -0.5720   28.3600    4.6960 N   0  0  0  0  0  0  0  0  0  0  0  0
   -1.7110   28.9050    1.9090 N   0  0  0  0  0  0  0  0  0  0  0  0
   -2.6440   29.1520    1.0160 C   0  0  0  0  0  0  0  0  0  0  0  0
   -3.8950   29.2870    1.6540 N   0  0  0  0  0  0  0  0  0  0  0  0
   -1.8430   29.4010   -3.0670 P   0  0  0  0  0  0  0  0  0  0  0  0
   -2.6280   32.1530   -3.9050 P   0  0  0  0  0  0  0  0  0  0  0  0
   -0.8150   32.5550   -5.9790 P   0  0  0  0  0  0  0  0  0  0  0  0
   -5.1760   29.5320    1.0440 C   0  0  0  0  0  0  0  0  0  0  0  0
   -2.1400   28.9510   -4.2910 O   0  0  0  0  0  0  0  0  0  0  0  0
   -3.5880   31.4680   -4.6560 O   0  0  0  0  0  0  0  0  0  0  0  0
   -1.0780   31.1900   -6.1780 O   0  0  0  0  0  0  0  0  0  0  0  0
   -5.3120   31.0360    0.6590 C   0  0  0  0  0  0  0  0  0  0  0  0
   -0.6510   28.9210   -2.4090 O   0  0  0  0  0  0  0  0  0  0  0  0
   -3.2180   32.9260   -3.0720 O   0  0  0  0  0  0  0  0  0  0  0  0
   -1.0960   33.4060   -7.0890 O   0  0  0  0  0  0  0  0  0  0  0  0
   -4.9910   31.1640   -0.8260 C   0  0  0  0  0  0  0  0  0  0  0  0
   -5.5130   32.1550   -1.5890 O   0  0  0  0  0  0  0  0  0  0  0  0
   -1.7810   30.9930   -3.0830 N   0  0  0  0  0  0  0  0  0  0  0  0
   -1.6490   33.0810   -4.7770 O   0  0  0  0  0  0  0  0  0  0  0  0
    0.5250   32.7220   -5.6210 O   0  0  0  0  0  0  0  0  0  0  0  0
   -5.3020   29.7010   -1.2260 C   0  0  0  0  0  0  0  0  0  0  0  0
   -5.2750   28.8500   -0.1160 O   0  0  0  0  0  0  0  0  0  0  0  0
   -4.3940   29.2950   -2.4200 C   0  0  0  0  0  0  0  0  0  0  0  0
   -2.9860   29.0380   -2.1300 O   0  0  0  0  0  0  0  0  0  0  0  0
   -4.7592   29.0258    6.1158 H   0  0  0  0  0  0  0  0  0  0  0  0
   -0.2273   28.2859    5.6638 H   0  0  0  0  0  0  0  0  0  0  0  0
    0.0750   28.2210    3.9067 H   0  0  0  0  0  0  0  0  0  0  0  0
   -2.4743   29.2402   -0.0673 H   0  0  0  0  0  0  0  0  0  0  0  0
   -5.9470   29.2259    1.7664 H   0  0  0  0  0  0  0  0  0  0  0  0
   -6.3386   31.3809    0.8517 H   0  0  0  0  0  0  0  0  0  0  0  0
   -4.6234   31.6510    1.2569 H   0  0  0  0  0  0  0  0  0  0  0  0
   -0.7732   28.9702   -1.4278 H   0  0  0  0  0  0  0  0  0  0  0  0
   -3.0016   32.6425   -2.1485 H   0  0  0  0  0  0  0  0  0  0  0  0
   -1.3887   34.2925   -6.7594 H   0  0  0  0  0  0  0  0  0  0  0  0
   -3.9768   31.5430   -1.0203 H   0  0  0  0  0  0  0  0  0  0  0  0
   -5.8850   32.8612   -1.0034 H   0  0  0  0  0  0  0  0  0  0  0  0
   -1.9332   31.2449   -2.0959 H   0  0  0  0  0  0  0  0  0  0  0  0
    0.6042   32.7319   -4.6342 H   0  0  0  0  0  0  0  0  0  0  0  0
   -6.3354   29.6042   -1.5902 H   0  0  0  0  0  0  0  0  0  0  0  0
   -4.8143   28.3780   -2.8586 H   0  0  0  0  0  0  0  0  0  0  0  0
   -4.3913   30.1711   -3.0851 H   0  0  0  0  0  0  0  0  0  0  0  0
  2  1  2  0
  1  6  1  0
  3  2  1  0
  3  4  2  0
 10  4  1  0
  4  5  1  0
  5  8  1  0
  5  6  2  0
  6  7  1  0
  9  8  2  0
 10  9  1  0
 14 10  1  0
 30 11  1  0
 15 11  2  0
 11 19  1  0
 11 24  1  0
 16 12  2  0
 24 12  1  0
 12 20  1  0
 12 25  1  0
 17 13  2  0
 13 25  1  0
 13 21  1  0
 13 26  1  0
 28 14  1  0
 14 18  1  0
 22 18  1  0
 27 22  1  0
 22 23  1  0
 28 27  1  0
 27 29  1  0
 29 30  1  0
  2 31  1  0
  7 32  1  0
  7 33  1  0
  9 34  1  0
 14 35  1  0
 18 36  1  0
 18 37  1  0
 19 38  1  0
 20 39  1  0
 21 40  1  0
 22 41  1  0
 23 42  1  0
 24 43  1  0
 26 44  1  0
 27 45  1  0
 29 46  1  0
 29 47  1  0
A    1
N1
A    2
C2
A    3
N3
A    4
C4
A    5
C5
A    6
C6
A    7
N6
A    8
N7
A    9
C8
A   10
N9
A   11
PA
A   12
PB
A   13
PG
A   14
C1'
A   15
O1A
A   16
O1B
A   17
O1G
A   18
C2'
A   19
O2A
A   20
O2B
A   21
O2G
A   22
C3'
A   23
O3'
A   24
N3A
A   25
O3B
A   26
O3G
A   27
C4'
A   28
O4'
A   29
C5'
A   30
O5'
M  END
