3MR5_XG4_A_433
     RDKit          3D

 48 50  0  0  0  0  0  0  0  0999 V2000
  -43.7650   -4.7070   -7.6540 N   0  0  0  0  0  0  0  0  0  0  0  0
  -44.1950   -5.7520   -8.4450 C   0  0  0  0  0  0  0  0  0  0  0  0
  -43.2930   -6.7180   -8.8260 N   0  0  0  0  0  0  0  0  0  0  0  0
  -45.4690   -5.8690   -8.8390 N   0  0  0  0  0  0  0  0  0  0  0  0
  -46.3870   -4.9230   -8.4830 C   0  0  0  0  0  0  0  0  0  0  0  0
  -46.0110   -3.8350   -7.6540 C   0  0  0  0  0  0  0  0  0  0  0  0
  -44.6420   -3.7310   -7.2700 C   0  0  0  0  0  0  0  0  0  0  0  0
  -44.2420   -2.7830   -6.5600 O   0  0  0  0  0  0  0  0  0  0  0  0
  -47.1130   -3.0610   -7.4570 N   0  0  0  0  0  0  0  0  0  0  0  0
  -48.1330   -3.6230   -8.0750 C   0  0  0  0  0  0  0  0  0  0  0  0
  -47.7430   -4.7810   -8.7180 N   0  0  0  0  0  0  0  0  0  0  0  0
  -52.2880   -2.3860   -8.3680 P   0  0  0  0  0  0  0  0  0  0  0  0
  -53.8610   -4.5130   -6.9950 P   0  0  0  0  0  0  0  0  0  0  0  0
  -55.9440   -3.0120   -5.9420 P   0  0  0  0  0  0  0  0  0  0  0  0
  -48.5360   -5.7360   -9.5440 C   0  0  0  0  0  0  0  0  0  0  0  0
  -53.3310   -2.0680   -9.0920 O   0  0  0  0  0  0  0  0  0  0  0  0
  -54.3510   -4.6660   -8.1360 O   0  0  0  0  0  0  0  0  0  0  0  0
  -55.8510   -2.3310   -7.0870 O   0  0  0  0  0  0  0  0  0  0  0  0
  -49.2840   -6.7110   -8.5850 C   0  0  0  0  0  0  0  0  0  0  0  0
  -51.4940   -1.3540   -7.8960 O   0  0  0  0  0  0  0  0  0  0  0  0
  -53.2200   -5.5530   -6.6090 O   0  0  0  0  0  0  0  0  0  0  0  0
  -57.1710   -3.5130   -5.7110 O   0  0  0  0  0  0  0  0  0  0  0  0
  -50.7080   -6.2420   -8.5820 C   0  0  0  0  0  0  0  0  0  0  0  0
  -51.6960   -7.1310   -8.3060 O   0  0  0  0  0  0  0  0  0  0  0  0
  -52.7570   -3.2660   -7.1400 N   0  0  0  0  0  0  0  0  0  0  0  0
  -54.9040   -4.1540   -5.9300 O   0  0  0  0  0  0  0  0  0  0  0  0
  -55.6240   -2.1910   -4.9290 O   0  0  0  0  0  0  0  0  0  0  0  0
  -50.7400   -5.5940   -9.9590 C   0  0  0  0  0  0  0  0  0  0  0  0
  -49.4800   -5.1690  -10.2950 O   0  0  0  0  0  0  0  0  0  0  0  0
  -51.7220   -4.3830   -9.9230 C   0  0  0  0  0  0  0  0  0  0  0  0
  -51.2990   -3.2250   -9.2030 O   0  0  0  0  0  0  0  0  0  0  0  0
  -42.7813   -4.6619   -7.3521 H   0  0  0  0  0  0  0  0  0  0  0  0
  -42.7866   -7.2603   -8.1116 H   0  0  0  0  0  0  0  0  0  0  0  0
  -43.1239   -6.8991   -9.8258 H   0  0  0  0  0  0  0  0  0  0  0  0
  -49.1577   -3.2229   -8.0780 H   0  0  0  0  0  0  0  0  0  0  0  0
  -47.8111   -6.2225  -10.2132 H   0  0  0  0  0  0  0  0  0  0  0  0
  -49.2187   -7.7441   -8.9571 H   0  0  0  0  0  0  0  0  0  0  0  0
  -48.8482   -6.7101   -7.5750 H   0  0  0  0  0  0  0  0  0  0  0  0
  -51.4988   -1.3602   -6.9060 H   0  0  0  0  0  0  0  0  0  0  0  0
  -53.2024   -5.5815   -5.6196 H   0  0  0  0  0  0  0  0  0  0  0  0
  -57.3236   -3.5753   -4.7348 H   0  0  0  0  0  0  0  0  0  0  0  0
  -50.9508   -5.5871   -7.7322 H   0  0  0  0  0  0  0  0  0  0  0  0
  -51.7951   -7.2202   -7.3250 H   0  0  0  0  0  0  0  0  0  0  0  0
  -51.8800   -3.6826   -6.7963 H   0  0  0  0  0  0  0  0  0  0  0  0
  -55.8011   -2.6454   -4.0674 H   0  0  0  0  0  0  0  0  0  0  0  0
  -51.0812   -6.3212  -10.7105 H   0  0  0  0  0  0  0  0  0  0  0  0
  -51.9091   -4.0769  -10.9628 H   0  0  0  0  0  0  0  0  0  0  0  0
  -52.6060   -4.7489   -9.3802 H   0  0  0  0  0  0  0  0  0  0  0  0
  2  1  1  0
  1  7  1  0
  4  2  2  0
  3  2  1  0
  4  5  1  0
 11  5  1  0
  5  6  2  0
  6  9  1  0
  6  7  1  0
  7  8  2  0
 10  9  2  0
 11 10  1  0
 15 11  1  0
 31 12  1  0
 16 12  2  0
 12 20  1  0
 12 25  1  0
 17 13  2  0
 25 13  1  0
 13 21  1  0
 13 26  1  0
 18 14  2  0
 14 26  1  0
 14 22  1  0
 14 27  1  0
 29 15  1  0
 15 19  1  0
 19 23  1  0
 28 23  1  0
 23 24  1  0
 29 28  1  0
 28 30  1  0
 30 31  1  0
  1 32  1  0
  3 33  1  0
  3 34  1  0
 10 35  1  0
 15 36  1  0
 19 37  1  0
 19 38  1  0
 20 39  1  0
 21 40  1  0
 22 41  1  0
 23 42  1  0
 24 43  1  0
 25 44  1  0
 27 45  1  0
 28 46  1  0
 30 47  1  0
 30 48  1  0
A    1
N1
A    2
C2
A    3
N2
A    4
N3
A    5
C4
A    6
C5
A    7
C6
A    8
O6
A    9
N7
A   10
C8
A   11
N9
A   12
PA
A   13
PB
A   14
PG
A   15
C1'
A   16
O1A
A   17
O1B
A   18
O1G
A   19
C2'
A   20
O2A
A   21
O2B
A   22
O2G
A   23
C3'
A   24
O3'
A   25
N3A
A   26
O3B
A   27
O3G
A   28
C4'
A   29
O4'
A   30
C5'
A   31
O5'
M  END
