2GYE_5A3_?_25
     RDKit          3D

 16 14  0  0  0  0  0  0  0  0999 V2000
   20.0820   29.3370   27.3080 C   0  0  0  0  0  0  0  0  0  0  0  0
   19.1350   29.1410   28.4370 C   0  0  0  0  0  0  0  0  0  0  0  0
   19.5540   28.4100   29.5570 C   0  0  0  0  0  0  0  0  0  0  0  0
   17.8030   29.6130   28.3990 C   0  0  0  0  0  0  0  0  0  0  0  0
   20.0820   29.3370   28.4080 H   0  0  0  0  0  0  0  0  0  0  0  0
   20.0820   30.3741   26.9413 H   0  0  0  0  0  0  0  0  0  0  0  0
   20.9801   28.8185   26.9413 H   0  0  0  0  0  0  0  0  0  0  0  0
   19.1839   28.8185   26.9413 H   0  0  0  0  0  0  0  0  0  0  0  0
   18.6133   30.0513   28.7675 H   0  0  0  0  0  0  0  0  0  0  0  0
   20.0107   29.4194   27.8323 H   0  0  0  0  0  0  0  0  0  0  0  0
   18.4522   28.5261   27.8323 H   0  0  0  0  0  0  0  0  0  0  0  0
   20.1493   28.8357   30.3782 H   0  0  0  0  0  0  0  0  0  0  0  0
   19.8896   27.4301   29.9273 H   0  0  0  0  0  0  0  0  0  0  0  0
   17.1285   30.0764   29.1341 H   0  0  0  0  0  0  0  0  0  0  0  0
   18.2508   30.3950   27.7682 H   0  0  0  0  0  0  0  0  0  0  0  0
   17.2336   28.9145   27.7682 H   0  0  0  0  0  0  0  0  0  0  0  0
  4  3  1  0
  2  3  1  0
  1  5  1  0
  1  6  1  0
  1  7  1  0
  1  8  1  0
  2  9  1  0
  2 10  1  0
  2 11  1  0
  3 12  1  0
  3 13  1  0
  4 14  1  0
  4 15  1  0
  4 16  1  0
A    1
C2
A    2
C4
A    3
C5
A    4
C6
M  END
