5DGM_59Z_F_401
     RDKit          3D

 40 42  0  0  0  0  0  0  0  0999 V2000
    2.0160   68.8220   27.9400 C   0  0  0  0  0  0  0  0  0  0  0  0
    3.3160   76.1660   27.9320 C   0  0  0  0  0  0  0  0  0  0  0  0
    0.5330   75.6290   27.3170 C   0  0  0  0  0  0  0  0  0  0  0  0
    1.3210   73.1280   27.3690 C   0  0  0  0  0  0  0  0  0  0  0  0
    2.7430   78.5630   27.9710 C   0  0  0  0  0  0  0  0  0  0  0  0
    4.0610   78.9070   28.2870 C   0  0  0  0  0  0  0  0  0  0  0  0
    1.4340   68.3180   26.2930 P   0  0  0  0  0  0  0  0  0  0  0  0
    1.7560   69.2530   25.1690 O   0  0  0  0  0  0  0  0  0  0  0  0
    2.0200   66.8380   26.1570 O   0  0  0  0  0  0  0  0  0  0  0  0
   -0.1400   68.0600   26.4270 O   0  0  0  0  0  0  0  0  0  0  0  0
    1.8850   70.2710   28.1190 N   0  0  0  0  0  0  0  0  0  0  0  0
    2.7300   71.1500   27.5120 C   0  0  0  0  0  0  0  0  0  0  0  0
    3.6340   70.7860   26.7770 O   0  0  0  0  0  0  0  0  0  0  0  0
    2.5220   72.6110   27.6530 C   0  0  0  0  0  0  0  0  0  0  0  0
    3.4190   73.5810   27.8440 N   0  0  0  0  0  0  0  0  0  0  0  0
    2.8270   74.8190   27.7830 C   0  0  0  0  0  0  0  0  0  0  0  0
    2.3630   77.2170   27.7800 C   0  0  0  0  0  0  0  0  0  0  0  0
    1.0120   76.9440   27.4540 C   0  0  0  0  0  0  0  0  0  0  0  0
    1.4710   74.6100   27.4920 C   0  0  0  0  0  0  0  0  0  0  0  0
    5.0180   77.9010   28.4230 C   0  0  0  0  0  0  0  0  0  0  0  0
    4.6430   76.5630   28.2620 C   0  0  0  0  0  0  0  0  0  0  0  0
    4.8520   73.3260   28.1030 C   0  0  0  0  0  0  0  0  0  0  0  0
    5.7530   73.5700   26.9010 C   0  0  0  0  0  0  0  0  0  0  0  0
    5.3620   73.9620   25.7980 O   0  0  0  0  0  0  0  0  0  0  0  0
    7.0450   73.3120   27.1460 O   0  0  0  0  0  0  0  0  0  0  0  0
    1.4170   68.3086   28.7066 H   0  0  0  0  0  0  0  0  0  0  0  0
    3.0774   68.5499   28.0367 H   0  0  0  0  0  0  0  0  0  0  0  0
   -0.5209   75.4154   27.0851 H   0  0  0  0  0  0  0  0  0  0  0  0
    0.4090   72.5750   27.0998 H   0  0  0  0  0  0  0  0  0  0  0  0
    1.9879   79.3564   27.8693 H   0  0  0  0  0  0  0  0  0  0  0  0
    4.3408   79.9616   28.4271 H   0  0  0  0  0  0  0  0  0  0  0  0
    2.1703   66.4584   27.0589 H   0  0  0  0  0  0  0  0  0  0  0  0
   -0.3874   68.0194   27.3847 H   0  0  0  0  0  0  0  0  0  0  0  0
    1.1325   70.6348   28.7209 H   0  0  0  0  0  0  0  0  0  0  0  0
    0.3180   77.7841   27.3038 H   0  0  0  0  0  0  0  0  0  0  0  0
    6.0618   78.1586   28.6556 H   0  0  0  0  0  0  0  0  0  0  0  0
    5.4070   75.7831   28.3963 H   0  0  0  0  0  0  0  0  0  0  0  0
    4.9658   72.2767   28.4128 H   0  0  0  0  0  0  0  0  0  0  0  0
    5.1647   74.0353   28.8834 H   0  0  0  0  0  0  0  0  0  0  0  0
    7.3685   73.2474   28.0794 H   0  0  0  0  0  0  0  0  0  0  0  0
  8  7  2  0
 24 23  2  0
  9  7  1  0
  7 10  1  0
  7  1  1  0
 13 12  2  0
 23 25  1  0
 23 22  1  0
  3 18  2  0
  3 19  1  0
  4 19  1  0
  4 14  2  0
 18 17  1  0
 19 16  2  0
 12 14  1  0
 12 11  1  0
 14 15  1  0
 17  2  2  0
 17  5  1  0
 16 15  1  0
 16  2  1  0
 15 22  1  0
  2 21  1  0
  1 11  1  0
  5  6  2  0
 21 20  2  0
  6 20  1  0
  1 26  1  0
  1 27  1  0
  3 28  1  0
  4 29  1  0
  5 30  1  0
  6 31  1  0
  9 32  1  0
 10 33  1  0
 11 34  1  0
 18 35  1  0
 20 36  1  0
 21 37  1  0
 22 38  1  0
 22 39  1  0
 25 40  1  0
A    1
C7
A    2
C17
A    3
C21
A    4
C24
A    5
C26
A    6
C28
A    7
P1
A    8
O2
A    9
O3
A   10
O5
A   11
N10
A   12
C12
A   13
O13
A   14
C14
A   15
N15
A   16
C16
A   17
C18
A   18
C19
A   19
C23
A   20
C30
A   21
C32
A   22
C34
A   23
C37
A   24
O38
A   25
O39
M  END
