5DGN_59Y_F_401
     RDKit          3D

 36 39  0  0  0  0  0  0  0  0999 V2000
    3.4410   73.4470   28.2160 C   0  0  0  0  0  0  0  0  0  0  0  0
    3.0400   72.6510   29.3150 C   0  0  0  0  0  0  0  0  0  0  0  0
    3.7150   71.4600   29.6250 C   0  0  0  0  0  0  0  0  0  0  0  0
    6.3320   71.4710   26.9570 C   0  0  0  0  0  0  0  0  0  0  0  0
    6.7310   72.2720   25.8760 C   0  0  0  0  0  0  0  0  0  0  0  0
    6.0150   73.4470   25.5720 C   0  0  0  0  0  0  0  0  0  0  0  0
    6.4350   74.3130   24.4010 C   0  0  0  0  0  0  0  0  0  0  0  0
    2.3800   77.1020   27.6560 C   0  0  0  0  0  0  0  0  0  0  0  0
    3.2150   75.9990   27.9860 C   0  0  0  0  0  0  0  0  0  0  0  0
    4.5460   76.2650   28.4140 C   0  0  0  0  0  0  0  0  0  0  0  0
    5.0510   77.5690   28.4690 C   0  0  0  0  0  0  0  0  0  0  0  0
    4.2040   78.6430   28.1660 C   0  0  0  0  0  0  0  0  0  0  0  0
    2.8850   78.4150   27.7370 C   0  0  0  0  0  0  0  0  0  0  0  0
    4.8050   71.0660   28.8310 C   0  0  0  0  0  0  0  0  0  0  0  0
    2.6670   74.6830   27.8990 C   0  0  0  0  0  0  0  0  0  0  0  0
    1.0430   76.8780   27.2530 C   0  0  0  0  0  0  0  0  0  0  0  0
    1.3250   74.4840   27.4940 C   0  0  0  0  0  0  0  0  0  0  0  0
    0.5100   75.5800   27.1720 C   0  0  0  0  0  0  0  0  0  0  0  0
    4.5370   73.0470   27.4100 C   0  0  0  0  0  0  0  0  0  0  0  0
    5.2220   71.8450   27.7330 C   0  0  0  0  0  0  0  0  0  0  0  0
    4.9400   73.7940   26.3330 N   0  0  0  0  0  0  0  0  0  0  0  0
    5.5100   74.7380   23.5360 O   0  0  0  0  0  0  0  0  0  0  0  0
    7.6170   74.5990   24.2440 O   0  0  0  0  0  0  0  0  0  0  0  0
    2.1885   72.9696   29.9342 H   0  0  0  0  0  0  0  0  0  0  0  0
    3.3949   70.8436   30.4780 H   0  0  0  0  0  0  0  0  0  0  0  0
    6.8872   70.5521   27.1964 H   0  0  0  0  0  0  0  0  0  0  0  0
    7.6006   71.9833   25.2674 H   0  0  0  0  0  0  0  0  0  0  0  0
    5.1932   75.4257   28.7086 H   0  0  0  0  0  0  0  0  0  0  0  0
    6.1001   77.7485   28.7467 H   0  0  0  0  0  0  0  0  0  0  0  0
    4.5745   79.6740   28.2647 H   0  0  0  0  0  0  0  0  0  0  0  0
    2.2438   79.2658   27.4631 H   0  0  0  0  0  0  0  0  0  0  0  0
    5.3410   70.1356   29.0699 H   0  0  0  0  0  0  0  0  0  0  0  0
    0.4066   77.7381   26.9975 H   0  0  0  0  0  0  0  0  0  0  0  0
    0.9186   73.4637   27.4314 H   0  0  0  0  0  0  0  0  0  0  0  0
   -0.5334   75.4252   26.8600 H   0  0  0  0  0  0  0  0  0  0  0  0
    8.2009   74.7403   25.0309 H   0  0  0  0  0  0  0  0  0  0  0  0
 22  7  2  0
 23  7  1  0
  7  6  1  0
  6  5  2  0
  6 21  1  0
  5  4  1  0
 21 19  2  0
  4 20  2  0
 18 16  2  0
 18 17  1  0
 16  8  1  0
 19 20  1  0
 19  1  1  0
 17 15  2  0
  8 13  2  0
  8  9  1  0
 20 14  1  0
 13 12  1  0
 15  9  1  0
 15  1  1  0
  9 10  2  0
 12 11  2  0
  1  2  2  0
 10 11  1  0
 14  3  2  0
  2  3  1  0
  2 24  1  0
  3 25  1  0
  4 26  1  0
  5 27  1  0
 10 28  1  0
 11 29  1  0
 12 30  1  0
 13 31  1  0
 14 32  1  0
 16 33  1  0
 17 34  1  0
 18 35  1  0
 23 36  1  0
A    1
C1
A    2
C2
A    3
C3
A    4
C11
A    5
C12
A    6
C13
A    7
C15
A    8
C16
A    9
C17
A   10
C18
A   11
C19
A   12
C20
A   13
C21
A   14
C4
A   15
C5
A   16
C6
A   17
C7
A   18
C8
A   19
C9
A   20
C10
A   21
N14
A   22
O22
A   23
O23
M  END
