2GYJ_5A7_?_25
     RDKit          3D

 53 49  0  0  0  0  0  0  0  0999 V2000
   20.5550   30.2740   27.5010 C   0  0  0  0  0  0  0  0  0  0  0  0
   20.0150   29.5540   29.4030 C   0  0  0  0  0  0  0  0  0  0  0  0
   19.3290   29.1660   30.6260 C   0  0  0  0  0  0  0  0  0  0  0  0
   18.1410   29.8030   31.0370 C   0  0  0  0  0  0  0  0  0  0  0  0
   17.4750   29.4290   32.2190 C   0  0  0  0  0  0  0  0  0  0  0  0
   19.8380   28.1320   31.4230 C   0  0  0  0  0  0  0  0  0  0  0  0
   19.1610   27.7850   32.5720 C   0  0  0  0  0  0  0  0  0  0  0  0
   18.0070   28.3940   32.9820 C   0  0  0  0  0  0  0  0  0  0  0  0
   18.5370   26.9210   34.3910 C   0  0  0  0  0  0  0  0  0  0  0  0
   19.9390   24.2970   36.6920 C   0  0  0  0  0  0  0  0  0  0  0  0
   17.5530   25.6780   36.2940 C   0  0  0  0  0  0  0  0  0  0  0  0
   17.6480   24.6930   37.2810 C   0  0  0  0  0  0  0  0  0  0  0  0
   18.8430   23.9960   37.4920 C   0  0  0  0  0  0  0  0  0  0  0  0
   23.5600   28.8990   24.8400 C   0  0  0  0  0  0  0  0  0  0  0  0
   22.5290   29.3570   25.7400 C   0  0  0  0  0  0  0  0  0  0  0  0
   21.6210   30.3530   25.3490 C   0  0  0  0  0  0  0  0  0  0  0  0
   20.6390   30.8280   26.2290 C   0  0  0  0  0  0  0  0  0  0  0  0
   22.4300   28.8160   27.0220 C   0  0  0  0  0  0  0  0  0  0  0  0
   21.4290   29.2820   27.8580 C   0  0  0  0  0  0  0  0  0  0  0  0
   20.5550   30.2740   28.6010 H   0  0  0  0  0  0  0  0  0  0  0  0
   20.5550   31.3111   27.1343 H   0  0  0  0  0  0  0  0  0  0  0  0
   21.4531   29.7555   27.1343 H   0  0  0  0  0  0  0  0  0  0  0  0
   19.6569   29.7555   27.1343 H   0  0  0  0  0  0  0  0  0  0  0  0
   19.8529   28.8729   30.2514 H   0  0  0  0  0  0  0  0  0  0  0  0
   19.4117   30.4690   29.3092 H   0  0  0  0  0  0  0  0  0  0  0  0
   17.7242   30.6120   30.4191 H   0  0  0  0  0  0  0  0  0  0  0  0
   16.6441   29.5528   32.9292 H   0  0  0  0  0  0  0  0  0  0  0  0
   20.2540   27.3205   32.0381 H   0  0  0  0  0  0  0  0  0  0  0  0
   20.3469   28.4359   30.4963 H   0  0  0  0  0  0  0  0  0  0  0  0
   19.2371   28.4108   33.4734 H   0  0  0  0  0  0  0  0  0  0  0  0
   18.1927   27.2630   32.5687 H   0  0  0  0  0  0  0  0  0  0  0  0
   19.9759   27.0461   32.5687 H   0  0  0  0  0  0  0  0  0  0  0  0
   18.0070   28.3940   34.0820 H   0  0  0  0  0  0  0  0  0  0  0  0
   18.0070   29.4311   32.6153 H   0  0  0  0  0  0  0  0  0  0  0  0
   18.9051   27.8755   32.6153 H   0  0  0  0  0  0  0  0  0  0  0  0
   17.1089   27.8755   32.6153 H   0  0  0  0  0  0  0  0  0  0  0  0
   18.1013   27.7364   34.9870 H   0  0  0  0  0  0  0  0  0  0  0  0
   19.3420   27.3203   33.7565 H   0  0  0  0  0  0  0  0  0  0  0  0
   17.7577   26.4738   33.7565 H   0  0  0  0  0  0  0  0  0  0  0  0
   20.6613   23.5958   37.1354 H   0  0  0  0  0  0  0  0  0  0  0  0
   16.6884   25.4812   36.9450 H   0  0  0  0  0  0  0  0  0  0  0  0
   17.4753   26.4202   35.4859 H   0  0  0  0  0  0  0  0  0  0  0  0
   17.1998   24.9544   38.2510 H   0  0  0  0  0  0  0  0  0  0  0  0
   17.8549   25.6121   36.7131 H   0  0  0  0  0  0  0  0  0  0  0  0
   16.9499   24.0604   36.7131 H   0  0  0  0  0  0  0  0  0  0  0  0
   19.0210   23.8922   38.5725 H   0  0  0  0  0  0  0  0  0  0  0  0
   18.7711   22.9982   37.0347 H   0  0  0  0  0  0  0  0  0  0  0  0
   19.6762   24.5498   37.0347 H   0  0  0  0  0  0  0  0  0  0  0  0
   24.3907   28.4365   24.2867 H   0  0  0  0  0  0  0  0  0  0  0  0
   22.4539   28.9193   26.7464 H   0  0  0  0  0  0  0  0  0  0  0  0
   21.2532   31.0552   24.5864 H   0  0  0  0  0  0  0  0  0  0  0  0
   21.6912   29.8943   28.7334 H   0  0  0  0  0  0  0  0  0  0  0  0
   20.6195   28.8018   28.4273 H   0  0  0  0  0  0  0  0  0  0  0  0
 11 10  2  3
 10  9  1  0
 15 16  2  0
 15 14  1  0
 16 19  1  0
 14 17  2  0
 19 18  1  0
 17 18  1  0
 17  3  1  0
  7  3  1  0
 18  2  2  3
  3  4  2  0
  6  5  2  0
  4  5  1  0
 12 13  1  0
  1 20  1  0
  1 21  1  0
  1 22  1  0
  1 23  1  0
  2 24  1  0
  2 25  1  0
  4 26  1  0
  5 27  1  0
  6 28  1  0
  6 29  1  0
  7 30  1  0
  7 31  1  0
  7 32  1  0
  8 33  1  0
  8 34  1  0
  8 35  1  0
  8 36  1  0
  9 37  1  0
  9 38  1  0
  9 39  1  0
 10 40  1  0
 11 41  1  0
 11 42  1  0
 12 43  1  0
 12 44  1  0
 12 45  1  0
 13 46  1  0
 13 47  1  0
 13 48  1  0
 14 49  1  0
 15 50  1  0
 16 51  1  0
 19 52  1  0
 19 53  1  0
A    1
C12
A    2
C14
A    3
C15
A    4
C16
A    5
C17
A    6
C18
A    7
C19
A    8
C21
A    9
C23
A   10
C26
A   11
C27
A   12
C28
A   13
C29
A   14
C5
A   15
C6
A   16
C7
A   17
C8
A   18
C9
A   19
C10
M  END
