5DGU_5B7_A_201
     RDKit          3D

 84 87  0  0  0  0  0  0  0  0999 V2000
   21.0870   27.7320   14.9240 C   0  0  0  0  0  0  0  0  0  0  0  0
   19.7070   27.7450   14.6640 C   0  0  0  0  0  0  0  0  0  0  0  0
   18.9320   26.6070   14.9660 C   0  0  0  0  0  0  0  0  0  0  0  0
   19.5170   25.4800   15.5180 C   0  0  0  0  0  0  0  0  0  0  0  0
   20.8850   25.4560   15.7790 C   0  0  0  0  0  0  0  0  0  0  0  0
   21.6820   26.5810   15.4840 C   0  0  0  0  0  0  0  0  0  0  0  0
   18.5240   24.0650   15.8910 S   0  0  0  0  0  0  0  0  0  0  0  0
   17.4480   24.0070   14.8840 O   0  0  0  0  0  0  0  0  0  0  0  0
   19.4510   22.9130   16.0770 O   0  0  0  0  0  0  0  0  0  0  0  0
   17.8140   24.3110   17.3700 N   0  0  0  0  0  0  0  0  0  0  0  0
   18.6980   24.6170   18.4740 C   0  0  0  0  0  0  0  0  0  0  0  0
   18.3800   23.8620   19.7750 C   0  0  0  0  0  0  0  0  0  0  0  0
   18.4680   22.3390   19.6070 C   0  0  0  0  0  0  0  0  0  0  0  0
   19.3680   24.2860   20.8840 C   0  0  0  0  0  0  0  0  0  0  0  0
   16.5420   25.0170   17.3990 C   0  0  0  0  0  0  0  0  0  0  0  0
   15.4480   24.0820   17.9260 C   0  0  0  0  0  0  0  0  0  0  0  0
   14.2740   24.8400   18.2620 O   0  0  0  0  0  0  0  0  0  0  0  0
   15.0590   22.9940   16.9270 C   0  0  0  0  0  0  0  0  0  0  0  0
   14.1890   22.0000   17.5610 N   0  0  0  0  0  0  0  0  0  0  0  0
   14.4580   20.7030   17.7020 C   0  0  0  0  0  0  0  0  0  0  0  0
   15.5710   20.1940   17.4960 O   0  0  0  0  0  0  0  0  0  0  0  0
   13.3670   19.9680   18.0730 O   0  0  0  0  0  0  0  0  0  0  0  0
   13.6300   18.5770   18.2790 C   0  0  0  0  0  0  0  0  0  0  0  0
   13.8690   18.4070   19.7820 C   0  0  0  0  0  0  0  0  0  0  0  0
   11.4290   18.0130   20.1880 O   0  0  0  0  0  0  0  0  0  0  0  0
   11.1900   17.9780   18.7800 C   0  0  0  0  0  0  0  0  0  0  0  0
   10.6250   19.2310   18.3840 O   0  0  0  0  0  0  0  0  0  0  0  0
   10.8520   19.4230   16.9840 C   0  0  0  0  0  0  0  0  0  0  0  0
   11.8050   18.3120   16.5290 C   0  0  0  0  0  0  0  0  0  0  0  0
   12.3780   17.7920   17.8760 C   0  0  0  0  0  0  0  0  0  0  0  0
   14.3360   23.5560   15.6800 C   0  0  0  0  0  0  0  0  0  0  0  0
   12.7860   21.9140   14.5710 C   0  0  0  0  0  0  0  0  0  0  0  0
   12.4990   20.8520   13.7360 C   0  0  0  0  0  0  0  0  0  0  0  0
   13.5220   20.1560   13.0710 C   0  0  0  0  0  0  0  0  0  0  0  0
   14.7970   20.6790   13.1340 C   0  0  0  0  0  0  0  0  0  0  0  0
   15.0940   21.7790   13.9810 C   0  0  0  0  0  0  0  0  0  0  0  0
   14.0840   22.3860   14.7020 C   0  0  0  0  0  0  0  0  0  0  0  0
   21.7730   28.8690   14.6040 O   0  0  0  0  0  0  0  0  0  0  0  0
   23.1060   28.8440   15.0580 C   0  0  0  0  0  0  0  0  0  0  0  0
   10.9720   17.2700   15.9700 O   0  0  0  0  0  0  0  0  0  0  0  0
   10.7600   17.4680   14.5710 C   0  0  0  0  0  0  0  0  0  0  0  0
   12.6050   18.7500   20.5460 C   0  0  0  0  0  0  0  0  0  0  0  0
   19.2341   28.6372   14.2277 H   0  0  0  0  0  0  0  0  0  0  0  0
   17.8513   26.6144   14.7610 H   0  0  0  0  0  0  0  0  0  0  0  0
   21.3446   24.5573   16.2163 H   0  0  0  0  0  0  0  0  0  0  0  0
   22.7625   26.5618   15.6893 H   0  0  0  0  0  0  0  0  0  0  0  0
   19.7249   24.3634   18.1721 H   0  0  0  0  0  0  0  0  0  0  0  0
   18.5652   25.6867   18.6932 H   0  0  0  0  0  0  0  0  0  0  0  0
   17.3462   24.1214   20.0469 H   0  0  0  0  0  0  0  0  0  0  0  0
   18.4956   21.8618   20.5977 H   0  0  0  0  0  0  0  0  0  0  0  0
   17.5891   21.9800   19.0514 H   0  0  0  0  0  0  0  0  0  0  0  0
   19.3824   22.0836   19.0514 H   0  0  0  0  0  0  0  0  0  0  0  0
   18.9183   24.0930   21.8691 H   0  0  0  0  0  0  0  0  0  0  0  0
   20.2989   23.7081   20.7863 H   0  0  0  0  0  0  0  0  0  0  0  0
   19.5905   25.3588   20.7863 H   0  0  0  0  0  0  0  0  0  0  0  0
   16.6243   25.8931   18.0591 H   0  0  0  0  0  0  0  0  0  0  0  0
   16.2831   25.3460   16.3818 H   0  0  0  0  0  0  0  0  0  0  0  0
   15.8644   23.5870   18.8157 H   0  0  0  0  0  0  0  0  0  0  0  0
   14.1878   24.8957   19.2467 H   0  0  0  0  0  0  0  0  0  0  0  0
   16.0009   22.5301   16.5991 H   0  0  0  0  0  0  0  0  0  0  0  0
   13.2879   22.3344   17.9312 H   0  0  0  0  0  0  0  0  0  0  0  0
   14.4910   18.2216   17.6939 H   0  0  0  0  0  0  0  0  0  0  0  0
   14.1504   17.3644   19.9912 H   0  0  0  0  0  0  0  0  0  0  0  0
   14.6787   19.0807   20.0991 H   0  0  0  0  0  0  0  0  0  0  0  0
   10.5493   17.0924   18.6571 H   0  0  0  0  0  0  0  0  0  0  0  0
   11.3080   20.4082   16.8067 H   0  0  0  0  0  0  0  0  0  0  0  0
    9.9063   19.3835   16.4235 H   0  0  0  0  0  0  0  0  0  0  0  0
   12.5754   18.6191   15.8063 H   0  0  0  0  0  0  0  0  0  0  0  0
   12.7427   16.7542   17.8793 H   0  0  0  0  0  0  0  0  0  0  0  0
   14.9652   24.3174   15.1960 H   0  0  0  0  0  0  0  0  0  0  0  0
   13.3826   24.0217   15.9703 H   0  0  0  0  0  0  0  0  0  0  0  0
   11.9747   22.3919   15.1397 H   0  0  0  0  0  0  0  0  0  0  0  0
   11.4526   20.5463   13.5894 H   0  0  0  0  0  0  0  0  0  0  0  0
   13.3139   19.2271   12.5197 H   0  0  0  0  0  0  0  0  0  0  0  0
   15.5950   20.2374   12.5191 H   0  0  0  0  0  0  0  0  0  0  0  0
   16.1272   22.1475   14.0631 H   0  0  0  0  0  0  0  0  0  0  0  0
   23.1188   28.8438   16.1579 H   0  0  0  0  0  0  0  0  0  0  0  0
   23.6033   27.9364   14.6853 H   0  0  0  0  0  0  0  0  0  0  0  0
   23.6370   29.7323   14.6853 H   0  0  0  0  0  0  0  0  0  0  0  0
    9.9634   18.2120   14.4225 H   0  0  0  0  0  0  0  0  0  0  0  0
   11.6897   17.8286   14.1067 H   0  0  0  0  0  0  0  0  0  0  0  0
   10.4636   16.5159   14.1067 H   0  0  0  0  0  0  0  0  0  0  0  0
   12.7999   18.5727   21.6140 H   0  0  0  0  0  0  0  0  0  0  0  0
   12.3838   19.7976   20.2936 H   0  0  0  0  0  0  0  0  0  0  0  0
 34 35  2  0
 34 33  1  0
 35 36  1  0
 33 32  2  0
 36 37  2  0
 32 37  1  0
 41 40  1  0
 38  1  1  0
 38 39  1  0
  2  1  2  0
  2  3  1  0
 37 31  1  0
  8  7  2  0
  1  6  1  0
  3  4  2  0
  6  5  2  0
  4  5  1  0
  4  7  1  0
 31 18  1  0
  7  9  2  0
  7 10  1  0
 40 29  1  0
 29 28  1  0
 29 30  1  0
 18 19  1  0
 18 16  1  0
 28 27  1  0
 10 15  1  0
 10 11  1  0
 15 16  1  0
 21 20  2  0
 19 20  1  0
 20 22  1  0
 30 23  1  0
 30 26  1  0
 16 17  1  0
 22 23  1  0
 23 24  1  0
 27 26  1  0
 11 12  1  0
 26 25  1  0
 13 12  1  0
 12 14  1  0
 24 42  1  0
 25 42  1  0
  2 43  1  0
  3 44  1  0
  5 45  1  0
  6 46  1  0
 11 47  1  0
 11 48  1  0
 12 49  1  0
 13 50  1  0
 13 51  1  0
 13 52  1  0
 14 53  1  0
 14 54  1  0
 14 55  1  0
 15 56  1  0
 15 57  1  0
 16 58  1  0
 17 59  1  0
 18 60  1  0
 19 61  1  0
 23 62  1  0
 24 63  1  0
 24 64  1  0
 26 65  1  0
 28 66  1  0
 28 67  1  0
 29 68  1  0
 30 69  1  0
 31 70  1  0
 31 71  1  0
 32 72  1  0
 33 73  1  0
 34 74  1  0
 35 75  1  0
 36 76  1  0
 39 77  1  0
 39 78  1  0
 39 79  1  0
 41 80  1  0
 41 81  1  0
 41 82  1  0
 42 83  1  0
 42 84  1  0
A    1
C2
A    2
C3
A    3
C4
A    4
C5
A    5
C6
A    6
C7
A    7
S8
A    8
O9
A    9
O10
A   10
N11
A   11
C12
A   12
C13
A   13
C14
A   14
C15
A   15
C16
A   16
C17
A   17
O18
A   18
C19
A   19
N20
A   20
C21
A   21
O22
A   22
O23
A   23
C24
A   24
C25
A   25
O26
A   26
C27
A   27
O28
A   28
C29
A   29
C30
A   30
C31
A   31
C32
A   32
C33
A   33
C34
A   34
C35
A   35
C36
A   36
C37
A   37
C38
A   38
O39
A   39
C40
A   40
O41
A   41
C42
A   42
C44
M  END
