5DGW_5B5_A_201
     RDKit          3D

 88 91  0  0  0  0  0  0  0  0999 V2000
   20.9280   27.6140   14.7050 C   0  0  0  0  0  0  0  0  0  0  0  0
   21.5240   26.5320   15.3590 C   0  0  0  0  0  0  0  0  0  0  0  0
   20.7380   25.4540   15.7580 C   0  0  0  0  0  0  0  0  0  0  0  0
   19.3680   25.4620   15.5400 C   0  0  0  0  0  0  0  0  0  0  0  0
   18.8000   26.4980   14.8020 C   0  0  0  0  0  0  0  0  0  0  0  0
   19.5710   27.5970   14.4110 C   0  0  0  0  0  0  0  0  0  0  0  0
   18.3750   24.0780   15.9550 S   0  0  0  0  0  0  0  0  0  0  0  0
   17.3050   23.9720   14.9120 O   0  0  0  0  0  0  0  0  0  0  0  0
   19.2360   22.8470   15.9650 O   0  0  0  0  0  0  0  0  0  0  0  0
   17.6930   24.1800   17.4330 N   0  0  0  0  0  0  0  0  0  0  0  0
   18.6360   24.5200   18.4830 C   0  0  0  0  0  0  0  0  0  0  0  0
   18.3490   23.7730   19.7910 C   0  0  0  0  0  0  0  0  0  0  0  0
   18.3490   22.2520   19.6120 C   0  0  0  0  0  0  0  0  0  0  0  0
   19.3910   24.1550   20.8530 C   0  0  0  0  0  0  0  0  0  0  0  0
   16.4560   24.9320   17.4660 C   0  0  0  0  0  0  0  0  0  0  0  0
   15.2790   24.0520   17.8690 C   0  0  0  0  0  0  0  0  0  0  0  0
   14.1090   24.8320   18.1130 O   0  0  0  0  0  0  0  0  0  0  0  0
   14.9900   22.9080   16.8920 C   0  0  0  0  0  0  0  0  0  0  0  0
   14.1310   21.9330   17.5780 N   0  0  0  0  0  0  0  0  0  0  0  0
   14.3320   20.6190   17.6930 C   0  0  0  0  0  0  0  0  0  0  0  0
   15.3780   20.0800   17.3370 O   0  0  0  0  0  0  0  0  0  0  0  0
   13.2950   19.9090   18.2250 O   0  0  0  0  0  0  0  0  0  0  0  0
   13.5390   18.5040   18.3270 C   0  0  0  0  0  0  0  0  0  0  0  0
   12.5550   18.6510   20.5990 C   0  0  0  0  0  0  0  0  0  0  0  0
   11.3610   17.9840   20.1980 O   0  0  0  0  0  0  0  0  0  0  0  0
   11.1220   17.9720   18.8050 C   0  0  0  0  0  0  0  0  0  0  0  0
   10.5530   19.2020   18.3460 O   0  0  0  0  0  0  0  0  0  0  0  0
   10.6170   19.1660   16.9270 C   0  0  0  0  0  0  0  0  0  0  0  0
   11.7640   18.2380   16.5490 C   0  0  0  0  0  0  0  0  0  0  0  0
   12.2990   17.7440   17.8970 C   0  0  0  0  0  0  0  0  0  0  0  0
   14.2160   23.3950   15.6580 C   0  0  0  0  0  0  0  0  0  0  0  0
   12.5090   21.8900   14.5450 C   0  0  0  0  0  0  0  0  0  0  0  0
   12.1530   20.8070   13.7400 C   0  0  0  0  0  0  0  0  0  0  0  0
   13.1440   20.0650   13.1060 C   0  0  0  0  0  0  0  0  0  0  0  0
   14.4860   20.3860   13.2990 C   0  0  0  0  0  0  0  0  0  0  0  0
   14.8350   21.4620   14.1190 C   0  0  0  0  0  0  0  0  0  0  0  0
   13.8480   22.2120   14.7440 C   0  0  0  0  0  0  0  0  0  0  0  0
   21.6950   28.6950   14.3930 O   0  0  0  0  0  0  0  0  0  0  0  0
   22.9410   28.6240   15.0930 C   0  0  0  0  0  0  0  0  0  0  0  0
   13.7800   18.2000   19.8080 C   0  0  0  0  0  0  0  0  0  0  0  0
   11.1580   17.0920   15.8420 N   0  0  0  0  0  0  0  0  0  0  0  0
   10.7470   17.4690   14.4830 C   0  0  0  0  0  0  0  0  0  0  0  0
   10.7310   16.2140   13.5920 C   0  0  0  0  0  0  0  0  0  0  0  0
   22.6060   26.5320   15.5571 H   0  0  0  0  0  0  0  0  0  0  0  0
   21.2072   24.5892   16.2500 H   0  0  0  0  0  0  0  0  0  0  0  0
   17.7366   26.4511   14.5247 H   0  0  0  0  0  0  0  0  0  0  0  0
   19.1075   28.4391   13.8762 H   0  0  0  0  0  0  0  0  0  0  0  0
   19.6502   24.2620   18.1441 H   0  0  0  0  0  0  0  0  0  0  0  0
   18.5400   25.5972   18.6840 H   0  0  0  0  0  0  0  0  0  0  0  0
   17.3414   24.0725   20.1152 H   0  0  0  0  0  0  0  0  0  0  0  0
   19.3861   21.8879   19.5691 H   0  0  0  0  0  0  0  0  0  0  0  0
   17.8305   21.7829   20.4611 H   0  0  0  0  0  0  0  0  0  0  0  0
   17.8305   21.9928   18.6772 H   0  0  0  0  0  0  0  0  0  0  0  0
   18.9665   23.9994   21.8558 H   0  0  0  0  0  0  0  0  0  0  0  0
   20.2855   23.5263   20.7319 H   0  0  0  0  0  0  0  0  0  0  0  0
   19.6672   25.2128   20.7319 H   0  0  0  0  0  0  0  0  0  0  0  0
   16.5551   25.7516   18.1929 H   0  0  0  0  0  0  0  0  0  0  0  0
   16.2637   25.3253   16.4569 H   0  0  0  0  0  0  0  0  0  0  0  0
   15.5824   23.5672   18.8087 H   0  0  0  0  0  0  0  0  0  0  0  0
   13.9712   24.9238   19.0891 H   0  0  0  0  0  0  0  0  0  0  0  0
   15.9511   22.4805   16.5703 H   0  0  0  0  0  0  0  0  0  0  0  0
   13.2783   22.3056   18.0195 H   0  0  0  0  0  0  0  0  0  0  0  0
   14.3929   18.2131   17.6975 H   0  0  0  0  0  0  0  0  0  0  0  0
   12.7305   18.4462   21.6654 H   0  0  0  0  0  0  0  0  0  0  0  0
   12.4143   19.7249   20.4069 H   0  0  0  0  0  0  0  0  0  0  0  0
   10.4506   17.1038   18.7311 H   0  0  0  0  0  0  0  0  0  0  0  0
   10.8042   20.1758   16.5329 H   0  0  0  0  0  0  0  0  0  0  0  0
    9.6682   18.8051   16.5033 H   0  0  0  0  0  0  0  0  0  0  0  0
   12.5425   18.7057   15.9283 H   0  0  0  0  0  0  0  0  0  0  0  0
   12.6363   16.6970   17.8890 H   0  0  0  0  0  0  0  0  0  0  0  0
   14.8416   24.1043   15.0962 H   0  0  0  0  0  0  0  0  0  0  0  0
   13.2896   23.8848   15.9925 H   0  0  0  0  0  0  0  0  0  0  0  0
   11.7251   22.4936   15.0258 H   0  0  0  0  0  0  0  0  0  0  0  0
   11.0938   20.5415   13.6075 H   0  0  0  0  0  0  0  0  0  0  0  0
   12.8682   19.2246   12.4521 H   0  0  0  0  0  0  0  0  0  0  0  0
   15.2702   19.7927   12.8061 H   0  0  0  0  0  0  0  0  0  0  0  0
   15.8947   21.7156   14.2698 H   0  0  0  0  0  0  0  0  0  0  0  0
   22.7538   28.6347   16.1769 H   0  0  0  0  0  0  0  0  0  0  0  0
   23.4624   27.6947   14.8201 H   0  0  0  0  0  0  0  0  0  0  0  0
   23.5646   29.4881   14.8201 H   0  0  0  0  0  0  0  0  0  0  0  0
   13.9333   17.1194   19.9451 H   0  0  0  0  0  0  0  0  0  0  0  0
   14.6750   18.7326   20.1619 H   0  0  0  0  0  0  0  0  0  0  0  0
   10.3319   16.7711   16.3669 H   0  0  0  0  0  0  0  0  0  0  0  0
   11.4581   18.2017   14.0736 H   0  0  0  0  0  0  0  0  0  0  0  0
    9.7417   17.9146   14.5114 H   0  0  0  0  0  0  0  0  0  0  0  0
   10.7195   15.3147   14.2254 H   0  0  0  0  0  0  0  0  0  0  0  0
    9.8329   16.2266   12.9569 H   0  0  0  0  0  0  0  0  0  0  0  0
   11.6291   16.2037   12.9569 H   0  0  0  0  0  0  0  0  0  0  0  0
 34 35  2  0
 34 33  1  0
 35 36  1  0
 43 42  1  0
 33 32  2  0
 36 37  2  0
 38  1  1  0
 38 39  1  0
  6  1  2  0
  6  5  1  0
 42 41  1  0
 32 37  1  0
  1  2  1  0
 37 31  1  0
  5  4  2  0
  8  7  2  0
  2  3  2  0
  4  3  1  0
  4  7  1  0
 31 18  1  0
 41 29  1  0
  7  9  2  0
  7 10  1  0
 29 28  1  0
 29 30  1  0
 18 19  1  0
 18 16  1  0
 28 27  1  0
 21 20  2  0
 10 15  1  0
 10 11  1  0
 15 16  1  0
 19 20  1  0
 20 22  1  0
 16 17  1  0
 30 23  1  0
 30 26  1  0
 22 23  1  0
 23 40  1  0
 27 26  1  0
 11 12  1  0
 26 25  1  0
 13 12  1  0
 12 14  1  0
 40 24  1  0
 25 24  1  0
  2 44  1  0
  3 45  1  0
  5 46  1  0
  6 47  1  0
 11 48  1  0
 11 49  1  0
 12 50  1  0
 13 51  1  0
 13 52  1  0
 13 53  1  0
 14 54  1  0
 14 55  1  0
 14 56  1  0
 15 57  1  0
 15 58  1  0
 16 59  1  0
 17 60  1  0
 18 61  1  0
 19 62  1  0
 23 63  1  0
 24 64  1  0
 24 65  1  0
 26 66  1  0
 28 67  1  0
 28 68  1  0
 29 69  1  0
 30 70  1  0
 31 71  1  0
 31 72  1  0
 32 73  1  0
 33 74  1  0
 34 75  1  0
 35 76  1  0
 36 77  1  0
 39 78  1  0
 39 79  1  0
 39 80  1  0
 40 81  1  0
 40 82  1  0
 41 83  1  0
 42 84  1  0
 42 85  1  0
 43 86  1  0
 43 87  1  0
 43 88  1  0
A    1
C2
A    2
C3
A    3
C4
A    4
C5
A    5
C6
A    6
C7
A    7
S8
A    8
O9
A    9
O10
A   10
N11
A   11
C12
A   12
C13
A   13
C14
A   14
C15
A   15
C16
A   16
C17
A   17
O18
A   18
C19
A   19
N20
A   20
C21
A   21
O22
A   22
O23
A   23
C24
A   24
C25
A   25
O26
A   26
C27
A   27
O28
A   28
C29
A   29
C30
A   30
C31
A   31
C32
A   32
C33
A   33
C34
A   34
C35
A   35
C36
A   36
C37
A   37
C38
A   38
O39
A   39
C40
A   40
C51
A   41
N52
A   42
C53
A   43
C54
M  END
