5DHG_DGV_A_1201
     RDKit          3D

 65 68  0  0  0  0  0  0  0  0999 V2000
  -12.0180   32.7290    3.3000 Cl  0  0  0  0  0  0  0  0  0  0  0  0
  -10.3440   33.3070    3.4120 C   0  0  0  0  0  0  0  0  0  0  0  0
   -9.8840   33.8500    4.6000 C   0  0  0  0  0  0  0  0  0  0  0  0
   -8.6200   34.3010    4.6970 C   0  0  0  0  0  0  0  0  0  0  0  0
   -7.7650   34.2240    3.6500 C   0  0  0  0  0  0  0  0  0  0  0  0
   -8.1820   33.6840    2.4340 C   0  0  0  0  0  0  0  0  0  0  0  0
   -7.0060   33.6270    1.0980 Cl  0  0  0  0  0  0  0  0  0  0  0  0
   -9.4940   33.2010    2.2840 C   0  0  0  0  0  0  0  0  0  0  0  0
  -10.1130   32.5650    0.9720 C   0  0  0  0  0  0  0  0  0  0  0  0
   -9.2790   31.5720    0.2530 C   0  0  0  0  0  0  0  0  0  0  0  0
   -9.9750   31.1040   -0.9830 C   0  0  0  0  0  0  0  0  0  0  0  0
  -10.5160   33.6640   -0.0010 C   0  0  0  0  0  0  0  0  0  0  0  0
  -11.1240   32.9590   -1.2750 C   0  0  0  0  0  0  0  0  0  0  0  0
  -10.2910   32.0440   -1.8210 N   0  0  0  0  0  0  0  0  0  0  0  0
  -11.0160   31.4930   -2.7390 C   0  0  0  0  0  0  0  0  0  0  0  0
  -10.1140   31.1220   -3.9360 C   0  0  0  0  0  0  0  0  0  0  0  0
  -10.9820   30.3410   -4.9590 C   0  0  0  0  0  0  0  0  0  0  0  0
  -10.0660   29.7830   -6.0130 N   0  0  0  0  0  0  0  0  0  0  0  0
  -10.1460   28.3360   -6.4240 C   0  0  0  0  0  0  0  0  0  0  0  0
  -10.9670   27.7340   -5.8450 O   0  0  0  0  0  0  0  0  0  0  0  0
   -7.2130   27.1270   -8.4110 C   0  0  0  0  0  0  0  0  0  0  0  0
   -8.1210   27.7230   -9.5460 C   0  0  0  0  0  0  0  0  0  0  0  0
   -9.4850   27.9960   -8.8590 C   0  0  0  0  0  0  0  0  0  0  0  0
   -9.3390   27.4270   -7.4640 C   0  0  0  0  0  0  0  0  0  0  0  0
   -7.9230   27.4210   -7.1930 N   0  0  0  0  0  0  0  0  0  0  0  0
   -7.4770   28.6510   -6.6010 C   0  0  0  0  0  0  0  0  0  0  0  0
   -7.2390   28.7260   -5.0850 C   0  0  0  0  0  0  0  0  0  0  0  0
   -7.2950   27.6570   -4.3340 C   0  0  0  0  0  0  0  0  0  0  0  0
   -7.0410   27.7850   -2.8240 C   0  0  0  0  0  0  0  0  0  0  0  0
   -6.7710   28.9510   -2.2990 C   0  0  0  0  0  0  0  0  0  0  0  0
   -6.7040   30.1940   -3.1850 C   0  0  0  0  0  0  0  0  0  0  0  0
   -6.9190   30.0910   -4.4810 C   0  0  0  0  0  0  0  0  0  0  0  0
  -10.5555   33.9130    5.4690 H   0  0  0  0  0  0  0  0  0  0  0  0
   -8.2749   34.7404    5.6445 H   0  0  0  0  0  0  0  0  0  0  0  0
   -6.7336   34.5902    3.7595 H   0  0  0  0  0  0  0  0  0  0  0  0
  -10.9775   31.9952    1.3435 H   0  0  0  0  0  0  0  0  0  0  0  0
   -9.0921   30.7110    0.9116 H   0  0  0  0  0  0  0  0  0  0  0  0
   -8.3272   32.0446   -0.0310 H   0  0  0  0  0  0  0  0  0  0  0  0
  -10.8996   30.5903   -0.6809 H   0  0  0  0  0  0  0  0  0  0  0  0
   -9.2646   30.4484   -1.5079 H   0  0  0  0  0  0  0  0  0  0  0  0
   -9.6349   34.2588   -0.2838 H   0  0  0  0  0  0  0  0  0  0  0  0
  -11.2505   34.3420    0.4581 H   0  0  0  0  0  0  0  0  0  0  0  0
  -11.3431   33.7282   -2.0302 H   0  0  0  0  0  0  0  0  0  0  0  0
  -12.0322   32.4273   -0.9548 H   0  0  0  0  0  0  0  0  0  0  0  0
  -11.7936   32.1982   -3.0677 H   0  0  0  0  0  0  0  0  0  0  0  0
  -11.4958   30.5871   -2.3401 H   0  0  0  0  0  0  0  0  0  0  0  0
   -9.2796   30.4917   -3.5947 H   0  0  0  0  0  0  0  0  0  0  0  0
   -9.6967   32.0286   -4.3986 H   0  0  0  0  0  0  0  0  0  0  0  0
  -11.7147   31.0186   -5.4215 H   0  0  0  0  0  0  0  0  0  0  0  0
  -11.5275   29.5285   -4.4567 H   0  0  0  0  0  0  0  0  0  0  0  0
   -9.3732   30.3997   -6.4608 H   0  0  0  0  0  0  0  0  0  0  0  0
   -7.0924   26.0411   -8.5389 H   0  0  0  0  0  0  0  0  0  0  0  0
   -6.1988   27.5528   -8.4184 H   0  0  0  0  0  0  0  0  0  0  0  0
   -8.2384   27.0011  -10.3676 H   0  0  0  0  0  0  0  0  0  0  0  0
   -7.6893   28.6327   -9.9887 H   0  0  0  0  0  0  0  0  0  0  0  0
   -9.6879   29.0763   -8.8171 H   0  0  0  0  0  0  0  0  0  0  0  0
  -10.3231   27.5402   -9.4066 H   0  0  0  0  0  0  0  0  0  0  0  0
   -9.7510   26.4111   -7.3737 H   0  0  0  0  0  0  0  0  0  0  0  0
   -6.5247   28.9112   -7.0863 H   0  0  0  0  0  0  0  0  0  0  0  0
   -8.3251   29.3332   -6.7603 H   0  0  0  0  0  0  0  0  0  0  0  0
   -7.5215   26.6766   -4.7785 H   0  0  0  0  0  0  0  0  0  0  0  0
   -7.0866   26.8924   -2.1828 H   0  0  0  0  0  0  0  0  0  0  0  0
   -6.5916   29.0377   -1.2172 H   0  0  0  0  0  0  0  0  0  0  0  0
   -6.4764   31.1744   -2.7412 H   0  0  0  0  0  0  0  0  0  0  0  0
   -6.8682   30.9826   -5.1233 H   0  0  0  0  0  0  0  0  0  0  0  0
 22 23  1  0
 22 21  1  0
 23 24  1  0
 21 25  1  0
 24 25  1  0
 24 19  1  0
 25 26  1  0
 26 27  1  0
 19 18  1  0
 19 20  2  0
 18 17  1  0
 27 32  1  0
 27 28  2  0
 17 16  1  0
 32 31  2  0
 28 29  1  0
 16 15  1  0
 31 30  1  0
 29 30  2  0
 15 14  1  0
 14 13  1  0
 14 11  1  0
 13 12  1  0
 11 10  1  0
 12  9  1  0
 10  9  1  0
  9  8  1  0
  7  6  1  0
  8  6  1  0
  8  2  2  0
  6  5  2  0
  1  2  1  0
  2  3  1  0
  5  4  1  0
  3  4  2  0
  3 33  1  0
  4 34  1  0
  5 35  1  0
  9 36  1  0
 10 37  1  0
 10 38  1  0
 11 39  1  0
 11 40  1  0
 12 41  1  0
 12 42  1  0
 13 43  1  0
 13 44  1  0
 15 45  1  0
 15 46  1  0
 16 47  1  0
 16 48  1  0
 17 49  1  0
 17 50  1  0
 18 51  1  0
 21 52  1  0
 21 53  1  0
 22 54  1  0
 22 55  1  0
 23 56  1  0
 23 57  1  0
 24 58  1  0
 26 59  1  0
 26 60  1  0
 28 61  1  0
 29 62  1  0
 30 63  1  0
 31 64  1  0
 32 65  1  0
A    1
CLAY
A    2
CBA
A    3
CBB
A    4
CBF
A    5
CBE
A    6
CBD
A    7
CLBC
A    8
CAZ
A    9
CAX
A   10
CAU
A   11
CAT
A   12
CAW
A   13
CAV
A   14
NAS
A   15
CAR
A   16
CAQ
A   17
CAP
A   18
NAO
A   19
C
A   20
O
A   21
CD
A   22
CG
A   23
CB
A   24
CA
A   25
N
A   26
CAG
A   27
CAF
A   28
CAE
A   29
CAD
A   30
CAA
A   31
CAB
A   32
CAC
M  END
