5DHH_DGW_A_1206
     RDKit          3D

 57 60  0  0  0  0  0  0  0  0999 V2000
  -12.1180   31.2110    2.5010 Cl  0  0  0  0  0  0  0  0  0  0  0  0
  -10.4350   31.4040    2.7020 C   0  0  0  0  0  0  0  0  0  0  0  0
   -9.9740   31.8080    3.9470 C   0  0  0  0  0  0  0  0  0  0  0  0
   -8.6170   31.9860    4.1580 C   0  0  0  0  0  0  0  0  0  0  0  0
   -7.7270   31.7520    3.1240 C   0  0  0  0  0  0  0  0  0  0  0  0
   -8.1680   31.3470    1.8720 C   0  0  0  0  0  0  0  0  0  0  0  0
   -6.8920   31.0990    0.6720 Cl  0  0  0  0  0  0  0  0  0  0  0  0
   -9.5500   31.1630    1.6490 C   0  0  0  0  0  0  0  0  0  0  0  0
  -10.0740   30.7600    0.4000 C   0  0  0  0  0  0  0  0  0  0  0  0
   -9.6520   31.6640   -0.7150 C   0  0  0  0  0  0  0  0  0  0  0  0
  -10.2230   31.2180   -2.0440 C   0  0  0  0  0  0  0  0  0  0  0  0
   -9.7090   29.3030    0.0550 C   0  0  0  0  0  0  0  0  0  0  0  0
  -10.3110   28.9590   -1.3130 C   0  0  0  0  0  0  0  0  0  0  0  0
   -9.7700   29.8590   -2.3610 N   0  0  0  0  0  0  0  0  0  0  0  0
  -10.3540   29.5430   -3.6760 C   0  0  0  0  0  0  0  0  0  0  0  0
  -10.0660   28.1990   -4.3600 C   0  0  0  0  0  0  0  0  0  0  0  0
   -8.5520   28.0630   -4.3850 C   0  0  0  0  0  0  0  0  0  0  0  0
   -7.9480   26.7930   -5.0240 C   0  0  0  0  0  0  0  0  0  0  0  0
   -6.5270   26.7260   -4.8100 O   0  0  0  0  0  0  0  0  0  0  0  0
   -8.2660   26.6020   -6.3760 C   0  0  0  0  0  0  0  0  0  0  0  0
   -7.1150   26.1790   -7.0300 C   0  0  0  0  0  0  0  0  0  0  0  0
   -7.1120   25.9200   -8.3930 C   0  0  0  0  0  0  0  0  0  0  0  0
   -8.2760   26.0920   -9.1310 C   0  0  0  0  0  0  0  0  0  0  0  0
   -9.4370   26.5240   -8.4960 C   0  0  0  0  0  0  0  0  0  0  0  0
  -10.6050   26.6920   -9.2550 C   0  0  0  0  0  0  0  0  0  0  0  0
   -9.4300   26.7840   -7.1170 C   0  0  0  0  0  0  0  0  0  0  0  0
  -10.6860   27.1980   -6.7060 C   0  0  0  0  0  0  0  0  0  0  0  0
  -10.7470   28.3530   -5.7210 C   0  0  0  0  0  0  0  0  0  0  0  0
  -10.6863   31.9868    4.7660 H   0  0  0  0  0  0  0  0  0  0  0  0
   -8.2484   32.3116    5.1419 H   0  0  0  0  0  0  0  0  0  0  0  0
   -6.6496   31.8897    3.2980 H   0  0  0  0  0  0  0  0  0  0  0  0
  -11.1668   30.8288    0.5047 H   0  0  0  0  0  0  0  0  0  0  0  0
   -8.5539   31.6613   -0.7799 H   0  0  0  0  0  0  0  0  0  0  0  0
  -10.0318   32.6738   -0.5002 H   0  0  0  0  0  0  0  0  0  0  0  0
   -9.8864   31.9063   -2.8332 H   0  0  0  0  0  0  0  0  0  0  0  0
  -11.3213   31.2245   -1.9825 H   0  0  0  0  0  0  0  0  0  0  0  0
  -10.1181   28.6272    0.8205 H   0  0  0  0  0  0  0  0  0  0  0  0
   -8.6156   29.1864    0.0247 H   0  0  0  0  0  0  0  0  0  0  0  0
  -11.4040   29.0738   -1.2665 H   0  0  0  0  0  0  0  0  0  0  0  0
  -10.0486   27.9211   -1.5658 H   0  0  0  0  0  0  0  0  0  0  0  0
  -10.0124   30.3270   -4.3679 H   0  0  0  0  0  0  0  0  0  0  0  0
  -11.4302   29.4806   -3.4572 H   0  0  0  0  0  0  0  0  0  0  0  0
  -10.4417   27.2816   -3.8833 H   0  0  0  0  0  0  0  0  0  0  0  0
   -8.2029   28.1023   -3.3426 H   0  0  0  0  0  0  0  0  0  0  0  0
   -8.2133   28.8843   -5.0336 H   0  0  0  0  0  0  0  0  0  0  0  0
   -8.4319   25.9567   -4.4983 H   0  0  0  0  0  0  0  0  0  0  0  0
   -6.3397   26.7172   -3.8379 H   0  0  0  0  0  0  0  0  0  0  0  0
   -6.1867   26.0467   -6.4548 H   0  0  0  0  0  0  0  0  0  0  0  0
   -6.1905   25.5794   -8.8877 H   0  0  0  0  0  0  0  0  0  0  0  0
   -8.2804   25.8879  -10.2119 H   0  0  0  0  0  0  0  0  0  0  0  0
  -11.4656   26.8158   -8.5811 H   0  0  0  0  0  0  0  0  0  0  0  0
  -10.5047   27.5850   -9.8895 H   0  0  0  0  0  0  0  0  0  0  0  0
  -10.7605   25.8070   -9.8895 H   0  0  0  0  0  0  0  0  0  0  0  0
  -11.2459   27.4985   -7.6039 H   0  0  0  0  0  0  0  0  0  0  0  0
  -11.1047   26.3384   -6.1622 H   0  0  0  0  0  0  0  0  0  0  0  0
  -10.2894   29.2230   -6.2146 H   0  0  0  0  0  0  0  0  0  0  0  0
  -11.8159   28.4360   -5.4751 H   0  0  0  0  0  0  0  0  0  0  0  0
 25 24  1  0
 23 24  2  0
 23 22  1  0
 24 26  1  0
 22 21  2  0
 26 27  1  0
 26 20  2  0
 21 20  1  0
 27 28  1  0
 20 18  1  0
 28 16  1  0
 18 19  1  0
 18 17  1  0
 17 16  1  0
 16 15  1  0
 15 14  1  0
 14 11  1  0
 14 13  1  0
 11 10  1  0
 13 12  1  0
 10  9  1  0
 12  9  1  0
  9  8  1  0
  7  6  1  0
  8  6  1  0
  8  2  2  0
  6  5  2  0
  1  2  1  0
  2  3  1  0
  5  4  1  0
  3  4  2  0
  3 29  1  0
  4 30  1  0
  5 31  1  0
  9 32  1  0
 10 33  1  0
 10 34  1  0
 11 35  1  0
 11 36  1  0
 12 37  1  0
 12 38  1  0
 13 39  1  0
 13 40  1  0
 15 41  1  0
 15 42  1  0
 16 43  1  0
 17 44  1  0
 17 45  1  0
 18 46  1  0
 19 47  1  0
 21 48  1  0
 22 49  1  0
 23 50  1  0
 25 51  1  0
 25 52  1  0
 25 53  1  0
 27 54  1  0
 27 55  1  0
 28 56  1  0
 28 57  1  0
A    1
CLAC
A    2
CAT
A    3
CAH
A    4
CAE
A    5
CAI
A    6
CAU
A    7
CLAD
A    8
CAX
A    9
CBA
A   10
CAM
A   11
CAO
A   12
CAN
A   13
CAP
A   14
NBB
A   15
CAR
A   16
CAZ
A   17
CAQ
A   18
CAY
A   19
OAB
A   20
CAV
A   21
CAJ
A   22
CAF
A   23
CAG
A   24
CAS
A   25
CAA
A   26
CAW
A   27
CAK
A   28
CAL
M  END
