5DHP_5AQ_A_303
     RDKit          3D

 56 59  0  0  0  0  0  0  0  0999 V2000
   13.9090  -19.3180  -44.9090 C   0  0  0  0  0  0  0  0  0  0  0  0
   11.7160  -18.8050  -44.8200 C   0  0  0  0  0  0  0  0  0  0  0  0
   11.7070  -18.3160  -46.0970 C   0  0  0  0  0  0  0  0  0  0  0  0
   12.8690  -18.3270  -46.8020 C   0  0  0  0  0  0  0  0  0  0  0  0
   10.5210  -18.6950  -44.3590 N   0  0  0  0  0  0  0  0  0  0  0  0
    8.4730  -20.6380  -47.4560 C   0  0  0  0  0  0  0  0  0  0  0  0
    9.2360  -21.3190  -46.5350 C   0  0  0  0  0  0  0  0  0  0  0  0
   10.5420  -21.6140  -46.8370 C   0  0  0  0  0  0  0  0  0  0  0  0
   11.0670  -21.2240  -48.0560 C   0  0  0  0  0  0  0  0  0  0  0  0
   10.3000  -20.5430  -48.9670 C   0  0  0  0  0  0  0  0  0  0  0  0
    8.9990  -20.2320  -48.6630 C   0  0  0  0  0  0  0  0  0  0  0  0
    8.1150  -19.4990  -49.6770 C   0  0  0  0  0  0  0  0  0  0  0  0
    8.3630  -18.0120  -49.8180 C   0  0  0  0  0  0  0  0  0  0  0  0
    8.5330  -17.4490  -48.5000 N   0  0  0  0  0  0  0  0  0  0  0  0
    7.5170  -17.0870  -47.7780 C   0  0  0  0  0  0  0  0  0  0  0  0
    6.3800  -17.1520  -48.1860 O   0  0  0  0  0  0  0  0  0  0  0  0
    7.8690  -16.5330  -46.4100 C   0  0  0  0  0  0  0  0  0  0  0  0
    8.1490  -17.8060  -45.1400 S   0  0  0  0  0  0  0  0  0  0  0  0
    9.7850  -18.1430  -45.2960 C   0  0  0  0  0  0  0  0  0  0  0  0
   10.4940  -17.9120  -46.3680 N   0  0  0  0  0  0  0  0  0  0  0  0
   12.9460  -17.8690  -48.0130 N   0  0  0  0  0  0  0  0  0  0  0  0
   13.9640  -18.8280  -46.1920 N   0  0  0  0  0  0  0  0  0  0  0  0
   12.7950  -19.2980  -44.2530 N   0  0  0  0  0  0  0  0  0  0  0  0
   10.1660  -19.1270  -43.0420 C   0  0  0  0  0  0  0  0  0  0  0  0
    9.1210  -20.0760  -43.1320 O   0  0  0  0  0  0  0  0  0  0  0  0
    8.4640  -20.0220  -41.9150 C   0  0  0  0  0  0  0  0  0  0  0  0
    7.0790  -20.4880  -42.2230 C   0  0  0  0  0  0  0  0  0  0  0  0
    6.8940  -21.8060  -41.7760 O   0  0  0  0  0  0  0  0  0  0  0  0
    8.3300  -18.5280  -41.6620 C   0  0  0  0  0  0  0  0  0  0  0  0
    8.1730  -18.2480  -40.2940 O   0  0  0  0  0  0  0  0  0  0  0  0
    9.6420  -17.9860  -42.1950 C   0  0  0  0  0  0  0  0  0  0  0  0
   10.5190  -17.8390  -41.1510 O   0  0  0  0  0  0  0  0  0  0  0  0
   14.8151  -19.7282  -44.4391 H   0  0  0  0  0  0  0  0  0  0  0  0
    7.4216  -20.4132  -47.2237 H   0  0  0  0  0  0  0  0  0  0  0  0
    8.8049  -21.6228  -45.5697 H   0  0  0  0  0  0  0  0  0  0  0  0
   11.1677  -22.1575  -46.1138 H   0  0  0  0  0  0  0  0  0  0  0  0
   12.1131  -21.4630  -48.2980 H   0  0  0  0  0  0  0  0  0  0  0  0
   10.7264  -20.2476  -49.9370 H   0  0  0  0  0  0  0  0  0  0  0  0
    7.0670  -19.6385  -49.3733 H   0  0  0  0  0  0  0  0  0  0  0  0
    8.3606  -19.9357  -50.6563 H   0  0  0  0  0  0  0  0  0  0  0  0
    9.2718  -17.8423  -50.4140 H   0  0  0  0  0  0  0  0  0  0  0  0
    7.5116  -17.5343  -50.3249 H   0  0  0  0  0  0  0  0  0  0  0  0
    9.4843  -17.3316  -48.1230 H   0  0  0  0  0  0  0  0  0  0  0  0
    8.7864  -15.9337  -46.5060 H   0  0  0  0  0  0  0  0  0  0  0  0
    7.0051  -15.9389  -46.0774 H   0  0  0  0  0  0  0  0  0  0  0  0
   13.1147  -16.8658  -48.1744 H   0  0  0  0  0  0  0  0  0  0  0  0
   12.8385  -18.5085  -48.8133 H   0  0  0  0  0  0  0  0  0  0  0  0
   11.0736  -19.5440  -42.5811 H   0  0  0  0  0  0  0  0  0  0  0  0
    8.9441  -20.5822  -41.0991 H   0  0  0  0  0  0  0  0  0  0  0  0
    6.3552  -19.8300  -41.7199 H   0  0  0  0  0  0  0  0  0  0  0  0
    6.9264  -20.4564  -43.3119 H   0  0  0  0  0  0  0  0  0  0  0  0
    6.8918  -21.8215  -40.7861 H   0  0  0  0  0  0  0  0  0  0  0  0
    7.4461  -18.0812  -42.1406 H   0  0  0  0  0  0  0  0  0  0  0  0
    8.5806  -18.9748  -39.7595 H   0  0  0  0  0  0  0  0  0  0  0  0
    9.5272  -17.0281  -42.7234 H   0  0  0  0  0  0  0  0  0  0  0  0
   10.0292  -17.9211  -40.2946 H   0  0  0  0  0  0  0  0  0  0  0  0
 13 12  1  0
 13 14  1  0
 12 11  1  0
 10 11  1  0
 10  9  2  0
 11  6  2  0
 14 15  1  0
 16 15  2  0
  9  8  1  0
 21  4  1  0
 15 17  1  0
  6  7  1  0
  8  7  2  0
  4 22  1  0
  4  3  2  0
 17 18  1  0
 20  3  1  0
 20 19  2  0
 22  1  2  0
  3  2  1  0
 19 18  1  0
 19  5  1  0
  1 23  1  0
  2  5  1  0
  2 23  2  0
  5 24  1  0
 25 24  1  0
 25 26  1  0
 24 31  1  0
 27 26  1  0
 27 28  1  0
 31 29  1  0
 31 32  1  0
 26 29  1  0
 29 30  1  0
  1 33  1  0
  6 34  1  0
  7 35  1  0
  8 36  1  0
  9 37  1  0
 10 38  1  0
 12 39  1  0
 12 40  1  0
 13 41  1  0
 13 42  1  0
 14 43  1  0
 17 44  1  0
 17 45  1  0
 21 46  1  0
 21 47  1  0
 24 48  1  0
 26 49  1  0
 27 50  1  0
 27 51  1  0
 28 52  1  0
 29 53  1  0
 30 54  1  0
 31 55  1  0
 32 56  1  0
A    1
C2
A    2
C4
A    3
C5
A    4
C6
A    5
N9
A    6
CBA
A    7
CBB
A    8
CBC
A    9
CBD
A   10
CBE
A   11
CAZ
A   12
CAY
A   13
CAX
A   14
NAW
A   15
CAV
A   16
OBF
A   17
CAU
A   18
SAT
A   19
C8
A   20
N7
A   21
N6
A   22
N1
A   23
N3
A   24
C1'
A   25
O4'
A   26
C4'
A   27
C5'
A   28
O5'
A   29
C3'
A   30
O3'
A   31
C2'
A   32
O2'
M  END
