5DHR_5AJ_A_302
     RDKit          3D

 60 64  0  0  0  0  0  0  0  0999 V2000
  -13.2800   12.6820    5.4610 C   0  0  0  0  0  0  0  0  0  0  0  0
  -12.6410   12.2400    3.3520 C   0  0  0  0  0  0  0  0  0  0  0  0
  -13.8520   11.6940    3.1020 C   0  0  0  0  0  0  0  0  0  0  0  0
  -14.7780   11.6610    4.1040 C   0  0  0  0  0  0  0  0  0  0  0  0
  -11.9200   12.1500    2.2840 N   0  0  0  0  0  0  0  0  0  0  0  0
   -8.7370   17.1020   -2.6230 N   0  0  0  0  0  0  0  0  0  0  0  0
   -8.9940   16.3100   -1.6100 N   0  0  0  0  0  0  0  0  0  0  0  0
   -9.2410   15.5210   -0.6000 N   0  0  0  0  0  0  0  0  0  0  0  0
   -9.0900   14.0640   -0.6950 C   0  0  0  0  0  0  0  0  0  0  0  0
   -9.2370   13.4650    0.6910 C   0  0  0  0  0  0  0  0  0  0  0  0
  -10.5820   13.4110    1.0550 O   0  0  0  0  0  0  0  0  0  0  0  0
   -8.9020   11.9940    0.6550 C   0  0  0  0  0  0  0  0  0  0  0  0
   -7.5140   11.8270    0.7900 O   0  0  0  0  0  0  0  0  0  0  0  0
   -9.6120   11.5200    1.9110 C   0  0  0  0  0  0  0  0  0  0  0  0
   -8.6820   11.4650    2.9430 O   0  0  0  0  0  0  0  0  0  0  0  0
  -10.5930   12.6370    2.1950 C   0  0  0  0  0  0  0  0  0  0  0  0
  -12.3780   12.7210    4.5370 N   0  0  0  0  0  0  0  0  0  0  0  0
  -14.4520   12.1640    5.2510 N   0  0  0  0  0  0  0  0  0  0  0  0
  -15.9610   11.1490    3.9580 N   0  0  0  0  0  0  0  0  0  0  0  0
  -13.8270   11.2750    1.8690 N   0  0  0  0  0  0  0  0  0  0  0  0
  -12.6550   11.5750    1.3790 C   0  0  0  0  0  0  0  0  0  0  0  0
  -12.1830   11.2320   -0.1980 S   0  0  0  0  0  0  0  0  0  0  0  0
  -13.3530    9.8940   -0.5720 C   0  0  0  0  0  0  0  0  0  0  0  0
  -14.5870   10.2970   -1.3600 C   0  0  0  0  0  0  0  0  0  0  0  0
  -14.5890   10.3510   -2.5770 O   0  0  0  0  0  0  0  0  0  0  0  0
  -15.6480   10.5030   -0.6320 N   0  0  0  0  0  0  0  0  0  0  0  0
  -16.9000   10.9250   -1.2120 C   0  0  0  0  0  0  0  0  0  0  0  0
  -16.7810   12.3840   -1.6010 C   0  0  0  0  0  0  0  0  0  0  0  0
  -15.9960   13.1850   -0.5860 C   0  0  0  0  0  0  0  0  0  0  0  0
  -16.4310   13.4960    0.6070 N   0  0  0  0  0  0  0  0  0  0  0  0
  -15.5130   14.1920    1.2170 C   0  0  0  0  0  0  0  0  0  0  0  0
  -15.4640   14.7570    2.4650 C   0  0  0  0  0  0  0  0  0  0  0  0
  -14.3480   15.4480    2.8450 C   0  0  0  0  0  0  0  0  0  0  0  0
  -13.2970   15.5790    1.9680 C   0  0  0  0  0  0  0  0  0  0  0  0
  -13.3570   15.0070    0.7230 C   0  0  0  0  0  0  0  0  0  0  0  0
  -14.4750   14.3150    0.3490 C   0  0  0  0  0  0  0  0  0  0  0  0
  -14.8010   13.7000   -0.7520 N   0  0  0  0  0  0  0  0  0  0  0  0
  -13.0489   13.0989    6.4524 H   0  0  0  0  0  0  0  0  0  0  0  0
   -9.8658   13.6546   -1.3587 H   0  0  0  0  0  0  0  0  0  0  0  0
   -8.0997   13.8172   -1.1053 H   0  0  0  0  0  0  0  0  0  0  0  0
   -8.6036   14.0719    1.3546 H   0  0  0  0  0  0  0  0  0  0  0  0
   -9.1923   11.4657   -0.2651 H   0  0  0  0  0  0  0  0  0  0  0  0
   -7.2770   11.7985    1.7508 H   0  0  0  0  0  0  0  0  0  0  0  0
  -10.0886   10.5337    1.8106 H   0  0  0  0  0  0  0  0  0  0  0  0
   -9.1529   11.4928    3.8134 H   0  0  0  0  0  0  0  0  0  0  0  0
  -10.3174   13.1476    3.1295 H   0  0  0  0  0  0  0  0  0  0  0  0
  -16.5228   10.9059    4.7864 H   0  0  0  0  0  0  0  0  0  0  0  0
  -16.3385   10.9856    3.0137 H   0  0  0  0  0  0  0  0  0  0  0  0
  -13.6881    9.4619    0.3825 H   0  0  0  0  0  0  0  0  0  0  0  0
  -12.8053    9.1886   -1.2142 H   0  0  0  0  0  0  0  0  0  0  0  0
  -15.5913   10.3605    0.3865 H   0  0  0  0  0  0  0  0  0  0  0  0
  -17.7096   10.8015   -0.4777 H   0  0  0  0  0  0  0  0  0  0  0  0
  -17.1294   10.3157   -2.0986 H   0  0  0  0  0  0  0  0  0  0  0  0
  -16.2727   12.4506   -2.5742 H   0  0  0  0  0  0  0  0  0  0  0  0
  -17.7965   12.8039   -1.6495 H   0  0  0  0  0  0  0  0  0  0  0  0
  -17.3467   13.2346    0.9996 H   0  0  0  0  0  0  0  0  0  0  0  0
  -16.3152   14.6551    3.1542 H   0  0  0  0  0  0  0  0  0  0  0  0
  -14.2907   15.8972    3.8475 H   0  0  0  0  0  0  0  0  0  0  0  0
  -12.4029   16.1459    2.2668 H   0  0  0  0  0  0  0  0  0  0  0  0
  -12.5095   15.1046    0.0286 H   0  0  0  0  0  0  0  0  0  0  0  0
  6  7  2  0
 25 24  2  0
  7  8  2  3
 28 27  1  0
 28 29  1  0
 24 26  1  0
 24 23  1  0
 27 26  1  0
 37 29  2  0
 37 36  1  0
  9  8  1  0
  9 10  1  0
 29 30  1  0
 23 22  1  0
 22 21  1  0
 36 35  1  0
 36 31  2  0
 30 31  1  0
 12 10  1  0
 12 13  1  0
 12 14  1  0
 10 11  1  0
 35 34  2  0
 11 16  1  0
 31 32  1  0
 21 20  2  0
 21  5  1  0
 20  3  1  0
 14 16  1  0
 14 15  1  0
 34 33  1  0
 16  5  1  0
  5  2  1  0
 32 33  2  0
  3  2  2  0
  3  4  1  0
  2 17  1  0
 19  4  1  0
  4 18  2  0
 17  1  2  0
 18  1  1  0
  1 38  1  0
  9 39  1  0
  9 40  1  0
 10 41  1  0
 12 42  1  0
 13 43  1  0
 14 44  1  0
 15 45  1  0
 16 46  1  0
 19 47  1  0
 19 48  1  0
 23 49  1  0
 23 50  1  0
 26 51  1  0
 27 52  1  0
 27 53  1  0
 28 54  1  0
 28 55  1  0
 30 56  1  0
 32 57  1  0
 33 58  1  0
 34 59  1  0
 35 60  1  0
M  CHG  2   6  -1   7   1
A    1
C2
A    2
C4
A    3
C5
A    4
C6
A    5
N9
A    6
NBH
A    7
NBG
A    8
NBF
A    9
CBE
A   10
CBC
A   11
OBD
A   12
CBB
A   13
OBI
A   14
CBA
A   15
OBJ
A   16
CAZ
A   17
N3
A   18
N1
A   19
N6
A   20
N7
A   21
C8
A   22
SAP
A   23
CAO
A   24
CAM
A   25
OAN
A   26
NAL
A   27
CAK
A   28
CAJ
A   29
CAH
A   30
NAI
A   31
CAD
A   32
CAC
A   33
CAB
A   34
CAA
A   35
CAF
A   36
CAE
A   37
NAG
M  END
