5DHS_5AG_A_303
     RDKit          3D

 59 62  0  0  0  0  0  0  0  0999 V2000
   13.8380  -18.0450  -45.1250 C   0  0  0  0  0  0  0  0  0  0  0  0
   11.5980  -17.6330  -44.7390 C   0  0  0  0  0  0  0  0  0  0  0  0
   11.4700  -17.0680  -45.9840 C   0  0  0  0  0  0  0  0  0  0  0  0
   12.5510  -16.9880  -46.8130 C   0  0  0  0  0  0  0  0  0  0  0  0
   10.4080  -17.5500  -44.1720 N   0  0  0  0  0  0  0  0  0  0  0  0
   11.4910  -21.8830  -44.1280 C   0  0  0  0  0  0  0  0  0  0  0  0
   10.7210  -21.4170  -44.8840 C   0  0  0  0  0  0  0  0  0  0  0  0
    9.7610  -20.8610  -45.7870 C   0  0  0  0  0  0  0  0  0  0  0  0
   10.1300  -20.1130  -46.8970 C   0  0  0  0  0  0  0  0  0  0  0  0
    8.4280  -21.0910  -45.5150 C   0  0  0  0  0  0  0  0  0  0  0  0
    7.4500  -20.5790  -46.3360 C   0  0  0  0  0  0  0  0  0  0  0  0
    7.8120  -19.8330  -47.4380 C   0  0  0  0  0  0  0  0  0  0  0  0
    9.1380  -19.6080  -47.7160 C   0  0  0  0  0  0  0  0  0  0  0  0
    9.4570  -18.7900  -48.9350 C   0  0  0  0  0  0  0  0  0  0  0  0
    8.4570  -17.6420  -49.0600 C   0  0  0  0  0  0  0  0  0  0  0  0
    8.4310  -16.9170  -47.7840 N   0  0  0  0  0  0  0  0  0  0  0  0
    7.4910  -16.0530  -47.4650 C   0  0  0  0  0  0  0  0  0  0  0  0
    6.5810  -15.7260  -48.2130 O   0  0  0  0  0  0  0  0  0  0  0  0
    7.6410  -15.4480  -46.0820 C   0  0  0  0  0  0  0  0  0  0  0  0
    7.9760  -16.6610  -44.7660 S   0  0  0  0  0  0  0  0  0  0  0  0
    9.6030  -16.9810  -45.0390 C   0  0  0  0  0  0  0  0  0  0  0  0
   10.2230  -16.6700  -46.1450 N   0  0  0  0  0  0  0  0  0  0  0  0
   12.3820  -16.4350  -47.9870 N   0  0  0  0  0  0  0  0  0  0  0  0
   13.7640  -17.4780  -46.3930 N   0  0  0  0  0  0  0  0  0  0  0  0
   12.7790  -18.1120  -44.3450 N   0  0  0  0  0  0  0  0  0  0  0  0
   10.0070  -18.0210  -42.8810 C   0  0  0  0  0  0  0  0  0  0  0  0
    8.7540  -18.5320  -43.2470 O   0  0  0  0  0  0  0  0  0  0  0  0
    9.6400  -16.9160  -41.8960 C   0  0  0  0  0  0  0  0  0  0  0  0
   10.4400  -17.0460  -40.7460 O   0  0  0  0  0  0  0  0  0  0  0  0
    8.2140  -17.2470  -41.4860 C   0  0  0  0  0  0  0  0  0  0  0  0
    8.0750  -17.2770  -40.0740 O   0  0  0  0  0  0  0  0  0  0  0  0
    8.1170  -18.6540  -41.9920 C   0  0  0  0  0  0  0  0  0  0  0  0
    6.6420  -18.9590  -42.0600 C   0  0  0  0  0  0  0  0  0  0  0  0
    6.4580  -20.2600  -41.4390 N   0  0  0  0  0  0  0  0  0  0  0  0
    6.6830  -21.3290  -42.1410 N   0  0  0  0  0  0  0  0  0  0  0  0
    6.9010  -22.3970  -42.8390 N   0  0  0  0  0  0  0  0  0  0  0  0
   14.7984  -18.4446  -44.7673 H   0  0  0  0  0  0  0  0  0  0  0  0
   12.2116  -22.3191  -43.4205 H   0  0  0  0  0  0  0  0  0  0  0  0
   11.1908  -19.9261  -47.1201 H   0  0  0  0  0  0  0  0  0  0  0  0
    8.1452  -21.6880  -44.6354 H   0  0  0  0  0  0  0  0  0  0  0  0
    6.3882  -20.7631  -46.1153 H   0  0  0  0  0  0  0  0  0  0  0  0
    7.0357  -19.4166  -48.0968 H   0  0  0  0  0  0  0  0  0  0  0  0
    9.3959  -19.4274  -49.8295 H   0  0  0  0  0  0  0  0  0  0  0  0
   10.4735  -18.3797  -48.8430 H   0  0  0  0  0  0  0  0  0  0  0  0
    8.7680  -16.9633  -49.8679 H   0  0  0  0  0  0  0  0  0  0  0  0
    7.4563  -18.0331  -49.2958 H   0  0  0  0  0  0  0  0  0  0  0  0
    9.1853  -17.0931  -47.1051 H   0  0  0  0  0  0  0  0  0  0  0  0
    8.4737  -14.7297  -46.1086 H   0  0  0  0  0  0  0  0  0  0  0  0
    6.6775  -14.9766  -45.8381 H   0  0  0  0  0  0  0  0  0  0  0  0
   12.0816  -15.4521  -48.0549 H   0  0  0  0  0  0  0  0  0  0  0  0
   12.5494  -16.9826  -48.8431 H   0  0  0  0  0  0  0  0  0  0  0  0
   10.7816  -18.6457  -42.4122 H   0  0  0  0  0  0  0  0  0  0  0  0
    9.7651  -15.9107  -42.3247 H   0  0  0  0  0  0  0  0  0  0  0  0
    9.8746  -16.9541  -39.9386 H   0  0  0  0  0  0  0  0  0  0  0  0
    7.4667  -16.5314  -41.8595 H   0  0  0  0  0  0  0  0  0  0  0  0
    8.9505  -17.0881  -39.6521 H   0  0  0  0  0  0  0  0  0  0  0  0
    8.5728  -19.4650  -41.4050 H   0  0  0  0  0  0  0  0  0  0  0  0
    6.0706  -18.1937  -41.5142 H   0  0  0  0  0  0  0  0  0  0  0  0
    6.2851  -18.9620  -43.1005 H   0  0  0  0  0  0  0  0  0  0  0  0
 15 14  1  0
 15 16  1  0
 14 13  1  0
 18 17  2  0
 23  4  1  0
 16 17  1  0
 13 12  2  0
 13  9  1  0
 17 19  1  0
 12 11  1  0
  9  8  2  0
  4 24  1  0
  4  3  2  0
 24  1  2  0
 11 10  2  0
 22  3  1  0
 22 21  2  0
 19 20  1  0
  3  2  1  0
  8 10  1  0
  8  7  1  0
  1 25  1  0
 21 20  1  0
 21  5  1  0
  7  6  3  0
  2 25  2  0
  2  5  1  0
  5 26  1  0
 27 26  1  0
 27 32  1  0
 26 28  1  0
 36 35  2  0
 35 34  2  3
 33 32  1  0
 33 34  1  0
 32 30  1  0
 28 30  1  0
 28 29  1  0
 30 31  1  0
  1 37  1  0
  6 38  1  0
  9 39  1  0
 10 40  1  0
 11 41  1  0
 12 42  1  0
 14 43  1  0
 14 44  1  0
 15 45  1  0
 15 46  1  0
 16 47  1  0
 19 48  1  0
 19 49  1  0
 23 50  1  0
 23 51  1  0
 26 52  1  0
 28 53  1  0
 29 54  1  0
 30 55  1  0
 31 56  1  0
 32 57  1  0
 33 58  1  0
 33 59  1  0
M  CHG  2  35   1  36  -1
A    1
C2
A    2
C4
A    3
C5
A    4
C6
A    5
N9
A    6
CAA
A    7
CAB
A    8
CAC
A    9
CAD
A   10
CBJ
A   11
CBI
A   12
CBH
A   13
CAE
A   14
CAF
A   15
CAG
A   16
NAH
A   17
CAI
A   18
OBG
A   19
CAJ
A   20
SAK
A   21
C8
A   22
N7
A   23
N6
A   24
N1
A   25
N3
A   26
CAV
A   27
OBF
A   28
CAW
A   29
OAX
A   30
CAY
A   31
OAZ
A   32
CBA
A   33
CBB
A   34
NBC
A   35
NBD
A   36
NBE
M  END
