5DHT_5A9_A_303
     RDKit          3D

 57 60  0  0  0  0  0  0  0  0999 V2000
   11.3970  -19.5190  -44.7310 C   0  0  0  0  0  0  0  0  0  0  0  0
   11.3940  -19.1230  -46.0090 C   0  0  0  0  0  0  0  0  0  0  0  0
   12.5130  -19.1510  -46.7310 C   0  0  0  0  0  0  0  0  0  0  0  0
    9.4150  -18.9160  -45.2410 C   0  0  0  0  0  0  0  0  0  0  0  0
   13.6770  -19.5710  -46.2200 N   0  0  0  0  0  0  0  0  0  0  0  0
   12.5270  -19.9520  -44.1530 N   0  0  0  0  0  0  0  0  0  0  0  0
    9.7150  -21.3930  -48.5230 C   0  0  0  0  0  0  0  0  0  0  0  0
    9.9440  -22.1150  -47.3570 C   0  0  0  0  0  0  0  0  0  0  0  0
   11.6560  -22.7860  -46.9900 Br  0  0  0  0  0  0  0  0  0  0  0  0
    8.9030  -22.3400  -46.4630 C   0  0  0  0  0  0  0  0  0  0  0  0
    7.6340  -21.8420  -46.7350 C   0  0  0  0  0  0  0  0  0  0  0  0
    7.4050  -21.1210  -47.9010 C   0  0  0  0  0  0  0  0  0  0  0  0
    8.4460  -20.8960  -48.7940 C   0  0  0  0  0  0  0  0  0  0  0  0
    8.2170  -20.1740  -49.9600 C   0  0  0  0  0  0  0  0  0  0  0  0
    7.3960  -18.9250  -49.6340 C   0  0  0  0  0  0  0  0  0  0  0  0
    7.8050  -18.3970  -48.3250 N   0  0  0  0  0  0  0  0  0  0  0  0
    7.0120  -17.5910  -47.6050 C   0  0  0  0  0  0  0  0  0  0  0  0
    5.8940  -17.2260  -47.9650 O   0  0  0  0  0  0  0  0  0  0  0  0
    7.5970  -17.1360  -46.2660 C   0  0  0  0  0  0  0  0  0  0  0  0
    7.7040  -18.5660  -45.1290 S   0  0  0  0  0  0  0  0  0  0  0  0
   10.1560  -18.7460  -46.3280 N   0  0  0  0  0  0  0  0  0  0  0  0
   12.4110  -18.7380  -47.9910 N   0  0  0  0  0  0  0  0  0  0  0  0
   13.7140  -19.9910  -44.8900 C   0  0  0  0  0  0  0  0  0  0  0  0
   10.1610  -19.3890  -44.2530 N   0  0  0  0  0  0  0  0  0  0  0  0
    9.7080  -19.7120  -42.8820 C   0  0  0  0  0  0  0  0  0  0  0  0
    8.6440  -20.6720  -42.9420 O   0  0  0  0  0  0  0  0  0  0  0  0
    9.0720  -18.5010  -42.2190 C   0  0  0  0  0  0  0  0  0  0  0  0
   10.0290  -17.8690  -41.3570 O   0  0  0  0  0  0  0  0  0  0  0  0
    7.9450  -19.0870  -41.3830 C   0  0  0  0  0  0  0  0  0  0  0  0
    8.1990  -18.8360  -39.9930 O   0  0  0  0  0  0  0  0  0  0  0  0
    8.0240  -20.5820  -41.6510 C   0  0  0  0  0  0  0  0  0  0  0  0
    6.6100  -21.1630  -41.7210 C   0  0  0  0  0  0  0  0  0  0  0  0
    6.6810  -22.6310  -41.6970 N   0  0  0  0  0  0  0  0  0  0  0  0
    6.8240  -23.1320  -42.6890 N   0  0  0  0  0  0  0  0  0  0  0  0
    6.9660  -23.6330  -43.6800 N   0  0  0  0  0  0  0  0  0  0  0  0
   10.5382  -21.2153  -49.2307 H   0  0  0  0  0  0  0  0  0  0  0  0
    9.0836  -22.9119  -45.5409 H   0  0  0  0  0  0  0  0  0  0  0  0
    6.8107  -22.0186  -46.0272 H   0  0  0  0  0  0  0  0  0  0  0  0
    6.4003  -20.7286  -48.1170 H   0  0  0  0  0  0  0  0  0  0  0  0
    9.1794  -19.8753  -50.4012 H   0  0  0  0  0  0  0  0  0  0  0  0
    7.6637  -20.7997  -50.6758 H   0  0  0  0  0  0  0  0  0  0  0  0
    6.3276  -19.1855  -49.6066 H   0  0  0  0  0  0  0  0  0  0  0  0
    7.5679  -18.1615  -50.4070 H   0  0  0  0  0  0  0  0  0  0  0  0
    8.7290  -18.6540  -47.9494 H   0  0  0  0  0  0  0  0  0  0  0  0
    6.9478  -16.3651  -45.8253 H   0  0  0  0  0  0  0  0  0  0  0  0
    8.6025  -16.7203  -46.4277 H   0  0  0  0  0  0  0  0  0  0  0  0
   12.1689  -17.7576  -48.1936 H   0  0  0  0  0  0  0  0  0  0  0  0
   12.5741  -19.3985  -48.7643 H   0  0  0  0  0  0  0  0  0  0  0  0
   14.6512  -20.3430  -44.4342 H   0  0  0  0  0  0  0  0  0  0  0  0
   10.5909  -20.0694  -42.3317 H   0  0  0  0  0  0  0  0  0  0  0  0
    8.7231  -17.7497  -42.9428 H   0  0  0  0  0  0  0  0  0  0  0  0
    9.7812  -18.0327  -40.4126 H   0  0  0  0  0  0  0  0  0  0  0  0
    6.9621  -18.6587  -41.6288 H   0  0  0  0  0  0  0  0  0  0  0  0
    7.6144  -19.4137  -39.4411 H   0  0  0  0  0  0  0  0  0  0  0  0
    8.5748  -21.1295  -40.8720 H   0  0  0  0  0  0  0  0  0  0  0  0
    6.1245  -20.8347  -42.6518 H   0  0  0  0  0  0  0  0  0  0  0  0
    6.0259  -20.8103  -40.8582 H   0  0  0  0  0  0  0  0  0  0  0  0
 30 29  1  0
 33 32  1  0
 33 34  2  3
 29 31  1  0
 29 27  1  0
 32 31  1  0
 28 27  1  0
 31 26  1  0
 34 35  2  0
 27 25  1  0
 26 25  1  0
 25 24  1  0
 20  4  1  0
 20 19  1  0
 24  4  1  0
 24  1  1  0
  4 21  2  0
  6  1  2  0
  6 23  1  0
  1  2  1  0
 19 17  1  0
 11 10  2  0
 11 12  1  0
 10  8  1  0
 23  5  2  0
 18 17  2  0
 21  2  1  0
  2  3  2  0
 17 16  1  0
 12 13  2  0
  8  9  1  0
  8  7  2  0
  5  3  1  0
  3 22  1  0
 16 15  1  0
 13  7  1  0
 13 14  1  0
 15 14  1  0
  7 36  1  0
 10 37  1  0
 11 38  1  0
 12 39  1  0
 14 40  1  0
 14 41  1  0
 15 42  1  0
 15 43  1  0
 16 44  1  0
 19 45  1  0
 19 46  1  0
 22 47  1  0
 22 48  1  0
 23 49  1  0
 25 50  1  0
 27 51  1  0
 28 52  1  0
 29 53  1  0
 30 54  1  0
 31 55  1  0
 32 56  1  0
 32 57  1  0
M  CHG  2  34   1  35  -1
A    1
C4
A    2
C5
A    3
C6
A    4
C8
A    5
N1
A    6
N3
A    7
CBC
A    8
CBD
A    9
BR
A   10
CBE
A   11
CAX
A   12
CAW
A   13
CAV
A   14
CAM
A   15
CAL
A   16
NAK
A   17
CAJ
A   18
OAB
A   19
CAI
A   20
SAH
A   21
N7
A   22
N6
A   23
C2
A   24
N9
A   25
CAR
A   26
OAS
A   27
CAZ
A   28
OAY
A   29
CBA
A   30
OBF
A   31
CAT
A   32
CAU
A   33
NBB
A   34
NBG
A   35
NBI
M  END
