5DHW_5BQ_A_600
     RDKit          3D

 34 35  0  0  0  0  0  0  0  0999 V2000
  -21.8850   -9.7770  -20.1540 O   0  0  0  0  0  0  0  0  0  0  0  0
  -22.7930   -9.3650  -20.8800 C   0  0  0  0  0  0  0  0  0  0  0  0
  -23.0570  -10.1240  -22.0170 C   0  0  0  0  0  0  0  0  0  0  0  0
  -24.4590   -9.9040  -22.5310 C   0  0  0  0  0  0  0  0  0  0  0  0
  -24.5370   -8.4290  -22.8280 C   0  0  0  0  0  0  0  0  0  0  0  0
  -24.2830   -7.6690  -21.6800 C   0  0  0  0  0  0  0  0  0  0  0  0
  -24.8180   -6.5570  -21.6060 O   0  0  0  0  0  0  0  0  0  0  0  0
  -23.5260   -8.1650  -20.5820 C   0  0  0  0  0  0  0  0  0  0  0  0
  -22.7520   -7.0930  -20.1210 C   0  0  0  0  0  0  0  0  0  0  0  0
  -21.5380   -7.2610  -20.0900 O   0  0  0  0  0  0  0  0  0  0  0  0
  -23.2530   -6.0790  -19.2890 C   0  0  0  0  0  0  0  0  0  0  0  0
  -22.6950   -4.7980  -19.5130 C   0  0  0  0  0  0  0  0  0  0  0  0
  -21.3810   -4.5040  -20.5150 Cl  0  0  0  0  0  0  0  0  0  0  0  0
  -23.1230   -3.6860  -18.8480 C   0  0  0  0  0  0  0  0  0  0  0  0
  -24.1920   -3.7820  -17.9920 C   0  0  0  0  0  0  0  0  0  0  0  0
  -24.6210   -2.3040  -17.2320 S   0  0  0  0  0  0  0  0  0  0  0  0
  -23.4300   -1.7500  -16.4580 O   0  0  0  0  0  0  0  0  0  0  0  0
  -24.9940   -1.2940  -18.3280 O   0  0  0  0  0  0  0  0  0  0  0  0
  -25.9900   -2.5360  -16.1670 C   0  0  0  0  0  0  0  0  0  0  0  0
  -24.8410   -5.0070  -17.8130 C   0  0  0  0  0  0  0  0  0  0  0  0
  -24.4260   -6.1290  -18.5450 C   0  0  0  0  0  0  0  0  0  0  0  0
  -22.9323  -11.1887  -21.7701 H   0  0  0  0  0  0  0  0  0  0  0  0
  -22.3540   -9.8129  -22.8038 H   0  0  0  0  0  0  0  0  0  0  0  0
  -25.1994  -10.1846  -21.7674 H   0  0  0  0  0  0  0  0  0  0  0  0
  -24.6751  -10.5167  -23.4186 H   0  0  0  0  0  0  0  0  0  0  0  0
  -23.7919   -8.1776  -23.5972 H   0  0  0  0  0  0  0  0  0  0  0  0
  -25.5523   -8.1975  -23.1824 H   0  0  0  0  0  0  0  0  0  0  0  0
  -24.1862   -8.5125  -19.7737 H   0  0  0  0  0  0  0  0  0  0  0  0
  -22.6160   -2.7212  -18.9965 H   0  0  0  0  0  0  0  0  0  0  0  0
  -25.6545   -2.4792  -15.1209 H   0  0  0  0  0  0  0  0  0  0  0  0
  -26.7381   -1.7518  -16.3553 H   0  0  0  0  0  0  0  0  0  0  0  0
  -26.4379   -3.5229  -16.3553 H   0  0  0  0  0  0  0  0  0  0  0  0
  -25.6746   -5.0907  -17.1002 H   0  0  0  0  0  0  0  0  0  0  0  0
  -25.0290   -7.0489  -18.5303 H   0  0  0  0  0  0  0  0  0  0  0  0
  5  4  1  0
  5  6  1  0
  4  3  1  0
  3  2  1  0
  6  7  2  0
  6  8  1  0
  2  8  1  0
  2  1  2  0
  8  9  1  0
 13 12  1  0
  9 10  2  0
  9 11  1  0
 12 11  2  0
 12 14  1  0
 11 21  1  0
 14 15  2  0
 21 20  2  0
 18 16  2  0
 15 20  1  0
 15 16  1  0
 16 17  2  0
 16 19  1  0
  3 22  1  0
  3 23  1  0
  4 24  1  0
  4 25  1  0
  5 26  1  0
  5 27  1  0
  8 28  1  0
 14 29  1  0
 19 30  1  0
 19 31  1  0
 19 32  1  0
 20 33  1  0
 21 34  1  0
A    1
OAB
A    2
CAN
A    3
CAL
A    4
CAK
A    5
CAM
A    6
CAO
A    7
OAC
A    8
CAT
A    9
CAP
A   10
OAD
A   11
CAS
A   12
CAQ
A   13
CLA
A   14
CAJ
A   15
CAR
A   16
SAU
A   17
OAE
A   18
OAF
A   19
CAA
A   20
CAH
A   21
CAI
M  END
