5DI1_5DF_A_4000
     RDKit          3D

 40 42  0  0  0  0  0  0  0  0999 V2000
   73.9640   50.5320   21.6570 C   0  0  0  0  0  0  0  0  0  0  0  0
   74.3020   51.4630   20.5380 C   0  0  0  0  0  0  0  0  0  0  0  0
   73.6160   48.2840   22.4620 C   0  0  0  0  0  0  0  0  0  0  0  0
   73.9950   49.1420   21.4480 C   0  0  0  0  0  0  0  0  0  0  0  0
   78.7750   52.4990   16.5200 C   0  0  0  0  0  0  0  0  0  0  0  0
   77.9210   50.2940   16.1500 C   0  0  0  0  0  0  0  0  0  0  0  0
   77.7250   52.7710   17.3750 C   0  0  0  0  0  0  0  0  0  0  0  0
   75.3630   51.1670   19.6480 C   0  0  0  0  0  0  0  0  0  0  0  0
   75.6400   52.0660   18.5990 C   0  0  0  0  0  0  0  0  0  0  0  0
   74.8050   53.2140   18.4510 C   0  0  0  0  0  0  0  0  0  0  0  0
   73.7980   53.4280   19.3020 N   0  0  0  0  0  0  0  0  0  0  0  0
   73.5310   52.6150   20.3160 C   0  0  0  0  0  0  0  0  0  0  0  0
   73.2280   48.7940   23.7090 C   0  0  0  0  0  0  0  0  0  0  0  0
   73.1770   50.1750   23.9200 C   0  0  0  0  0  0  0  0  0  0  0  0
   73.5050   51.0410   22.8900 C   0  0  0  0  0  0  0  0  0  0  0  0
   74.9790   54.0960   17.3890 N   0  0  0  0  0  0  0  0  0  0  0  0
   76.7720   51.7890   17.6490 C   0  0  0  0  0  0  0  0  0  0  0  0
   76.9000   50.5310   17.0550 C   0  0  0  0  0  0  0  0  0  0  0  0
   78.8540   51.2760   15.8710 C   0  0  0  0  0  0  0  0  0  0  0  0
   80.1610   50.9770   14.6870 S   0  0  0  0  0  0  0  0  0  0  0  0
   81.3370   50.9590   15.4710 O   0  0  0  0  0  0  0  0  0  0  0  0
   79.7540   49.8170   13.9740 O   0  0  0  0  0  0  0  0  0  0  0  0
   80.1580   52.4430   13.5890 C   0  0  0  0  0  0  0  0  0  0  0  0
   72.8950   47.9460   24.7140 O   0  0  0  0  0  0  0  0  0  0  0  0
   73.6186   47.1974   22.2906 H   0  0  0  0  0  0  0  0  0  0  0  0
   74.3207   48.7382   20.4780 H   0  0  0  0  0  0  0  0  0  0  0  0
   79.5538   53.2576   16.3527 H   0  0  0  0  0  0  0  0  0  0  0  0
   77.9905   49.3171   15.6491 H   0  0  0  0  0  0  0  0  0  0  0  0
   77.6397   53.7638   17.8410 H   0  0  0  0  0  0  0  0  0  0  0  0
   75.9601   50.2517   19.7734 H   0  0  0  0  0  0  0  0  0  0  0  0
   72.6945   52.8467   20.9916 H   0  0  0  0  0  0  0  0  0  0  0  0
   72.8773   50.5726   24.9009 H   0  0  0  0  0  0  0  0  0  0  0  0
   73.4074   52.1272   23.0336 H   0  0  0  0  0  0  0  0  0  0  0  0
   75.1752   55.0904   17.5723 H   0  0  0  0  0  0  0  0  0  0  0  0
   74.9116   53.7545   16.4196 H   0  0  0  0  0  0  0  0  0  0  0  0
   76.1901   49.7291   17.3061 H   0  0  0  0  0  0  0  0  0  0  0  0
   80.1561   53.3582   14.1993 H   0  0  0  0  0  0  0  0  0  0  0  0
   81.0562   52.4275   12.9542 H   0  0  0  0  0  0  0  0  0  0  0  0
   79.2599   52.4238   12.9542 H   0  0  0  0  0  0  0  0  0  0  0  0
   73.0057   48.2278   25.6566 H   0  0  0  0  0  0  0  0  0  0  0  0
 23 20  1  0
 22 20  2  0
 20 21  2  0
 20 19  1  0
 19  6  1  0
 19  5  2  0
  6 18  2  0
  5  7  1  0
 18 17  1  0
  7 17  2  0
 16 10  1  0
 17  9  1  0
 10  9  1  0
 10 11  2  0
  9  8  2  0
 11 12  1  0
  8  2  1  0
 12  2  2  0
  2  1  1  0
  4  1  1  0
  4  3  2  0
  1 15  2  0
  3 13  1  0
 15 14  1  0
 13 14  2  0
 13 24  1  0
  3 25  1  0
  4 26  1  0
  5 27  1  0
  6 28  1  0
  7 29  1  0
  8 30  1  0
 12 31  1  0
 14 32  1  0
 15 33  1  0
 16 34  1  0
 16 35  1  0
 18 36  1  0
 23 37  1  0
 23 38  1  0
 23 39  1  0
 24 40  1  0
A    1
C7
A    2
C6
A    3
C9
A    4
C8
A    5
C18
A    6
C16
A    7
C19
A    8
C1
A    9
C2
A   10
C3
A   11
N4
A   12
C5
A   13
C10
A   14
C11
A   15
C12
A   16
N13
A   17
C14
A   18
C15
A   19
C17
A   20
S20
A   21
O21
A   22
O22
A   23
C23
A   24
O24
M  END
