5DIQ_5B9_F_403
     RDKit          3D

 35 37  0  0  0  0  0  0  0  0999 V2000
    3.3950   76.7520   28.5200 C   0  0  0  0  0  0  0  0  0  0  0  0
    2.7650   75.4770   28.4890 C   0  0  0  0  0  0  0  0  0  0  0  0
    2.6440   77.9090   28.1690 C   0  0  0  0  0  0  0  0  0  0  0  0
    0.6840   76.5280   27.7290 C   0  0  0  0  0  0  0  0  0  0  0  0
    4.5810   79.3280   28.5740 C   0  0  0  0  0  0  0  0  0  0  0  0
    5.6660   72.9830   28.2520 C   0  0  0  0  0  0  0  0  0  0  0  0
    6.8800   73.2950   27.5790 C   0  0  0  0  0  0  0  0  0  0  0  0
    5.6630   71.9470   29.2200 C   0  0  0  0  0  0  0  0  0  0  0  0
    8.0630   72.5940   27.8910 C   0  0  0  0  0  0  0  0  0  0  0  0
    6.9450   74.3690   26.5010 C   0  0  0  0  0  0  0  0  0  0  0  0
    6.8520   71.2630   29.5340 C   0  0  0  0  0  0  0  0  0  0  0  0
    8.0470   71.5800   28.8690 C   0  0  0  0  0  0  0  0  0  0  0  0
    4.7580   76.9230   28.8870 C   0  0  0  0  0  0  0  0  0  0  0  0
    3.5010   74.1670   28.8820 C   0  0  0  0  0  0  0  0  0  0  0  0
    1.4260   75.3850   28.0640 C   0  0  0  0  0  0  0  0  0  0  0  0
    1.3040   77.7850   27.7420 C   0  0  0  0  0  0  0  0  0  0  0  0
    3.2410   79.1920   28.1790 C   0  0  0  0  0  0  0  0  0  0  0  0
    5.3470   78.2000   28.9090 C   0  0  0  0  0  0  0  0  0  0  0  0
    4.4930   73.7050   27.9310 O   0  0  0  0  0  0  0  0  0  0  0  0
    8.0720   75.0670   26.3210 O   0  0  0  0  0  0  0  0  0  0  0  0
    5.9750   74.5890   25.7920 O   0  0  0  0  0  0  0  0  0  0  0  0
   -0.3782   76.4380   27.4577 H   0  0  0  0  0  0  0  0  0  0  0  0
    5.0357   80.3285   28.6216 H   0  0  0  0  0  0  0  0  0  0  0  0
    4.7259   71.6764   29.7285 H   0  0  0  0  0  0  0  0  0  0  0  0
    9.0001   72.8393   27.3698 H   0  0  0  0  0  0  0  0  0  0  0  0
    6.8451   70.4769   30.3035 H   0  0  0  0  0  0  0  0  0  0  0  0
    8.9718   71.0361   29.1118 H   0  0  0  0  0  0  0  0  0  0  0  0
    5.3607   76.0435   29.1577 H   0  0  0  0  0  0  0  0  0  0  0  0
    2.7466   73.3749   28.9980 H   0  0  0  0  0  0  0  0  0  0  0  0
    4.0493   74.3922   29.8086 H   0  0  0  0  0  0  0  0  0  0  0  0
    0.9510   74.3954   27.9930 H   0  0  0  0  0  0  0  0  0  0  0  0
    0.7458   78.6761   27.4191 H   0  0  0  0  0  0  0  0  0  0  0  0
    2.6592   80.0762   27.8794 H   0  0  0  0  0  0  0  0  0  0  0  0
    6.4049   78.3147   29.1879 H   0  0  0  0  0  0  0  0  0  0  0  0
    8.5871   75.3860   27.1040 H   0  0  0  0  0  0  0  0  0  0  0  0
 21 10  2  0
 20 10  1  0
 10  7  1  0
  7  9  2  0
  7  6  1  0
  4 16  2  0
  4 15  1  0
 16  3  1  0
  9 12  1  0
 19  6  1  0
 19 14  1  0
 15  2  2  0
  3 17  2  0
  3  1  1  0
 17  5  1  0
  6  8  2  0
  2  1  1  0
  2 14  1  0
  1 13  2  0
  5 18  2  0
 12 11  2  0
 13 18  1  0
  8 11  1  0
  4 22  1  0
  5 23  1  0
  8 24  1  0
  9 25  1  0
 11 26  1  0
 12 27  1  0
 13 28  1  0
 14 29  1  0
 14 30  1  0
 15 31  1  0
 16 32  1  0
 17 33  1  0
 18 34  1  0
 20 35  1  0
A    1
C1
A    2
C2
A    3
C3
A    4
C11
A    5
C12
A    6
C13
A    7
C14
A    8
C15
A    9
C16
A   10
C17
A   11
C18
A   12
C19
A   13
C4
A   14
C5
A   15
C6
A   16
C7
A   17
C8
A   18
C9
A   19
O10
A   20
O20
A   21
O21
M  END
