5DIT_5B8_A_201
     RDKit          3D

105109  0  0  0  0  0  0  0  0999 V2000
  -11.2740   -2.6780  -25.4880 C   0  0  0  0  0  0  0  0  0  0  0  0
  -11.7840   -3.9700  -24.8440 C   0  0  0  0  0  0  0  0  0  0  0  0
  -11.3230   -3.9560  -23.4000 C   0  0  0  0  0  0  0  0  0  0  0  0
   -9.8090   -4.0860  -23.3480 C   0  0  0  0  0  0  0  0  0  0  0  0
   -9.1260   -3.0090  -24.1980 C   0  0  0  0  0  0  0  0  0  0  0  0
   -9.7290   -2.9290  -25.6080 C   0  0  0  0  0  0  0  0  0  0  0  0
   -8.9660   -1.8670  -26.4670 C   0  0  0  0  0  0  0  0  0  0  0  0
   -9.5770   -1.7680  -27.8870 C   0  0  0  0  0  0  0  0  0  0  0  0
   -8.6540   -0.9960  -28.8250 C   0  0  0  0  0  0  0  0  0  0  0  0
   -9.7550   -3.0760  -28.4410 O   0  0  0  0  0  0  0  0  0  0  0  0
   -8.9380   -0.4560  -25.8000 C   0  0  0  0  0  0  0  0  0  0  0  0
  -10.0110    0.0810  -25.4920 O   0  0  0  0  0  0  0  0  0  0  0  0
   -7.7280    0.1510  -25.5690 N   0  0  0  0  0  0  0  0  0  0  0  0
   -6.3780   -0.4140  -25.9620 C   0  0  0  0  0  0  0  0  0  0  0  0
   -5.2800   -0.1560  -24.9990 C   0  0  0  0  0  0  0  0  0  0  0  0
   -5.2990    1.3300  -24.7100 C   0  0  0  0  0  0  0  0  0  0  0  0
   -6.5870    1.7330  -24.0180 C   0  0  0  0  0  0  0  0  0  0  0  0
   -7.7730    1.5190  -24.9530 C   0  0  0  0  0  0  0  0  0  0  0  0
   -7.8250    2.5220  -25.9620 C   0  0  0  0  0  0  0  0  0  0  0  0
   -8.2450    3.6580  -25.7160 O   0  0  0  0  0  0  0  0  0  0  0  0
   -7.3810    2.1280  -27.1980 O   0  0  0  0  0  0  0  0  0  0  0  0
   -7.4490    3.0970  -28.2680 C   0  0  0  0  0  0  0  0  0  0  0  0
   -8.8520    3.0260  -28.8550 C   0  0  0  0  0  0  0  0  0  0  0  0
   -9.1550    4.2010  -29.7490 C   0  0  0  0  0  0  0  0  0  0  0  0
   -9.4860    5.4070  -29.0650 C   0  0  0  0  0  0  0  0  0  0  0  0
  -10.7180    5.6330  -28.4180 C   0  0  0  0  0  0  0  0  0  0  0  0
   -8.5500    6.4360  -29.1060 C   0  0  0  0  0  0  0  0  0  0  0  0
   -8.8010    7.6480  -28.4910 C   0  0  0  0  0  0  0  0  0  0  0  0
  -10.0040    7.8730  -27.8310 C   0  0  0  0  0  0  0  0  0  0  0  0
  -10.2090    9.1050  -27.2550 O   0  0  0  0  0  0  0  0  0  0  0  0
  -11.0540    9.3260  -26.1130 C   0  0  0  0  0  0  0  0  0  0  0  0
  -10.9810    6.8680  -27.8010 C   0  0  0  0  0  0  0  0  0  0  0  0
  -12.1310    7.1690  -27.1300 O   0  0  0  0  0  0  0  0  0  0  0  0
  -13.3580    6.5980  -27.6150 C   0  0  0  0  0  0  0  0  0  0  0  0
   -6.3900    2.7310  -29.1200 C   0  0  0  0  0  0  0  0  0  0  0  0
   -5.3340    3.6120  -29.2690 C   0  0  0  0  0  0  0  0  0  0  0  0
   -6.3050    1.4910  -29.7490 C   0  0  0  0  0  0  0  0  0  0  0  0
   -5.2090    1.1690  -30.5530 C   0  0  0  0  0  0  0  0  0  0  0  0
   -4.1650    2.0820  -30.7140 C   0  0  0  0  0  0  0  0  0  0  0  0
   -4.2380    3.3070  -30.0540 C   0  0  0  0  0  0  0  0  0  0  0  0
   -3.2990    4.2830  -30.1520 O   0  0  0  0  0  0  0  0  0  0  0  0
   -1.9570    3.9060  -30.3120 C   0  0  0  0  0  0  0  0  0  0  0  0
   -1.1620    5.1180  -29.8450 C   0  0  0  0  0  0  0  0  0  0  0  0
   -0.7600    6.0250  -30.9590 N   0  0  0  0  0  0  0  0  0  0  0  0
   -1.8780    6.4790  -31.8100 C   0  0  0  0  0  0  0  0  0  0  0  0
   -1.3760    7.3180  -32.9850 C   0  0  0  0  0  0  0  0  0  0  0  0
   -0.3240    6.5930  -33.6810 O   0  0  0  0  0  0  0  0  0  0  0  0
    0.8080    6.4660  -32.8530 C   0  0  0  0  0  0  0  0  0  0  0  0
    0.3560    5.4840  -31.7630 C   0  0  0  0  0  0  0  0  0  0  0  0
  -11.4847   -1.8078  -24.8489 H   0  0  0  0  0  0  0  0  0  0  0  0
  -11.7533   -2.4562  -26.4529 H   0  0  0  0  0  0  0  0  0  0  0  0
  -12.8824   -4.0071  -24.8898 H   0  0  0  0  0  0  0  0  0  0  0  0
  -11.3947   -4.8528  -25.3723 H   0  0  0  0  0  0  0  0  0  0  0  0
  -11.6258   -3.0097  -22.9279 H   0  0  0  0  0  0  0  0  0  0  0  0
  -11.7813   -4.7986  -22.8615 H   0  0  0  0  0  0  0  0  0  0  0  0
   -9.5216   -5.0775  -23.7280 H   0  0  0  0  0  0  0  0  0  0  0  0
   -9.4862   -3.9596  -22.3040 H   0  0  0  0  0  0  0  0  0  0  0  0
   -8.0553   -3.2470  -24.2815 H   0  0  0  0  0  0  0  0  0  0  0  0
   -9.2774   -2.0372  -23.7054 H   0  0  0  0  0  0  0  0  0  0  0  0
   -9.6035   -3.8798  -26.1467 H   0  0  0  0  0  0  0  0  0  0  0  0
   -7.9250   -2.2152  -26.5388 H   0  0  0  0  0  0  0  0  0  0  0  0
  -10.5418   -1.2481  -27.7932 H   0  0  0  0  0  0  0  0  0  0  0  0
   -7.9431   -0.4014  -28.2325 H   0  0  0  0  0  0  0  0  0  0  0  0
   -8.1005   -1.7039  -29.4594 H   0  0  0  0  0  0  0  0  0  0  0  0
   -9.2529   -0.3261  -29.4594 H   0  0  0  0  0  0  0  0  0  0  0  0
   -9.8447   -3.7354  -27.7080 H   0  0  0  0  0  0  0  0  0  0  0  0
   -6.4843   -1.5032  -26.0728 H   0  0  0  0  0  0  0  0  0  0  0  0
   -6.0930    0.0971  -26.8934 H   0  0  0  0  0  0  0  0  0  0  0  0
   -5.4462   -0.7251  -24.0724 H   0  0  0  0  0  0  0  0  0  0  0  0
   -4.3090   -0.4677  -25.4114 H   0  0  0  0  0  0  0  0  0  0  0  0
   -4.4478    1.5809  -24.0600 H   0  0  0  0  0  0  0  0  0  0  0  0
   -5.2290    1.8733  -25.6639 H   0  0  0  0  0  0  0  0  0  0  0  0
   -6.5322    2.7951  -23.7370 H   0  0  0  0  0  0  0  0  0  0  0  0
   -6.7214    1.1144  -23.1184 H   0  0  0  0  0  0  0  0  0  0  0  0
   -8.6902    1.5982  -24.3509 H   0  0  0  0  0  0  0  0  0  0  0  0
   -7.3168    4.1548  -27.9969 H   0  0  0  0  0  0  0  0  0  0  0  0
   -9.5805    3.0107  -28.0309 H   0  0  0  0  0  0  0  0  0  0  0  0
   -8.9175    2.1124  -29.4641 H   0  0  0  0  0  0  0  0  0  0  0  0
  -10.0042    3.9298  -30.3934 H   0  0  0  0  0  0  0  0  0  0  0  0
   -8.2313    4.4081  -30.3093 H   0  0  0  0  0  0  0  0  0  0  0  0
  -11.4779    4.8380  -28.3960 H   0  0  0  0  0  0  0  0  0  0  0  0
   -7.5978    6.2827  -29.6349 H   0  0  0  0  0  0  0  0  0  0  0  0
   -8.0413    8.4428  -28.5240 H   0  0  0  0  0  0  0  0  0  0  0  0
  -10.4725    9.1739  -25.1917 H   0  0  0  0  0  0  0  0  0  0  0  0
  -11.4407   10.3555  -26.1368 H   0  0  0  0  0  0  0  0  0  0  0  0
  -11.8952    8.6177  -26.1368 H   0  0  0  0  0  0  0  0  0  0  0  0
  -13.9881    6.3048  -26.7624 H   0  0  0  0  0  0  0  0  0  0  0  0
  -13.8913    7.3405  -28.2268 H   0  0  0  0  0  0  0  0  0  0  0  0
  -13.1334    5.7119  -28.2268 H   0  0  0  0  0  0  0  0  0  0  0  0
   -5.3674    4.5808  -28.7491 H   0  0  0  0  0  0  0  0  0  0  0  0
   -7.1115    0.7558  -29.6108 H   0  0  0  0  0  0  0  0  0  0  0  0
   -5.1684    0.1939  -31.0604 H   0  0  0  0  0  0  0  0  0  0  0  0
   -3.3010    1.8388  -31.3500 H   0  0  0  0  0  0  0  0  0  0  0  0
   -1.7239    3.0264  -29.6939 H   0  0  0  0  0  0  0  0  0  0  0  0
   -1.7221    3.6262  -31.3496 H   0  0  0  0  0  0  0  0  0  0  0  0
   -0.2525    4.7644  -29.3372 H   0  0  0  0  0  0  0  0  0  0  0  0
   -1.8137    5.6960  -29.1733 H   0  0  0  0  0  0  0  0  0  0  0  0
   -2.5660    7.0866  -31.2038 H   0  0  0  0  0  0  0  0  0  0  0  0
   -2.3918    5.5927  -32.2105 H   0  0  0  0  0  0  0  0  0  0  0  0
   -0.9781    8.2728  -32.6108 H   0  0  0  0  0  0  0  0  0  0  0  0
   -2.2073    7.5149  -33.6779 H   0  0  0  0  0  0  0  0  0  0  0  0
    1.6618    6.0608  -33.4159 H   0  0  0  0  0  0  0  0  0  0  0  0
    1.1461    7.4295  -32.4439 H   0  0  0  0  0  0  0  0  0  0  0  0
    0.0288    4.5489  -32.2409 H   0  0  0  0  0  0  0  0  0  0  0  0
    1.2073    5.3093  -31.0886 H   0  0  0  0  0  0  0  0  0  0  0  0
 47 46  1  0
 47 48  1  0
 46 45  1  0
 48 49  1  0
 45 44  1  0
 49 44  1  0
 44 43  1  0
 39 38  2  0
 39 40  1  0
 38 37  1  0
 42 41  1  0
 42 43  1  0
 41 40  1  0
 40 36  2  0
 37 35  2  0
 24 25  1  0
 24 23  1  0
 36 35  1  0
 35 22  1  0
 27 25  1  0
 27 28  2  0
 25 26  2  0
 23 22  1  0
  9  8  1  0
 28 29  1  0
 10  8  1  0
 26 32  1  0
 22 21  1  0
  8  7  1  0
 29 32  2  0
 29 30  1  0
 32 33  1  0
 34 33  1  0
 30 31  1  0
 21 19  1  0
  7 11  1  0
  7  6  1  0
 14 13  1  0
 14 15  1  0
 19 20  2  0
 19 18  1  0
 11 13  1  0
 11 12  2  0
  6  1  1  0
  6  5  1  0
 13 18  1  0
  1  2  1  0
 15 16  1  0
 18 17  1  0
  2  3  1  0
 16 17  1  0
  5  4  1  0
  3  4  1  0
  1 50  1  0
  1 51  1  0
  2 52  1  0
  2 53  1  0
  3 54  1  0
  3 55  1  0
  4 56  1  0
  4 57  1  0
  5 58  1  0
  5 59  1  0
  6 60  1  0
  7 61  1  0
  8 62  1  0
  9 63  1  0
  9 64  1  0
  9 65  1  0
 10 66  1  0
 14 67  1  0
 14 68  1  0
 15 69  1  0
 15 70  1  0
 16 71  1  0
 16 72  1  0
 17 73  1  0
 17 74  1  0
 18 75  1  0
 22 76  1  0
 23 77  1  0
 23 78  1  0
 24 79  1  0
 24 80  1  0
 26 81  1  0
 27 82  1  0
 28 83  1  0
 31 84  1  0
 31 85  1  0
 31 86  1  0
 34 87  1  0
 34 88  1  0
 34 89  1  0
 36 90  1  0
 37 91  1  0
 38 92  1  0
 39 93  1  0
 42 94  1  0
 42 95  1  0
 43 96  1  0
 43 97  1  0
 45 98  1  0
 45 99  1  0
 46100  1  0
 46101  1  0
 48102  1  0
 48103  1  0
 49104  1  0
 49105  1  0
A    1
CAW
A    2
CAO
A    3
CAN
A    4
CAP
A    5
CAX
A    6
CBS
A    7
CBU
A    8
CBQ
A    9
CAC
A   10
OAF
A   11
CBK
A   12
OAE
A   13
N
A   14
CBA
A   15
CAR
A   16
CAQ
A   17
CB
A   18
CA
A   19
C
A   20
O
A   21
OBI
A   22
CBR
A   23
CAZ
A   24
CAV
A   25
CBL
A   26
CAM
A   27
CAJ
A   28
CAK
A   29
CBO
A   30
OBE
A   31
CAA
A   32
CBP
A   33
OBF
A   34
CAB
A   35
CBN
A   36
CAL
A   37
CAI
A   38
CAG
A   39
CAH
A   40
CBM
A   41
OBH
A   42
CAU
A   43
CBD
A   44
NBV
A   45
CBB
A   46
CAS
A   47
OBG
A   48
CAT
A   49
CBC
M  END
