5DIU_5BG_A_201
     RDKit          3D

108112  0  0  0  0  0  0  0  0999 V2000
   17.1260   -4.5210   -8.2970 C   0  0  0  0  0  0  0  0  0  0  0  0
   16.4500   -5.2190   -7.2540 O   0  0  0  0  0  0  0  0  0  0  0  0
   15.3230   -5.8740   -7.5430 C   0  0  0  0  0  0  0  0  0  0  0  0
   14.7320   -5.8320   -8.8300 C   0  0  0  0  0  0  0  0  0  0  0  0
   14.7520   -6.6390   -6.5870 C   0  0  0  0  0  0  0  0  0  0  0  0
   15.2870   -6.6420   -5.2560 O   0  0  0  0  0  0  0  0  0  0  0  0
   16.3600   -7.5410   -5.1440 C   0  0  0  0  0  0  0  0  0  0  0  0
   13.6070   -7.3260   -6.7990 C   0  0  0  0  0  0  0  0  0  0  0  0
   13.0570   -8.0660   -5.7390 O   0  0  0  0  0  0  0  0  0  0  0  0
   11.7240   -8.6300   -5.8350 C   0  0  0  0  0  0  0  0  0  0  0  0
   12.9790   -7.3300   -8.0460 C   0  0  0  0  0  0  0  0  0  0  0  0
   13.5480   -6.5500   -9.0430 C   0  0  0  0  0  0  0  0  0  0  0  0
   12.8600   -6.5210  -10.4190 C   0  0  0  0  0  0  0  0  0  0  0  0
   13.6910   -7.1790  -11.5460 C   0  0  0  0  0  0  0  0  0  0  0  0
   14.2560   -8.5030  -11.1410 C   0  0  0  0  0  0  0  0  0  0  0  0
   15.0130   -9.2550  -12.2550 C   0  0  0  0  0  0  0  0  0  0  0  0
   14.1340   -9.3200  -13.5530 C   0  0  0  0  0  0  0  0  0  0  0  0
   13.6650   -7.9750  -13.9790 C   0  0  0  0  0  0  0  0  0  0  0  0
   12.9060   -7.2750  -12.8250 C   0  0  0  0  0  0  0  0  0  0  0  0
   12.5540   -5.0790  -10.7650 C   0  0  0  0  0  0  0  0  0  0  0  0
   13.2510   -4.3940  -11.4910 O   0  0  0  0  0  0  0  0  0  0  0  0
   11.4480   -4.4910  -10.1660 N   0  0  0  0  0  0  0  0  0  0  0  0
   10.5970   -5.1700   -9.1370 C   0  0  0  0  0  0  0  0  0  0  0  0
    9.1470   -4.8560   -9.3150 C   0  0  0  0  0  0  0  0  0  0  0  0
    8.8420   -3.3490   -9.4650 C   0  0  0  0  0  0  0  0  0  0  0  0
    9.6950   -2.8040  -10.5920 C   0  0  0  0  0  0  0  0  0  0  0  0
   11.2090   -3.0680  -10.3870 C   0  0  0  0  0  0  0  0  0  0  0  0
   11.6690   -2.1540   -9.2110 C   0  0  0  0  0  0  0  0  0  0  0  0
   11.2450   -1.0370   -9.1470 O   0  0  0  0  0  0  0  0  0  0  0  0
   12.5600   -2.7080   -8.3720 N   0  0  0  0  0  0  0  0  0  0  0  0
   12.9490   -1.9590   -7.1220 C   0  0  0  0  0  0  0  0  0  0  0  0
   12.1870   -2.5680   -6.0230 C   0  0  0  0  0  0  0  0  0  0  0  0
   11.1530   -1.8570   -5.4640 C   0  0  0  0  0  0  0  0  0  0  0  0
   12.3190   -3.8930   -5.7220 C   0  0  0  0  0  0  0  0  0  0  0  0
   11.5440   -4.5830   -4.8100 C   0  0  0  0  0  0  0  0  0  0  0  0
   10.5260   -3.8320   -4.2140 C   0  0  0  0  0  0  0  0  0  0  0  0
   10.3110   -2.5050   -4.4960 C   0  0  0  0  0  0  0  0  0  0  0  0
    9.2820   -1.7160   -3.9790 O   0  0  0  0  0  0  0  0  0  0  0  0
    8.3540   -2.3180   -3.0740 C   0  0  0  0  0  0  0  0  0  0  0  0
    8.9970   -2.6070   -1.7100 C   0  0  0  0  0  0  0  0  0  0  0  0
    8.3700   -3.4320   -1.0590 O   0  0  0  0  0  0  0  0  0  0  0  0
   10.0680   -2.0720   -1.4200 O   0  0  0  0  0  0  0  0  0  0  0  0
   14.4400   -2.0050   -6.9380 C   0  0  0  0  0  0  0  0  0  0  0  0
   14.8710   -0.8730   -5.9400 C   0  0  0  0  0  0  0  0  0  0  0  0
   14.7450    0.4440   -6.4670 C   0  0  0  0  0  0  0  0  0  0  0  0
   15.6010    0.8690   -7.4970 C   0  0  0  0  0  0  0  0  0  0  0  0
   13.7390    1.3550   -6.0650 C   0  0  0  0  0  0  0  0  0  0  0  0
   13.5960    2.6120   -6.5760 C   0  0  0  0  0  0  0  0  0  0  0  0
   14.4740    3.0540   -7.6120 C   0  0  0  0  0  0  0  0  0  0  0  0
   14.4160    4.2950   -8.1880 O   0  0  0  0  0  0  0  0  0  0  0  0
   13.5130    5.2790   -7.7190 C   0  0  0  0  0  0  0  0  0  0  0  0
   15.4030    2.1540   -8.0110 C   0  0  0  0  0  0  0  0  0  0  0  0
   16.0850    2.7150   -9.1080 O   0  0  0  0  0  0  0  0  0  0  0  0
   17.2160    1.9740   -9.5310 C   0  0  0  0  0  0  0  0  0  0  0  0
   17.8278   -3.7964   -7.8583 H   0  0  0  0  0  0  0  0  0  0  0  0
   17.6811   -5.2388   -8.9188 H   0  0  0  0  0  0  0  0  0  0  0  0
   16.3908   -3.9892   -8.9188 H   0  0  0  0  0  0  0  0  0  0  0  0
   15.1916   -5.2498   -9.6422 H   0  0  0  0  0  0  0  0  0  0  0  0
   16.5768   -7.7226   -4.0810 H   0  0  0  0  0  0  0  0  0  0  0  0
   16.0951   -8.4907   -5.6317 H   0  0  0  0  0  0  0  0  0  0  0  0
   17.2487   -7.1138   -5.6317 H   0  0  0  0  0  0  0  0  0  0  0  0
   11.3238   -8.7993   -4.8244 H   0  0  0  0  0  0  0  0  0  0  0  0
   11.0687   -7.9320   -6.3767 H   0  0  0  0  0  0  0  0  0  0  0  0
   11.7686   -9.5863   -6.3767 H   0  0  0  0  0  0  0  0  0  0  0  0
   12.0727   -7.9255   -8.2302 H   0  0  0  0  0  0  0  0  0  0  0  0
   11.9397   -7.1190  -10.3452 H   0  0  0  0  0  0  0  0  0  0  0  0
   14.5502   -6.5183  -11.7336 H   0  0  0  0  0  0  0  0  0  0  0  0
   13.4253   -9.1398  -10.8026 H   0  0  0  0  0  0  0  0  0  0  0  0
   14.9946   -8.2949  -10.3528 H   0  0  0  0  0  0  0  0  0  0  0  0
   15.2382  -10.2770  -11.9162 H   0  0  0  0  0  0  0  0  0  0  0  0
   15.9483   -8.7212  -12.4792 H   0  0  0  0  0  0  0  0  0  0  0  0
   13.2578   -9.9553  -13.3565 H   0  0  0  0  0  0  0  0  0  0  0  0
   14.7542   -9.7342  -14.3616 H   0  0  0  0  0  0  0  0  0  0  0  0
   14.5329   -7.3628  -14.2653 H   0  0  0  0  0  0  0  0  0  0  0  0
   12.9836   -8.0903  -14.8348 H   0  0  0  0  0  0  0  0  0  0  0  0
   12.6471   -6.2562  -13.1492 H   0  0  0  0  0  0  0  0  0  0  0  0
   12.0193   -7.8890  -12.6088 H   0  0  0  0  0  0  0  0  0  0  0  0
   10.7379   -6.2577   -9.2210 H   0  0  0  0  0  0  0  0  0  0  0  0
   10.9049   -4.8046   -8.1462 H   0  0  0  0  0  0  0  0  0  0  0  0
    8.6016   -5.2332   -8.4374 H   0  0  0  0  0  0  0  0  0  0  0  0
    8.8305   -5.3385  -10.2515 H   0  0  0  0  0  0  0  0  0  0  0  0
    9.0833   -2.8251   -8.5284 H   0  0  0  0  0  0  0  0  0  0  0  0
    7.7755   -3.1972   -9.6877 H   0  0  0  0  0  0  0  0  0  0  0  0
    9.5344   -1.7179  -10.6597 H   0  0  0  0  0  0  0  0  0  0  0  0
    9.3923   -3.3217  -11.5142 H   0  0  0  0  0  0  0  0  0  0  0  0
   11.8046   -2.8169  -11.2771 H   0  0  0  0  0  0  0  0  0  0  0  0
   12.9709   -3.6295   -8.5791 H   0  0  0  0  0  0  0  0  0  0  0  0
   12.7038   -0.8877   -7.1693 H   0  0  0  0  0  0  0  0  0  0  0  0
   10.9727   -0.8108   -5.7520 H   0  0  0  0  0  0  0  0  0  0  0  0
   13.1047   -4.4558   -6.2473 H   0  0  0  0  0  0  0  0  0  0  0  0
   11.7148   -5.6430   -4.5707 H   0  0  0  0  0  0  0  0  0  0  0  0
    9.8669   -4.3269   -3.4856 H   0  0  0  0  0  0  0  0  0  0  0  0
    7.5032   -1.6358   -2.9297 H   0  0  0  0  0  0  0  0  0  0  0  0
    8.0239   -3.2738   -3.5069 H   0  0  0  0  0  0  0  0  0  0  0  0
    8.3924   -3.4026   -0.0697 H   0  0  0  0  0  0  0  0  0  0  0  0
   14.7306   -2.9848   -6.5310 H   0  0  0  0  0  0  0  0  0  0  0  0
   14.9373   -1.8527   -7.9073 H   0  0  0  0  0  0  0  0  0  0  0  0
   14.2420   -0.9471   -5.0406 H   0  0  0  0  0  0  0  0  0  0  0  0
   15.9385   -1.0284   -5.7249 H   0  0  0  0  0  0  0  0  0  0  0  0
   16.3967    0.2155   -7.8842 H   0  0  0  0  0  0  0  0  0  0  0  0
   13.0277    1.0290   -5.2919 H   0  0  0  0  0  0  0  0  0  0  0  0
   12.8104    3.2799   -6.1929 H   0  0  0  0  0  0  0  0  0  0  0  0
   13.5114    5.2807   -6.6190 H   0  0  0  0  0  0  0  0  0  0  0  0
   13.8247    6.2677   -8.0868 H   0  0  0  0  0  0  0  0  0  0  0  0
   12.5012    5.0532   -8.0868 H   0  0  0  0  0  0  0  0  0  0  0  0
   17.7677    1.6125   -8.6507 H   0  0  0  0  0  0  0  0  0  0  0  0
   16.8870    1.1158  -10.1354 H   0  0  0  0  0  0  0  0  0  0  0  0
   17.8714    2.6183  -10.1354 H   0  0  0  0  0  0  0  0  0  0  0  0
 18 17  1  0
 18 19  1  0
 17 16  1  0
 19 14  1  0
 16 15  1  0
 14 15  1  0
 14 13  1  0
 21 20  2  0
 20 13  1  0
 20 22  1  0
 26 27  1  0
 26 25  1  0
 13 12  1  0
 27 22  1  0
 27 28  1  0
 22 23  1  0
 54 53  1  0
 25 24  1  0
 24 23  1  0
 28 29  2  0
 28 30  1  0
 53 52  1  0
 12  4  1  0
 12 11  2  0
  4  3  2  0
 30 31  1  0
  1  2  1  0
 50 51  1  0
 50 49  1  0
 11  8  1  0
 52 49  1  0
 52 46  2  0
 49 48  2  0
  3  2  1  0
  3  5  1  0
 46 45  1  0
 31 43  1  0
 31 32  1  0
 43 44  1  0
  8  5  2  0
  8  9  1  0
  5  6  1  0
 48 47  1  0
 45 47  2  0
 45 44  1  0
 32 34  1  0
 32 33  2  0
 10  9  1  0
 34 35  2  0
 33 37  1  0
  6  7  1  0
 35 36  1  0
 37 36  2  0
 37 38  1  0
 38 39  1  0
 39 40  1  0
 40 42  2  0
 40 41  1  0
  1 55  1  0
  1 56  1  0
  1 57  1  0
  4 58  1  0
  7 59  1  0
  7 60  1  0
  7 61  1  0
 10 62  1  0
 10 63  1  0
 10 64  1  0
 11 65  1  0
 13 66  1  0
 14 67  1  0
 15 68  1  0
 15 69  1  0
 16 70  1  0
 16 71  1  0
 17 72  1  0
 17 73  1  0
 18 74  1  0
 18 75  1  0
 19 76  1  0
 19 77  1  0
 23 78  1  0
 23 79  1  0
 24 80  1  0
 24 81  1  0
 25 82  1  0
 25 83  1  0
 26 84  1  0
 26 85  1  0
 27 86  1  0
 30 87  1  0
 31 88  1  0
 33 89  1  0
 34 90  1  0
 35 91  1  0
 36 92  1  0
 39 93  1  0
 39 94  1  0
 41 95  1  0
 43 96  1  0
 43 97  1  0
 44 98  1  0
 44 99  1  0
 46100  1  0
 47101  1  0
 48102  1  0
 51103  1  0
 51104  1  0
 51105  1  0
 54106  1  0
 54107  1  0
 54108  1  0
A    1
CAC
A    2
OBH
A    3
CBU
A    4
CAQ
A    5
CBW
A    6
OBJ
A    7
CAE
A    8
CBV
A    9
OBI
A   10
CAD
A   11
CAR
A   12
CBR
A   13
CCA
A   14
CBY
A   15
CAY
A   16
CAT
A   17
CAS
A   18
CAU
A   19
CAZ
A   20
CBN
A   21
OAH
A   22
N
A   23
CBD
A   24
CAW
A   25
CAV
A   26
CB
A   27
CA
A   28
C
A   29
O
A   30
NBE
A   31
CBX
A   32
CBQ
A   33
CAP
A   34
CAL
A   35
CAJ
A   36
CAK
A   37
CBP
A   38
OBK
A   39
CBC
A   40
CBL
A   41
OAI
A   42
OAF
A   43
CBA
A   44
CAX
A   45
CBO
A   46
CAO
A   47
CAM
A   48
CAN
A   49
CBS
A   50
OBF
A   51
CAA
A   52
CBT
A   53
OBG
A   54
CAB
M  END
