5DJV_5BL_F_401
     RDKit          3D

 44 48  0  0  0  0  0  0  0  0999 V2000
    3.3800   69.9770   30.9490 C   0  0  0  0  0  0  0  0  0  0  0  0
    4.2250   70.5920   29.9230 C   0  0  0  0  0  0  0  0  0  0  0  0
    3.4050   71.3490   29.1860 C   0  0  0  0  0  0  0  0  0  0  0  0
    1.2360   75.2620   26.0910 C   0  0  0  0  0  0  0  0  0  0  0  0
    0.3930   76.3710   25.9060 C   0  0  0  0  0  0  0  0  0  0  0  0
    0.9230   77.6640   26.0670 C   0  0  0  0  0  0  0  0  0  0  0  0
    3.1480   76.7400   26.5620 C   0  0  0  0  0  0  0  0  0  0  0  0
    2.2820   77.8620   26.4020 C   0  0  0  0  0  0  0  0  0  0  0  0
    2.7840   79.1720   26.5600 C   0  0  0  0  0  0  0  0  0  0  0  0
    4.1300   79.3810   26.9210 C   0  0  0  0  0  0  0  0  0  0  0  0
    4.9920   78.2850   27.0870 C   0  0  0  0  0  0  0  0  0  0  0  0
    4.5020   76.9800   26.9180 C   0  0  0  0  0  0  0  0  0  0  0  0
    4.4730   73.8210   25.7400 C   0  0  0  0  0  0  0  0  0  0  0  0
    5.2110   72.6410   26.0300 C   0  0  0  0  0  0  0  0  0  0  0  0
    6.2860   72.2990   25.1910 C   0  0  0  0  0  0  0  0  0  0  0  0
    6.5950   73.1170   24.0880 C   0  0  0  0  0  0  0  0  0  0  0  0
    5.8510   74.2910   23.8470 C   0  0  0  0  0  0  0  0  0  0  0  0
    6.1780   75.1970   22.6740 C   0  0  0  0  0  0  0  0  0  0  0  0
    2.2120   71.2340   29.6980 N   0  0  0  0  0  0  0  0  0  0  0  0
    2.1520   70.4510   30.7320 C   0  0  0  0  0  0  0  0  0  0  0  0
    3.4010   74.1860   26.5940 C   0  0  0  0  0  0  0  0  0  0  0  0
    3.1030   73.3900   27.7180 C   0  0  0  0  0  0  0  0  0  0  0  0
    3.8050   72.2030   27.9910 C   0  0  0  0  0  0  0  0  0  0  0  0
    4.8700   71.8410   27.1410 C   0  0  0  0  0  0  0  0  0  0  0  0
    2.6060   75.4340   26.3940 C   0  0  0  0  0  0  0  0  0  0  0  0
    4.8210   74.6030   24.6730 N   0  0  0  0  0  0  0  0  0  0  0  0
    5.1760   75.8370   22.0670 O   0  0  0  0  0  0  0  0  0  0  0  0
    7.3340   75.3230   22.2730 O   0  0  0  0  0  0  0  0  0  0  0  0
    3.6923   69.2723   31.7337 H   0  0  0  0  0  0  0  0  0  0  0  0
    5.3084   70.4590   29.7869 H   0  0  0  0  0  0  0  0  0  0  0  0
    0.8242   74.2462   25.9988 H   0  0  0  0  0  0  0  0  0  0  0  0
   -0.6649   76.2302   25.6394 H   0  0  0  0  0  0  0  0  0  0  0  0
    0.2680   78.5370   25.9297 H   0  0  0  0  0  0  0  0  0  0  0  0
    2.1205   80.0347   26.4004 H   0  0  0  0  0  0  0  0  0  0  0  0
    4.5058   80.4036   27.0729 H   0  0  0  0  0  0  0  0  0  0  0  0
    6.0479   78.4483   27.3486 H   0  0  0  0  0  0  0  0  0  0  0  0
    5.1803   76.1264   27.0642 H   0  0  0  0  0  0  0  0  0  0  0  0
    6.8821   71.3974   25.3953 H   0  0  0  0  0  0  0  0  0  0  0  0
    7.4181   72.8403   23.4128 H   0  0  0  0  0  0  0  0  0  0  0  0
    1.3890   71.7215   29.3159 H   0  0  0  0  0  0  0  0  0  0  0  0
    1.2525   70.2205   31.3217 H   0  0  0  0  0  0  0  0  0  0  0  0
    2.2997   73.7058   28.3999 H   0  0  0  0  0  0  0  0  0  0  0  0
    5.4418   70.9240   27.3464 H   0  0  0  0  0  0  0  0  0  0  0  0
    8.0771   75.4040   22.9222 H   0  0  0  0  0  0  0  0  0  0  0  0
 27 18  2  0
 28 18  1  0
 18 17  1  0
 17 16  1  0
 17 26  2  0
 16 15  2  0
 26 13  1  0
 15 14  1  0
 13 14  2  0
 13 21  1  0
  5  6  1  0
  5  4  2  0
 14 24  1  0
  6  8  2  0
  4 25  1  0
 25  7  2  0
 25 21  1  0
  8  7  1  0
  8  9  1  0
  7 12  1  0
 21 22  2  0
  9 10  2  0
 12 11  2  0
 10 11  1  0
 24 23  2  0
 22 23  1  0
 23  3  1  0
  3 19  1  0
  3  2  2  0
 19 20  1  0
  2  1  1  0
 20  1  2  0
  1 29  1  0
  2 30  1  0
  4 31  1  0
  5 32  1  0
  6 33  1  0
  9 34  1  0
 10 35  1  0
 11 36  1  0
 12 37  1  0
 15 38  1  0
 16 39  1  0
 19 40  1  0
 20 41  1  0
 22 42  1  0
 24 43  1  0
 28 44  1  0
A    1
C1
A    2
C2
A    3
C3
A    4
C11
A    5
C12
A    6
C13
A    7
C14
A    8
C15
A    9
C16
A   10
C17
A   11
C18
A   12
C19
A   13
C20
A   14
C21
A   15
C22
A   16
C23
A   17
C24
A   18
C26
A   19
N4
A   20
C5
A   21
C6
A   22
C7
A   23
C8
A   24
C9
A   25
C10
A   26
N25
A   27
O27
A   28
O28
M  END
