5DK9_5CC_A_601
     RDKit          3D

 56 59  0  0  0  0  0  0  0  0999 V2000
   16.6330   -5.0670    5.5020 C   0  0  0  0  0  0  0  0  0  0  0  0
   16.8900   -3.6500    5.8770 C   0  0  0  0  0  0  0  0  0  0  0  0
   18.3190   -3.3220    5.5620 C   0  0  0  0  0  0  0  0  0  0  0  0
   18.9090   -3.4940    6.9420 C   0  0  0  0  0  0  0  0  0  0  0  0
   18.7580   -2.4620    7.8600 C   0  0  0  0  0  0  0  0  0  0  0  0
   19.2980   -2.5710    9.1370 C   0  0  0  0  0  0  0  0  0  0  0  0
   20.0000   -3.7160    9.4960 C   0  0  0  0  0  0  0  0  0  0  0  0
   20.1560   -4.7530    8.5840 C   0  0  0  0  0  0  0  0  0  0  0  0
   20.8730   -5.9540    8.9150 N   0  0  0  0  0  0  0  0  0  0  0  0
   20.9890   -6.4570   10.2540 C   0  0  0  0  0  0  0  0  0  0  0  0
   19.9010   -6.4610   11.1160 C   0  0  0  0  0  0  0  0  0  0  0  0
   20.0410   -6.9420   12.4080 C   0  0  0  0  0  0  0  0  0  0  0  0
   21.2580   -7.4580   12.8260 C   0  0  0  0  0  0  0  0  0  0  0  0
   22.3430   -7.4600   11.9670 C   0  0  0  0  0  0  0  0  0  0  0  0
   22.2070   -6.9620   10.6790 C   0  0  0  0  0  0  0  0  0  0  0  0
   19.6190   -4.6400    7.3080 C   0  0  0  0  0  0  0  0  0  0  0  0
   18.5670   -2.0810    4.9890 C   0  0  0  0  0  0  0  0  0  0  0  0
   19.9840   -1.5810    4.9970 C   0  0  0  0  0  0  0  0  0  0  0  0
   21.0310   -2.4930    4.8550 C   0  0  0  0  0  0  0  0  0  0  0  0
   22.3490   -2.0680    4.8780 C   0  0  0  0  0  0  0  0  0  0  0  0
   22.6350   -0.7250    5.0540 C   0  0  0  0  0  0  0  0  0  0  0  0
   23.9440   -0.3090    5.0760 O   0  0  0  0  0  0  0  0  0  0  0  0
   21.6030    0.1910    5.2090 C   0  0  0  0  0  0  0  0  0  0  0  0
   20.2820   -0.2350    5.1860 C   0  0  0  0  0  0  0  0  0  0  0  0
   18.0320   -1.7190    3.6180 C   0  0  0  0  0  0  0  0  0  0  0  0
   18.8630   -1.7660    2.4990 C   0  0  0  0  0  0  0  0  0  0  0  0
   18.3810   -1.4300    1.2390 C   0  0  0  0  0  0  0  0  0  0  0  0
   17.0610   -1.0450    1.0790 C   0  0  0  0  0  0  0  0  0  0  0  0
   16.5780   -0.7140   -0.1630 O   0  0  0  0  0  0  0  0  0  0  0  0
   16.2240   -0.9940    2.1800 C   0  0  0  0  0  0  0  0  0  0  0  0
   16.7080   -1.3250    3.4410 C   0  0  0  0  0  0  0  0  0  0  0  0
   16.5230   -5.6733    6.4132 H   0  0  0  0  0  0  0  0  0  0  0  0
   15.7093   -5.1273    4.9078 H   0  0  0  0  0  0  0  0  0  0  0  0
   17.4767   -5.4478    4.9078 H   0  0  0  0  0  0  0  0  0  0  0  0
   16.2233   -2.9886    5.3043 H   0  0  0  0  0  0  0  0  0  0  0  0
   16.6998   -3.5056    6.9508 H   0  0  0  0  0  0  0  0  0  0  0  0
   18.2079   -1.5531    7.5750 H   0  0  0  0  0  0  0  0  0  0  0  0
   19.1699   -1.7531    9.8613 H   0  0  0  0  0  0  0  0  0  0  0  0
   20.4327   -3.8013   10.5037 H   0  0  0  0  0  0  0  0  0  0  0  0
   21.3258   -6.4795    8.1536 H   0  0  0  0  0  0  0  0  0  0  0  0
   18.9269   -6.0820   10.7732 H   0  0  0  0  0  0  0  0  0  0  0  0
   19.1874   -6.9144   13.1012 H   0  0  0  0  0  0  0  0  0  0  0  0
   21.3613   -7.8665   13.8421 H   0  0  0  0  0  0  0  0  0  0  0  0
   23.3121   -7.8559   12.3048 H   0  0  0  0  0  0  0  0  0  0  0  0
   23.0678   -6.9682    9.9942 H   0  0  0  0  0  0  0  0  0  0  0  0
   19.7533   -5.4561    6.5828 H   0  0  0  0  0  0  0  0  0  0  0  0
   20.8067   -3.5618    4.7233 H   0  0  0  0  0  0  0  0  0  0  0  0
   23.1656   -2.7950    4.7569 H   0  0  0  0  0  0  0  0  0  0  0  0
   24.4026   -0.1633    5.9412 H   0  0  0  0  0  0  0  0  0  0  0  0
   21.8329    1.2574    5.3504 H   0  0  0  0  0  0  0  0  0  0  0  0
   19.4685    0.4936    5.3176 H   0  0  0  0  0  0  0  0  0  0  0  0
   19.9130   -2.0728    2.6148 H   0  0  0  0  0  0  0  0  0  0  0  0
   19.0503   -1.4702    0.3670 H   0  0  0  0  0  0  0  0  0  0  0  0
   15.7642   -0.1563   -0.2451 H   0  0  0  0  0  0  0  0  0  0  0  0
   15.1737   -0.6910    2.0574 H   0  0  0  0  0  0  0  0  0  0  0  0
   16.0360   -1.2749    4.3104 H   0  0  0  0  0  0  0  0  0  0  0  0
 29 28  1  0
 28 27  1  0
 28 30  2  0
 27 26  2  0
 30 31  1  0
 26 25  1  0
 31 25  2  0
 25 17  1  0
 19 20  2  0
 19 18  1  0
 20 21  1  0
 17 18  1  0
 17  3  2  0
 18 24  2  0
 21 22  1  0
 21 23  2  0
 24 23  1  0
  1  2  1  0
  3  2  1  0
  3  4  1  0
  4 16  1  0
  4  5  2  0
 16  8  2  0
  5  6  1  0
  8  9  1  0
  8  7  1  0
  9 10  1  0
  6  7  2  0
 10 15  1  0
 10 11  2  0
 15 14  2  0
 11 12  1  0
 14 13  1  0
 12 13  2  0
  1 32  1  0
  1 33  1  0
  1 34  1  0
  2 35  1  0
  2 36  1  0
  5 37  1  0
  6 38  1  0
  7 39  1  0
  9 40  1  0
 11 41  1  0
 12 42  1  0
 13 43  1  0
 14 44  1  0
 15 45  1  0
 16 46  1  0
 19 47  1  0
 20 48  1  0
 22 49  1  0
 23 50  1  0
 24 51  1  0
 26 52  1  0
 27 53  1  0
 29 54  1  0
 30 55  1  0
 31 56  1  0
A    1
C01
A    2
C02
A    3
C03
A    4
C04
A    5
C05
A    6
C06
A    7
C07
A    8
C08
A    9
N09
A   10
C10
A   11
C11
A   12
C12
A   13
C13
A   14
C14
A   15
C15
A   16
C16
A   17
C17
A   18
C18
A   19
C19
A   20
C20
A   21
C21
A   22
O22
A   23
C23
A   24
C24
A   25
C25
A   26
C26
A   27
C27
A   28
C28
A   29
O29
A   30
C30
A   31
C31
M  END
