5DKE_5C8_A_601
     RDKit          3D

 47 50  0  0  0  0  0  0  0  0999 V2000
   17.8830    8.5690    7.4840 C   0  0  0  0  0  0  0  0  0  0  0  0
   19.1350    9.3290    7.7780 C   0  0  0  0  0  0  0  0  0  0  0  0
   19.6820   10.2040    6.8630 C   0  0  0  0  0  0  0  0  0  0  0  0
   18.9500   10.6250    5.6320 C   0  0  0  0  0  0  0  0  0  0  0  0
   17.7860   11.3800    5.7220 C   0  0  0  0  0  0  0  0  0  0  0  0
   17.1170   11.7650    4.5720 C   0  0  0  0  0  0  0  0  0  0  0  0
   17.6170   11.4190    3.3270 C   0  0  0  0  0  0  0  0  0  0  0  0
   16.9490   11.8130    2.1880 O   0  0  0  0  0  0  0  0  0  0  0  0
   18.7850   10.6760    3.2330 C   0  0  0  0  0  0  0  0  0  0  0  0
   19.4510   10.2820    4.3820 C   0  0  0  0  0  0  0  0  0  0  0  0
   21.0750   10.7190    7.0170 C   0  0  0  0  0  0  0  0  0  0  0  0
   22.1430    9.8380    6.9580 C   0  0  0  0  0  0  0  0  0  0  0  0
   23.4410   10.2990    7.0930 C   0  0  0  0  0  0  0  0  0  0  0  0
   23.6750   11.6520    7.2820 C   0  0  0  0  0  0  0  0  0  0  0  0
   24.9680   12.1030    7.4150 O   0  0  0  0  0  0  0  0  0  0  0  0
   22.6090   12.5410    7.3340 C   0  0  0  0  0  0  0  0  0  0  0  0
   21.3100   12.0740    7.2000 C   0  0  0  0  0  0  0  0  0  0  0  0
   19.8230    9.0520    9.0730 C   0  0  0  0  0  0  0  0  0  0  0  0
   19.9690   10.0670   10.0250 C   0  0  0  0  0  0  0  0  0  0  0  0
   20.6130    9.8130   11.2310 C   0  0  0  0  0  0  0  0  0  0  0  0
   21.1190    8.5080   11.5000 C   0  0  0  0  0  0  0  0  0  0  0  0
   21.7770    8.2460   12.7390 C   0  0  0  0  0  0  0  0  0  0  0  0
   22.2710    6.9730   13.0060 C   0  0  0  0  0  0  0  0  0  0  0  0
   22.1240    5.9550   12.0580 C   0  0  0  0  0  0  0  0  0  0  0  0
   21.4810    6.2110   10.8480 C   0  0  0  0  0  0  0  0  0  0  0  0
   20.9740    7.5140   10.5750 C   0  0  0  0  0  0  0  0  0  0  0  0
   20.3170    7.7780    9.3360 C   0  0  0  0  0  0  0  0  0  0  0  0
   17.4012    8.2765    8.4286 H   0  0  0  0  0  0  0  0  0  0  0  0
   17.1969    9.2032    6.9034 H   0  0  0  0  0  0  0  0  0  0  0  0
   18.1290    7.6676    6.9034 H   0  0  0  0  0  0  0  0  0  0  0  0
   17.3958   11.6720    6.7081 H   0  0  0  0  0  0  0  0  0  0  0  0
   16.1865   12.3468    4.6473 H   0  0  0  0  0  0  0  0  0  0  0  0
   16.0986   12.3146    2.2614 H   0  0  0  0  0  0  0  0  0  0  0  0
   19.1825   10.3996    2.2453 H   0  0  0  0  0  0  0  0  0  0  0  0
   20.3788    9.6961    4.3047 H   0  0  0  0  0  0  0  0  0  0  0  0
   21.9579    8.7649    6.8028 H   0  0  0  0  0  0  0  0  0  0  0  0
   24.2842    9.5939    7.0504 H   0  0  0  0  0  0  0  0  0  0  0  0
   25.3549   12.2380    8.3162 H   0  0  0  0  0  0  0  0  0  0  0  0
   22.7950   13.6151    7.4814 H   0  0  0  0  0  0  0  0  0  0  0  0
   20.4658   12.7781    7.2388 H   0  0  0  0  0  0  0  0  0  0  0  0
   19.5720   11.0718    9.8182 H   0  0  0  0  0  0  0  0  0  0  0  0
   20.7314   10.6155   11.9739 H   0  0  0  0  0  0  0  0  0  0  0  0
   21.8934    9.0491   13.4816 H   0  0  0  0  0  0  0  0  0  0  0  0
   22.7764    6.7674   13.9612 H   0  0  0  0  0  0  0  0  0  0  0  0
   22.5170    4.9493   12.2680 H   0  0  0  0  0  0  0  0  0  0  0  0
   21.3653    5.4081   10.1051 H   0  0  0  0  0  0  0  0  0  0  0  0
   20.2014    6.9768    8.5911 H   0  0  0  0  0  0  0  0  0  0  0  0
  8  7  1  0
  9  7  2  0
  9 10  1  0
  7  6  1  0
 10  4  2  0
  6  5  2  0
  4  5  1  0
  4  3  1  0
  3 11  1  0
  3  2  2  0
 12 11  2  0
 12 13  1  0
 11 17  1  0
 13 14  2  0
 17 16  2  0
 14 16  1  0
 14 15  1  0
  1  2  1  0
  2 18  1  0
 18 27  1  0
 18 19  2  0
 27 26  2  0
 19 20  1  0
 26 25  1  0
 26 21  1  0
 25 24  2  0
 20 21  2  0
 21 22  1  0
 24 23  1  0
 22 23  2  0
  1 28  1  0
  1 29  1  0
  1 30  1  0
  5 31  1  0
  6 32  1  0
  8 33  1  0
  9 34  1  0
 10 35  1  0
 12 36  1  0
 13 37  1  0
 15 38  1  0
 16 39  1  0
 17 40  1  0
 19 41  1  0
 20 42  1  0
 22 43  1  0
 23 44  1  0
 24 45  1  0
 25 46  1  0
 27 47  1  0
A    1
C01
A    2
C02
A    3
C03
A    4
C04
A    5
C05
A    6
C06
A    7
C07
A    8
O08
A    9
C09
A   10
C10
A   11
C11
A   12
C12
A   13
C13
A   14
C14
A   15
O15
A   16
C16
A   17
C17
A   18
C18
A   19
C19
A   20
C20
A   21
C21
A   22
C22
A   23
C23
A   24
C24
A   25
C25
A   26
C26
A   27
C27
M  END
