5DKH_5C0_A_1503
     RDKit          3D

 49 53  0  0  0  0  0  0  0  0999 V2000
  -15.1090   38.7550    8.5650 C   0  0  0  0  0  0  0  0  0  0  0  0
  -14.7490   37.6950    7.5510 C   0  0  0  0  0  0  0  0  0  0  0  0
  -13.8550   36.6050    8.1360 C   0  0  0  0  0  0  0  0  0  0  0  0
  -14.7660   39.7370   10.7570 N   0  0  0  0  0  0  0  0  0  0  0  0
  -14.6100   35.7480    9.1600 C   0  0  0  0  0  0  0  0  0  0  0  0
  -14.3320   36.4130   10.5440 C   0  0  0  0  0  0  0  0  0  0  0  0
  -16.3910   40.7000    9.2620 N   0  0  0  0  0  0  0  0  0  0  0  0
  -13.4460   37.6320   10.2370 C   0  0  0  0  0  0  0  0  0  0  0  0
  -14.4630   38.7900    9.8600 C   0  0  0  0  0  0  0  0  0  0  0  0
  -15.7050   40.6230   10.4070 C   0  0  0  0  0  0  0  0  0  0  0  0
  -11.5230   37.3820    8.7020 C   0  0  0  0  0  0  0  0  0  0  0  0
  -12.8190   37.2270    8.9690 N   0  0  0  0  0  0  0  0  0  0  0  0
  -10.8360   36.9070    7.6250 C   0  0  0  0  0  0  0  0  0  0  0  0
   -9.3740   36.8790    7.6500 C   0  0  0  0  0  0  0  0  0  0  0  0
   -8.5760   36.5100    6.4290 C   0  0  0  0  0  0  0  0  0  0  0  0
   -8.7430   37.1760    8.6990 O   0  0  0  0  0  0  0  0  0  0  0  0
   -7.1710   36.5940    6.4880 C   0  0  0  0  0  0  0  0  0  0  0  0
   -6.5410   37.1130    7.5970 O   0  0  0  0  0  0  0  0  0  0  0  0
   -6.3960   36.1820    5.3960 C   0  0  0  0  0  0  0  0  0  0  0  0
   -7.0100   35.7380    4.2280 C   0  0  0  0  0  0  0  0  0  0  0  0
   -8.3810   35.6980    4.1430 C   0  0  0  0  0  0  0  0  0  0  0  0
   -9.1640   36.0590    5.2330 C   0  0  0  0  0  0  0  0  0  0  0  0
  -16.1160   39.7650    8.3280 C   0  0  0  0  0  0  0  0  0  0  0  0
  -16.8510   39.7970    7.1990 N   0  0  0  0  0  0  0  0  0  0  0  0
  -17.8930   40.7840    6.9430 C   0  0  0  0  0  0  0  0  0  0  0  0
  -18.1200   41.2180    5.5490 C   0  0  0  0  0  0  0  0  0  0  0  0
  -17.4920   42.1420    6.5240 C   0  0  0  0  0  0  0  0  0  0  0  0
  -14.2199   38.1733    6.7136 H   0  0  0  0  0  0  0  0  0  0  0  0
  -15.6835   37.2184    7.2201 H   0  0  0  0  0  0  0  0  0  0  0  0
  -13.4813   36.0232    7.2805 H   0  0  0  0  0  0  0  0  0  0  0  0
  -15.6882   35.7492    8.9423 H   0  0  0  0  0  0  0  0  0  0  0  0
  -14.2803   34.6988    9.1372 H   0  0  0  0  0  0  0  0  0  0  0  0
  -15.2739   36.7301   11.0154 H   0  0  0  0  0  0  0  0  0  0  0  0
  -13.8450   35.7173   11.2432 H   0  0  0  0  0  0  0  0  0  0  0  0
  -12.7470   37.9307   11.0321 H   0  0  0  0  0  0  0  0  0  0  0  0
  -15.9441   41.3885   11.1598 H   0  0  0  0  0  0  0  0  0  0  0  0
  -10.9406   37.9596    9.4349 H   0  0  0  0  0  0  0  0  0  0  0  0
  -11.3796   36.5457    6.7395 H   0  0  0  0  0  0  0  0  0  0  0  0
   -6.8475   36.8605    8.5039 H   0  0  0  0  0  0  0  0  0  0  0  0
   -5.2983   36.2094    5.4617 H   0  0  0  0  0  0  0  0  0  0  0  0
   -6.3970   35.4189    3.3722 H   0  0  0  0  0  0  0  0  0  0  0  0
   -8.8616   35.3783    3.2066 H   0  0  0  0  0  0  0  0  0  0  0  0
  -10.2594   35.9911    5.1596 H   0  0  0  0  0  0  0  0  0  0  0  0
  -16.6666   39.0854    6.4776 H   0  0  0  0  0  0  0  0  0  0  0  0
  -18.5270   40.3756    7.7438 H   0  0  0  0  0  0  0  0  0  0  0  0
  -19.1428   41.4074    5.1911 H   0  0  0  0  0  0  0  0  0  0  0  0
  -17.8459   40.8281    4.5576 H   0  0  0  0  0  0  0  0  0  0  0  0
  -16.4260   42.3973    6.4323 H   0  0  0  0  0  0  0  0  0  0  0  0
  -17.7051   43.1610    6.8794 H   0  0  0  0  0  0  0  0  0  0  0  0
 21 20  2  0
 21 22  1  0
 20 19  1  0
 22 15  2  0
 19 17  2  0
 26 27  1  0
 26 25  1  0
 15 17  1  0
 15 14  1  0
 17 18  1  0
 27 25  1  0
 25 24  1  0
 24 23  1  0
  2  3  1  0
  2  1  1  0
 13 14  1  0
 13 11  2  0
 14 16  2  0
  3 12  1  0
  3  5  1  0
 23  1  2  0
 23  7  1  0
  1  9  1  0
 11 12  1  0
 12  8  1  0
  5  6  1  0
  7 10  2  0
  9  8  1  0
  9  4  2  0
  8  6  1  0
 10  4  1  0
  2 28  1  0
  2 29  1  0
  3 30  1  0
  5 31  1  0
  5 32  1  0
  6 33  1  0
  6 34  1  0
  8 35  1  0
 10 36  1  0
 11 37  1  0
 13 38  1  0
 18 39  1  0
 19 40  1  0
 20 41  1  0
 21 42  1  0
 22 43  1  0
 24 44  1  0
 25 45  1  0
 26 46  1  0
 26 47  1  0
 27 48  1  0
 27 49  1  0
A    1
C4
A    2
C5
A    3
C6
A    4
N1
A    5
C7
A    6
C8
A    7
N2
A    8
C9
A    9
C10
A   10
C11
A   11
C12
A   12
N3
A   13
C13
A   14
C14
A   15
C15
A   16
O1
A   17
C20
A   18
O
A   19
C19
A   20
C18
A   21
C17
A   22
C16
A   23
C3
A   24
N
A   25
C2
A   26
C1
A   27
C
M  END
