5DKS_5C6_A_601
     RDKit          3D

 62 66  0  0  0  0  0  0  0  0999 V2000
   15.8700   -4.6590    5.5870 C   0  0  0  0  0  0  0  0  0  0  0  0
   17.2310   -4.6120    4.9790 C   0  0  0  0  0  0  0  0  0  0  0  0
   18.1750   -3.5590    5.4760 C   0  0  0  0  0  0  0  0  0  0  0  0
   18.7590   -2.6410    4.6250 C   0  0  0  0  0  0  0  0  0  0  0  0
   18.0830   -2.1990    3.3600 C   0  0  0  0  0  0  0  0  0  0  0  0
   18.7680   -2.2360    2.1520 C   0  0  0  0  0  0  0  0  0  0  0  0
   18.1350   -1.8200    0.9860 C   0  0  0  0  0  0  0  0  0  0  0  0
   16.8220   -1.3660    1.0310 C   0  0  0  0  0  0  0  0  0  0  0  0
   16.1820   -0.9530   -0.1160 O   0  0  0  0  0  0  0  0  0  0  0  0
   16.1400   -1.3300    2.2370 C   0  0  0  0  0  0  0  0  0  0  0  0
   16.7720   -1.7380    3.4010 C   0  0  0  0  0  0  0  0  0  0  0  0
   20.1110   -2.0780    4.9090 C   0  0  0  0  0  0  0  0  0  0  0  0
   21.2240   -2.9050    4.8410 C   0  0  0  0  0  0  0  0  0  0  0  0
   22.4850   -2.3930    5.1020 C   0  0  0  0  0  0  0  0  0  0  0  0
   22.6350   -1.0510    5.4240 C   0  0  0  0  0  0  0  0  0  0  0  0
   23.8880   -0.5380    5.6810 O   0  0  0  0  0  0  0  0  0  0  0  0
   21.5230   -0.2240    5.4880 C   0  0  0  0  0  0  0  0  0  0  0  0
   20.2590   -0.7360    5.2310 C   0  0  0  0  0  0  0  0  0  0  0  0
   18.6870   -3.8060    6.8670 C   0  0  0  0  0  0  0  0  0  0  0  0
   18.8170   -2.8060    7.8230 C   0  0  0  0  0  0  0  0  0  0  0  0
   19.2860   -3.1300    9.0960 C   0  0  0  0  0  0  0  0  0  0  0  0
   19.6090   -4.4510    9.4100 C   0  0  0  0  0  0  0  0  0  0  0  0
   19.4700   -5.4440    8.4510 C   0  0  0  0  0  0  0  0  0  0  0  0
   19.7710   -6.8290    8.7060 N   0  0  0  0  0  0  0  0  0  0  0  0
   18.9800   -7.8310    8.0260 C   0  0  0  0  0  0  0  0  0  0  0  0
   17.5920   -7.8720    8.1540 C   0  0  0  0  0  0  0  0  0  0  0  0
   16.8490   -8.8480    7.4830 C   0  0  0  0  0  0  0  0  0  0  0  0
   17.4940   -9.7860    6.6830 C   0  0  0  0  0  0  0  0  0  0  0  0
   18.9120   -9.7510    6.5480 C   0  0  0  0  0  0  0  0  0  0  0  0
   19.5660  -10.7140    5.7280 C   0  0  0  0  0  0  0  0  0  0  0  0
   20.9490  -10.6740    5.6010 C   0  0  0  0  0  0  0  0  0  0  0  0
   21.6890   -9.6980    6.2680 C   0  0  0  0  0  0  0  0  0  0  0  0
   21.0520   -8.7620    7.0710 C   0  0  0  0  0  0  0  0  0  0  0  0
   19.6360   -8.7970    7.2040 C   0  0  0  0  0  0  0  0  0  0  0  0
   19.0060   -5.1130    7.1880 C   0  0  0  0  0  0  0  0  0  0  0  0
   15.9579   -4.6560    6.6835 H   0  0  0  0  0  0  0  0  0  0  0  0
   15.2931   -3.7802    5.2630 H   0  0  0  0  0  0  0  0  0  0  0  0
   15.3551   -5.5755    5.2630 H   0  0  0  0  0  0  0  0  0  0  0  0
   17.1036   -4.4564    3.8975 H   0  0  0  0  0  0  0  0  0  0  0  0
   17.6989   -5.5655    5.2652 H   0  0  0  0  0  0  0  0  0  0  0  0
   19.8078   -2.5932    2.1180 H   0  0  0  0  0  0  0  0  0  0  0  0
   18.6736   -1.8502    0.0274 H   0  0  0  0  0  0  0  0  0  0  0  0
   15.3518   -0.4173   -0.0541 H   0  0  0  0  0  0  0  0  0  0  0  0
   15.0984   -0.9780    2.2703 H   0  0  0  0  0  0  0  0  0  0  0  0
   16.2348   -1.6970    4.3600 H   0  0  0  0  0  0  0  0  0  0  0  0
   21.1049   -3.9669    4.5799 H   0  0  0  0  0  0  0  0  0  0  0  0
   23.3664   -3.0494    5.0541 H   0  0  0  0  0  0  0  0  0  0  0  0
   24.1901   -0.4143    6.6156 H   0  0  0  0  0  0  0  0  0  0  0  0
   21.6434    0.8393    5.7429 H   0  0  0  0  0  0  0  0  0  0  0  0
   19.3772   -0.0804    5.2823 H   0  0  0  0  0  0  0  0  0  0  0  0
   18.5521   -1.7669    7.5778 H   0  0  0  0  0  0  0  0  0  0  0  0
   19.4017   -2.3420    9.8548 H   0  0  0  0  0  0  0  0  0  0  0  0
   19.9733   -4.7045   10.4165 H   0  0  0  0  0  0  0  0  0  0  0  0
   20.5263   -7.0978    9.3527 H   0  0  0  0  0  0  0  0  0  0  0  0
   17.0789   -7.1325    8.7863 H   0  0  0  0  0  0  0  0  0  0  0  0
   15.7543   -8.8743    7.5876 H   0  0  0  0  0  0  0  0  0  0  0  0
   16.9096  -10.5540    6.1551 H   0  0  0  0  0  0  0  0  0  0  0  0
   18.9819  -11.4822    5.2001 H   0  0  0  0  0  0  0  0  0  0  0  0
   21.4626  -11.4155    4.9715 H   0  0  0  0  0  0  0  0  0  0  0  0
   22.7830   -9.6698    6.1572 H   0  0  0  0  0  0  0  0  0  0  0  0
   21.6387   -7.9976    7.6015 H   0  0  0  0  0  0  0  0  0  0  0  0
   18.8897   -5.9012    6.4296 H   0  0  0  0  0  0  0  0  0  0  0  0
  9  8  1  0
  7  8  1  0
  7  6  2  0
  8 10  2  0
  6  5  1  0
 10 11  1  0
  5 11  2  0
  5  4  1  0
  4 12  1  0
  4  3  2  0
 13 12  2  0
 13 14  1  0
 12 18  1  0
  2  3  1  0
  2  1  1  0
 14 15  2  0
 18 17  2  0
 15 17  1  0
 15 16  1  0
  3 19  1  0
 31 30  2  0
 31 32  1  0
 30 29  1  0
 32 33  2  0
 29 28  2  0
 29 34  1  0
 28 27  1  0
 19 35  1  0
 19 20  2  0
 33 34  1  0
 35 23  2  0
 34 25  2  0
 27 26  2  0
 20 21  1  0
 25 26  1  0
 25 24  1  0
 23 24  1  0
 23 22  1  0
 21 22  2  0
  1 36  1  0
  1 37  1  0
  1 38  1  0
  2 39  1  0
  2 40  1  0
  6 41  1  0
  7 42  1  0
  9 43  1  0
 10 44  1  0
 11 45  1  0
 13 46  1  0
 14 47  1  0
 16 48  1  0
 17 49  1  0
 18 50  1  0
 20 51  1  0
 21 52  1  0
 22 53  1  0
 24 54  1  0
 26 55  1  0
 27 56  1  0
 28 57  1  0
 30 58  1  0
 31 59  1  0
 32 60  1  0
 33 61  1  0
 35 62  1  0
A    1
C01
A    2
C02
A    3
C03
A    4
C04
A    5
C05
A    6
C06
A    7
C07
A    8
C08
A    9
O09
A   10
C10
A   11
C11
A   12
C12
A   13
C13
A   14
C14
A   15
C15
A   16
O16
A   17
C17
A   18
C18
A   19
C19
A   20
C20
A   21
C21
A   22
C22
A   23
C23
A   24
N24
A   25
C25
A   26
C26
A   27
C27
A   28
C28
A   29
C29
A   30
C30
A   31
C31
A   32
C32
A   33
C33
A   34
C34
A   35
C35
M  END
