5DLV_5D5_A_930
     RDKit          3D

 79 82  0  0  0  0  0  0  0  0999 V2000
   47.1030   43.7610   12.2000 C   0  0  0  0  0  0  0  0  0  0  0  0
   45.6710   43.3420   12.5240 C   0  0  0  0  0  0  0  0  0  0  0  0
   44.6440   44.0490   11.6470 C   0  0  0  0  0  0  0  0  0  0  0  0
   44.8370   45.5580   11.7620 C   0  0  0  0  0  0  0  0  0  0  0  0
   46.2350   45.9340   11.2830 C   0  0  0  0  0  0  0  0  0  0  0  0
   46.4030   47.4540   11.2540 C   0  0  0  0  0  0  0  0  0  0  0  0
   46.4960   48.0500   12.6590 C   0  0  0  0  0  0  0  0  0  0  0  0
   47.5600   47.3530   13.4990 C   0  0  0  0  0  0  0  0  0  0  0  0
   47.2680   45.8580   13.5530 C   0  0  0  0  0  0  0  0  0  0  0  0
   47.3050   45.2740   12.1460 C   0  0  0  0  0  0  0  0  0  0  0  0
   48.2120   45.1120   14.5010 C   0  0  0  0  0  0  0  0  0  0  0  0
   43.3170   43.6860   12.0530 O   0  0  0  0  0  0  0  0  0  0  0  0
   53.0870   49.4700   20.7410 O   0  0  0  0  0  0  0  0  0  0  0  0
   52.2710   49.9480   19.9660 C   0  0  0  0  0  0  0  0  0  0  0  0
   52.5010   51.0680   19.2770 N   0  0  0  0  0  0  0  0  0  0  0  0
   53.7710   51.7710   19.3720 C   0  0  0  0  0  0  0  0  0  0  0  0
   53.5970   53.2510   19.6710 C   0  0  0  0  0  0  0  0  0  0  0  0
   52.5100   53.8550   18.5760 S   0  0  0  0  0  0  0  0  0  0  0  0
   51.3330   52.9590   18.5230 O   0  0  0  0  0  0  0  0  0  0  0  0
   53.1800   53.9020   17.2600 O   0  0  0  0  0  0  0  0  0  0  0  0
   52.0760   55.2120   18.9830 O   0  0  0  0  0  0  0  0  0  0  0  0
   50.9400   49.2610   19.7470 C   0  0  0  0  0  0  0  0  0  0  0  0
   50.5550   49.2470   18.2660 C   0  0  0  0  0  0  0  0  0  0  0  0
   49.9650   47.8990   17.8460 C   0  0  0  0  0  0  0  0  0  0  0  0
   49.6670   47.0340   19.0650 C   0  0  0  0  0  0  0  0  0  0  0  0
   48.7010   48.0580   17.0080 C   0  0  0  0  0  0  0  0  0  0  0  0
   48.6760   47.2110   15.7430 C   0  0  0  0  0  0  0  0  0  0  0  0
   50.0240   47.3170   15.0370 C   0  0  0  0  0  0  0  0  0  0  0  0
   47.6000   47.8860   14.9230 C   0  0  0  0  0  0  0  0  0  0  0  0
   47.8690   49.3680   15.1110 C   0  0  0  0  0  0  0  0  0  0  0  0
   48.4890   49.4840   16.5070 C   0  0  0  0  0  0  0  0  0  0  0  0
   48.2840   45.7520   15.8910 C   0  0  0  0  0  0  0  0  0  0  0  0
   48.6680   45.5760   11.5310 C   0  0  0  0  0  0  0  0  0  0  0  0
   46.7990   49.4450   12.5690 O   0  0  0  0  0  0  0  0  0  0  0  0
   47.7682   43.3496   12.9735 H   0  0  0  0  0  0  0  0  0  0  0  0
   47.3319   43.3711   11.1972 H   0  0  0  0  0  0  0  0  0  0  0  0
   45.4622   43.5836   13.5766 H   0  0  0  0  0  0  0  0  0  0  0  0
   45.5871   42.2620   12.3330 H   0  0  0  0  0  0  0  0  0  0  0  0
   44.7841   43.7436   10.5996 H   0  0  0  0  0  0  0  0  0  0  0  0
   44.0874   46.0711   11.1417 H   0  0  0  0  0  0  0  0  0  0  0  0
   44.7171   45.8621   12.8123 H   0  0  0  0  0  0  0  0  0  0  0  0
   46.3605   45.5592   10.2565 H   0  0  0  0  0  0  0  0  0  0  0  0
   47.3234   47.6986   10.7035 H   0  0  0  0  0  0  0  0  0  0  0  0
   45.5175   47.8830   10.7623 H   0  0  0  0  0  0  0  0  0  0  0  0
   45.5238   47.9032   13.1522 H   0  0  0  0  0  0  0  0  0  0  0  0
   48.5332   47.5482   13.0249 H   0  0  0  0  0  0  0  0  0  0  0  0
   46.2573   45.7237   13.9658 H   0  0  0  0  0  0  0  0  0  0  0  0
   49.2208   45.1094   14.0625 H   0  0  0  0  0  0  0  0  0  0  0  0
   47.8189   44.0922   14.6256 H   0  0  0  0  0  0  0  0  0  0  0  0
   43.2665   43.6722   13.0416 H   0  0  0  0  0  0  0  0  0  0  0  0
   51.7627   51.4428   18.6644 H   0  0  0  0  0  0  0  0  0  0  0  0
   54.3664   51.3162   20.1774 H   0  0  0  0  0  0  0  0  0  0  0  0
   54.2744   51.6841   18.3978 H   0  0  0  0  0  0  0  0  0  0  0  0
   53.2143   53.3853   20.6935 H   0  0  0  0  0  0  0  0  0  0  0  0
   54.5594   53.7781   19.5931 H   0  0  0  0  0  0  0  0  0  0  0  0
   52.0574   55.2700   19.9711 H   0  0  0  0  0  0  0  0  0  0  0  0
   50.1637   49.7962   20.3134 H   0  0  0  0  0  0  0  0  0  0  0  0
   51.0273   48.2200   20.0915 H   0  0  0  0  0  0  0  0  0  0  0  0
   51.4529   49.4464   17.6626 H   0  0  0  0  0  0  0  0  0  0  0  0
   49.7903   50.0209   18.1037 H   0  0  0  0  0  0  0  0  0  0  0  0
   50.7237   47.4030   17.2229 H   0  0  0  0  0  0  0  0  0  0  0  0
   49.8655   47.6101   19.9808 H   0  0  0  0  0  0  0  0  0  0  0  0
   48.6111   46.7263   19.0470 H   0  0  0  0  0  0  0  0  0  0  0  0
   50.3094   46.1412   19.0470 H   0  0  0  0  0  0  0  0  0  0  0  0
   47.9200   47.7406   17.7147 H   0  0  0  0  0  0  0  0  0  0  0  0
   50.8266   47.3801   15.7866 H   0  0  0  0  0  0  0  0  0  0  0  0
   50.1792   46.4283   14.4076 H   0  0  0  0  0  0  0  0  0  0  0  0
   50.0384   48.2190   14.4076 H   0  0  0  0  0  0  0  0  0  0  0  0
   46.5703   47.6718   15.2453 H   0  0  0  0  0  0  0  0  0  0  0  0
   48.5689   49.7341   14.3454 H   0  0  0  0  0  0  0  0  0  0  0  0
   46.9534   49.9699   15.0141 H   0  0  0  0  0  0  0  0  0  0  0  0
   47.8091   50.0262   17.1807 H   0  0  0  0  0  0  0  0  0  0  0  0
   49.4380   50.0393   16.4754 H   0  0  0  0  0  0  0  0  0  0  0  0
   47.3015   45.6818   16.3808 H   0  0  0  0  0  0  0  0  0  0  0  0
   49.0311   45.2266   16.5041 H   0  0  0  0  0  0  0  0  0  0  0  0
   49.4038   45.7390   12.3323 H   0  0  0  0  0  0  0  0  0  0  0  0
   48.9858   44.7265   10.9086 H   0  0  0  0  0  0  0  0  0  0  0  0
   48.5972   46.4802   10.9086 H   0  0  0  0  0  0  0  0  0  0  0  0
   46.8814   49.8242   13.4798 H   0  0  0  0  0  0  0  0  0  0  0  0
 12  3  1  0
  2  3  1  0
  2  1  1  0
  3  4  1  0
  1 10  1  0
 11 32  1  0
 11  9  1  0
  4  5  1  0
 10 33  1  0
 10  9  1  0
 10  5  1  0
 32 27  1  0
  9  8  1  0
  5  6  1  0
 25 24  1  0
 27 28  1  0
 27 29  1  0
 27 26  1  0
  8 29  1  0
  8  7  1  0
  6  7  1  0
 29 30  1  0
  7 34  1  0
 26 24  1  0
 26 31  1  0
 24 23  1  0
 23 22  1  0
 22 14  1  0
 30 31  1  0
 13 14  2  0
 14 15  1  0
 15 16  1  0
 16 17  1  0
 20 18  2  0
 17 18  1  0
 18 19  2  0
 18 21  1  0
  1 35  1  0
  1 36  1  0
  2 37  1  0
  2 38  1  0
  3 39  1  0
  4 40  1  0
  4 41  1  0
  5 42  1  0
  6 43  1  0
  6 44  1  0
  7 45  1  0
  8 46  1  0
  9 47  1  0
 11 48  1  0
 11 49  1  0
 12 50  1  0
 15 51  1  0
 16 52  1  0
 16 53  1  0
 17 54  1  0
 17 55  1  0
 21 56  1  0
 22 57  1  0
 22 58  1  0
 23 59  1  0
 23 60  1  0
 24 61  1  0
 25 62  1  0
 25 63  1  0
 25 64  1  0
 26 65  1  0
 28 66  1  0
 28 67  1  0
 28 68  1  0
 29 69  1  0
 30 70  1  0
 30 71  1  0
 31 72  1  0
 31 73  1  0
 32 74  1  0
 32 75  1  0
 33 76  1  0
 33 77  1  0
 33 78  1  0
 34 79  1  0
A    1
C1
A    2
C2
A    3
C3
A    4
C4
A    5
C5
A    6
C6
A    7
C7
A    8
C8
A    9
C9
A   10
C10
A   11
C11
A   12
O3
A   13
O25
A   14
C24
A   15
N26
A   16
C25
A   17
C26
A   18
S27
A   19
O30
A   20
O28
A   21
O29
A   22
C23
A   23
C22
A   24
C20
A   25
C21
A   26
C17
A   27
C13
A   28
C18
A   29
C14
A   30
C15
A   31
C16
A   32
C12
A   33
C19
A   34
O7
M  END
