5DLX_5D2_A_201
     RDKit          3D

 68 72  0  0  0  0  0  0  0  0999 V2000
   -6.7750    7.2960    3.2610 C   0  0  0  0  0  0  0  0  0  0  0  0
   -5.6910    8.1470    3.0040 C   0  0  0  0  0  0  0  0  0  0  0  0
   -4.9590    8.5140    4.2430 Cl  0  0  0  0  0  0  0  0  0  0  0  0
   -5.1920    8.5320    1.7740 C   0  0  0  0  0  0  0  0  0  0  0  0
   -5.9070    8.1450    0.6720 C   0  0  0  0  0  0  0  0  0  0  0  0
   -7.0240    7.3560    0.9010 C   0  0  0  0  0  0  0  0  0  0  0  0
   -7.4990    6.9240    2.1700 C   0  0  0  0  0  0  0  0  0  0  0  0
   -8.5920    6.1520    2.2850 N   0  0  0  0  0  0  0  0  0  0  0  0
   -9.0800    5.3970    1.1110 C   0  0  0  0  0  0  0  0  0  0  0  0
  -10.3770    5.8990    0.7880 C   0  0  0  0  0  0  0  0  0  0  0  0
   -9.3850    6.0470    3.5210 C   0  0  0  0  0  0  0  0  0  0  0  0
  -10.8100    6.2840    3.2100 C   0  0  0  0  0  0  0  0  0  0  0  0
  -11.2220    5.6280    1.9740 N   0  0  0  0  0  0  0  0  0  0  0  0
  -12.6660    5.8620    1.8820 C   0  0  0  0  0  0  0  0  0  0  0  0
  -13.3160    5.4290    0.5890 C   0  0  0  0  0  0  0  0  0  0  0  0
  -13.2160    6.5280   -0.3590 C   0  0  0  0  0  0  0  0  0  0  0  0
  -14.4060    6.6850   -1.1430 N   0  0  0  0  0  0  0  0  0  0  0  0
  -14.6700    7.8710   -1.6740 C   0  0  0  0  0  0  0  0  0  0  0  0
  -14.0330    8.9260   -1.4500 O   0  0  0  0  0  0  0  0  0  0  0  0
  -15.8020    7.7670   -2.6670 C   0  0  0  0  0  0  0  0  0  0  0  0
  -15.1220    7.2510   -3.9890 C   0  0  0  0  0  0  0  0  0  0  0  0
  -15.8570    7.5600   -5.3120 C   0  0  0  0  0  0  0  0  0  0  0  0
  -16.5350    9.1210   -2.7570 C   0  0  0  0  0  0  0  0  0  0  0  0
  -17.4360    8.9770   -3.9770 C   0  0  0  0  0  0  0  0  0  0  0  0
  -16.5100    8.8850   -5.1820 N   0  0  0  0  0  0  0  0  0  0  0  0
  -16.0820    9.9460   -5.8560 C   0  0  0  0  0  0  0  0  0  0  0  0
  -15.3300    9.7790   -6.9650 N   0  0  0  0  0  0  0  0  0  0  0  0
  -14.8100   10.8920   -7.5980 N   0  0  0  0  0  0  0  0  0  0  0  0
  -14.0330   10.9880   -8.6570 C   0  0  0  0  0  0  0  0  0  0  0  0
  -13.5850    9.7670   -9.4350 C   0  0  0  0  0  0  0  0  0  0  0  0
  -13.7930   12.2720   -8.9870 N   0  0  0  0  0  0  0  0  0  0  0  0
  -14.4750   13.0140   -8.0550 N   0  0  0  0  0  0  0  0  0  0  0  0
  -15.0860   12.1520   -7.2070 C   0  0  0  0  0  0  0  0  0  0  0  0
  -15.8910   12.3210   -6.1270 C   0  0  0  0  0  0  0  0  0  0  0  0
  -16.3890   11.2460   -5.3690 C   0  0  0  0  0  0  0  0  0  0  0  0
   -7.0237    6.9521    4.2758 H   0  0  0  0  0  0  0  0  0  0  0  0
   -4.2666    9.1200    1.6847 H   0  0  0  0  0  0  0  0  0  0  0  0
   -5.6101    8.4450   -0.3438 H   0  0  0  0  0  0  0  0  0  0  0  0
   -7.5963    7.0341    0.0185 H   0  0  0  0  0  0  0  0  0  0  0  0
   -9.1411    4.3255    1.3522 H   0  0  0  0  0  0  0  0  0  0  0  0
   -8.3941    5.5180    0.2596 H   0  0  0  0  0  0  0  0  0  0  0  0
  -10.3308    6.9800    0.5896 H   0  0  0  0  0  0  0  0  0  0  0  0
  -10.7826    5.4206   -0.1157 H   0  0  0  0  0  0  0  0  0  0  0  0
   -9.2651    5.0412    3.9499 H   0  0  0  0  0  0  0  0  0  0  0  0
   -9.0370    6.7972    4.2463 H   0  0  0  0  0  0  0  0  0  0  0  0
  -10.9747    7.3668    3.1080 H   0  0  0  0  0  0  0  0  0  0  0  0
  -11.4088    5.8628    4.0310 H   0  0  0  0  0  0  0  0  0  0  0  0
  -12.8426    6.9407    2.0050 H   0  0  0  0  0  0  0  0  0  0  0  0
  -13.1219    5.2442    2.6697 H   0  0  0  0  0  0  0  0  0  0  0  0
  -14.3739    5.1856    0.7670 H   0  0  0  0  0  0  0  0  0  0  0  0
  -12.8126    4.5358    0.1905 H   0  0  0  0  0  0  0  0  0  0  0  0
  -12.3704    6.3348   -1.0355 H   0  0  0  0  0  0  0  0  0  0  0  0
  -13.0694    7.4541    0.2162 H   0  0  0  0  0  0  0  0  0  0  0  0
  -15.0446    5.8906   -1.2912 H   0  0  0  0  0  0  0  0  0  0  0  0
  -16.6037    7.0650   -2.3941 H   0  0  0  0  0  0  0  0  0  0  0  0
  -15.0241    6.1583   -3.9092 H   0  0  0  0  0  0  0  0  0  0  0  0
  -14.1674    7.7936   -4.0545 H   0  0  0  0  0  0  0  0  0  0  0  0
  -16.6166    6.7881   -5.5048 H   0  0  0  0  0  0  0  0  0  0  0  0
  -15.1436    7.5690   -6.1493 H   0  0  0  0  0  0  0  0  0  0  0  0
  -15.8186    9.9441   -2.8959 H   0  0  0  0  0  0  0  0  0  0  0  0
  -17.0985    9.3570   -1.8422 H   0  0  0  0  0  0  0  0  0  0  0  0
  -18.0955    9.8525   -4.0692 H   0  0  0  0  0  0  0  0  0  0  0  0
  -18.0788    8.0879   -3.8973 H   0  0  0  0  0  0  0  0  0  0  0  0
  -13.2932    8.9718   -8.7332 H   0  0  0  0  0  0  0  0  0  0  0  0
  -14.4115    9.4121  -10.0682 H   0  0  0  0  0  0  0  0  0  0  0  0
  -12.7251   10.0309  -10.0682 H   0  0  0  0  0  0  0  0  0  0  0  0
  -16.1660   13.3443   -5.8316 H   0  0  0  0  0  0  0  0  0  0  0  0
  -16.9803   11.4016   -4.4546 H   0  0  0  0  0  0  0  0  0  0  0  0
 30 29  1  0
 31 29  2  0
 31 32  1  0
 29 28  1  0
 32 33  2  0
 28 33  1  0
 28 27  1  0
 33 34  1  0
 27 26  2  0
 34 35  2  0
 26 35  1  0
 26 25  1  0
 22 25  1  0
 22 21  1  0
 25 24  1  0
 21 20  1  0
 24 23  1  0
 23 20  1  0
 20 18  1  0
 18 19  2  0
 18 17  1  0
 17 16  1  0
 16 15  1  0
 15 14  1  0
  5  6  2  0
  5  4  1  0
 10  9  1  0
 10 13  1  0
  6  7  1  0
  9  8  1  0
  4  2  2  0
 14 13  1  0
 13 12  1  0
  7  8  1  0
  7  1  2  0
  8 11  1  0
  2  1  1  0
  2  3  1  0
 12 11  1  0
  1 36  1  0
  4 37  1  0
  5 38  1  0
  6 39  1  0
  9 40  1  0
  9 41  1  0
 10 42  1  0
 10 43  1  0
 11 44  1  0
 11 45  1  0
 12 46  1  0
 12 47  1  0
 14 48  1  0
 14 49  1  0
 15 50  1  0
 15 51  1  0
 16 52  1  0
 16 53  1  0
 17 54  1  0
 20 55  1  0
 21 56  1  0
 21 57  1  0
 22 58  1  0
 22 59  1  0
 23 60  1  0
 23 61  1  0
 24 62  1  0
 24 63  1  0
 30 64  1  0
 30 65  1  0
 30 66  1  0
 34 67  1  0
 35 68  1  0
A    1
CAB
A    2
CAA
A    3
CL
A    4
CAF
A    5
CAE
A    6
CAD
A    7
CAC
A    8
NAH
A    9
CAM
A   10
CAL
A   11
CAI
A   12
CAJ
A   13
NAK
A   14
CAN
A   15
CAO
A   16
CAP
A   17
NAQ
A   18
CAR
A   19
OAT
A   20
CAS
A   21
CAY
A   22
CAX
A   23
CAU
A   24
CAV
A   25
NAW
A   26
CAZ
A   27
NBE
A   28
NBD
A   29
CBH
A   30
CBI
A   31
NBG
A   32
NBF
A   33
CBC
A   34
CBB
A   35
CBA
M  END
