5DOH_5DU_A_304
     RDKit          3D

 44 46  0  0  0  0  0  0  0  0999 V2000
   -5.3030    5.4240    3.9690 F   0  0  0  0  0  0  0  0  0  0  0  0
   -4.9380    5.2180    2.6770 C   0  0  0  0  0  0  0  0  0  0  0  0
   -4.5620    6.3600    2.0100 C   0  0  0  0  0  0  0  0  0  0  0  0
   -4.6270    7.8240    2.8990 S   0  0  0  0  0  0  0  0  0  0  0  0
   -2.9840    7.7460    3.0500 C   0  0  0  0  0  0  0  0  0  0  0  0
   -2.8830    9.0120    3.9520 C   0  0  0  0  0  0  0  0  0  0  0  0
   -3.4320    8.9020    5.2630 O   0  0  0  0  0  0  0  0  0  0  0  0
   -4.1610    6.2400    0.7220 C   0  0  0  0  0  0  0  0  0  0  0  0
   -3.7070    7.3600    0.1490 F   0  0  0  0  0  0  0  0  0  0  0  0
   -4.2460    5.0590    0.0740 C   0  0  0  0  0  0  0  0  0  0  0  0
   -3.8420    5.1440   -1.2170 F   0  0  0  0  0  0  0  0  0  0  0  0
   -5.0970    3.9820    2.1010 C   0  0  0  0  0  0  0  0  0  0  0  0
   -4.7490    3.9450    0.7590 C   0  0  0  0  0  0  0  0  0  0  0  0
   -4.7350    2.4260   -0.2420 S   0  0  0  0  0  0  0  0  0  0  0  0
   -5.9720    2.2130   -1.1250 O   0  0  0  0  0  0  0  0  0  0  0  0
   -4.6290    0.9120    0.6640 N   0  0  0  0  0  0  0  0  0  0  0  0
   -3.5610    2.3340   -1.2320 O   0  0  0  0  0  0  0  0  0  0  0  0
   -5.6220    2.8240    2.7330 N   0  0  0  0  0  0  0  0  0  0  0  0
   -5.8530    2.8000    4.2100 C   0  0  0  0  0  0  0  0  0  0  0  0
   -6.3200    1.4220    4.3910 C   0  0  0  0  0  0  0  0  0  0  0  0
   -5.5970    0.3100    4.2280 C   0  0  0  0  0  0  0  0  0  0  0  0
   -6.2090   -0.9960    4.3410 C   0  0  0  0  0  0  0  0  0  0  0  0
   -7.5970   -1.0980    4.4930 C   0  0  0  0  0  0  0  0  0  0  0  0
   -8.3320    0.1160    4.6770 C   0  0  0  0  0  0  0  0  0  0  0  0
   -7.6680    1.3660    4.5900 C   0  0  0  0  0  0  0  0  0  0  0  0
   -8.2980    2.7320    4.6900 C   0  0  0  0  0  0  0  0  0  0  0  0
   -7.0530    3.6430    4.7240 C   0  0  0  0  0  0  0  0  0  0  0  0
   -2.4573    7.8572    2.0907 H   0  0  0  0  0  0  0  0  0  0  0  0
   -2.5446    6.8097    3.4246 H   0  0  0  0  0  0  0  0  0  0  0  0
   -3.4061    9.8318    3.4379 H   0  0  0  0  0  0  0  0  0  0  0  0
   -1.8060    9.1803    4.0995 H   0  0  0  0  0  0  0  0  0  0  0  0
   -2.7174    9.0452    5.9331 H   0  0  0  0  0  0  0  0  0  0  0  0
   -4.6432    1.1145    1.6738 H   0  0  0  0  0  0  0  0  0  0  0  0
   -5.4300    0.3109    0.4231 H   0  0  0  0  0  0  0  0  0  0  0  0
   -5.8459    1.9922    2.1683 H   0  0  0  0  0  0  0  0  0  0  0  0
   -4.9521    3.1669    4.7235 H   0  0  0  0  0  0  0  0  0  0  0  0
   -4.5227    0.3887    4.0050 H   0  0  0  0  0  0  0  0  0  0  0  0
   -5.5877   -1.9031    4.3077 H   0  0  0  0  0  0  0  0  0  0  0  0
   -8.1034   -2.0743    4.4718 H   0  0  0  0  0  0  0  0  0  0  0  0
   -9.4114    0.0796    4.8858 H   0  0  0  0  0  0  0  0  0  0  0  0
   -8.9302    2.9479    3.8161 H   0  0  0  0  0  0  0  0  0  0  0  0
   -8.9676    2.8550    5.5540 H   0  0  0  0  0  0  0  0  0  0  0  0
   -7.2068    4.5160    4.0727 H   0  0  0  0  0  0  0  0  0  0  0  0
   -6.8647    4.0092    5.7440 H   0  0  0  0  0  0  0  0  0  0  0  0
  7  6  1  0
  6  5  1  0
 24 25  1  0
 24 23  2  0
 26 25  1  0
 26 27  1  0
 25 20  2  0
 23 22  1  0
 22 21  2  0
 20 21  1  0
 20 19  1  0
  1  2  1  0
 19 27  1  0
 19 18  1  0
  5  4  1  0
  4  3  1  0
 18 12  1  0
  2  3  2  0
  2 12  1  0
  3  8  1  0
 12 13  2  0
  8 10  2  0
  8  9  1  0
 13 10  1  0
 13 14  1  0
 10 11  1  0
 16 14  1  0
 14 17  2  0
 14 15  2  0
  5 28  1  0
  5 29  1  0
  6 30  1  0
  6 31  1  0
  7 32  1  0
 16 33  1  0
 16 34  1  0
 18 35  1  0
 19 36  1  0
 21 37  1  0
 22 38  1  0
 23 39  1  0
 24 40  1  0
 26 41  1  0
 26 42  1  0
 27 43  1  0
 27 44  1  0
A    1
F13
A    2
C9
A    3
C8
A    4
S24
A    5
C25
A    6
C26
A    7
O27
A    8
C7
A    9
F12
A   10
C6
A   11
F11
A   12
C10
A   13
C5
A   14
S1
A   15
O3
A   16
N4
A   17
O2
A   18
N14
A   19
C15
A   20
C19
A   21
C20
A   22
C21
A   23
C22
A   24
C23
A   25
C18
A   26
C17
A   27
C16
M  END
