5DP0_5ES_A_601
     RDKit          3D

 50 53  0  0  0  0  0  0  0  0999 V2000
   -1.0940   13.3960  -27.5900 O   0  0  0  0  0  0  0  0  0  0  0  0
   -0.4390   12.9840  -26.4020 C   0  0  0  0  0  0  0  0  0  0  0  0
   -1.1650   12.6870  -25.2980 C   0  0  0  0  0  0  0  0  0  0  0  0
   -0.5110   12.2750  -24.1080 C   0  0  0  0  0  0  0  0  0  0  0  0
    0.8810   12.8950  -26.3750 C   0  0  0  0  0  0  0  0  0  0  0  0
    1.5240   12.4960  -25.2220 C   0  0  0  0  0  0  0  0  0  0  0  0
    0.7740   12.1910  -24.0860 C   0  0  0  0  0  0  0  0  0  0  0  0
    1.4960   11.7190  -22.7770 C   0  0  0  0  0  0  0  0  0  0  0  0
    2.9280   12.1440  -22.5530 C   0  0  0  0  0  0  0  0  0  0  0  0
    3.9500   11.1910  -22.5290 C   0  0  0  0  0  0  0  0  0  0  0  0
    5.3340   11.6030  -22.3260 C   0  0  0  0  0  0  0  0  0  0  0  0
    5.6430   12.9190  -22.1680 C   0  0  0  0  0  0  0  0  0  0  0  0
    6.9240   13.2920  -21.9820 O   0  0  0  0  0  0  0  0  0  0  0  0
    4.5680   13.9270  -22.2020 C   0  0  0  0  0  0  0  0  0  0  0  0
    3.2600   13.5380  -22.3900 C   0  0  0  0  0  0  0  0  0  0  0  0
    0.7890   10.9220  -21.9380 C   0  0  0  0  0  0  0  0  0  0  0  0
    1.3220   10.3370  -20.6040 C   0  0  0  0  0  0  0  0  0  0  0  0
    2.0450   11.1210  -19.6890 C   0  0  0  0  0  0  0  0  0  0  0  0
    2.5110   10.5690  -18.4950 C   0  0  0  0  0  0  0  0  0  0  0  0
    2.2380    9.1880  -18.1880 C   0  0  0  0  0  0  0  0  0  0  0  0
    1.5170    8.4000  -19.0770 C   0  0  0  0  0  0  0  0  0  0  0  0
    1.2630    7.0720  -18.7670 N   0  0  0  0  0  0  0  0  0  0  0  0
    0.9450    6.1250  -19.8160 C   0  0  0  0  0  0  0  0  0  0  0  0
    2.0080    5.4590  -20.5260 C   0  0  0  0  0  0  0  0  0  0  0  0
    1.7190    4.5730  -21.5140 C   0  0  0  0  0  0  0  0  0  0  0  0
    0.4320    4.3130  -21.8310 C   0  0  0  0  0  0  0  0  0  0  0  0
    0.1560    3.4590  -22.7830 F   0  0  0  0  0  0  0  0  0  0  0  0
   -0.6500    4.9820  -21.1140 C   0  0  0  0  0  0  0  0  0  0  0  0
   -0.3660    5.8630  -20.1330 C   0  0  0  0  0  0  0  0  0  0  0  0
    1.0480    8.9520  -20.2850 C   0  0  0  0  0  0  0  0  0  0  0  0
   -1.9308   13.9224  -27.5368 H   0  0  0  0  0  0  0  0  0  0  0  0
   -2.2619   12.7652  -25.3238 H   0  0  0  0  0  0  0  0  0  0  0  0
   -1.0975   12.0291  -23.2105 H   0  0  0  0  0  0  0  0  0  0  0  0
    1.4664   13.1396  -27.2736 H   0  0  0  0  0  0  0  0  0  0  0  0
    2.6210   12.4188  -25.1983 H   0  0  0  0  0  0  0  0  0  0  0  0
    3.7095   10.1261  -22.6638 H   0  0  0  0  0  0  0  0  0  0  0  0
    6.1321   10.8465  -22.3004 H   0  0  0  0  0  0  0  0  0  0  0  0
    7.2811   13.3960  -21.0645 H   0  0  0  0  0  0  0  0  0  0  0  0
    4.8109   14.9925  -22.0769 H   0  0  0  0  0  0  0  0  0  0  0  0
    2.4632   14.2959  -22.4160 H   0  0  0  0  0  0  0  0  0  0  0  0
   -0.2426   10.6709  -22.2258 H   0  0  0  0  0  0  0  0  0  0  0  0
    2.2453   12.1786  -19.9158 H   0  0  0  0  0  0  0  0  0  0  0  0
    3.0857   11.1871  -17.7895 H   0  0  0  0  0  0  0  0  0  0  0  0
    2.6023    8.7550  -17.2447 H   0  0  0  0  0  0  0  0  0  0  0  0
    1.3007    6.7580  -17.7868 H   0  0  0  0  0  0  0  0  0  0  0  0
    3.0562    5.6689  -20.2669 H   0  0  0  0  0  0  0  0  0  0  0  0
    2.5323    4.0676  -22.0555 H   0  0  0  0  0  0  0  0  0  0  0  0
   -1.6970    4.7674  -21.3740 H   0  0  0  0  0  0  0  0  0  0  0  0
   -1.1785    6.3684  -19.5904 H   0  0  0  0  0  0  0  0  0  0  0  0
    0.4729    8.3299  -20.9867 H   0  0  0  0  0  0  0  0  0  0  0  0
  1  2  1  0
  2  5  2  0
  2  3  1  0
  5  6  1  0
  3  4  2  0
  6  7  2  0
  4  7  1  0
  7  8  1  0
 27 26  1  0
  8  9  1  0
  8 16  2  0
  9 10  2  0
  9 15  1  0
 10 11  1  0
 15 14  2  0
 11 12  2  0
 14 12  1  0
 12 13  1  0
 16 17  1  0
 26 25  1  0
 26 28  2  0
 25 24  2  0
 28 29  1  0
 17 30  1  0
 17 18  2  0
 24 23  1  0
 30 21  2  0
 29 23  2  0
 23 22  1  0
 18 19  1  0
 21 22  1  0
 21 20  1  0
 19 20  2  0
  1 31  1  0
  3 32  1  0
  4 33  1  0
  5 34  1  0
  6 35  1  0
 10 36  1  0
 11 37  1  0
 13 38  1  0
 14 39  1  0
 15 40  1  0
 16 41  1  0
 18 42  1  0
 19 43  1  0
 20 44  1  0
 22 45  1  0
 24 46  1  0
 25 47  1  0
 28 48  1  0
 29 49  1  0
 30 50  1  0
A    1
O01
A    2
C02
A    3
C03
A    4
C04
A    5
C05
A    6
C06
A    7
C07
A    8
C08
A    9
C09
A   10
C10
A   11
C11
A   12
C12
A   13
O13
A   14
C14
A   15
C15
A   16
C16
A   17
C17
A   18
C18
A   19
C19
A   20
C20
A   21
C21
A   22
N22
A   23
C23
A   24
C24
A   25
C25
A   26
C26
A   27
F27
A   28
C28
A   29
C29
A   30
C30
M  END
