5DPE_5H8_E_401
     RDKit          3D

 66 66  0  0  0  0  0  0  0  0999 V2000
   17.4890  -40.4710   12.2690 C   0  0  0  0  0  0  0  0  0  0  0  0
   16.3910  -40.2590   13.0780 C   0  0  0  0  0  0  0  0  0  0  0  0
   15.1420  -40.6940   12.6490 C   0  0  0  0  0  0  0  0  0  0  0  0
   13.6100  -41.7650   10.9910 C   0  0  0  0  0  0  0  0  0  0  0  0
   12.9260  -40.9430    8.7980 C   0  0  0  0  0  0  0  0  0  0  0  0
   11.9130  -40.2990    6.7130 C   0  0  0  0  0  0  0  0  0  0  0  0
   10.0320  -38.7000    3.6220 C   0  0  0  0  0  0  0  0  0  0  0  0
    8.7620  -39.5190    3.8000 C   0  0  0  0  0  0  0  0  0  0  0  0
   13.6330  -41.7680    8.3110 O   0  0  0  0  0  0  0  0  0  0  0  0
   10.4540  -38.7100    2.1460 C   0  0  0  0  0  0  0  0  0  0  0  0
    9.4170  -38.1190    1.1650 C   0  0  0  0  0  0  0  0  0  0  0  0
    9.2250  -36.6170    1.3320 C   0  0  0  0  0  0  0  0  0  0  0  0
    8.8390  -43.4400    2.2840 C   0  0  0  0  0  0  0  0  0  0  0  0
    8.1270  -42.6880    5.2430 C   0  0  0  0  0  0  0  0  0  0  0  0
   14.9820  -41.3100   11.4150 C   0  0  0  0  0  0  0  0  0  0  0  0
   11.3880  -38.7390    5.9920 P   0  0  0  0  0  0  0  0  0  0  0  0
   10.0680  -38.2720    6.5310 O   0  0  0  0  0  0  0  0  0  0  0  0
   12.4480  -37.6880    6.1550 O   0  0  0  0  0  0  0  0  0  0  0  0
   11.1690  -39.1870    4.4030 N   0  0  0  0  0  0  0  0  0  0  0  0
    9.7610  -38.4940   -0.2770 C   0  0  0  0  0  0  0  0  0  0  0  0
    7.6640  -38.9620    3.7940 O   0  0  0  0  0  0  0  0  0  0  0  0
    8.9590  -40.8500    3.9160 N   0  0  0  0  0  0  0  0  0  0  0  0
    7.8590  -41.8070    4.0580 C   0  0  0  0  0  0  0  0  0  0  0  0
    9.3260  -42.8560    5.6130 O   0  0  0  0  0  0  0  0  0  0  0  0
    7.1330  -43.1940    5.7900 O   0  0  0  0  0  0  0  0  0  0  0  0
    7.6460  -42.5890    2.7140 C   0  0  0  0  0  0  0  0  0  0  0  0
    6.4150  -43.5150    2.7880 C   0  0  0  0  0  0  0  0  0  0  0  0
    7.3500  -41.5350    1.6070 C   0  0  0  0  0  0  0  0  0  0  0  0
   16.0950  -41.5290   10.6000 C   0  0  0  0  0  0  0  0  0  0  0  0
   17.3340  -41.1050   11.0300 C   0  0  0  0  0  0  0  0  0  0  0  0
   12.9600  -40.7910   10.1870 O   0  0  0  0  0  0  0  0  0  0  0  0
   12.1350  -40.1790    8.1230 N   0  0  0  0  0  0  0  0  0  0  0  0
   18.4859  -40.1419   12.5975 H   0  0  0  0  0  0  0  0  0  0  0  0
   16.5025  -39.7531   14.0484 H   0  0  0  0  0  0  0  0  0  0  0  0
   14.2660  -40.5477   13.2981 H   0  0  0  0  0  0  0  0  0  0  0  0
   13.0021  -41.9497   11.8890 H   0  0  0  0  0  0  0  0  0  0  0  0
   13.7214  -42.6831   10.3955 H   0  0  0  0  0  0  0  0  0  0  0  0
   11.1327  -41.0542    6.5373 H   0  0  0  0  0  0  0  0  0  0  0  0
   12.8603  -40.5960    6.2392 H   0  0  0  0  0  0  0  0  0  0  0  0
    9.7817  -37.6902    3.9793 H   0  0  0  0  0  0  0  0  0  0  0  0
   10.6448  -39.7529    1.8530 H   0  0  0  0  0  0  0  0  0  0  0  0
   11.3434  -38.0664    2.0768 H   0  0  0  0  0  0  0  0  0  0  0  0
    8.4458  -38.5707    1.4152 H   0  0  0  0  0  0  0  0  0  0  0  0
    9.1932  -36.3683    2.4030 H   0  0  0  0  0  0  0  0  0  0  0  0
   10.0625  -36.0852    0.8568 H   0  0  0  0  0  0  0  0  0  0  0  0
    8.2807  -36.3130    0.8568 H   0  0  0  0  0  0  0  0  0  0  0  0
    9.3631  -43.8139    3.1759 H   0  0  0  0  0  0  0  0  0  0  0  0
    8.4850  -44.2907    1.6832 H   0  0  0  0  0  0  0  0  0  0  0  0
    9.5281  -42.8283    1.6832 H   0  0  0  0  0  0  0  0  0  0  0  0
   10.0938  -38.2811    7.5206 H   0  0  0  0  0  0  0  0  0  0  0  0
   11.1070  -40.2151    4.3967 H   0  0  0  0  0  0  0  0  0  0  0  0
   10.5046  -39.3046   -0.2776 H   0  0  0  0  0  0  0  0  0  0  0  0
    8.8511  -38.8307   -0.7953 H   0  0  0  0  0  0  0  0  0  0  0  0
   10.1748  -37.6164   -0.7953 H   0  0  0  0  0  0  0  0  0  0  0  0
    9.9248  -41.2079    3.9041 H   0  0  0  0  0  0  0  0  0  0  0  0
    6.9083  -41.2896    4.2540 H   0  0  0  0  0  0  0  0  0  0  0  0
    7.0734  -43.2244    6.7777 H   0  0  0  0  0  0  0  0  0  0  0  0
    6.1621  -43.7052    3.8415 H   0  0  0  0  0  0  0  0  0  0  0  0
    5.5625  -43.0324    2.2876 H   0  0  0  0  0  0  0  0  0  0  0  0
    6.6423  -44.4679    2.2876 H   0  0  0  0  0  0  0  0  0  0  0  0
    7.0809  -40.5768    2.0755 H   0  0  0  0  0  0  0  0  0  0  0  0
    8.2447  -41.3989    0.9817 H   0  0  0  0  0  0  0  0  0  0  0  0
    6.5153  -41.8846    0.9817 H   0  0  0  0  0  0  0  0  0  0  0  0
   15.9843  -42.0329    9.6285 H   0  0  0  0  0  0  0  0  0  0  0  0
   18.2142  -41.2670   10.3904 H   0  0  0  0  0  0  0  0  0  0  0  0
   11.6319  -39.4366    8.6296 H   0  0  0  0  0  0  0  0  0  0  0  0
 20 11  1  0
 11 12  1  0
 11 10  1  0
 28 26  1  0
 10  7  1  0
 13 26  1  0
 26 27  1  0
 26 23  1  0
  7  8  1  0
  7 19  1  0
 21  8  2  0
  8 22  1  0
 22 23  1  0
 23 14  1  0
 19 16  1  0
 14 24  2  0
 14 25  1  0
 16 18  2  0
 16 17  1  0
 16  6  1  0
  6 32  1  0
 32  5  1  0
  9  5  2  0
  5 31  1  0
 31  4  1  0
 29 30  1  0
 29 15  2  0
  4 15  1  0
 30  1  2  0
 15  3  1  0
  1  2  1  0
  3  2  2  0
  1 33  1  0
  2 34  1  0
  3 35  1  0
  4 36  1  0
  4 37  1  0
  6 38  1  0
  6 39  1  0
  7 40  1  0
 10 41  1  0
 10 42  1  0
 11 43  1  0
 12 44  1  0
 12 45  1  0
 12 46  1  0
 13 47  1  0
 13 48  1  0
 13 49  1  0
 17 50  1  0
 19 51  1  0
 20 52  1  0
 20 53  1  0
 20 54  1  0
 22 55  1  0
 23 56  1  0
 25 57  1  0
 27 58  1  0
 27 59  1  0
 27 60  1  0
 28 61  1  0
 28 62  1  0
 28 63  1  0
 29 64  1  0
 30 65  1  0
 32 66  1  0
A    1
C1
A    2
C2
A    3
C3
A    4
C7
A    5
C9
A    6
C11
A    7
C14
A    8
C15
A    9
O17
A   10
C20
A   11
C21
A   12
C22
A   13
C27
A   14
C30
A   15
C4
A   16
P12
A   17
O19
A   18
O18
A   19
N13
A   20
C23
A   21
O24
A   22
N16
A   23
C25
A   24
O32
A   25
O31
A   26
C26
A   27
C29
A   28
C28
A   29
C5
A   30
C6
A   31
O8
A   32
N10
M  END
