5DPF_5H9_E_401
     RDKit          3D

 69 69  0  0  0  0  0  0  0  0999 V2000
   17.4610  -40.5010   12.2230 C   0  0  0  0  0  0  0  0  0  0  0  0
   16.3580  -40.2540   13.0230 C   0  0  0  0  0  0  0  0  0  0  0  0
   15.0980  -40.7150   12.6500 C   0  0  0  0  0  0  0  0  0  0  0  0
   13.5750  -41.8990   11.0290 C   0  0  0  0  0  0  0  0  0  0  0  0
   12.9630  -41.0220    8.8230 C   0  0  0  0  0  0  0  0  0  0  0  0
   12.0050  -40.2880    6.7670 C   0  0  0  0  0  0  0  0  0  0  0  0
   10.0410  -38.6950    3.7060 C   0  0  0  0  0  0  0  0  0  0  0  0
    8.8460  -39.6010    3.9150 C   0  0  0  0  0  0  0  0  0  0  0  0
   13.7300  -41.8340    8.2810 O   0  0  0  0  0  0  0  0  0  0  0  0
   10.4510  -38.7270    2.2280 C   0  0  0  0  0  0  0  0  0  0  0  0
    9.4150  -38.1260    1.2680 C   0  0  0  0  0  0  0  0  0  0  0  0
    9.7910  -38.4520   -0.1830 C   0  0  0  0  0  0  0  0  0  0  0  0
    7.6500  -42.7310    1.8350 C   0  0  0  0  0  0  0  0  0  0  0  0
    6.2270  -42.1610    1.8740 C   0  0  0  0  0  0  0  0  0  0  0  0
    8.3350  -42.6470    5.6080 C   0  0  0  0  0  0  0  0  0  0  0  0
   14.9390  -41.3930   11.4500 C   0  0  0  0  0  0  0  0  0  0  0  0
   12.8660  -40.9420   10.2370 O   0  0  0  0  0  0  0  0  0  0  0  0
   12.2700  -40.1440    8.1650 N   0  0  0  0  0  0  0  0  0  0  0  0
   11.4440  -38.7240    6.0800 P   0  0  0  0  0  0  0  0  0  0  0  0
   12.5070  -37.6970    6.2620 O   0  0  0  0  0  0  0  0  0  0  0  0
   10.0940  -38.2560    6.6160 O   0  0  0  0  0  0  0  0  0  0  0  0
   11.2250  -39.1230    4.4810 N   0  0  0  0  0  0  0  0  0  0  0  0
    9.2610  -36.6180    1.4220 C   0  0  0  0  0  0  0  0  0  0  0  0
    7.7250  -39.0940    3.9020 O   0  0  0  0  0  0  0  0  0  0  0  0
    9.1030  -40.9210    4.0820 N   0  0  0  0  0  0  0  0  0  0  0  0
    8.0710  -41.9190    4.3100 C   0  0  0  0  0  0  0  0  0  0  0  0
    9.5250  -42.7380    6.0440 O   0  0  0  0  0  0  0  0  0  0  0  0
    7.3520  -43.1740    6.1800 O   0  0  0  0  0  0  0  0  0  0  0  0
    8.1450  -43.0350    3.2510 C   0  0  0  0  0  0  0  0  0  0  0  0
    7.5690  -44.0400    1.0500 C   0  0  0  0  0  0  0  0  0  0  0  0
    8.5980  -41.7830    1.0910 C   0  0  0  0  0  0  0  0  0  0  0  0
   16.0570  -41.6410   10.6450 C   0  0  0  0  0  0  0  0  0  0  0  0
   17.3150  -41.2030   11.0290 C   0  0  0  0  0  0  0  0  0  0  0  0
   18.4541  -40.1422   12.5311 H   0  0  0  0  0  0  0  0  0  0  0  0
   16.4779  -39.6897   13.9596 H   0  0  0  0  0  0  0  0  0  0  0  0
   14.2313  -40.5421   13.3049 H   0  0  0  0  0  0  0  0  0  0  0  0
   12.9849  -42.1197   11.9307 H   0  0  0  0  0  0  0  0  0  0  0  0
   13.7228  -42.8013   10.4174 H   0  0  0  0  0  0  0  0  0  0  0  0
   11.2252  -41.0500    6.6211 H   0  0  0  0  0  0  0  0  0  0  0  0
   12.9290  -40.5952    6.2552 H   0  0  0  0  0  0  0  0  0  0  0  0
    9.7334  -37.6925    4.0382 H   0  0  0  0  0  0  0  0  0  0  0  0
   10.6187  -39.7754    1.9404 H   0  0  0  0  0  0  0  0  0  0  0  0
   11.3558  -38.1076    2.1404 H   0  0  0  0  0  0  0  0  0  0  0  0
    8.4478  -38.5815    1.5271 H   0  0  0  0  0  0  0  0  0  0  0  0
   10.6221  -39.1726   -0.1934 H   0  0  0  0  0  0  0  0  0  0  0  0
    8.9219  -38.8872   -0.6981 H   0  0  0  0  0  0  0  0  0  0  0  0
   10.0986  -37.5300   -0.6981 H   0  0  0  0  0  0  0  0  0  0  0  0
    5.9112  -42.0345    2.9201 H   0  0  0  0  0  0  0  0  0  0  0  0
    6.2085  -41.1861    1.3649 H   0  0  0  0  0  0  0  0  0  0  0  0
    5.5405  -42.8535    1.3649 H   0  0  0  0  0  0  0  0  0  0  0  0
   11.9009  -39.3214    8.6629 H   0  0  0  0  0  0  0  0  0  0  0  0
   10.1118  -38.2622    7.6058 H   0  0  0  0  0  0  0  0  0  0  0  0
   11.2360  -40.1521    4.4398 H   0  0  0  0  0  0  0  0  0  0  0  0
    9.2346  -36.3594    2.4908 H   0  0  0  0  0  0  0  0  0  0  0  0
   10.1121  -36.1117    0.9432 H   0  0  0  0  0  0  0  0  0  0  0  0
    8.3251  -36.2942    0.9432 H   0  0  0  0  0  0  0  0  0  0  0  0
   10.0835  -41.2344    4.0454 H   0  0  0  0  0  0  0  0  0  0  0  0
    7.1102  -41.3837    4.2952 H   0  0  0  0  0  0  0  0  0  0  0  0
    7.3086  -43.1973    7.1688 H   0  0  0  0  0  0  0  0  0  0  0  0
    7.5512  -43.8807    3.6282 H   0  0  0  0  0  0  0  0  0  0  0  0
    9.2226  -43.2176    3.1265 H   0  0  0  0  0  0  0  0  0  0  0  0
    7.5167  -44.8856    1.7516 H   0  0  0  0  0  0  0  0  0  0  0  0
    6.6696  -44.0327    0.4168 H   0  0  0  0  0  0  0  0  0  0  0  0
    8.4624  -44.1437    0.4168 H   0  0  0  0  0  0  0  0  0  0  0  0
    9.1805  -41.2005    1.8199 H   0  0  0  0  0  0  0  0  0  0  0  0
    9.2819  -42.3693    0.4597 H   0  0  0  0  0  0  0  0  0  0  0  0
    8.0117  -41.0991    0.4597 H   0  0  0  0  0  0  0  0  0  0  0  0
   15.9362  -42.1886    9.6987 H   0  0  0  0  0  0  0  0  0  0  0  0
   18.1908  -41.4082   10.3958 H   0  0  0  0  0  0  0  0  0  0  0  0
 12 11  1  0
 30 13  1  0
 31 13  1  0
 11 23  1  0
 11 10  1  0
 13 14  1  0
 13 29  1  0
 10  7  1  0
 29 26  1  0
  7  8  1  0
  7 22  1  0
 24  8  2  0
  8 25  1  0
 25 26  1  0
 26 15  1  0
 22 19  1  0
 15 27  2  0
 15 28  1  0
 19 20  2  0
 19 21  1  0
 19  6  1  0
  6 18  1  0
 18  5  1  0
  9  5  2  0
  5 17  1  0
 17  4  1  0
 32 33  1  0
 32 16  2  0
 33  1  2  0
  4 16  1  0
 16  3  1  0
  1  2  1  0
  3  2  2  0
  1 34  1  0
  2 35  1  0
  3 36  1  0
  4 37  1  0
  4 38  1  0
  6 39  1  0
  6 40  1  0
  7 41  1  0
 10 42  1  0
 10 43  1  0
 11 44  1  0
 12 45  1  0
 12 46  1  0
 12 47  1  0
 14 48  1  0
 14 49  1  0
 14 50  1  0
 18 51  1  0
 21 52  1  0
 22 53  1  0
 23 54  1  0
 23 55  1  0
 23 56  1  0
 25 57  1  0
 26 58  1  0
 28 59  1  0
 29 60  1  0
 29 61  1  0
 30 62  1  0
 30 63  1  0
 30 64  1  0
 31 65  1  0
 31 66  1  0
 31 67  1  0
 32 68  1  0
 33 69  1  0
A    1
C1
A    2
C2
A    3
C3
A    4
C7
A    5
C9
A    6
C11
A    7
C14
A    8
C15
A    9
O17
A   10
C20
A   11
C21
A   12
C22
A   13
C27
A   14
C30
A   15
C31
A   16
C4
A   17
O8
A   18
N10
A   19
P12
A   20
O19
A   21
O18
A   22
N13
A   23
C23
A   24
O24
A   25
N16
A   26
C25
A   27
O33
A   28
O32
A   29
C26
A   30
C29
A   31
C28
A   32
C5
A   33
C6
M  END
