5DQ4_5HQ_A_402
     RDKit          3D

 23 24  0  0  0  0  0  0  0  0999 V2000
   -3.7630    0.2020   10.7440 C   0  0  0  0  0  0  0  0  0  0  0  0
   -4.9250   -0.6580   10.9140 C   0  0  0  0  0  0  0  0  0  0  0  0
   -5.0820   -1.9960   10.7950 C   0  0  0  0  0  0  0  0  0  0  0  0
   -3.9140    1.5130   10.9930 N   0  0  0  0  0  0  0  0  0  0  0  0
   -6.4530   -2.2660   11.0790 C   0  0  0  0  0  0  0  0  0  0  0  0
   -7.0320   -1.0990   11.3470 C   0  0  0  0  0  0  0  0  0  0  0  0
   -2.8300    2.2940   10.8720 C   0  0  0  0  0  0  0  0  0  0  0  0
   -0.4520    3.5150    9.1610 N   0  0  0  0  0  0  0  0  0  0  0  0
   -0.4220    2.7770   10.3970 C   0  0  0  0  0  0  0  0  0  0  0  0
   -1.5770    1.8380   10.5050 C   0  0  0  0  0  0  0  0  0  0  0  0
   -2.5480   -0.3550   10.3670 C   0  0  0  0  0  0  0  0  0  0  0  0
   -1.4590    0.4840   10.2500 C   0  0  0  0  0  0  0  0  0  0  0  0
   -6.1200   -0.0790   11.2540 O   0  0  0  0  0  0  0  0  0  0  0  0
   -4.3063   -2.7300   10.5315 H   0  0  0  0  0  0  0  0  0  0  0  0
   -6.9396   -3.2525   11.0768 H   0  0  0  0  0  0  0  0  0  0  0  0
   -8.0931   -0.9701   11.6067 H   0  0  0  0  0  0  0  0  0  0  0  0
   -2.9454    3.3683   11.0784 H   0  0  0  0  0  0  0  0  0  0  0  0
   -0.4930    4.5239    9.3644 H   0  0  0  0  0  0  0  0  0  0  0  0
    0.3981    3.3087    8.6172 H   0  0  0  0  0  0  0  0  0  0  0  0
    0.5130    2.1996   10.4453 H   0  0  0  0  0  0  0  0  0  0  0  0
   -0.4839    3.4952   11.2279 H   0  0  0  0  0  0  0  0  0  0  0  0
   -2.4566   -1.4329   10.1676 H   0  0  0  0  0  0  0  0  0  0  0  0
   -0.4847    0.0707    9.9501 H   0  0  0  0  0  0  0  0  0  0  0  0
  8  9  1  0
 12 11  2  0
 12 10  1  0
 11  1  1  0
  9 10  1  0
 10  7  2  0
  1  2  1  0
  1  4  2  0
  3  2  2  0
  3  5  1  0
  7  4  1  0
  2 13  1  0
  5  6  2  0
 13  6  1  0
  3 14  1  0
  5 15  1  0
  6 16  1  0
  7 17  1  0
  8 18  1  0
  8 19  1  0
  9 20  1  0
  9 21  1  0
 11 22  1  0
 12 23  1  0
A    1
C4
A    2
C5
A    3
C6
A    4
N1
A    5
C7
A    6
C8
A    7
C9
A    8
N
A    9
C
A   10
C1
A   11
C3
A   12
C2
A   13
O
M  END
