5DQ5_5HS_A_405
     RDKit          3D

 14 14  0  0  0  0  0  0  0  0999 V2000
   -0.9700    1.9400   11.3200 C   0  0  0  0  0  0  0  0  0  0  0  0
   -0.3900    3.2860    9.5650 C   0  0  0  0  0  0  0  0  0  0  0  0
   -2.0760    4.4560    8.0890 C   0  0  0  0  0  0  0  0  0  0  0  0
   -1.7090    3.5550    9.2460 C   0  0  0  0  0  0  0  0  0  0  0  0
   -0.0070    2.4950   10.5760 N   0  0  0  0  0  0  0  0  0  0  0  0
   -2.3080    2.1430   11.0900 C   0  0  0  0  0  0  0  0  0  0  0  0
   -2.6730    2.9600   10.0390 C   0  0  0  0  0  0  0  0  0  0  0  0
   -0.6756    1.2894   12.1567 H   0  0  0  0  0  0  0  0  0  0  0  0
    0.3940    3.7512    8.9494 H   0  0  0  0  0  0  0  0  0  0  0  0
   -2.4645    5.4097    8.4758 H   0  0  0  0  0  0  0  0  0  0  0  0
   -1.1835    4.6458    7.4746 H   0  0  0  0  0  0  0  0  0  0  0  0
   -2.8471    3.9682    7.4746 H   0  0  0  0  0  0  0  0  0  0  0  0
   -3.0689    1.6673   11.7262 H   0  0  0  0  0  0  0  0  0  0  0  0
   -3.7382    3.1390    9.8308 H   0  0  0  0  0  0  0  0  0  0  0  0
  3  4  1  0
  4  2  2  0
  4  7  1  0
  2  5  1  0
  7  6  2  0
  5  1  2  0
  6  1  1  0
  1  8  1  0
  2  9  1  0
  3 10  1  0
  3 11  1  0
  3 12  1  0
  6 13  1  0
  7 14  1  0
A    1
C4
A    2
C5
A    3
C
A    4
C1
A    5
N
A    6
C3
A    7
C2
M  END
