5DQQ_66R_A_809
     RDKit          3D

 69 74  0  0  0  0  0  0  0  0999 V2000
  -10.6090  -19.6430  -13.8090 C   0  0  0  0  0  0  0  0  0  0  0  0
   -9.3380  -19.2980  -14.2750 C   0  0  0  0  0  0  0  0  0  0  0  0
   -8.3010  -19.1490  -13.3260 C   0  0  0  0  0  0  0  0  0  0  0  0
   -8.5560  -19.3410  -11.9650 C   0  0  0  0  0  0  0  0  0  0  0  0
   -9.8280  -19.6830  -11.5250 C   0  0  0  0  0  0  0  0  0  0  0  0
  -10.8560  -19.8340  -12.4420 C   0  0  0  0  0  0  0  0  0  0  0  0
   -7.0270  -18.8150  -13.6800 F   0  0  0  0  0  0  0  0  0  0  0  0
   -9.1470  -19.1080  -15.7690 N   0  0  0  0  0  0  0  0  0  0  0  0
  -10.2860  -18.8010  -16.6250 C   0  0  0  0  0  0  0  0  0  0  0  0
  -10.0530  -19.1220  -18.1200 C   0  0  0  0  0  0  0  0  0  0  0  0
   -8.9160  -18.5460  -18.6450 N   0  0  0  0  0  0  0  0  0  0  0  0
   -7.8030  -18.7910  -17.8660 C   0  0  0  0  0  0  0  0  0  0  0  0
   -7.9800  -18.4590  -16.3730 C   0  0  0  0  0  0  0  0  0  0  0  0
   -8.6800  -18.9660  -19.8550 C   0  0  0  0  0  0  0  0  0  0  0  0
   -9.7600  -18.4660  -20.9130 C   0  0  0  0  0  0  0  0  0  0  0  0
  -10.7870  -19.3250  -21.3450 C   0  0  0  0  0  0  0  0  0  0  0  0
  -11.7280  -18.8650  -22.2860 C   0  0  0  0  0  0  0  0  0  0  0  0
  -11.6590  -17.5500  -22.7900 C   0  0  0  0  0  0  0  0  0  0  0  0
  -10.6440  -16.7020  -22.3560 C   0  0  0  0  0  0  0  0  0  0  0  0
   -9.6920  -17.1620  -21.4150 C   0  0  0  0  0  0  0  0  0  0  0  0
  -10.5130  -15.2440  -22.8740 C   0  0  0  0  0  0  0  0  0  0  0  0
  -11.8280  -14.7180  -23.4670 C   0  0  0  0  0  0  0  0  0  0  0  0
  -11.8980  -14.0600  -24.6130 C   0  0  0  0  0  0  0  0  0  0  0  0
  -10.6580  -13.8170  -25.4280 C   0  0  0  0  0  0  0  0  0  0  0  0
   -9.5540  -14.8760  -25.2190 C   0  0  0  0  0  0  0  0  0  0  0  0
   -9.3350  -15.2040  -23.7650 N   0  0  0  0  0  0  0  0  0  0  0  0
   -8.2660  -14.3430  -25.7470 C   0  0  0  0  0  0  0  0  0  0  0  0
   -8.2510  -13.2570  -26.3790 O   0  0  0  0  0  0  0  0  0  0  0  0
   -7.1890  -14.9670  -25.5480 O   0  0  0  0  0  0  0  0  0  0  0  0
  -13.3240  -13.7220  -24.7910 C   0  0  0  0  0  0  0  0  0  0  0  0
  -13.9750  -14.2040  -23.7160 C   0  0  0  0  0  0  0  0  0  0  0  0
  -13.0760  -14.8000  -22.9090 N   0  0  0  0  0  0  0  0  0  0  0  0
  -15.3980  -14.0280  -23.5970 C   0  0  0  0  0  0  0  0  0  0  0  0
  -16.0970  -13.3590  -24.5960 C   0  0  0  0  0  0  0  0  0  0  0  0
  -15.4260  -12.8650  -25.6980 C   0  0  0  0  0  0  0  0  0  0  0  0
  -14.0470  -13.0350  -25.8150 C   0  0  0  0  0  0  0  0  0  0  0  0
  -10.8600  -20.6450  -20.8500 O   0  0  0  0  0  0  0  0  0  0  0  0
  -12.1200  -21.0740  -20.3750 C   0  0  0  0  0  0  0  0  0  0  0  0
  -11.4319  -19.7672  -14.5283 H   0  0  0  0  0  0  0  0  0  0  0  0
   -7.7414  -19.2200  -11.2357 H   0  0  0  0  0  0  0  0  0  0  0  0
  -10.0189  -19.8335  -10.4522 H   0  0  0  0  0  0  0  0  0  0  0  0
  -11.8653  -20.1036  -12.0976 H   0  0  0  0  0  0  0  0  0  0  0  0
  -10.5093  -17.7279  -16.5322 H   0  0  0  0  0  0  0  0  0  0  0  0
  -11.1180  -19.4370  -16.2885 H   0  0  0  0  0  0  0  0  0  0  0  0
  -10.9203  -18.7593  -18.6912 H   0  0  0  0  0  0  0  0  0  0  0  0
   -9.9227  -20.2116  -18.1957 H   0  0  0  0  0  0  0  0  0  0  0  0
   -7.5517  -19.8584  -17.9527 H   0  0  0  0  0  0  0  0  0  0  0  0
   -7.0084  -18.1289  -18.2406 H   0  0  0  0  0  0  0  0  0  0  0  0
   -7.0796  -18.7874  -15.8332 H   0  0  0  0  0  0  0  0  0  0  0  0
   -8.1358  -17.3727  -16.2971 H   0  0  0  0  0  0  0  0  0  0  0  0
   -8.6788  -20.0660  -19.8495 H   0  0  0  0  0  0  0  0  0  0  0  0
   -7.7070  -18.5539  -20.1607 H   0  0  0  0  0  0  0  0  0  0  0  0
  -12.5257  -19.5389  -22.6317 H   0  0  0  0  0  0  0  0  0  0  0  0
  -12.4016  -17.1969  -23.5206 H   0  0  0  0  0  0  0  0  0  0  0  0
   -8.8916  -16.4882  -21.0754 H   0  0  0  0  0  0  0  0  0  0  0  0
  -10.3336  -14.5325  -22.0545 H   0  0  0  0  0  0  0  0  0  0  0  0
  -10.2504  -12.8330  -25.1532 H   0  0  0  0  0  0  0  0  0  0  0  0
  -10.9556  -13.8707  -26.4856 H   0  0  0  0  0  0  0  0  0  0  0  0
   -9.8788  -15.7867  -25.7435 H   0  0  0  0  0  0  0  0  0  0  0  0
   -8.8898  -16.1320  -23.7248 H   0  0  0  0  0  0  0  0  0  0  0  0
   -6.8832  -15.1442  -24.6232 H   0  0  0  0  0  0  0  0  0  0  0  0
  -13.2943  -15.2495  -22.0083 H   0  0  0  0  0  0  0  0  0  0  0  0
  -15.9312  -14.4212  -22.7189 H   0  0  0  0  0  0  0  0  0  0  0  0
  -17.1851  -13.2231  -24.5087 H   0  0  0  0  0  0  0  0  0  0  0  0
  -15.9817  -12.3356  -26.4860 H   0  0  0  0  0  0  0  0  0  0  0  0
  -13.5162  -12.6409  -26.6942 H   0  0  0  0  0  0  0  0  0  0  0  0
  -12.1169  -21.0730  -19.2750 H   0  0  0  0  0  0  0  0  0  0  0  0
  -12.9014  -20.3913  -20.7401 H   0  0  0  0  0  0  0  0  0  0  0  0
  -12.3224  -22.0917  -20.7401 H   0  0  0  0  0  0  0  0  0  0  0  0
 28 27  2  0
 36 35  1  0
 36 30  2  0
 27 29  1  0
 27 25  1  0
 35 34  2  0
 24 25  1  0
 24 23  1  0
 25 26  1  0
 30 23  1  0
 30 31  1  0
 23 22  2  0
 34 33  1  0
 26 21  1  0
 31 33  2  0
 31 32  1  0
 22 32  1  0
 22 21  1  0
 21 19  1  0
 18 19  2  0
 18 17  1  0
 19 20  1  0
 17 16  2  0
 20 15  2  0
 16 15  1  0
 16 37  1  0
 15 14  1  0
 37 38  1  0
 14 11  1  0
 11 10  1  0
 11 12  1  0
 10  9  1  0
 12 13  1  0
  9  8  1  0
 13  8  1  0
  8  2  1  0
  2  1  2  0
  2  3  1  0
  1  6  1  0
  7  3  1  0
  3  4  2  0
  6  5  2  0
  4  5  1  0
  1 39  1  0
  4 40  1  0
  5 41  1  0
  6 42  1  0
  9 43  1  0
  9 44  1  0
 10 45  1  0
 10 46  1  0
 12 47  1  0
 12 48  1  0
 13 49  1  0
 13 50  1  0
 14 51  1  0
 14 52  1  0
 17 53  1  0
 18 54  1  0
 20 55  1  0
 21 56  1  0
 24 57  1  0
 24 58  1  0
 25 59  1  0
 26 60  1  0
 29 61  1  0
 32 62  1  0
 33 63  1  0
 34 64  1  0
 35 65  1  0
 36 66  1  0
 38 67  1  0
 38 68  1  0
 38 69  1  0
A    1
C01
A    2
C02
A    3
C03
A    4
C04
A    5
C05
A    6
C06
A    7
F07
A    8
N08
A    9
C09
A   10
C10
A   11
N11
A   12
C12
A   13
C13
A   14
C14
A   15
C15
A   16
C16
A   17
C17
A   18
C18
A   19
C19
A   20
C20
A   21
C21
A   22
C22
A   23
C23
A   24
C24
A   25
C25
A   26
N26
A   27
C27
A   28
O28
A   29
O29
A   30
C30
A   31
C31
A   32
N32
A   33
C33
A   34
C34
A   35
C35
A   36
C36
A   37
O37
A   38
C38
M  END
