5DR0_5GC_A_411
     RDKit          3D

 27 27  0  0  0  0  0  0  0  0999 V2000
  -12.7570    0.9990   -0.8300 C   0  0  0  0  0  0  0  0  0  0  0  0
  -10.8740    1.6550    0.2040 C   0  0  0  0  0  0  0  0  0  0  0  0
   -8.1910    1.7040    0.5710 C   0  0  0  0  0  0  0  0  0  0  0  0
  -10.5160    0.9520   -0.8310 N   0  0  0  0  0  0  0  0  0  0  0  0
  -14.0090    0.7580   -1.2130 N   0  0  0  0  0  0  0  0  0  0  0  0
  -12.4850    2.5880    2.7120 O   0  0  0  0  0  0  0  0  0  0  0  0
  -13.2680    2.5070    1.5070 S   0  0  0  0  0  0  0  0  0  0  0  0
  -14.5320    1.8230    1.5530 O   0  0  0  0  0  0  0  0  0  0  0  0
  -13.5520    4.1670    0.9150 C   0  0  0  0  0  0  0  0  0  0  0  0
  -12.2860    4.9960    1.0150 C   0  0  0  0  0  0  0  0  0  0  0  0
  -14.1270    4.1290   -0.4900 C   0  0  0  0  0  0  0  0  0  0  0  0
  -12.2970    1.7380    0.2850 C   0  0  0  0  0  0  0  0  0  0  0  0
   -9.6990    2.3180    1.3100 S   0  0  0  0  0  0  0  0  0  0  0  0
  -11.6620    0.5520   -1.4540 N   0  0  0  0  0  0  0  0  0  0  0  0
   -7.4848    1.4165    1.3638 H   0  0  0  0  0  0  0  0  0  0  0  0
   -8.4189    0.8271   -0.0527 H   0  0  0  0  0  0  0  0  0  0  0  0
   -7.7416    2.4907   -0.0527 H   0  0  0  0  0  0  0  0  0  0  0  0
   -9.5519    0.7384   -1.1238 H   0  0  0  0  0  0  0  0  0  0  0  0
  -14.7453    0.6163   -0.5069 H   0  0  0  0  0  0  0  0  0  0  0  0
  -14.2413    0.7133   -2.2155 H   0  0  0  0  0  0  0  0  0  0  0  0
  -14.2977    4.6619    1.5545 H   0  0  0  0  0  0  0  0  0  0  0  0
  -12.0371    5.1590    2.0740 H   0  0  0  0  0  0  0  0  0  0  0  0
  -11.4593    4.4638    0.5218 H   0  0  0  0  0  0  0  0  0  0  0  0
  -12.4433    5.9665    0.5218 H   0  0  0  0  0  0  0  0  0  0  0  0
  -15.2233    4.0566   -0.4357 H   0  0  0  0  0  0  0  0  0  0  0  0
  -13.8463    5.0477   -1.0260 H   0  0  0  0  0  0  0  0  0  0  0  0
  -13.7279    3.2553   -1.0260 H   0  0  0  0  0  0  0  0  0  0  0  0
 14  4  1  0
 14  1  2  0
  5  1  1  0
  4  2  1  0
  1 12  1  0
 11  9  1  0
  2 12  2  0
  2 13  1  0
 12  7  1  0
  3 13  1  0
  9 10  1  0
  9  7  1  0
  7  8  2  0
  7  6  2  0
  3 15  1  0
  3 16  1  0
  3 17  1  0
  4 18  1  0
  5 19  1  0
  5 20  1  0
  9 21  1  0
 10 22  1  0
 10 23  1  0
 10 24  1  0
 11 25  1  0
 11 26  1  0
 11 27  1  0
A    1
C4
A    2
C5
A    3
C6
A    4
N1
A    5
N2
A    6
O1
A    7
S
A    8
O
A    9
C1
A   10
C2
A   11
C
A   12
C3
A   13
S1
A   14
N
M  END
