5DR1_5GJ_A_409
     RDKit          3D

 37 39  0  0  0  0  0  0  0  0999 V2000
   -3.8530   -0.7500   10.1500 C   0  0  0  0  0  0  0  0  0  0  0  0
   -2.5550   -0.2870   10.2720 C   0  0  0  0  0  0  0  0  0  0  0  0
   -6.3710   -0.4300   10.3770 C   0  0  0  0  0  0  0  0  0  0  0  0
   -7.4930    0.5830   10.6050 C   0  0  0  0  0  0  0  0  0  0  0  0
   -7.2150   -0.4250   11.6520 C   0  0  0  0  0  0  0  0  0  0  0  0
   -6.6210   -1.6500    9.4760 C   0  0  0  0  0  0  0  0  0  0  0  0
   -6.2790   -0.2820    7.3880 C   0  0  0  0  0  0  0  0  0  0  0  0
   -7.4870    0.1630    6.5840 C   0  0  0  0  0  0  0  0  0  0  0  0
   -7.9790   -0.9600    5.6760 C   0  0  0  0  0  0  0  0  0  0  0  0
   -8.2020   -2.2360    6.4560 C   0  0  0  0  0  0  0  0  0  0  0  0
   -6.9560   -2.5970    7.2420 C   0  0  0  0  0  0  0  0  0  0  0  0
   -6.9010   -2.7220    9.9820 O   0  0  0  0  0  0  0  0  0  0  0  0
   -4.9290    0.0730   10.4650 C   0  0  0  0  0  0  0  0  0  0  0  0
   -4.6660    1.3630   10.8990 C   0  0  0  0  0  0  0  0  0  0  0  0
   -3.3650    1.8220   11.0230 C   0  0  0  0  0  0  0  0  0  0  0  0
   -2.3080    0.9960   10.7100 C   0  0  0  0  0  0  0  0  0  0  0  0
   -6.5910   -1.5020    8.1380 N   0  0  0  0  0  0  0  0  0  0  0  0
   -8.5610   -3.3090    5.5830 O   0  0  0  0  0  0  0  0  0  0  0  0
   -4.0354   -1.7771    9.8011 H   0  0  0  0  0  0  0  0  0  0  0  0
   -1.7136   -0.9482   10.0174 H   0  0  0  0  0  0  0  0  0  0  0  0
   -7.2474    1.6401   10.7844 H   0  0  0  0  0  0  0  0  0  0  0  0
   -8.3885    0.8824   10.0407 H   0  0  0  0  0  0  0  0  0  0  0  0
   -7.9346   -1.2366   11.8349 H   0  0  0  0  0  0  0  0  0  0  0  0
   -6.9881   -0.3782   12.7273 H   0  0  0  0  0  0  0  0  0  0  0  0
   -5.4405   -0.4804    6.7042 H   0  0  0  0  0  0  0  0  0  0  0  0
   -6.0061    0.5144    8.0960 H   0  0  0  0  0  0  0  0  0  0  0  0
   -7.2095    1.0301    5.9667 H   0  0  0  0  0  0  0  0  0  0  0  0
   -8.2945    0.4311    7.2812 H   0  0  0  0  0  0  0  0  0  0  0  0
   -7.2277   -1.1442    4.8939 H   0  0  0  0  0  0  0  0  0  0  0  0
   -8.9363   -0.6528    5.2297 H   0  0  0  0  0  0  0  0  0  0  0  0
   -9.0313   -2.0685    7.1591 H   0  0  0  0  0  0  0  0  0  0  0  0
   -7.1501   -3.5028    7.8352 H   0  0  0  0  0  0  0  0  0  0  0  0
   -6.1284   -2.7783    6.5404 H   0  0  0  0  0  0  0  0  0  0  0  0
   -5.5028    2.0320   11.1486 H   0  0  0  0  0  0  0  0  0  0  0  0
   -3.1756    2.8478   11.3720 H   0  0  0  0  0  0  0  0  0  0  0  0
   -1.2740    1.3580   10.8090 H   0  0  0  0  0  0  0  0  0  0  0  0
   -8.8248   -4.0975    6.1204 H   0  0  0  0  0  0  0  0  0  0  0  0
 18 10  1  0
  9 10  1  0
  9  8  1  0
 10 11  1  0
  8  7  1  0
 11 17  1  0
  7 17  1  0
 17  6  1  0
  6 12  2  0
  6  3  1  0
  1  2  2  0
  1 13  1  0
  2 16  1  0
  3 13  1  0
  3  4  1  0
  3  5  1  0
 13 14  2  0
  4  5  1  0
 16 15  2  0
 14 15  1  0
  1 19  1  0
  2 20  1  0
  4 21  1  0
  4 22  1  0
  5 23  1  0
  5 24  1  0
  7 25  1  0
  7 26  1  0
  8 27  1  0
  8 28  1  0
  9 29  1  0
  9 30  1  0
 10 31  1  0
 11 32  1  0
 11 33  1  0
 14 34  1  0
 15 35  1  0
 16 36  1  0
 18 37  1  0
A    1
C4
A    2
C5
A    3
C6
A    4
C7
A    5
C8
A    6
C9
A    7
C10
A    8
C11
A    9
C12
A   10
C13
A   11
C14
A   12
O
A   13
C3
A   14
C2
A   15
C1
A   16
C
A   17
N
A   18
O1
M  END
