5DR3_5GL_A_408
     RDKit          3D

 28 29  0  0  0  0  0  0  0  0999 V2000
  -10.4510    2.5730    0.6540 C   0  0  0  0  0  0  0  0  0  0  0  0
  -10.8270    3.9380    0.7990 C   0  0  0  0  0  0  0  0  0  0  0  0
  -12.3120    3.4400    2.5250 C   0  0  0  0  0  0  0  0  0  0  0  0
  -11.7100    4.3220    1.6820 N   0  0  0  0  0  0  0  0  0  0  0  0
   -9.4930    1.8950   -0.2900 C   0  0  0  0  0  0  0  0  0  0  0  0
   -9.7620    0.4060   -0.0820 C   0  0  0  0  0  0  0  0  0  0  0  0
  -10.5670    0.2520    1.2020 C   0  0  0  0  0  0  0  0  0  0  0  0
  -13.1500    3.7890    3.3570 O   0  0  0  0  0  0  0  0  0  0  0  0
  -11.9510    2.0860    2.4200 N   0  0  0  0  0  0  0  0  0  0  0  0
  -12.5540    1.1450    3.3730 C   0  0  0  0  0  0  0  0  0  0  0  0
  -13.8150    0.4950    2.8380 C   0  0  0  0  0  0  0  0  0  0  0  0
  -14.3060   -0.5970    3.7590 C   0  0  0  0  0  0  0  0  0  0  0  0
  -10.0530    5.1120   -0.2370 S   0  0  0  0  0  0  0  0  0  0  0  0
  -11.0270    1.6530    1.4770 C   0  0  0  0  0  0  0  0  0  0  0  0
   -8.4520    2.1436   -0.0361 H   0  0  0  0  0  0  0  0  0  0  0  0
   -9.6341    2.2091   -1.3347 H   0  0  0  0  0  0  0  0  0  0  0  0
  -10.3344    0.0070   -0.9324 H   0  0  0  0  0  0  0  0  0  0  0  0
   -8.8148   -0.1487   -0.0100 H   0  0  0  0  0  0  0  0  0  0  0  0
  -11.4222   -0.4239    1.0546 H   0  0  0  0  0  0  0  0  0  0  0  0
   -9.9882   -0.1861    2.0285 H   0  0  0  0  0  0  0  0  0  0  0  0
  -11.8212    0.3566    3.6000 H   0  0  0  0  0  0  0  0  0  0  0  0
  -12.8309    1.7154    4.2718 H   0  0  0  0  0  0  0  0  0  0  0  0
  -14.5988    1.2607    2.7411 H   0  0  0  0  0  0  0  0  0  0  0  0
  -13.5849    0.0458    1.8606 H   0  0  0  0  0  0  0  0  0  0  0  0
  -14.1659   -0.2854    4.8046 H   0  0  0  0  0  0  0  0  0  0  0  0
  -15.3740   -0.7821    3.5715 H   0  0  0  0  0  0  0  0  0  0  0  0
  -13.7357   -1.5187    3.5715 H   0  0  0  0  0  0  0  0  0  0  0  0
   -9.4289    6.0586    0.5320 H   0  0  0  0  0  0  0  0  0  0  0  0
  5  6  1  0
  5  1  1  0
 13  2  1  0
  6  7  1  0
  1  2  1  0
  1 14  2  0
  2  4  2  0
  7 14  1  0
 14  9  1  0
  4  3  1  0
  9  3  1  0
  9 10  1  0
  3  8  2  0
 11 10  1  0
 11 12  1  0
  5 15  1  0
  5 16  1  0
  6 17  1  0
  6 18  1  0
  7 19  1  0
  7 20  1  0
 10 21  1  0
 10 22  1  0
 11 23  1  0
 11 24  1  0
 12 25  1  0
 12 26  1  0
 12 27  1  0
 13 28  1  0
A    1
C4
A    2
C5
A    3
C6
A    4
N1
A    5
C10
A    6
C11
A    7
C12
A    8
O
A    9
N
A   10
C2
A   11
C1
A   12
C
A   13
S
A   14
C3
M  END
