5DR4_5GQ_A_407
     RDKit          3D

 23 23  0  0  0  0  0  0  0  0999 V2000
    1.2560    4.3690    9.5150 C   0  0  0  0  0  0  0  0  0  0  0  0
   -1.4210    3.5790    9.4800 C   0  0  0  0  0  0  0  0  0  0  0  0
   -1.0510    4.6840    8.7300 N   0  0  0  0  0  0  0  0  0  0  0  0
   -2.7810    3.2790    9.5300 C   0  0  0  0  0  0  0  0  0  0  0  0
   -3.2050    2.1410   10.1890 C   0  0  0  0  0  0  0  0  0  0  0  0
    2.5330    4.1720    8.9430 O   0  0  0  0  0  0  0  0  0  0  0  0
    0.8890    3.0680   10.1850 C   0  0  0  0  0  0  0  0  0  0  0  0
   -0.5600    2.7440   10.1220 N   0  0  0  0  0  0  0  0  0  0  0  0
   -0.9790    1.6280   10.7550 C   0  0  0  0  0  0  0  0  0  0  0  0
   -2.3070    1.2900   10.8020 C   0  0  0  0  0  0  0  0  0  0  0  0
   -2.7630    0.0280   11.4900 C   0  0  0  0  0  0  0  0  0  0  0  0
    1.2910    5.1822   10.2549 H   0  0  0  0  0  0  0  0  0  0  0  0
    0.5146    4.6501    8.7526 H   0  0  0  0  0  0  0  0  0  0  0  0
   -0.0584    4.9498    8.6598 H   0  0  0  0  0  0  0  0  0  0  0  0
   -3.5125    3.9441    9.0478 H   0  0  0  0  0  0  0  0  0  0  0  0
   -4.2795    1.9083   10.2260 H   0  0  0  0  0  0  0  0  0  0  0  0
    3.2046    4.0684    9.6629 H   0  0  0  0  0  0  0  0  0  0  0  0
    1.4466    2.2567    9.6942 H   0  0  0  0  0  0  0  0  0  0  0  0
    1.1456    3.1744   11.2493 H   0  0  0  0  0  0  0  0  0  0  0  0
   -0.2397    0.9761   11.2433 H   0  0  0  0  0  0  0  0  0  0  0  0
   -2.7131    0.1662   12.5801 H   0  0  0  0  0  0  0  0  0  0  0  0
   -3.7990   -0.1962   11.1959 H   0  0  0  0  0  0  0  0  0  0  0  0
   -2.1096   -0.8066   11.1959 H   0  0  0  0  0  0  0  0  0  0  0  0
  3  2  2  3
  6  1  1  0
  2  4  1  0
  2  8  1  0
  1  7  1  0
  4  5  2  0
  8  7  1  0
  8  9  1  0
  5 10  1  0
  9 10  2  0
 10 11  1  0
  1 12  1  0
  1 13  1  0
  3 14  1  0
  4 15  1  0
  5 16  1  0
  6 17  1  0
  7 18  1  0
  7 19  1  0
  9 20  1  0
 11 21  1  0
 11 22  1  0
 11 23  1  0
A    1
C4
A    2
C6
A    3
N1
A    4
C7
A    5
C8
A    6
O
A    7
C3
A    8
N
A    9
C2
A   10
C1
A   11
C
M  END
