5DR7_5HJ_A_406
     RDKit          3D

 32 34  0  0  0  0  0  0  0  0999 V2000
  -10.6900    1.4110    0.5150 C   0  0  0  0  0  0  0  0  0  0  0  0
  -11.3350    0.9460   -0.6210 C   0  0  0  0  0  0  0  0  0  0  0  0
  -12.4510    1.5890   -1.1190 C   0  0  0  0  0  0  0  0  0  0  0  0
   -9.4680    0.7130    1.0530 C   0  0  0  0  0  0  0  0  0  0  0  0
   -8.4290    0.6360    3.2490 C   0  0  0  0  0  0  0  0  0  0  0  0
   -7.3020    1.2370    2.4540 C   0  0  0  0  0  0  0  0  0  0  0  0
  -10.7920   -0.1410    3.0210 C   0  0  0  0  0  0  0  0  0  0  0  0
  -11.3370   -1.3840    2.4100 C   0  0  0  0  0  0  0  0  0  0  0  0
  -10.7280   -1.4160    3.7810 C   0  0  0  0  0  0  0  0  0  0  0  0
   -8.3390    0.3530    4.4320 O   0  0  0  0  0  0  0  0  0  0  0  0
   -9.5330    0.4240    2.4850 N   0  0  0  0  0  0  0  0  0  0  0  0
   -7.9660    1.7460    0.8670 S   0  0  0  0  0  0  0  0  0  0  0  0
  -11.2010    2.5340    1.1520 C   0  0  0  0  0  0  0  0  0  0  0  0
  -12.3210    3.1830    0.6660 C   0  0  0  0  0  0  0  0  0  0  0  0
  -12.9360    2.7130   -0.4760 C   0  0  0  0  0  0  0  0  0  0  0  0
  -14.0100    3.3600   -1.0180 O   0  0  0  0  0  0  0  0  0  0  0  0
  -14.4890    4.5170   -0.3470 C   0  0  0  0  0  0  0  0  0  0  0  0
  -10.9518    0.0512   -1.1333 H   0  0  0  0  0  0  0  0  0  0  0  0
  -12.9513    1.2092   -2.0220 H   0  0  0  0  0  0  0  0  0  0  0  0
   -9.4278   -0.2180    0.4685 H   0  0  0  0  0  0  0  0  0  0  0  0
   -6.5080    0.4903    2.3059 H   0  0  0  0  0  0  0  0  0  0  0  0
   -6.8713    2.0982    2.9859 H   0  0  0  0  0  0  0  0  0  0  0  0
  -11.1955    0.8626    3.2207 H   0  0  0  0  0  0  0  0  0  0  0  0
  -12.4231   -1.5069    2.2864 H   0  0  0  0  0  0  0  0  0  0  0  0
  -11.1698   -1.9290    1.4692 H   0  0  0  0  0  0  0  0  0  0  0  0
  -11.3671   -1.5633    4.6641 H   0  0  0  0  0  0  0  0  0  0  0  0
   -9.9277   -1.9953    4.2646 H   0  0  0  0  0  0  0  0  0  0  0  0
  -10.7066    2.9136    2.0583 H   0  0  0  0  0  0  0  0  0  0  0  0
  -12.7186    4.0671    1.1858 H   0  0  0  0  0  0  0  0  0  0  0  0
  -14.4253    4.3630    0.7403 H   0  0  0  0  0  0  0  0  0  0  0  0
  -13.8765    5.3855   -0.6309 H   0  0  0  0  0  0  0  0  0  0  0  0
  -15.5362    4.6983   -0.6309 H   0  0  0  0  0  0  0  0  0  0  0  0
  3  2  2  0
  3 15  1  0
 16 15  1  0
 16 17  1  0
  2  1  1  0
 15 14  2  0
  1  4  1  0
  1 13  2  0
 14 13  1  0
 12  4  1  0
 12  6  1  0
  4 11  1  0
  8  7  1  0
  8  9  1  0
  6  5  1  0
 11  7  1  0
 11  5  1  0
  7  9  1  0
  5 10  2  0
  2 18  1  0
  3 19  1  0
  4 20  1  0
  6 21  1  0
  6 22  1  0
  7 23  1  0
  8 24  1  0
  8 25  1  0
  9 26  1  0
  9 27  1  0
 13 28  1  0
 14 29  1  0
 17 30  1  0
 17 31  1  0
 17 32  1  0
A    1
C4
A    2
C5
A    3
C6
A    4
C7
A    5
C8
A    6
C9
A    7
C10
A    8
C11
A    9
C12
A   10
O1
A   11
N
A   12
S
A   13
C3
A   14
C2
A   15
C1
A   16
O
A   17
C
M  END
