5DRB_5FJ_A_501
     RDKit          3D

 57 60  0  0  0  0  0  0  0  0999 V2000
   -3.0370    1.4300   19.7190 C   0  0  0  0  0  0  0  0  0  0  0  0
   11.1330    1.8440   21.6180 C   0  0  0  0  0  0  0  0  0  0  0  0
   12.8770    3.4440   22.4530 C   0  0  0  0  0  0  0  0  0  0  0  0
   14.4390    3.4770   22.4410 C   0  0  0  0  0  0  0  0  0  0  0  0
   12.4190    4.7290   21.7090 C   0  0  0  0  0  0  0  0  0  0  0  0
    2.6830    1.5150   17.9820 C   0  0  0  0  0  0  0  0  0  0  0  0
    4.4100    1.7230   19.5610 C   0  0  0  0  0  0  0  0  0  0  0  0
    3.4790    1.6540   20.5840 C   0  0  0  0  0  0  0  0  0  0  0  0
    2.1260    1.5140   20.3100 C   0  0  0  0  0  0  0  0  0  0  0  0
    6.2810    1.9140   21.1590 C   0  0  0  0  0  0  0  0  0  0  0  0
    7.4380    0.8880   21.2670 C   0  0  0  0  0  0  0  0  0  0  0  0
    8.4870    1.0850   20.1410 C   0  0  0  0  0  0  0  0  0  0  0  0
    7.7770    0.8940   18.7840 C   0  0  0  0  0  0  0  0  0  0  0  0
   -3.2570    2.7540   19.9270 F   0  0  0  0  0  0  0  0  0  0  0  0
   -4.0690    0.8940   19.0580 F   0  0  0  0  0  0  0  0  0  0  0  0
   -2.9190    0.7980   20.9220 F   0  0  0  0  0  0  0  0  0  0  0  0
   -1.7740    1.2290   18.9420 C   0  0  0  0  0  0  0  0  0  0  0  0
   -1.6150    0.8360   17.7450 N   0  0  0  0  0  0  0  0  0  0  0  0
   -0.2050    0.8470   17.5490 N   0  0  0  0  0  0  0  0  0  0  0  0
    0.2630    1.2650   18.6550 C   0  0  0  0  0  0  0  0  0  0  0  0
   -0.6490    1.5160   19.5820 O   0  0  0  0  0  0  0  0  0  0  0  0
    1.7200    1.4390   18.9740 C   0  0  0  0  0  0  0  0  0  0  0  0
    3.9860    1.6560   18.2790 N   0  0  0  0  0  0  0  0  0  0  0  0
    5.7400    1.8630   19.7930 N   0  0  0  0  0  0  0  0  0  0  0  0
    6.6800    1.9830   18.6820 C   0  0  0  0  0  0  0  0  0  0  0  0
    9.6860    0.2400   20.2790 N   0  0  0  0  0  0  0  0  0  0  0  0
    9.8180   -0.9590   19.7850 C   0  0  0  0  0  0  0  0  0  0  0  0
   10.9560   -1.4020   20.0590 N   0  0  0  0  0  0  0  0  0  0  0  0
   11.6790   -0.4330   20.8060 C   0  0  0  0  0  0  0  0  0  0  0  0
   10.8100    0.5780   20.9110 C   0  0  0  0  0  0  0  0  0  0  0  0
   10.2410    2.5410   22.0570 O   0  0  0  0  0  0  0  0  0  0  0  0
   12.4290    2.2100   21.7770 N   0  0  0  0  0  0  0  0  0  0  0  0
   12.4280    3.5180   23.9450 C   0  0  0  0  0  0  0  0  0  0  0  0
   14.8135    3.4849   23.4752 H   0  0  0  0  0  0  0  0  0  0  0  0
   14.8206    2.5867   21.9197 H   0  0  0  0  0  0  0  0  0  0  0  0
   14.7826    4.3826   21.9197 H   0  0  0  0  0  0  0  0  0  0  0  0
   12.1442    5.5000   22.4439 H   0  0  0  0  0  0  0  0  0  0  0  0
   13.2403    5.0999   21.0782 H   0  0  0  0  0  0  0  0  0  0  0  0
   11.5483    4.4968   21.0782 H   0  0  0  0  0  0  0  0  0  0  0  0
    2.3747    1.4587   16.9276 H   0  0  0  0  0  0  0  0  0  0  0  0
    3.8172    1.7110   21.6292 H   0  0  0  0  0  0  0  0  0  0  0  0
    1.3894    1.4632   21.1254 H   0  0  0  0  0  0  0  0  0  0  0  0
    6.6600    2.9247   21.3707 H   0  0  0  0  0  0  0  0  0  0  0  0
    5.4924    1.6716   21.8866 H   0  0  0  0  0  0  0  0  0  0  0  0
    7.0219   -0.1276   21.1928 H   0  0  0  0  0  0  0  0  0  0  0  0
    7.9405    1.0386   22.2338 H   0  0  0  0  0  0  0  0  0  0  0  0
    8.8867    2.1071   20.2152 H   0  0  0  0  0  0  0  0  0  0  0  0
    7.3209   -0.1058   18.7350 H   0  0  0  0  0  0  0  0  0  0  0  0
    8.4929    0.9827   17.9535 H   0  0  0  0  0  0  0  0  0  0  0  0
    7.1514    2.9764   18.7115 H   0  0  0  0  0  0  0  0  0  0  0  0
    6.1338    1.8523   17.7362 H   0  0  0  0  0  0  0  0  0  0  0  0
    9.0475   -1.4986   19.2148 H   0  0  0  0  0  0  0  0  0  0  0  0
   12.7034   -0.4986   21.2013 H   0  0  0  0  0  0  0  0  0  0  0  0
   13.1528    1.5822   21.3991 H   0  0  0  0  0  0  0  0  0  0  0  0
   13.3012    3.3741   24.5983 H   0  0  0  0  0  0  0  0  0  0  0  0
   11.9791    4.5022   24.1444 H   0  0  0  0  0  0  0  0  0  0  0  0
   11.6870    2.7299   24.1444 H   0  0  0  0  0  0  0  0  0  0  0  0
 19 18  1  0
 19 20  2  0
 18 17  2  0
  6 23  2  0
  6 22  1  0
 23  7  1  0
 20 22  1  0
 20 21  1  0
 25 13  1  0
 25 24  1  0
 13 12  1  0
 17 21  1  0
 17  1  1  0
 22  9  2  0
 15  1  1  0
  7 24  1  0
  7  8  2  0
  1 14  1  0
  1 16  1  0
 27 28  2  0
 27 26  1  0
 24 10  1  0
 28 29  1  0
 12 26  1  0
 12 11  1  0
 26 30  1  0
  9  8  1  0
 29 30  2  0
 30  2  1  0
 10 11  1  0
  2 32  1  0
  2 31  2  0
  5  3  1  0
 32  3  1  0
  4  3  1  0
  3 33  1  0
  4 34  1  0
  4 35  1  0
  4 36  1  0
  5 37  1  0
  5 38  1  0
  5 39  1  0
  6 40  1  0
  8 41  1  0
  9 42  1  0
 10 43  1  0
 10 44  1  0
 11 45  1  0
 11 46  1  0
 12 47  1  0
 13 48  1  0
 13 49  1  0
 25 50  1  0
 25 51  1  0
 27 52  1  0
 29 53  1  0
 32 54  1  0
 33 55  1  0
 33 56  1  0
 33 57  1  0
A    1
C2
A    2
C41
A    3
C45
A    4
C46
A    5
C50
A    6
C11
A    7
C14
A    8
C15
A    9
C17
A   10
C20
A   11
C23
A   12
C26
A   13
C28
A   14
F1
A   15
F3
A   16
F4
A   17
C5
A   18
N6
A   19
N7
A   20
C8
A   21
O9
A   22
C10
A   23
N13
A   24
N19
A   25
C31
A   26
N34
A   27
C35
A   28
N37
A   29
C38
A   30
C40
A   31
O42
A   32
N43
A   33
C54
M  END
