5DRC_5ER_A_805
     RDKit          3D

 26 27  0  0  0  0  0  0  0  0999 V2000
   34.2460   76.4970   63.5650 C   0  0  0  0  0  0  0  0  0  0  0  0
   31.2890   75.0610   61.8890 C   0  0  0  0  0  0  0  0  0  0  0  0
   31.1530   76.6580   60.0450 C   0  0  0  0  0  0  0  0  0  0  0  0
   32.9650   76.9330   61.7150 C   0  0  0  0  0  0  0  0  0  0  0  0
   37.8070   79.8700   65.2750 O   0  0  0  0  0  0  0  0  0  0  0  0
   38.0310   80.1350   64.0550 C   0  0  0  0  0  0  0  0  0  0  0  0
   39.1850   80.3620   63.5700 O   0  0  0  0  0  0  0  0  0  0  0  0
   36.8250   80.1620   63.0660 C   0  0  0  0  0  0  0  0  0  0  0  0
   36.9160   80.9280   61.9260 O   0  0  0  0  0  0  0  0  0  0  0  0
   35.7070   79.3910   63.2540 C   0  0  0  0  0  0  0  0  0  0  0  0
   35.0680   78.5790   62.2090 C   0  0  0  0  0  0  0  0  0  0  0  0
   35.3150   78.8460   61.0050 O   0  0  0  0  0  0  0  0  0  0  0  0
   34.1360   77.3960   62.4870 C   0  0  0  0  0  0  0  0  0  0  0  0
   33.2230   75.5240   63.5010 N   0  0  0  0  0  0  0  0  0  0  0  0
   32.4270   75.7650   62.3710 C   0  0  0  0  0  0  0  0  0  0  0  0
   30.6470   75.5140   60.7220 C   0  0  0  0  0  0  0  0  0  0  0  0
   32.2880   77.3420   60.5420 C   0  0  0  0  0  0  0  0  0  0  0  0
   35.0187   76.5451   64.3464 H   0  0  0  0  0  0  0  0  0  0  0  0
   30.9157   74.1739   62.4217 H   0  0  0  0  0  0  0  0  0  0  0  0
   30.6588   77.0136   59.1289 H   0  0  0  0  0  0  0  0  0  0  0  0
   38.2519   80.3964   65.9857 H   0  0  0  0  0  0  0  0  0  0  0  0
   37.0325   81.9086   61.9965 H   0  0  0  0  0  0  0  0  0  0  0  0
   35.2567   79.3794   64.2575 H   0  0  0  0  0  0  0  0  0  0  0  0
   33.0838   74.7592   64.1768 H   0  0  0  0  0  0  0  0  0  0  0  0
   29.7612   74.9879   60.3364 H   0  0  0  0  0  0  0  0  0  0  0  0
   32.6570   78.2232   59.9967 H   0  0  0  0  0  0  0  0  0  0  0  0
  3 17  1  0
  3 16  2  0
 17  4  2  0
 16  2  1  0
 12 11  2  0
  4 15  1  0
  4 13  1  0
  2 15  2  0
  9  8  1  0
 11 13  1  0
 11 10  1  0
 15 14  1  0
 13  1  2  0
  8 10  2  0
  8  6  1  0
 14  1  1  0
  7  6  2  0
  6  5  1  0
  1 18  1  0
  2 19  1  0
  3 20  1  0
  5 21  1  0
  9 22  1  0
 10 23  1  0
 14 24  1  0
 16 25  1  0
 17 26  1  0
A    1
C10
A    2
C13
A    3
C15
A    4
C17
A    5
O01
A    6
C02
A    7
O03
A    8
C04
A    9
O05
A   10
C06
A   11
C07
A   12
O08
A   13
C09
A   14
N11
A   15
C12
A   16
C14
A   17
C16
M  END
