5DRT_5EG_A_401
     RDKit          3D

 44 46  0  0  0  0  0  0  0  0999 V2000
  -39.0980    6.7000   15.6520 C   0  0  0  0  0  0  0  0  0  0  0  0
  -39.7090    7.7160   14.7190 C   0  0  0  0  0  0  0  0  0  0  0  0
  -39.2570    6.7810   16.8560 O   0  0  0  0  0  0  0  0  0  0  0  0
  -36.6340   10.5290   14.5850 C   0  0  0  0  0  0  0  0  0  0  0  0
  -35.6240   10.6480   15.5700 C   0  0  0  0  0  0  0  0  0  0  0  0
  -34.2770   10.8320   15.1750 C   0  0  0  0  0  0  0  0  0  0  0  0
  -33.9080   10.8520   13.8120 C   0  0  0  0  0  0  0  0  0  0  0  0
  -34.8990   10.7290   12.8270 C   0  0  0  0  0  0  0  0  0  0  0  0
  -36.2380   10.5690   13.2320 C   0  0  0  0  0  0  0  0  0  0  0  0
  -37.1020    6.0440   13.0950 C   0  0  0  0  0  0  0  0  0  0  0  0
  -35.8040    6.2680   11.0010 C   0  0  0  0  0  0  0  0  0  0  0  0
  -35.1230    5.3140   10.2290 C   0  0  0  0  0  0  0  0  0  0  0  0
  -34.0280    5.6680    9.4350 C   0  0  0  0  0  0  0  0  0  0  0  0
  -33.6080    6.9960    9.4490 C   0  0  0  0  0  0  0  0  0  0  0  0
  -34.2490    7.9440   10.2490 C   0  0  0  0  0  0  0  0  0  0  0  0
  -35.3550    7.5900   11.0280 C   0  0  0  0  0  0  0  0  0  0  0  0
  -40.4990    8.7300   15.4110 N   0  0  0  0  0  0  0  0  0  0  0  0
  -41.8410    8.6550   15.5720 N   0  0  0  0  0  0  0  0  0  0  0  0
  -42.2200    9.7530   16.2540 N   0  0  0  0  0  0  0  0  0  0  0  0
  -41.0660   10.5370   16.5170 N   0  0  0  0  0  0  0  0  0  0  0  0
  -40.1260    9.8600   15.9860 C   0  0  0  0  0  0  0  0  0  0  0  0
  -38.7020   10.3900   16.1100 C   0  0  0  0  0  0  0  0  0  0  0  0
  -38.0240   10.3750   14.8300 O   0  0  0  0  0  0  0  0  0  0  0  0
  -37.4800   10.3990   12.0290 Cl  0  0  0  0  0  0  0  0  0  0  0  0
  -38.4120    5.6540   15.1730 N   0  0  0  0  0  0  0  0  0  0  0  0
  -38.1280    5.4450   13.7610 N   0  0  0  0  0  0  0  0  0  0  0  0
  -36.4070    6.8390   13.7130 O   0  0  0  0  0  0  0  0  0  0  0  0
  -36.8790    5.7840   11.7860 N   0  0  0  0  0  0  0  0  0  0  0  0
  -32.2440    7.4870    8.4930 Cl  0  0  0  0  0  0  0  0  0  0  0  0
  -40.3621    7.1892   14.0077 H   0  0  0  0  0  0  0  0  0  0  0  0
  -38.8813    8.2351   14.2135 H   0  0  0  0  0  0  0  0  0  0  0  0
  -35.8847   10.5977   16.6375 H   0  0  0  0  0  0  0  0  0  0  0  0
  -33.5024   10.9620   15.9451 H   0  0  0  0  0  0  0  0  0  0  0  0
  -32.8519   10.9631   13.5251 H   0  0  0  0  0  0  0  0  0  0  0  0
  -34.6354   10.7570   11.7594 H   0  0  0  0  0  0  0  0  0  0  0  0
  -35.4576    4.2663   10.2490 H   0  0  0  0  0  0  0  0  0  0  0  0
  -33.5125    4.9186    8.8164 H   0  0  0  0  0  0  0  0  0  0  0  0
  -33.8801    8.9801   10.2666 H   0  0  0  0  0  0  0  0  0  0  0  0
  -35.8629    8.3404   11.6517 H   0  0  0  0  0  0  0  0  0  0  0  0
  -38.1449    9.7594   16.8185 H   0  0  0  0  0  0  0  0  0  0  0  0
  -38.7471   11.4291   16.4680 H   0  0  0  0  0  0  0  0  0  0  0  0
  -38.0643    4.9550   15.8449 H   0  0  0  0  0  0  0  0  0  0  0  0
  -38.7396    4.8057   13.2337 H   0  0  0  0  0  0  0  0  0  0  0  0
  -37.5595    5.1726   11.3128 H   0  0  0  0  0  0  0  0  0  0  0  0
 29 14  1  0
 13 14  1  0
 13 12  2  0
 14 15  2  0
 12 11  1  0
 15 16  1  0
 11 16  2  0
 11 28  1  0
 28 10  1  0
 24  9  1  0
  8  9  2  0
  8  7  1  0
 10 27  2  0
 10 26  1  0
  9  4  1  0
 26 25  1  0
  7  6  2  0
  4 23  1  0
  4  5  2  0
  2 17  1  0
  2  1  1  0
 23 22  1  0
 25  1  1  0
  6  5  1  0
 17 18  1  0
 17 21  1  0
 18 19  2  0
  1  3  2  0
 21 22  1  0
 21 20  2  0
 19 20  1  0
  2 30  1  0
  2 31  1  0
  5 32  1  0
  6 33  1  0
  7 34  1  0
  8 35  1  0
 12 36  1  0
 13 37  1  0
 15 38  1  0
 16 39  1  0
 22 40  1  0
 22 41  1  0
 25 42  1  0
 26 43  1  0
 28 44  1  0
A    1
C2
A    2
C3
A    3
O1
A    4
C11
A    5
C12
A    6
C13
A    7
C14
A    8
C15
A    9
C16
A   10
C20
A   11
C23
A   12
C24
A   13
C25
A   14
C26
A   15
C28
A   16
C29
A   17
N4
A   18
N5
A   19
N6
A   20
N7
A   21
C8
A   22
C9
A   23
O10
A   24
CL1
A   25
N18
A   26
N19
A   27
O21
A   28
N22
A   29
CL2
M  END
