5DRY_5EK_A_402
     RDKit          3D

 54 58  0  0  0  0  0  0  0  0999 V2000
   39.1710   -6.4360   14.7720 C   0  0  0  0  0  0  0  0  0  0  0  0
   39.9470   -7.2690   13.7930 C   0  0  0  0  0  0  0  0  0  0  0  0
   39.2920   -6.5680   15.9840 O   0  0  0  0  0  0  0  0  0  0  0  0
   37.0900   -5.8590   12.2190 C   0  0  0  0  0  0  0  0  0  0  0  0
   35.8140   -6.0110   10.1010 C   0  0  0  0  0  0  0  0  0  0  0  0
   35.2910   -7.3110   10.1600 C   0  0  0  0  0  0  0  0  0  0  0  0
   34.1940   -7.5920    9.3060 C   0  0  0  0  0  0  0  0  0  0  0  0
   33.6690   -6.6170    8.4710 C   0  0  0  0  0  0  0  0  0  0  0  0
   34.1800   -5.3220    8.4020 C   0  0  0  0  0  0  0  0  0  0  0  0
   35.2500   -5.0410    9.2520 C   0  0  0  0  0  0  0  0  0  0  0  0
   32.5610   -7.3230    7.7460 C   0  0  0  0  0  0  0  0  0  0  0  0
   32.5480   -8.5700    8.2100 C   0  0  0  0  0  0  0  0  0  0  0  0
   33.6460   -9.9220    9.7890 C   0  0  0  0  0  0  0  0  0  0  0  0
   38.4760   -9.7470   15.0160 C   0  0  0  0  0  0  0  0  0  0  0  0
   37.9560   -9.7140   16.3300 C   0  0  0  0  0  0  0  0  0  0  0  0
   36.5780   -9.8900   16.5730 C   0  0  0  0  0  0  0  0  0  0  0  0
   35.6910  -10.0900   15.4990 C   0  0  0  0  0  0  0  0  0  0  0  0
   36.1780  -10.1270   14.1810 C   0  0  0  0  0  0  0  0  0  0  0  0
   37.5590   -9.9470   13.9410 C   0  0  0  0  0  0  0  0  0  0  0  0
   40.5480   -8.4060   14.4540 N   0  0  0  0  0  0  0  0  0  0  0  0
   41.8850   -8.5510   14.6230 N   0  0  0  0  0  0  0  0  0  0  0  0
   42.0730   -9.7470   15.2140 N   0  0  0  0  0  0  0  0  0  0  0  0
   40.7920  -10.3470   15.4080 N   0  0  0  0  0  0  0  0  0  0  0  0
   39.9770   -9.5090   14.8930 C   0  0  0  0  0  0  0  0  0  0  0  0
   38.3420   -5.5070   14.3030 N   0  0  0  0  0  0  0  0  0  0  0  0
   38.1060   -5.2800   12.8940 N   0  0  0  0  0  0  0  0  0  0  0  0
   36.4000   -6.6830   12.8220 O   0  0  0  0  0  0  0  0  0  0  0  0
   36.8790   -5.5490   10.9120 N   0  0  0  0  0  0  0  0  0  0  0  0
   33.5050   -8.7450    9.1010 N   0  0  0  0  0  0  0  0  0  0  0  0
   38.0480  -10.0090   12.2650 Cl  0  0  0  0  0  0  0  0  0  0  0  0
   34.7770  -10.7710    9.7810 C   0  0  0  0  0  0  0  0  0  0  0  0
   34.8610  -11.9520   10.5140 C   0  0  0  0  0  0  0  0  0  0  0  0
   33.7770  -12.2620   11.3110 C   0  0  0  0  0  0  0  0  0  0  0  0
   32.6390  -11.4340   11.3600 C   0  0  0  0  0  0  0  0  0  0  0  0
   32.5630  -10.2610   10.6180 C   0  0  0  0  0  0  0  0  0  0  0  0
   36.1640  -10.4500    8.8210 Cl  0  0  0  0  0  0  0  0  0  0  0  0
   40.7391   -6.6528   13.3425 H   0  0  0  0  0  0  0  0  0  0  0  0
   39.2595   -7.6341   13.0158 H   0  0  0  0  0  0  0  0  0  0  0  0
   35.7098   -8.0731   10.8336 H   0  0  0  0  0  0  0  0  0  0  0  0
   33.7646   -4.5669    7.7184 H   0  0  0  0  0  0  0  0  0  0  0  0
   35.6682   -4.0236    9.2587 H   0  0  0  0  0  0  0  0  0  0  0  0
   31.8933   -6.8953    6.9836 H   0  0  0  0  0  0  0  0  0  0  0  0
   31.8372   -9.3478    7.8942 H   0  0  0  0  0  0  0  0  0  0  0  0
   38.6376   -9.5482   17.1773 H   0  0  0  0  0  0  0  0  0  0  0  0
   36.1957   -9.8709   17.6043 H   0  0  0  0  0  0  0  0  0  0  0  0
   34.6154  -10.2175   15.6911 H   0  0  0  0  0  0  0  0  0  0  0  0
   35.4880  -10.2951   13.3410 H   0  0  0  0  0  0  0  0  0  0  0  0
   37.8401   -4.9163   14.9813 H   0  0  0  0  0  0  0  0  0  0  0  0
   38.7405   -4.6493   12.3835 H   0  0  0  0  0  0  0  0  0  0  0  0
   37.5603   -4.9164   10.4686 H   0  0  0  0  0  0  0  0  0  0  0  0
   35.7452  -12.6042   10.4608 H   0  0  0  0  0  0  0  0  0  0  0  0
   33.8029  -13.1766   11.9216 H   0  0  0  0  0  0  0  0  0  0  0  0
   31.7915  -11.7218   11.9995 H   0  0  0  0  0  0  0  0  0  0  0  0
   31.6760   -9.6133   10.6783 H   0  0  0  0  0  0  0  0  0  0  0  0
 11 12  2  0
 11  8  1  0
 12 29  1  0
  9  8  2  0
  9 10  1  0
  8  7  1  0
 36 31  1  0
 29  7  1  0
 29 13  1  0
 10  5  2  0
  7  6  2  0
 31 13  2  0
 31 32  1  0
 13 35  1  0
  5  6  1  0
  5 28  1  0
 32 33  2  0
 35 34  2  0
 28  4  1  0
 33 34  1  0
  4 27  2  0
  4 26  1  0
 30 19  1  0
 26 25  1  0
  2 20  1  0
  2  1  1  0
 19 18  2  0
 19 14  1  0
 18 17  1  0
 25  1  1  0
 20 21  1  0
 20 24  1  0
 21 22  2  0
  1  3  2  0
 24 14  1  0
 24 23  2  0
 14 15  2  0
 22 23  1  0
 17 16  2  0
 15 16  1  0
  2 37  1  0
  2 38  1  0
  6 39  1  0
  9 40  1  0
 10 41  1  0
 11 42  1  0
 12 43  1  0
 15 44  1  0
 16 45  1  0
 17 46  1  0
 18 47  1  0
 25 48  1  0
 26 49  1  0
 28 50  1  0
 32 51  1  0
 33 52  1  0
 34 53  1  0
 35 54  1  0
A    1
C2
A    2
C3
A    3
O1
A    4
C11
A    5
C14
A    6
C15
A    7
C16
A    8
C17
A    9
C18
A   10
C19
A   11
C20
A   12
C21
A   13
C23
A   14
C24
A   15
C25
A   16
C26
A   17
C27
A   18
C28
A   19
C29
A   20
N4
A   21
N5
A   22
N6
A   23
N7
A   24
C8
A   25
N9
A   26
N10
A   27
O12
A   28
N13
A   29
N22
A   30
CL3
A   31
C31
A   32
C32
A   33
C33
A   34
C34
A   35
C35
A   36
CL6
M  END
