4DAJ_0HK_A_2000
     RDKit          3D

 48 52  0  0  0  0  0  0  0  0999 V2000
  -15.9420   -7.1100  -43.2580 C   0  0  0  0  0  0  0  0  0  0  0  0
  -16.5330   -7.8900  -43.9960 O   0  0  0  0  0  0  0  0  0  0  0  0
  -16.4910   -5.4430  -41.5700 C   0  0  0  0  0  0  0  0  0  0  0  0
  -15.4810   -4.7300  -43.6800 C   0  0  0  0  0  0  0  0  0  0  0  0
  -16.1000   -6.2750  -40.5450 C   0  0  0  0  0  0  0  0  0  0  0  0
  -16.2070   -5.8400  -39.2580 C   0  0  0  0  0  0  0  0  0  0  0  0
  -16.6940   -4.5770  -39.0290 C   0  0  0  0  0  0  0  0  0  0  0  0
  -14.3370   -4.2190  -43.1210 C   0  0  0  0  0  0  0  0  0  0  0  0
  -13.5840   -3.3370  -43.8190 C   0  0  0  0  0  0  0  0  0  0  0  0
  -13.9890   -2.9620  -45.0750 C   0  0  0  0  0  0  0  0  0  0  0  0
  -11.2350   -6.2350  -42.7090 O   0  0  0  0  0  0  0  0  0  0  0  0
  -14.7980   -7.5050  -42.5340 O   0  0  0  0  0  0  0  0  0  0  0  0
  -17.6960   -5.6300  -43.6120 O   0  0  0  0  0  0  0  0  0  0  0  0
  -17.0080   -3.9860  -40.6920 S   0  0  0  0  0  0  0  0  0  0  0  0
  -15.5050   -3.9110  -45.2650 S   0  0  0  0  0  0  0  0  0  0  0  0
  -11.3580  -10.3660  -42.8570 C   0  0  0  0  0  0  0  0  0  0  0  0
  -12.0070   -8.4380  -41.7030 C   0  0  0  0  0  0  0  0  0  0  0  0
  -13.3640   -9.0190  -41.4780 C   0  0  0  0  0  0  0  0  0  0  0  0
  -14.2310   -8.7870  -42.6860 C   0  0  0  0  0  0  0  0  0  0  0  0
  -13.5030   -8.8480  -44.0110 C   0  0  0  0  0  0  0  0  0  0  0  0
  -12.1000   -8.3370  -43.8500 C   0  0  0  0  0  0  0  0  0  0  0  0
  -12.2680   -6.8770  -43.4480 C   0  0  0  0  0  0  0  0  0  0  0  0
  -12.2240   -6.9590  -41.9800 C   0  0  0  0  0  0  0  0  0  0  0  0
   -9.9480   -8.5620  -42.8820 C   0  0  0  0  0  0  0  0  0  0  0  0
  -16.4420   -5.7050  -43.0490 C   0  0  0  0  0  0  0  0  0  0  0  0
  -11.3490   -8.9460  -42.8270 N   0  0  0  0  0  0  0  0  0  0  0  0
  -15.7060   -7.2788  -40.7624 H   0  0  0  0  0  0  0  0  0  0  0  0
  -15.9093   -6.4874  -38.4200 H   0  0  0  0  0  0  0  0  0  0  0  0
  -16.8512   -4.0602  -38.0708 H   0  0  0  0  0  0  0  0  0  0  0  0
  -14.0328   -4.5250  -42.1092 H   0  0  0  0  0  0  0  0  0  0  0  0
  -12.6602   -2.9266  -43.3852 H   0  0  0  0  0  0  0  0  0  0  0  0
  -13.5123   -2.2649  -45.7799 H   0  0  0  0  0  0  0  0  0  0  0  0
  -18.3776   -5.5892  -42.8952 H   0  0  0  0  0  0  0  0  0  0  0  0
  -11.3605  -10.7545  -41.8279 H   0  0  0  0  0  0  0  0  0  0  0  0
  -12.2584  -10.7159  -43.3832 H   0  0  0  0  0  0  0  0  0  0  0  0
  -10.4621  -10.7273  -43.3832 H   0  0  0  0  0  0  0  0  0  0  0  0
  -11.3933   -8.6708  -40.8203 H   0  0  0  0  0  0  0  0  0  0  0  0
  -13.8246   -8.5395  -40.6017 H   0  0  0  0  0  0  0  0  0  0  0  0
  -13.2689  -10.1011  -41.3048 H   0  0  0  0  0  0  0  0  0  0  0  0
  -14.9738   -9.5974  -42.7254 H   0  0  0  0  0  0  0  0  0  0  0  0
  -14.0344   -8.2275  -44.7476 H   0  0  0  0  0  0  0  0  0  0  0  0
  -13.4698   -9.8916  -44.3571 H   0  0  0  0  0  0  0  0  0  0  0  0
  -11.5581   -8.5336  -44.7869 H   0  0  0  0  0  0  0  0  0  0  0  0
  -12.8545   -6.4958  -44.2969 H   0  0  0  0  0  0  0  0  0  0  0  0
  -12.7763   -6.6785  -41.0710 H   0  0  0  0  0  0  0  0  0  0  0  0
   -9.5568   -8.4548  -41.8595 H   0  0  0  0  0  0  0  0  0  0  0  0
   -9.3761   -9.3365  -43.4140 H   0  0  0  0  0  0  0  0  0  0  0  0
   -9.8510   -7.6041  -43.4140 H   0  0  0  0  0  0  0  0  0  0  0  0
 15 10  1  0
 15  4  1  0
 10  9  2  0
 20 21  1  0
 20 19  1  0
  2  1  2  0
 21 22  1  0
 21 26  1  0
  9  8  1  0
  4  8  2  0
  4 25  1  0
 13 25  1  0
 22 11  1  0
 22 23  1  0
  1 25  1  0
  1 12  1  0
 25  3  1  0
 24 26  1  0
 16 26  1  0
 26 17  1  0
 11 23  1  0
 19 12  1  0
 19 18  1  0
 23 17  1  0
 17 18  1  0
  3 14  1  0
  3  5  2  0
 14  7  1  0
  5  6  1  0
  6  7  2  0
  5 27  1  0
  6 28  1  0
  7 29  1  0
  8 30  1  0
  9 31  1  0
 10 32  1  0
 13 33  1  0
 16 34  1  0
 16 35  1  0
 16 36  1  0
 17 37  1  0
 18 38  1  0
 18 39  1  0
 19 40  1  0
 20 41  1  0
 20 42  1  0
 21 43  1  0
 22 44  1  0
 23 45  1  0
 24 46  1  0
 24 47  1  0
 24 48  1  0
M  CHG  1  26   1
A    1
C28
A    2
O29
A    3
C31
A    4
C32
A    5
C34
A    6
C35
A    7
C36
A    8
C41
A    9
C42
A   10
C43
A   11
O10
A   12
O11
A   13
O33
A   14
S37
A   15
S44
A   16
C1
A   17
C3
A   18
C4
A   19
C5
A   20
C6
A   21
C7
A   22
C8
A   23
C9
A   24
C12
A   25
C30
A   26
N2
M  END
