5DSX_5EW_A_1002
     RDKit          3D

 59 63  0  0  0  0  0  0  0  0999 V2000
   37.3050   -6.1080   12.0800 C   0  0  0  0  0  0  0  0  0  0  0  0
   35.6020   -5.9670   10.2740 C   0  0  0  0  0  0  0  0  0  0  0  0
   33.3650   -9.8650   10.2540 C   0  0  0  0  0  0  0  0  0  0  0  0
   32.3460  -10.1000   11.1770 C   0  0  0  0  0  0  0  0  0  0  0  0
   32.4370  -11.1730   12.0600 C   0  0  0  0  0  0  0  0  0  0  0  0
   33.5520  -12.0180   12.0300 C   0  0  0  0  0  0  0  0  0  0  0  0
   34.4660  -10.7340   10.2760 C   0  0  0  0  0  0  0  0  0  0  0  0
   39.0440   -6.0290   13.7060 C   0  0  0  0  0  0  0  0  0  0  0  0
   38.7990   -7.3490   14.0760 C   0  0  0  0  0  0  0  0  0  0  0  0
   37.7370   -8.0210   13.4430 C   0  0  0  0  0  0  0  0  0  0  0  0
   31.3300   -9.7320    8.0260 C   0  0  0  0  0  0  0  0  0  0  0  0
   31.3100  -11.4000   13.0290 C   0  0  0  0  0  0  0  0  0  0  0  0
   31.5180  -10.9360   14.4180 C   0  0  0  0  0  0  0  0  0  0  0  0
   29.3260  -11.7070   14.9560 C   0  0  0  0  0  0  0  0  0  0  0  0
   29.1180  -12.1590   13.7030 C   0  0  0  0  0  0  0  0  0  0  0  0
   30.1510  -12.0010   12.6620 C   0  0  0  0  0  0  0  0  0  0  0  0
   36.6000   -5.4740   11.0790 N   0  0  0  0  0  0  0  0  0  0  0  0
   35.0410   -7.2750   10.3780 C   0  0  0  0  0  0  0  0  0  0  0  0
   33.9510   -7.6150    9.5460 C   0  0  0  0  0  0  0  0  0  0  0  0
   33.4840   -6.6980    8.6070 C   0  0  0  0  0  0  0  0  0  0  0  0
   34.0590   -5.4240    8.4410 C   0  0  0  0  0  0  0  0  0  0  0  0
   35.0840   -5.0590    9.3160 C   0  0  0  0  0  0  0  0  0  0  0  0
   32.3440   -7.4180    7.9490 C   0  0  0  0  0  0  0  0  0  0  0  0
   32.2980   -8.6460    8.4830 C   0  0  0  0  0  0  0  0  0  0  0  0
   33.2480   -8.7800    9.4160 N   0  0  0  0  0  0  0  0  0  0  0  0
   34.5350  -11.7660   11.1490 N   0  0  0  0  0  0  0  0  0  0  0  0
   35.8110  -10.5390    9.1760 Cl  0  0  0  0  0  0  0  0  0  0  0  0
   38.3040   -5.4580   12.7300 N   0  0  0  0  0  0  0  0  0  0  0  0
   37.0330   -7.3690   12.4670 N   0  0  0  0  0  0  0  0  0  0  0  0
   30.5000  -11.1100   15.3220 N   0  0  0  0  0  0  0  0  0  0  0  0
   32.6070  -10.4310   14.7050 O   0  0  0  0  0  0  0  0  0  0  0  0
   30.6720  -10.6620   16.7190 C   0  0  0  0  0  0  0  0  0  0  0  0
   29.8410  -12.5130   11.2640 C   0  0  0  0  0  0  0  0  0  0  0  0
   37.4710   -9.3370   13.7090 N   0  0  0  0  0  0  0  0  0  0  0  0
   36.2820  -10.0560   13.2820 C   0  0  0  0  0  0  0  0  0  0  0  0
   31.4690   -9.4367   11.2075 H   0  0  0  0  0  0  0  0  0  0  0  0
   33.6227  -12.8746   12.7164 H   0  0  0  0  0  0  0  0  0  0  0  0
   39.8368   -5.4534   14.2062 H   0  0  0  0  0  0  0  0  0  0  0  0
   39.4150   -7.8496   14.8376 H   0  0  0  0  0  0  0  0  0  0  0  0
   30.8904  -10.2252    8.9055 H   0  0  0  0  0  0  0  0  0  0  0  0
   30.5302   -9.2795    7.4214 H   0  0  0  0  0  0  0  0  0  0  0  0
   31.8711  -10.4747    7.4214 H   0  0  0  0  0  0  0  0  0  0  0  0
   28.5285  -11.8218   15.7049 H   0  0  0  0  0  0  0  0  0  0  0  0
   28.1665  -12.6516   13.4540 H   0  0  0  0  0  0  0  0  0  0  0  0
   36.8583   -4.4912   10.9109 H   0  0  0  0  0  0  0  0  0  0  0  0
   35.4495   -8.0048   11.0925 H   0  0  0  0  0  0  0  0  0  0  0  0
   33.7135   -4.7410    7.6509 H   0  0  0  0  0  0  0  0  0  0  0  0
   35.4999   -4.0421    9.2608 H   0  0  0  0  0  0  0  0  0  0  0  0
   31.6738   -7.0146    7.1756 H   0  0  0  0  0  0  0  0  0  0  0  0
   30.3631  -11.4665   17.4027 H   0  0  0  0  0  0  0  0  0  0  0  0
   31.7289  -10.4149   16.8973 H   0  0  0  0  0  0  0  0  0  0  0  0
   30.0520   -9.7710   16.8973 H   0  0  0  0  0  0  0  0  0  0  0  0
   29.2725  -13.4520   11.3351 H   0  0  0  0  0  0  0  0  0  0  0  0
   29.2449  -11.7635   10.7228 H   0  0  0  0  0  0  0  0  0  0  0  0
   30.7814  -12.6939   10.7228 H   0  0  0  0  0  0  0  0  0  0  0  0
   38.1697   -9.8601   14.2559 H   0  0  0  0  0  0  0  0  0  0  0  0
   35.7214  -10.3950   14.1656 H   0  0  0  0  0  0  0  0  0  0  0  0
   35.6477   -9.3900   12.6786 H   0  0  0  0  0  0  0  0  0  0  0  0
   36.5772  -10.9271   12.6786 H   0  0  0  0  0  0  0  0  0  0  0  0
 23 24  2  0
 23 20  1  0
 11 24  1  0
 21 20  2  0
 21 22  1  0
 24 25  1  0
 20 19  1  0
 27  7  1  0
 22  2  2  0
 25 19  1  0
 25  3  1  0
 19 18  2  0
  3  7  1  0
  3  4  2  0
  2 18  1  0
  2 17  1  0
  7 26  2  0
 17  1  1  0
 26  6  1  0
  4  5  1  0
 33 16  1  0
  6  5  2  0
  5 12  1  0
  1 29  2  0
  1 28  1  0
 29 10  1  0
 16 12  2  0
 16 15  1  0
 28  8  2  0
 12 13  1  0
 35 34  1  0
 10 34  1  0
 10  9  2  0
 15 14  2  0
  8  9  1  0
 13 31  2  0
 13 30  1  0
 14 30  1  0
 30 32  1  0
  4 36  1  0
  6 37  1  0
  8 38  1  0
  9 39  1  0
 11 40  1  0
 11 41  1  0
 11 42  1  0
 14 43  1  0
 15 44  1  0
 17 45  1  0
 18 46  1  0
 21 47  1  0
 22 48  1  0
 23 49  1  0
 32 50  1  0
 32 51  1  0
 32 52  1  0
 33 53  1  0
 33 54  1  0
 33 55  1  0
 34 56  1  0
 35 57  1  0
 35 58  1  0
 35 59  1  0
A    1
C1
A    2
C3
A    3
C12
A    4
C13
A    5
C14
A    6
C15
A    7
C17
A    8
C20
A    9
C21
A   10
C22
A   11
C24
A   12
C25
A   13
C26
A   14
C28
A   15
C29
A   16
C30
A   17
N2
A   18
C4
A   19
C5
A   20
C6
A   21
C7
A   22
C8
A   23
C9
A   24
C10
A   25
N11
A   26
N16
A   27
CL
A   28
N19
A   29
N23
A   30
N27
A   31
O31
A   32
C32
A   33
C33
A   34
N34
A   35
C35
M  END
