5DTJ_5G8_A_601
     RDKit          3D

 13 13  0  0  0  0  0  0  0  0999 V2000
    6.5620  -23.7830    9.4690 C   0  0  0  0  0  0  0  0  0  0  0  0
    5.8730  -23.7130    8.2300 C   0  0  0  0  0  0  0  0  0  0  0  0
    4.7080  -24.4660    8.0480 C   0  0  0  0  0  0  0  0  0  0  0  0
    4.2140  -25.2790    9.0670 C   0  0  0  0  0  0  0  0  0  0  0  0
    4.8970  -25.3430   10.2760 C   0  0  0  0  0  0  0  0  0  0  0  0
    6.0620  -24.6020   10.4750 C   0  0  0  0  0  0  0  0  0  0  0  0
    6.3860  -22.7170    6.8450 Cl  0  0  0  0  0  0  0  0  0  0  0  0
    2.7400  -26.2180    8.8210 Cl  0  0  0  0  0  0  0  0  0  0  0  0
    7.7170  -23.0490    9.6680 O   0  0  0  0  0  0  0  0  0  0  0  0
    4.1744  -24.4158    7.0874 H   0  0  0  0  0  0  0  0  0  0  0  0
    4.5150  -25.9844   11.0839 H   0  0  0  0  0  0  0  0  0  0  0  0
    6.5904  -24.6663   11.4376 H   0  0  0  0  0  0  0  0  0  0  0  0
    8.0263  -22.8524   10.5877 H   0  0  0  0  0  0  0  0  0  0  0  0
  8  4  1  0
  5  6  1  0
  5  4  2  0
  6  1  2  0
  4  3  1  0
  1  9  1  0
  1  2  1  0
  3  2  2  0
  2  7  1  0
  3 10  1  0
  5 11  1  0
  6 12  1  0
  9 13  1  0
A    1
C1
A    2
C2
A    3
C3
A    4
C4
A    5
C5
A    6
C6
A    7
CL2
A    8
CL4
A    9
O1
M  END
