5DTR_5F7_A_401
     RDKit          3D

 36 38  0  0  0  0  0  0  0  0999 V2000
   30.0360  -14.2620   11.7400 C   0  0  0  0  0  0  0  0  0  0  0  0
   31.3280  -14.6730   12.1350 C   0  0  0  0  0  0  0  0  0  0  0  0
   32.4540  -13.9300   11.7060 C   0  0  0  0  0  0  0  0  0  0  0  0
   33.9110   -8.7930    8.8610 C   0  0  0  0  0  0  0  0  0  0  0  0
   33.3200   -7.9310    9.8170 C   0  0  0  0  0  0  0  0  0  0  0  0
   32.8050   -6.6770    9.4650 C   0  0  0  0  0  0  0  0  0  0  0  0
   32.9300   -6.2420    8.1510 C   0  0  0  0  0  0  0  0  0  0  0  0
   33.4740   -7.0990    7.1740 C   0  0  0  0  0  0  0  0  0  0  0  0
   33.9470   -8.3740    7.5170 C   0  0  0  0  0  0  0  0  0  0  0  0
   34.1470  -15.1440   13.0990 C   0  0  0  0  0  0  0  0  0  0  0  0
   35.6360  -10.5020    9.3290 C   0  0  0  0  0  0  0  0  0  0  0  0
   32.2430  -12.8180   10.8660 C   0  0  0  0  0  0  0  0  0  0  0  0
   30.9100  -12.4320   10.5260 C   0  0  0  0  0  0  0  0  0  0  0  0
   29.8470  -13.1790   10.9360 N   0  0  0  0  0  0  0  0  0  0  0  0
   33.3250  -12.0090   10.4640 C   0  0  0  0  0  0  0  0  0  0  0  0
   33.1420  -10.8670    9.6460 C   0  0  0  0  0  0  0  0  0  0  0  0
   31.7830  -10.5210    9.3420 C   0  0  0  0  0  0  0  0  0  0  0  0
   30.6850  -11.2670    9.7750 C   0  0  0  0  0  0  0  0  0  0  0  0
   34.2220  -10.0660    9.2550 N   0  0  0  0  0  0  0  0  0  0  0  0
   34.6310   -9.3390    6.2440 Cl  0  0  0  0  0  0  0  0  0  0  0  0
   33.2570   -8.4400   11.4860 Cl  0  0  0  0  0  0  0  0  0  0  0  0
   33.7810  -14.2610   12.0230 O   0  0  0  0  0  0  0  0  0  0  0  0
   29.1614  -14.8300   12.0900 H   0  0  0  0  0  0  0  0  0  0  0  0
   31.4582  -15.5618   12.7698 H   0  0  0  0  0  0  0  0  0  0  0  0
   32.3091   -6.0460   10.2172 H   0  0  0  0  0  0  0  0  0  0  0  0
   32.6042   -5.2286    7.8738 H   0  0  0  0  0  0  0  0  0  0  0  0
   33.5285   -6.7635    6.1278 H   0  0  0  0  0  0  0  0  0  0  0  0
   33.9434  -14.6527   14.0619 H   0  0  0  0  0  0  0  0  0  0  0  0
   33.5590  -16.0710   13.0287 H   0  0  0  0  0  0  0  0  0  0  0  0
   35.2184  -15.3832   13.0287 H   0  0  0  0  0  0  0  0  0  0  0  0
   35.9364  -10.5946   10.3831 H   0  0  0  0  0  0  0  0  0  0  0  0
   35.7461  -11.4758    8.8294 H   0  0  0  0  0  0  0  0  0  0  0  0
   36.2753   -9.7593    8.8294 H   0  0  0  0  0  0  0  0  0  0  0  0
   34.3405  -12.2720   10.7949 H   0  0  0  0  0  0  0  0  0  0  0  0
   31.5966   -9.6217    8.7366 H   0  0  0  0  0  0  0  0  0  0  0  0
   29.6609  -10.9475    9.5319 H   0  0  0  0  0  0  0  0  0  0  0  0
 20  9  1  0
  8  9  2  0
  8  7  1  0
  9  4  1  0
  7  6  2  0
  4 19  1  0
  4  5  2  0
 19 11  1  0
 19 16  1  0
 17 16  2  0
 17 18  1  0
  6  5  1  0
 16 15  1  0
 18 13  2  0
  5 21  1  0
 15 12  2  0
 13 12  1  0
 13 14  1  0
 12  3  1  0
 14  1  2  0
  3 22  1  0
  3  2  2  0
  1  2  1  0
 22 10  1  0
  1 23  1  0
  2 24  1  0
  6 25  1  0
  7 26  1  0
  8 27  1  0
 10 28  1  0
 10 29  1  0
 10 30  1  0
 11 31  1  0
 11 32  1  0
 11 33  1  0
 15 34  1  0
 17 35  1  0
 18 36  1  0
A    1
C1
A    2
C2
A    3
C3
A    4
C12
A    5
C13
A    6
C14
A    7
C15
A    8
C16
A    9
C17
A   10
C21
A   11
C22
A   12
C4
A   13
C5
A   14
N6
A   15
C7
A   16
C8
A   17
C9
A   18
C10
A   19
N11
A   20
CL1
A   21
CL2
A   22
O20
M  END
