5DTW_5F9_A_301
     RDKit          3D

143145  0  0  0  0  0  0  0  0999 V2000
  -30.2010  -21.6010  -31.0750 O   0  0  0  0  0  0  0  0  0  0  0  0
  -28.7590  -21.1320  -31.1470 P   0  0  0  0  0  0  0  0  0  0  0  0
  -27.7500  -22.2490  -30.9280 O   0  0  0  0  0  0  0  0  0  0  0  0
  -28.5330  -20.2050  -32.3330 O   0  0  0  0  0  0  0  0  0  0  0  0
  -28.4770  -20.1720  -29.8630 O   0  0  0  0  0  0  0  0  0  0  0  0
  -28.6910  -20.5880  -28.5060 C   0  0  0  0  0  0  0  0  0  0  0  0
  -27.6720  -19.9550  -27.5770 C   0  0  0  0  0  0  0  0  0  0  0  0
  -26.3800  -19.8250  -28.1710 O   0  0  0  0  0  0  0  0  0  0  0  0
  -28.2770  -18.5860  -27.3170 C   0  0  0  0  0  0  0  0  0  0  0  0
  -27.8130  -18.0360  -26.0240 N   0  0  0  0  0  0  0  0  0  0  0  0
  -28.1870  -18.4920  -24.8190 C   0  0  0  0  0  0  0  0  0  0  0  0
  -27.5760  -17.7670  -23.8710 N   0  0  0  0  0  0  0  0  0  0  0  0
  -26.8150  -16.8550  -24.4830 C   0  0  0  0  0  0  0  0  0  0  0  0
  -25.9810  -15.8770  -24.0090 C   0  0  0  0  0  0  0  0  0  0  0  0
  -25.8350  -15.7080  -22.6780 N   0  0  0  0  0  0  0  0  0  0  0  0
  -25.3290  -15.0940  -24.8840 N   0  0  0  0  0  0  0  0  0  0  0  0
  -25.4770  -15.2650  -26.2040 C   0  0  0  0  0  0  0  0  0  0  0  0
  -26.2820  -16.2190  -26.6870 N   0  0  0  0  0  0  0  0  0  0  0  0
  -26.9650  -17.0230  -25.8440 C   0  0  0  0  0  0  0  0  0  0  0  0
  -29.6840  -18.8340  -27.2700 O   0  0  0  0  0  0  0  0  0  0  0  0
  -30.0120  -19.9910  -28.0470 C   0  0  0  0  0  0  0  0  0  0  0  0
  -30.8040  -20.9760  -27.1990 C   0  0  0  0  0  0  0  0  0  0  0  0
  -29.8810  -21.5830  -26.3040 O   0  0  0  0  0  0  0  0  0  0  0  0
  -30.1630  -22.9920  -25.6120 P   0  0  0  0  0  0  0  0  0  0  0  0
  -30.4610  -24.0280  -26.6670 O   0  0  0  0  0  0  0  0  0  0  0  0
  -29.0390  -23.1890  -24.6290 O   0  0  0  0  0  0  0  0  0  0  0  0
  -31.5590  -22.5850  -24.9010 O   0  0  0  0  0  0  0  0  0  0  0  0
  -32.3060  -23.3220  -23.6830 P   0  0  0  0  0  0  0  0  0  0  0  0
  -33.7240  -22.8210  -23.7650 O   0  0  0  0  0  0  0  0  0  0  0  0
  -32.0510  -24.7970  -23.7420 O   0  0  0  0  0  0  0  0  0  0  0  0
  -31.5380  -22.7610  -22.3760 O   0  0  0  0  0  0  0  0  0  0  0  0
  -31.7690  -21.4760  -21.7620 C   0  0  0  0  0  0  0  0  0  0  0  0
  -30.5290  -21.0440  -20.9610 C   0  0  0  0  0  0  0  0  0  0  0  0
  -30.4480  -21.8490  -19.6710 C   0  0  0  0  0  0  0  0  0  0  0  0
  -30.5280  -19.5600  -20.6370 C   0  0  0  0  0  0  0  0  0  0  0  0
  -29.3600  -21.3390  -21.8820 C   0  0  0  0  0  0  0  0  0  0  0  0
  -29.2210  -22.7570  -21.9710 O   0  0  0  0  0  0  0  0  0  0  0  0
  -28.0770  -20.6880  -21.4500 C   0  0  0  0  0  0  0  0  0  0  0  0
  -27.6370  -19.8100  -22.1540 O   0  0  0  0  0  0  0  0  0  0  0  0
  -27.4430  -21.0690  -20.3460 N   0  0  0  0  0  0  0  0  0  0  0  0
  -26.1830  -20.4340  -19.9590 C   0  0  0  0  0  0  0  0  0  0  0  0
  -26.1310  -18.8980  -19.9790 C   0  0  0  0  0  0  0  0  0  0  0  0
  -24.8170  -18.3650  -19.4470 C   0  0  0  0  0  0  0  0  0  0  0  0
  -23.7870  -19.0320  -19.4730 O   0  0  0  0  0  0  0  0  0  0  0  0
  -24.8580  -17.1270  -18.9580 N   0  0  0  0  0  0  0  0  0  0  0  0
  -23.6650  -16.5170  -18.4150 C   0  0  0  0  0  0  0  0  0  0  0  0
  -23.0850  -15.4630  -19.3380 C   0  0  0  0  0  0  0  0  0  0  0  0
  -22.0100  -14.4640  -18.3620 S   0  0  0  0  0  0  0  0  0  0  0  0
  -22.8610  -13.4000  -17.3500 C   0  0  0  0  0  0  0  0  0  0  0  0
  -24.0430  -13.1510  -17.5480 O   0  0  0  0  0  0  0  0  0  0  0  0
  -22.1750  -12.7150  -16.1770 C   0  0  0  0  0  0  0  0  0  0  0  0
  -21.0470  -11.7970  -16.6380 C   0  0  0  0  0  0  0  0  0  0  0  0
  -21.1970  -10.3400  -16.2100 C   0  0  0  0  0  0  0  0  0  0  0  0
  -21.5120  -10.2360  -14.7190 C   0  0  0  0  0  0  0  0  0  0  0  0
  -20.4960   -9.3510  -13.9960 C   0  0  0  0  0  0  0  0  0  0  0  0
  -20.5400   -7.9260  -14.5430 C   0  0  0  0  0  0  0  0  0  0  0  0
  -19.3930   -7.0830  -13.9850 C   0  0  0  0  0  0  0  0  0  0  0  0
  -19.8310   -6.1090  -12.8870 C   0  0  0  0  0  0  0  0  0  0  0  0
  -20.8440   -5.0850  -13.4010 C   0  0  0  0  0  0  0  0  0  0  0  0
  -22.2500   -5.3990  -12.8950 C   0  0  0  0  0  0  0  0  0  0  0  0
  -22.8700   -4.2340  -12.1270 C   0  0  0  0  0  0  0  0  0  0  0  0
  -24.3500   -4.4750  -11.8490 C   0  0  0  0  0  0  0  0  0  0  0  0
  -24.7410   -3.8250  -10.5250 C   0  0  0  0  0  0  0  0  0  0  0  0
  -24.7760   -2.3060  -10.6360 C   0  0  0  0  0  0  0  0  0  0  0  0
  -24.8010   -1.6200   -9.2750 C   0  0  0  0  0  0  0  0  0  0  0  0
  -25.9300   -2.1280   -8.3870 C   0  0  0  0  0  0  0  0  0  0  0  0
  -26.5140   -0.9980   -7.5430 C   0  0  0  0  0  0  0  0  0  0  0  0
  -27.1060    0.0940   -8.4260 C   0  0  0  0  0  0  0  0  0  0  0  0
  -27.4740    1.3270   -7.6300 C   0  0  0  0  0  0  0  0  0  0  0  0
  -30.4724  -21.6893  -30.1270 H   0  0  0  0  0  0  0  0  0  0  0  0
  -27.6212  -22.3916  -29.9568 H   0  0  0  0  0  0  0  0  0  0  0  0
  -28.6430  -21.6865  -28.4748 H   0  0  0  0  0  0  0  0  0  0  0  0
  -27.4983  -20.5601  -26.6750 H   0  0  0  0  0  0  0  0  0  0  0  0
  -25.6951  -19.7561  -27.4595 H   0  0  0  0  0  0  0  0  0  0  0  0
  -27.9924  -17.8518  -28.0851 H   0  0  0  0  0  0  0  0  0  0  0  0
  -28.8820  -19.3253  -24.6381 H   0  0  0  0  0  0  0  0  0  0  0  0
  -26.3544  -16.3092  -22.0225 H   0  0  0  0  0  0  0  0  0  0  0  0
  -25.2042  -14.9778  -22.3177 H   0  0  0  0  0  0  0  0  0  0  0  0
  -24.9297  -14.6128  -26.9005 H   0  0  0  0  0  0  0  0  0  0  0  0
  -30.6398  -19.7391  -28.9145 H   0  0  0  0  0  0  0  0  0  0  0  0
  -31.5860  -20.4466  -26.6349 H   0  0  0  0  0  0  0  0  0  0  0  0
  -31.2975  -21.7309  -27.8287 H   0  0  0  0  0  0  0  0  0  0  0  0
  -29.3928  -23.1270  -23.7064 H   0  0  0  0  0  0  0  0  0  0  0  0
  -31.9886  -25.1581  -22.8223 H   0  0  0  0  0  0  0  0  0  0  0  0
  -31.9751  -20.7305  -22.5442 H   0  0  0  0  0  0  0  0  0  0  0  0
  -32.6299  -21.5511  -21.0814 H   0  0  0  0  0  0  0  0  0  0  0  0
  -30.5165  -21.1687  -18.8093 H   0  0  0  0  0  0  0  0  0  0  0  0
  -31.2781  -22.5698  -19.6359 H   0  0  0  0  0  0  0  0  0  0  0  0
  -29.4909  -22.3900  -19.6359 H   0  0  0  0  0  0  0  0  0  0  0  0
  -30.5279  -19.4230  -19.5456 H   0  0  0  0  0  0  0  0  0  0  0  0
  -29.6295  -19.0918  -21.0654 H   0  0  0  0  0  0  0  0  0  0  0  0
  -31.4258  -19.0906  -21.0654 H   0  0  0  0  0  0  0  0  0  0  0  0
  -29.5748  -20.9052  -22.8698 H   0  0  0  0  0  0  0  0  0  0  0  0
  -29.1832  -23.1427  -21.0600 H   0  0  0  0  0  0  0  0  0  0  0  0
  -27.8411  -21.8160  -19.7591 H   0  0  0  0  0  0  0  0  0  0  0  0
  -25.9507  -20.7589  -18.9341 H   0  0  0  0  0  0  0  0  0  0  0  0
  -25.4607  -20.7505  -20.7259 H   0  0  0  0  0  0  0  0  0  0  0  0
  -26.2604  -18.5523  -21.0152 H   0  0  0  0  0  0  0  0  0  0  0  0
  -26.9360  -18.5235  -19.3296 H   0  0  0  0  0  0  0  0  0  0  0  0
  -25.7439  -16.6016  -18.9667 H   0  0  0  0  0  0  0  0  0  0  0  0
  -22.9095  -17.3001  -18.2538 H   0  0  0  0  0  0  0  0  0  0  0  0
  -23.9399  -16.0228  -17.4715 H   0  0  0  0  0  0  0  0  0  0  0  0
  -22.5211  -15.9419  -20.1521 H   0  0  0  0  0  0  0  0  0  0  0  0
  -23.8818  -14.8562  -19.7928 H   0  0  0  0  0  0  0  0  0  0  0  0
  -22.9186  -12.1178  -15.6289 H   0  0  0  0  0  0  0  0  0  0  0  0
  -21.7406  -13.4936  -15.5327 H   0  0  0  0  0  0  0  0  0  0  0  0
  -21.0062  -11.8291  -17.7368 H   0  0  0  0  0  0  0  0  0  0  0  0
  -20.1284  -12.1687  -16.1604 H   0  0  0  0  0  0  0  0  0  0  0  0
  -20.2579   -9.8059  -16.4172 H   0  0  0  0  0  0  0  0  0  0  0  0
  -22.0280   -9.8929  -16.7753 H   0  0  0  0  0  0  0  0  0  0  0  0
  -22.5160   -9.8041  -14.5943 H   0  0  0  0  0  0  0  0  0  0  0  0
  -21.4650  -11.2450  -14.2834 H   0  0  0  0  0  0  0  0  0  0  0  0
  -20.7316   -9.3334  -12.9217 H   0  0  0  0  0  0  0  0  0  0  0  0
  -19.4886   -9.7622  -14.1577 H   0  0  0  0  0  0  0  0  0  0  0  0
  -20.4596   -7.9601  -15.6395 H   0  0  0  0  0  0  0  0  0  0  0  0
  -21.4910   -7.4653  -14.2376 H   0  0  0  0  0  0  0  0  0  0  0  0
  -18.6337   -7.7605  -13.5673 H   0  0  0  0  0  0  0  0  0  0  0  0
  -19.0000   -6.4792  -14.8163 H   0  0  0  0  0  0  0  0  0  0  0  0
  -20.2892   -6.6811  -12.0667 H   0  0  0  0  0  0  0  0  0  0  0  0
  -18.9407   -5.5629  -12.5420 H   0  0  0  0  0  0  0  0  0  0  0  0
  -20.8460   -5.1028  -14.5009 H   0  0  0  0  0  0  0  0  0  0  0  0
  -20.5538   -4.0908  -13.0303 H   0  0  0  0  0  0  0  0  0  0  0  0
  -22.8910   -5.6335  -13.7577 H   0  0  0  0  0  0  0  0  0  0  0  0
  -22.1734   -6.2513  -12.2038 H   0  0  0  0  0  0  0  0  0  0  0  0
  -22.3410   -4.1144  -11.1700 H   0  0  0  0  0  0  0  0  0  0  0  0
  -22.7767   -3.3261  -12.7410 H   0  0  0  0  0  0  0  0  0  0  0  0
  -24.9497   -4.0383  -12.6611 H   0  0  0  0  0  0  0  0  0  0  0  0
  -24.5365   -5.5575  -11.7906 H   0  0  0  0  0  0  0  0  0  0  0  0
  -25.7381   -4.1847  -10.2312 H   0  0  0  0  0  0  0  0  0  0  0  0
  -23.9877   -4.0981   -9.7714 H   0  0  0  0  0  0  0  0  0  0  0  0
  -23.8819   -1.9719  -11.1827 H   0  0  0  0  0  0  0  0  0  0  0  0
  -25.7006   -2.0315  -11.1649 H   0  0  0  0  0  0  0  0  0  0  0  0
  -23.8425   -1.8061   -8.7683 H   0  0  0  0  0  0  0  0  0  0  0  0
  -24.9664   -0.5458   -9.4448 H   0  0  0  0  0  0  0  0  0  0  0  0
  -26.7236   -2.5505   -9.0208 H   0  0  0  0  0  0  0  0  0  0  0  0
  -25.5255   -2.8963   -7.7117 H   0  0  0  0  0  0  0  0  0  0  0  0
  -25.7169   -0.5648   -6.9210 H   0  0  0  0  0  0  0  0  0  0  0  0
  -27.3148   -1.4103   -6.9115 H   0  0  0  0  0  0  0  0  0  0  0  0
  -28.0105   -0.2961   -8.9155 H   0  0  0  0  0  0  0  0  0  0  0  0
  -26.3460    0.3817   -9.1674 H   0  0  0  0  0  0  0  0  0  0  0  0
  -27.4071    1.1030   -6.5551 H   0  0  0  0  0  0  0  0  0  0  0  0
  -26.7806    2.1441   -7.8781 H   0  0  0  0  0  0  0  0  0  0  0  0
  -28.5018    1.6303   -7.8781 H   0  0  0  0  0  0  0  0  0  0  0  0
  4  2  2  0
  2  1  1  0
  2  3  1  0
  2  5  1  0
  5  6  1  0
  6 21  1  0
  6  7  1  0
  8  7  1  0
 21 20  1  0
 21 22  1  0
  7  9  1  0
  9 20  1  0
  9 10  1  0
 22 23  1  0
 18 17  1  0
 18 19  2  0
 25 24  2  0
 23 24  1  0
 17 16  2  0
 10 19  1  0
 10 11  1  0
 19 13  1  0
 24 27  1  0
 24 26  1  0
 27 28  1  0
 16 14  1  0
 11 12  2  0
 13 14  2  0
 13 12  1  0
 14 15  1  0
 29 28  2  0
 30 28  1  0
 28 31  1  0
 31 32  1  0
 39 38  2  0
 37 36  1  0
 36 38  1  0
 36 33  1  0
 32 33  1  0
 38 40  1  0
 33 35  1  0
 33 34  1  0
 40 41  1  0
 42 41  1  0
 42 43  1  0
 44 43  2  0
 43 45  1  0
 47 46  1  0
 47 48  1  0
 45 46  1  0
 48 49  1  0
 50 49  2  0
 49 51  1  0
 52 53  1  0
 52 51  1  0
 53 54  1  0
 54 55  1  0
 56 55  1  0
 56 57  1  0
 57 58  1  0
 59 60  1  0
 59 58  1  0
 60 61  1  0
 61 62  1  0
 62 63  1  0
 64 63  1  0
 64 65  1  0
 65 66  1  0
 68 69  1  0
 68 67  1  0
 66 67  1  0
  1 70  1  0
  3 71  1  0
  6 72  1  0
  7 73  1  0
  8 74  1  0
  9 75  1  0
 11 76  1  0
 15 77  1  0
 15 78  1  0
 17 79  1  0
 21 80  1  0
 22 81  1  0
 22 82  1  0
 26 83  1  0
 30 84  1  0
 32 85  1  0
 32 86  1  0
 34 87  1  0
 34 88  1  0
 34 89  1  0
 35 90  1  0
 35 91  1  0
 35 92  1  0
 36 93  1  0
 37 94  1  0
 40 95  1  0
 41 96  1  0
 41 97  1  0
 42 98  1  0
 42 99  1  0
 45100  1  0
 46101  1  0
 46102  1  0
 47103  1  0
 47104  1  0
 51105  1  0
 51106  1  0
 52107  1  0
 52108  1  0
 53109  1  0
 53110  1  0
 54111  1  0
 54112  1  0
 55113  1  0
 55114  1  0
 56115  1  0
 56116  1  0
 57117  1  0
 57118  1  0
 58119  1  0
 58120  1  0
 59121  1  0
 59122  1  0
 60123  1  0
 60124  1  0
 61125  1  0
 61126  1  0
 62127  1  0
 62128  1  0
 63129  1  0
 63130  1  0
 64131  1  0
 64132  1  0
 65133  1  0
 65134  1  0
 66135  1  0
 66136  1  0
 67137  1  0
 67138  1  0
 68139  1  0
 68140  1  0
 69141  1  0
 69142  1  0
 69143  1  0
A    1
O19
A    2
P18
A    3
O20
A    4
O21
A    5
O17
A    6
C14
A    7
C15
A    8
O16
A    9
C11
A   10
N10
A   11
C9
A   12
N8
A   13
C7
A   14
C80
A   15
N81
A   16
N82
A   17
C83
A   18
N84
A   19
C6
A   20
O12
A   21
C13
A   22
C22
A   23
O23
A   24
P26
A   25
O28
A   26
O29
A   27
O27
A   28
P32
A   29
O34
A   30
O35
A   31
O33
A   32
C36
A   33
C37
A   34
C38
A   35
C39
A   36
C40
A   37
O41
A   38
C42
A   39
O44
A   40
N43
A   41
C45
A   42
C46
A   43
C47
A   44
O49
A   45
N48
A   46
C50
A   47
C51
A   48
S52
A   49
C53
A   50
O54
A   51
C55
A   52
C56
A   53
C57
A   54
C58
A   55
C59
A   56
C60
A   57
C61
A   58
C62
A   59
C63
A   60
C64
A   61
C65
A   62
C66
A   63
C67
A   64
C68
A   65
C69
A   66
C70
A   67
C71
A   68
C72
A   69
C73
M  END
