5DU8_5FK_A_301
     RDKit          3D

 53 56  0  0  0  0  0  0  0  0999 V2000
  -18.5940   26.0920  -34.4540 C   0  0  0  0  0  0  0  0  0  0  0  0
  -17.9570   24.7380  -34.0640 C   0  0  0  0  0  0  0  0  0  0  0  0
  -16.9810   24.1820  -35.1120 C   0  0  0  0  0  0  0  0  0  0  0  0
  -18.3940   25.4680  -36.7720 C   0  0  0  0  0  0  0  0  0  0  0  0
  -19.6570   26.3780  -33.4650 C   0  0  0  0  0  0  0  0  0  0  0  0
  -20.9470   25.8480  -33.5780 C   0  0  0  0  0  0  0  0  0  0  0  0
  -21.9110   26.1400  -32.5940 C   0  0  0  0  0  0  0  0  0  0  0  0
  -21.5860   26.9690  -31.5010 C   0  0  0  0  0  0  0  0  0  0  0  0
  -20.2920   27.4850  -31.4070 C   0  0  0  0  0  0  0  0  0  0  0  0
  -19.3420   27.1890  -32.3800 C   0  0  0  0  0  0  0  0  0  0  0  0
  -16.8590   22.6640  -35.1080 C   0  0  0  0  0  0  0  0  0  0  0  0
  -18.4860   25.5100  -38.2450 C   0  0  0  0  0  0  0  0  0  0  0  0
  -17.5290   24.6160  -38.7000 C   0  0  0  0  0  0  0  0  0  0  0  0
  -19.3950   26.4110  -38.9790 C   0  0  0  0  0  0  0  0  0  0  0  0
  -20.2630   27.2090  -41.1350 C   0  0  0  0  0  0  0  0  0  0  0  0
  -19.2740   27.9890  -41.9780 C   0  0  0  0  0  0  0  0  0  0  0  0
  -19.4050   28.0220  -43.3660 C   0  0  0  0  0  0  0  0  0  0  0  0
  -18.4730   28.7330  -44.1130 C   0  0  0  0  0  0  0  0  0  0  0  0
  -17.4290   29.3840  -43.4670 C   0  0  0  0  0  0  0  0  0  0  0  0
  -17.3210   29.3250  -42.0840 C   0  0  0  0  0  0  0  0  0  0  0  0
  -22.5830   27.3200  -30.3950 C   0  0  0  0  0  0  0  0  0  0  0  0
  -15.8920   22.2900  -35.9160 F   0  0  0  0  0  0  0  0  0  0  0  0
  -16.5910   22.2590  -33.8910 F   0  0  0  0  0  0  0  0  0  0  0  0
  -17.9700   22.1150  -35.5500 F   0  0  0  0  0  0  0  0  0  0  0  0
  -23.9530   27.7250  -30.9150 C   0  0  0  0  0  0  0  0  0  0  0  0
  -19.0940   26.1490  -35.8330 N   0  0  0  0  0  0  0  0  0  0  0  0
  -17.4710   24.6100  -36.4360 N   0  0  0  0  0  0  0  0  0  0  0  0
  -16.9220   24.0540  -37.6130 N   0  0  0  0  0  0  0  0  0  0  0  0
  -20.0260   27.2230  -38.3190 O   0  0  0  0  0  0  0  0  0  0  0  0
  -19.4370   26.3310  -40.3180 N   0  0  0  0  0  0  0  0  0  0  0  0
  -18.2360   28.6360  -41.3850 N   0  0  0  0  0  0  0  0  0  0  0  0
  -16.5300   30.0700  -44.1840 F   0  0  0  0  0  0  0  0  0  0  0  0
  -17.8143   26.8676  -34.4313 H   0  0  0  0  0  0  0  0  0  0  0  0
  -18.7642   24.0048  -33.9196 H   0  0  0  0  0  0  0  0  0  0  0  0
  -17.3745   24.9125  -33.1474 H   0  0  0  0  0  0  0  0  0  0  0  0
  -15.9803   24.5708  -34.8722 H   0  0  0  0  0  0  0  0  0  0  0  0
  -21.2071   25.2057  -34.4323 H   0  0  0  0  0  0  0  0  0  0  0  0
  -22.9236   25.7188  -32.6786 H   0  0  0  0  0  0  0  0  0  0  0  0
  -20.0215   28.1300  -30.5580 H   0  0  0  0  0  0  0  0  0  0  0  0
  -18.3268   27.6027  -32.2895 H   0  0  0  0  0  0  0  0  0  0  0  0
  -17.2986   24.3973  -39.7531 H   0  0  0  0  0  0  0  0  0  0  0  0
  -20.8532   27.8874  -40.5014 H   0  0  0  0  0  0  0  0  0  0  0  0
  -20.9850   26.6505  -41.7488 H   0  0  0  0  0  0  0  0  0  0  0  0
  -20.2327   27.4938  -43.8618 H   0  0  0  0  0  0  0  0  0  0  0  0
  -18.5613   28.7800  -45.2084 H   0  0  0  0  0  0  0  0  0  0  0  0
  -16.4955   29.8368  -41.5677 H   0  0  0  0  0  0  0  0  0  0  0  0
  -22.7040   26.4412  -29.7445 H   0  0  0  0  0  0  0  0  0  0  0  0
  -22.1739   28.1872  -29.8559 H   0  0  0  0  0  0  0  0  0  0  0  0
  -24.6236   27.9232  -30.0659 H   0  0  0  0  0  0  0  0  0  0  0  0
  -23.8587   28.6337  -31.5277 H   0  0  0  0  0  0  0  0  0  0  0  0
  -24.3680   26.9111  -31.5277 H   0  0  0  0  0  0  0  0  0  0  0  0
  -19.9402   26.6835  -36.0761 H   0  0  0  0  0  0  0  0  0  0  0  0
  -18.8605   25.6183  -40.7878 H   0  0  0  0  0  0  0  0  0  0  0  0
 32 19  1  0
 18 19  1  0
 18 17  2  0
 19 20  2  0
 17 16  1  0
 20 31  1  0
 16 31  2  0
 16 15  1  0
 15 30  1  0
 30 14  1  0
 14 29  2  0
 14 12  1  0
 13 12  1  0
 13 28  2  0
 12  4  2  0
 28 27  1  0
  4 27  1  0
  4 26  1  0
 27  3  1  0
 22 11  1  0
 26  1  1  0
 24 11  1  0
  3 11  1  0
  3  2  1  0
 11 23  1  0
  1  2  1  0
  1  5  1  0
  6  5  2  0
  6  7  1  0
  5 10  1  0
  7  8  2  0
 10  9  2  0
  8  9  1  0
  8 21  1  0
 25 21  1  0
  1 33  1  0
  2 34  1  0
  2 35  1  0
  3 36  1  0
  6 37  1  0
  7 38  1  0
  9 39  1  0
 10 40  1  0
 13 41  1  0
 15 42  1  0
 15 43  1  0
 17 44  1  0
 18 45  1  0
 20 46  1  0
 21 47  1  0
 21 48  1  0
 25 49  1  0
 25 50  1  0
 25 51  1  0
 26 52  1  0
 30 53  1  0
A    1
C1
A    2
C2
A    3
C3
A    4
C5
A    5
C7
A    6
C8
A    7
C9
A    8
C10
A    9
C11
A   10
C12
A   11
C13
A   12
C17
A   13
C18
A   14
C20
A   15
C23
A   16
C24
A   17
C25
A   18
C26
A   19
C27
A   20
C28
A   21
C32
A   22
F58
A   23
F57
A   24
F56
A   25
C33
A   26
N6
A   27
N4
A   28
N19
A   29
O22
A   30
N21
A   31
N29
A   32
F30
M  END
