5DUE_5FY_A_900
     RDKit          3D

 59 63  0  0  0  0  0  0  0  0999 V2000
  -15.9600  -25.9940   -4.0230 C   0  0  0  0  0  0  0  0  0  0  0  0
  -17.0590  -26.3460   -3.2310 C   0  0  0  0  0  0  0  0  0  0  0  0
  -17.1090  -25.7440   -1.9560 C   0  0  0  0  0  0  0  0  0  0  0  0
  -18.1730  -26.0430   -1.0980 C   0  0  0  0  0  0  0  0  0  0  0  0
  -18.2180  -25.4580    0.1280 O   0  0  0  0  0  0  0  0  0  0  0  0
  -19.1990  -26.9410   -1.4780 C   0  0  0  0  0  0  0  0  0  0  0  0
  -19.1560  -27.5470   -2.7360 C   0  0  0  0  0  0  0  0  0  0  0  0
  -18.0910  -27.2620   -3.6320 C   0  0  0  0  0  0  0  0  0  0  0  0
  -18.1170  -27.8870   -4.8390 C   0  0  0  0  0  0  0  0  0  0  0  0
  -19.2560  -28.1000   -5.5670 C   0  0  0  0  0  0  0  0  0  0  0  0
  -20.4600  -27.4890   -5.3950 C   0  0  0  0  0  0  0  0  0  0  0  0
  -21.5850  -28.3420   -5.2630 C   0  0  0  0  0  0  0  0  0  0  0  0
  -22.8740  -27.8040   -5.0830 C   0  0  0  0  0  0  0  0  0  0  0  0
  -23.0490  -26.4120   -5.0330 C   0  0  0  0  0  0  0  0  0  0  0  0
  -24.2950  -25.9150   -4.8630 O   0  0  0  0  0  0  0  0  0  0  0  0
  -21.9560  -25.5370   -5.1550 C   0  0  0  0  0  0  0  0  0  0  0  0
  -20.6610  -26.0780   -5.3350 C   0  0  0  0  0  0  0  0  0  0  0  0
  -19.6400  -25.1150   -5.4510 C   0  0  0  0  0  0  0  0  0  0  0  0
  -19.1110  -29.1360   -6.4320 C   0  0  0  0  0  0  0  0  0  0  0  0
  -18.0500  -30.3730   -5.4010 S   0  0  0  0  0  0  0  0  0  0  0  0
  -17.2680  -31.2810   -6.3450 O   0  0  0  0  0  0  0  0  0  0  0  0
  -17.0990  -28.6930   -5.2390 C   0  0  0  0  0  0  0  0  0  0  0  0
  -16.7550  -28.4760   -6.7230 C   0  0  0  0  0  0  0  0  0  0  0  0
  -18.0470  -28.8340   -7.4930 C   0  0  0  0  0  0  0  0  0  0  0  0
  -18.5770  -27.4850   -8.7870 S   0  0  0  0  0  0  0  0  0  0  0  0
  -17.4130  -26.5110   -8.9600 O   0  0  0  0  0  0  0  0  0  0  0  0
  -19.7840  -26.7330   -8.2490 O   0  0  0  0  0  0  0  0  0  0  0  0
  -18.9430  -28.1570  -10.1220 O   0  0  0  0  0  0  0  0  0  0  0  0
  -19.9720  -29.0620  -10.1350 C   0  0  0  0  0  0  0  0  0  0  0  0
  -21.2800  -28.6350   -9.8200 C   0  0  0  0  0  0  0  0  0  0  0  0
  -22.3370  -29.5710   -9.8520 C   0  0  0  0  0  0  0  0  0  0  0  0
  -22.0590  -30.8970  -10.2030 C   0  0  0  0  0  0  0  0  0  0  0  0
  -23.0830  -31.7950  -10.2320 O   0  0  0  0  0  0  0  0  0  0  0  0
  -20.7570  -31.3360  -10.5270 C   0  0  0  0  0  0  0  0  0  0  0  0
  -19.7000  -30.4020  -10.4940 C   0  0  0  0  0  0  0  0  0  0  0  0
  -15.1132  -25.7228   -3.3754 H   0  0  0  0  0  0  0  0  0  0  0  0
  -15.6776  -26.8466   -4.6580 H   0  0  0  0  0  0  0  0  0  0  0  0
  -16.2255  -25.1359   -4.6580 H   0  0  0  0  0  0  0  0  0  0  0  0
  -16.3194  -25.0466   -1.6396 H   0  0  0  0  0  0  0  0  0  0  0  0
  -18.1751  -26.0160    0.9446 H   0  0  0  0  0  0  0  0  0  0  0  0
  -20.0258  -27.1605   -0.7865 H   0  0  0  0  0  0  0  0  0  0  0  0
  -19.9499  -28.2476   -3.0340 H   0  0  0  0  0  0  0  0  0  0  0  0
  -21.4498  -29.4330   -5.3015 H   0  0  0  0  0  0  0  0  0  0  0  0
  -23.7415  -28.4728   -4.9818 H   0  0  0  0  0  0  0  0  0  0  0  0
  -24.6510  -25.7730   -3.9502 H   0  0  0  0  0  0  0  0  0  0  0  0
  -22.1050  -24.4480   -5.1112 H   0  0  0  0  0  0  0  0  0  0  0  0
  -19.3120  -24.8057   -4.4476 H   0  0  0  0  0  0  0  0  0  0  0  0
  -18.7890  -25.5469   -5.9980 H   0  0  0  0  0  0  0  0  0  0  0  0
  -20.0215  -24.2402   -5.9980 H   0  0  0  0  0  0  0  0  0  0  0  0
  -20.0924  -29.4110   -6.8458 H   0  0  0  0  0  0  0  0  0  0  0  0
  -16.2202  -28.5781   -4.5875 H   0  0  0  0  0  0  0  0  0  0  0  0
  -15.9286  -29.1348   -7.0281 H   0  0  0  0  0  0  0  0  0  0  0  0
  -16.4282  -27.4450   -6.9236 H   0  0  0  0  0  0  0  0  0  0  0  0
  -17.8878  -29.7175   -8.1286 H   0  0  0  0  0  0  0  0  0  0  0  0
  -21.4737  -27.5857   -9.5528 H   0  0  0  0  0  0  0  0  0  0  0  0
  -23.3635  -29.2625   -9.6047 H   0  0  0  0  0  0  0  0  0  0  0  0
  -23.4688  -32.1333   -9.3854 H   0  0  0  0  0  0  0  0  0  0  0  0
  -20.5703  -32.3852  -10.7997 H   0  0  0  0  0  0  0  0  0  0  0  0
  -18.6752  -30.7132  -10.7449 H   0  0  0  0  0  0  0  0  0  0  0  0
 34 35  2  0
 34 32  1  0
 35 29  1  0
 33 32  1  0
 32 31  2  0
 29 28  1  0
 29 30  2  0
 28 25  1  0
 31 30  1  0
 26 25  2  0
 25 27  2  0
 25 24  1  0
 24 23  1  0
 24 19  1  0
 23 22  1  0
 19 10  1  0
 19 20  1  0
 21 20  2  0
 10 11  1  0
 10  9  2  0
 18 17  1  0
 20 22  1  0
 11 17  1  0
 11 12  2  0
 17 16  2  0
 12 13  1  0
 22  9  1  0
 16 14  1  0
 13 14  2  0
 14 15  1  0
  9  8  1  0
  1  2  1  0
  8  2  2  0
  8  7  1  0
  2  3  1  0
  7  6  2  0
  3  4  2  0
  6  4  1  0
  4  5  1  0
  1 36  1  0
  1 37  1  0
  1 38  1  0
  3 39  1  0
  5 40  1  0
  6 41  1  0
  7 42  1  0
 12 43  1  0
 13 44  1  0
 15 45  1  0
 16 46  1  0
 18 47  1  0
 18 48  1  0
 18 49  1  0
 19 50  1  0
 22 51  1  0
 23 52  1  0
 23 53  1  0
 24 54  1  0
 30 55  1  0
 31 56  1  0
 33 57  1  0
 34 58  1  0
 35 59  1  0
A    1
C01
A    2
C02
A    3
C03
A    4
C04
A    5
O01
A    6
C05
A    7
C06
A    8
C07
A    9
C08
A   10
C09
A   11
C10
A   12
C11
A   13
C12
A   14
C13
A   15
O02
A   16
C14
A   17
C15
A   18
C16
A   19
C17
A   20
S01
A   21
O03
A   22
C18
A   23
C19
A   24
C20
A   25
S02
A   26
O04
A   27
O05
A   28
O06
A   29
C21
A   30
C22
A   31
C23
A   32
C24
A   33
O07
A   34
C25
A   35
C26
M  END
