5DUF_G7A_A_301
     RDKit          3D

 40 42  0  0  0  0  0  0  0  0999 V2000
  -46.9910   12.9330   11.5160 O   0  0  0  0  0  0  0  0  0  0  0  0
  -47.5880   11.9190   11.1190 C   0  0  0  0  0  0  0  0  0  0  0  0
  -48.4180   11.3260   11.8430 O   0  0  0  0  0  0  0  0  0  0  0  0
  -47.3620   11.4070    9.7370 C   0  0  0  0  0  0  0  0  0  0  0  0
  -47.8650   10.2690    9.1040 C   0  0  0  0  0  0  0  0  0  0  0  0
  -47.4010   10.2200    7.8230 N   0  0  0  0  0  0  0  0  0  0  0  0
  -46.5910   11.3530    7.6650 N   0  0  0  0  0  0  0  0  0  0  0  0
  -45.9460   11.6440    6.3710 C   0  0  0  0  0  0  0  0  0  0  0  0
  -45.4380   10.3970    5.6480 C   0  0  0  0  0  0  0  0  0  0  0  0
  -46.4400    9.5860    5.3200 F   0  0  0  0  0  0  0  0  0  0  0  0
  -44.8290   10.7730    4.5430 F   0  0  0  0  0  0  0  0  0  0  0  0
  -44.5780    9.7540    6.4160 F   0  0  0  0  0  0  0  0  0  0  0  0
  -46.5910   12.0410    8.7760 C   0  0  0  0  0  0  0  0  0  0  0  0
  -45.8590   13.1960    8.8740 N   0  0  0  0  0  0  0  0  0  0  0  0
  -45.2920   13.7810    7.6460 C   0  0  0  0  0  0  0  0  0  0  0  0
  -44.8380   12.6490    6.7030 C   0  0  0  0  0  0  0  0  0  0  0  0
  -44.1390   14.6670    7.9710 C   0  0  0  0  0  0  0  0  0  0  0  0
  -43.1530   14.2830    8.8860 C   0  0  0  0  0  0  0  0  0  0  0  0
  -42.0840   15.1290    9.1800 C   0  0  0  0  0  0  0  0  0  0  0  0
  -41.9760   16.3760    8.5630 C   0  0  0  0  0  0  0  0  0  0  0  0
  -40.8190   17.2960    8.8830 C   0  0  0  0  0  0  0  0  0  0  0  0
  -40.7750   17.6050   10.3640 C   0  0  0  0  0  0  0  0  0  0  0  0
  -42.9550   16.7590    7.6570 C   0  0  0  0  0  0  0  0  0  0  0  0
  -44.0180   15.9170    7.3610 C   0  0  0  0  0  0  0  0  0  0  0  0
  -48.3427   11.3798   12.8287 H   0  0  0  0  0  0  0  0  0  0  0  0
  -48.5322    9.5270    9.5669 H   0  0  0  0  0  0  0  0  0  0  0  0
  -46.6646   12.0594    5.6491 H   0  0  0  0  0  0  0  0  0  0  0  0
  -45.7083   13.6461    9.7881 H   0  0  0  0  0  0  0  0  0  0  0  0
  -46.0640   14.3870    7.1493 H   0  0  0  0  0  0  0  0  0  0  0  0
  -44.0101   12.1073    7.1837 H   0  0  0  0  0  0  0  0  0  0  0  0
  -44.5364   13.1203    5.7560 H   0  0  0  0  0  0  0  0  0  0  0  0
  -43.2217   13.3023    9.3794 H   0  0  0  0  0  0  0  0  0  0  0  0
  -41.3197   14.8107    9.9042 H   0  0  0  0  0  0  0  0  0  0  0  0
  -39.8780   16.8089    8.5876 H   0  0  0  0  0  0  0  0  0  0  0  0
  -40.9518   18.2371    8.3292 H   0  0  0  0  0  0  0  0  0  0  0  0
  -40.9074   16.6752   10.9366 H   0  0  0  0  0  0  0  0  0  0  0  0
  -39.8036   18.0556   10.6159 H   0  0  0  0  0  0  0  0  0  0  0  0
  -41.5820   18.3088   10.6159 H   0  0  0  0  0  0  0  0  0  0  0  0
  -42.8877   17.7418    7.1675 H   0  0  0  0  0  0  0  0  0  0  0  0
  -44.7776   16.2399    6.6338 H   0  0  0  0  0  0  0  0  0  0  0  0
 11  9  1  0
 10  9  1  0
  9  8  1  0
  9 12  1  0
  8 16  1  0
  8  7  1  0
 16 15  1  0
 24 23  2  0
 24 17  1  0
 15 17  1  0
 15 14  1  0
 23 20  1  0
  7  6  1  0
  7 13  1  0
  6  5  2  0
 17 18  2  0
 20 21  1  0
 20 19  2  0
 13 14  1  0
 13  4  2  0
 21 22  1  0
 18 19  1  0
  5  4  1  0
  4  2  1  0
  2  1  2  0
  2  3  1  0
  3 25  1  0
  5 26  1  0
  8 27  1  0
 14 28  1  0
 15 29  1  0
 16 30  1  0
 16 31  1  0
 18 32  1  0
 19 33  1  0
 21 34  1  0
 21 35  1  0
 22 36  1  0
 22 37  1  0
 22 38  1  0
 23 39  1  0
 24 40  1  0
A    1
O21
A    2
C20
A    3
O22
A    4
C17
A    5
C18
A    6
N19
A    7
N4
A    8
C3
A    9
C13
A   10
F57
A   11
F56
A   12
F58
A   13
C5
A   14
N6
A   15
C1
A   16
C2
A   17
C7
A   18
C12
A   19
C11
A   20
C10
A   21
C32
A   22
C33
A   23
C9
A   24
C8
M  END
