5DUW_5GO_A_201
     RDKit          3D

 49 50  0  0  0  0  0  0  0  0999 V2000
   77.2280  -14.5460  -51.1760 C   0  0  0  0  0  0  0  0  0  0  0  0
   78.0330  -13.5830  -52.0260 C   0  0  0  0  0  0  0  0  0  0  0  0
   77.5030  -12.1600  -51.9420 C   0  0  0  0  0  0  0  0  0  0  0  0
   75.9780  -12.1340  -52.1070 C   0  0  0  0  0  0  0  0  0  0  0  0
   75.3090  -13.1660  -51.1910 C   0  0  0  0  0  0  0  0  0  0  0  0
   73.7960  -13.2690  -51.3640 C   0  0  0  0  0  0  0  0  0  0  0  0
   77.7200  -15.8380  -51.5220 O   0  0  0  0  0  0  0  0  0  0  0  0
   79.3930  -13.6030  -51.5610 O   0  0  0  0  0  0  0  0  0  0  0  0
   78.1520  -11.4110  -52.9640 O   0  0  0  0  0  0  0  0  0  0  0  0
   75.6890  -12.4470  -53.4760 O   0  0  0  0  0  0  0  0  0  0  0  0
   75.8370  -14.4710  -51.4770 O   0  0  0  0  0  0  0  0  0  0  0  0
   73.2730  -14.2980  -50.5030 O   0  0  0  0  0  0  0  0  0  0  0  0
   77.2390  -19.6640  -50.0370 C   0  0  0  0  0  0  0  0  0  0  0  0
   76.2230  -19.2190  -51.0870 C   0  0  0  0  0  0  0  0  0  0  0  0
   76.6900  -17.9520  -51.7810 C   0  0  0  0  0  0  0  0  0  0  0  0
   77.0940  -16.8790  -50.7700 C   0  0  0  0  0  0  0  0  0  0  0  0
   78.0530  -17.4710  -49.7440 C   0  0  0  0  0  0  0  0  0  0  0  0
   78.4680  -16.4720  -48.6740 C   0  0  0  0  0  0  0  0  0  0  0  0
   76.6600  -20.7750  -49.3550 O   0  0  0  0  0  0  0  0  0  0  0  0
   76.0550  -20.2470  -52.0750 O   0  0  0  0  0  0  0  0  0  0  0  0
   75.6550  -17.4860  -52.6430 O   0  0  0  0  0  0  0  0  0  0  0  0
   77.4400  -18.5970  -49.1070 O   0  0  0  0  0  0  0  0  0  0  0  0
   77.3500  -15.9520  -47.9580 O   0  0  0  0  0  0  0  0  0  0  0  0
   78.4550   -9.8800  -52.6920 S   0  0  0  0  0  0  0  0  0  0  0  0
   77.3110   -9.1320  -52.1460 O   0  0  0  0  0  0  0  0  0  0  0  0
   78.8820   -9.3240  -54.0090 O   0  0  0  0  0  0  0  0  0  0  0  0
   79.6020   -9.9320  -51.8090 O   0  0  0  0  0  0  0  0  0  0  0  0
   77.3332  -14.3153  -50.1056 H   0  0  0  0  0  0  0  0  0  0  0  0
   77.9586  -13.9031  -53.0758 H   0  0  0  0  0  0  0  0  0  0  0  0
   77.7153  -11.7205  -50.9562 H   0  0  0  0  0  0  0  0  0  0  0  0
   75.5889  -11.1420  -51.8340 H   0  0  0  0  0  0  0  0  0  0  0  0
   75.5200  -12.8249  -50.1667 H   0  0  0  0  0  0  0  0  0  0  0  0
   73.3328  -12.3057  -51.1041 H   0  0  0  0  0  0  0  0  0  0  0  0
   73.5675  -13.5214  -52.4100 H   0  0  0  0  0  0  0  0  0  0  0  0
   79.4033  -13.6032  -50.5711 H   0  0  0  0  0  0  0  0  0  0  0  0
   75.0179  -13.1738  -53.5138 H   0  0  0  0  0  0  0  0  0  0  0  0
   73.4060  -14.0363  -49.5575 H   0  0  0  0  0  0  0  0  0  0  0  0
   78.2030  -19.9321  -50.4940 H   0  0  0  0  0  0  0  0  0  0  0  0
   75.2681  -19.0261  -50.5762 H   0  0  0  0  0  0  0  0  0  0  0  0
   77.5853  -18.1782  -52.3787 H   0  0  0  0  0  0  0  0  0  0  0  0
   76.2280  -16.4890  -50.2151 H   0  0  0  0  0  0  0  0  0  0  0  0
   78.9588  -17.7693  -50.2923 H   0  0  0  0  0  0  0  0  0  0  0  0
   79.1412  -16.9737  -47.9633 H   0  0  0  0  0  0  0  0  0  0  0  0
   78.9686  -15.6302  -49.1748 H   0  0  0  0  0  0  0  0  0  0  0  0
   76.7323  -20.6363  -48.3774 H   0  0  0  0  0  0  0  0  0  0  0  0
   75.9128  -21.1172  -51.6249 H   0  0  0  0  0  0  0  0  0  0  0  0
   74.9006  -17.1464  -52.0993 H   0  0  0  0  0  0  0  0  0  0  0  0
   77.5162  -16.0293  -46.9851 H   0  0  0  0  0  0  0  0  0  0  0  0
   79.2949   -9.9181  -50.8679 H   0  0  0  0  0  0  0  0  0  0  0  0
 26 24  2  0
 10  4  1  0
  9 24  1  0
  9  3  1  0
 24 25  2  0
 24 27  1  0
 21 15  1  0
  4  3  1  0
  4  5  1  0
 20 14  1  0
  2  3  1  0
  2  8  1  0
  2  1  1  0
 15 14  1  0
 15 16  1  0
  7  1  1  0
  7 16  1  0
 11  5  1  0
 11  1  1  0
  6  5  1  0
  6 12  1  0
 14 13  1  0
 16 17  1  0
 13 19  1  0
 13 22  1  0
 17 22  1  0
 17 18  1  0
 18 23  1  0
  1 28  1  0
  2 29  1  0
  3 30  1  0
  4 31  1  0
  5 32  1  0
  6 33  1  0
  6 34  1  0
  8 35  1  0
 10 36  1  0
 12 37  1  0
 13 38  1  0
 14 39  1  0
 15 40  1  0
 16 41  1  0
 17 42  1  0
 18 43  1  0
 18 44  1  0
 19 45  1  0
 20 46  1  0
 21 47  1  0
 23 48  1  0
 27 49  1  0
A    1
C1
A    2
C2
A    3
C3
A    4
C4
A    5
C5
A    6
C6
A    7
O1
A    8
O2
A    9
O3
A   10
O4
A   11
O5
A   12
O6
A   13
C1'
A   14
C2'
A   15
C3'
A   16
C4'
A   17
C5'
A   18
C6'
A   19
O1'
A   20
O2'
A   21
O3'
A   22
O5'
A   23
O6'
A   24
S
A   25
OS1
A   26
OS2
A   27
OS3
M  END
