5DWI_5G3_A_900
     RDKit          3D

 38 40  0  0  0  0  0  0  0  0999 V2000
  -24.5010  -25.3280   -5.4180 O   0  0  0  0  0  0  0  0  0  0  0  0
  -23.1340  -25.6370   -5.2610 C   0  0  0  0  0  0  0  0  0  0  0  0
  -22.7320  -26.9510   -5.0760 C   0  0  0  0  0  0  0  0  0  0  0  0
  -21.3830  -27.2460   -4.9230 C   0  0  0  0  0  0  0  0  0  0  0  0
  -20.4310  -26.2350   -4.9510 C   0  0  0  0  0  0  0  0  0  0  0  0
  -18.9550  -26.5670   -4.7850 C   0  0  0  0  0  0  0  0  0  0  0  0
  -18.2720  -26.1250   -3.4970 C   0  0  0  0  0  0  0  0  0  0  0  0
  -19.0750  -25.7490   -2.4280 C   0  0  0  0  0  0  0  0  0  0  0  0
  -18.5120  -25.3360   -1.2330 C   0  0  0  0  0  0  0  0  0  0  0  0
  -17.1360  -25.2970   -1.0950 C   0  0  0  0  0  0  0  0  0  0  0  0
  -16.5630  -24.8790    0.1180 O   0  0  0  0  0  0  0  0  0  0  0  0
  -16.3260  -25.6690   -2.1540 C   0  0  0  0  0  0  0  0  0  0  0  0
  -16.8860  -26.0840   -3.3530 C   0  0  0  0  0  0  0  0  0  0  0  0
  -16.0230  -26.4510   -4.4000 O   0  0  0  0  0  0  0  0  0  0  0  0
  -18.2290  -26.9710   -5.8070 N   0  0  0  0  0  0  0  0  0  0  0  0
  -18.7530  -27.4850   -7.0280 C   0  0  0  0  0  0  0  0  0  0  0  0
  -18.4390  -28.7780   -7.4260 C   0  0  0  0  0  0  0  0  0  0  0  0
  -17.4180  -29.7880   -6.4400 Cl  0  0  0  0  0  0  0  0  0  0  0  0
  -18.9350  -29.2760   -8.6210 C   0  0  0  0  0  0  0  0  0  0  0  0
  -19.7470  -28.4920   -9.4210 C   0  0  0  0  0  0  0  0  0  0  0  0
  -20.0620  -27.2020   -9.0320 C   0  0  0  0  0  0  0  0  0  0  0  0
  -19.5580  -26.6990   -7.8440 C   0  0  0  0  0  0  0  0  0  0  0  0
  -20.8400  -24.9220   -5.1410 C   0  0  0  0  0  0  0  0  0  0  0  0
  -22.1880  -24.6230   -5.2930 C   0  0  0  0  0  0  0  0  0  0  0  0
  -25.0739  -25.1985   -4.6211 H   0  0  0  0  0  0  0  0  0  0  0  0
  -23.4792  -27.7578   -5.0504 H   0  0  0  0  0  0  0  0  0  0  0  0
  -21.0661  -28.2894   -4.7784 H   0  0  0  0  0  0  0  0  0  0  0  0
  -20.1696  -25.7798   -2.5322 H   0  0  0  0  0  0  0  0  0  0  0  0
  -19.1581  -25.0390   -0.3937 H   0  0  0  0  0  0  0  0  0  0  0  0
  -16.9591  -25.1679    0.9781 H   0  0  0  0  0  0  0  0  0  0  0  0
  -15.2320  -25.6353   -2.0440 H   0  0  0  0  0  0  0  0  0  0  0  0
  -15.1314  -26.8302   -4.1967 H   0  0  0  0  0  0  0  0  0  0  0  0
  -18.6817  -30.2995   -8.9346 H   0  0  0  0  0  0  0  0  0  0  0  0
  -20.1420  -28.8939  -10.3657 H   0  0  0  0  0  0  0  0  0  0  0  0
  -20.7107  -26.5779   -9.6643 H   0  0  0  0  0  0  0  0  0  0  0  0
  -19.7970  -25.6682   -7.5436 H   0  0  0  0  0  0  0  0  0  0  0  0
  -20.0933  -24.1148   -5.1713 H   0  0  0  0  0  0  0  0  0  0  0  0
  -22.5059  -23.5801   -5.4390 H   0  0  0  0  0  0  0  0  0  0  0  0
 20 21  2  0
 20 19  1  0
 21 22  1  0
 19 17  2  0
 22 16  2  0
 17 16  1  0
 17 18  1  0
 16 15  1  0
 15  6  2  0
  1  2  1  0
 24  2  2  0
 24 23  1  0
  2  3  1  0
 23  5  2  0
  3  4  2  0
  5  4  1  0
  5  6  1  0
  6  7  1  0
 14 13  1  0
  7 13  1  0
  7  8  2  0
 13 12  2  0
  8  9  1  0
 12 10  1  0
  9 10  2  0
 10 11  1  0
  1 25  1  0
  3 26  1  0
  4 27  1  0
  8 28  1  0
  9 29  1  0
 11 30  1  0
 12 31  1  0
 14 32  1  0
 19 33  1  0
 20 34  1  0
 21 35  1  0
 22 36  1  0
 23 37  1  0
 24 38  1  0
A    1
O01
A    2
C02
A    3
C03
A    4
C04
A    5
C05
A    6
C06
A    7
C07
A    8
C08
A    9
C09
A   10
C10
A   11
O11
A   12
C12
A   13
C13
A   14
O14
A   15
N15
A   16
C16
A   17
C17
A   18
CL1
A   19
C19
A   20
C20
A   21
C21
A   22
C22
A   23
C23
A   24
C24
M  END
