1AQJ_SFG_A_500
     RDKit          3D

 50 52  0  0  0  0  0  0  0  0999 V2000
   35.0350   36.8700   16.4130 N   0  0  0  0  0  0  0  0  0  0  0  0
   35.5490   37.6800   15.3140 C   0  0  0  0  0  0  0  0  0  0  0  0
   35.3180   36.9490   13.9970 C   0  0  0  0  0  0  0  0  0  0  0  0
   35.5060   35.7160   13.9700 O   0  0  0  0  0  0  0  0  0  0  0  0
   34.9580   37.6160   13.0100 O   0  0  0  0  0  0  0  0  0  0  0  0
   37.0500   37.9380   15.4770 C   0  0  0  0  0  0  0  0  0  0  0  0
   37.4660   38.7330   16.7040 C   0  0  0  0  0  0  0  0  0  0  0  0
   38.9810   38.7180   16.9120 C   0  0  0  0  0  0  0  0  0  0  0  0
   39.3780   39.5750   18.0710 N   0  0  0  0  0  0  0  0  0  0  0  0
   39.6110   39.2090   15.6140 C   0  0  0  0  0  0  0  0  0  0  0  0
   41.0290   39.7080   15.7650 C   0  0  0  0  0  0  0  0  0  0  0  0
   41.8610   38.7160   16.3940 O   0  0  0  0  0  0  0  0  0  0  0  0
   41.6210   40.0390   14.4110 C   0  0  0  0  0  0  0  0  0  0  0  0
   41.9830   41.4180   14.3700 O   0  0  0  0  0  0  0  0  0  0  0  0
   42.8460   39.1770   14.2770 C   0  0  0  0  0  0  0  0  0  0  0  0
   43.9530   39.9590   13.8160 O   0  0  0  0  0  0  0  0  0  0  0  0
   43.1030   38.6250   15.6680 C   0  0  0  0  0  0  0  0  0  0  0  0
   43.5990   37.2270   15.6110 N   0  0  0  0  0  0  0  0  0  0  0  0
   43.2180   36.2030   14.8020 C   0  0  0  0  0  0  0  0  0  0  0  0
   43.8450   35.0770   14.9420 N   0  0  0  0  0  0  0  0  0  0  0  0
   44.7580   35.3670   15.9710 C   0  0  0  0  0  0  0  0  0  0  0  0
   45.6230   34.5530   16.7290 C   0  0  0  0  0  0  0  0  0  0  0  0
   45.8100   33.2600   16.4740 N   0  0  0  0  0  0  0  0  0  0  0  0
   46.2510   35.1200   17.7820 N   0  0  0  0  0  0  0  0  0  0  0  0
   46.0250   36.4040   18.0600 C   0  0  0  0  0  0  0  0  0  0  0  0
   45.2360   37.2720   17.4350 N   0  0  0  0  0  0  0  0  0  0  0  0
   44.6170   36.6820   16.3840 C   0  0  0  0  0  0  0  0  0  0  0  0
   35.3060   37.2971   17.3103 H   0  0  0  0  0  0  0  0  0  0  0  0
   34.0080   36.8211   16.3524 H   0  0  0  0  0  0  0  0  0  0  0  0
   35.0194   38.6441   15.3190 H   0  0  0  0  0  0  0  0  0  0  0  0
   34.4918   38.4797   13.1396 H   0  0  0  0  0  0  0  0  0  0  0  0
   37.5551   36.9619   15.5227 H   0  0  0  0  0  0  0  0  0  0  0  0
   37.3372   38.5572   14.6144 H   0  0  0  0  0  0  0  0  0  0  0  0
   37.1351   39.7748   16.5808 H   0  0  0  0  0  0  0  0  0  0  0  0
   36.9984   38.2675   17.5841 H   0  0  0  0  0  0  0  0  0  0  0  0
   39.3307   37.7027   17.1503 H   0  0  0  0  0  0  0  0  0  0  0  0
   39.1527   39.0887   18.9506 H   0  0  0  0  0  0  0  0  0  0  0  0
   40.3905   39.7598   18.0304 H   0  0  0  0  0  0  0  0  0  0  0  0
   39.6127   38.3767   14.8947 H   0  0  0  0  0  0  0  0  0  0  0  0
   39.0090   40.0644   15.2737 H   0  0  0  0  0  0  0  0  0  0  0  0
   40.9948   40.6106   16.3928 H   0  0  0  0  0  0  0  0  0  0  0  0
   40.9079   39.8547   13.5939 H   0  0  0  0  0  0  0  0  0  0  0  0
   42.0736   41.7630   15.2935 H   0  0  0  0  0  0  0  0  0  0  0  0
   42.7089   38.3673   13.5452 H   0  0  0  0  0  0  0  0  0  0  0  0
   44.4537   40.3127   14.5934 H   0  0  0  0  0  0  0  0  0  0  0  0
   43.8877   39.2051   16.1757 H   0  0  0  0  0  0  0  0  0  0  0  0
   42.4136   36.3245   14.0616 H   0  0  0  0  0  0  0  0  0  0  0  0
   45.9068   32.5906   17.2508 H   0  0  0  0  0  0  0  0  0  0  0  0
   45.8579   32.9289   15.4999 H   0  0  0  0  0  0  0  0  0  0  0  0
   46.5685   36.8015   18.9299 H   0  0  0  0  0  0  0  0  0  0  0  0
  1  2  1  0
  2  3  1  0
  2  6  1  0
  3  4  2  0
  3  5  1  0
  6  7  1  0
  7  8  1  0
  8  9  1  0
  8 10  1  0
 10 11  1  0
 11 12  1  0
 11 13  1  0
 12 17  1  0
 13 14  1  0
 13 15  1  0
 15 16  1  0
 15 17  1  0
 17 18  1  0
 18 19  1  0
 18 27  1  0
 19 20  2  0
 20 21  1  0
 21 22  1  0
 21 27  2  0
 22 23  1  0
 22 24  2  0
 24 25  1  0
 25 26  2  0
 26 27  1  0
  1 28  1  0
  1 29  1  0
  2 30  1  0
  5 31  1  0
  6 32  1  0
  6 33  1  0
  7 34  1  0
  7 35  1  0
  8 36  1  0
  9 37  1  0
  9 38  1  0
 10 39  1  0
 10 40  1  0
 11 41  1  0
 13 42  1  0
 14 43  1  0
 15 44  1  0
 16 45  1  0
 17 46  1  0
 19 47  1  0
 23 48  1  0
 23 49  1  0
 25 50  1  0
A    1
N
A    2
CA
A    3
C
A    4
O
A    5
OXT
A    6
CB
A    7
CG
A    8
CD
A    9
NE
A   10
C5'
A   11
C4'
A   12
O4'
A   13
C3'
A   14
O3'
A   15
C2'
A   16
O2'
A   17
C1'
A   18
N9
A   19
C8
A   20
N7
A   21
C5
A   22
C6
A   23
N6
A   24
N1
A   25
C2
A   26
N3
A   27
C4
M  END
