5DX4_E0C_A_201
     RDKit          3D

 45 48  0  0  0  0  0  0  0  0999 V2000
   -8.6490    5.5150    3.7430 C   0  0  0  0  0  0  0  0  0  0  0  0
   -9.2730    6.7530    4.3090 C   0  0  0  0  0  0  0  0  0  0  0  0
   -9.0270    7.8630    3.3220 N   0  0  0  0  0  0  0  0  0  0  0  0
   -9.8070    8.1750    2.2750 C   0  0  0  0  0  0  0  0  0  0  0  0
  -10.8650    7.6110    1.9570 O   0  0  0  0  0  0  0  0  0  0  0  0
   -9.2720    9.2050    1.6100 C   0  0  0  0  0  0  0  0  0  0  0  0
   -9.6250    9.8900    0.5210 C   0  0  0  0  0  0  0  0  0  0  0  0
   -8.8140   10.9430    0.0780 C   0  0  0  0  0  0  0  0  0  0  0  0
   -7.6450   11.2680    0.7770 C   0  0  0  0  0  0  0  0  0  0  0  0
   -7.3130   10.5180    1.9100 C   0  0  0  0  0  0  0  0  0  0  0  0
   -8.1550    9.5260    2.2660 C   0  0  0  0  0  0  0  0  0  0  0  0
   -7.9880    8.7130    3.3170 C   0  0  0  0  0  0  0  0  0  0  0  0
   -6.9150    8.8790    4.1050 C   0  0  0  0  0  0  0  0  0  0  0  0
   -5.9860    9.8960    3.8130 C   0  0  0  0  0  0  0  0  0  0  0  0
   -6.1700   10.7310    2.6990 C   0  0  0  0  0  0  0  0  0  0  0  0
   -5.3110   11.7360    2.3780 N   0  0  0  0  0  0  0  0  0  0  0  0
   -3.8010   11.3390    1.7120 S   0  0  0  0  0  0  0  0  0  0  0  0
   -3.1660   10.2460    2.5750 O   0  0  0  0  0  0  0  0  0  0  0  0
   -2.9160   12.5770    1.6170 O   0  0  0  0  0  0  0  0  0  0  0  0
   -4.0050   10.6530    0.0830 C   0  0  0  0  0  0  0  0  0  0  0  0
   -3.7130    9.2990   -0.1130 C   0  0  0  0  0  0  0  0  0  0  0  0
   -3.8440    8.7160   -1.3660 C   0  0  0  0  0  0  0  0  0  0  0  0
   -3.4610    6.8680   -1.5810 Br  0  0  0  0  0  0  0  0  0  0  0  0
   -4.2680    9.4890   -2.4360 C   0  0  0  0  0  0  0  0  0  0  0  0
   -4.5520   10.8490   -2.2580 C   0  0  0  0  0  0  0  0  0  0  0  0
   -4.4200   11.4490   -0.9970 C   0  0  0  0  0  0  0  0  0  0  0  0
   -4.6840   12.7810   -0.7090 O   0  0  0  0  0  0  0  0  0  0  0  0
   -5.3070   13.5980   -1.7250 C   0  0  0  0  0  0  0  0  0  0  0  0
   -8.3198    4.8618    4.5646 H   0  0  0  0  0  0  0  0  0  0  0  0
   -9.3864    4.9826    3.1243 H   0  0  0  0  0  0  0  0  0  0  0  0
   -7.7824    5.7911    3.1243 H   0  0  0  0  0  0  0  0  0  0  0  0
   -8.8119    6.9995    5.2768 H   0  0  0  0  0  0  0  0  0  0  0  0
  -10.3507    6.6079    4.4748 H   0  0  0  0  0  0  0  0  0  0  0  0
  -10.5445    9.6304   -0.0241 H   0  0  0  0  0  0  0  0  0  0  0  0
   -9.0955   11.5144   -0.8188 H   0  0  0  0  0  0  0  0  0  0  0  0
   -7.0017   12.0952    0.4423 H   0  0  0  0  0  0  0  0  0  0  0  0
   -6.7617    8.2237    4.9751 H   0  0  0  0  0  0  0  0  0  0  0  0
   -5.1095   10.0375    4.4624 H   0  0  0  0  0  0  0  0  0  0  0  0
   -5.5721   12.7197    2.5362 H   0  0  0  0  0  0  0  0  0  0  0  0
   -3.3751    8.6881    0.7371 H   0  0  0  0  0  0  0  0  0  0  0  0
   -4.3820    9.0318   -3.4300 H   0  0  0  0  0  0  0  0  0  0  0  0
   -4.8820   11.4529   -3.1161 H   0  0  0  0  0  0  0  0  0  0  0  0
   -5.9073   14.3852   -1.2454 H   0  0  0  0  0  0  0  0  0  0  0  0
   -4.5298   14.0600   -2.3515 H   0  0  0  0  0  0  0  0  0  0  0  0
   -5.9582   12.9708   -2.3515 H   0  0  0  0  0  0  0  0  0  0  0  0
 24 25  2  0
 24 22  1  0
 25 26  1  0
 28 27  1  0
 23 22  1  0
 22 21  2  0
 26 27  1  0
 26 20  2  0
 21 20  1  0
  8  7  1  0
  8  9  2  0
 20 17  1  0
  7  6  2  0
  9 10  1  0
  6 11  1  0
  6  4  1  0
 19 17  2  0
 17 16  1  0
 17 18  2  0
 10 11  2  0
 10 15  1  0
  5  4  2  0
 11 12  1  0
  4  3  1  0
 16 15  1  0
 15 14  2  0
 12  3  1  0
 12 13  2  0
  3  2  1  0
  1  2  1  0
 14 13  1  0
  1 29  1  0
  1 30  1  0
  1 31  1  0
  2 32  1  0
  2 33  1  0
  7 34  1  0
  8 35  1  0
  9 36  1  0
 13 37  1  0
 14 38  1  0
 16 39  1  0
 21 40  1  0
 24 41  1  0
 25 42  1  0
 28 43  1  0
 28 44  1  0
 28 45  1  0
A    1
CAO
A    2
CAN
A    3
NAA
A    4
CAE
A    5
OAM
A    6
CAD
A    7
CAL
A    8
CAK
A    9
CAJ
A   10
CAI
A   11
CAC
A   12
CAB
A   13
CAF
A   14
CAG
A   15
CAH
A   16
NAP
A   17
SAQ
A   18
OAR
A   19
OAS
A   20
CAT
A   21
CAU
A   22
CAV
A   23
BRA
A   24
CAW
A   25
CAX
A   26
CAY
A   27
OBA
A   28
CBB
M  END
