5DXH_5H2_A_1101
     RDKit          3D

 48 52  0  0  0  0  0  0  0  0999 V2000
   -0.9830    0.3700    1.0860 C   0  0  0  0  0  0  0  0  0  0  0  0
    1.4540    0.4860    0.9700 C   0  0  0  0  0  0  0  0  0  0  0  0
    1.3810    1.8250    0.4760 C   0  0  0  0  0  0  0  0  0  0  0  0
   -3.9460    0.9970    0.1140 O   0  0  0  0  0  0  0  0  0  0  0  0
   -2.2000    2.4360    0.4410 N   0  0  0  0  0  0  0  0  0  0  0  0
   -1.0380    1.6970    0.6590 C   0  0  0  0  0  0  0  0  0  0  0  0
   -3.8270    4.5620   -0.1680 C   0  0  0  0  0  0  0  0  0  0  0  0
   -4.3390    3.1700   -0.1090 O   0  0  0  0  0  0  0  0  0  0  0  0
   -3.5000    2.1260    0.1460 C   0  0  0  0  0  0  0  0  0  0  0  0
    0.2680   -0.2290    1.2440 C   0  0  0  0  0  0  0  0  0  0  0  0
    2.5050    2.5610    0.2440 O   0  0  0  0  0  0  0  0  0  0  0  0
    3.5760    2.0860   -0.5640 C   0  0  0  0  0  0  0  0  0  0  0  0
    4.5950    1.4600    0.3530 C   0  0  0  0  0  0  0  0  0  0  0  0
    4.0770    0.1170    0.8190 C   0  0  0  0  0  0  0  0  0  0  0  0
    2.7530   -0.2250    1.1210 C   0  0  0  0  0  0  0  0  0  0  0  0
    2.7100   -1.8620    1.6150 S   0  0  0  0  0  0  0  0  0  0  0  0
    4.4390   -2.0710    1.4730 C   0  0  0  0  0  0  0  0  0  0  0  0
    4.9660   -0.9070    1.0320 C   0  0  0  0  0  0  0  0  0  0  0  0
    5.1860   -3.2910    1.8350 C   0  0  0  0  0  0  0  0  0  0  0  0
    6.4990   -3.4580    1.7360 N   0  0  0  0  0  0  0  0  0  0  0  0
    6.8100   -4.6380    2.1560 N   0  0  0  0  0  0  0  0  0  0  0  0
    5.7410   -5.2800    2.5400 C   0  0  0  0  0  0  0  0  0  0  0  0
    4.6700   -4.4480    2.3820 N   0  0  0  0  0  0  0  0  0  0  0  0
    3.3390   -4.7390    2.7250 C   0  0  0  0  0  0  0  0  0  0  0  0
    2.4880   -5.3560    1.8170 C   0  0  0  0  0  0  0  0  0  0  0  0
    1.1730   -5.6410    2.1770 C   0  0  0  0  0  0  0  0  0  0  0  0
    0.6890   -5.3080    3.4360 C   0  0  0  0  0  0  0  0  0  0  0  0
    1.5240   -4.6870    4.3530 C   0  0  0  0  0  0  0  0  0  0  0  0
    2.8400   -4.4160    3.9930 C   0  0  0  0  0  0  0  0  0  0  0  0
    3.8560   -3.6400    5.1500 Cl  0  0  0  0  0  0  0  0  0  0  0  0
    0.1290    2.4050    0.3680 C   0  0  0  0  0  0  0  0  0  0  0  0
   -1.9054   -0.1921    1.2937 H   0  0  0  0  0  0  0  0  0  0  0  0
   -2.0438    3.4510    0.5204 H   0  0  0  0  0  0  0  0  0  0  0  0
   -3.6863    4.9445    0.8537 H   0  0  0  0  0  0  0  0  0  0  0  0
   -2.8647    4.5765   -0.7007 H   0  0  0  0  0  0  0  0  0  0  0  0
   -4.5506    5.1966   -0.7007 H   0  0  0  0  0  0  0  0  0  0  0  0
    0.3305   -1.2724    1.5867 H   0  0  0  0  0  0  0  0  0  0  0  0
    3.2035    1.3368   -1.2781 H   0  0  0  0  0  0  0  0  0  0  0  0
    4.0254    2.9120   -1.1347 H   0  0  0  0  0  0  0  0  0  0  0  0
    5.5430    1.3225   -0.1878 H   0  0  0  0  0  0  0  0  0  0  0  0
    4.7667    2.1142    1.2205 H   0  0  0  0  0  0  0  0  0  0  0  0
    6.0449   -0.7873    0.8541 H   0  0  0  0  0  0  0  0  0  0  0  0
    5.7083   -6.3104    2.9236 H   0  0  0  0  0  0  0  0  0  0  0  0
    2.8527   -5.6196    0.8133 H   0  0  0  0  0  0  0  0  0  0  0  0
    0.5083   -6.1368    1.4543 H   0  0  0  0  0  0  0  0  0  0  0  0
   -0.3530   -5.5361    3.7047 H   0  0  0  0  0  0  0  0  0  0  0  0
    1.1508   -4.4127    5.3508 H   0  0  0  0  0  0  0  0  0  0  0  0
    0.0516    3.4533    0.0438 H   0  0  0  0  0  0  0  0  0  0  0  0
 12 11  1  0
 12 13  1  0
  7  8  1  0
  8  9  1  0
  4  9  2  0
  9  5  1  0
 11  3  1  0
 13 14  1  0
 31  3  2  0
 31  6  1  0
  5  6  1  0
  3  2  1  0
  6  1  2  0
 14 18  1  0
 14 15  2  0
  2 15  1  0
  2 10  2  0
 18 17  2  0
  1 10  1  0
 15 16  1  0
 17 16  1  0
 17 19  1  0
 20 19  2  0
 20 21  1  0
 25 26  2  0
 25 24  1  0
 19 23  1  0
 21 22  2  0
 26 27  1  0
 23 22  1  0
 23 24  1  0
 24 29  2  0
 27 28  2  0
 29 28  1  0
 29 30  1  0
  1 32  1  0
  5 33  1  0
  7 34  1  0
  7 35  1  0
  7 36  1  0
 10 37  1  0
 12 38  1  0
 12 39  1  0
 13 40  1  0
 13 41  1  0
 18 42  1  0
 22 43  1  0
 25 44  1  0
 26 45  1  0
 27 46  1  0
 28 47  1  0
 31 48  1  0
A    1
C7
A    2
C9
A    3
C10
A    4
O4
A    5
N5
A    6
C6
A    7
C1
A    8
O2
A    9
C3
A   10
C8
A   11
O11
A   12
C12
A   13
C13
A   14
C14
A   15
C15
A   16
S16
A   17
C17
A   18
C18
A   19
C19
A   20
N20
A   21
N21
A   22
C22
A   23
N23
A   24
C24
A   25
C25
A   26
C26
A   27
C27
A   28
C28
A   29
C29
A   30
CL
A   31
C31
M  END
