5DXK_5J1_A_900
     RDKit          3D

 50 53  0  0  0  0  0  0  0  0999 V2000
   18.9410   -3.0520    8.0960 C   0  0  0  0  0  0  0  0  0  0  0  0
   17.4440   -3.2910    8.3050 C   0  0  0  0  0  0  0  0  0  0  0  0
   16.6650   -3.5830    7.0140 C   0  0  0  0  0  0  0  0  0  0  0  0
   17.4490   -4.1920    5.8350 C   0  0  0  0  0  0  0  0  0  0  0  0
   17.6050   -5.7290    5.8840 C   0  0  0  0  0  0  0  0  0  0  0  0
   18.5090   -6.2580    7.0040 C   0  0  0  0  0  0  0  0  0  0  0  0
   19.7490   -5.3790    7.2330 C   0  0  0  0  0  0  0  0  0  0  0  0
   19.5870   -3.8650    6.9550 C   0  0  0  0  0  0  0  0  0  0  0  0
   18.8250   -3.5500    5.6670 C   0  0  0  0  0  0  0  0  0  0  0  0
   19.2080   -2.5980    4.7530 C   0  0  0  0  0  0  0  0  0  0  0  0
   20.4920   -2.1330    4.7780 C   0  0  0  0  0  0  0  0  0  0  0  0
   18.4800   -2.2650    3.6340 C   0  0  0  0  0  0  0  0  0  0  0  0
   19.0110   -2.3910    2.3930 C   0  0  0  0  0  0  0  0  0  0  0  0
   18.3410   -2.0750    1.2710 C   0  0  0  0  0  0  0  0  0  0  0  0
   17.0860   -1.6010    1.3180 C   0  0  0  0  0  0  0  0  0  0  0  0
   16.5350   -1.4610    2.5320 C   0  0  0  0  0  0  0  0  0  0  0  0
   17.2180   -1.7770    3.6430 C   0  0  0  0  0  0  0  0  0  0  0  0
   20.7730   -0.8640    5.1560 C   0  0  0  0  0  0  0  0  0  0  0  0
   22.0290   -0.3830    5.1950 C   0  0  0  0  0  0  0  0  0  0  0  0
   23.0840   -1.1470    4.8590 C   0  0  0  0  0  0  0  0  0  0  0  0
   22.8270   -2.4090    4.4860 C   0  0  0  0  0  0  0  0  0  0  0  0
   21.5710   -2.8780    4.4480 C   0  0  0  0  0  0  0  0  0  0  0  0
   24.3590   -0.6750    4.8940 O   0  0  0  0  0  0  0  0  0  0  0  0
   16.3970   -1.2770    0.1930 O   0  0  0  0  0  0  0  0  0  0  0  0
   19.4597   -3.3085    9.0315 H   0  0  0  0  0  0  0  0  0  0  0  0
   19.0426   -1.9946    7.8104 H   0  0  0  0  0  0  0  0  0  0  0  0
   17.0134   -2.3927    8.7716 H   0  0  0  0  0  0  0  0  0  0  0  0
   17.3529   -4.1863    8.9376 H   0  0  0  0  0  0  0  0  0  0  0  0
   16.2330   -2.6327    6.6672 H   0  0  0  0  0  0  0  0  0  0  0  0
   15.9343   -4.3557    7.2950 H   0  0  0  0  0  0  0  0  0  0  0  0
   16.8214   -3.9641    4.9608 H   0  0  0  0  0  0  0  0  0  0  0  0
   16.6054   -6.1684    6.0173 H   0  0  0  0  0  0  0  0  0  0  0  0
   18.0891   -6.0170    4.9392 H   0  0  0  0  0  0  0  0  0  0  0  0
   17.9275   -6.2955    7.9370 H   0  0  0  0  0  0  0  0  0  0  0  0
   18.8610   -7.2556    6.7025 H   0  0  0  0  0  0  0  0  0  0  0  0
   20.5496   -5.7545    6.5787 H   0  0  0  0  0  0  0  0  0  0  0  0
   19.9630   -5.4547    8.3093 H   0  0  0  0  0  0  0  0  0  0  0  0
   20.6358   -3.5484    6.8556 H   0  0  0  0  0  0  0  0  0  0  0  0
   19.2509   -3.7791    4.6790 H   0  0  0  0  0  0  0  0  0  0  0  0
   18.5335   -2.0355    5.4153 H   0  0  0  0  0  0  0  0  0  0  0  0
   20.0394   -2.7700    2.2995 H   0  0  0  0  0  0  0  0  0  0  0  0
   18.8310   -2.2075    0.2951 H   0  0  0  0  0  0  0  0  0  0  0  0
   15.5064   -1.0810    2.6188 H   0  0  0  0  0  0  0  0  0  0  0  0
   16.7245   -1.6312    4.6152 H   0  0  0  0  0  0  0  0  0  0  0  0
   19.9432   -0.2010    5.4421 H   0  0  0  0  0  0  0  0  0  0  0  0
   22.1968    0.6579    5.5086 H   0  0  0  0  0  0  0  0  0  0  0  0
   23.6601   -3.0707    4.2065 H   0  0  0  0  0  0  0  0  0  0  0  0
   21.4109   -3.9197    4.1330 H   0  0  0  0  0  0  0  0  0  0  0  0
   24.8024   -0.5109    5.7638 H   0  0  0  0  0  0  0  0  0  0  0  0
   15.5034   -0.8568    0.2636 H   0  0  0  0  0  0  0  0  0  0  0  0
 24 15  1  0
 14 15  1  0
 14 13  2  0
 15 16  2  0
 13 12  1  0
 16 17  1  0
 12 17  2  0
 12 10  1  0
 22 21  2  0
 22 11  1  0
 21 20  1  0
 10 11  1  0
 10  9  1  0
 11 18  2  0
 20 23  1  0
 20 19  2  0
 18 19  1  0
  9  4  1  0
  9  8  1  0
  4  5  1  0
  4  3  1  0
  5  6  1  0
  8  7  1  0
  8  1  1  0
  6  7  1  0
  3  2  1  0
  1  2  1  0
  1 25  1  0
  1 26  1  0
  2 27  1  0
  2 28  1  0
  3 29  1  0
  3 30  1  0
  4 31  1  0
  5 32  1  0
  5 33  1  0
  6 34  1  0
  6 35  1  0
  7 36  1  0
  7 37  1  0
  8 38  1  0
  9 39  1  0
 10 40  1  0
 13 41  1  0
 14 42  1  0
 16 43  1  0
 17 44  1  0
 18 45  1  0
 19 46  1  0
 21 47  1  0
 22 48  1  0
 23 49  1  0
 24 50  1  0
A    1
C01
A    2
C02
A    3
C03
A    4
C04
A    5
C05
A    6
C06
A    7
C07
A    8
C08
A    9
C09
A   10
C10
A   11
C11
A   12
C12
A   13
C13
A   14
C14
A   15
C15
A   16
C16
A   17
C17
A   18
C18
A   19
C19
A   20
C20
A   21
C21
A   22
C22
A   23
O01
A   24
O02
M  END
