5DXM_5J0_A_900
     RDKit          3D

 48 51  0  0  0  0  0  0  0  0999 V2000
   19.0870   -2.7770    8.5060 C   0  0  0  0  0  0  0  0  0  0  0  0
   17.6930   -3.3360    8.7050 C   0  0  0  0  0  0  0  0  0  0  0  0
   16.9440   -3.4200    7.3860 C   0  0  0  0  0  0  0  0  0  0  0  0
   17.7740   -3.8700    6.1980 C   0  0  0  0  0  0  0  0  0  0  0  0
   18.0790   -5.3650    6.2020 C   0  0  0  0  0  0  0  0  0  0  0  0
   19.0080   -5.8610    7.2880 C   0  0  0  0  0  0  0  0  0  0  0  0
   20.1410   -4.8910    7.5580 C   0  0  0  0  0  0  0  0  0  0  0  0
   19.8410   -3.4020    7.3530 C   0  0  0  0  0  0  0  0  0  0  0  0
   19.0580   -3.1030    6.0920 C   0  0  0  0  0  0  0  0  0  0  0  0
   19.4750   -2.3320    5.0580 C   0  0  0  0  0  0  0  0  0  0  0  0
   20.6840   -1.7380    5.0890 C   0  0  0  0  0  0  0  0  0  0  0  0
   18.7030   -1.9670    4.0050 C   0  0  0  0  0  0  0  0  0  0  0  0
   19.2390   -1.8220    2.7880 C   0  0  0  0  0  0  0  0  0  0  0  0
   18.5400   -1.4560    1.7310 C   0  0  0  0  0  0  0  0  0  0  0  0
   17.2520   -1.1950    1.8130 C   0  0  0  0  0  0  0  0  0  0  0  0
   16.6960   -1.3450    3.0020 C   0  0  0  0  0  0  0  0  0  0  0  0
   17.4040   -1.7000    4.0600 C   0  0  0  0  0  0  0  0  0  0  0  0
   21.8200   -2.4140    4.9280 C   0  0  0  0  0  0  0  0  0  0  0  0
   23.0190   -1.8720    4.9490 C   0  0  0  0  0  0  0  0  0  0  0  0
   23.1340   -0.5880    5.1490 C   0  0  0  0  0  0  0  0  0  0  0  0
   22.0400    0.1290    5.3270 C   0  0  0  0  0  0  0  0  0  0  0  0
   20.8520   -0.4430    5.2910 C   0  0  0  0  0  0  0  0  0  0  0  0
   16.5330   -0.8270    0.7570 O   0  0  0  0  0  0  0  0  0  0  0  0
   24.1130   -2.6020    4.7870 O   0  0  0  0  0  0  0  0  0  0  0  0
   19.6625   -2.9461    9.4280 H   0  0  0  0  0  0  0  0  0  0  0  0
   18.9712   -1.7090    8.2693 H   0  0  0  0  0  0  0  0  0  0  0  0
   17.1379   -2.6807    9.3923 H   0  0  0  0  0  0  0  0  0  0  0  0
   17.7795   -4.3499    9.1228 H   0  0  0  0  0  0  0  0  0  0  0  0
   16.5400   -2.4221    7.1602 H   0  0  0  0  0  0  0  0  0  0  0  0
   16.1684   -4.1877    7.5243 H   0  0  0  0  0  0  0  0  0  0  0  0
   17.1476   -3.6588    5.3188 H   0  0  0  0  0  0  0  0  0  0  0  0
   17.1242   -5.9007    6.3085 H   0  0  0  0  0  0  0  0  0  0  0  0
   18.6074   -5.5571    5.2565 H   0  0  0  0  0  0  0  0  0  0  0  0
   18.4300   -5.9974    8.2139 H   0  0  0  0  0  0  0  0  0  0  0  0
   19.4489   -6.8098    6.9485 H   0  0  0  0  0  0  0  0  0  0  0  0
   20.4526   -5.0265    8.6042 H   0  0  0  0  0  0  0  0  0  0  0  0
   20.9116   -5.1343    6.8116 H   0  0  0  0  0  0  0  0  0  0  0  0
   20.8453   -2.9599    7.2757 H   0  0  0  0  0  0  0  0  0  0  0  0
   20.3142   -2.0174    2.6627 H   0  0  0  0  0  0  0  0  0  0  0  0
   19.0451   -1.3667    0.7579 H   0  0  0  0  0  0  0  0  0  0  0  0
   15.6158   -1.1699    3.1143 H   0  0  0  0  0  0  0  0  0  0  0  0
   16.8931   -1.7778    5.0311 H   0  0  0  0  0  0  0  0  0  0  0  0
   21.7514   -3.4999    4.7664 H   0  0  0  0  0  0  0  0  0  0  0  0
   24.1251   -0.1112    5.1690 H   0  0  0  0  0  0  0  0  0  0  0  0
   22.1197    1.2113    5.5066 H   0  0  0  0  0  0  0  0  0  0  0  0
   19.9613    0.1861    5.4356 H   0  0  0  0  0  0  0  0  0  0  0  0
   15.6591   -0.3797    0.8847 H   0  0  0  0  0  0  0  0  0  0  0  0
   24.6088   -2.9329    5.5774 H   0  0  0  0  0  0  0  0  0  0  0  0
 23 15  1  0
 14 15  1  0
 14 13  2  0
 15 16  2  0
 13 12  1  0
 16 17  1  0
 12 17  2  0
 12 10  1  0
 24 19  1  0
 18 19  2  0
 18 11  1  0
 19 20  1  0
 10 11  1  0
 10  9  2  0
 11 22  2  0
 20 21  2  0
 22 21  1  0
  9  4  1  0
  9  8  1  0
  4  5  1  0
  4  3  1  0
  5  6  1  0
  6  7  1  0
  8  7  1  0
  8  1  1  0
  3  2  1  0
  1  2  1  0
  1 25  1  0
  1 26  1  0
  2 27  1  0
  2 28  1  0
  3 29  1  0
  3 30  1  0
  4 31  1  0
  5 32  1  0
  5 33  1  0
  6 34  1  0
  6 35  1  0
  7 36  1  0
  7 37  1  0
  8 38  1  0
 13 39  1  0
 14 40  1  0
 16 41  1  0
 17 42  1  0
 18 43  1  0
 20 44  1  0
 21 45  1  0
 22 46  1  0
 23 47  1  0
 24 48  1  0
A    1
C01
A    2
C02
A    3
C03
A    4
C04
A    5
C05
A    6
C06
A    7
C07
A    8
C08
A    9
C09
A   10
C10
A   11
C11
A   12
C12
A   13
C13
A   14
C14
A   15
C15
A   16
C16
A   17
C17
A   18
C18
A   19
C19
A   20
C20
A   21
C21
A   22
C22
A   23
O01
A   24
O02
M  END
