5DXT_5H5_A_1101
     RDKit          3D

 50 53  0  0  0  0  0  0  0  0999 V2000
  -21.0250   16.0860   31.7730 C   0  0  0  0  0  0  0  0  0  0  0  0
  -19.9520   15.9740   32.8340 C   0  0  0  0  0  0  0  0  0  0  0  0
  -20.2950   16.8850   34.0170 C   0  0  0  0  0  0  0  0  0  0  0  0
  -17.9960   15.5810   31.3580 C   0  0  0  0  0  0  0  0  0  0  0  0
  -14.3530   15.9060   28.3420 C   0  0  0  0  0  0  0  0  0  0  0  0
  -14.4050   12.4630   26.9250 C   0  0  0  0  0  0  0  0  0  0  0  0
  -15.4750   11.6310   27.0290 C   0  0  0  0  0  0  0  0  0  0  0  0
  -15.8180   13.2900   28.4110 C   0  0  0  0  0  0  0  0  0  0  0  0
  -16.5140   14.1300   29.4360 C   0  0  0  0  0  0  0  0  0  0  0  0
  -18.5140   14.4200   30.7710 C   0  0  0  0  0  0  0  0  0  0  0  0
  -15.2660    8.8040   24.8360 C   0  0  0  0  0  0  0  0  0  0  0  0
  -17.7900    9.3700   27.3350 C   0  0  0  0  0  0  0  0  0  0  0  0
  -20.8830   16.9490   30.7480 N   0  0  0  0  0  0  0  0  0  0  0  0
  -22.0030   15.3680   31.8240 O   0  0  0  0  0  0  0  0  0  0  0  0
  -18.6620   16.3320   32.2980 O   0  0  0  0  0  0  0  0  0  0  0  0
  -16.7250   16.0100   30.9710 C   0  0  0  0  0  0  0  0  0  0  0  0
  -15.9770   15.3150   30.0290 C   0  0  0  0  0  0  0  0  0  0  0  0
  -14.7570   15.7890   29.7010 O   0  0  0  0  0  0  0  0  0  0  0  0
  -13.6640   14.6120   27.9530 C   0  0  0  0  0  0  0  0  0  0  0  0
  -14.6000   13.5060   27.7720 N   0  0  0  0  0  0  0  0  0  0  0  0
  -16.2950   12.1750   27.9360 N   0  0  0  0  0  0  0  0  0  0  0  0
  -17.7880   13.7170   29.8350 C   0  0  0  0  0  0  0  0  0  0  0  0
  -15.6690   10.3700   26.2800 C   0  0  0  0  0  0  0  0  0  0  0  0
  -14.8600    9.9660   25.3250 N   0  0  0  0  0  0  0  0  0  0  0  0
  -16.3440    8.4330   25.4680 N   0  0  0  0  0  0  0  0  0  0  0  0
  -16.6370    9.4220   26.4210 N   0  0  0  0  0  0  0  0  0  0  0  0
  -17.7190    8.1050   28.1920 C   0  0  0  0  0  0  0  0  0  0  0  0
  -19.0700    9.3280   26.5000 C   0  0  0  0  0  0  0  0  0  0  0  0
  -19.9082   14.9296   33.1765 H   0  0  0  0  0  0  0  0  0  0  0  0
  -20.0949   16.3536   34.9591 H   0  0  0  0  0  0  0  0  0  0  0  0
  -19.6776   17.7942   33.9707 H   0  0  0  0  0  0  0  0  0  0  0  0
  -21.3587   17.1613   33.9707 H   0  0  0  0  0  0  0  0  0  0  0  0
  -13.6564   16.7499   28.2295 H   0  0  0  0  0  0  0  0  0  0  0  0
  -15.2240   16.0883   27.6954 H   0  0  0  0  0  0  0  0  0  0  0  0
  -13.5338   12.3168   26.2695 H   0  0  0  0  0  0  0  0  0  0  0  0
  -19.5138   14.0647   31.0612 H   0  0  0  0  0  0  0  0  0  0  0  0
  -14.7736    8.2432   24.0279 H   0  0  0  0  0  0  0  0  0  0  0  0
  -17.7817   10.2539   27.9897 H   0  0  0  0  0  0  0  0  0  0  0  0
  -20.7186   17.9484   30.9352 H   0  0  0  0  0  0  0  0  0  0  0  0
  -20.9389   16.6093   29.7772 H   0  0  0  0  0  0  0  0  0  0  0  0
  -16.3055   16.9208   31.4232 H   0  0  0  0  0  0  0  0  0  0  0  0
  -12.9497   14.3421   28.7448 H   0  0  0  0  0  0  0  0  0  0  0  0
  -13.1601   14.7811   26.9899 H   0  0  0  0  0  0  0  0  0  0  0  0
  -18.2215   12.8087   29.3910 H   0  0  0  0  0  0  0  0  0  0  0  0
  -17.7345    8.3819   29.2565 H   0  0  0  0  0  0  0  0  0  0  0  0
  -18.5824    7.4614   27.9679 H   0  0  0  0  0  0  0  0  0  0  0  0
  -16.7890    7.5620   27.9679 H   0  0  0  0  0  0  0  0  0  0  0  0
  -19.9431    9.2994   27.1685 H   0  0  0  0  0  0  0  0  0  0  0  0
  -19.1234   10.2249   25.8654 H   0  0  0  0  0  0  0  0  0  0  0  0
  -19.0645    8.4296   25.8654 H   0  0  0  0  0  0  0  0  0  0  0  0
 11 24  1  0
 11 25  2  0
 24 23  2  0
 25 26  1  0
 23 26  1  0
 23  7  1  0
 26 12  1  0
 28 12  1  0
  6  7  2  0
  6 20  1  0
  7 21  1  0
 12 27  1  0
 20 19  1  0
 20  8  1  0
 21  8  2  0
 19  5  1  0
  5 18  1  0
  8  9  1  0
  9 22  2  0
  9 17  1  0
 18 17  1  0
 22 10  1  0
 17 16  2  0
 13  1  1  0
 10  4  2  0
 16  4  1  0
  4 15  1  0
  1 14  2  0
  1  2  1  0
 15  2  1  0
  2  3  1  0
  2 29  1  0
  3 30  1  0
  3 31  1  0
  3 32  1  0
  5 33  1  0
  5 34  1  0
  6 35  1  0
 10 36  1  0
 11 37  1  0
 12 38  1  0
 13 39  1  0
 13 40  1  0
 16 41  1  0
 19 42  1  0
 19 43  1  0
 22 44  1  0
 27 45  1  0
 27 46  1  0
 27 47  1  0
 28 48  1  0
 28 49  1  0
 28 50  1  0
A    1
C2
A    2
C4
A    3
C6
A    4
C8
A    5
C12
A    6
C15
A    7
C16
A    8
C18
A    9
C19
A   10
C21
A   11
C24
A   12
C27
A   13
N1
A   14
O3
A   15
O7
A   16
C9
A   17
C10
A   18
O11
A   19
C13
A   20
N14
A   21
N17
A   22
C20
A   23
C22
A   24
N23
A   25
N25
A   26
N26
A   27
C28
A   28
C29
M  END
