5DY5_5GR_A_402
     RDKit          3D

 66 70  0  0  0  0  0  0  0  0999 V2000
    2.3090    2.5260   24.1620 C   0  0  0  0  0  0  0  0  0  0  0  0
    1.9150   -0.1700   24.7320 C   0  0  0  0  0  0  0  0  0  0  0  0
    1.5660   -2.2470   25.5910 C   0  0  0  0  0  0  0  0  0  0  0  0
    7.6430    0.6510   22.4520 C   0  0  0  0  0  0  0  0  0  0  0  0
    8.4400    0.8040   19.1210 C   0  0  0  0  0  0  0  0  0  0  0  0
    8.1410   -0.7580   16.8150 C   0  0  0  0  0  0  0  0  0  0  0  0
    5.4660    0.2010   14.7980 C   0  0  0  0  0  0  0  0  0  0  0  0
    6.8610    3.8090   12.4660 C   0  0  0  0  0  0  0  0  0  0  0  0
    7.1740    0.5660   18.5870 C   0  0  0  0  0  0  0  0  0  0  0  0
    3.7500    3.5880   22.5680 O   0  0  0  0  0  0  0  0  0  0  0  0
    3.5930    2.6730   23.3710 C   0  0  0  0  0  0  0  0  0  0  0  0
    1.1160    1.1640   23.9230 S   0  0  0  0  0  0  0  0  0  0  0  0
    1.0860   -1.2160   24.8730 N   0  0  0  0  0  0  0  0  0  0  0  0
    0.6420   -3.4060   25.8100 C   0  0  0  0  0  0  0  0  0  0  0  0
    2.8470   -2.2210   26.1180 C   0  0  0  0  0  0  0  0  0  0  0  0
    3.6290   -1.1000   25.9020 C   0  0  0  0  0  0  0  0  0  0  0  0
    5.0480   -1.0190   26.3780 C   0  0  0  0  0  0  0  0  0  0  0  0
    3.1620   -0.0440   25.2140 N   0  0  0  0  0  0  0  0  0  0  0  0
    4.5640    1.7610   23.6750 N   0  0  0  0  0  0  0  0  0  0  0  0
    5.7220    1.5700   22.9460 C   0  0  0  0  0  0  0  0  0  0  0  0
    6.1540    2.4510   21.5210 S   0  0  0  0  0  0  0  0  0  0  0  0
    7.6080    1.5210   21.4210 C   0  0  0  0  0  0  0  0  0  0  0  0
    6.5830    0.6670   23.3220 N   0  0  0  0  0  0  0  0  0  0  0  0
    8.6110    1.7110   20.3210 C   0  0  0  0  0  0  0  0  0  0  0  0
    7.0310   -0.2120   17.4470 C   0  0  0  0  0  0  0  0  0  0  0  0
    9.3960   -0.5340   17.3560 C   0  0  0  0  0  0  0  0  0  0  0  0
    9.5430    0.2350   18.4990 C   0  0  0  0  0  0  0  0  0  0  0  0
    5.7080   -0.2650   17.0830 O   0  0  0  0  0  0  0  0  0  0  0  0
    5.2950   -0.8420   15.8460 C   0  0  0  0  0  0  0  0  0  0  0  0
    4.4620    1.0560   14.4650 N   0  0  0  0  0  0  0  0  0  0  0  0
    4.8980    1.8970   13.5560 N   0  0  0  0  0  0  0  0  0  0  0  0
    6.1760    1.5740   13.3050 N   0  0  0  0  0  0  0  0  0  0  0  0
    6.5610    0.5320   14.0580 C   0  0  0  0  0  0  0  0  0  0  0  0
    6.9420    2.3110   12.2900 C   0  0  0  0  0  0  0  0  0  0  0  0
    6.3080    4.6140   11.4770 C   0  0  0  0  0  0  0  0  0  0  0  0
    6.2270    5.9870   11.6440 C   0  0  0  0  0  0  0  0  0  0  0  0
    6.6990    6.5740   12.8010 C   0  0  0  0  0  0  0  0  0  0  0  0
    7.2510    5.7860   13.7910 C   0  0  0  0  0  0  0  0  0  0  0  0
    7.3330    4.4130   13.6240 C   0  0  0  0  0  0  0  0  0  0  0  0
    2.6129    2.4751   25.2180 H   0  0  0  0  0  0  0  0  0  0  0  0
    1.7300    3.3815   23.7840 H   0  0  0  0  0  0  0  0  0  0  0  0
    8.4863   -0.0419   22.5888 H   0  0  0  0  0  0  0  0  0  0  0  0
    8.0251   -1.3581   15.9004 H   0  0  0  0  0  0  0  0  0  0  0  0
    6.2853    0.9967   19.0714 H   0  0  0  0  0  0  0  0  0  0  0  0
    0.5104   -3.5711   26.8895 H   0  0  0  0  0  0  0  0  0  0  0  0
   -0.3336   -3.1890   25.3506 H   0  0  0  0  0  0  0  0  0  0  0  0
    1.0709   -4.3088   25.3506 H   0  0  0  0  0  0  0  0  0  0  0  0
    3.2342   -3.0732   26.6958 H   0  0  0  0  0  0  0  0  0  0  0  0
    5.0663   -1.0180   27.4778 H   0  0  0  0  0  0  0  0  0  0  0  0
    5.6107   -1.8865   26.0027 H   0  0  0  0  0  0  0  0  0  0  0  0
    5.5083   -0.0931   26.0027 H   0  0  0  0  0  0  0  0  0  0  0  0
    4.4223    1.1729   24.5086 H   0  0  0  0  0  0  0  0  0  0  0  0
    9.6122    1.5333   20.7405 H   0  0  0  0  0  0  0  0  0  0  0  0
    8.4622    2.7356   19.9495 H   0  0  0  0  0  0  0  0  0  0  0  0
   10.2835   -0.9702   16.8742 H   0  0  0  0  0  0  0  0  0  0  0  0
   10.5467    0.3968   18.9191 H   0  0  0  0  0  0  0  0  0  0  0  0
    4.2400   -1.1475   15.9057 H   0  0  0  0  0  0  0  0  0  0  0  0
    5.8933   -1.7347   15.6113 H   0  0  0  0  0  0  0  0  0  0  0  0
    7.5490    0.0487   14.0743 H   0  0  0  0  0  0  0  0  0  0  0  0
    6.5476    2.0524   11.2962 H   0  0  0  0  0  0  0  0  0  0  0  0
    7.9978    2.0223   12.3989 H   0  0  0  0  0  0  0  0  0  0  0  0
    5.9303    4.1557   10.5511 H   0  0  0  0  0  0  0  0  0  0  0  0
    5.7856    6.6109   10.8528 H   0  0  0  0  0  0  0  0  0  0  0  0
    6.6355    7.6642   12.9333 H   0  0  0  0  0  0  0  0  0  0  0  0
    7.6268    6.2495   14.7151 H   0  0  0  0  0  0  0  0  0  0  0  0
    7.7771    3.7943   14.4177 H   0  0  0  0  0  0  0  0  0  0  0  0
 35 36  2  0
 35  8  1  0
 36 37  1  0
 34  8  1  0
 34 32  1  0
  8 39  2  0
 37 38  2  0
 32 31  1  0
 32 33  1  0
 31 30  2  0
 39 38  1  0
 33  7  2  0
 30  7  1  0
  7 29  1  0
 29 28  1  0
  6 26  2  0
  6 25  1  0
 28 25  1  0
 26 27  1  0
 25  9  2  0
 27  5  2  0
  9  5  1  0
  5 24  1  0
 24 22  1  0
 22 21  1  0
 22  4  2  0
 21 20  1  0
  4 23  1  0
 10 11  2  0
 20 23  2  0
 20 19  1  0
 11 19  1  0
 11  1  1  0
 12  1  1  0
 12  2  1  0
  2 13  1  0
  2 18  2  0
 13  3  2  0
 18 16  1  0
  3 14  1  0
  3 15  1  0
 16 15  2  0
 16 17  1  0
  1 40  1  0
  1 41  1  0
  4 42  1  0
  6 43  1  0
  9 44  1  0
 14 45  1  0
 14 46  1  0
 14 47  1  0
 15 48  1  0
 17 49  1  0
 17 50  1  0
 17 51  1  0
 19 52  1  0
 24 53  1  0
 24 54  1  0
 26 55  1  0
 27 56  1  0
 29 57  1  0
 29 58  1  0
 33 59  1  0
 34 60  1  0
 34 61  1  0
 35 62  1  0
 36 63  1  0
 37 64  1  0
 38 65  1  0
 39 66  1  0
A    1
C1
A    2
C2
A    3
C6
A    4
C9
A    5
C12
A    6
C15
A    7
C18
A    8
C21
A    9
C27
A   10
O
A   11
C
A   12
S
A   13
N1
A   14
C7
A   15
C5
A   16
C3
A   17
C4
A   18
N
A   19
N2
A   20
C8
A   21
S1
A   22
C10
A   23
N3
A   24
C11
A   25
C16
A   26
C14
A   27
C13
A   28
O1
A   29
C17
A   30
N6
A   31
N5
A   32
N4
A   33
C19
A   34
C20
A   35
C26
A   36
C25
A   37
C24
A   38
C23
A   39
C22
M  END
