5DYC_5GU_A_802
     RDKit          3D

 19 20  0  0  0  0  0  0  0  0999 V2000
   14.8850    0.5680   -8.8520 O   0  0  0  0  0  0  0  0  0  0  0  0
   14.9280    1.2370   -7.8220 C   0  0  0  0  0  0  0  0  0  0  0  0
   16.0550    2.0080   -7.5260 C   0  0  0  0  0  0  0  0  0  0  0  0
   16.1490    2.4220   -6.1070 N   0  0  0  0  0  0  0  0  0  0  0  0
   14.9880    2.5390   -5.3410 C   0  0  0  0  0  0  0  0  0  0  0  0
   15.0000    3.2440   -4.1430 C   0  0  0  0  0  0  0  0  0  0  0  0
   13.8250    3.3550   -3.4070 C   0  0  0  0  0  0  0  0  0  0  0  0
   12.6540    2.7560   -3.8660 C   0  0  0  0  0  0  0  0  0  0  0  0
   11.0620    2.8890   -2.8910 Br  0  0  0  0  0  0  0  0  0  0  0  0
   12.6460    2.0510   -5.0580 C   0  0  0  0  0  0  0  0  0  0  0  0
   13.8130    1.9530   -5.7960 C   0  0  0  0  0  0  0  0  0  0  0  0
   13.8110    1.2370   -6.9880 N   0  0  0  0  0  0  0  0  0  0  0  0
   16.9508    1.4199   -7.7743 H   0  0  0  0  0  0  0  0  0  0  0  0
   15.9736    2.9299   -8.1206 H   0  0  0  0  0  0  0  0  0  0  0  0
   17.0678    2.6228   -5.6870 H   0  0  0  0  0  0  0  0  0  0  0  0
   15.9288    3.7091   -3.7810 H   0  0  0  0  0  0  0  0  0  0  0  0
   13.8204    3.9166   -2.4612 H   0  0  0  0  0  0  0  0  0  0  0  0
   11.7214    1.5736   -5.4148 H   0  0  0  0  0  0  0  0  0  0  0  0
   12.9743    0.7003   -7.2579 H   0  0  0  0  0  0  0  0  0  0  0  0
  1  2  2  0
  2  3  1  0
  2 12  1  0
  3  4  1  0
 12 11  1  0
  4  5  1  0
 11  5  2  0
 11 10  1  0
  5  6  1  0
 10  8  2  0
  6  7  2  0
  8  7  1  0
  8  9  1  0
  3 13  1  0
  3 14  1  0
  4 15  1  0
  6 16  1  0
  7 17  1  0
 10 18  1  0
 12 19  1  0
A    1
O
A    2
C
A    3
CA
A    4
N
A    5
CAK
A    6
CAD
A    7
CAC
A    8
CAJ
A    9
BR
A   10
CAE
A   11
CAL
A   12
NAH
M  END
