2YOR_MZ0_A_354
     RDKit          3D

 13 13  0  0  0  0  0  0  0  0999 V2000
    5.1360    5.9270  146.8660 N   0  0  0  0  0  0  0  0  0  0  0  0
    4.9050    4.6320  147.1800 C   0  0  0  0  0  0  0  0  0  0  0  0
    3.6980    4.5590  147.8440 N   0  0  0  0  0  0  0  0  0  0  0  0
    3.1890    5.7980  147.9320 C   0  0  0  0  0  0  0  0  0  0  0  0
    4.0850    6.6560  147.3150 C   0  0  0  0  0  0  0  0  0  0  0  0
    3.9130    8.1350  147.0730 C   0  0  0  0  0  0  0  0  0  0  0  0
    3.1740    8.3130  145.8410 O   0  0  0  0  0  0  0  0  0  0  0  0
    5.9629    6.2939  146.3736 H   0  0  0  0  0  0  0  0  0  0  0  0
    5.5652    3.7838  146.9464 H   0  0  0  0  0  0  0  0  0  0  0  0
    2.2372    6.0798  148.4060 H   0  0  0  0  0  0  0  0  0  0  0  0
    3.3571    8.5860  147.9082 H   0  0  0  0  0  0  0  0  0  0  0  0
    4.8961    8.6228  146.9981 H   0  0  0  0  0  0  0  0  0  0  0  0
    2.2333    8.5396  146.0503 H   0  0  0  0  0  0  0  0  0  0  0  0
  1  2  1  0
  1  5  1  0
  2  3  2  0
  3  4  1  0
  4  5  2  0
  5  6  1  0
  6  7  1  0
  1  8  1  0
  2  9  1  0
  4 10  1  0
  6 11  1  0
  6 12  1  0
  7 13  1  0
A    1
N1
A    2
C2
A    3
N3
A    4
C4
A    5
C5
A    6
C6
A    7
O7
M  END
