5DYY_5HH_A_605
     RDKit          3D

 54 57  0  0  0  0  0  0  0  0999 V2000
    1.3770  -11.3970  -19.6520 C   0  0  0  0  0  0  0  0  0  0  0  0
    1.3120  -10.3470  -18.7350 C   0  0  0  0  0  0  0  0  0  0  0  0
    7.5600   -5.5250  -13.4800 C   0  0  0  0  0  0  0  0  0  0  0  0
    5.5080   -4.9170  -14.6240 C   0  0  0  0  0  0  0  0  0  0  0  0
    1.6990  -12.6870  -19.2450 C   0  0  0  0  0  0  0  0  0  0  0  0
    1.5560  -10.5950  -17.3850 C   0  0  0  0  0  0  0  0  0  0  0  0
    4.9440   -6.1330  -14.2490 C   0  0  0  0  0  0  0  0  0  0  0  0
    2.4730  -14.4420  -16.1280 C   0  0  0  0  0  0  0  0  0  0  0  0
    2.0960  -12.1160  -15.5890 C   0  0  0  0  0  0  0  0  0  0  0  0
    1.8650  -11.8790  -16.9460 C   0  0  0  0  0  0  0  0  0  0  0  0
    2.4130  -13.4150  -15.1880 C   0  0  0  0  0  0  0  0  0  0  0  0
    6.1690  -12.1150  -14.1300 C   0  0  0  0  0  0  0  0  0  0  0  0
    6.8460   -9.6730  -14.4960 C   0  0  0  0  0  0  0  0  0  0  0  0
    5.8200  -10.4900  -12.3670 C   0  0  0  0  0  0  0  0  0  0  0  0
    5.1330  -11.5440  -13.1830 C   0  0  0  0  0  0  0  0  0  0  0  0
    1.9360  -12.9230  -17.8850 C   0  0  0  0  0  0  0  0  0  0  0  0
    2.2430  -14.2150  -17.4740 C   0  0  0  0  0  0  0  0  0  0  0  0
    2.7210  -13.8580  -13.5060 S   0  0  0  0  0  0  0  0  0  0  0  0
    1.5300  -14.6150  -12.9500 O   0  0  0  0  0  0  0  0  0  0  0  0
    3.8930  -14.8360  -13.4070 O   0  0  0  0  0  0  0  0  0  0  0  0
    3.0510  -12.6220  -12.6220 N   0  0  0  0  0  0  0  0  0  0  0  0
    4.4960  -12.5780  -12.2640 C   0  0  0  0  0  0  0  0  0  0  0  0
    6.3950  -10.9890  -15.1700 C   0  0  0  0  0  0  0  0  0  0  0  0
    6.1520   -9.3340  -13.2070 N   0  0  0  0  0  0  0  0  0  0  0  0
    5.1190   -8.2730  -13.1390 C   0  0  0  0  0  0  0  0  0  0  0  0
    5.6800   -7.0430  -13.4860 C   0  0  0  0  0  0  0  0  0  0  0  0
    6.9880   -6.7330  -13.0980 C   0  0  0  0  0  0  0  0  0  0  0  0
    6.8180   -4.6190  -14.2370 C   0  0  0  0  0  0  0  0  0  0  0  0
    1.1701  -11.2009  -20.7144 H   0  0  0  0  0  0  0  0  0  0  0  0
    1.0696   -9.3295  -19.0755 H   0  0  0  0  0  0  0  0  0  0  0  0
    8.5926   -5.2850  -13.1866 H   0  0  0  0  0  0  0  0  0  0  0  0
    4.9281   -4.1967  -15.2197 H   0  0  0  0  0  0  0  0  0  0  0  0
    1.7662  -13.5057  -19.9765 H   0  0  0  0  0  0  0  0  0  0  0  0
    1.5039   -9.7688  -16.6606 H   0  0  0  0  0  0  0  0  0  0  0  0
    3.9160   -6.3782  -14.5542 H   0  0  0  0  0  0  0  0  0  0  0  0
    2.7098  -15.4619  -15.7909 H   0  0  0  0  0  0  0  0  0  0  0  0
    2.0298  -11.2996  -14.8548 H   0  0  0  0  0  0  0  0  0  0  0  0
    5.7919  -13.0262  -14.6173 H   0  0  0  0  0  0  0  0  0  0  0  0
    7.0966  -12.4049  -13.6146 H   0  0  0  0  0  0  0  0  0  0  0  0
    7.9238   -9.7500  -14.2902 H   0  0  0  0  0  0  0  0  0  0  0  0
    6.5845   -8.8689  -15.1996 H   0  0  0  0  0  0  0  0  0  0  0  0
    6.7444  -10.9063  -11.9402 H   0  0  0  0  0  0  0  0  0  0  0  0
    5.1463  -10.1653  -11.5603 H   0  0  0  0  0  0  0  0  0  0  0  0
    4.3037  -11.1396  -13.7820 H   0  0  0  0  0  0  0  0  0  0  0  0
    2.3018  -15.0379  -18.2015 H   0  0  0  0  0  0  0  0  0  0  0  0
    2.8082  -11.7655  -13.1400 H   0  0  0  0  0  0  0  0  0  0  0  0
    4.9577  -13.5638  -12.4220 H   0  0  0  0  0  0  0  0  0  0  0  0
    4.6377  -12.3135  -11.2057 H   0  0  0  0  0  0  0  0  0  0  0  0
    5.4543  -10.8087  -15.7109 H   0  0  0  0  0  0  0  0  0  0  0  0
    7.1892  -11.3120  -15.8592 H   0  0  0  0  0  0  0  0  0  0  0  0
    4.7205   -8.2166  -12.1153 H   0  0  0  0  0  0  0  0  0  0  0  0
    4.3065   -8.5121  -13.8409 H   0  0  0  0  0  0  0  0  0  0  0  0
    7.5643   -7.4459  -12.4900 H   0  0  0  0  0  0  0  0  0  0  0  0
    7.2681   -3.6598  -14.5328 H   0  0  0  0  0  0  0  0  0  0  0  0
  1  5  2  0
  1  2  1  0
  5 16  1  0
  2  6  2  0
 16 17  2  0
 16 10  1  0
 17  8  1  0
  6 10  1  0
 10  9  2  0
  8 11  2  0
  9 11  1  0
 11 18  1  0
 23 13  1  0
 23 12  1  0
  4  7  2  0
  4 28  1  0
 13 24  1  0
  7 26  1  0
 28  3  2  0
 12 15  1  0
 18 20  2  0
 18 19  2  0
 18 21  1  0
 26 25  1  0
 26 27  2  0
  3 27  1  0
 24 25  1  0
 24 14  1  0
 15 14  1  0
 15 22  1  0
 21 22  1  0
  1 29  1  0
  2 30  1  0
  3 31  1  0
  4 32  1  0
  5 33  1  0
  6 34  1  0
  7 35  1  0
  8 36  1  0
  9 37  1  0
 12 38  1  0
 12 39  1  0
 13 40  1  0
 13 41  1  0
 14 42  1  0
 14 43  1  0
 15 44  1  0
 17 45  1  0
 21 46  1  0
 22 47  1  0
 22 48  1  0
 23 49  1  0
 23 50  1  0
 25 51  1  0
 25 52  1  0
 27 53  1  0
 28 54  1  0
A    1
C2
A    2
C3
A    3
C4
A    4
C5
A    5
C6
A    6
C7
A    7
C10
A    8
C11
A    9
C12
A   10
C14
A   11
C16
A   12
C18
A   13
C19
A   14
C20
A   15
C21
A   16
C13
A   17
C8
A   18
S1
A   19
O1
A   20
O2
A   21
N2
A   22
C23
A   23
C17
A   24
N1
A   25
C22
A   26
C15
A   27
C9
A   28
C1
M  END
