5DZ2_212_A_404
     RDKit          3D

 27 26  0  0  0  0  0  0  0  0999 V2000
   31.0420  -21.7340   25.3710 O   0  0  0  0  0  0  0  0  0  0  0  0
   29.5720  -23.3600   23.6790 C   0  0  0  0  0  0  0  0  0  0  0  0
   29.6020  -20.6180   23.7280 O   0  0  0  0  0  0  0  0  0  0  0  0
   29.1550  -23.3650   22.2220 C   0  0  0  0  0  0  0  0  0  0  0  0
   28.3220  -24.5580   21.7910 C   0  0  0  0  0  0  0  0  0  0  0  0
   31.6780  -21.7660   23.0180 O   0  0  0  0  0  0  0  0  0  0  0  0
   28.3710  -24.7070   20.2870 C   0  0  0  0  0  0  0  0  0  0  0  0
   30.5000  -21.8170   23.9690 P   0  0  0  0  0  0  0  0  0  0  0  0
   27.1380  -22.3610   24.3180 O   0  0  0  0  0  0  0  0  0  0  0  0
   28.1130  -23.4290   24.7590 P   0  0  0  0  0  0  0  0  0  0  0  0
   28.5700  -23.1620   26.1710 O   0  0  0  0  0  0  0  0  0  0  0  0
   27.4220  -24.7720   24.7020 O   0  0  0  0  0  0  0  0  0  0  0  0
   30.3970  -24.4630   23.9460 O   0  0  0  0  0  0  0  0  0  0  0  0
   27.1030  -25.0860   19.7490 N   0  0  0  0  0  0  0  0  0  0  0  0
   30.3016  -21.8474   26.0183 H   0  0  0  0  0  0  0  0  0  0  0  0
   29.3178  -20.2386   24.5971 H   0  0  0  0  0  0  0  0  0  0  0  0
   28.5677  -22.4542   22.0333 H   0  0  0  0  0  0  0  0  0  0  0  0
   30.0862  -23.4170   21.6388 H   0  0  0  0  0  0  0  0  0  0  0  0
   28.7208  -25.4694   22.2605 H   0  0  0  0  0  0  0  0  0  0  0  0
   27.2792  -24.4023   22.1045 H   0  0  0  0  0  0  0  0  0  0  0  0
   28.6729  -23.7465   19.8439 H   0  0  0  0  0  0  0  0  0  0  0  0
   29.0950  -25.4992   20.0457 H   0  0  0  0  0  0  0  0  0  0  0  0
   27.9154  -23.5445   26.8076 H   0  0  0  0  0  0  0  0  0  0  0  0
   27.2550  -25.0965   25.6223 H   0  0  0  0  0  0  0  0  0  0  0  0
   30.4847  -24.5802   24.9251 H   0  0  0  0  0  0  0  0  0  0  0  0
   26.4479  -25.2818   20.5193 H   0  0  0  0  0  0  0  0  0  0  0  0
   26.7326  -24.3190   19.1699 H   0  0  0  0  0  0  0  0  0  0  0  0
  1  8  1  0
  2  4  1  0
  2  8  1  0
  2 10  1  0
  2 13  1  0
  3  8  1  0
  4  5  1  0
  5  7  1  0
  6  8  2  0
  7 14  1  0
  9 10  2  0
 10 11  1  0
 10 12  1  0
  1 15  1  0
  3 16  1  0
  4 17  1  0
  4 18  1  0
  5 19  1  0
  5 20  1  0
  7 21  1  0
  7 22  1  0
 11 23  1  0
 12 24  1  0
 13 25  1  0
 14 26  1  0
 14 27  1  0
A    1
O2
A    2
C7
A    3
O3
A    4
C16
A    5
C19
A    6
O5
A    7
C22
A    8
P1
A    9
O9
A   10
P8
A   11
O10
A   12
O12
A   13
O14
A   14
N25
M  END
