5E0R_5J5_A_201
     RDKit          3D

 39 40  0  0  0  0  0  0  0  0999 V2000
   16.9280  -21.5740  -13.0780 O   0  0  0  0  0  0  0  0  0  0  0  0
   16.4850  -20.7590  -14.1820 S   0  0  0  0  0  0  0  0  0  0  0  0
   15.1340  -21.0550  -14.5640 O   0  0  0  0  0  0  0  0  0  0  0  0
   17.4750  -20.9800  -15.4480 O   0  0  0  0  0  0  0  0  0  0  0  0
   16.6230  -19.1910  -13.7790 C   0  0  0  0  0  0  0  0  0  0  0  0
   16.5410  -18.1650  -14.7420 C   0  0  0  0  0  0  0  0  0  0  0  0
   16.3340  -18.4750  -16.0610 N   0  0  0  0  0  0  0  0  0  0  0  0
   16.1720  -17.6100  -17.0920 C   0  0  0  0  0  0  0  0  0  0  0  0
   15.8950  -18.1840  -18.4630 C   0  0  0  0  0  0  0  0  0  0  0  0
   16.1190  -19.9560  -18.5270 Cl  0  0  0  0  0  0  0  0  0  0  0  0
   16.2070  -16.3900  -17.0390 O   0  0  0  0  0  0  0  0  0  0  0  0
   16.8420  -18.8420  -12.4340 C   0  0  0  0  0  0  0  0  0  0  0  0
   16.9510  -17.5040  -12.0290 C   0  0  0  0  0  0  0  0  0  0  0  0
   16.8880  -16.5060  -12.9890 C   0  0  0  0  0  0  0  0  0  0  0  0
   16.6790  -16.8390  -14.3210 C   0  0  0  0  0  0  0  0  0  0  0  0
   17.1980  -17.1470  -10.6830 N   0  0  0  0  0  0  0  0  0  0  0  0
   16.7870  -17.8310   -9.7240 N   0  0  0  0  0  0  0  0  0  0  0  0
   17.0850  -17.4780   -8.3880 C   0  0  0  0  0  0  0  0  0  0  0  0
   17.7730  -16.3060   -8.0560 C   0  0  0  0  0  0  0  0  0  0  0  0
   18.0670  -15.9980   -6.7190 C   0  0  0  0  0  0  0  0  0  0  0  0
   17.6800  -16.8550   -5.6880 C   0  0  0  0  0  0  0  0  0  0  0  0
   18.0080  -16.5600   -4.1300 S   0  0  0  0  0  0  0  0  0  0  0  0
   18.2060  -14.9730   -3.8920 O   0  0  0  0  0  0  0  0  0  0  0  0
   16.9510  -17.0610   -3.3020 O   0  0  0  0  0  0  0  0  0  0  0  0
   19.2600  -17.2280   -3.8650 O   0  0  0  0  0  0  0  0  0  0  0  0
   17.0110  -18.0270   -6.0350 C   0  0  0  0  0  0  0  0  0  0  0  0
   16.7150  -18.3400   -7.3620 C   0  0  0  0  0  0  0  0  0  0  0  0
   16.6881  -21.1327  -12.2249 H   0  0  0  0  0  0  0  0  0  0  0  0
   16.2975  -19.4774  -16.2949 H   0  0  0  0  0  0  0  0  0  0  0  0
   16.5802  -17.7164  -19.1853 H   0  0  0  0  0  0  0  0  0  0  0  0
   14.8429  -17.9731  -18.7051 H   0  0  0  0  0  0  0  0  0  0  0  0
   16.9300  -19.6389  -11.6809 H   0  0  0  0  0  0  0  0  0  0  0  0
   17.0034  -15.4520  -12.6962 H   0  0  0  0  0  0  0  0  0  0  0  0
   16.6202  -16.0340  -15.0684 H   0  0  0  0  0  0  0  0  0  0  0  0
   18.0876  -15.6169   -8.8536 H   0  0  0  0  0  0  0  0  0  0  0  0
   18.6086  -15.0706   -6.4809 H   0  0  0  0  0  0  0  0  0  0  0  0
   17.1949  -16.9454   -2.3495 H   0  0  0  0  0  0  0  0  0  0  0  0
   16.7078  -18.7248   -5.2406 H   0  0  0  0  0  0  0  0  0  0  0  0
   16.1855  -19.2748   -7.5979 H   0  0  0  0  0  0  0  0  0  0  0  0
 10  9  1  0
  9  8  1  0
  8 11  2  0
  8  7  1  0
  7  6  1  0
  4  2  2  0
  6 15  1  0
  6  5  2  0
  3  2  2  0
 15 14  2  0
  2  5  1  0
  2  1  1  0
  5 12  1  0
 14 13  1  0
 12 13  2  0
 13 16  1  0
 16 17  2  0
 17 18  1  0
 18 19  2  0
 18 27  1  0
 19 20  1  0
 27 26  2  0
 20 21  2  0
 26 21  1  0
 21 22  1  0
 22 23  2  0
 22 25  2  0
 22 24  1  0
  1 28  1  0
  7 29  1  0
  9 30  1  0
  9 31  1  0
 12 32  1  0
 14 33  1  0
 15 34  1  0
 19 35  1  0
 20 36  1  0
 24 37  1  0
 26 38  1  0
 27 39  1  0
A    1
O5
A    2
S1
A    3
O4
A    4
O6
A    5
C13
A    6
C2
A    7
N
A    8
C
A    9
C1
A   10
CL
A   11
O
A   12
C12
A   13
C5
A   14
C4
A   15
C3
A   16
N1
A   17
N2
A   18
C6
A   19
C11
A   20
C10
A   21
C9
A   22
S
A   23
O3
A   24
O2
A   25
O1
A   26
C8
A   27
C7
M  END
