5E0X_5KD_A_900
     RDKit          3D

 55 58  0  0  0  0  0  0  0  0999 V2000
   -6.6680   -0.1730   20.0380 O   0  0  0  0  0  0  0  0  0  0  0  0
   -6.0530    1.0030   20.4850 C   0  0  0  0  0  0  0  0  0  0  0  0
   -6.4810    2.2500   19.9890 C   0  0  0  0  0  0  0  0  0  0  0  0
   -5.8560    3.4340   20.4370 C   0  0  0  0  0  0  0  0  0  0  0  0
   -4.8160    3.3610   21.3830 C   0  0  0  0  0  0  0  0  0  0  0  0
   -4.1270    4.6240   21.8890 C   0  0  0  0  0  0  0  0  0  0  0  0
   -2.7130    4.9260   21.3780 C   0  0  0  0  0  0  0  0  0  0  0  0
   -2.4400    4.9690   20.0020 C   0  0  0  0  0  0  0  0  0  0  0  0
   -1.1350    5.2380   19.5450 C   0  0  0  0  0  0  0  0  0  0  0  0
   -0.0980    5.4580   20.4530 C   0  0  0  0  0  0  0  0  0  0  0  0
    1.1960    5.7240   19.9890 O   0  0  0  0  0  0  0  0  0  0  0  0
   -0.3680    5.4130   21.8260 C   0  0  0  0  0  0  0  0  0  0  0  0
   -1.6710    5.1420   22.2820 C   0  0  0  0  0  0  0  0  0  0  0  0
   -4.7740    5.4150   22.8420 C   0  0  0  0  0  0  0  0  0  0  0  0
   -4.6080    6.8900   22.7440 C   0  0  0  0  0  0  0  0  0  0  0  0
   -5.6910    7.6780   23.4300 C   0  0  0  0  0  0  0  0  0  0  0  0
   -7.0410    7.2440   22.9010 C   0  0  0  0  0  0  0  0  0  0  0  0
   -7.3070    5.7780   23.0570 C   0  0  0  0  0  0  0  0  0  0  0  0
   -8.7570    5.6350   23.4970 C   0  0  0  0  0  0  0  0  0  0  0  0
   -9.0720    5.7110   24.8520 C   0  0  0  0  0  0  0  0  0  0  0  0
  -10.4140    5.5880   25.2750 C   0  0  0  0  0  0  0  0  0  0  0  0
  -11.4360    5.3930   24.3370 C   0  0  0  0  0  0  0  0  0  0  0  0
  -12.7740    5.2770   24.7460 O   0  0  0  0  0  0  0  0  0  0  0  0
  -13.7150    4.6180   23.9220 C   0  0  0  0  0  0  0  0  0  0  0  0
  -11.1140    5.3230   22.9750 C   0  0  0  0  0  0  0  0  0  0  0  0
   -9.7770    5.4420   22.5520 C   0  0  0  0  0  0  0  0  0  0  0  0
   -6.0890    4.9590   23.3930 C   0  0  0  0  0  0  0  0  0  0  0  0
   -4.3940    2.1120   21.8770 C   0  0  0  0  0  0  0  0  0  0  0  0
   -5.0120    0.9340   21.4240 C   0  0  0  0  0  0  0  0  0  0  0  0
   -7.0122   -0.8312   20.6925 H   0  0  0  0  0  0  0  0  0  0  0  0
   -7.2991    2.3011   19.2554 H   0  0  0  0  0  0  0  0  0  0  0  0
   -6.1806    4.4104   20.0481 H   0  0  0  0  0  0  0  0  0  0  0  0
   -3.2485    4.7919   19.2774 H   0  0  0  0  0  0  0  0  0  0  0  0
   -0.9317    5.2750   18.4646 H   0  0  0  0  0  0  0  0  0  0  0  0
    1.9318    5.8752   20.6339 H   0  0  0  0  0  0  0  0  0  0  0  0
    0.4408    5.5900   22.5502 H   0  0  0  0  0  0  0  0  0  0  0  0
   -1.8712    5.0998   23.3628 H   0  0  0  0  0  0  0  0  0  0  0  0
   -3.6436    7.1599   23.1991 H   0  0  0  0  0  0  0  0  0  0  0  0
   -4.6599    7.1443   21.6751 H   0  0  0  0  0  0  0  0  0  0  0  0
   -5.6461    7.4966   24.5140 H   0  0  0  0  0  0  0  0  0  0  0  0
   -5.5464    8.7503   23.2320 H   0  0  0  0  0  0  0  0  0  0  0  0
   -7.0912    7.4939   21.8309 H   0  0  0  0  0  0  0  0  0  0  0  0
   -7.8028    7.7732   23.4923 H   0  0  0  0  0  0  0  0  0  0  0  0
   -7.3768    5.0745   22.2143 H   0  0  0  0  0  0  0  0  0  0  0  0
   -8.2745    5.8670   25.5934 H   0  0  0  0  0  0  0  0  0  0  0  0
  -10.6578    5.6456   26.3461 H   0  0  0  0  0  0  0  0  0  0  0  0
  -14.4542    4.1003   24.5510 H   0  0  0  0  0  0  0  0  0  0  0  0
  -14.2267    5.3561   23.2869 H   0  0  0  0  0  0  0  0  0  0  0  0
  -13.1963    3.8848   23.2869 H   0  0  0  0  0  0  0  0  0  0  0  0
  -11.9112    5.1741   22.2318 H   0  0  0  0  0  0  0  0  0  0  0  0
   -9.5314    5.3838   21.4814 H   0  0  0  0  0  0  0  0  0  0  0  0
   -6.2656    3.9388   23.0215 H   0  0  0  0  0  0  0  0  0  0  0  0
   -5.9822    5.0516   24.4839 H   0  0  0  0  0  0  0  0  0  0  0  0
   -3.5816    2.0583   22.6166 H   0  0  0  0  0  0  0  0  0  0  0  0
   -4.6797   -0.0428   21.8055 H   0  0  0  0  0  0  0  0  0  0  0  0
  9  8  2  0
  9 10  1  0
  3  4  1  0
  3  2  2  0
 11 10  1  0
  8  7  1  0
  1  2  1  0
  4  5  2  0
 10 12  2  0
  2 29  1  0
  7  6  1  0
  7 13  2  0
  5 28  1  0
  5  6  1  0
 29 28  2  0
 12 13  1  0
  6 14  2  0
 26 25  2  0
 26 19  1  0
 15 14  1  0
 15 16  1  0
 14 27  1  0
 17 18  1  0
 17 16  1  0
 25 22  1  0
 18 27  1  0
 18 19  1  0
 19 20  2  0
 24 23  1  0
 22 23  1  0
 22 21  2  0
 20 21  1  0
  1 30  1  0
  3 31  1  0
  4 32  1  0
  8 33  1  0
  9 34  1  0
 11 35  1  0
 12 36  1  0
 13 37  1  0
 15 38  1  0
 15 39  1  0
 16 40  1  0
 16 41  1  0
 17 42  1  0
 17 43  1  0
 18 44  1  0
 20 45  1  0
 21 46  1  0
 24 47  1  0
 24 48  1  0
 24 49  1  0
 25 50  1  0
 26 51  1  0
 27 52  1  0
 27 53  1  0
 28 54  1  0
 29 55  1  0
A    1
O01
A    2
C02
A    3
C03
A    4
C04
A    5
C05
A    6
C06
A    7
C07
A    8
C08
A    9
C09
A   10
C10
A   11
O11
A   12
C12
A   13
C13
A   14
C14
A   15
C15
A   16
C16
A   17
C17
A   18
C18
A   19
C19
A   20
C20
A   21
C21
A   22
C22
A   23
O23
A   24
C24
A   25
C25
A   26
C26
A   27
C27
A   28
C28
A   29
C29
M  END
