5E13_5J9_A_201
     RDKit          3D

 51 55  0  0  0  0  0  0  0  0999 V2000
   -8.9610   -9.8900   21.1400 C   0  0  0  0  0  0  0  0  0  0  0  0
   -8.2350  -16.3640   19.0730 C   0  0  0  0  0  0  0  0  0  0  0  0
   -9.8440   -9.0680   21.7540 C   0  0  0  0  0  0  0  0  0  0  0  0
   -9.3950   -7.9040   22.3000 C   0  0  0  0  0  0  0  0  0  0  0  0
  -10.8910  -10.8330   21.0310 C   0  0  0  0  0  0  0  0  0  0  0  0
   -7.2070  -16.8310   19.7750 C   0  0  0  0  0  0  0  0  0  0  0  0
   -8.1040   -7.5570   22.2340 N   0  0  0  0  0  0  0  0  0  0  0  0
   -7.6570   -9.5710   21.0380 N   0  0  0  0  0  0  0  0  0  0  0  0
   -6.9240  -18.8900   17.2980 O   0  0  0  0  0  0  0  0  0  0  0  0
   -5.8190  -18.9410   17.8490 C   0  0  0  0  0  0  0  0  0  0  0  0
   -4.7470  -19.2970   17.1060 N   0  0  0  0  0  0  0  0  0  0  0  0
   -3.5090  -19.3850   17.6370 C   0  0  0  0  0  0  0  0  0  0  0  0
   -2.4970  -19.7360   16.8580 N   0  0  0  0  0  0  0  0  0  0  0  0
   -3.3030  -19.1140   18.9960 C   0  0  0  0  0  0  0  0  0  0  0  0
   -4.4040  -18.7540   19.7730 C   0  0  0  0  0  0  0  0  0  0  0  0
   -5.6840  -18.6670   19.1690 N   0  0  0  0  0  0  0  0  0  0  0  0
   -6.8560  -18.3080   19.9910 C   0  0  0  0  0  0  0  0  0  0  0  0
   -6.5140  -15.8370   20.3060 N   0  0  0  0  0  0  0  0  0  0  0  0
   -7.1060  -14.7100   19.9090 N   0  0  0  0  0  0  0  0  0  0  0  0
   -8.1680  -15.0290   19.1510 N   0  0  0  0  0  0  0  0  0  0  0  0
   -9.0760  -14.0220   18.5470 C   0  0  0  0  0  0  0  0  0  0  0  0
   -9.8910  -13.2800   19.6070 C   0  0  0  0  0  0  0  0  0  0  0  0
  -10.1380  -14.0880   20.7790 O   0  0  0  0  0  0  0  0  0  0  0  0
   -8.2760  -12.8660   17.8880 C   0  0  0  0  0  0  0  0  0  0  0  0
   -8.7510  -12.3520   16.5480 C   0  0  0  0  0  0  0  0  0  0  0  0
  -10.1420  -12.6340   16.3200 O   0  0  0  0  0  0  0  0  0  0  0  0
   -8.4850  -11.6740   18.7200 O   0  0  0  0  0  0  0  0  0  0  0  0
   -8.9680  -12.1200   19.9660 C   0  0  0  0  0  0  0  0  0  0  0  0
   -9.6160  -10.9680   20.6900 N   0  0  0  0  0  0  0  0  0  0  0  0
  -11.0290   -9.6830   21.6710 N   0  0  0  0  0  0  0  0  0  0  0  0
   -7.1920   -8.3960   21.5950 C   0  0  0  0  0  0  0  0  0  0  0  0
  -10.2200   -7.0460   22.9430 N   0  0  0  0  0  0  0  0  0  0  0  0
   -8.9900  -16.9563   18.5353 H   0  0  0  0  0  0  0  0  0  0  0  0
  -11.6950  -11.5530   20.8184 H   0  0  0  0  0  0  0  0  0  0  0  0
   -1.6078  -20.0444   17.2765 H   0  0  0  0  0  0  0  0  0  0  0  0
   -2.5992  -19.7006   15.8337 H   0  0  0  0  0  0  0  0  0  0  0  0
   -2.2985  -19.1834   19.4390 H   0  0  0  0  0  0  0  0  0  0  0  0
   -4.2804  -18.5395   20.8448 H   0  0  0  0  0  0  0  0  0  0  0  0
   -7.7125  -18.9336   19.6993 H   0  0  0  0  0  0  0  0  0  0  0  0
   -6.6208  -18.4747   21.0526 H   0  0  0  0  0  0  0  0  0  0  0  0
   -9.6953  -14.5968   17.8426 H   0  0  0  0  0  0  0  0  0  0  0  0
  -10.8870  -12.9876   19.2431 H   0  0  0  0  0  0  0  0  0  0  0  0
   -9.9731  -13.5485   21.5925 H   0  0  0  0  0  0  0  0  0  0  0  0
   -7.2664  -13.2890   17.7793 H   0  0  0  0  0  0  0  0  0  0  0  0
   -8.1579  -12.8304   15.7547 H   0  0  0  0  0  0  0  0  0  0  0  0
   -8.6224  -11.2596   16.5406 H   0  0  0  0  0  0  0  0  0  0  0  0
  -10.6064  -12.7282   17.1892 H   0  0  0  0  0  0  0  0  0  0  0  0
   -8.2030  -12.4741   20.6726 H   0  0  0  0  0  0  0  0  0  0  0  0
   -6.1267   -8.1282   21.5359 H   0  0  0  0  0  0  0  0  0  0  0  0
  -10.2402   -7.0250   23.9726 H   0  0  0  0  0  0  0  0  0  0  0  0
  -10.8279   -6.4138   22.4030 H   0  0  0  0  0  0  0  0  0  0  0  0
 26 25  1  0
 25 24  1  0
 13 12  1  0
 11 12  2  0
 11 10  1  0
  9 10  2  0
 12 14  1  0
 10 16  1  0
 24 21  1  0
 24 27  1  0
 21 20  1  0
 21 22  1  0
 27 28  1  0
 14 15  2  0
  2 20  1  0
  2  6  2  0
 20 19  1  0
 16 15  1  0
 16 17  1  0
 22 28  1  0
 22 23  1  0
  6 17  1  0
  6 18  1  0
 19 18  2  0
 28 29  1  0
 29  5  1  0
 29  1  1  0
  5 30  2  0
  8  1  2  0
  8 31  1  0
  1  3  1  0
 31  7  2  0
 30  3  1  0
  3  4  2  0
  7  4  1  0
  4 32  1  0
  2 33  1  0
  5 34  1  0
 13 35  1  0
 13 36  1  0
 14 37  1  0
 15 38  1  0
 17 39  1  0
 17 40  1  0
 21 41  1  0
 22 42  1  0
 23 43  1  0
 24 44  1  0
 25 45  1  0
 25 46  1  0
 26 47  1  0
 28 48  1  0
 31 49  1  0
 32 50  1  0
 32 51  1  0
A    1
C4
A    2
C14
A    3
C5
A    4
C6
A    5
C8
A    6
C13
A    7
N1
A    8
N3
A    9
O2T
A   10
C2T
A   11
N3T
A   12
C4T
A   13
N4T
A   14
C5T
A   15
C6T
A   16
N1T
A   17
C15
A   18
N12
A   19
N11
A   20
N10
A   21
C3'
A   22
C2'
A   23
O2'
A   24
C4'
A   25
C5'
A   26
O5'
A   27
O4'
A   28
C1'
A   29
N9
A   30
N7
A   31
C2
A   32
N6
M  END
