5E15_5KA_A_900
     RDKit          3D

 48 50  0  0  0  0  0  0  0  0999 V2000
   -1.2260  -18.6570   25.3360 O   0  0  0  0  0  0  0  0  0  0  0  0
   -1.8040  -19.0960   24.1450 C   0  0  0  0  0  0  0  0  0  0  0  0
   -1.1420  -19.0380   22.9270 C   0  0  0  0  0  0  0  0  0  0  0  0
   -1.7540  -19.5030   21.7780 C   0  0  0  0  0  0  0  0  0  0  0  0
   -3.0290  -20.0550   21.8320 C   0  0  0  0  0  0  0  0  0  0  0  0
   -3.8320  -20.5680   20.5870 C   0  0  0  0  0  0  0  0  0  0  0  0
   -5.2450  -20.0460   20.4440 C   0  0  0  0  0  0  0  0  0  0  0  0
   -5.4880  -18.6980   20.2780 C   0  0  0  0  0  0  0  0  0  0  0  0
   -6.7640  -18.2460   20.1430 C   0  0  0  0  0  0  0  0  0  0  0  0
   -7.8110  -19.1370   20.1790 C   0  0  0  0  0  0  0  0  0  0  0  0
   -9.0990  -18.7160   20.0390 O   0  0  0  0  0  0  0  0  0  0  0  0
   -7.5910  -20.4690   20.3540 C   0  0  0  0  0  0  0  0  0  0  0  0
   -6.3000  -20.9230   20.4760 C   0  0  0  0  0  0  0  0  0  0  0  0
   -3.2440  -21.1780   19.4710 C   0  0  0  0  0  0  0  0  0  0  0  0
   -1.8560  -21.7520   19.4910 C   0  0  0  0  0  0  0  0  0  0  0  0
   -1.9600  -23.2530   19.6040 C   0  0  0  0  0  0  0  0  0  0  0  0
   -2.8100  -23.9310   18.5530 C   0  0  0  0  0  0  0  0  0  0  0  0
   -3.3840  -25.1760   19.2870 C   0  0  0  0  0  0  0  0  0  0  0  0
   -3.6140  -26.4470   18.4940 C   0  0  0  0  0  0  0  0  0  0  0  0
   -4.3450  -27.3510   19.3260 O   0  0  0  0  0  0  0  0  0  0  0  0
   -3.9670  -23.1020   17.9850 C   0  0  0  0  0  0  0  0  0  0  0  0
   -4.0320  -21.6210   18.2690 C   0  0  0  0  0  0  0  0  0  0  0  0
   -3.6660  -20.0920   23.0480 C   0  0  0  0  0  0  0  0  0  0  0  0
   -3.0630  -19.6250   24.1990 C   0  0  0  0  0  0  0  0  0  0  0  0
   -1.6039  -18.9440   26.2049 H   0  0  0  0  0  0  0  0  0  0  0  0
   -0.1257  -18.6202   22.8754 H   0  0  0  0  0  0  0  0  0  0  0  0
   -1.2285  -19.4358   20.8140 H   0  0  0  0  0  0  0  0  0  0  0  0
   -4.6485  -17.9876   20.2548 H   0  0  0  0  0  0  0  0  0  0  0  0
   -6.9576  -17.1719   20.0056 H   0  0  0  0  0  0  0  0  0  0  0  0
   -9.6508  -18.5356   20.8410 H   0  0  0  0  0  0  0  0  0  0  0  0
   -8.4356  -21.1724   20.3972 H   0  0  0  0  0  0  0  0  0  0  0  0
   -6.1103  -21.9993   20.6005 H   0  0  0  0  0  0  0  0  0  0  0  0
   -1.3308  -21.4854   18.5620 H   0  0  0  0  0  0  0  0  0  0  0  0
   -1.2934  -21.3479   20.3455 H   0  0  0  0  0  0  0  0  0  0  0  0
   -2.3882  -23.4892   20.5893 H   0  0  0  0  0  0  0  0  0  0  0  0
   -0.9394  -23.6367   19.4585 H   0  0  0  0  0  0  0  0  0  0  0  0
   -2.1873  -24.1401   17.6706 H   0  0  0  0  0  0  0  0  0  0  0  0
   -4.3537  -24.8812   19.7145 H   0  0  0  0  0  0  0  0  0  0  0  0
   -2.5971  -25.4485   20.0057 H   0  0  0  0  0  0  0  0  0  0  0  0
   -4.1924  -26.2226   17.5856 H   0  0  0  0  0  0  0  0  0  0  0  0
   -2.6545  -26.8916   18.1912 H   0  0  0  0  0  0  0  0  0  0  0  0
   -4.1722  -27.1373   20.2771 H   0  0  0  0  0  0  0  0  0  0  0  0
   -4.8969  -23.5430   18.3733 H   0  0  0  0  0  0  0  0  0  0  0  0
   -3.8078  -23.1489   16.8976 H   0  0  0  0  0  0  0  0  0  0  0  0
   -3.6454  -21.0858   17.3892 H   0  0  0  0  0  0  0  0  0  0  0  0
   -5.0857  -21.3914   18.4856 H   0  0  0  0  0  0  0  0  0  0  0  0
   -4.6839  -20.5047   23.1067 H   0  0  0  0  0  0  0  0  0  0  0  0
   -3.5961  -19.6787   25.1597 H   0  0  0  0  0  0  0  0  0  0  0  0
 21 22  1  0
 21 17  1  0
 22 14  1  0
 19 18  1  0
 19 20  1  0
 17 18  1  0
 17 16  1  0
 14 15  1  0
 14  6  2  0
 15 16  1  0
 11 10  1  0
  9 10  1  0
  9  8  2  0
 10 12  2  0
  8  7  1  0
 12 13  1  0
  7 13  2  0
  7  6  1  0
  6  5  1  0
  4  5  2  0
  4  3  1  0
  5 23  1  0
  3  2  2  0
 23 24  2  0
  2 24  1  0
  2  1  1  0
  1 25  1  0
  3 26  1  0
  4 27  1  0
  8 28  1  0
  9 29  1  0
 11 30  1  0
 12 31  1  0
 13 32  1  0
 15 33  1  0
 15 34  1  0
 16 35  1  0
 16 36  1  0
 17 37  1  0
 18 38  1  0
 18 39  1  0
 19 40  1  0
 19 41  1  0
 20 42  1  0
 21 43  1  0
 21 44  1  0
 22 45  1  0
 22 46  1  0
 23 47  1  0
 24 48  1  0
A    1
O01
A    2
C02
A    3
C03
A    4
C04
A    5
C05
A    6
C06
A    7
C07
A    8
C08
A    9
C09
A   10
C10
A   11
O11
A   12
C12
A   13
C13
A   14
C14
A   15
C15
A   16
C16
A   17
C17
A   18
C18
A   19
C19
A   20
O20
A   21
C26
A   22
C27
A   23
C28
A   24
C29
M  END
