5E1C_5K8_A_900
     RDKit          3D

 56 58  0  0  0  0  0  0  0  0999 V2000
   24.5830   -0.4480    5.3230 O   0  0  0  0  0  0  0  0  0  0  0  0
   23.2590   -0.8710    5.1910 C   0  0  0  0  0  0  0  0  0  0  0  0
   22.9930   -2.2190    5.1350 C   0  0  0  0  0  0  0  0  0  0  0  0
   21.6240   -2.6890    4.9980 C   0  0  0  0  0  0  0  0  0  0  0  0
   20.5600   -1.7600    4.9450 C   0  0  0  0  0  0  0  0  0  0  0  0
   19.0680   -2.2580    4.7860 C   0  0  0  0  0  0  0  0  0  0  0  0
   18.3520   -1.7730    3.5070 C   0  0  0  0  0  0  0  0  0  0  0  0
   19.1260   -1.6330    2.3420 C   0  0  0  0  0  0  0  0  0  0  0  0
   18.5210   -1.1600    1.1260 C   0  0  0  0  0  0  0  0  0  0  0  0
   17.1340   -0.8380    1.0990 C   0  0  0  0  0  0  0  0  0  0  0  0
   16.5330   -0.3730   -0.1230 O   0  0  0  0  0  0  0  0  0  0  0  0
   16.3510   -0.9740    2.2660 C   0  0  0  0  0  0  0  0  0  0  0  0
   16.9620   -1.4290    3.4800 C   0  0  0  0  0  0  0  0  0  0  0  0
   18.4750   -3.1360    5.7790 C   0  0  0  0  0  0  0  0  0  0  0  0
   17.1030   -3.7980    5.6550 C   0  0  0  0  0  0  0  0  0  0  0  0
   17.1350   -5.2480    6.0950 C   0  0  0  0  0  0  0  0  0  0  0  0
   17.7410   -5.4080    7.4940 C   0  0  0  0  0  0  0  0  0  0  0  0
   19.1410   -4.8200    7.5260 C   0  0  0  0  0  0  0  0  0  0  0  0
   19.7200   -4.9340    8.9880 C   0  0  0  0  0  0  0  0  0  0  0  0
   20.9050   -3.9690    9.1560 C   0  0  0  0  0  0  0  0  0  0  0  0
   22.1370   -4.2980    8.6710 O   0  0  0  0  0  0  0  0  0  0  0  0
   23.1690   -4.2090    9.6750 C   0  0  0  0  0  0  0  0  0  0  0  0
   20.7750   -2.9860    9.7760 O   0  0  0  0  0  0  0  0  0  0  0  0
   20.1390   -6.3840    9.3460 C   0  0  0  0  0  0  0  0  0  0  0  0
   21.0200   -6.5930   10.4330 O   0  0  0  0  0  0  0  0  0  0  0  0
   20.5430   -7.5550   11.3810 C   0  0  0  0  0  0  0  0  0  0  0  0
   19.9970   -7.2930    8.5100 O   0  0  0  0  0  0  0  0  0  0  0  0
   19.1360   -3.3460    7.1240 C   0  0  0  0  0  0  0  0  0  0  0  0
   20.8360   -0.4000    4.9980 C   0  0  0  0  0  0  0  0  0  0  0  0
   22.2090    0.0610    5.1300 C   0  0  0  0  0  0  0  0  0  0  0  0
   24.9752   -0.3227    6.2233 H   0  0  0  0  0  0  0  0  0  0  0  0
   23.8184   -2.9438    5.1940 H   0  0  0  0  0  0  0  0  0  0  0  0
   21.4163   -3.7674    4.9356 H   0  0  0  0  0  0  0  0  0  0  0  0
   20.1964   -1.8857    2.3604 H   0  0  0  0  0  0  0  0  0  0  0  0
   19.1296   -1.0469    0.2167 H   0  0  0  0  0  0  0  0  0  0  0  0
   15.7504    0.2325   -0.0906 H   0  0  0  0  0  0  0  0  0  0  0  0
   15.2782   -0.7321    2.2436 H   0  0  0  0  0  0  0  0  0  0  0  0
   16.3597   -1.5145    4.3965 H   0  0  0  0  0  0  0  0  0  0  0  0
   16.3856   -3.2509    6.2843 H   0  0  0  0  0  0  0  0  0  0  0  0
   16.8040   -3.7687    4.5968 H   0  0  0  0  0  0  0  0  0  0  0  0
   16.1069   -5.6390    6.1060 H   0  0  0  0  0  0  0  0  0  0  0  0
   17.7639   -5.8056    5.3854 H   0  0  0  0  0  0  0  0  0  0  0  0
   17.1093   -4.8839    8.2264 H   0  0  0  0  0  0  0  0  0  0  0  0
   17.7938   -6.4780    7.7436 H   0  0  0  0  0  0  0  0  0  0  0  0
   19.7608   -5.3815    6.8114 H   0  0  0  0  0  0  0  0  0  0  0  0
   18.9180   -4.6545    9.6871 H   0  0  0  0  0  0  0  0  0  0  0  0
   22.7122   -4.2484   10.6749 H   0  0  0  0  0  0  0  0  0  0  0  0
   23.8681   -5.0502    9.5579 H   0  0  0  0  0  0  0  0  0  0  0  0
   23.7137   -3.2605    9.5579 H   0  0  0  0  0  0  0  0  0  0  0  0
   20.7258   -7.1863   12.4011 H   0  0  0  0  0  0  0  0  0  0  0  0
   19.4638   -7.7097   11.2350 H   0  0  0  0  0  0  0  0  0  0  0  0
   21.0731   -8.5077   11.2350 H   0  0  0  0  0  0  0  0  0  0  0  0
   20.1745   -2.9872    7.0710 H   0  0  0  0  0  0  0  0  0  0  0  0
   18.5642   -2.7862    7.8787 H   0  0  0  0  0  0  0  0  0  0  0  0
   20.0149    0.3297    4.9401 H   0  0  0  0  0  0  0  0  0  0  0  0
   22.4254    1.1382    5.1820 H   0  0  0  0  0  0  0  0  0  0  0  0
 11 10  1  0
 10  9  1  0
 10 12  2  0
  9  8  2  0
 12 13  1  0
  8  7  1  0
 13  7  2  0
  7  6  1  0
  6  5  1  0
  6 14  2  0
  5  4  1  0
  5 29  2  0
  4  3  2  0
 29 30  1  0
 30  2  2  0
  3  2  1  0
  2  1  1  0
 15 14  1  0
 15 16  1  0
 14 28  1  0
 16 17  1  0
 28 18  1  0
 17 18  1  0
 18 19  1  0
 27 24  2  0
 21 20  1  0
 21 22  1  0
 19 20  1  0
 19 24  1  0
 20 23  2  0
 24 25  1  0
 25 26  1  0
  1 31  1  0
  3 32  1  0
  4 33  1  0
  8 34  1  0
  9 35  1  0
 11 36  1  0
 12 37  1  0
 13 38  1  0
 15 39  1  0
 15 40  1  0
 16 41  1  0
 16 42  1  0
 17 43  1  0
 17 44  1  0
 18 45  1  0
 19 46  1  0
 22 47  1  0
 22 48  1  0
 22 49  1  0
 26 50  1  0
 26 51  1  0
 26 52  1  0
 28 53  1  0
 28 54  1  0
 29 55  1  0
 30 56  1  0
A    1
O01
A    2
C02
A    3
C03
A    4
C04
A    5
C05
A    6
C06
A    7
C07
A    8
C08
A    9
C09
A   10
C10
A   11
O11
A   12
C12
A   13
C13
A   14
C14
A   15
C15
A   16
C16
A   17
C17
A   18
C18
A   19
C19
A   20
C20
A   21
O21
A   22
C22
A   23
O23
A   24
C24
A   25
O25
A   26
C26
A   27
O27
A   28
C28
A   29
C29
A   30
C30
M  END
