5E1E_5JG_A_1202
     RDKit          3D

 52 55  0  0  0  0  0  0  0  0999 V2000
  -20.8620  -20.1420   19.4790 C   0  0  0  0  0  0  0  0  0  0  0  0
  -20.7310  -19.1220   17.3110 C   0  0  0  0  0  0  0  0  0  0  0  0
  -21.1940  -18.5800   14.9970 C   0  0  0  0  0  0  0  0  0  0  0  0
  -21.5780  -18.5610   16.3300 C   0  0  0  0  0  0  0  0  0  0  0  0
  -23.7460  -17.6530   15.8540 C   0  0  0  0  0  0  0  0  0  0  0  0
  -17.8450  -20.3320   15.2320 C   0  0  0  0  0  0  0  0  0  0  0  0
  -16.1150  -21.0850   14.0970 C   0  0  0  0  0  0  0  0  0  0  0  0
  -15.9510  -21.3180   15.4530 C   0  0  0  0  0  0  0  0  0  0  0  0
  -14.1390  -22.0530   13.5310 C   0  0  0  0  0  0  0  0  0  0  0  0
  -15.3980  -21.8260   18.2940 C   0  0  0  0  0  0  0  0  0  0  0  0
  -17.2340  -22.4300   19.7490 C   0  0  0  0  0  0  0  0  0  0  0  0
  -17.7590  -24.8200   20.2060 N   0  0  0  0  0  0  0  0  0  0  0  0
  -16.4350  -25.1930   19.6670 C   0  0  0  0  0  0  0  0  0  0  0  0
  -21.1990  -19.0640   18.5970 O   0  0  0  0  0  0  0  0  0  0  0  0
  -19.5210  -19.6880   16.9360 C   0  0  0  0  0  0  0  0  0  0  0  0
  -19.1290  -19.7170   15.5970 C   0  0  0  0  0  0  0  0  0  0  0  0
  -19.9890  -19.1520   14.6650 C   0  0  0  0  0  0  0  0  0  0  0  0
  -22.7480  -18.0320   16.8050 O   0  0  0  0  0  0  0  0  0  0  0  0
  -19.6240  -19.1550   13.3680 F   0  0  0  0  0  0  0  0  0  0  0  0
  -17.3320  -20.4480   13.9700 N   0  0  0  0  0  0  0  0  0  0  0  0
  -17.0420  -20.8430   16.1550 N   0  0  0  0  0  0  0  0  0  0  0  0
  -14.7740  -21.9670   15.8600 C   0  0  0  0  0  0  0  0  0  0  0  0
  -13.8710  -22.3350   14.8610 C   0  0  0  0  0  0  0  0  0  0  0  0
  -15.2530  -21.4280   13.1270 N   0  0  0  0  0  0  0  0  0  0  0  0
  -12.4030  -23.1550   15.2950 Cl  0  0  0  0  0  0  0  0  0  0  0  0
  -14.5010  -22.2190   17.2210 N   0  0  0  0  0  0  0  0  0  0  0  0
  -15.8320  -22.8480   19.3140 C   0  0  0  0  0  0  0  0  0  0  0  0
  -17.8120  -23.4370   20.7130 C   0  0  0  0  0  0  0  0  0  0  0  0
  -15.8910  -24.2200   18.6590 C   0  0  0  0  0  0  0  0  0  0  0  0
  -20.9662  -19.8086   20.5221 H   0  0  0  0  0  0  0  0  0  0  0  0
  -21.5378  -20.9904   19.2960 H   0  0  0  0  0  0  0  0  0  0  0  0
  -19.8233  -20.4545   19.2960 H   0  0  0  0  0  0  0  0  0  0  0  0
  -21.8413  -18.1457   14.2208 H   0  0  0  0  0  0  0  0  0  0  0  0
  -24.6469  -17.3109   16.3845 H   0  0  0  0  0  0  0  0  0  0  0  0
  -23.3606  -16.8386   15.2229 H   0  0  0  0  0  0  0  0  0  0  0  0
  -23.9984  -18.5179   15.2229 H   0  0  0  0  0  0  0  0  0  0  0  0
  -13.4030  -22.3563   12.7718 H   0  0  0  0  0  0  0  0  0  0  0  0
  -14.8998  -21.0154   18.8460 H   0  0  0  0  0  0  0  0  0  0  0  0
  -16.3314  -21.5738   17.7695 H   0  0  0  0  0  0  0  0  0  0  0  0
  -17.1823  -21.4472   20.2403 H   0  0  0  0  0  0  0  0  0  0  0  0
  -17.8805  -22.3771   18.8606 H   0  0  0  0  0  0  0  0  0  0  0  0
  -18.4577  -24.9205   19.4560 H   0  0  0  0  0  0  0  0  0  0  0  0
  -16.5223  -26.1780   19.1853 H   0  0  0  0  0  0  0  0  0  0  0  0
  -15.7350  -25.1980   20.5155 H   0  0  0  0  0  0  0  0  0  0  0  0
  -18.8622  -20.1194   17.7040 H   0  0  0  0  0  0  0  0  0  0  0  0
  -17.7688  -20.1233   13.0955 H   0  0  0  0  0  0  0  0  0  0  0  0
  -13.6256  -22.7038   17.4650 H   0  0  0  0  0  0  0  0  0  0  0  0
  -15.1381  -22.8998   20.1660 H   0  0  0  0  0  0  0  0  0  0  0  0
  -17.2440  -23.3871   21.6537 H   0  0  0  0  0  0  0  0  0  0  0  0
  -18.8720  -23.1813   20.8576 H   0  0  0  0  0  0  0  0  0  0  0  0
  -16.5508  -24.1857   17.7795 H   0  0  0  0  0  0  0  0  0  0  0  0
  -14.8879  -24.5303   18.3312 H   0  0  0  0  0  0  0  0  0  0  0  0
 24  9  2  0
 24  7  1  0
 19 17  1  0
  9 23  1  0
 20  7  1  0
 20  6  1  0
  7  8  2  0
 17  3  2  0
 17 16  1  0
 23 25  1  0
 23 22  2  0
  3  4  1  0
  6 16  1  0
  6 21  2  0
  8 22  1  0
  8 21  1  0
 16 15  2  0
  5 18  1  0
 22 26  1  0
  4 18  1  0
  4  2  2  0
 15  2  1  0
 26 10  1  0
  2 14  1  0
 10 27  1  0
 14  1  1  0
 29 27  1  0
 29 13  1  0
 27 11  1  0
 13 12  1  0
 11 28  1  0
 12 28  1  0
  1 30  1  0
  1 31  1  0
  1 32  1  0
  3 33  1  0
  5 34  1  0
  5 35  1  0
  5 36  1  0
  9 37  1  0
 10 38  1  0
 10 39  1  0
 11 40  1  0
 11 41  1  0
 12 42  1  0
 13 43  1  0
 13 44  1  0
 15 45  1  0
 20 46  1  0
 26 47  1  0
 27 48  1  0
 28 49  1  0
 28 50  1  0
 29 51  1  0
 29 52  1  0
A    1
C1
A    2
C3
A    3
C7
A    4
C8
A    5
C10
A    6
C12
A    7
C14
A    8
C15
A    9
C19
A   10
C22
A   11
C24
A   12
N26
A   13
C27
A   14
O2
A   15
C4
A   16
C5
A   17
C6
A   18
O9
A   19
F11
A   20
N13
A   21
N16
A   22
C17
A   23
C18
A   24
N20
A   25
CL
A   26
N21
A   27
C23
A   28
C25
A   29
C28
M  END
