5E1G_T8G_A_501
     RDKit          3D

 53 54  0  0  0  0  0  0  0  0999 V2000
    2.6940    5.3680   59.2860 C   0  0  0  0  0  0  0  0  0  0  0  0
    1.7260    6.6070   53.9660 C   0  0  0  0  0  0  0  0  0  0  0  0
    2.3240    6.7180   52.5720 C   0  0  0  0  0  0  0  0  0  0  0  0
    0.3370    6.6320   55.8600 C   0  0  0  0  0  0  0  0  0  0  0  0
    2.5410    6.2810   54.9340 N   0  0  0  0  0  0  0  0  0  0  0  0
    0.1010    7.9950   56.5080 C   0  0  0  0  0  0  0  0  0  0  0  0
    1.7720    6.2260   56.1940 C   0  0  0  0  0  0  0  0  0  0  0  0
    2.5420    7.0230   57.3000 C   0  0  0  0  0  0  0  0  0  0  0  0
   -0.4900    8.3170   53.5870 S   0  0  0  0  0  0  0  0  0  0  0  0
   -3.2500    8.4810   53.1200 C   0  0  0  0  0  0  0  0  0  0  0  0
   -3.9830    9.4420   52.8990 O   0  0  0  0  0  0  0  0  0  0  0  0
    4.0470    7.0340   57.0530 C   0  0  0  0  0  0  0  0  0  0  0  0
    2.2110    6.7230   58.7960 C   0  0  0  0  0  0  0  0  0  0  0  0
   -3.2270    7.2970   52.4290 O   0  0  0  0  0  0  0  0  0  0  0  0
   -3.5330    7.3010   51.0270 C   0  0  0  0  0  0  0  0  0  0  0  0
    3.3180    7.4790   52.4430 O   0  0  0  0  0  0  0  0  0  0  0  0
   -2.4940    8.1420   50.2700 C   0  0  0  0  0  0  0  0  0  0  0  0
    1.7720    6.0700   51.6590 O   0  0  0  0  0  0  0  0  0  0  0  0
   -2.1620    7.5990   48.8840 C   0  0  0  0  0  0  0  0  0  0  0  0
    4.5180    7.6240   56.0830 O   0  0  0  0  0  0  0  0  0  0  0  0
   -3.3560    6.8690   48.2790 C   0  0  0  0  0  0  0  0  0  0  0  0
    2.7420    7.7170   59.6550 O   0  0  0  0  0  0  0  0  0  0  0  0
   -3.6800    5.6190   49.0880 C   0  0  0  0  0  0  0  0  0  0  0  0
   -3.5440    5.8290   50.5930 C   0  0  0  0  0  0  0  0  0  0  0  0
   -2.2120    8.3670   54.2100 C   0  0  0  0  0  0  0  0  0  0  0  0
    0.2640    6.7990   54.3390 C   0  0  0  0  0  0  0  0  0  0  0  0
    2.6983    5.3561   60.3859 H   0  0  0  0  0  0  0  0  0  0  0  0
    2.0207    4.5820   58.9134 H   0  0  0  0  0  0  0  0  0  0  0  0
    3.7127    5.1851   58.9134 H   0  0  0  0  0  0  0  0  0  0  0  0
   -0.4008    5.8953   56.2106 H   0  0  0  0  0  0  0  0  0  0  0  0
    0.1194    7.8887   57.6027 H   0  0  0  0  0  0  0  0  0  0  0  0
    0.8918    8.6922   56.1940 H   0  0  0  0  0  0  0  0  0  0  0  0
   -0.8782    8.3857   56.1940 H   0  0  0  0  0  0  0  0  0  0  0  0
    1.6816    5.2262   56.6436 H   0  0  0  0  0  0  0  0  0  0  0  0
    2.1296    8.0343   57.1691 H   0  0  0  0  0  0  0  0  0  0  0  0
    4.7173    6.5090   57.7495 H   0  0  0  0  0  0  0  0  0  0  0  0
    1.1116    6.7206   58.8319 H   0  0  0  0  0  0  0  0  0  0  0  0
   -4.5080    7.7590   50.8044 H   0  0  0  0  0  0  0  0  0  0  0  0
    3.7787    7.8317   53.2451 H   0  0  0  0  0  0  0  0  0  0  0  0
   -1.5685    8.1686   50.8640 H   0  0  0  0  0  0  0  0  0  0  0  0
   -2.9293    9.1423   50.1289 H   0  0  0  0  0  0  0  0  0  0  0  0
   -1.3170    6.8995   48.9653 H   0  0  0  0  0  0  0  0  0  0  0  0
   -1.9026    8.4451   48.2306 H   0  0  0  0  0  0  0  0  0  0  0  0
   -4.2289    7.5383   48.2808 H   0  0  0  0  0  0  0  0  0  0  0  0
   -3.1087    6.5731   47.2488 H   0  0  0  0  0  0  0  0  0  0  0  0
    2.5991    7.4494   60.5974 H   0  0  0  0  0  0  0  0  0  0  0  0
   -4.7151    5.3183   48.8685 H   0  0  0  0  0  0  0  0  0  0  0  0
   -2.9559    4.8434   48.7980 H   0  0  0  0  0  0  0  0  0  0  0  0
   -4.3901    5.3302   51.0883 H   0  0  0  0  0  0  0  0  0  0  0  0
   -2.5701    5.4079   50.8830 H   0  0  0  0  0  0  0  0  0  0  0  0
   -2.3141    9.2345   54.8785 H   0  0  0  0  0  0  0  0  0  0  0  0
   -2.3937    7.4136   54.7277 H   0  0  0  0  0  0  0  0  0  0  0  0
   -0.4675    6.0904   53.9234 H   0  0  0  0  0  0  0  0  0  0  0  0
 21 19  1  0
 21 23  1  0
 19 17  1  0
 23 24  1  0
 17 15  1  0
 24 15  1  0
 15 14  1  0
 18  3  2  0
 14 10  1  0
 16  3  1  0
  3  2  1  0
 11 10  2  0
 10 25  1  0
  9 25  1  0
  9 26  1  0
  2 26  1  0
  2  5  2  0
 26  4  1  0
  5  7  1  0
  4  7  1  0
  4  6  1  0
 20 12  2  0
  7  8  1  0
 12  8  1  0
  8 13  1  0
 13  1  1  0
 13 22  1  0
  1 27  1  0
  1 28  1  0
  1 29  1  0
  4 30  1  0
  6 31  1  0
  6 32  1  0
  6 33  1  0
  7 34  1  0
  8 35  1  0
 12 36  1  0
 13 37  1  0
 15 38  1  0
 16 39  1  0
 17 40  1  0
 17 41  1  0
 19 42  1  0
 19 43  1  0
 21 44  1  0
 21 45  1  0
 22 46  1  0
 23 47  1  0
 23 48  1  0
 24 49  1  0
 24 50  1  0
 25 51  1  0
 25 52  1  0
 26 53  1  0
A    1
C18
A    2
C10
A    3
C11
A    4
C12
A    5
N1
A    6
C13
A    7
C14
A    8
C15
A    9
S1
A   10
C1
A   11
O1
A   12
C16
A   13
C17
A   14
O2
A   15
C2
A   16
O3
A   17
C3
A   18
O4
A   19
C4
A   20
O5
A   21
C5
A   22
O6
A   23
C6
A   24
C7
A   25
C8
A   26
C9
M  END
