5E3D_5JL_A_801
     RDKit          3D

 16 17  0  0  0  0  0  0  0  0999 V2000
    7.2230  -10.3220    4.6210 C   0  0  0  0  0  0  0  0  0  0  0  0
    7.1730  -10.7320    3.3410 C   0  0  0  0  0  0  0  0  0  0  0  0
    7.8600  -11.8210    2.9390 C   0  0  0  0  0  0  0  0  0  0  0  0
    5.9530   -8.9670    3.5740 C   0  0  0  0  0  0  0  0  0  0  0  0
    8.6390  -12.5490    3.8420 N   0  0  0  0  0  0  0  0  0  0  0  0
    7.9840  -11.0130    5.5680 N   0  0  0  0  0  0  0  0  0  0  0  0
    7.8320  -12.2280    1.7760 O   0  0  0  0  0  0  0  0  0  0  0  0
    6.3710   -9.8760    2.6880 N   0  0  0  0  0  0  0  0  0  0  0  0
    4.8670   -7.5920    3.2540 S   0  0  0  0  0  0  0  0  0  0  0  0
    6.4710   -9.2310    4.7650 N   0  0  0  0  0  0  0  0  0  0  0  0
    8.7030  -12.1410    5.1760 C   0  0  0  0  0  0  0  0  0  0  0  0
    9.6560  -13.0130    6.3320 S   0  0  0  0  0  0  0  0  0  0  0  0
    9.1612  -13.3789    3.5267 H   0  0  0  0  0  0  0  0  0  0  0  0
    8.0133  -10.6918    6.5462 H   0  0  0  0  0  0  0  0  0  0  0  0
    6.1236   -9.9130    1.6888 H   0  0  0  0  0  0  0  0  0  0  0  0
    6.3215   -8.6970    5.6330 H   0  0  0  0  0  0  0  0  0  0  0  0
  7  3  2  0
  8  2  1  0
  8  4  1  0
  3  2  1  0
  3  5  1  0
  9  4  2  0
  2  1  2  0
  4 10  1  0
  5 11  1  0
  1 10  1  0
  1  6  1  0
 11  6  1  0
 11 12  2  0
  5 13  1  0
  6 14  1  0
  8 15  1  0
 10 16  1  0
A    1
C4
A    2
C5
A    3
C6
A    4
C8
A    5
N1
A    6
N3
A    7
O6
A    8
N7
A    9
S8
A   10
N9
A   11
C2
A   12
S2
M  END
