5E41_AUL_A_903
     RDKit          3D

 88 89  0  0  0  0  0  0  0  0999 V2000
   22.6150   -9.7440   -4.0920 O   0  0  0  0  0  0  0  0  0  0  0  0
   21.6690  -10.0410   -3.3830 C   0  0  0  0  0  0  0  0  0  0  0  0
   21.2130   -9.1050   -2.2770 C   0  0  0  0  0  0  0  0  0  0  0  0
   20.8630   -7.7210   -2.8200 C   0  0  0  0  0  0  0  0  0  0  0  0
   20.8630   -6.6690   -1.7150 C   0  0  0  0  0  0  0  0  0  0  0  0
   19.6490   -6.7860   -0.7970 C   0  0  0  0  0  0  0  0  0  0  0  0
   19.9890   -6.5730    0.6770 C   0  0  0  0  0  0  0  0  0  0  0  0
   19.2300   -5.3800    1.2450 C   0  0  0  0  0  0  0  0  0  0  0  0
   19.3790   -5.3130    2.7610 C   0  0  0  0  0  0  0  0  0  0  0  0
   18.6760   -4.0840    3.3260 C   0  0  0  0  0  0  0  0  0  0  0  0
   19.5940   -2.8670    3.3050 C   0  0  0  0  0  0  0  0  0  0  0  0
   18.8240   -1.6760    3.5110 O   0  0  0  0  0  0  0  0  0  0  0  0
   21.0210  -11.2000   -3.5080 N   0  0  0  0  0  0  0  0  0  0  0  0
   21.4350  -12.2320   -4.4470 C   0  0  0  0  0  0  0  0  0  0  0  0
   20.5260  -12.3140   -5.6690 C   0  0  0  0  0  0  0  0  0  0  0  0
   20.8750  -13.4920   -6.5770 C   0  0  0  0  0  0  0  0  0  0  0  0
   20.3170  -14.7800   -6.0110 C   0  0  0  0  0  0  0  0  0  0  0  0
   20.1070  -15.8070   -6.8370 C   0  0  0  0  0  0  0  0  0  0  0  0
   19.5480  -17.1310   -6.4300 C   0  0  0  0  0  0  0  0  0  0  0  0
   19.3160  -18.0880   -7.4130 C   0  0  0  0  0  0  0  0  0  0  0  0
   18.8240  -19.2960   -7.1020 N   0  0  0  0  0  0  0  0  0  0  0  0
   18.4910  -19.6120   -5.7700 C   0  0  0  0  0  0  0  0  0  0  0  0
   18.0120  -20.7450   -5.4900 O   0  0  0  0  0  0  0  0  0  0  0  0
   18.6940  -18.7110   -4.8130 N   0  0  0  0  0  0  0  0  0  0  0  0
   19.1990  -17.5050   -5.0290 C   0  0  0  0  0  0  0  0  0  0  0  0
   19.3550  -16.7360   -4.0500 O   0  0  0  0  0  0  0  0  0  0  0  0
   18.5580  -20.2970   -8.1410 C   0  0  0  0  0  0  0  0  0  0  0  0
   19.4190  -20.1410   -9.2740 O   0  0  0  0  0  0  0  0  0  0  0  0
   18.6310  -19.8170  -10.4300 C   0  0  0  0  0  0  0  0  0  0  0  0
   17.3170  -19.2700   -9.8990 C   0  0  0  0  0  0  0  0  0  0  0  0
   16.2440  -19.4980  -10.8100 O   0  0  0  0  0  0  0  0  0  0  0  0
   17.1360  -20.0380   -8.6050 C   0  0  0  0  0  0  0  0  0  0  0  0
   19.3090  -18.8240  -11.3700 C   0  0  0  0  0  0  0  0  0  0  0  0
   19.7230  -17.6500  -10.6800 O   0  0  0  0  0  0  0  0  0  0  0  0
   19.4660  -16.1810  -11.2760 P   0  0  0  0  0  0  0  0  0  0  0  0
   20.1900  -15.1490  -10.4580 O   0  0  0  0  0  0  0  0  0  0  0  0
   19.6930  -16.2270  -12.7720 O   0  0  0  0  0  0  0  0  0  0  0  0
   17.8920  -15.9520  -10.9890 O   0  0  0  0  0  0  0  0  0  0  0  0
   16.6640  -16.1340  -12.0330 P   0  0  0  0  0  0  0  0  0  0  0  0
   17.0750  -16.8140  -13.3180 O   0  0  0  0  0  0  0  0  0  0  0  0
   15.5030  -16.7330  -11.2620 O   0  0  0  0  0  0  0  0  0  0  0  0
   16.2770  -14.5940  -12.3020 O   0  0  0  0  0  0  0  0  0  0  0  0
   16.8210  -13.6970  -13.5380 P   0  0  0  0  0  0  0  0  0  0  0  0
   17.9140  -14.4770  -14.2480 O   0  0  0  0  0  0  0  0  0  0  0  0
   15.5510  -13.5000  -14.3300 O   0  0  0  0  0  0  0  0  0  0  0  0
   17.3060  -12.4330  -12.8590 O   0  0  0  0  0  0  0  0  0  0  0  0
   20.3238   -9.5331   -1.7911 H   0  0  0  0  0  0  0  0  0  0  0  0
   22.0384   -8.9939   -1.5584 H   0  0  0  0  0  0  0  0  0  0  0  0
   21.6041   -7.4384   -3.5822 H   0  0  0  0  0  0  0  0  0  0  0  0
   19.8528   -7.7660   -3.2529 H   0  0  0  0  0  0  0  0  0  0  0  0
   21.7746   -6.7910   -1.1117 H   0  0  0  0  0  0  0  0  0  0  0  0
   20.8252   -5.6799   -2.1949 H   0  0  0  0  0  0  0  0  0  0  0  0
   18.9084   -6.0304   -1.0981 H   0  0  0  0  0  0  0  0  0  0  0  0
   19.2585   -7.8093   -0.8988 H   0  0  0  0  0  0  0  0  0  0  0  0
   19.7163   -7.4757    1.2433 H   0  0  0  0  0  0  0  0  0  0  0  0
   21.0677   -6.3757    0.7631 H   0  0  0  0  0  0  0  0  0  0  0  0
   19.6290   -4.4553    0.8025 H   0  0  0  0  0  0  0  0  0  0  0  0
   18.1634   -5.4931    1.0010 H   0  0  0  0  0  0  0  0  0  0  0  0
   18.9368   -6.2165    3.2061 H   0  0  0  0  0  0  0  0  0  0  0  0
   20.4496   -5.2471    3.0050 H   0  0  0  0  0  0  0  0  0  0  0  0
   17.7831   -3.8707    2.7199 H   0  0  0  0  0  0  0  0  0  0  0  0
   18.3954   -4.2914    4.3692 H   0  0  0  0  0  0  0  0  0  0  0  0
   20.3433   -2.9606    4.1049 H   0  0  0  0  0  0  0  0  0  0  0  0
   20.0993   -2.8093    2.3296 H   0  0  0  0  0  0  0  0  0  0  0  0
   18.7195   -1.5144    4.4821 H   0  0  0  0  0  0  0  0  0  0  0  0
   20.1952  -11.3714   -2.9168 H   0  0  0  0  0  0  0  0  0  0  0  0
   21.4201  -13.2036   -3.9314 H   0  0  0  0  0  0  0  0  0  0  0  0
   22.4445  -11.9746   -4.8002 H   0  0  0  0  0  0  0  0  0  0  0  0
   20.6245  -11.3824   -6.2456 H   0  0  0  0  0  0  0  0  0  0  0  0
   19.4960  -12.4600   -5.3114 H   0  0  0  0  0  0  0  0  0  0  0  0
   21.9689  -13.5757   -6.6573 H   0  0  0  0  0  0  0  0  0  0  0  0
   20.4344  -13.3190   -7.5699 H   0  0  0  0  0  0  0  0  0  0  0  0
   20.0887  -14.8680   -4.9385 H   0  0  0  0  0  0  0  0  0  0  0  0
   20.3650  -15.6680   -7.8972 H   0  0  0  0  0  0  0  0  0  0  0  0
   19.5400  -17.8495   -8.4632 H   0  0  0  0  0  0  0  0  0  0  0  0
   18.4439  -18.9657   -3.8468 H   0  0  0  0  0  0  0  0  0  0  0  0
   18.7195  -21.3058   -7.7332 H   0  0  0  0  0  0  0  0  0  0  0  0
   18.4844  -20.7160  -11.0468 H   0  0  0  0  0  0  0  0  0  0  0  0
   17.3244  -18.1794   -9.7560 H   0  0  0  0  0  0  0  0  0  0  0  0
   15.4124  -19.6747  -10.3028 H   0  0  0  0  0  0  0  0  0  0  0  0
   16.5850  -19.4378   -7.8660 H   0  0  0  0  0  0  0  0  0  0  0  0
   16.5539  -20.9623   -8.7347 H   0  0  0  0  0  0  0  0  0  0  0  0
   18.6004  -18.5414  -12.1625 H   0  0  0  0  0  0  0  0  0  0  0  0
   20.2014  -19.3064  -11.7954 H   0  0  0  0  0  0  0  0  0  0  0  0
   20.0572  -15.3383   -9.4954 H   0  0  0  0  0  0  0  0  0  0  0  0
   15.6720  -16.6458  -10.2904 H   0  0  0  0  0  0  0  0  0  0  0  0
   18.5066  -14.8999  -13.5771 H   0  0  0  0  0  0  0  0  0  0  0  0
   17.2618  -12.5483  -11.8767 H   0  0  0  0  0  0  0  0  0  0  0  0
 45 43  2  0
 44 43  1  0
 43 46  1  0
 43 42  1  0
 40 39  2  0
 37 35  2  0
 42 39  1  0
 39 41  1  0
 39 38  1  0
 33 34  1  0
 33 29  1  0
 35 38  1  0
 35 34  1  0
 35 36  1  0
 31 30  1  0
 29 30  1  0
 29 28  1  0
 30 32  1  0
 28 27  1  0
 32 27  1  0
 27 21  1  0
 20 21  1  0
 20 19  2  0
 21 22  1  0
 18 19  1  0
 18 17  2  0
 16 17  1  0
 16 15  1  0
 19 25  1  0
 22 23  2  0
 22 24  1  0
 15 14  1  0
 25 24  1  0
 25 26  2  0
 14 13  1  0
  1  2  2  0
 13  2  1  0
  2  3  1  0
  4  3  1  0
  4  5  1  0
  5  6  1  0
  6  7  1  0
  7  8  1  0
  8  9  1  0
  9 10  1  0
 11 10  1  0
 11 12  1  0
  3 47  1  0
  3 48  1  0
  4 49  1  0
  4 50  1  0
  5 51  1  0
  5 52  1  0
  6 53  1  0
  6 54  1  0
  7 55  1  0
  7 56  1  0
  8 57  1  0
  8 58  1  0
  9 59  1  0
  9 60  1  0
 10 61  1  0
 10 62  1  0
 11 63  1  0
 11 64  1  0
 12 65  1  0
 13 66  1  0
 14 67  1  0
 14 68  1  0
 15 69  1  0
 15 70  1  0
 16 71  1  0
 16 72  1  0
 17 73  1  0
 18 74  1  0
 20 75  1  0
 24 76  1  0
 27 77  1  0
 29 78  1  0
 30 79  1  0
 31 80  1  0
 32 81  1  0
 32 82  1  0
 33 83  1  0
 33 84  1  0
 36 85  1  0
 41 86  1  0
 44 87  1  0
 46 88  1  0
A    1
O36
A    2
C35
A    3
C37
A    4
C38
A    5
C39
A    6
C40
A    7
C41
A    8
C42
A    9
C43
A   10
C44
A   11
C45
A   12
O46
A   13
N34
A   14
C33
A   15
C32
A   16
C31
A   17
C30
A   18
C29
A   19
C5
A   20
C6
A   21
N1
A   22
C2
A   23
O2
A   24
N3
A   25
C4
A   26
O4
A   27
C1'
A   28
O4'
A   29
C4'
A   30
C3'
A   31
O3'
A   32
C2'
A   33
C5'
A   34
O5'
A   35
PA
A   36
O1A
A   37
O2A
A   38
O3A
A   39
PB
A   40
O1B
A   41
O2B
A   42
O3B
A   43
PG
A   44
O1G
A   45
O3G
A   46
O2G
M  END
