5E4A_5JW_A_201
     RDKit          3D

 30 32  0  0  0  0  0  0  0  0999 V2000
   -3.8280    3.5020   -4.7400 Cl  0  0  0  0  0  0  0  0  0  0  0  0
   -2.5560    2.3260   -4.3440 C   0  0  0  0  0  0  0  0  0  0  0  0
   -1.9640    1.6730   -5.4380 C   0  0  0  0  0  0  0  0  0  0  0  0
   -2.1010    2.1400   -3.0100 C   0  0  0  0  0  0  0  0  0  0  0  0
   -1.0560    1.2500   -2.7530 C   0  0  0  0  0  0  0  0  0  0  0  0
   -0.4810    0.5790   -3.8170 C   0  0  0  0  0  0  0  0  0  0  0  0
    0.5580   -0.3570   -3.8260 C   0  0  0  0  0  0  0  0  0  0  0  0
    1.2990   -0.8760   -2.7550 C   0  0  0  0  0  0  0  0  0  0  0  0
    2.3160   -1.7820   -3.0320 C   0  0  0  0  0  0  0  0  0  0  0  0
   -0.9320    0.7920   -5.1310 C   0  0  0  0  0  0  0  0  0  0  0  0
   -0.1450   -0.0320   -5.9300 C   0  0  0  0  0  0  0  0  0  0  0  0
    0.7910   -0.7700   -5.1450 C   0  0  0  0  0  0  0  0  0  0  0  0
    1.7990   -1.6830   -5.4400 C   0  0  0  0  0  0  0  0  0  0  0  0
    2.5690   -2.2200   -4.3650 C   0  0  0  0  0  0  0  0  0  0  0  0
    3.8600   -3.4530   -4.6710 Cl  0  0  0  0  0  0  0  0  0  0  0  0
   -0.3290   -0.0800   -7.2730 N   0  0  0  0  0  0  0  0  0  0  0  0
    0.3540   -0.8450   -7.9800 O   0  0  0  0  0  0  0  0  0  0  0  0
   -0.3010   -2.0480   -8.4520 C   0  0  0  0  0  0  0  0  0  0  0  0
    0.1760   -2.1680   -9.8850 C   0  0  0  0  0  0  0  0  0  0  0  0
    0.6070   -3.2420  -10.3860 O   0  0  0  0  0  0  0  0  0  0  0  0
    0.0080   -1.0920  -10.5300 O   0  0  0  0  0  0  0  0  0  0  0  0
   -2.2956    1.8473   -6.4722 H   0  0  0  0  0  0  0  0  0  0  0  0
   -2.5700    2.6947   -2.1839 H   0  0  0  0  0  0  0  0  0  0  0  0
   -0.6977    1.0861   -1.7260 H   0  0  0  0  0  0  0  0  0  0  0  0
    1.0807   -0.5734   -1.7202 H   0  0  0  0  0  0  0  0  0  0  0  0
    2.9359   -2.1675   -2.2092 H   0  0  0  0  0  0  0  0  0  0  0  0
    1.9980   -1.9842   -6.4791 H   0  0  0  0  0  0  0  0  0  0  0  0
   -1.3952   -1.9433   -8.4088 H   0  0  0  0  0  0  0  0  0  0  0  0
   -0.0627   -2.9335   -7.8444 H   0  0  0  0  0  0  0  0  0  0  0  0
    0.9030   -3.9797   -9.7959 H   0  0  0  0  0  0  0  0  0  0  0  0
 21 19  2  0
 20 19  1  0
 19 18  1  0
 18 17  1  0
 17 16  1  0
 16 11  2  0
 11 12  1  0
 11 10  1  0
 13 12  1  0
 13 14  2  0
  3 10  1  0
  3  2  2  0
 12  7  2  0
 10  6  2  0
  1  2  1  0
 15 14  1  0
 14  9  1  0
  2  4  1  0
  7  6  1  0
  7  8  1  0
  6  5  1  0
  9  8  2  0
  4  5  2  0
  3 22  1  0
  4 23  1  0
  5 24  1  0
  8 25  1  0
  9 26  1  0
 13 27  1  0
 18 28  1  0
 18 29  1  0
 20 30  1  0
A    1
CL1
A    2
C16
A    3
C15
A    4
C17
A    5
C18
A    6
C12
A    7
C02
A    8
C01
A    9
C06
A   10
C13
A   11
C14
A   12
C03
A   13
C04
A   14
C05
A   15
CL2
A   16
N14
A   17
O29
A   18
CB5
A   19
CA1
A   20
OA2
A   21
OA3
M  END
