5E73_UO1_A_2001
     RDKit          3D

 42 44  0  0  0  0  0  0  0  0999 V2000
  -25.7350  -11.2460    0.4780 C   0  0  0  0  0  0  0  0  0  0  0  0
  -26.2460   -9.8400    0.7660 C   0  0  0  0  0  0  0  0  0  0  0  0
  -25.5190   -9.0410    1.3260 O   0  0  0  0  0  0  0  0  0  0  0  0
  -27.5760   -9.4770    0.3540 N   0  0  0  0  0  0  0  0  0  0  0  0
  -28.4240  -10.3030   -0.2930 C   0  0  0  0  0  0  0  0  0  0  0  0
  -29.5930   -9.5860   -0.5350 C   0  0  0  0  0  0  0  0  0  0  0  0
  -30.7610  -10.0840   -1.2070 N   0  0  0  0  0  0  0  0  0  0  0  0
  -31.2110   -9.4700   -2.4410 C   0  0  0  0  0  0  0  0  0  0  0  0
  -32.4340   -9.9880   -3.1710 C   0  0  0  0  0  0  0  0  0  0  0  0
  -30.6030   -8.5230   -2.9030 O   0  0  0  0  0  0  0  0  0  0  0  0
  -31.4380  -11.2180   -0.6420 C   0  0  0  0  0  0  0  0  0  0  0  0
  -31.2230  -12.4840   -1.2060 C   0  0  0  0  0  0  0  0  0  0  0  0
  -30.3050  -12.6560   -2.4020 C   0  0  0  0  0  0  0  0  0  0  0  0
  -31.8770  -13.5970   -0.6610 C   0  0  0  0  0  0  0  0  0  0  0  0
  -32.7240  -13.4410    0.4370 C   0  0  0  0  0  0  0  0  0  0  0  0
  -32.9240  -12.1770    0.9960 C   0  0  0  0  0  0  0  0  0  0  0  0
  -32.2760  -11.0590    0.4580 C   0  0  0  0  0  0  0  0  0  0  0  0
  -33.7830  -12.0290    2.1080 O   0  0  0  0  0  0  0  0  0  0  0  0
  -29.4300   -8.2670    0.0150 C   0  0  0  0  0  0  0  0  0  0  0  0
  -28.1540   -8.2400    0.5560 C   0  0  0  0  0  0  0  0  0  0  0  0
  -27.6700   -7.0560    1.1880 C   0  0  0  0  0  0  0  0  0  0  0  0
  -28.4850   -5.9240    1.2610 C   0  0  0  0  0  0  0  0  0  0  0  0
  -29.7790   -5.9520    0.7130 C   0  0  0  0  0  0  0  0  0  0  0  0
  -30.2590   -7.1110    0.0900 C   0  0  0  0  0  0  0  0  0  0  0  0
  -25.5450  -11.7687    1.4271 H   0  0  0  0  0  0  0  0  0  0  0  0
  -26.4896  -11.7991   -0.1005 H   0  0  0  0  0  0  0  0  0  0  0  0
  -24.8014  -11.1855   -0.1005 H   0  0  0  0  0  0  0  0  0  0  0  0
  -28.2285  -11.3477   -0.5764 H   0  0  0  0  0  0  0  0  0  0  0  0
  -33.1899  -10.3081   -2.4387 H   0  0  0  0  0  0  0  0  0  0  0  0
  -32.8502   -9.1889   -3.8020 H   0  0  0  0  0  0  0  0  0  0  0  0
  -32.1496  -10.8429   -3.8020 H   0  0  0  0  0  0  0  0  0  0  0  0
  -29.2798  -12.8481   -2.0527 H   0  0  0  0  0  0  0  0  0  0  0  0
  -30.6503  -13.5051   -3.0101 H   0  0  0  0  0  0  0  0  0  0  0  0
  -30.3195  -11.7395   -3.0101 H   0  0  0  0  0  0  0  0  0  0  0  0
  -31.7227  -14.5942   -1.0989 H   0  0  0  0  0  0  0  0  0  0  0  0
  -33.2357  -14.3164    0.8635 H   0  0  0  0  0  0  0  0  0  0  0  0
  -32.4277  -10.0635    0.9006 H   0  0  0  0  0  0  0  0  0  0  0  0
  -33.4190  -12.0917    3.0265 H   0  0  0  0  0  0  0  0  0  0  0  0
  -26.6573   -7.0347    1.6168 H   0  0  0  0  0  0  0  0  0  0  0  0
  -28.1139   -5.0100    1.7477 H   0  0  0  0  0  0  0  0  0  0  0  0
  -30.4182   -5.0588    0.7737 H   0  0  0  0  0  0  0  0  0  0  0  0
  -31.2716   -7.1285   -0.3394 H   0  0  0  0  0  0  0  0  0  0  0  0
  9  8  1  0
 10  8  2  0
  8  7  1  0
 13 12  1  0
  7 11  1  0
  7  6  1  0
 12 14  2  0
 12 11  1  0
 14 15  1  0
 11 17  2  0
  6  5  2  0
  6 19  1  0
  5  4  1  0
 19 24  1  0
 19 20  2  0
 24 23  2  0
  4 20  1  0
  4  2  1  0
 15 16  2  0
 17 16  1  0
  1  2  1  0
 20 21  1  0
 23 22  1  0
  2  3  2  0
 16 18  1  0
 21 22  2  0
  1 25  1  0
  1 26  1  0
  1 27  1  0
  5 28  1  0
  9 29  1  0
  9 30  1  0
  9 31  1  0
 13 32  1  0
 13 33  1  0
 13 34  1  0
 14 35  1  0
 15 36  1  0
 17 37  1  0
 18 38  1  0
 21 39  1  0
 22 40  1  0
 23 41  1  0
 24 42  1  0
A    1
C01
A    2
C02
A    3
O03
A    4
N04
A    5
C05
A    6
C06
A    7
N07
A    8
C08
A    9
C09
A   10
O10
A   11
C11
A   12
C12
A   13
C13
A   14
C14
A   15
C15
A   16
C16
A   17
C17
A   18
O18
A   19
C19
A   20
C20
A   21
C21
A   22
C22
A   23
C23
A   24
C24
M  END
