5E7D_5KL_A_801
     RDKit          3D

 27 27  0  0  0  0  0  0  0  0999 V2000
    7.9000   31.9650    9.9030 C   0  0  0  0  0  0  0  0  0  0  0  0
    7.1710   30.7950    9.3410 N   0  0  0  0  0  0  0  0  0  0  0  0
    6.9940   29.7130   10.3360 C   0  0  0  0  0  0  0  0  0  0  0  0
    7.7950   30.3910    8.2230 C   0  0  0  0  0  0  0  0  0  0  0  0
    7.5900   29.1590    7.6260 C   0  0  0  0  0  0  0  0  0  0  0  0
    8.2830   28.8790    6.4680 C   0  0  0  0  0  0  0  0  0  0  0  0
    9.0380   29.7630    6.0570 O   0  0  0  0  0  0  0  0  0  0  0  0
    8.1080   27.5470    5.6650 C   0  0  0  0  0  0  0  0  0  0  0  0
    7.5320   26.3780    6.2070 C   0  0  0  0  0  0  0  0  0  0  0  0
    7.3660   25.1930    5.4490 C   0  0  0  0  0  0  0  0  0  0  0  0
    7.8170   25.1550    4.1110 C   0  0  0  0  0  0  0  0  0  0  0  0
    8.4190   26.3290    3.5950 C   0  0  0  0  0  0  0  0  0  0  0  0
    8.5660   27.5230    4.3260 C   0  0  0  0  0  0  0  0  0  0  0  0
    9.1250   28.6860    3.7460 O   0  0  0  0  0  0  0  0  0  0  0  0
    7.8725   31.9209   11.0018 H   0  0  0  0  0  0  0  0  0  0  0  0
    8.9454   31.9444    9.5612 H   0  0  0  0  0  0  0  0  0  0  0  0
    7.4208   32.8943    9.5612 H   0  0  0  0  0  0  0  0  0  0  0  0
    7.0627   30.1329   11.3504 H   0  0  0  0  0  0  0  0  0  0  0  0
    6.0075   29.2461   10.1984 H   0  0  0  0  0  0  0  0  0  0  0  0
    7.7803   28.9561   10.1984 H   0  0  0  0  0  0  0  0  0  0  0  0
    8.5121   31.0803    7.7533 H   0  0  0  0  0  0  0  0  0  0  0  0
    6.8954   28.4261    8.0624 H   0  0  0  0  0  0  0  0  0  0  0  0
    7.2001   26.3875    7.2557 H   0  0  0  0  0  0  0  0  0  0  0  0
    6.8897   24.3094    5.8988 H   0  0  0  0  0  0  0  0  0  0  0  0
    7.7053   24.2507    3.4948 H   0  0  0  0  0  0  0  0  0  0  0  0
    8.7940   26.3062    2.5612 H   0  0  0  0  0  0  0  0  0  0  0  0
    9.4729   29.4097    4.3251 H   0  0  0  0  0  0  0  0  0  0  0  0
  3  2  1  0
  1  2  1  0
  2  4  1  0
  4  5  2  0
  5  6  1  0
  6  7  2  0
  6  8  1  0
  9  8  2  0
  9 10  1  0
  8 13  1  0
 10 11  2  0
 13 14  1  0
 13 12  2  0
 11 12  1  0
  1 15  1  0
  1 16  1  0
  1 17  1  0
  3 18  1  0
  3 19  1  0
  3 20  1  0
  4 21  1  0
  5 22  1  0
  9 23  1  0
 10 24  1  0
 11 25  1  0
 12 26  1  0
 14 27  1  0
A    1
CAA
A    2
NAB
A    3
CAC
A    4
CAD
A    5
CAE
A    6
CAF
A    7
OAN
A    8
CAG
A    9
CAH
A   10
CAI
A   11
CAJ
A   12
CAK
A   13
CAL
A   14
OAM
M  END
