5E80_5KP_B_201
     RDKit          3D

 56 59  0  0  0  0  0  0  0  0999 V2000
    1.7700   -7.8990   -7.9870 C   0  0  0  0  0  0  0  0  0  0  0  0
    1.4080   -8.2530   -9.2980 C   0  0  0  0  0  0  0  0  0  0  0  0
    2.1340   -9.2420   -9.9590 C   0  0  0  0  0  0  0  0  0  0  0  0
    3.4150   -9.9710   -9.1360 Cl  0  0  0  0  0  0  0  0  0  0  0  0
    1.8410   -9.6410  -11.2630 C   0  0  0  0  0  0  0  0  0  0  0  0
    0.7940   -9.0450  -11.9490 C   0  0  0  0  0  0  0  0  0  0  0  0
    0.0470   -8.0640  -11.3040 C   0  0  0  0  0  0  0  0  0  0  0  0
    0.3530   -7.6790   -9.9960 C   0  0  0  0  0  0  0  0  0  0  0  0
   -0.3940   -6.7320   -9.4370 N   0  0  0  0  0  0  0  0  0  0  0  0
   -1.1100   -6.9540   -8.3050 C   0  0  0  0  0  0  0  0  0  0  0  0
   -1.0640   -7.9640   -7.6020 O   0  0  0  0  0  0  0  0  0  0  0  0
   -1.9860   -5.7730   -7.9660 C   0  0  0  0  0  0  0  0  0  0  0  0
   -2.3280   -5.8040   -6.4890 C   0  0  0  0  0  0  0  0  0  0  0  0
   -1.8100   -4.5130   -5.9430 C   0  0  0  0  0  0  0  0  0  0  0  0
   -1.9540   -4.4660   -4.4680 N   0  0  0  0  0  0  0  0  0  0  0  0
   -1.5200   -3.3400   -3.8610 C   0  0  0  0  0  0  0  0  0  0  0  0
   -1.0520   -2.4170   -4.5170 O   0  0  0  0  0  0  0  0  0  0  0  0
   -2.4380   -5.4190   -3.7800 N   0  0  0  0  0  0  0  0  0  0  0  0
   -2.5320   -5.3070   -2.4360 C   0  0  0  0  0  0  0  0  0  0  0  0
   -3.0840   -6.3530   -1.6950 C   0  0  0  0  0  0  0  0  0  0  0  0
   -2.0870   -4.1920   -1.8370 C   0  0  0  0  0  0  0  0  0  0  0  0
   -2.0020   -3.7280   -0.6010 C   0  0  0  0  0  0  0  0  0  0  0  0
   -2.4550   -4.4630    0.6660 C   0  0  0  0  0  0  0  0  0  0  0  0
   -1.5840   -3.2110   -2.5560 C   0  0  0  0  0  0  0  0  0  0  0  0
   -1.2150   -2.2270   -1.7450 N   0  0  0  0  0  0  0  0  0  0  0  0
   -1.4490   -2.5200   -0.6290 N   0  0  0  0  0  0  0  0  0  0  0  0
   -1.1920   -1.7570    0.4170 C   0  0  0  0  0  0  0  0  0  0  0  0
   -0.4060   -2.2790    1.4390 C   0  0  0  0  0  0  0  0  0  0  0  0
   -0.1140   -1.5120    2.5540 C   0  0  0  0  0  0  0  0  0  0  0  0
   -0.5970   -0.2170    2.6180 C   0  0  0  0  0  0  0  0  0  0  0  0
   -1.3660    0.3100    1.5790 C   0  0  0  0  0  0  0  0  0  0  0  0
   -1.6710   -0.4590    0.4710 C   0  0  0  0  0  0  0  0  0  0  0  0
    1.1728   -8.4830   -7.2713 H   0  0  0  0  0  0  0  0  0  0  0  0
    2.8382   -8.1106   -7.8318 H   0  0  0  0  0  0  0  0  0  0  0  0
    1.5823   -6.8263   -7.8318 H   0  0  0  0  0  0  0  0  0  0  0  0
    2.4396  -10.4272  -11.7463 H   0  0  0  0  0  0  0  0  0  0  0  0
    0.5586   -9.3415  -12.9818 H   0  0  0  0  0  0  0  0  0  0  0  0
   -0.7933   -7.5865  -11.8293 H   0  0  0  0  0  0  0  0  0  0  0  0
   -0.4307   -5.8011   -9.8762 H   0  0  0  0  0  0  0  0  0  0  0  0
   -2.9120   -5.8216   -8.5578 H   0  0  0  0  0  0  0  0  0  0  0  0
   -1.4504   -4.8408   -8.1986 H   0  0  0  0  0  0  0  0  0  0  0  0
   -1.8371   -6.6564   -5.9966 H   0  0  0  0  0  0  0  0  0  0  0  0
   -3.4084   -5.9201   -6.3182 H   0  0  0  0  0  0  0  0  0  0  0  0
   -2.3767   -3.6812   -6.3868 H   0  0  0  0  0  0  0  0  0  0  0  0
   -0.7425   -4.4284   -6.1946 H   0  0  0  0  0  0  0  0  0  0  0  0
   -2.9720   -6.1408   -0.6215 H   0  0  0  0  0  0  0  0  0  0  0  0
   -4.1518   -6.4521   -1.9398 H   0  0  0  0  0  0  0  0  0  0  0  0
   -2.5632   -7.2905   -1.9398 H   0  0  0  0  0  0  0  0  0  0  0  0
   -2.1137   -3.9092    1.5530 H   0  0  0  0  0  0  0  0  0  0  0  0
   -3.5528   -4.5323    0.6770 H   0  0  0  0  0  0  0  0  0  0  0  0
   -2.0236   -5.4748    0.6770 H   0  0  0  0  0  0  0  0  0  0  0  0
   -0.0152   -3.3043    1.3611 H   0  0  0  0  0  0  0  0  0  0  0  0
    0.4913   -1.9248    3.3745 H   0  0  0  0  0  0  0  0  0  0  0  0
   -0.3725    0.4043    3.4975 H   0  0  0  0  0  0  0  0  0  0  0  0
   -1.7323    1.3453    1.6422 H   0  0  0  0  0  0  0  0  0  0  0  0
   -2.2799   -0.0492   -0.3483 H   0  0  0  0  0  0  0  0  0  0  0  0
 29 30  1  0
 29 28  2  0
 30 31  2  0
 28 27  1  0
 31 32  1  0
 23 22  1  0
 27 32  2  0
 27 26  1  0
 26 22  1  0
 26 25  1  0
 22 21  2  0
 25 24  2  0
 21 19  1  0
 21 24  1  0
 20 19  1  0
 19 18  2  0
 24 16  1  0
 16 15  1  0
 16 17  2  0
 18 15  1  0
 15 14  1  0
 14 13  1  0
 13 12  1  0
 11 10  2  0
  1  2  1  0
 12 10  1  0
 10  9  1  0
  4  3  1  0
  2  3  2  0
  2  8  1  0
  9  8  1  0
  3  5  1  0
  8  7  2  0
  5  6  2  0
  7  6  1  0
  1 33  1  0
  1 34  1  0
  1 35  1  0
  5 36  1  0
  6 37  1  0
  7 38  1  0
  9 39  1  0
 12 40  1  0
 12 41  1  0
 13 42  1  0
 13 43  1  0
 14 44  1  0
 14 45  1  0
 20 46  1  0
 20 47  1  0
 20 48  1  0
 23 49  1  0
 23 50  1  0
 23 51  1  0
 28 52  1  0
 29 53  1  0
 30 54  1  0
 31 55  1  0
 32 56  1  0
A    1
CBE
A    2
CAZ
A    3
CBA
A    4
CL1
A    5
CBB
A    6
CBC
A    7
CBD
A    8
CAY
A    9
NAW
A   10
CAV
A   11
OAX
A   12
CAU
A   13
CAT
A   14
CAS
A   15
NAA
A   16
CAF
A   17
OAJ
A   18
NAB
A   19
CAC
A   20
CAL
A   21
CAD
A   22
CAG
A   23
CAK
A   24
CAE
A   25
NAI
A   26
NAH
A   27
CAM
A   28
CAN
A   29
CAO
A   30
CAP
A   31
CAQ
A   32
CAR
M  END
