5E8Z_5L4_A_601
     RDKit          3D

 55 58  0  0  0  0  0  0  0  0999 V2000
   -2.0620    6.5970    4.7880 C   0  0  0  0  0  0  0  0  0  0  0  0
    3.7950    8.3590    7.4390 C   0  0  0  0  0  0  0  0  0  0  0  0
   -4.1900    5.3120    4.3480 C   0  0  0  0  0  0  0  0  0  0  0  0
   -0.9860    5.8200    2.3780 C   0  0  0  0  0  0  0  0  0  0  0  0
   -2.2920    5.4920    2.7010 C   0  0  0  0  0  0  0  0  0  0  0  0
    5.0760    8.7950    7.7870 C   0  0  0  0  0  0  0  0  0  0  0  0
    4.4640    9.2460    9.9380 C   0  0  0  0  0  0  0  0  0  0  0  0
    3.1780    8.7920    9.7330 C   0  0  0  0  0  0  0  0  0  0  0  0
    2.8370    8.3150    8.4680 C   0  0  0  0  0  0  0  0  0  0  0  0
   -5.3030    6.3180    4.1240 C   0  0  0  0  0  0  0  0  0  0  0  0
   -0.1770    6.5320    3.2650 C   0  0  0  0  0  0  0  0  0  0  0  0
   -0.7620    6.9470    4.4630 C   0  0  0  0  0  0  0  0  0  0  0  0
    1.6740    6.2020    8.1880 C   0  0  0  0  0  0  0  0  0  0  0  0
    1.8360    6.6170    1.7040 C   0  0  0  0  0  0  0  0  0  0  0  0
    1.2570    6.8030    2.9740 C   0  0  0  0  0  0  0  0  0  0  0  0
    2.0180    7.2110    4.0040 N   0  0  0  0  0  0  0  0  0  0  0  0
    3.3270    7.4620    3.7940 C   0  0  0  0  0  0  0  0  0  0  0  0
    3.9050    7.2760    2.4980 C   0  0  0  0  0  0  0  0  0  0  0  0
    3.1370    6.8350    1.4710 N   0  0  0  0  0  0  0  0  0  0  0  0
    5.1920    7.5120    2.2440 N   0  0  0  0  0  0  0  0  0  0  0  0
    4.0930    7.9670    4.9900 C   0  0  0  0  0  0  0  0  0  0  0  0
    5.2720    8.2710    4.9010 O   0  0  0  0  0  0  0  0  0  0  0  0
    3.3830    8.0290    6.1290 N   0  0  0  0  0  0  0  0  0  0  0  0
   -2.8380    5.8470    3.9190 C   0  0  0  0  0  0  0  0  0  0  0  0
    5.4150    9.2330    9.0040 N   0  0  0  0  0  0  0  0  0  0  0  0
   -6.5630    5.7570    4.5070 O   0  0  0  0  0  0  0  0  0  0  0  0
    1.6070    7.6640    8.2460 N   0  0  0  0  0  0  0  0  0  0  0  0
    0.3840    5.6610    7.6330 C   0  0  0  0  0  0  0  0  0  0  0  0
   -0.7400    6.1170    8.3810 O   0  0  0  0  0  0  0  0  0  0  0  0
   -0.8040    7.5250    8.3700 C   0  0  0  0  0  0  0  0  0  0  0  0
    0.4280    8.1280    8.9810 C   0  0  0  0  0  0  0  0  0  0  0  0
   -2.4850    6.9194    5.7509 H   0  0  0  0  0  0  0  0  0  0  0  0
   -4.1485    5.0624    5.4185 H   0  0  0  0  0  0  0  0  0  0  0  0
   -4.4103    4.4239    3.7375 H   0  0  0  0  0  0  0  0  0  0  0  0
   -0.5782    5.5135    1.4035 H   0  0  0  0  0  0  0  0  0  0  0  0
   -2.9055    4.9389    1.9746 H   0  0  0  0  0  0  0  0  0  0  0  0
    5.8550    8.7768    7.0106 H   0  0  0  0  0  0  0  0  0  0  0  0
    4.7203    9.6425   10.9315 H   0  0  0  0  0  0  0  0  0  0  0  0
    2.4391    8.8059   10.5478 H   0  0  0  0  0  0  0  0  0  0  0  0
   -5.3361    6.5917    3.0591 H   0  0  0  0  0  0  0  0  0  0  0  0
   -5.1075    7.2108    4.7361 H   0  0  0  0  0  0  0  0  0  0  0  0
   -0.1789    7.5641    5.1624 H   0  0  0  0  0  0  0  0  0  0  0  0
    1.8337    5.8021    9.2002 H   0  0  0  0  0  0  0  0  0  0  0  0
    2.5079    5.8992    7.5376 H   0  0  0  0  0  0  0  0  0  0  0  0
    1.1974    6.2808    0.8739 H   0  0  0  0  0  0  0  0  0  0  0  0
    5.8565    7.6338    3.0215 H   0  0  0  0  0  0  0  0  0  0  0  0
    5.5221    7.5725    1.2702 H   0  0  0  0  0  0  0  0  0  0  0  0
    2.3834    7.8005    6.0317 H   0  0  0  0  0  0  0  0  0  0  0  0
   -6.6253    5.7292    5.4946 H   0  0  0  0  0  0  0  0  0  0  0  0
    0.4136    4.5619    7.6671 H   0  0  0  0  0  0  0  0  0  0  0  0
    0.2773    6.0187    6.5983 H   0  0  0  0  0  0  0  0  0  0  0  0
   -0.8959    7.8721    7.3303 H   0  0  0  0  0  0  0  0  0  0  0  0
   -1.6765    7.8392    8.9616 H   0  0  0  0  0  0  0  0  0  0  0  0
    0.3675    9.2249    8.9246 H   0  0  0  0  0  0  0  0  0  0  0  0
    0.5055    7.8220   10.0347 H   0  0  0  0  0  0  0  0  0  0  0  0
 26 10  1  0
 10  3  1  0
  3 24  1  0
 24  5  1  0
 24  1  2  0
  5  4  2  0
  1 12  1  0
  4 11  1  0
 12 11  2  0
 30 29  1  0
 30 31  1  0
 11 15  1  0
 29 28  1  0
 31 27  1  0
 28 13  1  0
 15 14  2  0
 15 16  1  0
 14 19  1  0
 16 17  2  0
 27 13  1  0
 27  9  1  0
 19 18  2  0
  9  8  2  0
  9  2  1  0
 17 18  1  0
 17 21  1  0
 23  2  1  0
 23 21  1  0
  8  7  1  0
 18 20  1  0
  2  6  2  0
 21 22  2  0
  7 25  2  0
  6 25  1  0
  1 32  1  0
  3 33  1  0
  3 34  1  0
  4 35  1  0
  5 36  1  0
  6 37  1  0
  7 38  1  0
  8 39  1  0
 10 40  1  0
 10 41  1  0
 12 42  1  0
 13 43  1  0
 13 44  1  0
 14 45  1  0
 20 46  1  0
 20 47  1  0
 23 48  1  0
 26 49  1  0
 28 50  1  0
 28 51  1  0
 30 52  1  0
 30 53  1  0
 31 54  1  0
 31 55  1  0
A    1
C13
A    2
C18
A    3
C17
A    4
C16
A    5
C15
A    6
C19
A    7
C21
A    8
C22
A    9
C23
A   10
C24
A   11
C11
A   12
C12
A   13
C27
A   14
C1
A   15
C2
A   16
N3
A   17
C4
A   18
C5
A   19
N6
A   20
N7
A   21
C8
A   22
O9
A   23
N10
A   24
C14
A   25
N20
A   26
O25
A   27
N26
A   28
C28
A   29
O29
A   30
C30
A   31
C31
M  END
