5E9C_5KV_A_608
     RDKit          3D

 33 33  0  0  0  0  0  0  0  0999 V2000
  -19.5910   14.6830   58.8310 O   0  0  0  0  0  0  0  0  0  0  0  0
  -21.7600   15.4930   59.4930 C   0  0  0  0  0  0  0  0  0  0  0  0
  -20.4470   14.8620   59.9810 C   0  0  0  0  0  0  0  0  0  0  0  0
  -20.8560   13.5620   60.7130 C   0  0  0  0  0  0  0  0  0  0  0  0
  -22.6400   15.8250   60.6960 C   0  0  0  0  0  0  0  0  0  0  0  0
  -23.0130   14.4710   61.3120 C   0  0  0  0  0  0  0  0  0  0  0  0
  -21.7980   13.8500   61.7580 O   0  0  0  0  0  0  0  0  0  0  0  0
  -23.9370   14.6210   62.4040 O   0  0  0  0  0  0  0  0  0  0  0  0
  -23.8340   16.6550   60.3540 N   0  0  0  0  0  0  0  0  0  0  0  0
  -21.5520   16.6760   58.7300 O   0  0  0  0  0  0  0  0  0  0  0  0
  -19.7480   12.7710   61.4080 C   0  0  0  0  0  0  0  0  0  0  0  0
  -20.2370   11.4450   61.7270 O   0  0  0  0  0  0  0  0  0  0  0  0
  -19.8320   10.6290   63.0020 S   0  0  0  0  0  0  0  0  0  0  0  0
  -23.6900   18.2770   60.5280 S   0  0  0  0  0  0  0  0  0  0  0  0
  -22.3550   18.7410   60.0900 O   0  0  0  0  0  0  0  0  0  0  0  0
  -23.9450   18.7190   61.9230 O   0  0  0  0  0  0  0  0  0  0  0  0
  -24.6950   18.9420   59.6680 O   0  0  0  0  0  0  0  0  0  0  0  0
  -18.4790   10.1110   62.8130 O   0  0  0  0  0  0  0  0  0  0  0  0
  -19.7860   11.5250   64.1810 O   0  0  0  0  0  0  0  0  0  0  0  0
  -20.8200    9.5310   63.2190 O   0  0  0  0  0  0  0  0  0  0  0  0
  -18.6682   14.4900   59.1333 H   0  0  0  0  0  0  0  0  0  0  0  0
  -22.2492   14.7578   58.8371 H   0  0  0  0  0  0  0  0  0  0  0  0
  -19.8660   15.4728   60.6877 H   0  0  0  0  0  0  0  0  0  0  0  0
  -21.2451   12.9510   59.8852 H   0  0  0  0  0  0  0  0  0  0  0  0
  -22.0971   16.4593   61.4122 H   0  0  0  0  0  0  0  0  0  0  0  0
  -23.5166   13.8464   60.5595 H   0  0  0  0  0  0  0  0  0  0  0  0
  -23.4495   14.5419   63.2620 H   0  0  0  0  0  0  0  0  0  0  0  0
  -24.6097   16.3460   60.9571 H   0  0  0  0  0  0  0  0  0  0  0  0
  -21.4171   17.4433   59.3409 H   0  0  0  0  0  0  0  0  0  0  0  0
  -18.8781   12.6913   60.7395 H   0  0  0  0  0  0  0  0  0  0  0  0
  -19.4499   13.2871   62.3325 H   0  0  0  0  0  0  0  0  0  0  0  0
  -23.5636   18.0579   62.5536 H   0  0  0  0  0  0  0  0  0  0  0  0
  -19.8138   10.9828   65.0088 H   0  0  0  0  0  0  0  0  0  0  0  0
 10  2  1  0
  1  3  1  0
  2  3  1  0
  2  5  1  0
 17 14  2  0
  3  4  1  0
 15 14  2  0
  9 14  1  0
  9  5  1  0
 14 16  1  0
  5  6  1  0
  4 11  1  0
  4  7  1  0
  6  7  1  0
  6  8  1  0
 11 12  1  0
 12 13  1  0
 18 13  2  0
 13 20  2  0
 13 19  1  0
  1 21  1  0
  2 22  1  0
  3 23  1  0
  4 24  1  0
  5 25  1  0
  6 26  1  0
  8 27  1  0
  9 28  1  0
 10 29  1  0
 11 30  1  0
 11 31  1  0
 16 32  1  0
 19 33  1  0
A    1
O13
A    2
C18
A    3
C19
A    4
C20
A    5
C21
A    6
C22
A    7
O25
A    8
O28
A    9
N29
A   10
O30
A   11
C31
A   12
O32
A   13
S33
A   14
S34
A   15
O35
A   16
O36
A   17
O37
A   18
O38
A   19
O39
A   20
O40
M  END
