5E9I_F60_A_2001
     RDKit          3D

 17 18  0  0  0  0  0  0  0  0999 V2000
  -28.4950  -11.0130    0.5910 O   0  0  0  0  0  0  0  0  0  0  0  0
  -27.4260  -10.1120    0.4960 C   0  0  0  0  0  0  0  0  0  0  0  0
  -26.1290  -10.5910    0.3430 C   0  0  0  0  0  0  0  0  0  0  0  0
  -25.0480   -9.6670    0.2450 C   0  0  0  0  0  0  0  0  0  0  0  0
  -25.2910   -8.3140    0.2960 C   0  0  0  0  0  0  0  0  0  0  0  0
  -24.0030   -7.7040    0.1600 C   0  0  0  0  0  0  0  0  0  0  0  0
  -23.0500   -8.7200    0.0400 C   0  0  0  0  0  0  0  0  0  0  0  0
  -23.6920   -9.8720    0.0910 N   0  0  0  0  0  0  0  0  0  0  0  0
  -26.6160   -7.8270    0.4470 C   0  0  0  0  0  0  0  0  0  0  0  0
  -27.6750   -8.7330    0.5460 C   0  0  0  0  0  0  0  0  0  0  0  0
  -28.8282  -11.2938    1.4800 H   0  0  0  0  0  0  0  0  0  0  0  0
  -25.9392  -11.6736    0.2980 H   0  0  0  0  0  0  0  0  0  0  0  0
  -23.7985   -6.6232    0.1514 H   0  0  0  0  0  0  0  0  0  0  0  0
  -21.9646   -8.5841   -0.0757 H   0  0  0  0  0  0  0  0  0  0  0  0
  -23.2429  -10.7966    0.0250 H   0  0  0  0  0  0  0  0  0  0  0  0
  -26.8074   -6.7445    0.4858 H   0  0  0  0  0  0  0  0  0  0  0  0
  -28.7047   -8.3643    0.6632 H   0  0  0  0  0  0  0  0  0  0  0  0
  7  8  1  0
  7  6  2  0
  8  4  1  0
  6  5  1  0
  4  5  2  0
  4  3  1  0
  5  9  1  0
  3  2  2  0
  9 10  2  0
  2 10  1  0
  2  1  1  0
  1 11  1  0
  3 12  1  0
  6 13  1  0
  7 14  1  0
  8 15  1  0
  9 16  1  0
 10 17  1  0
A    1
O01
A    2
C02
A    3
C03
A    4
C04
A    5
C05
A    6
C06
A    7
C07
A    8
N08
A    9
C09
A   10
C10
M  END
