5E9K_5KX_A_2001
     RDKit          3D

  9  9  0  0  0  0  0  0  0  0999 V2000
   25.2240   10.9560    0.9170 Cl  0  0  0  0  0  0  0  0  0  0  0  0
   25.5880    9.2610    0.7640 C   0  0  0  0  0  0  0  0  0  0  0  0
   24.7690    8.2320    1.1040 N   0  0  0  0  0  0  0  0  0  0  0  0
   25.4140    7.0750    0.8330 C   0  0  0  0  0  0  0  0  0  0  0  0
   26.6500    7.3930    0.3370 C   0  0  0  0  0  0  0  0  0  0  0  0
   26.7420    8.7280    0.3000 N   0  0  0  0  0  0  0  0  0  0  0  0
   23.8218    8.3181    1.4993 H   0  0  0  0  0  0  0  0  0  0  0  0
   25.0170    6.0603    0.9839 H   0  0  0  0  0  0  0  0  0  0  0  0
   27.4273    6.6799    0.0251 H   0  0  0  0  0  0  0  0  0  0  0  0
  6  5  1  0
  6  2  2  0
  5  4  2  0
  2  1  1  0
  2  3  1  0
  4  3  1  0
  3  7  1  0
  4  8  1  0
  5  9  1  0
A    1
CL1
A    2
C02
A    3
N03
A    4
C04
A    5
C05
A    6
N06
M  END
