5EA3_5NK_F_608
     RDKit          3D

 59 62  0  0  0  0  0  0  0  0999 V2000
   23.7380   16.9200   23.8690 C   0  0  0  0  0  0  0  0  0  0  0  0
   16.0940   21.3660   22.0180 C   0  0  0  0  0  0  0  0  0  0  0  0
   18.4620   22.2800   22.0340 C   0  0  0  0  0  0  0  0  0  0  0  0
   24.4820   22.6560   22.9280 C   0  0  0  0  0  0  0  0  0  0  0  0
   24.4060   22.7950   24.4370 C   0  0  0  0  0  0  0  0  0  0  0  0
   23.0650   24.5960   22.6560 C   0  0  0  0  0  0  0  0  0  0  0  0
   25.7900   25.6650   25.9680 C   0  0  0  0  0  0  0  0  0  0  0  0
   15.5060   19.2440   20.5270 C   0  0  0  0  0  0  0  0  0  0  0  0
   22.7430   17.2390   22.7210 C   0  0  0  0  0  0  0  0  0  0  0  0
   22.1900   16.1330   21.8450 C   0  0  0  0  0  0  0  0  0  0  0  0
   21.2370   16.4610   20.7480 C   0  0  0  0  0  0  0  0  0  0  0  0
   20.8370   17.8940   20.5200 C   0  0  0  0  0  0  0  0  0  0  0  0
   22.3190   18.7230   22.4710 C   0  0  0  0  0  0  0  0  0  0  0  0
   21.4260   19.0310   21.4390 C   0  0  0  0  0  0  0  0  0  0  0  0
   21.2240   20.3960   21.4510 N   0  0  0  0  0  0  0  0  0  0  0  0
   21.9980   20.9470   22.4860 C   0  0  0  0  0  0  0  0  0  0  0  0
   22.6700   19.9020   23.1110 N   0  0  0  0  0  0  0  0  0  0  0  0
   20.3670   21.1200   20.5300 C   0  0  0  0  0  0  0  0  0  0  0  0
   18.8930   21.1840   21.0420 C   0  0  0  0  0  0  0  0  0  0  0  0
   17.9210   20.2170   20.5650 N   0  0  0  0  0  0  0  0  0  0  0  0
   16.5260   20.2740   21.0310 C   0  0  0  0  0  0  0  0  0  0  0  0
   17.0700   22.3470   22.4980 C   0  0  0  0  0  0  0  0  0  0  0  0
   22.0880   22.3670   22.8470 N   0  0  0  0  0  0  0  0  0  0  0  0
   23.2430   23.1760   22.3240 C   0  0  0  0  0  0  0  0  0  0  0  0
   24.2650   24.1830   24.8640 N   0  0  0  0  0  0  0  0  0  0  0  0
   23.1820   24.8970   24.1370 C   0  0  0  0  0  0  0  0  0  0  0  0
   25.4670   24.8550   24.6920 C   0  0  0  0  0  0  0  0  0  0  0  0
   25.7140   24.8170   27.1340 N   0  0  0  0  0  0  0  0  0  0  0  0
   19.3910   23.2160   22.4840 O   0  0  0  0  0  0  0  0  0  0  0  0
   23.2427   17.0788   24.8382 H   0  0  0  0  0  0  0  0  0  0  0  0
   24.0640   15.8723   23.7911 H   0  0  0  0  0  0  0  0  0  0  0  0
   24.6124   17.5828   23.7911 H   0  0  0  0  0  0  0  0  0  0  0  0
   15.0513   21.4123   22.3652 H   0  0  0  0  0  0  0  0  0  0  0  0
   24.6019   21.5951   22.6631 H   0  0  0  0  0  0  0  0  0  0  0  0
   25.3423   23.2278   22.5499 H   0  0  0  0  0  0  0  0  0  0  0  0
   23.5388   22.2243   24.8006 H   0  0  0  0  0  0  0  0  0  0  0  0
   25.3477   22.4106   24.8558 H   0  0  0  0  0  0  0  0  0  0  0  0
   23.8326   25.1758   22.1225 H   0  0  0  0  0  0  0  0  0  0  0  0
   22.0438   24.8705   22.3528 H   0  0  0  0  0  0  0  0  0  0  0  0
   26.8056   26.0798   25.8868 H   0  0  0  0  0  0  0  0  0  0  0  0
   25.0569   26.4788   26.0697 H   0  0  0  0  0  0  0  0  0  0  0  0
   15.0227   18.7559   21.3862 H   0  0  0  0  0  0  0  0  0  0  0  0
   14.7440   19.7509   19.9168 H   0  0  0  0  0  0  0  0  0  0  0  0
   16.0203   18.4869   19.9168 H   0  0  0  0  0  0  0  0  0  0  0  0
   22.4918   15.0896   22.0189 H   0  0  0  0  0  0  0  0  0  0  0  0
   20.8292   15.6629   20.1102 H   0  0  0  0  0  0  0  0  0  0  0  0
   20.1342   18.1475   19.7127 H   0  0  0  0  0  0  0  0  0  0  0  0
   20.3837   20.6130   19.5540 H   0  0  0  0  0  0  0  0  0  0  0  0
   20.7459   22.1492   20.4459 H   0  0  0  0  0  0  0  0  0  0  0  0
   16.7613   23.1319   23.2042 H   0  0  0  0  0  0  0  0  0  0  0  0
   21.3730   22.8015   23.4477 H   0  0  0  0  0  0  0  0  0  0  0  0
   23.2965   23.0917   21.2285 H   0  0  0  0  0  0  0  0  0  0  0  0
   23.3576   25.9772   24.2480 H   0  0  0  0  0  0  0  0  0  0  0  0
   22.2415   24.5452   24.5862 H   0  0  0  0  0  0  0  0  0  0  0  0
   26.2708   24.1274   24.5060 H   0  0  0  0  0  0  0  0  0  0  0  0
   25.3861   25.5384   23.8339 H   0  0  0  0  0  0  0  0  0  0  0  0
   25.7659   25.3965   27.9839 H   0  0  0  0  0  0  0  0  0  0  0  0
   24.8233   24.2998   27.1250 H   0  0  0  0  0  0  0  0  0  0  0  0
   19.5260   23.3520   23.4553 H   0  0  0  0  0  0  0  0  0  0  0  0
 12 11  2  0
 12 14  1  0
  8 21  1  0
 18 19  1  0
 18 15  1  0
 20 21  1  0
 20 19  2  0
 11 10  1  0
 21  2  2  0
 19  3  1  0
 14 15  1  0
 14 13  2  0
 15 16  1  0
 10  9  2  0
  2 22  1  0
  3 29  1  0
  3 22  2  0
 24  6  1  0
 24 23  1  0
 24  4  1  0
 13  9  1  0
 13 17  1  0
 16 23  1  0
 16 17  2  0
  6 26  1  0
  9  1  1  0
  4  5  1  0
 26 25  1  0
  5 25  1  0
 27 25  1  0
 27  7  1  0
  7 28  1  0
  1 30  1  0
  1 31  1  0
  1 32  1  0
  2 33  1  0
  4 34  1  0
  4 35  1  0
  5 36  1  0
  5 37  1  0
  6 38  1  0
  6 39  1  0
  7 40  1  0
  7 41  1  0
  8 42  1  0
  8 43  1  0
  8 44  1  0
 10 45  1  0
 11 46  1  0
 12 47  1  0
 18 48  1  0
 18 49  1  0
 22 50  1  0
 23 51  1  0
 24 52  1  0
 26 53  1  0
 26 54  1  0
 27 55  1  0
 27 56  1  0
 28 57  1  0
 28 58  1  0
 29 59  1  0
A    1
C10
A    2
C15
A    3
C17
A    4
C20
A    5
C21
A    6
C24
A    7
C26
A    8
C28
A    9
C01
A   10
C02
A   11
C03
A   12
C04
A   13
C05
A   14
C06
A   15
N07
A   16
C08
A   17
N09
A   18
C11
A   19
C12
A   20
N13
A   21
C14
A   22
C16
A   23
N18
A   24
C19
A   25
N22
A   26
C23
A   27
C25
A   28
N27
A   29
O29
M  END
