5EA4_5NM_F_607
     RDKit          3D

 53 57  0  0  0  0  0  0  0  0999 V2000
   19.9050   19.7670   18.3790 C   0  0  0  0  0  0  0  0  0  0  0  0
   19.2820   14.7200   18.1510 C   0  0  0  0  0  0  0  0  0  0  0  0
   17.9550   14.5420   17.4270 C   0  0  0  0  0  0  0  0  0  0  0  0
   20.7350   15.4860   20.9640 C   0  0  0  0  0  0  0  0  0  0  0  0
   21.1150   18.4290   21.1530 C   0  0  0  0  0  0  0  0  0  0  0  0
   16.2070   18.2800   19.1480 C   0  0  0  0  0  0  0  0  0  0  0  0
   15.5270   22.1100   22.2840 C   0  0  0  0  0  0  0  0  0  0  0  0
   19.4050   17.3020   17.8730 C   0  0  0  0  0  0  0  0  0  0  0  0
   19.9210   18.3670   18.7000 N   0  0  0  0  0  0  0  0  0  0  0  0
   19.6230   16.0550   18.5760 N   0  0  0  0  0  0  0  0  0  0  0  0
   19.0010   20.4270   19.4210 C   0  0  0  0  0  0  0  0  0  0  0  0
   19.3960   21.2270   20.4610 N   0  0  0  0  0  0  0  0  0  0  0  0
   20.4490   17.7900   19.9170 C   0  0  0  0  0  0  0  0  0  0  0  0
   20.2660   16.3640   19.8400 C   0  0  0  0  0  0  0  0  0  0  0  0
   17.6260   20.2920   19.4630 N   0  0  0  0  0  0  0  0  0  0  0  0
   18.2810   21.5990   21.1500 C   0  0  0  0  0  0  0  0  0  0  0  0
   17.1770   21.0130   20.5290 C   0  0  0  0  0  0  0  0  0  0  0  0
   14.2720   16.3750   18.9290 S   0  0  0  0  0  0  0  0  0  0  0  0
   19.2670   14.4210   16.6590 C   0  0  0  0  0  0  0  0  0  0  0  0
   18.0860   22.5010   22.4110 C   0  0  0  0  0  0  0  0  0  0  0  0
   18.8840   17.4580   16.7790 O   0  0  0  0  0  0  0  0  0  0  0  0
   15.7250   21.2500   21.0690 C   0  0  0  0  0  0  0  0  0  0  0  0
   13.7130   16.6980   20.2200 O   0  0  0  0  0  0  0  0  0  0  0  0
   15.2300   15.3490   19.2600 O   0  0  0  0  0  0  0  0  0  0  0  0
   21.5780   17.5740   22.2640 N   0  0  0  0  0  0  0  0  0  0  0  0
   16.7040   22.7280   22.9440 C   0  0  0  0  0  0  0  0  0  0  0  0
   16.8300   19.5340   18.5190 C   0  0  0  0  0  0  0  0  0  0  0  0
   15.0770   17.8010   18.2110 C   0  0  0  0  0  0  0  0  0  0  0  0
   13.0180   15.7880   17.7960 C   0  0  0  0  0  0  0  0  0  0  0  0
   16.4710   23.8240   24.4900 Br  0  0  0  0  0  0  0  0  0  0  0  0
   21.3950   16.1070   22.1900 C   0  0  0  0  0  0  0  0  0  0  0  0
   20.9214   20.1839   18.4355 H   0  0  0  0  0  0  0  0  0  0  0  0
   19.5374   19.9423   17.3572 H   0  0  0  0  0  0  0  0  0  0  0  0
   19.7671   14.2595   19.0243 H   0  0  0  0  0  0  0  0  0  0  0  0
   17.2982   15.4086   17.2610 H   0  0  0  0  0  0  0  0  0  0  0  0
   17.0725   13.9002   17.5660 H   0  0  0  0  0  0  0  0  0  0  0  0
   20.6025   14.3957   20.9030 H   0  0  0  0  0  0  0  0  0  0  0  0
   21.2448   19.5200   21.2065 H   0  0  0  0  0  0  0  0  0  0  0  0
   15.7954   18.5222   20.1389 H   0  0  0  0  0  0  0  0  0  0  0  0
   16.9651   17.4929   19.2733 H   0  0  0  0  0  0  0  0  0  0  0  0
   14.5160   22.2809   22.6823 H   0  0  0  0  0  0  0  0  0  0  0  0
   19.6007   13.4395   16.2912 H   0  0  0  0  0  0  0  0  0  0  0  0
   19.6924   14.9004   15.7650 H   0  0  0  0  0  0  0  0  0  0  0  0
   18.9542   22.9645   22.9023 H   0  0  0  0  0  0  0  0  0  0  0  0
   14.8616   20.7920   20.5643 H   0  0  0  0  0  0  0  0  0  0  0  0
   17.4740   19.2259   17.6821 H   0  0  0  0  0  0  0  0  0  0  0  0
   16.0077   20.1813   18.1801 H   0  0  0  0  0  0  0  0  0  0  0  0
   15.5018   17.5288   17.2335 H   0  0  0  0  0  0  0  0  0  0  0  0
   14.3425   18.6092   18.0793 H   0  0  0  0  0  0  0  0  0  0  0  0
   12.1662   15.3893   18.3664 H   0  0  0  0  0  0  0  0  0  0  0  0
   12.6776   16.6204   17.1625 H   0  0  0  0  0  0  0  0  0  0  0  0
   13.4392   14.9935   17.1625 H   0  0  0  0  0  0  0  0  0  0  0  0
   21.7343   15.4665   23.0174 H   0  0  0  0  0  0  0  0  0  0  0  0
 19  3  1  0
 19  2  1  0
 21  8  2  0
  3  2  1  0
 29 18  1  0
  8 10  1  0
  8  9  1  0
  2 10  1  0
 28 18  1  0
 28  6  1  0
  1  9  1  0
  1 11  1  0
 27  6  1  0
 27 15  1  0
 10 14  1  0
  9 13  1  0
 18 24  2  0
 18 23  2  0
 11 15  1  0
 11 12  2  0
 15 17  1  0
 14 13  1  0
 14  4  2  0
 13  5  2  0
 12 16  1  0
 17 22  1  0
 17 16  2  0
  4 31  1  0
 22  7  2  0
 16 20  1  0
  5 25  1  0
 31 25  2  0
  7 26  1  0
 20 26  2  0
 26 30  1  0
  1 32  1  0
  1 33  1  0
  2 34  1  0
  3 35  1  0
  3 36  1  0
  4 37  1  0
  5 38  1  0
  6 39  1  0
  6 40  1  0
  7 41  1  0
 19 42  1  0
 19 43  1  0
 20 44  1  0
 22 45  1  0
 27 46  1  0
 27 47  1  0
 28 48  1  0
 28 49  1  0
 29 50  1  0
 29 51  1  0
 29 52  1  0
 31 53  1  0
A    1
C10
A    2
C13
A    3
C15
A    4
C22
A    5
C24
A    6
C26
A    7
C28
A    8
C01
A    9
N02
A   10
N03
A   11
C04
A   12
N05
A   13
C06
A   14
C07
A   15
N08
A   16
C09
A   17
C11
A   18
S12
A   19
C14
A   20
C16
A   21
O17
A   22
C18
A   23
O19
A   24
O20
A   25
N21
A   26
C23
A   27
C25
A   28
C27
A   29
C29
A   30
BR3
A   31
C31
M  END
