5EAC_TBQ_A_602
     RDKit          3D

 43 44  0  0  0  0  0  0  0  0999 V2000
   15.7780   11.5430   19.0620 Cl  0  0  0  0  0  0  0  0  0  0  0  0
   17.7630    9.7770   18.5650 C   0  0  0  0  0  0  0  0  0  0  0  0
   18.9270    9.3670   17.9390 C   0  0  0  0  0  0  0  0  0  0  0  0
   19.5750   10.1780   17.0160 C   0  0  0  0  0  0  0  0  0  0  0  0
   19.0280   11.4230   16.7370 C   0  0  0  0  0  0  0  0  0  0  0  0
   17.8670   11.8490   17.3600 C   0  0  0  0  0  0  0  0  0  0  0  0
   17.2440   11.0160   18.2690 C   0  0  0  0  0  0  0  0  0  0  0  0
   20.8380    9.7030   16.3350 C   0  0  0  0  0  0  0  0  0  0  0  0
   21.4910   10.7370   15.4060 C   0  0  0  0  0  0  0  0  0  0  0  0
   22.9980   10.9850   15.6680 C   0  0  0  0  0  0  0  0  0  0  0  0
   22.9950   12.0930   16.7240 C   0  0  0  0  0  0  0  0  0  0  0  0
   24.2690   12.4000   17.3620 N   0  0  0  0  0  0  0  0  0  0  0  0
   25.0250   11.6430   18.1420 C   0  0  0  0  0  0  0  0  0  0  0  0
   26.1150   12.2780   18.5040 N   0  0  0  0  0  0  0  0  0  0  0  0
   25.9660   13.4710   17.8860 C   0  0  0  0  0  0  0  0  0  0  0  0
   24.8660   13.6090   17.1820 N   0  0  0  0  0  0  0  0  0  0  0  0
   23.6150    9.8170   16.2220 O   0  0  0  0  0  0  0  0  0  0  0  0
   23.8240   11.2540   14.3740 C   0  0  0  0  0  0  0  0  0  0  0  0
   25.3270   11.2670   14.6750 C   0  0  0  0  0  0  0  0  0  0  0  0
   23.5760   10.1620   13.3280 C   0  0  0  0  0  0  0  0  0  0  0  0
   23.4580   12.6160   13.7720 C   0  0  0  0  0  0  0  0  0  0  0  0
   17.2593    9.1206   19.2899 H   0  0  0  0  0  0  0  0  0  0  0  0
   19.3476    8.3789   18.1771 H   0  0  0  0  0  0  0  0  0  0  0  0
   19.5248   12.0817   16.0094 H   0  0  0  0  0  0  0  0  0  0  0  0
   17.4456   12.8395   17.1336 H   0  0  0  0  0  0  0  0  0  0  0  0
   20.5918    8.8125   15.7380 H   0  0  0  0  0  0  0  0  0  0  0  0
   21.5654    9.4989   17.1345 H   0  0  0  0  0  0  0  0  0  0  0  0
   20.9602   11.6924   15.5304 H   0  0  0  0  0  0  0  0  0  0  0  0
   21.4166   10.3289   14.3872 H   0  0  0  0  0  0  0  0  0  0  0  0
   22.6360   13.0129   16.2393 H   0  0  0  0  0  0  0  0  0  0  0  0
   22.3528   11.7156   17.5334 H   0  0  0  0  0  0  0  0  0  0  0  0
   24.7726   10.6166   18.4466 H   0  0  0  0  0  0  0  0  0  0  0  0
   26.7155   14.2721   17.9673 H   0  0  0  0  0  0  0  0  0  0  0  0
   23.5885    9.8671   17.2104 H   0  0  0  0  0  0  0  0  0  0  0  0
   25.4829   11.2683   15.7639 H   0  0  0  0  0  0  0  0  0  0  0  0
   25.7961   10.3729   14.2385 H   0  0  0  0  0  0  0  0  0  0  0  0
   25.7806   12.1691   14.2385 H   0  0  0  0  0  0  0  0  0  0  0  0
   23.3599    9.2104   13.8356 H   0  0  0  0  0  0  0  0  0  0  0  0
   22.7192   10.4448   12.6988 H   0  0  0  0  0  0  0  0  0  0  0  0
   24.4709   10.0470   12.6988 H   0  0  0  0  0  0  0  0  0  0  0  0
   23.2648   13.3349   14.5819 H   0  0  0  0  0  0  0  0  0  0  0  0
   24.2907   12.9782   13.1511 H   0  0  0  0  0  0  0  0  0  0  0  0
   22.5559   12.5120   13.1511 H   0  0  0  0  0  0  0  0  0  0  0  0
 20 18  1  0
 21 18  1  0
 18 19  1  0
 18 10  1  0
  9 10  1  0
  9  8  1  0
 10 17  1  0
 10 11  1  0
  8  4  1  0
 11 12  1  0
  5  4  2  0
  5  6  1  0
  4  3  1  0
 16 12  1  0
 16 15  2  0
  6  7  2  0
 12 13  1  0
 15 14  1  0
  3  2  2  0
 13 14  2  0
  7  2  1  0
  7  1  1  0
  2 22  1  0
  3 23  1  0
  5 24  1  0
  6 25  1  0
  8 26  1  0
  8 27  1  0
  9 28  1  0
  9 29  1  0
 11 30  1  0
 11 31  1  0
 13 32  1  0
 15 33  1  0
 17 34  1  0
 19 35  1  0
 19 36  1  0
 19 37  1  0
 20 38  1  0
 20 39  1  0
 20 40  1  0
 21 41  1  0
 21 42  1  0
 21 43  1  0
A    1
CL1
A    2
C1
A    3
C2
A    4
C3
A    5
C4
A    6
C5
A    7
C6
A    8
C12
A    9
C15
A   10
C18
A   11
C19
A   12
N22
A   13
C23
A   14
N24
A   15
C25
A   16
N26
A   17
O29
A   18
C31
A   19
C32
A   20
C36
A   21
C40
M  END
