5EAG_5LU_A_601
     RDKit          3D

 39 40  0  0  0  0  0  0  0  0999 V2000
   23.7870   10.6850   13.4470 C   0  0  0  0  0  0  0  0  0  0  0  0
   25.0060   10.3520   12.6230 C   0  0  0  0  0  0  0  0  0  0  0  0
   24.7230   12.7380   16.4570 N   0  0  0  0  0  0  0  0  0  0  0  0
   24.0300   13.4370   17.4200 C   0  0  0  0  0  0  0  0  0  0  0  0
   24.9210   13.6940   18.4050 C   0  0  0  0  0  0  0  0  0  0  0  0
   26.1550   13.1740   18.1000 N   0  0  0  0  0  0  0  0  0  0  0  0
   26.0000   12.5980   16.9310 C   0  0  0  0  0  0  0  0  0  0  0  0
   24.2300   12.3640   15.1880 C   0  0  0  0  0  0  0  0  0  0  0  0
   23.7910   13.2650   14.5050 O   0  0  0  0  0  0  0  0  0  0  0  0
   24.1980   11.0700   14.7910 N   0  0  0  0  0  0  0  0  0  0  0  0
   26.1580   11.3290   12.8290 C   0  0  0  0  0  0  0  0  0  0  0  0
   24.4150    9.9560   15.7140 C   0  0  0  0  0  0  0  0  0  0  0  0
   23.1110    9.3220   16.0870 C   0  0  0  0  0  0  0  0  0  0  0  0
   22.2490   10.4250   16.3690 O   0  0  0  0  0  0  0  0  0  0  0  0
   18.4720    9.5540   17.7600 C   0  0  0  0  0  0  0  0  0  0  0  0
   18.6440    9.7300   16.4030 C   0  0  0  0  0  0  0  0  0  0  0  0
   19.9140    9.9950   15.9300 C   0  0  0  0  0  0  0  0  0  0  0  0
   20.9960   10.0630   16.7890 C   0  0  0  0  0  0  0  0  0  0  0  0
   20.7960    9.8130   18.1270 C   0  0  0  0  0  0  0  0  0  0  0  0
   19.5380    9.5560   18.6320 C   0  0  0  0  0  0  0  0  0  0  0  0
   16.8570    9.4910   18.4090 Cl  0  0  0  0  0  0  0  0  0  0  0  0
   20.1420   10.2970   14.2380 Cl  0  0  0  0  0  0  0  0  0  0  0  0
   22.1510    9.8320   19.2070 Cl  0  0  0  0  0  0  0  0  0  0  0  0
   23.2436   11.5181   12.9772 H   0  0  0  0  0  0  0  0  0  0  0  0
   23.1311    9.8037   13.5031 H   0  0  0  0  0  0  0  0  0  0  0  0
   24.7231   10.3648   11.5601 H   0  0  0  0  0  0  0  0  0  0  0  0
   25.3573    9.3610   12.9464 H   0  0  0  0  0  0  0  0  0  0  0  0
   22.9692   13.7270   17.3937 H   0  0  0  0  0  0  0  0  0  0  0  0
   24.6881   14.2460   19.3275 H   0  0  0  0  0  0  0  0  0  0  0  0
   26.8005   12.0662   16.3958 H   0  0  0  0  0  0  0  0  0  0  0  0
   26.3282   11.4733   13.9061 H   0  0  0  0  0  0  0  0  0  0  0  0
   27.0694   10.9243   12.3648 H   0  0  0  0  0  0  0  0  0  0  0  0
   25.9076   12.2943   12.3648 H   0  0  0  0  0  0  0  0  0  0  0  0
   25.0573    9.2052   15.2305 H   0  0  0  0  0  0  0  0  0  0  0  0
   24.8981   10.3382   16.6253 H   0  0  0  0  0  0  0  0  0  0  0  0
   22.7166    8.7228   15.2531 H   0  0  0  0  0  0  0  0  0  0  0  0
   23.2071    8.6353   16.9410 H   0  0  0  0  0  0  0  0  0  0  0  0
   17.7896    9.6609   15.7136 H   0  0  0  0  0  0  0  0  0  0  0  0
   19.3902    9.3577   19.7038 H   0  0  0  0  0  0  0  0  0  0  0  0
  2 11  1  0
  2  1  1  0
  1 10  1  0
 22 17  1  0
  9  8  2  0
 10  8  1  0
 10 12  1  0
  8  3  1  0
 12 13  1  0
 17 16  1  0
 17 18  2  0
 13 14  1  0
 14 18  1  0
 16 15  2  0
  3  7  1  0
  3  4  1  0
 18 19  1  0
  7  6  2  0
  4  5  2  0
 15 21  1  0
 15 20  1  0
  6  5  1  0
 19 20  2  0
 19 23  1  0
  1 24  1  0
  1 25  1  0
  2 26  1  0
  2 27  1  0
  4 28  1  0
  5 29  1  0
  7 30  1  0
 11 31  1  0
 11 32  1  0
 11 33  1  0
 12 34  1  0
 12 35  1  0
 13 36  1  0
 13 37  1  0
 16 38  1  0
 20 39  1  0
A    1
C11
A    2
C14
A    3
N1
A    4
C2
A    5
C3
A    6
N4
A    7
C5
A    8
C8
A    9
O9
A   10
N10
A   11
C17
A   12
C21
A   13
C24
A   14
O27
A   15
C28
A   16
C29
A   17
C30
A   18
C31
A   19
C32
A   20
C33
A   21
CL1
A   22
CL2
A   23
CL3
M  END
