5EAI_E6A_B_302
     RDKit          3D

 39 42  0  0  0  0  0  0  0  0999 V2000
  -23.4520   13.9980  -42.4580 O   0  0  0  0  0  0  0  0  0  0  0  0
  -22.3690   13.9490  -41.8770 C   0  0  0  0  0  0  0  0  0  0  0  0
  -21.2380   13.2100  -42.5680 C   0  0  0  0  0  0  0  0  0  0  0  0
  -21.4340   12.4740  -43.7450 C   0  0  0  0  0  0  0  0  0  0  0  0
  -20.3570   11.8020  -44.3300 C   0  0  0  0  0  0  0  0  0  0  0  0
  -19.0820   11.8220  -43.7490 C   0  0  0  0  0  0  0  0  0  0  0  0
  -18.8410   12.5170  -42.5590 C   0  0  0  0  0  0  0  0  0  0  0  0
  -19.8810   13.2330  -41.9470 C   0  0  0  0  0  0  0  0  0  0  0  0
  -19.6980   13.9810  -40.6460 C   0  0  0  0  0  0  0  0  0  0  0  0
  -18.7090   13.7720  -39.9460 O   0  0  0  0  0  0  0  0  0  0  0  0
  -20.7490   14.9680  -40.1720 C   0  0  0  0  0  0  0  0  0  0  0  0
  -20.6240   15.0880  -38.7540 O   0  0  0  0  0  0  0  0  0  0  0  0
  -22.2000   14.5480  -40.4760 C   0  0  0  0  0  0  0  0  0  0  0  0
  -23.3920   15.5730  -40.2980 C   0  0  0  0  0  0  0  0  0  0  0  0
  -23.1660   17.1720  -40.0880 C   0  0  0  0  0  0  0  0  0  0  0  0
  -21.2480   17.8680  -40.2340 Br  0  0  0  0  0  0  0  0  0  0  0  0
  -23.8260   17.6990  -38.8120 C   0  0  0  0  0  0  0  0  0  0  0  0
  -23.2890   18.5970  -38.1710 O   0  0  0  0  0  0  0  0  0  0  0  0
  -25.2080   17.2390  -38.4130 C   0  0  0  0  0  0  0  0  0  0  0  0
  -25.4730   15.8200  -38.6630 C   0  0  0  0  0  0  0  0  0  0  0  0
  -24.2970   15.0330  -39.1980 C   0  0  0  0  0  0  0  0  0  0  0  0
  -24.0990   13.9090  -38.7620 O   0  0  0  0  0  0  0  0  0  0  0  0
  -26.2360   18.0670  -37.9430 C   0  0  0  0  0  0  0  0  0  0  0  0
  -27.4910   17.5280  -37.6570 C   0  0  0  0  0  0  0  0  0  0  0  0
  -27.7380   16.1730  -37.8810 C   0  0  0  0  0  0  0  0  0  0  0  0
  -26.7430   15.3190  -38.3700 C   0  0  0  0  0  0  0  0  0  0  0  0
  -22.4314   12.4256  -44.2063 H   0  0  0  0  0  0  0  0  0  0  0  0
  -20.5136   11.2458  -45.2660 H   0  0  0  0  0  0  0  0  0  0  0  0
  -18.2569   11.2823  -44.2367 H   0  0  0  0  0  0  0  0  0  0  0  0
  -17.8394   12.5022  -42.1046 H   0  0  0  0  0  0  0  0  0  0  0  0
  -20.5678   15.9083  -40.7134 H   0  0  0  0  0  0  0  0  0  0  0  0
  -21.2635   14.4741  -38.3132 H   0  0  0  0  0  0  0  0  0  0  0  0
  -22.3063   13.8262  -39.6528 H   0  0  0  0  0  0  0  0  0  0  0  0
  -23.8036   15.6012  -41.3177 H   0  0  0  0  0  0  0  0  0  0  0  0
  -23.6775   17.5857  -40.9697 H   0  0  0  0  0  0  0  0  0  0  0  0
  -26.0537   19.1422  -37.7994 H   0  0  0  0  0  0  0  0  0  0  0  0
  -28.2866   18.1721  -37.2544 H   0  0  0  0  0  0  0  0  0  0  0  0
  -28.7379   15.7668  -37.6683 H   0  0  0  0  0  0  0  0  0  0  0  0
  -26.9616   14.2520  -38.5237 H   0  0  0  0  0  0  0  0  0  0  0  0
 12 11  1  0
 10  9  2  0
 24 25  2  0
 24 23  1  0
 25 26  1  0
 11  9  1  0
 11 13  1  0
 23 19  2  0
 26 20  2  0
 15 14  1  0
 15 17  1  0
 15 16  1  0
  9  8  1  0
 14 13  1  0
 14 21  1  0
 19 20  1  0
 19 17  1  0
 20 21  1  0
 17 18  2  0
 13  2  1  0
 21 22  2  0
  8  7  1  0
  8  3  2  0
  7  6  2  0
  2  3  1  0
  2  1  2  0
  3  4  1  0
  6  5  1  0
  4  5  2  0
  4 27  1  0
  5 28  1  0
  6 29  1  0
  7 30  1  0
 11 31  1  0
 12 32  1  0
 13 33  1  0
 14 34  1  0
 15 35  1  0
 23 36  1  0
 24 37  1  0
 25 38  1  0
 26 39  1  0
A    1
O40
A    2
C23
A    3
C24
A    4
C37
A    5
C36
A    6
C35
A    7
C34
A    8
C25
A    9
C26
A   10
O38
A   11
C27
A   12
O41
A   13
C22
A   14
C6
A   15
C5
A   16
BR
A   17
C4
A   18
O20
A   19
C18
A   20
C13
A   21
C1
A   22
O19
A   23
C17
A   24
C16
A   25
C15
A   26
C14
M  END
