5EAK_24R_A_1000
     RDKit          3D

 53 57  0  0  0  0  0  0  0  0999 V2000
   42.1780   37.0040   -1.2430 C   0  0  0  0  0  0  0  0  0  0  0  0
   42.4660   37.0750    0.1100 C   0  0  0  0  0  0  0  0  0  0  0  0
   42.4270   35.8380    0.7430 C   0  0  0  0  0  0  0  0  0  0  0  0
   42.1710   34.6520    0.1740 N   0  0  0  0  0  0  0  0  0  0  0  0
   41.9120   34.6700   -1.1490 C   0  0  0  0  0  0  0  0  0  0  0  0
   41.9160   35.8290   -1.8470 N   0  0  0  0  0  0  0  0  0  0  0  0
   41.6370   35.6510   -3.1420 N   0  0  0  0  0  0  0  0  0  0  0  0
   41.6080   33.6510   -2.0540 C   0  0  0  0  0  0  0  0  0  0  0  0
   41.4390   34.3220   -3.2650 C   0  0  0  0  0  0  0  0  0  0  0  0
   41.4470   32.1760   -1.8340 C   0  0  0  0  0  0  0  0  0  0  0  0
   41.2760   31.2710   -2.8660 C   0  0  0  0  0  0  0  0  0  0  0  0
   41.0870   29.6690   -2.2900 S   0  0  0  0  0  0  0  0  0  0  0  0
   41.2340   30.1630   -0.6580 C   0  0  0  0  0  0  0  0  0  0  0  0
   41.4160   31.5420   -0.5770 C   0  0  0  0  0  0  0  0  0  0  0  0
   41.1540   29.1380    0.4220 C   0  0  0  0  0  0  0  0  0  0  0  0
   41.5400   29.4710    1.6460 N   0  0  0  0  0  0  0  0  0  0  0  0
   40.7580   28.0130    0.2100 O   0  0  0  0  0  0  0  0  0  0  0  0
   42.7450   38.3050    0.8880 C   0  0  0  0  0  0  0  0  0  0  0  0
   42.9030   39.6050    0.4360 C   0  0  0  0  0  0  0  0  0  0  0  0
   43.1070   40.3360    1.5620 N   0  0  0  0  0  0  0  0  0  0  0  0
   43.0860   39.6430    2.7020 N   0  0  0  0  0  0  0  0  0  0  0  0
   42.8480   38.3890    2.2750 C   0  0  0  0  0  0  0  0  0  0  0  0
   43.3400   41.7750    1.6500 C   0  0  0  0  0  0  0  0  0  0  0  0
   41.6950   28.4790    2.7060 C   0  0  0  0  0  0  0  0  0  0  0  0
   40.7730   28.7200    3.9190 C   0  0  0  0  0  0  0  0  0  0  0  0
   39.4250   29.1900    3.4920 N   0  0  0  0  0  0  0  0  0  0  0  0
   43.1750   28.4310    3.1040 C   0  0  0  0  0  0  0  0  0  0  0  0
   43.5890   29.6070    3.9860 C   0  0  0  0  0  0  0  0  0  0  0  0
   42.7470   29.5930    5.2540 C   0  0  0  0  0  0  0  0  0  0  0  0
   41.2640   29.7540    4.9270 C   0  0  0  0  0  0  0  0  0  0  0  0
   42.1629   37.9290   -1.8382 H   0  0  0  0  0  0  0  0  0  0  0  0
   42.6273   35.8320    1.8246 H   0  0  0  0  0  0  0  0  0  0  0  0
   41.1750   33.8255   -4.2104 H   0  0  0  0  0  0  0  0  0  0  0  0
   41.2629   31.5474   -3.9306 H   0  0  0  0  0  0  0  0  0  0  0  0
   41.5248   32.0822    0.3750 H   0  0  0  0  0  0  0  0  0  0  0  0
   41.7366   30.4601    1.8555 H   0  0  0  0  0  0  0  0  0  0  0  0
   42.8705   39.9647   -0.6030 H   0  0  0  0  0  0  0  0  0  0  0  0
   42.7459   37.5247    2.9477 H   0  0  0  0  0  0  0  0  0  0  0  0
   43.3885   42.0746    2.7073 H   0  0  0  0  0  0  0  0  0  0  0  0
   44.2901   42.0236    1.1545 H   0  0  0  0  0  0  0  0  0  0  0  0
   42.5169   42.3107    1.1545 H   0  0  0  0  0  0  0  0  0  0  0  0
   41.3771   27.5005    2.3168 H   0  0  0  0  0  0  0  0  0  0  0  0
   40.7554   27.7332    4.4047 H   0  0  0  0  0  0  0  0  0  0  0  0
   38.8516   29.3899    4.3240 H   0  0  0  0  0  0  0  0  0  0  0  0
   39.5227   30.0466    2.9284 H   0  0  0  0  0  0  0  0  0  0  0  0
   43.3609   27.4967    3.6539 H   0  0  0  0  0  0  0  0  0  0  0  0
   43.7685   28.4853    2.1795 H   0  0  0  0  0  0  0  0  0  0  0  0
   44.6533   29.5149    4.2485 H   0  0  0  0  0  0  0  0  0  0  0  0
   43.4321   30.5518    3.4450 H   0  0  0  0  0  0  0  0  0  0  0  0
   42.8986   28.6368    5.7761 H   0  0  0  0  0  0  0  0  0  0  0  0
   43.0589   30.4334    5.8915 H   0  0  0  0  0  0  0  0  0  0  0  0
   41.1018   30.7586    4.5094 H   0  0  0  0  0  0  0  0  0  0  0  0
   40.6982   29.6075    5.8589 H   0  0  0  0  0  0  0  0  0  0  0  0
  1  2  2  0
  1  6  1  0
  2  3  1  0
  2 18  1  0
  3  4  2  0
  4  5  1  0
  5  6  1  0
  5  8  2  0
  6  7  1  0
  7  9  2  0
  8  9  1  0
  8 10  1  0
 10 11  2  0
 10 14  1  0
 11 12  1  0
 12 13  1  0
 13 14  2  0
 13 15  1  0
 15 16  1  0
 15 17  2  0
 16 24  1  0
 18 19  2  0
 18 22  1  0
 19 20  1  0
 20 21  1  0
 20 23  1  0
 21 22  2  0
 24 25  1  0
 24 27  1  0
 25 26  1  0
 25 30  1  0
 27 28  1  0
 28 29  1  0
 29 30  1  0
  1 31  1  0
  3 32  1  0
  9 33  1  0
 11 34  1  0
 14 35  1  0
 16 36  1  0
 19 37  1  0
 22 38  1  0
 23 39  1  0
 23 40  1  0
 23 41  1  0
 24 42  1  0
 25 43  1  0
 26 44  1  0
 26 45  1  0
 27 46  1  0
 27 47  1  0
 28 48  1  0
 28 49  1  0
 29 50  1  0
 29 51  1  0
 30 52  1  0
 30 53  1  0
A    1
C
A    2
C1
A    3
C2
A    4
N
A    5
C3
A    6
N4
A    7
N5
A    8
C6
A    9
C7
A   10
C8
A   11
C9
A   12
S
A   13
C10
A   14
C11
A   15
C12
A   16
N13
A   17
O
A   18
C14
A   19
C15
A   20
N16
A   21
N17
A   22
C18
A   23
C19
A   24
C20
A   25
C21
A   26
N22
A   27
C23
A   28
C24
A   29
C25
A   30
C26
M  END
