5EAL_5ML_A_401
     RDKit          3D

 61 65  0  0  0  0  0  0  0  0999 V2000
   -0.8440   -3.8120    3.9670 C   0  0  0  0  0  0  0  0  0  0  0  0
   -1.1550   -5.0030    7.5410 C   0  0  0  0  0  0  0  0  0  0  0  0
   -2.1480   -5.7150    8.2380 C   0  0  0  0  0  0  0  0  0  0  0  0
   -1.4740   -4.4270    6.2530 N   0  0  0  0  0  0  0  0  0  0  0  0
   -4.6220   -5.4360    8.2020 C   0  0  0  0  0  0  0  0  0  0  0  0
   -5.8350   -6.0460    7.5620 C   0  0  0  0  0  0  0  0  0  0  0  0
   -3.4280   -5.6910    7.6370 N   0  0  0  0  0  0  0  0  0  0  0  0
   -6.9730   -5.2480    7.4260 C   0  0  0  0  0  0  0  0  0  0  0  0
   -8.1020   -5.7450    6.7990 C   0  0  0  0  0  0  0  0  0  0  0  0
   -8.1120   -7.0470    6.3190 C   0  0  0  0  0  0  0  0  0  0  0  0
   -7.0050   -7.8780    6.4710 C   0  0  0  0  0  0  0  0  0  0  0  0
   -0.8710   -7.9260   13.3300 N   0  0  0  0  0  0  0  0  0  0  0  0
   -7.0690   -9.3330    6.0670 C   0  0  0  0  0  0  0  0  0  0  0  0
   -5.8670   -7.3560    7.0810 C   0  0  0  0  0  0  0  0  0  0  0  0
   -1.8860   -6.1140    9.5540 C   0  0  0  0  0  0  0  0  0  0  0  0
   -4.7190   -4.6180    9.1050 O   0  0  0  0  0  0  0  0  0  0  0  0
   -0.6530   -5.8730   10.1680 C   0  0  0  0  0  0  0  0  0  0  0  0
   -0.3680   -6.3730   11.5430 C   0  0  0  0  0  0  0  0  0  0  0  0
    0.6640   -5.8340   12.2950 C   0  0  0  0  0  0  0  0  0  0  0  0
    0.9430   -6.3190   13.5900 C   0  0  0  0  0  0  0  0  0  0  0  0
    1.9810   -5.8120   14.4140 C   0  0  0  0  0  0  0  0  0  0  0  0
    2.2260   -6.3620   15.6440 C   0  0  0  0  0  0  0  0  0  0  0  0
    1.4580   -7.4250   16.1080 C   0  0  0  0  0  0  0  0  0  0  0  0
    0.4320   -7.9300   15.3540 C   0  0  0  0  0  0  0  0  0  0  0  0
    0.1490   -7.3860   14.0740 C   0  0  0  0  0  0  0  0  0  0  0  0
   -1.1030   -7.4090   12.1300 C   0  0  0  0  0  0  0  0  0  0  0  0
    0.3100   -5.1740    9.4470 C   0  0  0  0  0  0  0  0  0  0  0  0
    0.0680   -4.7400    8.1580 C   0  0  0  0  0  0  0  0  0  0  0  0
   -2.5310   -3.4060    6.2120 C   0  0  0  0  0  0  0  0  0  0  0  0
   -3.0060   -3.1930    4.7760 C   0  0  0  0  0  0  0  0  0  0  0  0
   -0.3580   -4.0210    5.3940 C   0  0  0  0  0  0  0  0  0  0  0  0
   -1.8940   -2.7920    3.9170 N   0  0  0  0  0  0  0  0  0  0  0  0
   -2.3510   -2.5850    2.5360 C   0  0  0  0  0  0  0  0  0  0  0  0
   -1.2446   -4.7607    3.5803 H   0  0  0  0  0  0  0  0  0  0  0  0
    0.0037   -3.4744    3.3527 H   0  0  0  0  0  0  0  0  0  0  0  0
   -3.4489   -5.8971    6.6280 H   0  0  0  0  0  0  0  0  0  0  0  0
   -6.9719   -4.2205    7.8188 H   0  0  0  0  0  0  0  0  0  0  0  0
   -8.9912   -5.1083    6.6811 H   0  0  0  0  0  0  0  0  0  0  0  0
   -9.0092   -7.4290    5.8100 H   0  0  0  0  0  0  0  0  0  0  0  0
   -7.0967   -9.9629    6.9683 H   0  0  0  0  0  0  0  0  0  0  0  0
   -7.9757   -9.5080    5.4693 H   0  0  0  0  0  0  0  0  0  0  0  0
   -6.1812   -9.5870    5.4693 H   0  0  0  0  0  0  0  0  0  0  0  0
   -4.9741   -7.9897    7.1860 H   0  0  0  0  0  0  0  0  0  0  0  0
   -2.6730   -6.6322   10.1216 H   0  0  0  0  0  0  0  0  0  0  0  0
    1.2726   -5.0185   11.8772 H   0  0  0  0  0  0  0  0  0  0  0  0
    2.5944   -4.9696   14.0616 H   0  0  0  0  0  0  0  0  0  0  0  0
    3.0364   -5.9601   16.2699 H   0  0  0  0  0  0  0  0  0  0  0  0
    1.6772   -7.8652   17.0920 H   0  0  0  0  0  0  0  0  0  0  0  0
   -0.1753   -8.7609   15.7423 H   0  0  0  0  0  0  0  0  0  0  0  0
   -1.9392   -7.8280   11.5510 H   0  0  0  0  0  0  0  0  0  0  0  0
    1.2838   -4.9626    9.9128 H   0  0  0  0  0  0  0  0  0  0  0  0
    0.8453   -4.1831    7.6143 H   0  0  0  0  0  0  0  0  0  0  0  0
   -2.1362   -2.4587    6.6080 H   0  0  0  0  0  0  0  0  0  0  0  0
   -3.3802   -3.7450    6.8235 H   0  0  0  0  0  0  0  0  0  0  0  0
   -3.7741   -2.4057    4.7630 H   0  0  0  0  0  0  0  0  0  0  0  0
   -3.4214   -4.1386    4.3975 H   0  0  0  0  0  0  0  0  0  0  0  0
    0.4129   -4.8056    5.4043 H   0  0  0  0  0  0  0  0  0  0  0  0
    0.0623   -3.0775    5.7725 H   0  0  0  0  0  0  0  0  0  0  0  0
   -3.3530   -2.1312    2.5455 H   0  0  0  0  0  0  0  0  0  0  0  0
   -1.6505   -1.9163    2.0143 H   0  0  0  0  0  0  0  0  0  0  0  0
   -2.3917   -3.5526    2.0143 H   0  0  0  0  0  0  0  0  0  0  0  0
 33 32  1  0
 32  1  1  0
 32 30  1  0
  1 31  1  0
 30 29  1  0
 31  4  1  0
 13 11  1  0
 29  4  1  0
  4  2  1  0
 10 11  2  0
 10  9  1  0
 11 14  1  0
  9  8  2  0
 14  6  2  0
  8  6  1  0
  2 28  2  0
  2  3  1  0
  6  5  1  0
  7  5  1  0
  7  3  1  0
 28 27  1  0
  5 16  2  0
  3 15  2  0
 27 17  2  0
 15 17  1  0
 17 18  1  0
 18 26  1  0
 18 19  2  0
 26 12  2  0
 19 20  1  0
 12 25  1  0
 20 25  2  0
 20 21  1  0
 25 24  1  0
 21 22  2  0
 24 23  2  0
 22 23  1  0
  1 34  1  0
  1 35  1  0
  7 36  1  0
  8 37  1  0
  9 38  1  0
 10 39  1  0
 13 40  1  0
 13 41  1  0
 13 42  1  0
 14 43  1  0
 15 44  1  0
 19 45  1  0
 21 46  1  0
 22 47  1  0
 23 48  1  0
 24 49  1  0
 26 50  1  0
 27 51  1  0
 28 52  1  0
 29 53  1  0
 29 54  1  0
 30 55  1  0
 30 56  1  0
 31 57  1  0
 31 58  1  0
 33 59  1  0
 33 60  1  0
 33 61  1  0
A    1
C4
A    2
C5
A    3
C6
A    4
N1
A    5
C7
A    6
C8
A    7
N2
A    8
C9
A    9
C10
A   10
C11
A   11
C12
A   12
N3
A   13
C13
A   14
C14
A   15
C15
A   16
O
A   17
C16
A   18
C19
A   19
C27
A   20
C26
A   21
C25
A   22
C24
A   23
C23
A   24
C22
A   25
C21
A   26
C20
A   27
C17
A   28
C18
A   29
C2
A   30
C1
A   31
C3
A   32
N
A   33
C
M  END
