5EAM_5MN_A_401
     RDKit          3D

 60 64  0  0  0  0  0  0  0  0999 V2000
    0.9400   -8.9320  -38.7490 C   0  0  0  0  0  0  0  0  0  0  0  0
    0.5960   -9.7490  -35.0780 C   0  0  0  0  0  0  0  0  0  0  0  0
   -0.4460  -10.3720  -34.3640 C   0  0  0  0  0  0  0  0  0  0  0  0
    0.3310   -9.2240  -36.4000 N   0  0  0  0  0  0  0  0  0  0  0  0
   -2.9380  -10.1270  -34.4690 C   0  0  0  0  0  0  0  0  0  0  0  0
   -4.1040  -10.8160  -35.1120 C   0  0  0  0  0  0  0  0  0  0  0  0
   -1.7150  -10.3540  -34.9950 N   0  0  0  0  0  0  0  0  0  0  0  0
   -5.2740  -10.0640  -35.2720 C   0  0  0  0  0  0  0  0  0  0  0  0
   -6.3880  -10.6250  -35.8700 C   0  0  0  0  0  0  0  0  0  0  0  0
   -6.3540  -11.9450  -36.2940 C   0  0  0  0  0  0  0  0  0  0  0  0
   -5.2100  -12.7240  -36.1350 C   0  0  0  0  0  0  0  0  0  0  0  0
    1.9810  -11.8250  -27.0060 N   0  0  0  0  0  0  0  0  0  0  0  0
   -5.2000  -14.1760  -36.5450 C   0  0  0  0  0  0  0  0  0  0  0  0
   -4.0860  -12.1390  -35.5500 C   0  0  0  0  0  0  0  0  0  0  0  0
   -0.2310  -10.7090  -33.0250 C   0  0  0  0  0  0  0  0  0  0  0  0
   -3.1100   -9.2920  -33.5940 O   0  0  0  0  0  0  0  0  0  0  0  0
    0.9980  -10.4800  -32.3940 C   0  0  0  0  0  0  0  0  0  0  0  0
    2.0140   -9.8830  -33.1350 C   0  0  0  0  0  0  0  0  0  0  0  0
    1.8250   -9.5260  -34.4570 C   0  0  0  0  0  0  0  0  0  0  0  0
   -0.6500   -8.1400  -36.5400 C   0  0  0  0  0  0  0  0  0  0  0  0
   -1.1540   -8.0770  -37.9780 C   0  0  0  0  0  0  0  0  0  0  0  0
    1.4490   -9.0010  -37.3180 C   0  0  0  0  0  0  0  0  0  0  0  0
   -0.0460   -7.8620  -38.9040 N   0  0  0  0  0  0  0  0  0  0  0  0
   -0.5250   -7.7980  -40.2770 C   0  0  0  0  0  0  0  0  0  0  0  0
    1.2190  -10.8930  -30.9750 C   0  0  0  0  0  0  0  0  0  0  0  0
    0.3520  -11.7990  -30.3450 C   0  0  0  0  0  0  0  0  0  0  0  0
    0.5360  -12.1920  -29.0270 C   0  0  0  0  0  0  0  0  0  0  0  0
    1.6020  -11.6570  -28.3160 C   0  0  0  0  0  0  0  0  0  0  0  0
    3.0960  -11.0620  -26.7630 C   0  0  0  0  0  0  0  0  0  0  0  0
    3.4510  -10.3940  -27.8900 C   0  0  0  0  0  0  0  0  0  0  0  0
    2.5030  -10.7530  -28.9070 C   0  0  0  0  0  0  0  0  0  0  0  0
    2.3000  -10.3850  -30.2430 C   0  0  0  0  0  0  0  0  0  0  0  0
    0.4726   -9.8926  -39.0112 H   0  0  0  0  0  0  0  0  0  0  0  0
    1.7911   -8.7232  -39.4139 H   0  0  0  0  0  0  0  0  0  0  0  0
   -1.7026  -10.5425  -36.0075 H   0  0  0  0  0  0  0  0  0  0  0  0
   -5.3075   -9.0222  -34.9205 H   0  0  0  0  0  0  0  0  0  0  0  0
   -7.2995  -10.0251  -36.0090 H   0  0  0  0  0  0  0  0  0  0  0  0
   -7.2460  -12.3846  -36.7641 H   0  0  0  0  0  0  0  0  0  0  0  0
    1.5055  -12.4260  -26.3178 H   0  0  0  0  0  0  0  0  0  0  0  0
   -5.1956  -14.8107  -35.6466 H   0  0  0  0  0  0  0  0  0  0  0  0
   -6.0967  -14.3941  -37.1437 H   0  0  0  0  0  0  0  0  0  0  0  0
   -4.3004  -14.3818  -37.1437 H   0  0  0  0  0  0  0  0  0  0  0  0
   -3.1681  -12.7336  -35.4323 H   0  0  0  0  0  0  0  0  0  0  0  0
   -1.0499  -11.1669  -32.4507 H   0  0  0  0  0  0  0  0  0  0  0  0
    2.9870   -9.6914  -32.6589 H   0  0  0  0  0  0  0  0  0  0  0  0
    2.6478   -9.0638  -35.0221 H   0  0  0  0  0  0  0  0  0  0  0  0
   -0.1755   -7.1829  -36.2778 H   0  0  0  0  0  0  0  0  0  0  0  0
   -1.4990   -8.3314  -35.8673 H   0  0  0  0  0  0  0  0  0  0  0  0
   -1.8705   -7.2479  -38.0735 H   0  0  0  0  0  0  0  0  0  0  0  0
   -1.6407   -9.0322  -38.2244 H   0  0  0  0  0  0  0  0  0  0  0  0
    2.1668   -9.8294  -37.2261 H   0  0  0  0  0  0  0  0  0  0  0  0
    1.9417   -8.0510  -37.0635 H   0  0  0  0  0  0  0  0  0  0  0  0
   -1.6153   -7.6523  -40.2785 H   0  0  0  0  0  0  0  0  0  0  0  0
   -0.0419   -6.9564  -40.7950 H   0  0  0  0  0  0  0  0  0  0  0  0
   -0.2798   -8.7369  -40.7950 H   0  0  0  0  0  0  0  0  0  0  0  0
   -0.4970  -12.2090  -30.9117 H   0  0  0  0  0  0  0  0  0  0  0  0
   -0.1484  -12.9124  -28.5552 H   0  0  0  0  0  0  0  0  0  0  0  0
    3.6229  -11.0011  -25.7993 H   0  0  0  0  0  0  0  0  0  0  0  0
    4.3033   -9.7078  -28.0028 H   0  0  0  0  0  0  0  0  0  0  0  0
    3.0000   -9.6865  -30.7248 H   0  0  0  0  0  0  0  0  0  0  0  0
 24 23  1  0
 23  1  1  0
 23 21  1  0
  1 22  1  0
 21 20  1  0
 22  4  1  0
 13 11  1  0
 20  4  1  0
  4  2  1  0
 10 11  2  0
 10  9  1  0
 11 14  1  0
  9  8  2  0
 14  6  2  0
  8  6  1  0
  6  5  1  0
  2 19  2  0
  2  3  1  0
  7  5  1  0
  7  3  1  0
  5 16  2  0
 19 18  1  0
  3 15  2  0
 18 17  2  0
 15 17  1  0
 17 25  1  0
 25 26  2  0
 25 32  1  0
 26 27  1  0
 32 31  2  0
 27 28  2  0
 31 28  1  0
 31 30  1  0
 28 12  1  0
 30 29  2  0
 12 29  1  0
  1 33  1  0
  1 34  1  0
  7 35  1  0
  8 36  1  0
  9 37  1  0
 10 38  1  0
 12 39  1  0
 13 40  1  0
 13 41  1  0
 13 42  1  0
 14 43  1  0
 15 44  1  0
 18 45  1  0
 19 46  1  0
 20 47  1  0
 20 48  1  0
 21 49  1  0
 21 50  1  0
 22 51  1  0
 22 52  1  0
 24 53  1  0
 24 54  1  0
 24 55  1  0
 26 56  1  0
 27 57  1  0
 29 58  1  0
 30 59  1  0
 32 60  1  0
A    1
C4
A    2
C5
A    3
C6
A    4
N1
A    5
C7
A    6
C8
A    7
N2
A    8
C9
A    9
C10
A   10
C11
A   11
C12
A   12
N3
A   13
C13
A   14
C14
A   15
C15
A   16
O
A   17
C16
A   18
C17
A   19
C18
A   20
C2
A   21
C1
A   22
C3
A   23
N
A   24
C
A   25
C19
A   26
C26
A   27
C25
A   28
C22
A   29
C23
A   30
C24
A   31
C21
A   32
C20
M  END
