5EAU_FFF_A_800
     RDKit          3D

 52 51  0  0  0  0  0  0  0  0999 V2000
   20.9060   79.3400   10.2500 P   0  0  0  0  0  0  0  0  0  0  0  0
   19.4890   79.7600   10.3140 O   0  0  0  0  0  0  0  0  0  0  0  0
   21.4870   78.8790    8.9710 O   0  0  0  0  0  0  0  0  0  0  0  0
   21.1700   78.2110   11.3690 O   0  0  0  0  0  0  0  0  0  0  0  0
   21.8630   82.0230   10.1730 P   0  0  0  0  0  0  0  0  0  0  0  0
   20.4310   82.3470   10.0250 O   0  0  0  0  0  0  0  0  0  0  0  0
   22.5920   81.8170    8.9040 O   0  0  0  0  0  0  0  0  0  0  0  0
   21.8090   80.5510   10.7950 O   0  0  0  0  0  0  0  0  0  0  0  0
   22.5910   82.7970   11.2020 O   0  0  0  0  0  0  0  0  0  0  0  0
   20.8560   78.5430   12.6960 C   0  0  0  0  0  0  0  0  0  0  0  0
   21.2130   77.3930   13.6460 C   0  0  0  0  0  0  0  0  0  0  0  0
   20.9580   77.4840   14.9710 C   0  0  0  0  0  0  0  0  0  0  0  0
   21.1030   76.2600   15.8310 C   0  0  0  0  0  0  0  0  0  0  0  0
   22.2320   76.2790   16.8580 C   0  0  0  0  0  0  0  0  0  0  0  0
   23.3230   75.2270   16.6190 C   0  0  0  0  0  0  0  0  0  0  0  0
   24.3630   75.5020   15.8260 C   0  0  0  0  0  0  0  0  0  0  0  0
   25.4160   74.4470   15.6030 C   0  0  0  0  0  0  0  0  0  0  0  0
   25.9000   74.1600   14.1730 C   0  0  0  0  0  0  0  0  0  0  0  0
   26.6640   75.3160   13.5220 C   0  0  0  0  0  0  0  0  0  0  0  0
   26.0490   76.1320   12.6470 C   0  0  0  0  0  0  0  0  0  0  0  0
   26.8100   77.2670   12.0410 C   0  0  0  0  0  0  0  0  0  0  0  0
   24.7420   75.7180   12.0420 C   0  0  0  0  0  0  0  0  0  0  0  0
   24.6660   76.9270   15.4890 C   0  0  0  0  0  0  0  0  0  0  0  0
   20.3200   78.7200   15.5470 C   0  0  0  0  0  0  0  0  0  0  0  0
   20.1220   78.6030   16.8510 F   0  0  0  0  0  0  0  0  0  0  0  0
   19.1450   78.9360   14.9800 F   0  0  0  0  0  0  0  0  0  0  0  0
   21.1130   79.7520   15.3490 F   0  0  0  0  0  0  0  0  0  0  0  0
   22.2492   78.2742    9.1538 H   0  0  0  0  0  0  0  0  0  0  0  0
   23.5260   81.5531    9.0991 H   0  0  0  0  0  0  0  0  0  0  0  0
   22.3085   82.4967   12.1021 H   0  0  0  0  0  0  0  0  0  0  0  0
   21.4228   79.4398   12.9868 H   0  0  0  0  0  0  0  0  0  0  0  0
   19.7748   78.7334   12.7647 H   0  0  0  0  0  0  0  0  0  0  0  0
   21.6824   76.4828   13.2445 H   0  0  0  0  0  0  0  0  0  0  0  0
   20.1577   76.1206   16.3760 H   0  0  0  0  0  0  0  0  0  0  0  0
   21.3547   75.4447   15.1368 H   0  0  0  0  0  0  0  0  0  0  0  0
   22.7017   77.2734   16.8347 H   0  0  0  0  0  0  0  0  0  0  0  0
   21.7759   76.0433   17.8308 H   0  0  0  0  0  0  0  0  0  0  0  0
   23.2488   74.2418   17.1026 H   0  0  0  0  0  0  0  0  0  0  0  0
   26.2989   74.7460   16.1870 H   0  0  0  0  0  0  0  0  0  0  0  0
   24.9176   73.5132   15.9024 H   0  0  0  0  0  0  0  0  0  0  0  0
   26.5630   73.2828   14.2034 H   0  0  0  0  0  0  0  0  0  0  0  0
   24.9996   73.9948   13.5631 H   0  0  0  0  0  0  0  0  0  0  0  0
   27.7227   75.4804   13.7713 H   0  0  0  0  0  0  0  0  0  0  0  0
   27.2308   77.8946   12.8404 H   0  0  0  0  0  0  0  0  0  0  0  0
   27.6256   76.8706   11.4183 H   0  0  0  0  0  0  0  0  0  0  0  0
   26.1336   77.8710   11.4183 H   0  0  0  0  0  0  0  0  0  0  0  0
   24.0231   75.4903   12.8428 H   0  0  0  0  0  0  0  0  0  0  0  0
   24.3506   76.5361   11.4196 H   0  0  0  0  0  0  0  0  0  0  0  0
   24.8930   74.8237   11.4196 H   0  0  0  0  0  0  0  0  0  0  0  0
   24.7889   77.5050   16.4168 H   0  0  0  0  0  0  0  0  0  0  0  0
   25.5945   76.9753   14.9012 H   0  0  0  0  0  0  0  0  0  0  0  0
   23.8375   77.3489   14.9012 H   0  0  0  0  0  0  0  0  0  0  0  0
  1  2  2  0
  1  3  1  0
  1  4  1  0
  1  8  1  0
  4 10  1  0
  5  6  2  0
  5  7  1  0
  5  8  1  0
  5  9  1  0
 10 11  1  0
 11 12  2  0
 12 13  1  0
 12 24  1  0
 13 14  1  0
 14 15  1  0
 15 16  2  0
 16 17  1  0
 16 23  1  0
 17 18  1  0
 18 19  1  0
 19 20  2  0
 20 21  1  0
 20 22  1  0
 24 25  1  0
 24 26  1  0
 24 27  1  0
  3 28  1  0
  7 29  1  0
  9 30  1  0
 10 31  1  0
 10 32  1  0
 11 33  1  0
 13 34  1  0
 13 35  1  0
 14 36  1  0
 14 37  1  0
 15 38  1  0
 17 39  1  0
 17 40  1  0
 18 41  1  0
 18 42  1  0
 19 43  1  0
 21 44  1  0
 21 45  1  0
 21 46  1  0
 22 47  1  0
 22 48  1  0
 22 49  1  0
 23 50  1  0
 23 51  1  0
 23 52  1  0
A    1
PA
A    2
O1A
A    3
O2A
A    4
O5A
A    5
PB
A    6
O1B
A    7
O2B
A    8
O3A
A    9
O3B
A   10
C1
A   11
C2
A   12
C3
A   13
C4
A   14
C5
A   15
C6
A   16
C7
A   17
C8
A   18
C9
A   19
C10
A   20
C11
A   21
C12
A   22
C15
A   23
C13
A   24
C14
A   25
F1
A   26
F2
A   27
F3
M  END
