5EBT_5N8_A_1402
     RDKit          3D

 53 57  0  0  0  0  0  0  0  0999 V2000
   11.7930  -31.0560   21.0770 C   0  0  0  0  0  0  0  0  0  0  0  0
   10.3580  -30.6980   21.4260 C   0  0  0  0  0  0  0  0  0  0  0  0
   10.2850  -29.8000   22.6440 C   0  0  0  0  0  0  0  0  0  0  0  0
    4.1770  -32.7360   21.9040 N   0  0  0  0  0  0  0  0  0  0  0  0
    9.7710  -28.7220   19.8920 C   0  0  0  0  0  0  0  0  0  0  0  0
    8.4100  -30.7300   19.7930 C   0  0  0  0  0  0  0  0  0  0  0  0
    8.2990  -32.2080   19.9450 C   0  0  0  0  0  0  0  0  0  0  0  0
    9.2070  -33.1110   19.3820 C   0  0  0  0  0  0  0  0  0  0  0  0
    8.9700  -34.4720   19.4610 C   0  0  0  0  0  0  0  0  0  0  0  0
    7.8350  -34.9390   20.1050 C   0  0  0  0  0  0  0  0  0  0  0  0
    6.9330  -34.0520   20.6890 C   0  0  0  0  0  0  0  0  0  0  0  0
    7.1680  -32.6890   20.5900 C   0  0  0  0  0  0  0  0  0  0  0  0
    5.7850  -34.4790   21.5180 C   0  0  0  0  0  0  0  0  0  0  0  0
    4.4160  -33.7490   21.1500 C   0  0  0  0  0  0  0  0  0  0  0  0
    2.9590  -35.4860   18.0950 C   0  0  0  0  0  0  0  0  0  0  0  0
    1.9050  -34.6370   17.8170 C   0  0  0  0  0  0  0  0  0  0  0  0
    1.6420  -33.5510   18.6450 C   0  0  0  0  0  0  0  0  0  0  0  0
    2.4610  -33.2960   19.7480 C   0  0  0  0  0  0  0  0  0  0  0  0
    5.7230  -35.8400   21.5430 F   0  0  0  0  0  0  0  0  0  0  0  0
    6.0730  -34.2070   22.8220 F   0  0  0  0  0  0  0  0  0  0  0  0
    3.0980  -31.9610   21.6230 N   0  0  0  0  0  0  0  0  0  0  0  0
    2.2130  -32.1400   20.6220 C   0  0  0  0  0  0  0  0  0  0  0  0
    1.2560  -31.3800   20.4970 O   0  0  0  0  0  0  0  0  0  0  0  0
    3.7870  -35.2490   19.1850 C   0  0  0  0  0  0  0  0  0  0  0  0
    3.5620  -34.1440   20.0110 C   0  0  0  0  0  0  0  0  0  0  0  0
    7.6340  -30.1630   19.0570 O   0  0  0  0  0  0  0  0  0  0  0  0
    9.4680  -30.0880   20.3450 N   0  0  0  0  0  0  0  0  0  0  0  0
   10.2550  -27.8520   21.0260 C   0  0  0  0  0  0  0  0  0  0  0  0
   10.5170  -26.5690   21.0030 N   0  0  0  0  0  0  0  0  0  0  0  0
   10.9940  -26.2230   22.2570 N   0  0  0  0  0  0  0  0  0  0  0  0
   10.9840  -27.3070   22.9980 C   0  0  0  0  0  0  0  0  0  0  0  0
   11.2830  -27.3760   24.4710 C   0  0  0  0  0  0  0  0  0  0  0  0
   11.4200  -26.1830   25.0000 F   0  0  0  0  0  0  0  0  0  0  0  0
   12.3740  -28.0760   24.7070 F   0  0  0  0  0  0  0  0  0  0  0  0
   10.2700  -27.9050   25.1660 F   0  0  0  0  0  0  0  0  0  0  0  0
   10.5230  -28.3970   22.2480 N   0  0  0  0  0  0  0  0  0  0  0  0
   12.3704  -31.2000   22.0022 H   0  0  0  0  0  0  0  0  0  0  0  0
   11.8063  -31.9850   20.4881 H   0  0  0  0  0  0  0  0  0  0  0  0
   12.2411  -30.2421   20.4881 H   0  0  0  0  0  0  0  0  0  0  0  0
    9.9425  -31.7010   21.6030 H   0  0  0  0  0  0  0  0  0  0  0  0
    9.2884  -29.8860   23.1016 H   0  0  0  0  0  0  0  0  0  0  0  0
   11.0538  -30.1078   23.3680 H   0  0  0  0  0  0  0  0  0  0  0  0
   10.5526  -28.7679   19.1193 H   0  0  0  0  0  0  0  0  0  0  0  0
    8.8463  -28.2806   19.4919 H   0  0  0  0  0  0  0  0  0  0  0  0
   10.1101  -32.7389   18.8761 H   0  0  0  0  0  0  0  0  0  0  0  0
    9.6811  -35.1820   19.0135 H   0  0  0  0  0  0  0  0  0  0  0  0
    7.6443  -36.0212   20.1556 H   0  0  0  0  0  0  0  0  0  0  0  0
    6.4495  -31.9805   21.0279 H   0  0  0  0  0  0  0  0  0  0  0  0
    3.1439  -36.3563   17.4482 H   0  0  0  0  0  0  0  0  0  0  0  0
    1.2712  -34.8208   16.9370 H   0  0  0  0  0  0  0  0  0  0  0  0
    0.7878  -32.8917   18.4312 H   0  0  0  0  0  0  0  0  0  0  0  0
    2.9390  -31.1513   22.2394 H   0  0  0  0  0  0  0  0  0  0  0  0
    4.6218  -35.9327   19.3986 H   0  0  0  0  0  0  0  0  0  0  0  0
 16 15  2  0
 16 17  1  0
 15 24  1  0
 17 18  2  0
 26  6  2  0
 24 25  2  0
  8  9  2  0
  8  7  1  0
  9 10  1  0
 18 25  1  0
 18 22  1  0
  6  7  1  0
  6 27  1  0
  5 27  1  0
  5 28  1  0
  7 12  2  0
 25 14  1  0
 10 11  2  0
 27  2  1  0
 23 22  2  0
 12 11  1  0
 22 21  1  0
 11 13  1  0
 29 28  2  0
 29 30  1  0
 28 36  1  0
  1  2  1  0
 14 13  1  0
 14  4  2  0
  2  3  1  0
 13 19  1  0
 13 20  1  0
 21  4  1  0
 36  3  1  0
 36 31  1  0
 30 31  2  0
 31 32  1  0
 32 34  1  0
 32 33  1  0
 32 35  1  0
  1 37  1  0
  1 38  1  0
  1 39  1  0
  2 40  1  0
  3 41  1  0
  3 42  1  0
  5 43  1  0
  5 44  1  0
  8 45  1  0
  9 46  1  0
 10 47  1  0
 12 48  1  0
 15 49  1  0
 16 50  1  0
 17 51  1  0
 21 52  1  0
 24 53  1  0
A    1
C1
A    2
C2
A    3
C3
A    4
N6
A    5
C7
A    6
C8
A    7
C9
A    8
C10
A    9
C11
A   10
C12
A   11
C13
A   12
C14
A   13
C15
A   14
C16
A   15
C19
A   16
C20
A   17
C21
A   18
C22
A   19
F5
A   20
F4
A   21
N5
A   22
C23
A   23
O2
A   24
C18
A   25
C17
A   26
O1
A   27
N4
A   28
C4
A   29
N2
A   30
N3
A   31
C5
A   32
C6
A   33
F3
A   34
F2
A   35
F1
A   36
N1
M  END
