5EBV_5LR_A_502
     RDKit          3D

 53 56  0  0  0  0  0  0  0  0999 V2000
   19.9480  -11.7530   36.8120 C   0  0  0  0  0  0  0  0  0  0  0  0
   19.3580  -10.2390   38.5270 C   0  0  0  0  0  0  0  0  0  0  0  0
   18.5580   -8.8410   40.4070 C   0  0  0  0  0  0  0  0  0  0  0  0
   21.1200  -11.9630   43.0680 C   0  0  0  0  0  0  0  0  0  0  0  0
   21.0610  -13.4750   42.9290 C   0  0  0  0  0  0  0  0  0  0  0  0
   20.9390  -16.2770   42.6750 C   0  0  0  0  0  0  0  0  0  0  0  0
   18.5980  -13.3120   42.2290 C   0  0  0  0  0  0  0  0  0  0  0  0
   19.0930  -12.0130   41.6120 C   0  0  0  0  0  0  0  0  0  0  0  0
   19.0290  -13.5920   38.3310 O   0  0  0  0  0  0  0  0  0  0  0  0
   18.6770  -12.3650   37.6670 S   0  0  0  0  0  0  0  0  0  0  0  0
   17.4960  -12.5070   36.8660 O   0  0  0  0  0  0  0  0  0  0  0  0
   20.5380  -12.4610   35.6470 C   0  0  0  0  0  0  0  0  0  0  0  0
   19.7240  -12.9220   34.6220 C   0  0  0  0  0  0  0  0  0  0  0  0
   20.2900  -13.5530   33.5220 C   0  0  0  0  0  0  0  0  0  0  0  0
   21.9230  -12.5990   35.5530 C   0  0  0  0  0  0  0  0  0  0  0  0
   22.4900  -13.2310   34.4500 C   0  0  0  0  0  0  0  0  0  0  0  0
   21.6670  -13.7070   33.4350 C   0  0  0  0  0  0  0  0  0  0  0  0
   22.3480  -14.5320   32.0000 Cl  0  0  0  0  0  0  0  0  0  0  0  0
   18.4340  -11.2150   38.7620 N   0  0  0  0  0  0  0  0  0  0  0  0
   20.3100  -10.4430   37.3930 C   0  0  0  0  0  0  0  0  0  0  0  0
   21.4140   -9.5610   36.8940 C   0  0  0  0  0  0  0  0  0  0  0  0
   19.4360   -9.1110   39.2810 N   0  0  0  0  0  0  0  0  0  0  0  0
   19.2840   -8.9280   41.7520 C   0  0  0  0  0  0  0  0  0  0  0  0
   20.3880   -9.9940   41.8520 C   0  0  0  0  0  0  0  0  0  0  0  0
   19.9380  -11.2270   42.5410 N   0  0  0  0  0  0  0  0  0  0  0  0
   19.8110  -14.1510   42.5160 C   0  0  0  0  0  0  0  0  0  0  0  0
   19.7950  -15.5350   42.4000 C   0  0  0  0  0  0  0  0  0  0  0  0
   22.1250  -15.6550   43.0660 C   0  0  0  0  0  0  0  0  0  0  0  0
   22.1800  -14.2670   43.1890 C   0  0  0  0  0  0  0  0  0  0  0  0
   18.1427   -7.8285   40.2954 H   0  0  0  0  0  0  0  0  0  0  0  0
   17.7673   -9.6057   40.4045 H   0  0  0  0  0  0  0  0  0  0  0  0
   21.2197  -11.7241   44.1371 H   0  0  0  0  0  0  0  0  0  0  0  0
   21.9766  -11.6358   42.4604 H   0  0  0  0  0  0  0  0  0  0  0  0
   20.9080  -17.3727   42.5826 H   0  0  0  0  0  0  0  0  0  0  0  0
   18.0531  -13.1039   43.1616 H   0  0  0  0  0  0  0  0  0  0  0  0
   17.9112  -13.8345   41.5468 H   0  0  0  0  0  0  0  0  0  0  0  0
   19.6833  -12.2515   40.7150 H   0  0  0  0  0  0  0  0  0  0  0  0
   18.2110  -11.4032   41.3668 H   0  0  0  0  0  0  0  0  0  0  0  0
   18.6338  -12.7880   34.6806 H   0  0  0  0  0  0  0  0  0  0  0  0
   19.6445  -13.9324   32.7162 H   0  0  0  0  0  0  0  0  0  0  0  0
   22.5688  -12.2073   36.3527 H   0  0  0  0  0  0  0  0  0  0  0  0
   23.5811  -13.3531   34.3817 H   0  0  0  0  0  0  0  0  0  0  0  0
   21.9539   -9.1296   37.7498 H   0  0  0  0  0  0  0  0  0  0  0  0
   22.1098  -10.1547   36.2830 H   0  0  0  0  0  0  0  0  0  0  0  0
   20.9886   -8.7513   36.2830 H   0  0  0  0  0  0  0  0  0  0  0  0
   20.1539   -8.4120   39.0422 H   0  0  0  0  0  0  0  0  0  0  0  0
   19.7426   -7.9482   41.9514 H   0  0  0  0  0  0  0  0  0  0  0  0
   18.5185   -9.2228   42.4848 H   0  0  0  0  0  0  0  0  0  0  0  0
   20.7134  -10.2589   40.8352 H   0  0  0  0  0  0  0  0  0  0  0  0
   21.2088   -9.5648   42.4454 H   0  0  0  0  0  0  0  0  0  0  0  0
   18.8725  -16.0472   42.0889 H   0  0  0  0  0  0  0  0  0  0  0  0
   23.0185  -16.2606   43.2777 H   0  0  0  0  0  0  0  0  0  0  0  0
   23.1215  -13.7884   43.4962 H   0  0  0  0  0  0  0  0  0  0  0  0
  1 10  1  0
  1 12  1  0
  1 20  2  0
  2 19  2  0
  2 20  1  0
  2 22  1  0
  3 22  1  0
  3 23  1  0
  4  5  1  0
  4 25  1  0
  5 26  2  0
  5 29  1  0
  6 27  2  0
  6 28  1  0
  7  8  1  0
  7 26  1  0
  8 25  1  0
  9 10  2  0
 10 11  2  0
 10 19  1  0
 12 13  2  0
 12 15  1  0
 13 14  1  0
 14 17  2  0
 15 16  2  0
 16 17  1  0
 17 18  1  0
 20 21  1  0
 23 24  1  0
 24 25  1  0
 26 27  1  0
 28 29  2  0
  3 30  1  0
  3 31  1  0
  4 32  1  0
  4 33  1  0
  6 34  1  0
  7 35  1  0
  7 36  1  0
  8 37  1  0
  8 38  1  0
 13 39  1  0
 14 40  1  0
 15 41  1  0
 16 42  1  0
 21 43  1  0
 21 44  1  0
 21 45  1  0
 22 46  1  0
 23 47  1  0
 23 48  1  0
 24 49  1  0
 24 50  1  0
 27 51  1  0
 28 52  1  0
 29 53  1  0
A    1
C4
A    2
C7
A    3
C8
A    4
C11
A    5
C12
A    6
C15
A    7
C18
A    8
C19
A    9
O1
A   10
S
A   11
O
A   12
C3
A   13
C2
A   14
C1
A   15
C20
A   16
C21
A   17
C
A   18
CL
A   19
N2
A   20
C5
A   21
C6
A   22
N
A   23
C9
A   24
C10
A   25
N1
A   26
C13
A   27
C14
A   28
C16
A   29
C17
M  END
