1A59_COA_A_380
     RDKit          3D

 80 82  0  0  0  0  0  0  0  0999 V2000
  -18.0260   57.2940   86.1850 N   0  0  0  0  0  0  0  0  0  0  0  0
  -17.7980   58.2850   85.2860 C   0  0  0  0  0  0  0  0  0  0  0  0
  -17.7930   59.6160   85.5480 N   0  0  0  0  0  0  0  0  0  0  0  0
  -17.9270   59.9860   86.8210 C   0  0  0  0  0  0  0  0  0  0  0  0
  -18.0590   59.0080   87.7840 C   0  0  0  0  0  0  0  0  0  0  0  0
  -18.1150   57.6180   87.4780 C   0  0  0  0  0  0  0  0  0  0  0  0
  -18.2570   56.7490   88.4790 N   0  0  0  0  0  0  0  0  0  0  0  0
  -18.1330   59.4500   88.9650 N   0  0  0  0  0  0  0  0  0  0  0  0
  -18.2060   60.8560   88.8260 C   0  0  0  0  0  0  0  0  0  0  0  0
  -17.9720   61.1120   87.4610 N   0  0  0  0  0  0  0  0  0  0  0  0
  -17.8980   62.3800   86.7100 C   0  0  0  0  0  0  0  0  0  0  0  0
  -19.3180   62.8950   86.3700 C   0  0  0  0  0  0  0  0  0  0  0  0
  -19.8560   62.4370   85.1100 O   0  0  0  0  0  0  0  0  0  0  0  0
  -19.1910   64.4240   86.5170 C   0  0  0  0  0  0  0  0  0  0  0  0
  -18.6020   64.8620   85.2860 O   0  0  0  0  0  0  0  0  0  0  0  0
  -18.6140   66.5230   84.8480 P   0  0  0  0  0  0  0  0  0  0  0  0
  -19.4470   67.3220   85.9740 O   0  0  0  0  0  0  0  0  0  0  0  0
  -17.0830   67.0200   84.7960 O   0  0  0  0  0  0  0  0  0  0  0  0
  -19.3250   66.6400   83.4070 O   0  0  0  0  0  0  0  0  0  0  0  0
  -18.0800   64.6080   87.5690 C   0  0  0  0  0  0  0  0  0  0  0  0
  -17.2760   63.4180   87.4950 O   0  0  0  0  0  0  0  0  0  0  0  0
  -18.6320   64.7590   88.9850 C   0  0  0  0  0  0  0  0  0  0  0  0
  -19.5380   63.6810   89.3470 O   0  0  0  0  0  0  0  0  0  0  0  0
  -21.1490   63.9790   89.6820 P   0  0  0  0  0  0  0  0  0  0  0  0
  -21.4330   65.5040   89.8140 O   0  0  0  0  0  0  0  0  0  0  0  0
  -22.0770   63.3190   88.6340 O   0  0  0  0  0  0  0  0  0  0  0  0
  -21.3100   63.2300   91.1310 O   0  0  0  0  0  0  0  0  0  0  0  0
  -20.7120   63.7770   92.5510 P   0  0  0  0  0  0  0  0  0  0  0  0
  -21.5170   64.9970   93.0460 O   0  0  0  0  0  0  0  0  0  0  0  0
  -19.1860   64.0800   92.4450 O   0  0  0  0  0  0  0  0  0  0  0  0
  -21.0090   62.4550   93.5010 O   0  0  0  0  0  0  0  0  0  0  0  0
  -21.0230   60.0120   92.8990 C   0  0  0  0  0  0  0  0  0  0  0  0
  -20.2100   61.2650   93.3610 C   0  0  0  0  0  0  0  0  0  0  0  0
  -22.5200   60.3840   92.7450 C   0  0  0  0  0  0  0  0  0  0  0  0
  -20.8720   58.9190   93.9780 C   0  0  0  0  0  0  0  0  0  0  0  0
  -20.4330   59.5320   91.5280 C   0  0  0  0  0  0  0  0  0  0  0  0
  -19.0020   59.4140   91.5750 O   0  0  0  0  0  0  0  0  0  0  0  0
  -21.1210   58.2560   90.9240 C   0  0  0  0  0  0  0  0  0  0  0  0
  -22.2430   58.3780   90.3380 O   0  0  0  0  0  0  0  0  0  0  0  0
  -20.4940   57.0780   91.0520 N   0  0  0  0  0  0  0  0  0  0  0  0
  -21.1020   55.8400   90.5510 C   0  0  0  0  0  0  0  0  0  0  0  0
  -22.1300   55.3100   91.5650 C   0  0  0  0  0  0  0  0  0  0  0  0
  -21.4020   54.6940   92.7350 C   0  0  0  0  0  0  0  0  0  0  0  0
  -20.4310   53.9150   92.5700 O   0  0  0  0  0  0  0  0  0  0  0  0
  -22.0030   54.7700   93.8870 N   0  0  0  0  0  0  0  0  0  0  0  0
  -21.2740   55.2250   95.1360 C   0  0  0  0  0  0  0  0  0  0  0  0
  -17.5986   57.9804   84.2480 H   0  0  0  0  0  0  0  0  0  0  0  0
  -18.2038   57.0743   89.4548 H   0  0  0  0  0  0  0  0  0  0  0  0
  -18.4199   55.7523   88.2765 H   0  0  0  0  0  0  0  0  0  0  0  0
  -18.4039   61.5939   89.6174 H   0  0  0  0  0  0  0  0  0  0  0  0
  -17.3140   62.1698   85.8018 H   0  0  0  0  0  0  0  0  0  0  0  0
  -20.0793   62.4794   87.0465 H   0  0  0  0  0  0  0  0  0  0  0  0
  -20.5988   61.8046   85.2787 H   0  0  0  0  0  0  0  0  0  0  0  0
  -20.1346   64.9338   86.7612 H   0  0  0  0  0  0  0  0  0  0  0  0
  -16.7406   67.1311   85.7182 H   0  0  0  0  0  0  0  0  0  0  0  0
  -20.2944   66.7995   83.5293 H   0  0  0  0  0  0  0  0  0  0  0  0
  -17.5129   65.5270   87.3598 H   0  0  0  0  0  0  0  0  0  0  0  0
  -17.7902   64.7651   89.6930 H   0  0  0  0  0  0  0  0  0  0  0  0
  -19.1999   65.7003   89.0239 H   0  0  0  0  0  0  0  0  0  0  0  0
  -22.7900   62.8119   89.0973 H   0  0  0  0  0  0  0  0  0  0  0  0
  -18.8008   64.1565   93.3538 H   0  0  0  0  0  0  0  0  0  0  0  0
  -19.4225   61.4610   92.6184 H   0  0  0  0  0  0  0  0  0  0  0  0
  -19.8013   61.0338   94.3557 H   0  0  0  0  0  0  0  0  0  0  0  0
  -22.9741   60.4968   93.7405 H   0  0  0  0  0  0  0  0  0  0  0  0
  -22.6075   61.3312   92.1926 H   0  0  0  0  0  0  0  0  0  0  0  0
  -23.0407   59.5879   92.1926 H   0  0  0  0  0  0  0  0  0  0  0  0
  -20.9354   59.3776   94.9758 H   0  0  0  0  0  0  0  0  0  0  0  0
  -21.6762   58.1773   93.8636 H   0  0  0  0  0  0  0  0  0  0  0  0
  -19.8968   58.4231   93.8636 H   0  0  0  0  0  0  0  0  0  0  0  0
  -20.6804   60.3334   90.8163 H   0  0  0  0  0  0  0  0  0  0  0  0
  -18.7037   59.3894   92.5187 H   0  0  0  0  0  0  0  0  0  0  0  0
  -19.5716   57.0413   91.5089 H   0  0  0  0  0  0  0  0  0  0  0  0
  -21.6055   56.0428   89.5943 H   0  0  0  0  0  0  0  0  0  0  0  0
  -20.3155   55.0847   90.4064 H   0  0  0  0  0  0  0  0  0  0  0  0
  -22.7591   56.1400   91.9190 H   0  0  0  0  0  0  0  0  0  0  0  0
  -22.7653   54.5514   91.0845 H   0  0  0  0  0  0  0  0  0  0  0  0
  -22.9987   54.5146   93.9517 H   0  0  0  0  0  0  0  0  0  0  0  0
  -21.8225   54.8827   96.0259 H   0  0  0  0  0  0  0  0  0  0  0  0
  -20.2597   54.7993   95.1442 H   0  0  0  0  0  0  0  0  0  0  0  0
  -21.2108   56.3232   95.1442 H   0  0  0  0  0  0  0  0  0  0  0  0
  1  2  2  0
  1  6  1  0
  2  3  1  0
  3  4  2  0
  4  5  1  0
  4 10  1  0
  5  6  2  0
  5  8  1  0
  6  7  1  0
  8  9  2  0
  9 10  1  0
 10 11  1  0
 11 12  1  0
 11 21  1  0
 12 13  1  0
 12 14  1  0
 14 15  1  0
 14 20  1  0
 15 16  1  0
 16 17  2  0
 16 18  1  0
 16 19  1  0
 20 21  1  0
 20 22  1  0
 22 23  1  0
 23 24  1  0
 24 25  2  0
 24 26  1  0
 24 27  1  0
 27 28  1  0
 28 29  2  0
 28 30  1  0
 28 31  1  0
 31 33  1  0
 32 33  1  0
 32 34  1  0
 32 35  1  0
 32 36  1  0
 36 37  1  0
 36 38  1  0
 38 39  2  0
 38 40  1  0
 40 41  1  0
 41 42  1  0
 42 43  1  0
 43 44  2  0
 43 45  1  0
 45 46  1  0
  2 47  1  0
  7 48  1  0
  7 49  1  0
  9 50  1  0
 11 51  1  0
 12 52  1  0
 13 53  1  0
 14 54  1  0
 18 55  1  0
 19 56  1  0
 20 57  1  0
 22 58  1  0
 22 59  1  0
 26 60  1  0
 30 61  1  0
 33 62  1  0
 33 63  1  0
 34 64  1  0
 34 65  1  0
 34 66  1  0
 35 67  1  0
 35 68  1  0
 35 69  1  0
 36 70  1  0
 37 71  1  0
 40 72  1  0
 41 73  1  0
 41 74  1  0
 42 75  1  0
 42 76  1  0
 45 77  1  0
 46 78  1  0
 46 79  1  0
 46 80  1  0
A    1
N1A
A    2
C2A
A    3
N3A
A    4
C4A
A    5
C5A
A    6
C6A
A    7
N6A
A    8
N7A
A    9
C8A
A   10
N9A
A   11
C1B
A   12
C2B
A   13
O2B
A   14
C3B
A   15
O3B
A   16
P3B
A   17
O7A
A   18
O8A
A   19
O9A
A   20
C4B
A   21
O4B
A   22
C5B
A   23
O5B
A   24
P1A
A   25
O1A
A   26
O2A
A   27
O3A
A   28
P2A
A   29
O4A
A   30
O5A
A   31
O6A
A   32
CBP
A   33
CCP
A   34
CDP
A   35
CEP
A   36
CAP
A   37
OAP
A   38
C9P
A   39
O9P
A   40
N8P
A   41
C7P
A   42
C6P
A   43
C5P
A   44
O5P
A   45
N4P
A   46
C3P
M  END
