5EC8_5LP_A_302
     RDKit          3D

 36 37  0  0  0  0  0  0  0  0999 V2000
   25.8380   51.5990   -7.0730 N   0  0  0  0  0  0  0  0  0  0  0  0
   27.5680   52.7580   -3.4200 C   0  0  0  0  0  0  0  0  0  0  0  0
   23.9860   49.5140  -10.8400 N   0  0  0  0  0  0  0  0  0  0  0  0
   28.3070   52.8500   -4.5890 C   0  0  0  0  0  0  0  0  0  0  0  0
   28.5690   52.6310   -7.0730 C   0  0  0  0  0  0  0  0  0  0  0  0
   27.7540   52.4680   -5.8150 C   0  0  0  0  0  0  0  0  0  0  0  0
   25.4470   52.2210   -2.1510 C   0  0  0  0  0  0  0  0  0  0  0  0
   28.1970   52.1840   -8.1450 O   0  0  0  0  0  0  0  0  0  0  0  0
   19.0020   50.5840  -11.3820 Cl  0  0  0  0  0  0  0  0  0  0  0  0
   20.5340   50.7680  -10.5690 C   0  0  0  0  0  0  0  0  0  0  0  0
   20.6270   51.6400   -9.5060 C   0  0  0  0  0  0  0  0  0  0  0  0
   21.8530   51.8190   -8.8810 C   0  0  0  0  0  0  0  0  0  0  0  0
   21.6300   50.0630  -11.0300 C   0  0  0  0  0  0  0  0  0  0  0  0
   22.8740   50.2260  -10.4000 C   0  0  0  0  0  0  0  0  0  0  0  0
   22.9800   51.1140   -9.3100 C   0  0  0  0  0  0  0  0  0  0  0  0
   24.2480   51.2810   -8.6860 N   0  0  0  0  0  0  0  0  0  0  0  0
   24.4930   51.5250   -7.3590 C   0  0  0  0  0  0  0  0  0  0  0  0
   23.6030   51.6730   -6.5230 O   0  0  0  0  0  0  0  0  0  0  0  0
   26.4360   51.9540   -5.8310 C   0  0  0  0  0  0  0  0  0  0  0  0
   29.7090   53.2640   -6.9400 O   0  0  0  0  0  0  0  0  0  0  0  0
   25.7270   51.8520   -4.6310 C   0  0  0  0  0  0  0  0  0  0  0  0
   26.2660   52.2690   -3.4210 C   0  0  0  0  0  0  0  0  0  0  0  0
   26.4830   51.3723   -7.8434 H   0  0  0  0  0  0  0  0  0  0  0  0
   28.0213   53.0788   -2.4705 H   0  0  0  0  0  0  0  0  0  0  0  0
   24.6350   49.0985  -10.1566 H   0  0  0  0  0  0  0  0  0  0  0  0
   24.1600   49.4026  -11.8491 H   0  0  0  0  0  0  0  0  0  0  0  0
   29.3395   53.2276   -4.5518 H   0  0  0  0  0  0  0  0  0  0  0  0
   26.1180   52.2603   -1.2803 H   0  0  0  0  0  0  0  0  0  0  0  0
   24.7610   53.0805   -2.1244 H   0  0  0  0  0  0  0  0  0  0  0  0
   24.8661   51.2873   -2.1244 H   0  0  0  0  0  0  0  0  0  0  0  0
   19.7394   52.1880   -9.1568 H   0  0  0  0  0  0  0  0  0  0  0  0
   21.9381   52.5227   -8.0398 H   0  0  0  0  0  0  0  0  0  0  0  0
   21.5281   49.3786  -11.8851 H   0  0  0  0  0  0  0  0  0  0  0  0
   25.0729   51.2109   -9.2988 H   0  0  0  0  0  0  0  0  0  0  0  0
   30.0635   53.4608   -6.0368 H   0  0  0  0  0  0  0  0  0  0  0  0
   24.7118   51.4288   -4.6453 H   0  0  0  0  0  0  0  0  0  0  0  0
  9 10  1  0
 13 10  2  0
 13 14  1  0
  3 14  1  0
 10 11  1  0
 14 15  2  0
 11 12  2  0
 15 12  1  0
 15 16  1  0
 16 17  1  0
  8  5  2  0
 17  1  1  0
 17 18  2  0
  5 20  1  0
  5  6  1  0
  1 19  1  0
 19  6  2  0
 19 21  1  0
  6  4  1  0
 21 22  2  0
  4  2  2  0
 22  2  1  0
 22  7  1  0
  1 23  1  0
  2 24  1  0
  3 25  1  0
  3 26  1  0
  4 27  1  0
  7 28  1  0
  7 29  1  0
  7 30  1  0
 11 31  1  0
 12 32  1  0
 13 33  1  0
 16 34  1  0
 20 35  1  0
 21 36  1  0
A    1
N
A    2
C2
A    3
N2
A    4
C3
A    5
C5
A    6
C4
A    7
C
A    8
O
A    9
CL
A   10
C11
A   11
C10
A   12
C9
A   13
C12
A   14
C13
A   15
C8
A   16
N1
A   17
C7
A   18
O2
A   19
C6
A   20
O1
A   21
C14
A   22
C1
M  END
