5EDC_5M7_A_201
     RDKit          3D

 45 48  0  0  0  0  0  0  0  0999 V2000
    6.1510    8.0970   19.7160 N   0  0  0  0  0  0  0  0  0  0  0  0
    5.7440    7.9180   18.4540 C   0  0  0  0  0  0  0  0  0  0  0  0
    4.4690    7.2500   18.1540 C   0  0  0  0  0  0  0  0  0  0  0  0
    3.6870    6.7870   19.1930 C   0  0  0  0  0  0  0  0  0  0  0  0
    5.3750    7.6390   20.7510 C   0  0  0  0  0  0  0  0  0  0  0  0
    4.1390    6.9700   20.5450 C   0  0  0  0  0  0  0  0  0  0  0  0
    3.3770    6.5070   21.6320 C   0  0  0  0  0  0  0  0  0  0  0  0
    3.8360    6.7050   22.9070 C   0  0  0  0  0  0  0  0  0  0  0  0
    5.0680    7.3660   23.1430 C   0  0  0  0  0  0  0  0  0  0  0  0
    5.8220    7.8250   22.0980 C   0  0  0  0  0  0  0  0  0  0  0  0
    2.4210    6.0910   18.9340 C   0  0  0  0  0  0  0  0  0  0  0  0
    2.4310    4.6860   19.0380 C   0  0  0  0  0  0  0  0  0  0  0  0
    1.2310    6.7690   18.5800 C   0  0  0  0  0  0  0  0  0  0  0  0
    0.0690    6.0200   18.3300 C   0  0  0  0  0  0  0  0  0  0  0  0
    1.2690    3.9620   18.8010 C   0  0  0  0  0  0  0  0  0  0  0  0
    0.0940    4.6330   18.4490 C   0  0  0  0  0  0  0  0  0  0  0  0
    4.0210    7.0860   16.7610 C   0  0  0  0  0  0  0  0  0  0  0  0
    3.7880    6.0490   16.1440 O   0  0  0  0  0  0  0  0  0  0  0  0
    3.8200    8.2970   16.1430 O   0  0  0  0  0  0  0  0  0  0  0  0
    6.5480    8.4130   17.3530 N   0  0  0  0  0  0  0  0  0  0  0  0
    6.6680    7.4950   16.2180 C   0  0  0  0  0  0  0  0  0  0  0  0
    7.8660    8.8560   17.8230 C   0  0  0  0  0  0  0  0  0  0  0  0
    8.6720    7.6920   18.4190 C   0  0  0  0  0  0  0  0  0  0  0  0
    7.8200    6.5040   16.4130 C   0  0  0  0  0  0  0  0  0  0  0  0
    8.1700    6.3690   17.8810 C   0  0  0  0  0  0  0  0  0  0  0  0
    2.9120    6.1670   24.2290 Cl  0  0  0  0  0  0  0  0  0  0  0  0
    2.4211    5.9906   21.4600 H   0  0  0  0  0  0  0  0  0  0  0  0
    5.4204    7.5109   24.1749 H   0  0  0  0  0  0  0  0  0  0  0  0
    6.7749    8.3387   22.2935 H   0  0  0  0  0  0  0  0  0  0  0  0
    3.3598    4.1616   19.3071 H   0  0  0  0  0  0  0  0  0  0  0  0
    1.2157    7.8661   18.5017 H   0  0  0  0  0  0  0  0  0  0  0  0
   -0.8615    6.5299   18.0399 H   0  0  0  0  0  0  0  0  0  0  0  0
    1.2735    2.8656   18.8899 H   0  0  0  0  0  0  0  0  0  0  0  0
   -0.8243    4.0566   18.2633 H   0  0  0  0  0  0  0  0  0  0  0  0
    3.5998    5.2113   16.6370 H   0  0  0  0  0  0  0  0  0  0  0  0
    6.8507    8.0793   15.3041 H   0  0  0  0  0  0  0  0  0  0  0  0
    5.7320    6.9228   16.1381 H   0  0  0  0  0  0  0  0  0  0  0  0
    8.4239    9.2798   16.9750 H   0  0  0  0  0  0  0  0  0  0  0  0
    7.7162    9.6103   18.6095 H   0  0  0  0  0  0  0  0  0  0  0  0
    9.7324    7.8122   18.1525 H   0  0  0  0  0  0  0  0  0  0  0  0
    8.5525    7.6997   19.5125 H   0  0  0  0  0  0  0  0  0  0  0  0
    7.5201    5.5207   16.0217 H   0  0  0  0  0  0  0  0  0  0  0  0
    8.7023    6.8778   15.8728 H   0  0  0  0  0  0  0  0  0  0  0  0
    7.2744    6.0641   18.4422 H   0  0  0  0  0  0  0  0  0  0  0  0
    8.9588    5.6109   17.9952 H   0  0  0  0  0  0  0  0  0  0  0  0
 19 17  2  0
 18 17  1  0
 21 24  1  0
 21 20  1  0
 24 25  1  0
 17  3  1  0
 20 22  1  0
 20  2  1  0
 22 23  1  0
 25 23  1  0
  3  2  1  0
  3  4  2  0
 14 16  2  0
 14 13  1  0
 16 15  1  0
  2  1  2  0
 13 11  2  0
 15 12  2  0
 11 12  1  0
 11  4  1  0
  4  6  1  0
  1  5  1  0
  6  5  2  0
  6  7  1  0
  5 10  1  0
  7  8  2  0
 10  9  2  0
  8  9  1  0
  8 26  1  0
  7 27  1  0
  9 28  1  0
 10 29  1  0
 12 30  1  0
 13 31  1  0
 14 32  1  0
 15 33  1  0
 16 34  1  0
 18 35  1  0
 21 36  1  0
 21 37  1  0
 22 38  1  0
 22 39  1  0
 23 40  1  0
 23 41  1  0
 24 42  1  0
 24 43  1  0
 25 44  1  0
 25 45  1  0
A    1
N1
A    2
C2
A    3
C3
A    4
C4
A    5
C5
A    6
C6
A    7
C7
A    8
C8
A    9
C9
A   10
C10
A   11
C11
A   12
C12
A   13
C13
A   14
C14
A   15
C15
A   16
C16
A   17
C17
A   18
O18
A   19
O19
A   20
N20
A   21
C21
A   22
C22
A   23
C23
A   24
C24
A   25
C25
A   26
CL1
M  END
