5EDE_5M6_A_804
     RDKit          3D

 43 46  0  0  0  0  0  0  0  0999 V2000
   92.9760   -8.8160   14.0860 N   0  0  0  0  0  0  0  0  0  0  0  0
   95.8470   -6.8880   12.4500 C   0  0  0  0  0  0  0  0  0  0  0  0
   95.6970   -8.1030   11.9560 C   0  0  0  0  0  0  0  0  0  0  0  0
   93.9580  -10.0530   12.6110 C   0  0  0  0  0  0  0  0  0  0  0  0
   92.2380   -8.4370   15.1900 C   0  0  0  0  0  0  0  0  0  0  0  0
   92.2570   -7.1350   15.6810 C   0  0  0  0  0  0  0  0  0  0  0  0
   90.7880   -7.8160   17.4620 C   0  0  0  0  0  0  0  0  0  0  0  0
   90.8220   -9.0960   16.9570 C   0  0  0  0  0  0  0  0  0  0  0  0
   94.3790  -11.1710   11.7280 C   0  0  0  0  0  0  0  0  0  0  0  0
   97.3010   -4.8790    8.2530 C   0  0  0  0  0  0  0  0  0  0  0  0
   93.9560   -8.0330   13.5550 C   0  0  0  0  0  0  0  0  0  0  0  0
   94.6300   -8.7870   12.5940 C   0  0  0  0  0  0  0  0  0  0  0  0
   92.9520  -10.0640   13.4730 N   0  0  0  0  0  0  0  0  0  0  0  0
   94.6630   -6.4350   13.6930 S   0  0  0  0  0  0  0  0  0  0  0  0
   96.7580   -5.8460   11.9610 C   0  0  0  0  0  0  0  0  0  0  0  0
   97.6870   -6.1150   10.9960 N   0  0  0  0  0  0  0  0  0  0  0  0
   96.5490   -4.6630   12.3610 O   0  0  0  0  0  0  0  0  0  0  0  0
   99.7210   -4.4070    8.3190 O   0  0  0  0  0  0  0  0  0  0  0  0
   91.5380   -9.4390   15.8270 C   0  0  0  0  0  0  0  0  0  0  0  0
   98.5830   -5.0500   10.4670 C   0  0  0  0  0  0  0  0  0  0  0  0
   98.6730   -5.2330    8.9280 C   0  0  0  0  0  0  0  0  0  0  0  0
   91.4940   -6.8210   16.8140 C   0  0  0  0  0  0  0  0  0  0  0  0
   89.8450   -7.4920   18.9530 Cl  0  0  0  0  0  0  0  0  0  0  0  0
   99.1990   -3.8390    7.0640 C   0  0  0  0  0  0  0  0  0  0  0  0
   97.6410   -3.7100    7.2390 C   0  0  0  0  0  0  0  0  0  0  0  0
   96.3181   -8.5294   11.1545 H   0  0  0  0  0  0  0  0  0  0  0  0
   92.8632   -6.3620   15.1861 H   0  0  0  0  0  0  0  0  0  0  0  0
   90.2533   -9.8810   17.4769 H   0  0  0  0  0  0  0  0  0  0  0  0
   94.7001  -12.0238   12.3441 H   0  0  0  0  0  0  0  0  0  0  0  0
   93.5338  -11.4750   11.0931 H   0  0  0  0  0  0  0  0  0  0  0  0
   95.2148  -10.8420   11.0931 H   0  0  0  0  0  0  0  0  0  0  0  0
   96.5743   -4.5401    9.0060 H   0  0  0  0  0  0  0  0  0  0  0  0
   96.8482   -5.7467    7.7509 H   0  0  0  0  0  0  0  0  0  0  0  0
   97.7691   -7.0732   10.6273 H   0  0  0  0  0  0  0  0  0  0  0  0
   91.5492  -10.4722   15.4498 H   0  0  0  0  0  0  0  0  0  0  0  0
   99.5832   -5.1447   10.9150 H   0  0  0  0  0  0  0  0  0  0  0  0
   98.1871   -4.0541   10.7148 H   0  0  0  0  0  0  0  0  0  0  0  0
   98.9267   -6.2897    8.7577 H   0  0  0  0  0  0  0  0  0  0  0  0
   91.4575   -5.7864   17.1857 H   0  0  0  0  0  0  0  0  0  0  0  0
   99.4317   -4.5057    6.2206 H   0  0  0  0  0  0  0  0  0  0  0  0
   99.6555   -2.8607    6.8528 H   0  0  0  0  0  0  0  0  0  0  0  0
   97.3697   -2.7303    7.6591 H   0  0  0  0  0  0  0  0  0  0  0  0
   97.0896   -3.7838    6.2901 H   0  0  0  0  0  0  0  0  0  0  0  0
 24 25  1  0
 24 18  1  0
 25 10  1  0
 10 21  1  0
 18 21  1  0
 21 20  1  0
 20 16  1  0
 16 15  1  0
  9  4  1  0
  3  2  2  0
  3 12  1  0
 15 17  2  0
 15  2  1  0
  2 14  1  0
 12  4  1  0
 12 11  2  0
  4 13  2  0
 13  1  1  0
 11 14  1  0
 11  1  1  0
  1  5  1  0
  5  6  2  0
  5 19  1  0
  6 22  1  0
 19  8  2  0
 22  7  2  0
  8  7  1  0
  7 23  1  0
  3 26  1  0
  6 27  1  0
  8 28  1  0
  9 29  1  0
  9 30  1  0
  9 31  1  0
 10 32  1  0
 10 33  1  0
 16 34  1  0
 19 35  1  0
 20 36  1  0
 20 37  1  0
 21 38  1  0
 22 39  1  0
 24 40  1  0
 24 41  1  0
 25 42  1  0
 25 43  1  0
A    1
N3
A    2
C6
A    3
C7
A    4
C8
A    5
C10
A    6
C15
A    7
C17
A    8
C20
A    9
C22
A   10
C24
A   11
C1
A   12
C2
A   13
N4
A   14
S5
A   15
C9
A   16
N11
A   17
O12
A   18
O13
A   19
C14
A   20
C16
A   21
C18
A   22
C19
A   23
CL1
A   24
C23
A   25
C25
M  END
