5EDH_5MF_A_803
     RDKit          3D

 49 52  0  0  0  0  0  0  0  0999 V2000
   92.3640   -9.5880   12.9000 C   0  0  0  0  0  0  0  0  0  0  0  0
   93.6320  -11.4800   11.9360 C   0  0  0  0  0  0  0  0  0  0  0  0
   93.9330  -12.9270    8.6100 C   0  0  0  0  0  0  0  0  0  0  0  0
   96.5420  -11.8510   10.8100 C   0  0  0  0  0  0  0  0  0  0  0  0
   92.1280  -14.0760    7.4210 C   0  0  0  0  0  0  0  0  0  0  0  0
   92.1230  -14.8670    6.0950 C   0  0  0  0  0  0  0  0  0  0  0  0
   93.4850  -14.6490    5.4160 C   0  0  0  0  0  0  0  0  0  0  0  0
   94.3790  -14.0860    6.5130 C   0  0  0  0  0  0  0  0  0  0  0  0
   92.6440   -4.5400   15.2170 C   0  0  0  0  0  0  0  0  0  0  0  0
   91.0650   -8.0730   16.8280 N   0  0  0  0  0  0  0  0  0  0  0  0
   91.8670   -7.0430   16.4470 C   0  0  0  0  0  0  0  0  0  0  0  0
   92.5330   -6.9730   15.2650 C   0  0  0  0  0  0  0  0  0  0  0  0
   90.9110   -9.1140   16.0520 C   0  0  0  0  0  0  0  0  0  0  0  0
   90.0240  -10.2530   16.4610 C   0  0  0  0  0  0  0  0  0  0  0  0
   93.4370   -5.8150   14.8780 C   0  0  0  0  0  0  0  0  0  0  0  0
   91.5560   -9.1400   14.8050 N   0  0  0  0  0  0  0  0  0  0  0  0
   92.3910   -8.0670   14.4170 C   0  0  0  0  0  0  0  0  0  0  0  0
   92.9030   -8.3600   13.2310 N   0  0  0  0  0  0  0  0  0  0  0  0
   91.5480  -10.0980   13.8180 N   0  0  0  0  0  0  0  0  0  0  0  0
   92.7150  -10.2510   11.6150 C   0  0  0  0  0  0  0  0  0  0  0  0
   93.9880  -12.0530   10.6090 C   0  0  0  0  0  0  0  0  0  0  0  0
   95.2800  -12.2030   10.1270 N   0  0  0  0  0  0  0  0  0  0  0  0
   95.2600  -12.7530    8.8290 N   0  0  0  0  0  0  0  0  0  0  0  0
   93.1240  -12.5120    9.6800 N   0  0  0  0  0  0  0  0  0  0  0  0
   93.4250  -13.4240    7.4370 N   0  0  0  0  0  0  0  0  0  0  0  0
   93.0890  -12.2193   12.5431 H   0  0  0  0  0  0  0  0  0  0  0  0
   94.5226  -11.1910   12.5133 H   0  0  0  0  0  0  0  0  0  0  0  0
   96.3934  -11.8924   11.8991 H   0  0  0  0  0  0  0  0  0  0  0  0
   97.3274  -12.5644   10.5197 H   0  0  0  0  0  0  0  0  0  0  0  0
   96.8448  -10.8341   10.5197 H   0  0  0  0  0  0  0  0  0  0  0  0
   91.3169  -13.3331    7.4360 H   0  0  0  0  0  0  0  0  0  0  0  0
   91.9673  -14.7198    8.2983 H   0  0  0  0  0  0  0  0  0  0  0  0
   91.3164  -14.5005    5.4431 H   0  0  0  0  0  0  0  0  0  0  0  0
   91.9541  -15.9372    6.2852 H   0  0  0  0  0  0  0  0  0  0  0  0
   93.8869  -15.6008    5.0386 H   0  0  0  0  0  0  0  0  0  0  0  0
   93.4147  -13.9747    4.5498 H   0  0  0  0  0  0  0  0  0  0  0  0
   94.9266  -14.8911    7.0248 H   0  0  0  0  0  0  0  0  0  0  0  0
   95.1465  -13.3988    6.1275 H   0  0  0  0  0  0  0  0  0  0  0  0
   92.5757   -4.4302   16.3094 H   0  0  0  0  0  0  0  0  0  0  0  0
   93.1575   -3.6650   14.7919 H   0  0  0  0  0  0  0  0  0  0  0  0
   91.6321   -4.6137   14.7919 H   0  0  0  0  0  0  0  0  0  0  0  0
   91.9853   -6.2038   17.1483 H   0  0  0  0  0  0  0  0  0  0  0  0
   89.9809  -10.3083   17.5588 H   0  0  0  0  0  0  0  0  0  0  0  0
   89.0118  -10.0910   16.0620 H   0  0  0  0  0  0  0  0  0  0  0  0
   90.4290  -11.1947   16.0620 H   0  0  0  0  0  0  0  0  0  0  0  0
   93.6667   -5.8499   13.8028 H   0  0  0  0  0  0  0  0  0  0  0  0
   94.3973   -5.8516   15.4133 H   0  0  0  0  0  0  0  0  0  0  0  0
   93.2524   -9.5444   10.9655 H   0  0  0  0  0  0  0  0  0  0  0  0
   91.8036  -10.5811   11.0951 H   0  0  0  0  0  0  0  0  0  0  0  0
  7  6  1  0
  7  8  1  0
  6  5  1  0
  8 25  1  0
  5 25  1  0
 25  3  1  0
  3 23  2  0
  3 24  1  0
 23 22  1  0
 24 21  2  0
 22 21  1  0
 22  4  1  0
 21  2  1  0
 20  2  1  0
 20  1  1  0
  1 18  1  0
  1 19  2  0
 18 17  2  0
 19 16  1  0
 17 16  1  0
 17 12  1  0
 16 13  1  0
 15  9  1  0
 15 12  1  0
 12 11  2  0
 13 14  1  0
 13 10  2  0
 11 10  1  0
  2 26  1  0
  2 27  1  0
  4 28  1  0
  4 29  1  0
  4 30  1  0
  5 31  1  0
  5 32  1  0
  6 33  1  0
  6 34  1  0
  7 35  1  0
  7 36  1  0
  8 37  1  0
  8 38  1  0
  9 39  1  0
  9 40  1  0
  9 41  1  0
 11 42  1  0
 14 43  1  0
 14 44  1  0
 14 45  1  0
 15 46  1  0
 15 47  1  0
 20 48  1  0
 20 49  1  0
A    1
C10
A    2
C13
A    3
C17
A    4
C20
A    5
C21
A    6
C22
A    7
C23
A    8
C24
A    9
C25
A   10
N1
A   11
C2
A   12
C3
A   13
C4
A   14
C5
A   15
C6
A   16
N7
A   17
C8
A   18
N9
A   19
N11
A   20
C12
A   21
C14
A   22
N15
A   23
N16
A   24
N18
A   25
N19
M  END
