5EDI_5M9_A_803
     RDKit          3D

 47 50  0  0  0  0  0  0  0  0999 V2000
   91.0320   -7.9310   16.8210 C   0  0  0  0  0  0  0  0  0  0  0  0
   91.8210   -6.8510   16.4270 C   0  0  0  0  0  0  0  0  0  0  0  0
   90.8710   -9.1040   15.9580 C   0  0  0  0  0  0  0  0  0  0  0  0
   92.3270   -8.0750   14.2910 C   0  0  0  0  0  0  0  0  0  0  0  0
   91.5390  -10.0560   13.6750 N   0  0  0  0  0  0  0  0  0  0  0  0
   92.6540  -10.2880   11.3650 C   0  0  0  0  0  0  0  0  0  0  0  0
   93.5440  -11.5020   11.7510 C   0  0  0  0  0  0  0  0  0  0  0  0
   94.1810  -14.2500    6.1790 C   0  0  0  0  0  0  0  0  0  0  0  0
   93.1320  -14.7190    5.2250 C   0  0  0  0  0  0  0  0  0  0  0  0
   91.9150  -14.9110    6.0200 C   0  0  0  0  0  0  0  0  0  0  0  0
   92.1210  -14.1150    7.2750 C   0  0  0  0  0  0  0  0  0  0  0  0
   96.4280  -11.8400   10.7290 C   0  0  0  0  0  0  0  0  0  0  0  0
   90.0020  -10.3390   16.3200 C   0  0  0  0  0  0  0  0  0  0  0  0
   93.3690   -5.6630   14.7580 C   0  0  0  0  0  0  0  0  0  0  0  0
   92.4940   -6.8640   15.1520 C   0  0  0  0  0  0  0  0  0  0  0  0
   91.5410   -9.1080   14.6520 N   0  0  0  0  0  0  0  0  0  0  0  0
   92.8040   -8.3920   13.0630 N   0  0  0  0  0  0  0  0  0  0  0  0
   92.3290   -9.5800   12.6820 C   0  0  0  0  0  0  0  0  0  0  0  0
   93.9720  -12.1330   10.4530 C   0  0  0  0  0  0  0  0  0  0  0  0
   93.1560  -12.6330    9.5450 N   0  0  0  0  0  0  0  0  0  0  0  0
   93.9230  -13.0660    8.5260 C   0  0  0  0  0  0  0  0  0  0  0  0
   95.1640  -12.8440    8.8100 N   0  0  0  0  0  0  0  0  0  0  0  0
   95.2160  -12.2630   10.0290 N   0  0  0  0  0  0  0  0  0  0  0  0
   93.4600  -13.7040    7.2800 N   0  0  0  0  0  0  0  0  0  0  0  0
   90.2690   -7.8440   18.3790 Cl  0  0  0  0  0  0  0  0  0  0  0  0
   91.9308   -5.9829   17.0936 H   0  0  0  0  0  0  0  0  0  0  0  0
   93.1990   -9.6117   10.6899 H   0  0  0  0  0  0  0  0  0  0  0  0
   91.7421  -10.6037   10.8371 H   0  0  0  0  0  0  0  0  0  0  0  0
   92.9695  -12.2206   12.3540 H   0  0  0  0  0  0  0  0  0  0  0  0
   94.4108  -11.1907   12.3524 H   0  0  0  0  0  0  0  0  0  0  0  0
   94.8092  -15.0912    6.5071 H   0  0  0  0  0  0  0  0  0  0  0  0
   94.8566  -13.5127    5.7208 H   0  0  0  0  0  0  0  0  0  0  0  0
   93.4368  -15.6675    4.7587 H   0  0  0  0  0  0  0  0  0  0  0  0
   92.9720  -13.9922    4.4149 H   0  0  0  0  0  0  0  0  0  0  0  0
   91.0361  -14.5416    5.4713 H   0  0  0  0  0  0  0  0  0  0  0  0
   91.7356  -15.9742    6.2380 H   0  0  0  0  0  0  0  0  0  0  0  0
   91.4561  -13.2387    7.2807 H   0  0  0  0  0  0  0  0  0  0  0  0
   91.8903  -14.7174    8.1660 H   0  0  0  0  0  0  0  0  0  0  0  0
   96.2632  -11.8975   11.8151 H   0  0  0  0  0  0  0  0  0  0  0  0
   97.2623  -12.5001   10.4493 H   0  0  0  0  0  0  0  0  0  0  0  0
   96.6704  -10.8041   10.4493 H   0  0  0  0  0  0  0  0  0  0  0  0
   89.9359  -10.4329   17.4140 H   0  0  0  0  0  0  0  0  0  0  0  0
   88.9927  -10.2126   15.9012 H   0  0  0  0  0  0  0  0  0  0  0  0
   90.4618  -11.2463   15.9012 H   0  0  0  0  0  0  0  0  0  0  0  0
   93.7342   -5.1617   15.6665 H   0  0  0  0  0  0  0  0  0  0  0  0
   94.2254   -6.0128   14.1628 H   0  0  0  0  0  0  0  0  0  0  0  0
   92.7735   -4.9551   14.1628 H   0  0  0  0  0  0  0  0  0  0  0  0
  9 10  1  0
  9  8  1  0
 10 11  1  0
  8 24  1  0
 11 24  1  0
 24 21  1  0
 21 22  2  0
 21 20  1  0
 22 23  1  0
 20 19  2  0
 23 19  1  0
 23 12  1  0
 19  7  1  0
  6  7  1  0
  6 18  1  0
 18 17  1  0
 18  5  2  0
 17  4  2  0
  5 16  1  0
  4 16  1  0
  4 15  1  0
 16  3  1  0
 14 15  1  0
 15  2  2  0
  3 13  1  0
  3  1  2  0
  2  1  1  0
  1 25  1  0
  2 26  1  0
  6 27  1  0
  6 28  1  0
  7 29  1  0
  7 30  1  0
  8 31  1  0
  8 32  1  0
  9 33  1  0
  9 34  1  0
 10 35  1  0
 10 36  1  0
 11 37  1  0
 11 38  1  0
 12 39  1  0
 12 40  1  0
 12 41  1  0
 13 42  1  0
 13 43  1  0
 13 44  1  0
 14 45  1  0
 14 46  1  0
 14 47  1  0
A    1
C01
A    2
C02
A    3
C04
A    4
C06
A    5
N09
A    6
C10
A    7
C11
A    8
C18
A    9
C19
A   10
C20
A   11
C21
A   12
C22
A   13
C23
A   14
C24
A   15
C03
A   16
N05
A   17
N07
A   18
C08
A   19
C12
A   20
N13
A   21
C14
A   22
N15
A   23
N16
A   24
N17
A   25
CL1
M  END
