5EDQ_5N3_A_1101
     RDKit          3D

 43 47  0  0  0  0  0  0  0  0999 V2000
  -51.3930   -1.1170  -24.8240 C   0  0  0  0  0  0  0  0  0  0  0  0
  -55.5810    1.8310  -25.1950 C   0  0  0  0  0  0  0  0  0  0  0  0
  -52.1070   -0.5880  -25.9020 C   0  0  0  0  0  0  0  0  0  0  0  0
  -53.5250    0.4880  -24.4130 C   0  0  0  0  0  0  0  0  0  0  0  0
  -54.6630    1.4150  -24.2100 C   0  0  0  0  0  0  0  0  0  0  0  0
  -54.9710    2.0740  -23.0530 C   0  0  0  0  0  0  0  0  0  0  0  0
  -51.8090   -0.7950  -23.5340 C   0  0  0  0  0  0  0  0  0  0  0  0
  -50.0310   -0.4510  -21.8250 C   0  0  0  0  0  0  0  0  0  0  0  0
  -50.8860   -1.4930  -22.5630 C   0  0  0  0  0  0  0  0  0  0  0  0
  -53.1550    0.1980  -25.6510 N   0  0  0  0  0  0  0  0  0  0  0  0
  -52.8640   -0.0020  -23.3660 N   0  0  0  0  0  0  0  0  0  0  0  0
  -56.0480    2.8350  -23.2920 N   0  0  0  0  0  0  0  0  0  0  0  0
  -56.4080    2.6650  -24.6330 N   0  0  0  0  0  0  0  0  0  0  0  0
  -51.7040   -0.8790  -27.1960 N   0  0  0  0  0  0  0  0  0  0  0  0
  -52.3170   -0.3730  -28.3420 C   0  0  0  0  0  0  0  0  0  0  0  0
  -52.6250    1.0250  -28.6660 C   0  0  0  0  0  0  0  0  0  0  0  0
  -52.4990    2.2630  -28.0050 C   0  0  0  0  0  0  0  0  0  0  0  0
  -52.9100    3.4190  -28.6290 C   0  0  0  0  0  0  0  0  0  0  0  0
  -53.4120    3.3920  -29.9350 C   0  0  0  0  0  0  0  0  0  0  0  0
  -53.5810    2.1760  -30.5750 C   0  0  0  0  0  0  0  0  0  0  0  0
  -53.1740    0.9940  -29.9640 C   0  0  0  0  0  0  0  0  0  0  0  0
  -53.1860   -0.3050  -30.3760 N   0  0  0  0  0  0  0  0  0  0  0  0
  -52.6480   -1.1010  -29.3700 N   0  0  0  0  0  0  0  0  0  0  0  0
  -54.2180    2.0570  -32.1770 Cl  0  0  0  0  0  0  0  0  0  0  0  0
  -50.1940   -2.0250  -24.7290 C   0  0  0  0  0  0  0  0  0  0  0  0
  -50.0650   -2.3910  -23.3400 O   0  0  0  0  0  0  0  0  0  0  0  0
  -51.7030   -2.3080  -21.5560 C   0  0  0  0  0  0  0  0  0  0  0  0
  -55.5961    1.5097  -26.2469 H   0  0  0  0  0  0  0  0  0  0  0  0
  -54.4319    1.9942  -22.0975 H   0  0  0  0  0  0  0  0  0  0  0  0
  -50.1429   -0.5874  -20.7392 H   0  0  0  0  0  0  0  0  0  0  0  0
  -48.9747   -0.5796  -22.1037 H   0  0  0  0  0  0  0  0  0  0  0  0
  -50.3633    0.5599  -22.1037 H   0  0  0  0  0  0  0  0  0  0  0  0
  -56.5265    3.4389  -22.6084 H   0  0  0  0  0  0  0  0  0  0  0  0
  -50.8994   -1.5101  -27.3192 H   0  0  0  0  0  0  0  0  0  0  0  0
  -52.0728    2.3056  -26.9918 H   0  0  0  0  0  0  0  0  0  0  0  0
  -52.8429    4.3775  -28.0936 H   0  0  0  0  0  0  0  0  0  0  0  0
  -53.6703    4.3296  -30.4491 H   0  0  0  0  0  0  0  0  0  0  0  0
  -53.5362   -0.6423  -31.2840 H   0  0  0  0  0  0  0  0  0  0  0  0
  -50.3477   -2.9228  -25.3456 H   0  0  0  0  0  0  0  0  0  0  0  0
  -49.2856   -1.5230  -25.0936 H   0  0  0  0  0  0  0  0  0  0  0  0
  -51.4158   -2.0215  -20.5335 H   0  0  0  0  0  0  0  0  0  0  0  0
  -52.7743   -2.1080  -21.7056 H   0  0  0  0  0  0  0  0  0  0  0  0
  -51.5057   -3.3798  -21.7056 H   0  0  0  0  0  0  0  0  0  0  0  0
 24 20  1  0
 20 21  2  0
 20 19  1  0
 22 21  1  0
 22 23  1  0
 21 16  1  0
 19 18  2  0
 23 15  2  0
 16 15  1  0
 16 17  2  0
 18 17  1  0
 15 14  1  0
 14  3  1  0
  3 10  2  0
  3  1  1  0
 10  4  1  0
  2 13  2  0
  2  5  1  0
  1 25  1  0
  1  7  2  0
 25 26  1  0
 13 12  1  0
  4  5  1  0
  4 11  2  0
  5  6  2  0
  7 11  1  0
  7  9  1  0
 26  9  1  0
 12  6  1  0
  9  8  1  0
  9 27  1  0
  2 28  1  0
  6 29  1  0
  8 30  1  0
  8 31  1  0
  8 32  1  0
 12 33  1  0
 14 34  1  0
 17 35  1  0
 18 36  1  0
 19 37  1  0
 22 38  1  0
 25 39  1  0
 25 40  1  0
 27 41  1  0
 27 42  1  0
 27 43  1  0
A    1
C4
A    2
C14
A    3
C5
A    4
C7
A    5
C9
A    6
C10
A    7
C3
A    8
C1
A    9
C2
A   10
N6
A   11
N8
A   12
N11
A   13
N13
A   14
N15
A   15
C16
A   16
C17
A   17
C18
A   18
C19
A   19
C20
A   20
C21
A   21
C22
A   22
N23
A   23
N25
A   24
CL
A   25
C27
A   26
O28
A   27
C29
M  END
