5EDT_5MK_A_402
     RDKit          3D

 18 18  0  0  0  0  0  0  0  0999 V2000
  -16.4590   12.9460    3.3280 N   0  0  0  0  0  0  0  0  0  0  0  0
  -15.8690   14.1440    3.5520 C   0  0  0  0  0  0  0  0  0  0  0  0
  -14.4960   14.3020    3.2680 C   0  0  0  0  0  0  0  0  0  0  0  0
  -13.8980   15.5590    3.4820 C   0  0  0  0  0  0  0  0  0  0  0  0
  -14.6640   16.6180    3.9650 C   0  0  0  0  0  0  0  0  0  0  0  0
  -14.0040   18.1720    4.3370 Cl  0  0  0  0  0  0  0  0  0  0  0  0
  -16.0250   16.4470    4.2510 C   0  0  0  0  0  0  0  0  0  0  0  0
  -16.6830   15.2240    4.0390 C   0  0  0  0  0  0  0  0  0  0  0  0
  -18.0790   15.1330    4.3470 C   0  0  0  0  0  0  0  0  0  0  0  0
  -18.6150   14.0350    4.4410 O   0  0  0  0  0  0  0  0  0  0  0  0
  -18.7610   16.2430    4.6660 N   0  0  0  0  0  0  0  0  0  0  0  0
  -16.7486   12.3580    4.1225 H   0  0  0  0  0  0  0  0  0  0  0  0
  -16.6182   12.6227    2.3631 H   0  0  0  0  0  0  0  0  0  0  0  0
  -13.9029   13.4580    2.8860 H   0  0  0  0  0  0  0  0  0  0  0  0
  -12.8288   15.7044    3.2684 H   0  0  0  0  0  0  0  0  0  0  0  0
  -16.5958   17.2966    4.6539 H   0  0  0  0  0  0  0  0  0  0  0  0
  -18.9118   16.4884    5.6549 H   0  0  0  0  0  0  0  0  0  0  0  0
  -19.1339   16.8500    3.9221 H   0  0  0  0  0  0  0  0  0  0  0  0
  3  4  1  0
  3  2  2  0
  1  2  1  0
  4  5  2  0
  2  8  1  0
  5  7  1  0
  5  6  1  0
  8  7  2  0
  8  9  1  0
  9 10  2  0
  9 11  1  0
  1 12  1  0
  1 13  1  0
  3 14  1  0
  4 15  1  0
  7 16  1  0
 11 17  1  0
 11 18  1  0
A    1
NAB
A    2
CAI
A    3
CAE
A    4
CAF
A    5
CAJ
A    6
CLA
A    7
CAG
A    8
CAK
A    9
CAH
A   10
OAC
A   11
NAA
M  END
