1ZNL_DE1_A_400
     RDKit          3D

 33 32  0  0  0  0  0  0  0  0999 V2000
   44.8690   28.5550   41.1070 C   0  0  0  0  0  0  0  0  0  0  0  0
   46.2850   28.4970   41.6820 C   0  0  0  0  0  0  0  0  0  0  0  0
   46.5640   27.1250   42.2990 C   0  0  0  0  0  0  0  0  0  0  0  0
   47.8550   26.5210   41.7440 C   0  0  0  0  0  0  0  0  0  0  0  0
   47.5960   25.7310   40.4590 C   0  0  0  0  0  0  0  0  0  0  0  0
   48.1330   24.3020   40.5630 C   0  0  0  0  0  0  0  0  0  0  0  0
   49.6460   24.2390   40.3400 C   0  0  0  0  0  0  0  0  0  0  0  0
   50.2070   22.9100   40.8490 C   0  0  0  0  0  0  0  0  0  0  0  0
   51.6580   23.0520   41.3130 C   0  0  0  0  0  0  0  0  0  0  0  0
   52.3390   21.6880   41.4600 C   0  0  0  0  0  0  0  0  0  0  0  0
   51.8910   21.0430   42.6560 O   0  0  0  0  0  0  0  0  0  0  0  0
   44.1399   28.5849   41.9302 H   0  0  0  0  0  0  0  0  0  0  0  0
   44.7611   29.4583   40.4886 H   0  0  0  0  0  0  0  0  0  0  0  0
   44.6876   27.6635   40.4886 H   0  0  0  0  0  0  0  0  0  0  0  0
   47.0097   28.6842   40.8759 H   0  0  0  0  0  0  0  0  0  0  0  0
   46.3791   29.2625   42.4663 H   0  0  0  0  0  0  0  0  0  0  0  0
   46.6589   27.2346   43.3894 H   0  0  0  0  0  0  0  0  0  0  0  0
   45.7294   26.4539   42.0478 H   0  0  0  0  0  0  0  0  0  0  0  0
   48.5655   27.3325   41.5279 H   0  0  0  0  0  0  0  0  0  0  0  0
   48.2657   25.8319   42.4966 H   0  0  0  0  0  0  0  0  0  0  0  0
   46.5122   25.6933   40.2746 H   0  0  0  0  0  0  0  0  0  0  0  0
   48.1159   26.2363   39.6318 H   0  0  0  0  0  0  0  0  0  0  0  0
   47.9053   23.9093   41.5650 H   0  0  0  0  0  0  0  0  0  0  0  0
   47.6493   23.7000   39.7796 H   0  0  0  0  0  0  0  0  0  0  0  0
   49.8578   24.3334   39.2647 H   0  0  0  0  0  0  0  0  0  0  0  0
   50.1220   25.0618   40.8936 H   0  0  0  0  0  0  0  0  0  0  0  0
   49.5941   22.5642   41.6944 H   0  0  0  0  0  0  0  0  0  0  0  0
   50.1796   22.1856   40.0217 H   0  0  0  0  0  0  0  0  0  0  0  0
   52.2121   23.6499   40.5744 H   0  0  0  0  0  0  0  0  0  0  0  0
   51.6580   23.5444   42.2967 H   0  0  0  0  0  0  0  0  0  0  0  0
   52.0884   21.0604   40.5920 H   0  0  0  0  0  0  0  0  0  0  0  0
   53.4281   21.8325   41.5143 H   0  0  0  0  0  0  0  0  0  0  0  0
   52.2328   21.5350   43.4442 H   0  0  0  0  0  0  0  0  0  0  0  0
  1  2  1  0
  2  3  1  0
  3  4  1  0
  4  5  1  0
  5  6  1  0
  6  7  1  0
  7  8  1  0
  8  9  1  0
  9 10  1  0
 10 11  1  0
  1 12  1  0
  1 13  1  0
  1 14  1  0
  2 15  1  0
  2 16  1  0
  3 17  1  0
  3 18  1  0
  4 19  1  0
  4 20  1  0
  5 21  1  0
  5 22  1  0
  6 23  1  0
  6 24  1  0
  7 25  1  0
  7 26  1  0
  8 27  1  0
  8 28  1  0
  9 29  1  0
  9 30  1  0
 10 31  1  0
 10 32  1  0
 11 33  1  0
A    1
CAA
A    2
CAC
A    3
CAE
A    4
CAG
A    5
CAI
A    6
CAK
A    7
CAJ
A    8
CAH
A    9
CAF
A   10
CAD
A   11
OAB
M  END
