5EGR_5NT_A_406
     RDKit          3D

 34 36  0  0  0  0  0  0  0  0999 V2000
  108.6580   17.9110   23.5430 O   0  0  0  0  0  0  0  0  0  0  0  0
  107.5410   17.5970   23.1290 C   0  0  0  0  0  0  0  0  0  0  0  0
  106.5330   17.2860   24.0260 N   0  0  0  0  0  0  0  0  0  0  0  0
  105.2840   16.8500   23.6840 C   0  0  0  0  0  0  0  0  0  0  0  0
  104.4430   16.5650   24.6820 N   0  0  0  0  0  0  0  0  0  0  0  0
  107.1140   17.4330   21.7800 C   0  0  0  0  0  0  0  0  0  0  0  0
  105.8470   16.9710   21.4760 C   0  0  0  0  0  0  0  0  0  0  0  0
  104.8950   16.6710   22.4250 N   0  0  0  0  0  0  0  0  0  0  0  0
  107.7410   17.6480   20.5740 N   0  0  0  0  0  0  0  0  0  0  0  0
  106.9100   17.3210   19.5400 C   0  0  0  0  0  0  0  0  0  0  0  0
  105.7190   16.8680   20.0520 C   0  0  0  0  0  0  0  0  0  0  0  0
  104.5860   16.2430   19.2820 C   0  0  0  0  0  0  0  0  0  0  0  0
  103.4180   17.1840   18.8970 C   0  0  0  0  0  0  0  0  0  0  0  0
  102.1920   16.4720   19.0630 O   0  0  0  0  0  0  0  0  0  0  0  0
  103.6240   17.3940   17.4070 C   0  0  0  0  0  0  0  0  0  0  0  0
  104.1050   16.0260   16.9370 C   0  0  0  0  0  0  0  0  0  0  0  0
  105.0640   15.6890   18.0100 N   0  0  0  0  0  0  0  0  0  0  0  0
  104.7420   16.0570   15.5600 C   0  0  0  0  0  0  0  0  0  0  0  0
  105.7680   17.0370   15.4790 O   0  0  0  0  0  0  0  0  0  0  0  0
  106.7409   17.3916   25.0293 H   0  0  0  0  0  0  0  0  0  0  0  0
  104.7499   16.6690   25.6597 H   0  0  0  0  0  0  0  0  0  0  0  0
  103.4876   16.2412   24.4738 H   0  0  0  0  0  0  0  0  0  0  0  0
  108.7011   18.0050   20.4661 H   0  0  0  0  0  0  0  0  0  0  0  0
  107.1551   17.4067   18.4711 H   0  0  0  0  0  0  0  0  0  0  0  0
  104.2075   15.4890   19.9879 H   0  0  0  0  0  0  0  0  0  0  0  0
  103.3883   18.1117   19.4874 H   0  0  0  0  0  0  0  0  0  0  0  0
  102.0024   16.3619   20.0284 H   0  0  0  0  0  0  0  0  0  0  0  0
  104.3826   18.1676   17.2169 H   0  0  0  0  0  0  0  0  0  0  0  0
  102.7188   17.7400   16.8865 H   0  0  0  0  0  0  0  0  0  0  0  0
  103.3001   15.2886   16.8014 H   0  0  0  0  0  0  0  0  0  0  0  0
  105.1448   14.6653   18.0897 H   0  0  0  0  0  0  0  0  0  0  0  0
  103.9677   16.2886   14.8138 H   0  0  0  0  0  0  0  0  0  0  0  0
  105.1919   15.0719   15.3673 H   0  0  0  0  0  0  0  0  0  0  0  0
  106.0447   17.3013   16.3921 H   0  0  0  0  0  0  0  0  0  0  0  0
 19 18  1  0
 18 16  1  0
 16 15  1  0
 16 17  1  0
 15 13  1  0
 17 12  1  0
 13 14  1  0
 13 12  1  0
 12 11  1  0
 10 11  2  0
 10  9  1  0
 11  7  1  0
  9  6  1  0
  7  6  2  0
  7  8  1  0
  6  2  1  0
  8  4  2  0
  2  1  2  0
  2  3  1  0
  4  3  1  0
  4  5  1  0
  3 20  1  0
  5 21  1  0
  5 22  1  0
  9 23  1  0
 10 24  1  0
 12 25  1  0
 13 26  1  0
 14 27  1  0
 15 28  1  0
 15 29  1  0
 16 30  1  0
 17 31  1  0
 18 32  1  0
 18 33  1  0
 19 34  1  0
A    1
O2
A    2
C10
A    3
N4
A    4
C
A    5
N
A    6
C9
A    7
C1
A    8
N1
A    9
N3
A   10
C8
A   11
C2
A   12
C3
A   13
C7
A   14
O1
A   15
C6
A   16
C4
A   17
N2
A   18
C5
A   19
O
M  END
