5EHG_5O0_A_302
     RDKit          3D

 47 49  0  0  0  0  0  0  0  0999 V2000
   20.2530   51.0480  -10.0570 C   0  0  0  0  0  0  0  0  0  0  0  0
   21.4670   51.3160   -9.4430 C   0  0  0  0  0  0  0  0  0  0  0  0
   22.6190   50.5940   -9.8210 C   0  0  0  0  0  0  0  0  0  0  0  0
   24.1730   50.8220   -7.9290 C   0  0  0  0  0  0  0  0  0  0  0  0
   21.3130   49.2980  -11.4440 C   0  0  0  0  0  0  0  0  0  0  0  0
   20.2270   50.0700  -11.0430 C   0  0  0  0  0  0  0  0  0  0  0  0
   28.1480   50.4590   -5.0680 C   0  0  0  0  0  0  0  0  0  0  0  0
   30.0980   56.1550   -0.1260 O   0  0  0  0  0  0  0  0  0  0  0  0
   25.0830   51.2060   -2.5820 S   0  0  0  0  0  0  0  0  0  0  0  0
   23.7110   51.0750   -2.8800 O   0  0  0  0  0  0  0  0  0  0  0  0
   25.6910   50.5120   -1.5110 O   0  0  0  0  0  0  0  0  0  0  0  0
   27.1100   53.3120   -1.0320 C   0  0  0  0  0  0  0  0  0  0  0  0
   26.1380   54.9310   -2.6650 C   0  0  0  0  0  0  0  0  0  0  0  0
   27.1500   55.8590   -2.3400 C   0  0  0  0  0  0  0  0  0  0  0  0
   29.1780   56.5280   -1.0620 C   0  0  0  0  0  0  0  0  0  0  0  0
   25.4320   51.1550   -5.2170 C   0  0  0  0  0  0  0  0  0  0  0  0
   29.2800   57.6480   -1.5610 O   0  0  0  0  0  0  0  0  0  0  0  0
   25.1230   52.8020   -2.2510 O   0  0  0  0  0  0  0  0  0  0  0  0
   28.1410   55.5190   -1.3700 C   0  0  0  0  0  0  0  0  0  0  0  0
   28.1160   54.2460   -0.7240 C   0  0  0  0  0  0  0  0  0  0  0  0
   27.5410   50.5940   -6.3280 C   0  0  0  0  0  0  0  0  0  0  0  0
   27.3960   50.6670   -3.8970 C   0  0  0  0  0  0  0  0  0  0  0  0
   26.0120   51.0160   -3.9500 C   0  0  0  0  0  0  0  0  0  0  0  0
   26.1350   53.6710   -1.9970 C   0  0  0  0  0  0  0  0  0  0  0  0
   26.1720   50.9500   -6.4030 C   0  0  0  0  0  0  0  0  0  0  0  0
   23.9000   50.8830   -9.2730 N   0  0  0  0  0  0  0  0  0  0  0  0
   23.3160   50.5460   -7.0610 O   0  0  0  0  0  0  0  0  0  0  0  0
   23.6850   48.8280  -11.1730 N   0  0  0  0  0  0  0  0  0  0  0  0
   18.7780   49.8840  -11.9060 Cl  0  0  0  0  0  0  0  0  0  0  0  0
   22.5560   49.5600  -10.8210 C   0  0  0  0  0  0  0  0  0  0  0  0
   25.5270   51.1400   -7.6620 N   0  0  0  0  0  0  0  0  0  0  0  0
   19.3403   51.5921   -9.7725 H   0  0  0  0  0  0  0  0  0  0  0  0
   21.5319   52.0893   -8.6634 H   0  0  0  0  0  0  0  0  0  0  0  0
   21.2096   48.5176  -12.2123 H   0  0  0  0  0  0  0  0  0  0  0  0
   29.2123   50.1904   -4.9969 H   0  0  0  0  0  0  0  0  0  0  0  0
   29.8867   56.2407    0.8374 H   0  0  0  0  0  0  0  0  0  0  0  0
   27.0806   52.3298   -0.5376 H   0  0  0  0  0  0  0  0  0  0  0  0
   25.3706   55.1734   -3.4149 H   0  0  0  0  0  0  0  0  0  0  0  0
   27.1754   56.8421   -2.8328 H   0  0  0  0  0  0  0  0  0  0  0  0
   24.3699   51.4317   -5.2910 H   0  0  0  0  0  0  0  0  0  0  0  0
   28.8875   53.9941    0.0185 H   0  0  0  0  0  0  0  0  0  0  0  0
   28.1226   50.4251   -7.2463 H   0  0  0  0  0  0  0  0  0  0  0  0
   27.8854   50.5583   -2.9179 H   0  0  0  0  0  0  0  0  0  0  0  0
   24.6590   51.1509   -9.9157 H   0  0  0  0  0  0  0  0  0  0  0  0
   24.2925   48.4341  -10.4404 H   0  0  0  0  0  0  0  0  0  0  0  0
   23.9136   48.6798  -12.1663 H   0  0  0  0  0  0  0  0  0  0  0  0
   26.0859   51.5365   -8.4309 H   0  0  0  0  0  0  0  0  0  0  0  0
 29  6  1  0
  5  6  1  0
  5 30  2  0
 28 30  1  0
  6  1  2  0
 30  3  1  0
  1  2  1  0
  3  2  2  0
  3 26  1  0
 26  4  1  0
  4 31  1  0
  4 27  2  0
 31 25  1  0
 25 21  1  0
 25 16  2  0
 21  7  2  0
 16 23  1  0
  7 22  1  0
 23 22  2  0
 23  9  1  0
 10  9  2  0
 13 14  2  0
 13 24  1  0
  9 18  1  0
  9 11  2  0
 14 19  1  0
 18 24  1  0
 24 12  2  0
 17 15  2  0
 19 15  1  0
 19 20  2  0
 15  8  1  0
 12 20  1  0
  1 32  1  0
  2 33  1  0
  5 34  1  0
  7 35  1  0
  8 36  1  0
 12 37  1  0
 13 38  1  0
 14 39  1  0
 16 40  1  0
 20 41  1  0
 21 42  1  0
 22 43  1  0
 26 44  1  0
 28 45  1  0
 28 46  1  0
 31 47  1  0
A    1
C3
A    2
C4
A    3
C5
A    4
C6
A    5
C1
A    6
C2
A    7
C9
A    8
O5
A    9
S
A   10
O1
A   11
O2
A   12
C13
A   13
C18
A   14
C17
A   15
C16
A   16
C19
A   17
O4
A   18
O3
A   19
C15
A   20
C14
A   21
C8
A   22
C10
A   23
C11
A   24
C12
A   25
C7
A   26
N1
A   27
O
A   28
N
A   29
CL
A   30
C
A   31
N2
M  END
