5EHQ_5O2_A_1504
     RDKit          3D

 92 99  0  0  0  0  0  0  0  0999 V2000
   37.5590   24.2150    6.4140 N   0  0  0  0  0  0  0  0  0  0  0  0
   36.7810   25.4670    8.5450 C   0  0  0  0  0  0  0  0  0  0  0  0
   37.7740   25.2050    7.4510 C   0  0  0  0  0  0  0  0  0  0  0  0
   38.5630   24.0520    5.3170 C   0  0  0  0  0  0  0  0  0  0  0  0
   38.3710   23.1030    4.1980 C   0  0  0  0  0  0  0  0  0  0  0  0
   40.5380   27.5710    8.5930 C   0  0  0  0  0  0  0  0  0  0  0  0
   41.5130   27.3740    7.6080 C   0  0  0  0  0  0  0  0  0  0  0  0
   40.7670   28.4500    9.5900 N   0  0  0  0  0  0  0  0  0  0  0  0
   34.9770   25.9820   10.6450 C   0  0  0  0  0  0  0  0  0  0  0  0
   35.2320   26.9660    9.6800 C   0  0  0  0  0  0  0  0  0  0  0  0
   36.1190   26.7040    8.6240 C   0  0  0  0  0  0  0  0  0  0  0  0
   39.0670   25.9750    7.5210 C   0  0  0  0  0  0  0  0  0  0  0  0
   39.3440   26.8590    8.5740 C   0  0  0  0  0  0  0  0  0  0  0  0
   40.0970   25.7880    6.4430 C   0  0  0  0  0  0  0  0  0  0  0  0
   41.2980   26.5070    6.5300 C   0  0  0  0  0  0  0  0  0  0  0  0
   35.6500   24.7540   10.5710 C   0  0  0  0  0  0  0  0  0  0  0  0
   36.5790   24.5080    9.5460 C   0  0  0  0  0  0  0  0  0  0  0  0
   39.8500   24.7820    5.3560 C   0  0  0  0  0  0  0  0  0  0  0  0
   40.8110   24.5520    4.3520 C   0  0  0  0  0  0  0  0  0  0  0  0
   40.5750   23.6420    3.3030 C   0  0  0  0  0  0  0  0  0  0  0  0
   39.3580   22.9440    3.2090 C   0  0  0  0  0  0  0  0  0  0  0  0
   39.1560   22.0770    2.1810 N   0  0  0  0  0  0  0  0  0  0  0  0
   36.1890   23.6740    6.2160 C   0  0  0  0  0  0  0  0  0  0  0  0
   35.9180   22.1820    6.4320 C   0  0  0  0  0  0  0  0  0  0  0  0
   34.9640   21.8410    7.5900 C   0  0  0  0  0  0  0  0  0  0  0  0
   33.8320   22.8200    7.9170 C   0  0  0  0  0  0  0  0  0  0  0  0
   32.5500   22.0240    8.1250 C   0  0  0  0  0  0  0  0  0  0  0  0
   31.9750   22.1360    9.5250 C   0  0  0  0  0  0  0  0  0  0  0  0
   31.5340   21.0830   10.2580 N   0  0  0  0  0  0  0  0  0  0  0  0
   31.0350   21.5560   11.4750 N   0  0  0  0  0  0  0  0  0  0  0  0
   31.1830   22.9490   11.3890 N   0  0  0  0  0  0  0  0  0  0  0  0
   31.7330   23.3060   10.2350 C   0  0  0  0  0  0  0  0  0  0  0  0
   30.7220   23.7390   12.5370 C   0  0  0  0  0  0  0  0  0  0  0  0
   30.5710   22.8440   13.7600 C   0  0  0  0  0  0  0  0  0  0  0  0
   29.3270   23.0400   14.4690 N   0  0  0  0  0  0  0  0  0  0  0  0
   28.1600   22.4660   14.0930 C   0  0  0  0  0  0  0  0  0  0  0  0
   27.1120   23.2810   13.3970 C   0  0  0  0  0  0  0  0  0  0  0  0
   27.2950   24.6290   13.0790 C   0  0  0  0  0  0  0  0  0  0  0  0
   25.7880   22.6580   13.1510 C   0  0  0  0  0  0  0  0  0  0  0  0
   24.7930   23.4090   12.5260 C   0  0  0  0  0  0  0  0  0  0  0  0
   25.0360   24.7460   12.1920 C   0  0  0  0  0  0  0  0  0  0  0  0
   26.2590   25.3500   12.4820 C   0  0  0  0  0  0  0  0  0  0  0  0
   25.5630   21.3590   13.4460 N   0  0  0  0  0  0  0  0  0  0  0  0
   26.4570   20.5460   14.0430 C   0  0  0  0  0  0  0  0  0  0  0  0
   26.0560   19.0890   14.2600 C   0  0  0  0  0  0  0  0  0  0  0  0
   27.8070   21.0570   14.4430 C   0  0  0  0  0  0  0  0  0  0  0  0
   28.7910   20.1700   15.1910 C   0  0  0  0  0  0  0  0  0  0  0  0
   28.2470   18.8060   15.6450 C   0  0  0  0  0  0  0  0  0  0  0  0
   26.7570   18.5130   15.4760 C   0  0  0  0  0  0  0  0  0  0  0  0
   37.4438   22.5140    4.1390 H   0  0  0  0  0  0  0  0  0  0  0  0
   42.4693   27.9124    7.6827 H   0  0  0  0  0  0  0  0  0  0  0  0
   40.6882   28.1476   10.5714 H   0  0  0  0  0  0  0  0  0  0  0  0
   41.0207   29.4237    9.3699 H   0  0  0  0  0  0  0  0  0  0  0  0
   34.2553   26.1714   11.4533 H   0  0  0  0  0  0  0  0  0  0  0  0
   34.7361   27.9454    9.7503 H   0  0  0  0  0  0  0  0  0  0  0  0
   36.2966   27.4703    7.8551 H   0  0  0  0  0  0  0  0  0  0  0  0
   38.6146   26.9894    9.3870 H   0  0  0  0  0  0  0  0  0  0  0  0
   42.0686   26.3901    5.7537 H   0  0  0  0  0  0  0  0  0  0  0  0
   35.4488   23.9762   11.3223 H   0  0  0  0  0  0  0  0  0  0  0  0
   37.1459   23.5654    9.5296 H   0  0  0  0  0  0  0  0  0  0  0  0
   41.7669   25.0951    4.3880 H   0  0  0  0  0  0  0  0  0  0  0  0
   41.3549   23.4748    2.5455 H   0  0  0  0  0  0  0  0  0  0  0  0
   38.9265   21.0919    2.3756 H   0  0  0  0  0  0  0  0  0  0  0  0
   39.2325   22.4054    1.2078 H   0  0  0  0  0  0  0  0  0  0  0  0
   35.5288   24.2201    6.9058 H   0  0  0  0  0  0  0  0  0  0  0  0
   36.0160   23.8098    5.1382 H   0  0  0  0  0  0  0  0  0  0  0  0
   35.4831   21.7793    5.5053 H   0  0  0  0  0  0  0  0  0  0  0  0
   36.8872   21.7354    6.6988 H   0  0  0  0  0  0  0  0  0  0  0  0
   34.4979   20.8733    7.3525 H   0  0  0  0  0  0  0  0  0  0  0  0
   35.6058   21.8635    8.4831 H   0  0  0  0  0  0  0  0  0  0  0  0
   34.0761   23.3767    8.8338 H   0  0  0  0  0  0  0  0  0  0  0  0
   33.7019   23.5353    7.0915 H   0  0  0  0  0  0  0  0  0  0  0  0
   31.7966   22.3887    7.4113 H   0  0  0  0  0  0  0  0  0  0  0  0
   32.8036   20.9651    7.9685 H   0  0  0  0  0  0  0  0  0  0  0  0
   31.9548   24.3313    9.9040 H   0  0  0  0  0  0  0  0  0  0  0  0
   31.4556   24.5297   12.7529 H   0  0  0  0  0  0  0  0  0  0  0  0
   29.7473   24.1889   12.2970 H   0  0  0  0  0  0  0  0  0  0  0  0
   30.6232   21.7952   13.4323 H   0  0  0  0  0  0  0  0  0  0  0  0
   31.3832   23.1057   14.4541 H   0  0  0  0  0  0  0  0  0  0  0  0
   29.3284   23.6464   15.3016 H   0  0  0  0  0  0  0  0  0  0  0  0
   28.2537   25.1216   13.2986 H   0  0  0  0  0  0  0  0  0  0  0  0
   23.8194   22.9515   12.2961 H   0  0  0  0  0  0  0  0  0  0  0  0
   24.2492   25.3303   11.6924 H   0  0  0  0  0  0  0  0  0  0  0  0
   26.4100   26.4116   12.2365 H   0  0  0  0  0  0  0  0  0  0  0  0
   26.3338   18.5023   13.3719 H   0  0  0  0  0  0  0  0  0  0  0  0
   24.9694   19.0430   14.4245 H   0  0  0  0  0  0  0  0  0  0  0  0
   29.1249   20.7155   16.0859 H   0  0  0  0  0  0  0  0  0  0  0  0
   29.5977   19.9484   14.4767 H   0  0  0  0  0  0  0  0  0  0  0  0
   28.4761   18.7072   16.7163 H   0  0  0  0  0  0  0  0  0  0  0  0
   28.7368   18.0874   14.9714 H   0  0  0  0  0  0  0  0  0  0  0  0
   26.2428   18.9034   16.3666 H   0  0  0  0  0  0  0  0  0  0  0  0
   26.7032   17.4232   15.3363 H   0  0  0  0  0  0  0  0  0  0  0  0
 22 21  1  0
 21 20  1  0
 21  5  2  0
 20 19  2  0
  5  4  1  0
 19 18  1  0
  4 18  2  0
  4  1  1  0
 18 14  1  0
 23  1  1  0
 23 24  1  0
  1  3  2  0
 24 25  1  0
 14 15  2  0
 14 12  1  0
 15  7  1  0
  3 12  1  0
  3  2  1  0
 12 13  2  0
 25 26  1  0
  7  6  2  0
 26 27  1  0
 27 28  1  0
  2 11  2  0
  2 17  1  0
 13  6  1  0
  6  8  1  0
 11 10  1  0
 28 29  1  0
 28 32  2  0
 17 16  2  0
 10  9  2  0
 29 30  2  0
 32 31  1  0
 16  9  1  0
 31 30  1  0
 31 33  1  0
 49 45  1  0
 49 48  1  0
 45 44  1  0
 33 34  1  0
 48 47  1  0
 47 46  1  0
 44 46  1  0
 44 43  2  0
 46 36  2  0
 43 39  1  0
 34 35  1  0
 39 40  2  0
 39 37  1  0
 36 35  1  0
 36 37  1  0
 40 41  1  0
 37 38  2  0
 41 42  2  0
 38 42  1  0
  5 50  1  0
  7 51  1  0
  8 52  1  0
  8 53  1  0
  9 54  1  0
 10 55  1  0
 11 56  1  0
 13 57  1  0
 15 58  1  0
 16 59  1  0
 17 60  1  0
 19 61  1  0
 20 62  1  0
 22 63  1  0
 22 64  1  0
 23 65  1  0
 23 66  1  0
 24 67  1  0
 24 68  1  0
 25 69  1  0
 25 70  1  0
 26 71  1  0
 26 72  1  0
 27 73  1  0
 27 74  1  0
 32 75  1  0
 33 76  1  0
 33 77  1  0
 34 78  1  0
 34 79  1  0
 35 80  1  0
 38 81  1  0
 40 82  1  0
 41 83  1  0
 42 84  1  0
 45 85  1  0
 45 86  1  0
 47 87  1  0
 47 88  1  0
 48 89  1  0
 48 90  1  0
 49 91  1  0
 49 92  1  0
M  CHG  1   1   1
A    1
N2
A    2
C8
A    3
C7
A    4
C6
A    5
C5
A    6
C19
A    7
C18
A    8
N3
A    9
C11
A   10
C12
A   11
C13
A   12
C14
A   13
C15
A   14
C16
A   15
C17
A   16
C10
A   17
C9
A   18
C4
A   19
C3
A   20
C2
A   21
C1
A   22
N1
A   23
C20
A   24
C21
A   25
C22
A   26
C24
A   27
C25
A   28
C26
A   29
N4
A   30
N5
A   31
N6
A   32
C27
A   33
C28
A   34
C29
A   35
N7
A   36
C30
A   37
C31
A   38
C32
A   39
C33
A   40
C34
A   41
C35
A   42
C36
A   43
N8
A   44
C37
A   45
C38
A   46
C39
A   47
C40
A   48
C41
A   49
C42
M  END
