5EHR_5OD_A_601
     RDKit          3D

 42 44  0  0  0  0  0  0  0  0999 V2000
   21.0510   40.7360    4.9330 C   0  0  0  0  0  0  0  0  0  0  0  0
   22.3040   41.9870    3.3890 C   0  0  0  0  0  0  0  0  0  0  0  0
   26.8860   41.3930    3.8170 C   0  0  0  0  0  0  0  0  0  0  0  0
   27.1970   42.7380    3.0440 C   0  0  0  0  0  0  0  0  0  0  0  0
   25.8660   43.5020    2.7240 C   0  0  0  0  0  0  0  0  0  0  0  0
   24.7590   42.6120    2.1010 C   0  0  0  0  0  0  0  0  0  0  0  0
   19.4320   40.7620    6.8640 C   0  0  0  0  0  0  0  0  0  0  0  0
   18.1370   40.5960    7.3700 C   0  0  0  0  0  0  0  0  0  0  0  0
   17.0850   40.1870    6.5240 C   0  0  0  0  0  0  0  0  0  0  0  0
   17.3520   39.8990    5.1690 C   0  0  0  0  0  0  0  0  0  0  0  0
   18.6480   40.1100    4.6580 C   0  0  0  0  0  0  0  0  0  0  0  0
   27.9810   42.4520    1.7320 C   0  0  0  0  0  0  0  0  0  0  0  0
   21.1390   41.7310    4.0090 N   0  0  0  0  0  0  0  0  0  0  0  0
   23.4310   41.1720    3.6090 C   0  0  0  0  0  0  0  0  0  0  0  0
   23.3420   40.1800    4.5450 N   0  0  0  0  0  0  0  0  0  0  0  0
   22.1830   39.9260    5.2010 C   0  0  0  0  0  0  0  0  0  0  0  0
   22.1780   38.8970    6.0800 N   0  0  0  0  0  0  0  0  0  0  0  0
   19.6960   40.5400    5.5090 C   0  0  0  0  0  0  0  0  0  0  0  0
   24.6090   41.4200    2.9630 N   0  0  0  0  0  0  0  0  0  0  0  0
   25.7670   40.5530    3.1260 C   0  0  0  0  0  0  0  0  0  0  0  0
   20.6820   41.3450    7.9130 Cl  0  0  0  0  0  0  0  0  0  0  0  0
   17.8420   40.9550    9.0520 Cl  0  0  0  0  0  0  0  0  0  0  0  0
   28.0860   43.5790    3.8750 N   0  0  0  0  0  0  0  0  0  0  0  0
   22.3777   42.8429    2.7020 H   0  0  0  0  0  0  0  0  0  0  0  0
   27.8048   40.7897    3.8595 H   0  0  0  0  0  0  0  0  0  0  0  0
   26.5311   41.6597    4.8234 H   0  0  0  0  0  0  0  0  0  0  0  0
   26.0949   44.3137    2.0178 H   0  0  0  0  0  0  0  0  0  0  0  0
   25.4738   43.8712    3.6831 H   0  0  0  0  0  0  0  0  0  0  0  0
   23.8102   43.1670    2.0592 H   0  0  0  0  0  0  0  0  0  0  0  0
   25.0299   42.3174    1.0764 H   0  0  0  0  0  0  0  0  0  0  0  0
   16.0625   40.0932    6.9185 H   0  0  0  0  0  0  0  0  0  0  0  0
   16.5549   39.5128    4.5167 H   0  0  0  0  0  0  0  0  0  0  0  0
   18.8477   39.9395    3.5898 H   0  0  0  0  0  0  0  0  0  0  0  0
   28.9879   42.0847    1.9792 H   0  0  0  0  0  0  0  0  0  0  0  0
   27.4470   41.6907    1.1443 H   0  0  0  0  0  0  0  0  0  0  0  0
   28.0626   43.3783    1.1443 H   0  0  0  0  0  0  0  0  0  0  0  0
   22.1789   39.0848    7.0927 H   0  0  0  0  0  0  0  0  0  0  0  0
   22.1733   37.9261    5.7363 H   0  0  0  0  0  0  0  0  0  0  0  0
   25.5041   39.6887    3.7536 H   0  0  0  0  0  0  0  0  0  0  0  0
   26.1103   40.1765    2.1511 H   0  0  0  0  0  0  0  0  0  0  0  0
   27.8960   43.3993    4.8713 H   0  0  0  0  0  0  0  0  0  0  0  0
   29.0684   43.3507    3.6662 H   0  0  0  0  0  0  0  0  0  0  0  0
 12  4  1  0
  6  5  1  0
  6 19  1  0
  5  4  1  0
 19 20  1  0
 19 14  1  0
  4  3  1  0
  4 23  1  0
 20  3  1  0
  2 14  2  0
  2 13  1  0
 14 15  1  0
 13  1  2  0
 15 16  2  0
 11 10  2  0
 11 18  1  0
  1 16  1  0
  1 18  1  0
 10  9  1  0
 16 17  1  0
 18  7  2  0
  9  8  2  0
  7  8  1  0
  7 21  1  0
  8 22  1  0
  2 24  1  0
  3 25  1  0
  3 26  1  0
  5 27  1  0
  5 28  1  0
  6 29  1  0
  6 30  1  0
  9 31  1  0
 10 32  1  0
 11 33  1  0
 12 34  1  0
 12 35  1  0
 12 36  1  0
 17 37  1  0
 17 38  1  0
 20 39  1  0
 20 40  1  0
 23 41  1  0
 23 42  1  0
A    1
C1
A    2
C3
A    3
C11
A    4
C12
A    5
C13
A    6
C14
A    7
C15
A    8
C16
A    9
C17
A   10
C18
A   11
C19
A   12
C23
A   13
N2
A   14
C4
A   15
N5
A   16
C6
A   17
N7
A   18
C8
A   19
N9
A   20
C10
A   21
CL1
A   22
CL2
A   23
N22
M  END
