5EI2_5O7_A_901
     RDKit          3D

 45 48  0  0  0  0  0  0  0  0999 V2000
    1.0720  -39.2800  -11.1600 C   0  0  0  0  0  0  0  0  0  0  0  0
   -1.3650  -37.4900   -9.1220 C   0  0  0  0  0  0  0  0  0  0  0  0
   -1.4290  -37.8800   -7.7950 C   0  0  0  0  0  0  0  0  0  0  0  0
   -1.2540  -34.8980   -4.8070 C   0  0  0  0  0  0  0  0  0  0  0  0
   -1.6410  -40.2120   -8.3450 C   0  0  0  0  0  0  0  0  0  0  0  0
   -1.5620  -39.1760   -7.3680 O   0  0  0  0  0  0  0  0  0  0  0  0
   -1.2200  -36.1540   -9.4400 C   0  0  0  0  0  0  0  0  0  0  0  0
   -1.3550  -36.9400   -6.7790 C   0  0  0  0  0  0  0  0  0  0  0  0
   -1.2140  -35.6010   -7.1000 C   0  0  0  0  0  0  0  0  0  0  0  0
   -1.1440  -34.5790   -6.1940 O   0  0  0  0  0  0  0  0  0  0  0  0
   -1.1390  -35.1990   -8.4330 C   0  0  0  0  0  0  0  0  0  0  0  0
   -0.9560  -33.8510   -8.7030 N   0  0  0  0  0  0  0  0  0  0  0  0
   -0.2240  -33.3380   -9.7240 C   0  0  0  0  0  0  0  0  0  0  0  0
   -0.1220  -32.0000   -9.7860 N   0  0  0  0  0  0  0  0  0  0  0  0
    0.6340  -31.5290  -10.7530 C   0  0  0  0  0  0  0  0  0  0  0  0
    1.3140  -32.3270  -11.6980 C   0  0  0  0  0  0  0  0  0  0  0  0
    2.1100  -31.8400  -12.7590 C   0  0  0  0  0  0  0  0  0  0  0  0
    2.6830  -32.7250  -13.6150 C   0  0  0  0  0  0  0  0  0  0  0  0
    2.5420  -34.0540  -13.5180 N   0  0  0  0  0  0  0  0  0  0  0  0
    1.8010  -34.5510  -12.5360 C   0  0  0  0  0  0  0  0  0  0  0  0
    1.1240  -33.7200  -11.5430 C   0  0  0  0  0  0  0  0  0  0  0  0
    0.3510  -34.2330  -10.5460 N   0  0  0  0  0  0  0  0  0  0  0  0
    1.7010  -35.9950  -12.5320 C   0  0  0  0  0  0  0  0  0  0  0  0
    1.9230  -36.8830  -13.5990 C   0  0  0  0  0  0  0  0  0  0  0  0
    1.7290  -38.1430  -13.2500 N   0  0  0  0  0  0  0  0  0  0  0  0
    1.3730  -38.0740  -11.9190 N   0  0  0  0  0  0  0  0  0  0  0  0
    1.3530  -36.8090  -11.4820 C   0  0  0  0  0  0  0  0  0  0  0  0
    1.1271  -39.0592  -10.0838 H   0  0  0  0  0  0  0  0  0  0  0  0
    0.0594  -39.6283  -11.4115 H   0  0  0  0  0  0  0  0  0  0  0  0
    1.8022  -40.0633  -11.4115 H   0  0  0  0  0  0  0  0  0  0  0  0
   -1.4295  -38.2429   -9.9214 H   0  0  0  0  0  0  0  0  0  0  0  0
   -0.9538  -34.0273   -4.2056 H   0  0  0  0  0  0  0  0  0  0  0  0
   -2.2956  -35.1635   -4.5733 H   0  0  0  0  0  0  0  0  0  0  0  0
   -0.5974  -35.7491   -4.5733 H   0  0  0  0  0  0  0  0  0  0  0  0
   -1.7153  -41.1867   -7.8406 H   0  0  0  0  0  0  0  0  0  0  0  0
   -2.5298  -40.0559   -8.9739 H   0  0  0  0  0  0  0  0  0  0  0  0
   -0.7388  -40.1924   -8.9739 H   0  0  0  0  0  0  0  0  0  0  0  0
   -1.1684  -35.8442  -10.4942 H   0  0  0  0  0  0  0  0  0  0  0  0
   -1.4079  -37.2555   -5.7265 H   0  0  0  0  0  0  0  0  0  0  0  0
   -1.4167  -33.1795   -8.0724 H   0  0  0  0  0  0  0  0  0  0  0  0
    0.7442  -30.4373  -10.8310 H   0  0  0  0  0  0  0  0  0  0  0  0
    2.2635  -30.7587  -12.8899 H   0  0  0  0  0  0  0  0  0  0  0  0
    3.2986  -32.3278  -14.4356 H   0  0  0  0  0  0  0  0  0  0  0  0
    2.2236  -36.5657  -14.6084 H   0  0  0  0  0  0  0  0  0  0  0  0
    1.1023  -36.4798  -10.4628 H   0  0  0  0  0  0  0  0  0  0  0  0
 18 19  2  0
 18 17  1  0
 24 25  2  0
 24 23  1  0
 19 20  1  0
 25 26  1  0
 17 16  2  0
 20 23  1  0
 20 21  2  0
 23 27  2  0
 26 27  1  0
 26  1  1  0
 16 21  1  0
 16 15  1  0
 21 22  1  0
 15 14  2  0
 22 13  2  0
 14 13  1  0
 13 12  1  0
  7  2  2  0
  7 11  1  0
  2  3  1  0
 12 11  1  0
 11  9  2  0
  5  6  1  0
  3  6  1  0
  3  8  2  0
  9  8  1  0
  9 10  1  0
 10  4  1  0
  1 28  1  0
  1 29  1  0
  1 30  1  0
  2 31  1  0
  4 32  1  0
  4 33  1  0
  4 34  1  0
  5 35  1  0
  5 36  1  0
  5 37  1  0
  7 38  1  0
  8 39  1  0
 12 40  1  0
 15 41  1  0
 17 42  1  0
 18 43  1  0
 24 44  1  0
 27 45  1  0
A    1
C10
A    2
C13
A    3
C14
A    4
C17
A    5
C18
A    6
O1
A    7
C12
A    8
C15
A    9
C16
A   10
O
A   11
C11
A   12
N5
A   13
C
A   14
N1
A   15
C3
A   16
C2
A   17
C4
A   18
C5
A   19
N2
A   20
C6
A   21
C1
A   22
N
A   23
C7
A   24
C9
A   25
N4
A   26
N3
A   27
C8
M  END
