5EI4_5NV_A_202
     RDKit          3D

 46 49  0  0  0  0  0  0  0  0999 V2000
   25.2900   50.7970   -1.1160 C   0  0  0  0  0  0  0  0  0  0  0  0
   24.4790   49.9840   -0.3350 C   0  0  0  0  0  0  0  0  0  0  0  0
   23.2330   49.6060   -0.7820 C   0  0  0  0  0  0  0  0  0  0  0  0
   26.4090   50.3350    0.6730 C   0  0  0  0  0  0  0  0  0  0  0  0
   22.8590   50.1810   -2.0340 N   0  0  0  0  0  0  0  0  0  0  0  0
   24.8610   51.3160   -2.2890 N   0  0  0  0  0  0  0  0  0  0  0  0
   27.9540   50.8370   -3.0440 C   0  0  0  0  0  0  0  0  0  0  0  0
   28.8350   49.9310   -3.6650 C   0  0  0  0  0  0  0  0  0  0  0  0
   28.5970   49.3090   -4.8920 C   0  0  0  0  0  0  0  0  0  0  0  0
   29.6590   48.2980   -5.6350 Cl  0  0  0  0  0  0  0  0  0  0  0  0
   27.4260   49.6090   -5.5200 C   0  0  0  0  0  0  0  0  0  0  0  0
   26.5180   50.4940   -4.9150 C   0  0  0  0  0  0  0  0  0  0  0  0
   26.7810   51.1850   -3.7040 C   0  0  0  0  0  0  0  0  0  0  0  0
   25.7970   52.1650   -3.0980 C   0  0  0  0  0  0  0  0  0  0  0  0
   23.6120   50.9980   -2.7830 C   0  0  0  0  0  0  0  0  0  0  0  0
   23.2340   51.4030   -3.8830 O   0  0  0  0  0  0  0  0  0  0  0  0
   22.3840   48.8110   -0.2820 O   0  0  0  0  0  0  0  0  0  0  0  0
   25.2270   49.6470    0.7490 N   0  0  0  0  0  0  0  0  0  0  0  0
   24.8870   48.7650    1.8310 C   0  0  0  0  0  0  0  0  0  0  0  0
   25.0310   47.4090    1.3270 C   0  0  0  0  0  0  0  0  0  0  0  0
   26.4470   51.0440   -0.4780 N   0  0  0  0  0  0  0  0  0  0  0  0
   27.4650   50.2680    1.8900 C   0  0  0  0  0  0  0  0  0  0  0  0
   26.9870   51.5780    2.9540 S   0  0  0  0  0  0  0  0  0  0  0  0
   28.5300   51.9610    3.5260 C   0  0  0  0  0  0  0  0  0  0  0  0
   28.6200   52.4600    4.6840 N   0  0  0  0  0  0  0  0  0  0  0  0
   29.9510   52.8470    4.7900 C   0  0  0  0  0  0  0  0  0  0  0  0
   30.5950   53.4850    5.8310 N   0  0  0  0  0  0  0  0  0  0  0  0
   30.6520   52.3290    3.8000 N   0  0  0  0  0  0  0  0  0  0  0  0
   29.7440   51.7610    2.9770 N   0  0  0  0  0  0  0  0  0  0  0  0
   21.9234   49.9460   -2.3951 H   0  0  0  0  0  0  0  0  0  0  0  0
   28.1891   51.2609   -2.0566 H   0  0  0  0  0  0  0  0  0  0  0  0
   29.7768   49.6969   -3.1471 H   0  0  0  0  0  0  0  0  0  0  0  0
   27.1923   49.1602   -6.4967 H   0  0  0  0  0  0  0  0  0  0  0  0
   25.5488   50.6606   -5.4078 H   0  0  0  0  0  0  0  0  0  0  0  0
   26.3178   52.8893   -2.4544 H   0  0  0  0  0  0  0  0  0  0  0  0
   25.2690   52.7514   -3.8644 H   0  0  0  0  0  0  0  0  0  0  0  0
   25.5668   48.9277    2.6804 H   0  0  0  0  0  0  0  0  0  0  0  0
   23.8613   48.9488    2.1833 H   0  0  0  0  0  0  0  0  0  0  0  0
   25.1053   46.7095    2.1727 H   0  0  0  0  0  0  0  0  0  0  0  0
   24.1552   47.1509    0.7135 H   0  0  0  0  0  0  0  0  0  0  0  0
   25.9415   47.3406    0.7135 H   0  0  0  0  0  0  0  0  0  0  0  0
   27.3994   49.3007    2.4096 H   0  0  0  0  0  0  0  0  0  0  0  0
   28.5060   50.3640    1.5479 H   0  0  0  0  0  0  0  0  0  0  0  0
   30.3574   53.2496    6.8052 H   0  0  0  0  0  0  0  0  0  0  0  0
   31.3132   54.1965    5.6336 H   0  0  0  0  0  0  0  0  0  0  0  0
   29.9425   51.2675    2.0950 H   0  0  0  0  0  0  0  0  0  0  0  0
 10  9  1  0
 11 12  2  0
 11  9  1  0
 12 13  1  0
  9  8  2  0
 16 15  2  0
 13 14  1  0
 13  7  2  0
  8  7  1  0
 14  6  1  0
 15  6  1  0
 15  5  1  0
  6  1  1  0
  5  3  1  0
  1 21  1  0
  1  2  2  0
  3  2  1  0
  3 17  2  0
 21  4  2  0
  2 18  1  0
  4 18  1  0
  4 22  1  0
 18 19  1  0
 20 19  1  0
 22 23  1  0
 23 24  1  0
 29 24  1  0
 29 28  1  0
 24 25  2  0
 28 26  2  0
 25 26  1  0
 26 27  1  0
  5 30  1  0
  7 31  1  0
  8 32  1  0
 11 33  1  0
 12 34  1  0
 14 35  1  0
 14 36  1  0
 19 37  1  0
 19 38  1  0
 20 39  1  0
 20 40  1  0
 20 41  1  0
 22 42  1  0
 22 43  1  0
 27 44  1  0
 27 45  1  0
 29 46  1  0
A    1
C4
A    2
C5
A    3
C6
A    4
C8
A    5
N1
A    6
N3
A    7
CAJ
A    8
CAK
A    9
CAL
A   10
CL1
A   11
CAM
A   12
CAN
A   13
CAI
A   14
CAH
A   15
C2
A   16
O2
A   17
O6
A   18
N7
A   19
CAT
A   20
CAU
A   21
N9
A   22
CAV
A   23
SAW
A   24
CAX
A   25
NBB
A   26
CBA
A   27
NBC
A   28
NAZ
A   29
NAY
M  END
