5EI8_5OE_A_901
     RDKit          3D

 51 55  0  0  0  0  0  0  0  0999 V2000
    1.0380  -39.0720  -11.7080 C   0  0  0  0  0  0  0  0  0  0  0  0
    1.3590  -37.8170  -12.3740 N   0  0  0  0  0  0  0  0  0  0  0  0
    1.4570  -36.6030  -11.8230 C   0  0  0  0  0  0  0  0  0  0  0  0
    1.5850  -37.8090  -13.6970 N   0  0  0  0  0  0  0  0  0  0  0  0
    1.8300  -36.5430  -13.9770 C   0  0  0  0  0  0  0  0  0  0  0  0
    1.7600  -35.7300  -12.8370 C   0  0  0  0  0  0  0  0  0  0  0  0
    1.9210  -34.2990  -12.7390 C   0  0  0  0  0  0  0  0  0  0  0  0
    2.6590  -33.7360  -13.6900 N   0  0  0  0  0  0  0  0  0  0  0  0
    2.8120  -32.4000  -13.7080 C   0  0  0  0  0  0  0  0  0  0  0  0
    2.2560  -31.5590  -12.7970 C   0  0  0  0  0  0  0  0  0  0  0  0
    1.4740  -32.1110  -11.7650 C   0  0  0  0  0  0  0  0  0  0  0  0
    1.3050  -33.5110  -11.7400 C   0  0  0  0  0  0  0  0  0  0  0  0
    0.5260  -34.1180  -10.8040 N   0  0  0  0  0  0  0  0  0  0  0  0
   -0.0820  -33.3080   -9.9180 C   0  0  0  0  0  0  0  0  0  0  0  0
   -0.0030  -31.9660   -9.8660 N   0  0  0  0  0  0  0  0  0  0  0  0
    0.7610  -31.4040  -10.7740 C   0  0  0  0  0  0  0  0  0  0  0  0
   -0.8430  -33.9120   -8.9710 N   0  0  0  0  0  0  0  0  0  0  0  0
   -1.0740  -35.2490   -8.6580 C   0  0  0  0  0  0  0  0  0  0  0  0
   -1.1680  -35.6050   -7.3080 C   0  0  0  0  0  0  0  0  0  0  0  0
   -0.9530  -34.5800   -6.4300 O   0  0  0  0  0  0  0  0  0  0  0  0
   -1.4280  -34.7360   -5.0970 C   0  0  0  0  0  0  0  0  0  0  0  0
   -1.4480  -36.9080   -6.9430 C   0  0  0  0  0  0  0  0  0  0  0  0
   -1.6390  -37.8770   -7.9210 C   0  0  0  0  0  0  0  0  0  0  0  0
   -1.5260  -37.5290   -9.2610 C   0  0  0  0  0  0  0  0  0  0  0  0
   -1.2460  -36.2270   -9.6320 C   0  0  0  0  0  0  0  0  0  0  0  0
   -2.0050  -39.2580   -7.5140 C   0  0  0  0  0  0  0  0  0  0  0  0
   -2.3930  -39.6700   -6.2300 C   0  0  0  0  0  0  0  0  0  0  0  0
   -2.6720  -40.9600   -6.1880 N   0  0  0  0  0  0  0  0  0  0  0  0
   -2.4650  -41.3840   -7.4440 N   0  0  0  0  0  0  0  0  0  0  0  0
   -2.6830  -42.7860   -7.7730 C   0  0  0  0  0  0  0  0  0  0  0  0
   -2.0660  -40.4050   -8.2650 C   0  0  0  0  0  0  0  0  0  0  0  0
    1.0747  -38.9285  -10.6180 H   0  0  0  0  0  0  0  0  0  0  0  0
    0.0283  -39.3951  -12.0015 H   0  0  0  0  0  0  0  0  0  0  0  0
    1.7686  -39.8402  -12.0015 H   0  0  0  0  0  0  0  0  0  0  0  0
    1.3209  -36.3522  -10.7607 H   0  0  0  0  0  0  0  0  0  0  0  0
    2.0617  -36.1697  -14.9855 H   0  0  0  0  0  0  0  0  0  0  0  0
    3.4247  -31.9612  -14.5092 H   0  0  0  0  0  0  0  0  0  0  0  0
    2.4133  -30.4724  -12.8644 H   0  0  0  0  0  0  0  0  0  0  0  0
    0.8512  -30.3078  -10.7611 H   0  0  0  0  0  0  0  0  0  0  0  0
   -1.3495  -33.2516   -8.3642 H   0  0  0  0  0  0  0  0  0  0  0  0
   -0.6278  -34.4732   -4.3895 H   0  0  0  0  0  0  0  0  0  0  0  0
   -2.2919  -34.0744   -4.9358 H   0  0  0  0  0  0  0  0  0  0  0  0
   -1.7314  -35.7810   -4.9358 H   0  0  0  0  0  0  0  0  0  0  0  0
   -1.5197  -37.1782   -5.8791 H   0  0  0  0  0  0  0  0  0  0  0  0
   -1.6608  -38.2981  -10.0358 H   0  0  0  0  0  0  0  0  0  0  0  0
   -1.1593  -35.9646  -10.6967 H   0  0  0  0  0  0  0  0  0  0  0  0
   -2.4571  -38.9981   -5.3614 H   0  0  0  0  0  0  0  0  0  0  0  0
   -2.7739  -43.3704   -6.8455 H   0  0  0  0  0  0  0  0  0  0  0  0
   -3.6074  -42.8852   -8.3610 H   0  0  0  0  0  0  0  0  0  0  0  0
   -1.8324  -43.1612   -8.3610 H   0  0  0  0  0  0  0  0  0  0  0  0
   -1.8320  -40.5013   -9.3355 H   0  0  0  0  0  0  0  0  0  0  0  0
  5  4  2  0
  5  6  1  0
  9  8  2  0
  9 10  1  0
  4  2  1  0
  8  7  1  0
  6  7  1  0
  6  3  2  0
 10 11  2  0
  7 12  2  0
  2  3  1  0
  2  1  1  0
 11 12  1  0
 11 16  1  0
 12 13  1  0
 13 14  2  0
 16 15  2  0
 14 15  1  0
 14 17  1  0
 25 24  2  0
 25 18  1  0
 24 23  1  0
 17 18  1  0
 18 19  2  0
 31 26  2  0
 31 29  1  0
 23 26  1  0
 23 22  2  0
 30 29  1  0
 26 27  1  0
 29 28  1  0
 19 22  1  0
 19 20  1  0
 20 21  1  0
 27 28  2  0
  1 32  1  0
  1 33  1  0
  1 34  1  0
  3 35  1  0
  5 36  1  0
  9 37  1  0
 10 38  1  0
 16 39  1  0
 17 40  1  0
 21 41  1  0
 21 42  1  0
 21 43  1  0
 22 44  1  0
 24 45  1  0
 25 46  1  0
 27 47  1  0
 30 48  1  0
 30 49  1  0
 30 50  1  0
 31 51  1  0
A    1
C21
A    2
N6
A    3
C19
A    4
N7
A    5
C20
A    6
C18
A    7
C17
A    8
N5
A    9
C16
A   10
C15
A   11
C1
A   12
C
A   13
N1
A   14
C3
A   15
N
A   16
C2
A   17
N2
A   18
C4
A   19
C9
A   20
O
A   21
C10
A   22
C8
A   23
C7
A   24
C6
A   25
C5
A   26
C11
A   27
C13
A   28
N4
A   29
N3
A   30
C14
A   31
C12
M  END
