5EIE_TZ2_A_605
     RDKit          3D

 37 39  0  0  0  0  0  0  0  0999 V2000
   31.0140   19.2570   11.2360 N   0  0  0  0  0  0  0  0  0  0  0  0
   31.3810   20.0630   12.2100 N   0  0  0  0  0  0  0  0  0  0  0  0
   30.6500   21.0020   12.5750 N   0  0  0  0  0  0  0  0  0  0  0  0
   31.1470   21.8580   13.6430 C   0  0  0  0  0  0  0  0  0  0  0  0
   30.2140   23.0520   13.7280 C   0  0  0  0  0  0  0  0  0  0  0  0
   29.2560   22.8650   14.8030 N   0  0  0  0  0  0  0  0  0  0  0  0
   28.0470   22.3070   14.5450 C   0  0  0  0  0  0  0  0  0  0  0  0
   27.7080   20.9510   15.0590 C   0  0  0  0  0  0  0  0  0  0  0  0
   28.6850   20.1600   15.9220 C   0  0  0  0  0  0  0  0  0  0  0  0
   27.9410   19.0780   16.7200 C   0  0  0  0  0  0  0  0  0  0  0  0
   27.1530   18.1960   15.7470 C   0  0  0  0  0  0  0  0  0  0  0  0
   25.9640   18.9830   15.1800 C   0  0  0  0  0  0  0  0  0  0  0  0
   26.3710   20.3820   14.7160 C   0  0  0  0  0  0  0  0  0  0  0  0
   25.4800   21.1160   13.9920 N   0  0  0  0  0  0  0  0  0  0  0  0
   25.7180   22.3470   13.4900 C   0  0  0  0  0  0  0  0  0  0  0  0
   27.0030   23.0390   13.7560 C   0  0  0  0  0  0  0  0  0  0  0  0
   24.7130   23.0220   12.7920 C   0  0  0  0  0  0  0  0  0  0  0  0
   24.9110   24.3300   12.3530 C   0  0  0  0  0  0  0  0  0  0  0  0
   26.1090   25.0000   12.6370 C   0  0  0  0  0  0  0  0  0  0  0  0
   27.1650   24.3660   13.3010 C   0  0  0  0  0  0  0  0  0  0  0  0
   31.1467   21.3101   14.5968 H   0  0  0  0  0  0  0  0  0  0  0  0
   32.1785   22.1807   13.4384 H   0  0  0  0  0  0  0  0  0  0  0  0
   30.8034   23.9606   13.9207 H   0  0  0  0  0  0  0  0  0  0  0  0
   29.6707   23.1511   12.7767 H   0  0  0  0  0  0  0  0  0  0  0  0
   29.4946   23.1562   15.7617 H   0  0  0  0  0  0  0  0  0  0  0  0
   29.1874   20.8448   16.6211 H   0  0  0  0  0  0  0  0  0  0  0  0
   29.4259   19.6754   15.2691 H   0  0  0  0  0  0  0  0  0  0  0  0
   28.6664   18.4621   17.2717 H   0  0  0  0  0  0  0  0  0  0  0  0
   27.2519   19.5508   17.4353 H   0  0  0  0  0  0  0  0  0  0  0  0
   27.8107   17.8834   14.9226 H   0  0  0  0  0  0  0  0  0  0  0  0
   26.7808   17.3089   16.2803 H   0  0  0  0  0  0  0  0  0  0  0  0
   25.5494   18.4315   14.3233 H   0  0  0  0  0  0  0  0  0  0  0  0
   25.2180   19.0946   15.9807 H   0  0  0  0  0  0  0  0  0  0  0  0
   23.7576   22.5168   12.5873 H   0  0  0  0  0  0  0  0  0  0  0  0
   24.1222   24.8396   11.7801 H   0  0  0  0  0  0  0  0  0  0  0  0
   26.2218   26.0503   12.3303 H   0  0  0  0  0  0  0  0  0  0  0  0
   28.1138   24.8971   13.4673 H   0  0  0  0  0  0  0  0  0  0  0  0
 10  9  1  0
 10 11  1  0
  9  8  1  0
 11 12  1  0
  4  3  1  0
  4  5  1  0
  6  5  1  0
  6  7  1  0
  8  7  2  0
  8 13  1  0
  3  2  2  3
  2  1  2  0
 12 13  1  0
  7 16  1  0
 13 14  2  0
 16 20  2  0
 16 15  1  0
 14 15  1  0
 20 19  1  0
 15 17  2  0
 19 18  2  0
 17 18  1  0
  4 21  1  0
  4 22  1  0
  5 23  1  0
  5 24  1  0
  6 25  1  0
  9 26  1  0
  9 27  1  0
 10 28  1  0
 10 29  1  0
 11 30  1  0
 11 31  1  0
 12 32  1  0
 12 33  1  0
 17 34  1  0
 18 35  1  0
 19 36  1  0
 20 37  1  0
M  CHG  2   1  -1   2   1
A    1
N20
A    2
N19
A    3
N18
A    4
C28
A    5
C29
A    6
N7
A    7
C30
A    8
C39
A    9
C40
A   10
C41
A   11
C42
A   12
C38
A   13
C37
A   14
N8
A   15
C33
A   16
C31
A   17
C34
A   18
C35
A   19
C36
A   20
C32
M  END
