5EIH_PZ5_A_902
     RDKit          3D

 55 58  0  0  0  0  0  0  0  0999 V2000
   43.2970   22.4630    0.2980 C   0  0  0  0  0  0  0  0  0  0  0  0
   42.3670   22.2630    1.1570 C   0  0  0  0  0  0  0  0  0  0  0  0
   41.2990   22.0080    2.1430 C   0  0  0  0  0  0  0  0  0  0  0  0
   40.0850   22.9230    1.9430 C   0  0  0  0  0  0  0  0  0  0  0  0
   38.9210   22.6210    2.9020 C   0  0  0  0  0  0  0  0  0  0  0  0
   39.1520   23.0720    4.3550 C   0  0  0  0  0  0  0  0  0  0  0  0
   38.7350   24.5230    4.6170 C   0  0  0  0  0  0  0  0  0  0  0  0
   39.2540   25.1180    5.8840 N   0  0  0  0  0  0  0  0  0  0  0  0
   40.5070   25.8430    5.8730 C   0  0  0  0  0  0  0  0  0  0  0  0
   41.4150   25.8690    4.6640 C   0  0  0  0  0  0  0  0  0  0  0  0
   41.3180   26.8860    3.6980 C   0  0  0  0  0  0  0  0  0  0  0  0
   42.1870   26.9010    2.5920 C   0  0  0  0  0  0  0  0  0  0  0  0
   43.1710   25.9090    2.4440 C   0  0  0  0  0  0  0  0  0  0  0  0
   43.2820   24.8950    3.4010 C   0  0  0  0  0  0  0  0  0  0  0  0
   42.4080   24.8810    4.5050 C   0  0  0  0  0  0  0  0  0  0  0  0
   40.9720   26.5430    7.1290 C   0  0  0  0  0  0  0  0  0  0  0  0
   40.1070   26.5220    8.3580 C   0  0  0  0  0  0  0  0  0  0  0  0
   40.5520   27.1260    9.5400 C   0  0  0  0  0  0  0  0  0  0  0  0
   41.8090   27.7410    9.5650 C   0  0  0  0  0  0  0  0  0  0  0  0
   42.6280   27.7780    8.4230 C   0  0  0  0  0  0  0  0  0  0  0  0
   43.7960   28.4620    8.4790 N   0  0  0  0  0  0  0  0  0  0  0  0
   42.2220   27.1810    7.2160 C   0  0  0  0  0  0  0  0  0  0  0  0
   38.8000   25.8100    8.2850 C   0  0  0  0  0  0  0  0  0  0  0  0
   38.4360   25.1250    6.9910 C   0  0  0  0  0  0  0  0  0  0  0  0
   37.9500   25.7260    9.4040 C   0  0  0  0  0  0  0  0  0  0  0  0
   36.7430   25.0340    9.3150 C   0  0  0  0  0  0  0  0  0  0  0  0
   36.3930   24.3900    8.1170 C   0  0  0  0  0  0  0  0  0  0  0  0
   35.2660   23.6450    8.0220 N   0  0  0  0  0  0  0  0  0  0  0  0
   37.1950   24.4740    6.9760 C   0  0  0  0  0  0  0  0  0  0  0  0
   44.0952   22.6346   -0.4392 H   0  0  0  0  0  0  0  0  0  0  0  0
   40.9722   20.9621    2.0466 H   0  0  0  0  0  0  0  0  0  0  0  0
   41.7108   22.2124    3.1423 H   0  0  0  0  0  0  0  0  0  0  0  0
   40.4043   23.9637    2.1007 H   0  0  0  0  0  0  0  0  0  0  0  0
   39.7148   22.7489    0.9219 H   0  0  0  0  0  0  0  0  0  0  0  0
   38.0235   23.1318    2.5232 H   0  0  0  0  0  0  0  0  0  0  0  0
   38.8166   21.5263    2.9291 H   0  0  0  0  0  0  0  0  0  0  0  0
   38.5701   22.4168    5.0199 H   0  0  0  0  0  0  0  0  0  0  0  0
   40.2331   23.0058    4.5469 H   0  0  0  0  0  0  0  0  0  0  0  0
   39.0979   25.1372    3.7797 H   0  0  0  0  0  0  0  0  0  0  0  0
   37.6393   24.5115    4.7133 H   0  0  0  0  0  0  0  0  0  0  0  0
   40.5585   27.6741    3.8077 H   0  0  0  0  0  0  0  0  0  0  0  0
   42.0955   27.6957    1.8369 H   0  0  0  0  0  0  0  0  0  0  0  0
   43.8509   25.9297    1.5795 H   0  0  0  0  0  0  0  0  0  0  0  0
   44.0477   24.1129    3.2918 H   0  0  0  0  0  0  0  0  0  0  0  0
   42.5018   24.0842    5.2575 H   0  0  0  0  0  0  0  0  0  0  0  0
   39.9199   27.1173   10.4402 H   0  0  0  0  0  0  0  0  0  0  0  0
   42.1633   28.2049   10.4973 H   0  0  0  0  0  0  0  0  0  0  0  0
   44.2082   28.7034    9.3915 H   0  0  0  0  0  0  0  0  0  0  0  0
   44.2718   28.7407    7.6090 H   0  0  0  0  0  0  0  0  0  0  0  0
   42.8839   27.2133    6.3380 H   0  0  0  0  0  0  0  0  0  0  0  0
   38.2386   26.2071   10.3501 H   0  0  0  0  0  0  0  0  0  0  0  0
   36.0663   24.9925   10.1812 H   0  0  0  0  0  0  0  0  0  0  0  0
   34.7852   23.3272    8.8757 H   0  0  0  0  0  0  0  0  0  0  0  0
   34.8896   23.3962    7.0961 H   0  0  0  0  0  0  0  0  0  0  0  0
   36.8425   24.0164    6.0398 H   0  0  0  0  0  0  0  0  0  0  0  0
  1  2  3  0
  2  3  1  0
  4  3  1  0
  4  5  1  0
 13 12  1  0
 13 14  2  0
 12 11  2  0
  5  6  1  0
 14 15  1  0
 11 10  1  0
  6  7  1  0
 15 10  2  0
  7  8  1  0
 10  9  1  0
  9  8  2  0
  9 16  1  0
  8 24  1  0
 29 24  2  0
 29 27  1  0
 24 23  1  0
 16 22  2  0
 16 17  1  0
 22 20  1  0
 28 27  1  0
 27 26  2  0
 23 17  1  0
 23 25  2  0
 17 18  2  0
 20 21  1  0
 20 19  2  0
 26 25  1  0
 18 19  1  0
  1 30  1  0
  3 31  1  0
  3 32  1  0
  4 33  1  0
  4 34  1  0
  5 35  1  0
  5 36  1  0
  6 37  1  0
  6 38  1  0
  7 39  1  0
  7 40  1  0
 11 41  1  0
 12 42  1  0
 13 43  1  0
 14 44  1  0
 15 45  1  0
 18 46  1  0
 19 47  1  0
 21 48  1  0
 21 49  1  0
 22 50  1  0
 25 51  1  0
 26 52  1  0
 28 53  1  0
 28 54  1  0
 29 55  1  0
M  CHG  1   8   1
A    1
C29
A    2
C28
A    3
C27
A    4
C26
A    5
C25
A    6
C21
A    7
C20
A    8
N2
A    9
C7
A   10
C8
A   11
C13
A   12
C12
A   13
C11
A   14
C10
A   15
C9
A   16
C14
A   17
C16
A   18
C17
A   19
C18
A   20
C19
A   21
N3
A   22
C15
A   23
C4
A   24
C6
A   25
C3
A   26
C2
A   27
C1
A   28
N1
A   29
C5
M  END
