2X0V_X0V_B_1290
     RDKit          3D

 19 19  0  0  0  0  0  0  0  0999 V2000
  125.0250   99.5760  -47.4650 C   0  0  0  0  0  0  0  0  0  0  0  0
  124.0340   99.6280  -48.6020 C   0  0  0  0  0  0  0  0  0  0  0  0
  123.0450  100.8170  -50.4300 C   0  0  0  0  0  0  0  0  0  0  0  0
  123.9630  100.7580  -49.3970 C   0  0  0  0  0  0  0  0  0  0  0  0
  122.1860   99.7440  -50.6620 C   0  0  0  0  0  0  0  0  0  0  0  0
  123.1830   98.5590  -48.8300 C   0  0  0  0  0  0  0  0  0  0  0  0
  124.3060   99.6670  -46.2680 F   0  0  0  0  0  0  0  0  0  0  0  0
  125.7440   98.3780  -47.5100 F   0  0  0  0  0  0  0  0  0  0  0  0
  125.9220  100.6460  -47.5500 F   0  0  0  0  0  0  0  0  0  0  0  0
  122.2570   98.6120  -49.8580 C   0  0  0  0  0  0  0  0  0  0  0  0
  122.9800  101.9580  -51.2420 N   0  0  0  0  0  0  0  0  0  0  0  0
  121.2530   99.8150  -51.7040 N   0  0  0  0  0  0  0  0  0  0  0  0
  124.6353  101.6079  -49.2080 H   0  0  0  0  0  0  0  0  0  0  0  0
  123.2431   97.6649  -48.1921 H   0  0  0  0  0  0  0  0  0  0  0  0
  121.5811   97.7630  -50.0376 H   0  0  0  0  0  0  0  0  0  0  0  0
  122.9267  102.8930  -50.8131 H   0  0  0  0  0  0  0  0  0  0  0  0
  122.9855  101.8613  -52.2674 H   0  0  0  0  0  0  0  0  0  0  0  0
  120.2481   99.8915  -51.4912 H   0  0  0  0  0  0  0  0  0  0  0  0
  121.5717   99.7907  -52.6832 H   0  0  0  0  0  0  0  0  0  0  0  0
  1  2  1  0
  1  7  1  0
  1  8  1  0
  1  9  1  0
  2  4  2  0
  2  6  1  0
  3  4  1  0
  3  5  2  0
  3 11  1  0
  5 10  1  0
  5 12  1  0
  6 10  2  0
  4 13  1  0
  6 14  1  0
 10 15  1  0
 11 16  1  0
 11 17  1  0
 12 18  1  0
 12 19  1  0
A    1
C1
A    2
C2
A    3
C3
A    4
C4
A    5
C6
A    6
C7
A    7
F1
A    8
F2
A    9
F3
A   10
C8
A   11
N1
A   12
N2
M  END
