1PQC_444_A_1500
     RDKit          3D

 43 44  0  0  0  0  0  0  0  0999 V2000
  -12.9030   32.5200   41.9080 O   0  0  0  0  0  0  0  0  0  0  0  0
  -11.7140   32.2680   41.1740 S   0  0  0  0  0  0  0  0  0  0  0  0
  -11.2330   30.9450   41.5000 O   0  0  0  0  0  0  0  0  0  0  0  0
  -12.3070   32.2400   39.5010 C   0  0  0  0  0  0  0  0  0  0  0  0
  -11.7620   31.3120   38.5460 C   0  0  0  0  0  0  0  0  0  0  0  0
  -12.2240   31.3000   37.2090 C   0  0  0  0  0  0  0  0  0  0  0  0
  -13.2240   32.2130   36.8270 C   0  0  0  0  0  0  0  0  0  0  0  0
  -13.7490   33.1390   37.7830 C   0  0  0  0  0  0  0  0  0  0  0  0
  -13.2960   33.1640   39.1290 C   0  0  0  0  0  0  0  0  0  0  0  0
  -10.4330   33.5360   41.2050 N   0  0  0  0  0  0  0  0  0  0  0  0
   -9.2920   33.2720   40.2260 C   0  0  0  0  0  0  0  0  0  0  0  0
   -7.9830   33.6200   40.8420 C   0  0  0  0  0  0  0  0  0  0  0  0
   -7.0290   33.1160   40.0450 F   0  0  0  0  0  0  0  0  0  0  0  0
   -7.8180   33.1670   42.0910 F   0  0  0  0  0  0  0  0  0  0  0  0
   -7.8320   34.9230   40.9560 F   0  0  0  0  0  0  0  0  0  0  0  0
  -10.8350   34.9820   41.1850 C   0  0  0  0  0  0  0  0  0  0  0  0
  -10.9650   35.6720   42.3970 C   0  0  0  0  0  0  0  0  0  0  0  0
  -11.3790   37.0200   42.4580 C   0  0  0  0  0  0  0  0  0  0  0  0
  -11.1600   35.7250   40.0000 C   0  0  0  0  0  0  0  0  0  0  0  0
  -11.5810   37.0740   40.0530 C   0  0  0  0  0  0  0  0  0  0  0  0
  -11.6930   37.7790   41.2890 C   0  0  0  0  0  0  0  0  0  0  0  0
  -12.1900   39.2470   41.4800 C   0  0  0  0  0  0  0  0  0  0  0  0
  -11.5510   40.2410   40.5020 C   0  0  0  0  0  0  0  0  0  0  0  0
  -11.9670   41.5100   40.7690 F   0  0  0  0  0  0  0  0  0  0  0  0
  -10.2180   40.1500   40.5930 F   0  0  0  0  0  0  0  0  0  0  0  0
  -11.8190   39.9740   39.2150 F   0  0  0  0  0  0  0  0  0  0  0  0
  -11.9930   39.7830   42.8230 O   0  0  0  0  0  0  0  0  0  0  0  0
  -13.7280   39.2350   41.1630 C   0  0  0  0  0  0  0  0  0  0  0  0
  -14.0060   38.7640   39.9130 F   0  0  0  0  0  0  0  0  0  0  0  0
  -14.3730   38.3940   42.0180 F   0  0  0  0  0  0  0  0  0  0  0  0
  -14.3970   40.4110   41.2320 F   0  0  0  0  0  0  0  0  0  0  0  0
  -10.9790   30.6054   38.8584 H   0  0  0  0  0  0  0  0  0  0  0  0
  -11.8083   30.5887   36.4801 H   0  0  0  0  0  0  0  0  0  0  0  0
  -13.6020   32.2149   35.7940 H   0  0  0  0  0  0  0  0  0  0  0  0
  -14.5251   33.8515   37.4668 H   0  0  0  0  0  0  0  0  0  0  0  0
  -13.7058   33.8822   39.8544 H   0  0  0  0  0  0  0  0  0  0  0  0
   -9.2905   32.2069   39.9511 H   0  0  0  0  0  0  0  0  0  0  0  0
   -9.4403   33.8953   39.3318 H   0  0  0  0  0  0  0  0  0  0  0  0
  -10.7363   35.1445   43.3348 H   0  0  0  0  0  0  0  0  0  0  0  0
  -11.4630   37.5042   43.4421 H   0  0  0  0  0  0  0  0  0  0  0  0
  -11.0790   35.2298   39.0211 H   0  0  0  0  0  0  0  0  0  0  0  0
  -11.8289   37.5942   39.1160 H   0  0  0  0  0  0  0  0  0  0  0  0
  -12.2448   39.0980   43.4919 H   0  0  0  0  0  0  0  0  0  0  0  0
  1  2  2  0
  2  3  2  0
  2  4  1  0
  2 10  1  0
  4  5  2  0
  4  9  1  0
  5  6  1  0
  6  7  2  0
  7  8  1  0
  8  9  2  0
 10 11  1  0
 10 16  1  0
 11 12  1  0
 12 13  1  0
 12 14  1  0
 12 15  1  0
 16 17  2  0
 16 19  1  0
 17 18  1  0
 18 21  2  0
 19 20  2  0
 20 21  1  0
 21 22  1  0
 22 23  1  0
 22 27  1  0
 22 28  1  0
 23 24  1  0
 23 25  1  0
 23 26  1  0
 28 29  1  0
 28 30  1  0
 28 31  1  0
  5 32  1  0
  6 33  1  0
  7 34  1  0
  8 35  1  0
  9 36  1  0
 11 37  1  0
 11 38  1  0
 17 39  1  0
 18 40  1  0
 19 41  1  0
 20 42  1  0
 27 43  1  0
A    1
O13
A    2
S12
A    3
O14
A    4
C01
A    5
C02
A    6
C03
A    7
C04
A    8
C05
A    9
C06
A   10
N15
A   11
C16
A   12
C19
A   13
F22
A   14
F21
A   15
F20
A   16
C23
A   17
C24
A   18
C25
A   19
C28
A   20
C27
A   21
C26
A   22
C33
A   23
C34
A   24
F36
A   25
F37
A   26
F35
A   27
O42
A   28
C38
A   29
F39
A   30
F40
A   31
F41
M  END
