5EK3_5PK_A_502
     RDKit          3D

 43 46  0  0  0  0  0  0  0  0999 V2000
   25.7880   -4.0090   25.7720 C   0  0  0  0  0  0  0  0  0  0  0  0
   26.1480   -4.7290   27.0650 C   0  0  0  0  0  0  0  0  0  0  0  0
   26.1660   -6.2290   26.7950 C   0  0  0  0  0  0  0  0  0  0  0  0
   27.1830   -6.5630   25.7320 C   0  0  0  0  0  0  0  0  0  0  0  0
   26.8260   -5.8300   24.4460 C   0  0  0  0  0  0  0  0  0  0  0  0
   26.8250   -4.3250   24.6990 C   0  0  0  0  0  0  0  0  0  0  0  0
   26.4650   -3.6070   23.3950 C   0  0  0  0  0  0  0  0  0  0  0  0
   25.1880   -4.0470   22.9410 O   0  0  0  0  0  0  0  0  0  0  0  0
   27.5900   -3.8980   22.3850 C   0  0  0  0  0  0  0  0  0  0  0  0
   27.3460   -3.3340   20.9630 C   0  0  0  0  0  0  0  0  0  0  0  0
   28.4360   -3.3160   20.1060 C   0  0  0  0  0  0  0  0  0  0  0  0
   29.6680   -2.8600   20.2850 C   0  0  0  0  0  0  0  0  0  0  0  0
   30.5770   -2.9290   19.2400 C   0  0  0  0  0  0  0  0  0  0  0  0
   30.1760   -3.4550   18.0180 C   0  0  0  0  0  0  0  0  0  0  0  0
   28.8710   -3.8980   17.8890 C   0  0  0  0  0  0  0  0  0  0  0  0
   28.0340   -3.7900   18.9180 C   0  0  0  0  0  0  0  0  0  0  0  0
   26.7700   -4.1880   18.9920 C   0  0  0  0  0  0  0  0  0  0  0  0
   26.2480   -3.9020   20.1940 N   0  0  0  0  0  0  0  0  0  0  0  0
   25.0120   -4.3670   20.2190 C   0  0  0  0  0  0  0  0  0  0  0  0
   24.7640   -4.8330   19.0030 N   0  0  0  0  0  0  0  0  0  0  0  0
   25.8280   -4.7210   18.2350 C   0  0  0  0  0  0  0  0  0  0  0  0
   25.7674   -2.9240   25.9517 H   0  0  0  0  0  0  0  0  0  0  0  0
   24.7982   -4.3470   25.4314 H   0  0  0  0  0  0  0  0  0  0  0  0
   27.1407   -4.4018   27.4078 H   0  0  0  0  0  0  0  0  0  0  0  0
   25.4081   -4.4955   27.8448 H   0  0  0  0  0  0  0  0  0  0  0  0
   25.1695   -6.5475   26.4552 H   0  0  0  0  0  0  0  0  0  0  0  0
   26.4363   -6.7540   27.7231 H   0  0  0  0  0  0  0  0  0  0  0  0
   27.1809   -7.6477   25.5494 H   0  0  0  0  0  0  0  0  0  0  0  0
   28.1831   -6.2518   26.0681 H   0  0  0  0  0  0  0  0  0  0  0  0
   25.8273   -6.1455   24.1098 H   0  0  0  0  0  0  0  0  0  0  0  0
   27.5681   -6.0699   23.6703 H   0  0  0  0  0  0  0  0  0  0  0  0
   27.8157   -3.9889   25.0390 H   0  0  0  0  0  0  0  0  0  0  0  0
   26.3866   -2.5186   23.5337 H   0  0  0  0  0  0  0  0  0  0  0  0
   24.6111   -4.2458   23.7206 H   0  0  0  0  0  0  0  0  0  0  0  0
   27.7052   -4.9891   22.3056 H   0  0  0  0  0  0  0  0  0  0  0  0
   28.4895   -3.3942   22.7686 H   0  0  0  0  0  0  0  0  0  0  0  0
   27.0851   -2.3127   21.2775 H   0  0  0  0  0  0  0  0  0  0  0  0
   29.9662   -2.4311   21.2530 H   0  0  0  0  0  0  0  0  0  0  0  0
   31.6077   -2.5701   19.3774 H   0  0  0  0  0  0  0  0  0  0  0  0
   30.8784   -3.5178   17.1738 H   0  0  0  0  0  0  0  0  0  0  0  0
   28.5275   -4.3371   16.9407 H   0  0  0  0  0  0  0  0  0  0  0  0
   24.3250   -4.3675   21.0781 H   0  0  0  0  0  0  0  0  0  0  0  0
   25.9146   -5.0122   17.1778 H   0  0  0  0  0  0  0  0  0  0  0  0
 15 14  2  0
 15 16  1  0
 14 13  1  0
 21 17  2  0
 21 20  1  0
 16 17  1  0
 16 11  2  0
 17 18  1  0
 20 19  2  0
 13 12  2  0
 11 12  1  0
 11 10  1  0
 18 19  1  0
 18 10  1  0
 10  9  1  0
  9  7  1  0
  8  7  1  0
  7  6  1  0
  5  6  1  0
  5  4  1  0
  6  1  1  0
  4  3  1  0
  1  2  1  0
  3  2  1  0
  1 22  1  0
  1 23  1  0
  2 24  1  0
  2 25  1  0
  3 26  1  0
  3 27  1  0
  4 28  1  0
  4 29  1  0
  5 30  1  0
  5 31  1  0
  6 32  1  0
  7 33  1  0
  8 34  1  0
  9 35  1  0
  9 36  1  0
 10 37  1  0
 12 38  1  0
 13 39  1  0
 14 40  1  0
 15 41  1  0
 19 42  1  0
 21 43  1  0
A    1
CAA
A    2
CAF
A    3
CAE
A    4
CAD
A    5
CAC
A    6
CAB
A    7
CAG
A    8
OAI
A    9
CAH
A   10
CAJ
A   11
CAK
A   12
CAR
A   13
CAS
A   14
CAT
A   15
CAU
A   16
CAL
A   17
CAM
A   18
NAN
A   19
CAQ
A   20
NAP
A   21
CAO
M  END
