5EK4_5PF_A_502
     RDKit          3D

 43 46  0  0  0  0  0  0  0  0999 V2000
   17.0820    3.6760   25.5870 C   0  0  0  0  0  0  0  0  0  0  0  0
   16.7270    4.3100   26.9200 C   0  0  0  0  0  0  0  0  0  0  0  0
   16.7440    5.8180   26.7510 C   0  0  0  0  0  0  0  0  0  0  0  0
   15.7430    6.2400   25.7050 C   0  0  0  0  0  0  0  0  0  0  0  0
   16.0940    5.5860   24.3720 C   0  0  0  0  0  0  0  0  0  0  0  0
   16.0630    4.0780   24.5150 C   0  0  0  0  0  0  0  0  0  0  0  0
   16.4200    3.4400   23.1560 C   0  0  0  0  0  0  0  0  0  0  0  0
   17.6720    3.9610   22.7060 O   0  0  0  0  0  0  0  0  0  0  0  0
   15.3110    3.7470   22.1370 C   0  0  0  0  0  0  0  0  0  0  0  0
   15.5720    3.2070   20.6950 C   0  0  0  0  0  0  0  0  0  0  0  0
   14.4600    3.2160   19.8610 C   0  0  0  0  0  0  0  0  0  0  0  0
   13.2190    2.7340   20.0360 C   0  0  0  0  0  0  0  0  0  0  0  0
   12.8520    2.1220   21.2270 F   0  0  0  0  0  0  0  0  0  0  0  0
   12.2840    2.8640   19.0260 C   0  0  0  0  0  0  0  0  0  0  0  0
   12.6730    3.4810   17.8450 C   0  0  0  0  0  0  0  0  0  0  0  0
   13.9770    3.9370   17.7050 C   0  0  0  0  0  0  0  0  0  0  0  0
   14.8510    3.7720   18.6980 C   0  0  0  0  0  0  0  0  0  0  0  0
   16.1320    4.1660   18.7590 C   0  0  0  0  0  0  0  0  0  0  0  0
   16.6870    3.8140   19.9280 N   0  0  0  0  0  0  0  0  0  0  0  0
   17.9330    4.2880   19.9400 C   0  0  0  0  0  0  0  0  0  0  0  0
   18.1630    4.8110   18.7490 N   0  0  0  0  0  0  0  0  0  0  0  0
   17.0720    4.7470   18.0170 C   0  0  0  0  0  0  0  0  0  0  0  0
   17.0816    2.5813   25.6949 H   0  0  0  0  0  0  0  0  0  0  0  0
   18.0788    4.0256   25.2802 H   0  0  0  0  0  0  0  0  0  0  0  0
   15.7245    3.9822   27.2324 H   0  0  0  0  0  0  0  0  0  0  0  0
   17.4531    4.0070   27.6887 H   0  0  0  0  0  0  0  0  0  0  0  0
   16.4889    6.2933   27.7097 H   0  0  0  0  0  0  0  0  0  0  0  0
   17.7489    6.1303   26.4305 H   0  0  0  0  0  0  0  0  0  0  0  0
   15.7675    7.3341   25.5943 H   0  0  0  0  0  0  0  0  0  0  0  0
   14.7353    5.9252   26.0138 H   0  0  0  0  0  0  0  0  0  0  0  0
   17.1014    5.9028   24.0641 H   0  0  0  0  0  0  0  0  0  0  0  0
   15.3599    5.8935   23.6127 H   0  0  0  0  0  0  0  0  0  0  0  0
   15.0638    3.7296   24.8154 H   0  0  0  0  0  0  0  0  0  0  0  0
   16.5055    2.3487   23.2645 H   0  0  0  0  0  0  0  0  0  0  0  0
   18.2326    4.1943   23.4879 H   0  0  0  0  0  0  0  0  0  0  0  0
   15.1958    4.8393   22.0767 H   0  0  0  0  0  0  0  0  0  0  0  0
   14.4091    3.2321   22.4996 H   0  0  0  0  0  0  0  0  0  0  0  0
   15.8628    2.1789   20.9566 H   0  0  0  0  0  0  0  0  0  0  0  0
   11.2583    2.4882   19.1549 H   0  0  0  0  0  0  0  0  0  0  0  0
   11.9518    3.6081   17.0241 H   0  0  0  0  0  0  0  0  0  0  0  0
   14.2889    4.4344   16.7748 H   0  0  0  0  0  0  0  0  0  0  0  0
   18.6377    4.2506   20.7838 H   0  0  0  0  0  0  0  0  0  0  0  0
   16.9577    5.1067   16.9838 H   0  0  0  0  0  0  0  0  0  0  0  0
 15 16  2  0
 15 14  1  0
 16 17  1  0
 14 12  2  0
 17 18  1  0
 17 11  2  0
 22 18  2  0
 22 21  1  0
 18 19  1  0
 12 11  1  0
 12 13  1  0
 11 10  1  0
 21 20  2  0
 19 10  1  0
 19 20  1  0
 10  9  1  0
  9  7  1  0
  7  8  1  0
  7  6  1  0
  6  1  1  0
  6  5  1  0
  1  2  1  0
  5  4  1  0
  2  3  1  0
  4  3  1  0
  1 23  1  0
  1 24  1  0
  2 25  1  0
  2 26  1  0
  3 27  1  0
  3 28  1  0
  4 29  1  0
  4 30  1  0
  5 31  1  0
  5 32  1  0
  6 33  1  0
  7 34  1  0
  8 35  1  0
  9 36  1  0
  9 37  1  0
 10 38  1  0
 14 39  1  0
 15 40  1  0
 16 41  1  0
 20 42  1  0
 22 43  1  0
A    1
CAB
A    2
CAA
A    3
CAF
A    4
CAE
A    5
CAD
A    6
CAC
A    7
CAG
A    8
OAV
A    9
CAH
A   10
CAI
A   11
CAM
A   12
CAT
A   13
FAU
A   14
CAS
A   15
CAR
A   16
CAQ
A   17
CAL
A   18
CAK
A   19
NAJ
A   20
CAN
A   21
NAO
A   22
CAP
M  END
