5EKN_N58_A_401
     RDKit          3D

 50 52  0  0  0  0  0  0  0  0999 V2000
  -13.2500   12.0370  -26.3670 O   0  0  0  0  0  0  0  0  0  0  0  0
  -14.3090   11.4290  -26.4540 C   0  0  0  0  0  0  0  0  0  0  0  0
  -15.2570   11.6730  -25.3710 N   0  0  0  0  0  0  0  0  0  0  0  0
  -15.0510   12.5400  -24.2230 C   0  0  0  0  0  0  0  0  0  0  0  0
  -14.5850   13.8720  -24.1110 C   0  0  0  0  0  0  0  0  0  0  0  0
  -14.5630   14.2590  -22.7280 C   0  0  0  0  0  0  0  0  0  0  0  0
  -14.1360   15.6140  -22.1310 C   0  0  0  0  0  0  0  0  0  0  0  0
  -12.7110   15.9940  -22.5520 C   0  0  0  0  0  0  0  0  0  0  0  0
  -14.1330   15.6130  -20.5930 C   0  0  0  0  0  0  0  0  0  0  0  0
  -15.0390   16.7750  -22.5760 C   0  0  0  0  0  0  0  0  0  0  0  0
  -15.0130   13.1830  -21.9990 N   0  0  0  0  0  0  0  0  0  0  0  0
  -15.3000   12.1690  -22.8950 N   0  0  0  0  0  0  0  0  0  0  0  0
  -15.8120   10.8440  -22.4810 C   0  0  0  0  0  0  0  0  0  0  0  0
  -14.5300   10.5440  -27.5880 N   0  0  0  0  0  0  0  0  0  0  0  0
  -13.6310   10.2480  -28.7210 C   0  0  0  0  0  0  0  0  0  0  0  0
  -12.2370   10.4220  -28.6940 C   0  0  0  0  0  0  0  0  0  0  0  0
  -11.3830   10.1360  -29.7750 C   0  0  0  0  0  0  0  0  0  0  0  0
  -11.8480    9.6360  -30.9800 C   0  0  0  0  0  0  0  0  0  0  0  0
  -13.2240    9.4510  -31.0580 C   0  0  0  0  0  0  0  0  0  0  0  0
  -14.0790    9.7370  -29.9760 C   0  0  0  0  0  0  0  0  0  0  0  0
  -10.7690    9.2870  -32.3600 S   0  0  0  0  0  0  0  0  0  0  0  0
  -10.5460   10.7720  -33.3400 C   0  0  0  0  0  0  0  0  0  0  0  0
   -9.6480   10.8260  -34.4060 C   0  0  0  0  0  0  0  0  0  0  0  0
   -9.5250   12.0270  -35.1260 C   0  0  0  0  0  0  0  0  0  0  0  0
  -10.2340   13.1460  -34.8420 N   0  0  0  0  0  0  0  0  0  0  0  0
  -11.0980   13.0750  -33.8040 C   0  0  0  0  0  0  0  0  0  0  0  0
  -11.2840   11.9190  -33.0350 C   0  0  0  0  0  0  0  0  0  0  0  0
  -16.1609   11.1823  -25.4259 H   0  0  0  0  0  0  0  0  0  0  0  0
  -14.2857   14.5124  -24.9538 H   0  0  0  0  0  0  0  0  0  0  0  0
  -12.0953   16.1582  -21.6554 H   0  0  0  0  0  0  0  0  0  0  0  0
  -12.2764   15.1804  -23.1513 H   0  0  0  0  0  0  0  0  0  0  0  0
  -12.7393   16.9160  -23.1513 H   0  0  0  0  0  0  0  0  0  0  0  0
  -15.1162   15.9407  -20.2242 H   0  0  0  0  0  0  0  0  0  0  0  0
  -13.9244   14.5967  -20.2274 H   0  0  0  0  0  0  0  0  0  0  0  0
  -13.3563   16.3008  -20.2274 H   0  0  0  0  0  0  0  0  0  0  0  0
  -15.4388   17.2891  -21.6895 H   0  0  0  0  0  0  0  0  0  0  0  0
  -14.4533   17.4849  -23.1785 H   0  0  0  0  0  0  0  0  0  0  0  0
  -15.8712   16.3821  -23.1785 H   0  0  0  0  0  0  0  0  0  0  0  0
  -15.8343   10.7863  -21.3827 H   0  0  0  0  0  0  0  0  0  0  0  0
  -16.8290   10.7040  -22.8762 H   0  0  0  0  0  0  0  0  0  0  0  0
  -15.1534   10.0566  -22.8762 H   0  0  0  0  0  0  0  0  0  0  0  0
  -15.4378   10.0576  -27.6020 H   0  0  0  0  0  0  0  0  0  0  0  0
  -11.7842   10.8065  -27.7682 H   0  0  0  0  0  0  0  0  0  0  0  0
  -10.3042   10.3165  -29.6586 H   0  0  0  0  0  0  0  0  0  0  0  0
  -13.6582    9.0694  -31.9939 H   0  0  0  0  0  0  0  0  0  0  0  0
  -15.1562    9.5557  -30.1059 H   0  0  0  0  0  0  0  0  0  0  0  0
   -9.0475    9.9455  -34.6781 H   0  0  0  0  0  0  0  0  0  0  0  0
   -8.8148   12.0601  -35.9653 H   0  0  0  0  0  0  0  0  0  0  0  0
  -11.6845   13.9705  -33.5507 H   0  0  0  0  0  0  0  0  0  0  0  0
  -12.0019   11.9141  -32.2016 H   0  0  0  0  0  0  0  0  0  0  0  0
 24 25  1  0
 24 23  2  0
 25 26  2  0
 23 22  1  0
 26 27  1  0
 22 27  2  0
 22 21  1  0
 21 18  1  0
 19 18  2  0
 19 20  1  0
 18 17  1  0
 20 15  2  0
 17 16  2  0
 15 16  1  0
 15 14  1  0
 14  2  1  0
  2  1  2  0
  2  3  1  0
  3  4  1  0
  4  5  2  0
  4 12  1  0
  5  6  1  0
 12 13  1  0
 12 11  1  0
  6  7  1  0
  6 11  2  0
  8  7  1  0
 10  7  1  0
  7  9  1  0
  3 28  1  0
  5 29  1  0
  8 30  1  0
  8 31  1  0
  8 32  1  0
  9 33  1  0
  9 34  1  0
  9 35  1  0
 10 36  1  0
 10 37  1  0
 10 38  1  0
 13 39  1  0
 13 40  1  0
 13 41  1  0
 14 42  1  0
 16 43  1  0
 17 44  1  0
 19 45  1  0
 20 46  1  0
 23 47  1  0
 24 48  1  0
 26 49  1  0
 27 50  1  0
A    1
O1
A    2
C9
A    3
N3
A    4
C8
A    5
C7
A    6
C2
A    7
C3
A    8
C6
A    9
C5
A   10
C4
A   11
N2
A   12
N1
A   13
C1
A   14
N4
A   15
C10
A   16
C20
A   17
C19
A   18
C13
A   19
C12
A   20
C11
A   21
S
A   22
C14
A   23
C18
A   24
C17
A   25
N5
A   26
C16
A   27
C15
M  END
