5EKO_N17_A_401
     RDKit          3D

 46 49  0  0  0  0  0  0  0  0999 V2000
  -13.1760   12.4390  -26.4470 O   0  0  0  0  0  0  0  0  0  0  0  0
  -13.9890   11.5510  -26.2600 C   0  0  0  0  0  0  0  0  0  0  0  0
  -14.7970   11.6150  -24.9930 C   0  0  0  0  0  0  0  0  0  0  0  0
  -15.1650   12.8490  -24.4820 C   0  0  0  0  0  0  0  0  0  0  0  0
  -15.9120   12.9100  -23.3160 C   0  0  0  0  0  0  0  0  0  0  0  0
  -16.2840   11.7410  -22.6680 C   0  0  0  0  0  0  0  0  0  0  0  0
  -15.1910   10.4580  -24.3300 C   0  0  0  0  0  0  0  0  0  0  0  0
  -15.9400   10.4770  -23.1450 C   0  0  0  0  0  0  0  0  0  0  0  0
  -16.3010    9.3490  -22.5260 N   0  0  0  0  0  0  0  0  0  0  0  0
  -15.9470    8.1660  -23.0150 C   0  0  0  0  0  0  0  0  0  0  0  0
  -17.0270    9.3230  -21.4020 C   0  0  0  0  0  0  0  0  0  0  0  0
  -17.1590    8.0020  -21.1080 N   0  0  0  0  0  0  0  0  0  0  0  0
  -16.5120    7.3190  -22.0820 C   0  0  0  0  0  0  0  0  0  0  0  0
  -16.2800    5.8610  -22.3650 C   0  0  0  0  0  0  0  0  0  0  0  0
  -14.1980   10.5490  -27.1220 N   0  0  0  0  0  0  0  0  0  0  0  0
  -13.5370   10.3660  -28.3020 C   0  0  0  0  0  0  0  0  0  0  0  0
  -12.1790   10.6470  -28.4470 C   0  0  0  0  0  0  0  0  0  0  0  0
  -11.5250   10.4310  -29.6580 C   0  0  0  0  0  0  0  0  0  0  0  0
  -12.2250    9.9140  -30.7410 C   0  0  0  0  0  0  0  0  0  0  0  0
  -13.5690    9.5960  -30.5980 C   0  0  0  0  0  0  0  0  0  0  0  0
  -14.2190    9.8220  -29.3870 C   0  0  0  0  0  0  0  0  0  0  0  0
  -11.5920    9.6740  -31.9310 O   0  0  0  0  0  0  0  0  0  0  0  0
  -11.1440   10.6670  -32.7590 C   0  0  0  0  0  0  0  0  0  0  0  0
  -11.7210   11.9330  -32.7530 C   0  0  0  0  0  0  0  0  0  0  0  0
  -11.2260   12.9070  -33.6120 C   0  0  0  0  0  0  0  0  0  0  0  0
  -10.2130   12.6260  -34.4470 N   0  0  0  0  0  0  0  0  0  0  0  0
   -9.6440   11.4170  -34.4770 C   0  0  0  0  0  0  0  0  0  0  0  0
  -10.0940   10.4030  -33.6320 C   0  0  0  0  0  0  0  0  0  0  0  0
  -14.8666   13.7736  -24.9978 H   0  0  0  0  0  0  0  0  0  0  0  0
  -16.2100   13.8856  -22.9043 H   0  0  0  0  0  0  0  0  0  0  0  0
  -16.8732   11.8143  -21.7420 H   0  0  0  0  0  0  0  0  0  0  0  0
  -14.9023    9.4849  -24.7539 H   0  0  0  0  0  0  0  0  0  0  0  0
  -15.3636    7.9265  -23.9163 H   0  0  0  0  0  0  0  0  0  0  0  0
  -17.4279   10.1799  -20.8407 H   0  0  0  0  0  0  0  0  0  0  0  0
  -16.1927    5.3125  -21.4155 H   0  0  0  0  0  0  0  0  0  0  0  0
  -17.1257    5.4606  -22.9433 H   0  0  0  0  0  0  0  0  0  0  0  0
  -15.3518    5.7429  -22.9433 H   0  0  0  0  0  0  0  0  0  0  0  0
  -14.9192    9.8568  -26.8738 H   0  0  0  0  0  0  0  0  0  0  0  0
  -11.6147   11.0458  -27.5911 H   0  0  0  0  0  0  0  0  0  0  0  0
  -10.4557   10.6695  -29.7566 H   0  0  0  0  0  0  0  0  0  0  0  0
  -14.1227    9.1638  -31.4445 H   0  0  0  0  0  0  0  0  0  0  0  0
  -15.2844    9.5675  -29.2866 H   0  0  0  0  0  0  0  0  0  0  0  0
  -12.5584   12.1602  -32.0769 H   0  0  0  0  0  0  0  0  0  0  0  0
  -11.6671   13.9147  -33.6077 H   0  0  0  0  0  0  0  0  0  0  0  0
   -8.8151   11.2205  -35.1729 H   0  0  0  0  0  0  0  0  0  0  0  0
   -9.6250    9.4083  -33.6556 H   0  0  0  0  0  0  0  0  0  0  0  0
 27 26  2  0
 27 28  1  0
 26 25  1  0
 25 24  2  0
 28 23  2  0
 24 23  1  0
 23 22  1  0
 22 19  1  0
 19 20  2  0
 19 18  1  0
 20 21  1  0
 18 17  2  0
 21 16  2  0
 17 16  1  0
 16 15  1  0
 15  2  1  0
  1  2  2  0
  2  3  1  0
  3  4  2  0
  3  7  1  0
  4  5  1  0
  7  8  2  0
  5  6  2  0
  8  6  1  0
  8  9  1  0
 10  9  1  0
 10 13  2  0
  9 11  1  0
 14 13  1  0
 13 12  1  0
 11 12  2  0
  4 29  1  0
  5 30  1  0
  6 31  1  0
  7 32  1  0
 10 33  1  0
 11 34  1  0
 14 35  1  0
 14 36  1  0
 14 37  1  0
 15 38  1  0
 17 39  1  0
 18 40  1  0
 20 41  1  0
 21 42  1  0
 24 43  1  0
 25 44  1  0
 27 45  1  0
 28 46  1  0
A    1
O1
A    2
C9
A    3
C8
A    4
C7
A    5
C6
A    6
C5
A    7
C21
A    8
C4
A    9
N1
A   10
C3
A   11
C22
A   12
N4
A   13
C2
A   14
C1
A   15
N2
A   16
C10
A   17
C20
A   18
C19
A   19
C13
A   20
C12
A   21
C11
A   22
O2
A   23
C14
A   24
C18
A   25
C17
A   26
N3
A   27
C16
A   28
C15
M  END
