4MRH_2CQ_A_201
     RDKit          3D

 19 19  0  0  0  0  0  0  0  0999 V2000
    2.5940    4.5330  -11.1050 N   0  0  0  0  0  0  0  0  0  0  0  0
    1.8070    4.1300  -10.1030 C   0  0  0  0  0  0  0  0  0  0  0  0
    1.3590    4.9950   -9.0800 C   0  0  0  0  0  0  0  0  0  0  0  0
    0.5530    4.5210   -8.0170 C   0  0  0  0  0  0  0  0  0  0  0  0
    0.0670    5.3960   -6.9750 C   0  0  0  0  0  0  0  0  0  0  0  0
    0.2380    3.1510   -8.0030 C   0  0  0  0  0  0  0  0  0  0  0  0
   -0.7030    2.4790   -6.7070 Cl  0  0  0  0  0  0  0  0  0  0  0  0
    0.6950    2.2840   -9.0050 C   0  0  0  0  0  0  0  0  0  0  0  0
    1.4800    2.7590  -10.0570 C   0  0  0  0  0  0  0  0  0  0  0  0
    1.9260    1.9390  -11.0410 N   0  0  0  0  0  0  0  0  0  0  0  0
    3.4926    4.9932  -10.9010 H   0  0  0  0  0  0  0  0  0  0  0  0
    2.3020    4.3835  -12.0813 H   0  0  0  0  0  0  0  0  0  0  0  0
    1.6419    6.0576   -9.1099 H   0  0  0  0  0  0  0  0  0  0  0  0
    0.3068    4.9642   -5.9921 H   0  0  0  0  0  0  0  0  0  0  0  0
    0.5472    6.3811   -7.0698 H   0  0  0  0  0  0  0  0  0  0  0  0
   -1.0231    5.5089   -7.0698 H   0  0  0  0  0  0  0  0  0  0  0  0
    0.4320    1.2168   -8.9619 H   0  0  0  0  0  0  0  0  0  0  0  0
    2.4046    1.0591  -10.8007 H   0  0  0  0  0  0  0  0  0  0  0  0
    1.7861    2.1961  -12.0285 H   0  0  0  0  0  0  0  0  0  0  0  0
  1  2  1  0
 10  9  1  0
  2  9  2  0
  2  3  1  0
  9  8  1  0
  3  4  2  0
  8  6  2  0
  4  6  1  0
  4  5  1  0
  6  7  1  0
  1 11  1  0
  1 12  1  0
  3 13  1  0
  5 14  1  0
  5 15  1  0
  5 16  1  0
  8 17  1  0
 10 18  1  0
 10 19  1  0
A    1
NAB
A    2
CAH
A    3
CAE
A    4
CAG
A    5
CAA
A    6
CAJ
A    7
CL
A    8
CAF
A    9
CAI
A   10
NAC
M  END
