5ELY_5PU_A_817
     RDKit          3D

 35 35  0  0  0  0  0  0  0  0999 V2000
   23.1410   46.9490   41.4860 C   0  0  0  0  0  0  0  0  0  0  0  0
   23.8430   46.3120   40.4210 C   0  0  0  0  0  0  0  0  0  0  0  0
   24.3990   45.0650   40.6780 C   0  0  0  0  0  0  0  0  0  0  0  0
   25.2440   44.2830   39.6150 C   0  0  0  0  0  0  0  0  0  0  0  0
   25.3360   44.8170   38.5430 O   0  0  0  0  0  0  0  0  0  0  0  0
   25.8490   43.2300   39.9730 O   0  0  0  0  0  0  0  0  0  0  0  0
   24.3160   44.4760   41.9120 C   0  0  0  0  0  0  0  0  0  0  0  0
   23.6300   45.0700   42.9690 C   0  0  0  0  0  0  0  0  0  0  0  0
   23.0520   46.3170   42.7340 C   0  0  0  0  0  0  0  0  0  0  0  0
   22.3000   46.9600   43.9440 C   0  0  0  0  0  0  0  0  0  0  0  0
   20.7670   47.1240   43.6950 C   0  0  0  0  0  0  0  0  0  0  0  0
   20.1980   47.8770   44.9330 C   0  0  0  0  0  0  0  0  0  0  0  0
   19.8180   47.2020   45.8920 O   0  0  0  0  0  0  0  0  0  0  0  0
   20.3320   49.1060   44.9080 O   0  0  0  0  0  0  0  0  0  0  0  0
   20.1220   45.7300   43.5920 C   0  0  0  0  0  0  0  0  0  0  0  0
   18.6420   45.7430   43.0740 C   0  0  0  0  0  0  0  0  0  0  0  0
   18.0950   44.3070   43.2380 C   0  0  0  0  0  0  0  0  0  0  0  0
   18.5620   43.3280   42.6150 O   0  0  0  0  0  0  0  0  0  0  0  0
   17.0910   44.1830   44.0810 N   0  0  0  0  0  0  0  0  0  0  0  0
   16.6950   42.9370   44.5000 O   0  0  0  0  0  0  0  0  0  0  0  0
   22.6716   47.9314   41.3291 H   0  0  0  0  0  0  0  0  0  0  0  0
   23.9405   46.7891   39.4347 H   0  0  0  0  0  0  0  0  0  0  0  0
   25.9648   43.0285   40.9353 H   0  0  0  0  0  0  0  0  0  0  0  0
   24.8059   43.5044   42.0732 H   0  0  0  0  0  0  0  0  0  0  0  0
   23.5477   44.5758   43.9483 H   0  0  0  0  0  0  0  0  0  0  0  0
   22.4449   46.3197   44.8266 H   0  0  0  0  0  0  0  0  0  0  0  0
   22.7178   47.9666   44.0927 H   0  0  0  0  0  0  0  0  0  0  0  0
   20.5607   47.6754   42.7658 H   0  0  0  0  0  0  0  0  0  0  0  0
   19.9926   47.5122   46.8158 H   0  0  0  0  0  0  0  0  0  0  0  0
   20.1337   45.2698   44.5911 H   0  0  0  0  0  0  0  0  0  0  0  0
   20.7099   45.1635   42.8548 H   0  0  0  0  0  0  0  0  0  0  0  0
   18.6147   46.0393   42.0150 H   0  0  0  0  0  0  0  0  0  0  0  0
   18.0333   46.4628   43.6409 H   0  0  0  0  0  0  0  0  0  0  0  0
   16.6024   45.0214   44.4263 H   0  0  0  0  0  0  0  0  0  0  0  0
   16.6861   42.9090   45.4896 H   0  0  0  0  0  0  0  0  0  0  0  0
  5  4  2  0
  4  6  1  0
  4  3  1  0
  2  3  1  0
  2  1  2  0
  3  7  2  0
  1  9  1  0
  7  8  1  0
 18 17  2  0
  9  8  2  0
  9 10  1  0
 16 17  1  0
 16 15  1  0
 17 19  1  0
 15 11  1  0
 11 10  1  0
 11 12  1  0
 19 20  1  0
 14 12  2  0
 12 13  1  0
  1 21  1  0
  2 22  1  0
  6 23  1  0
  7 24  1  0
  8 25  1  0
 10 26  1  0
 10 27  1  0
 11 28  1  0
 13 29  1  0
 15 30  1  0
 15 31  1  0
 16 32  1  0
 16 33  1  0
 19 34  1  0
 20 35  1  0
A    1
CAG
A    2
CAI
A    3
CAS
A    4
CAO
A    5
OAE
A    6
OAA
A    7
CAJ
A    8
CAH
A    9
CAR
A   10
CAM
A   11
CAT
A   12
CAP
A   13
OAF
A   14
OAB
A   15
CAL
A   16
CAK
A   17
CAQ
A   18
OAC
A   19
NAN
A   20
OAD
M  END
