5EM5_5Q2_A_1101
     RDKit          3D

 61 64  0  0  0  0  0  0  0  0999 V2000
  -53.1760   -0.1460  -15.6080 C   0  0  0  0  0  0  0  0  0  0  0  0
  -50.9400    0.9570  -15.8280 C   0  0  0  0  0  0  0  0  0  0  0  0
  -53.4590    1.4910  -20.2650 C   0  0  0  0  0  0  0  0  0  0  0  0
  -50.7720    0.8490  -14.2950 C   0  0  0  0  0  0  0  0  0  0  0  0
  -52.6830    1.1350  -17.5790 C   0  0  0  0  0  0  0  0  0  0  0  0
  -51.9070    0.5980  -18.6240 C   0  0  0  0  0  0  0  0  0  0  0  0
  -52.2860    0.7820  -19.9530 C   0  0  0  0  0  0  0  0  0  0  0  0
  -54.2340    1.9980  -19.2220 C   0  0  0  0  0  0  0  0  0  0  0  0
  -53.8570    1.8260  -17.9010 C   0  0  0  0  0  0  0  0  0  0  0  0
  -51.6020   -0.2580  -13.7650 N   0  0  0  0  0  0  0  0  0  0  0  0
  -53.0350   -0.1100  -14.0810 C   0  0  0  0  0  0  0  0  0  0  0  0
  -51.3960   -0.4830  -12.3270 C   0  0  0  0  0  0  0  0  0  0  0  0
  -52.3770    0.9530  -16.2090 N   0  0  0  0  0  0  0  0  0  0  0  0
  -53.9660    1.6930  -21.5690 N   0  0  0  0  0  0  0  0  0  0  0  0
  -53.8600    0.8780  -22.6580 C   0  0  0  0  0  0  0  0  0  0  0  0
  -53.2020   -0.1460  -22.5840 O   0  0  0  0  0  0  0  0  0  0  0  0
  -54.5720    1.1990  -23.9260 C   0  0  0  0  0  0  0  0  0  0  0  0
  -54.3120    0.4830  -25.1430 C   0  0  0  0  0  0  0  0  0  0  0  0
  -55.0540    0.8310  -26.3050 C   0  0  0  0  0  0  0  0  0  0  0  0
  -55.9980    1.7960  -26.2800 C   0  0  0  0  0  0  0  0  0  0  0  0
  -56.2650    2.4610  -25.1300 N   0  0  0  0  0  0  0  0  0  0  0  0
  -55.6060    2.2070  -23.9720 C   0  0  0  0  0  0  0  0  0  0  0  0
  -55.9300    2.8740  -22.9960 O   0  0  0  0  0  0  0  0  0  0  0  0
  -53.3470   -0.5210  -25.2040 N   0  0  0  0  0  0  0  0  0  0  0  0
  -53.1530   -1.4860  -26.3050 C   0  0  0  0  0  0  0  0  0  0  0  0
  -51.8700   -1.1600  -27.0840 C   0  0  0  0  0  0  0  0  0  0  0  0
  -52.0730    0.1420  -27.8180 C   0  0  0  0  0  0  0  0  0  0  0  0
  -51.8040    1.3430  -27.1620 C   0  0  0  0  0  0  0  0  0  0  0  0
  -52.0640    2.5580  -27.7690 C   0  0  0  0  0  0  0  0  0  0  0  0
  -52.5450    2.5620  -29.0690 C   0  0  0  0  0  0  0  0  0  0  0  0
  -52.7570    1.3690  -29.7580 C   0  0  0  0  0  0  0  0  0  0  0  0
  -52.5530    0.1490  -29.1250 C   0  0  0  0  0  0  0  0  0  0  0  0
  -52.8310    4.0860  -29.8300 Cl  0  0  0  0  0  0  0  0  0  0  0  0
  -54.2342   -0.0206  -15.8809 H   0  0  0  0  0  0  0  0  0  0  0  0
  -52.8100   -1.1121  -15.9857 H   0  0  0  0  0  0  0  0  0  0  0  0
  -50.4390    0.1021  -16.3057 H   0  0  0  0  0  0  0  0  0  0  0  0
  -50.4916    1.9038  -16.1635 H   0  0  0  0  0  0  0  0  0  0  0  0
  -49.7153    0.6561  -14.0582 H   0  0  0  0  0  0  0  0  0  0  0  0
  -51.0950    1.7929  -13.8316 H   0  0  0  0  0  0  0  0  0  0  0  0
  -50.9950    0.0291  -18.3901 H   0  0  0  0  0  0  0  0  0  0  0  0
  -51.6640    0.3703  -20.7615 H   0  0  0  0  0  0  0  0  0  0  0  0
  -55.1606    2.5439  -19.4530 H   0  0  0  0  0  0  0  0  0  0  0  0
  -54.4858    2.2361  -17.0970 H   0  0  0  0  0  0  0  0  0  0  0  0
  -53.4085    0.8487  -13.6918 H   0  0  0  0  0  0  0  0  0  0  0  0
  -53.6195   -0.9190  -13.6186 H   0  0  0  0  0  0  0  0  0  0  0  0
  -52.0297    0.2091  -11.7531 H   0  0  0  0  0  0  0  0  0  0  0  0
  -51.6645   -1.5198  -12.0759 H   0  0  0  0  0  0  0  0  0  0  0  0
  -50.3396   -0.3068  -12.0759 H   0  0  0  0  0  0  0  0  0  0  0  0
  -54.4837    2.5712  -21.7164 H   0  0  0  0  0  0  0  0  0  0  0  0
  -54.8539    0.3008  -27.2478 H   0  0  0  0  0  0  0  0  0  0  0  0
  -56.5527    2.0434  -27.1971 H   0  0  0  0  0  0  0  0  0  0  0  0
  -56.9959    3.1867  -25.1354 H   0  0  0  0  0  0  0  0  0  0  0  0
  -52.7057   -0.5974  -24.4017 H   0  0  0  0  0  0  0  0  0  0  0  0
  -54.0141   -1.4349  -26.9875 H   0  0  0  0  0  0  0  0  0  0  0  0
  -53.0655   -2.4974  -25.8813 H   0  0  0  0  0  0  0  0  0  0  0  0
  -51.6596   -1.9635  -27.8052 H   0  0  0  0  0  0  0  0  0  0  0  0
  -51.0202   -1.0732  -26.3909 H   0  0  0  0  0  0  0  0  0  0  0  0
  -51.3791    1.3235  -26.1476 H   0  0  0  0  0  0  0  0  0  0  0  0
  -51.8926    3.5021  -27.2311 H   0  0  0  0  0  0  0  0  0  0  0  0
  -53.0871    1.3934  -30.8070 H   0  0  0  0  0  0  0  0  0  0  0  0
  -52.7670   -0.7951  -29.6475 H   0  0  0  0  0  0  0  0  0  0  0  0
 33 30  1  0
 31 32  2  0
 31 30  1  0
 32 27  1  0
 30 29  2  0
 27 28  2  0
 27 26  1  0
 29 28  1  0
 26 25  1  0
 25 24  1  0
 19 20  2  0
 19 18  1  0
 20 21  1  0
 24 18  1  0
 18 17  2  0
 21 22  1  0
 22 17  1  0
 22 23  2  0
 17 15  1  0
 15 16  2  0
 15 14  1  0
 14  3  1  0
  3  7  1  0
  3  8  2  0
  7  6  2  0
  8  9  1  0
  6  5  1  0
  9  5  2  0
  5 13  1  0
 13  2  1  0
 13  1  1  0
  2  4  1  0
  1 11  1  0
  4 10  1  0
 11 10  1  0
 10 12  1  0
  1 34  1  0
  1 35  1  0
  2 36  1  0
  2 37  1  0
  4 38  1  0
  4 39  1  0
  6 40  1  0
  7 41  1  0
  8 42  1  0
  9 43  1  0
 11 44  1  0
 11 45  1  0
 12 46  1  0
 12 47  1  0
 12 48  1  0
 14 49  1  0
 19 50  1  0
 20 51  1  0
 21 52  1  0
 24 53  1  0
 25 54  1  0
 25 55  1  0
 26 56  1  0
 26 57  1  0
 28 58  1  0
 29 59  1  0
 31 60  1  0
 32 61  1  0
A    1
C4
A    2
C6
A    3
C11
A    4
C7
A    5
C8
A    6
C9
A    7
C10
A    8
C12
A    9
C13
A   10
N2
A   11
C3
A   12
C1
A   13
N5
A   14
N14
A   15
C15
A   16
O16
A   17
C17
A   18
C18
A   19
C19
A   20
C20
A   21
N21
A   22
C23
A   23
O24
A   24
N25
A   25
C26
A   26
C27
A   27
C28
A   28
C29
A   29
C30
A   30
C31
A   31
C32
A   32
C33
A   33
CL
M  END
