5EM6_5Q3_A_1102
     RDKit          3D

 55 58  0  0  0  0  0  0  0  0999 V2000
  -51.3240   -0.6650  -14.6890 C   0  0  0  0  0  0  0  0  0  0  0  0
  -49.0200    0.0670  -15.4110 C   0  0  0  0  0  0  0  0  0  0  0  0
  -52.1820    0.7450  -19.3360 C   0  0  0  0  0  0  0  0  0  0  0  0
  -48.5470   -0.1230  -13.9550 C   0  0  0  0  0  0  0  0  0  0  0  0
  -51.0250    0.4280  -16.7900 C   0  0  0  0  0  0  0  0  0  0  0  0
  -52.1670    1.2230  -16.9600 C   0  0  0  0  0  0  0  0  0  0  0  0
  -52.7360    1.3720  -18.2150 C   0  0  0  0  0  0  0  0  0  0  0  0
  -51.0420   -0.0540  -19.1790 C   0  0  0  0  0  0  0  0  0  0  0  0
  -50.4850   -0.2270  -17.9130 C   0  0  0  0  0  0  0  0  0  0  0  0
  -49.3990   -1.1170  -13.2580 N   0  0  0  0  0  0  0  0  0  0  0  0
  -50.8310   -0.7490  -13.2360 C   0  0  0  0  0  0  0  0  0  0  0  0
  -48.9220   -1.4040  -11.8970 C   0  0  0  0  0  0  0  0  0  0  0  0
  -50.4950    0.2780  -15.4880 N   0  0  0  0  0  0  0  0  0  0  0  0
  -52.8520    0.9630  -20.5610 N   0  0  0  0  0  0  0  0  0  0  0  0
  -52.8490    0.2430  -21.7180 C   0  0  0  0  0  0  0  0  0  0  0  0
  -52.1750   -0.7740  -21.8020 O   0  0  0  0  0  0  0  0  0  0  0  0
  -53.7430    0.6480  -22.8410 C   0  0  0  0  0  0  0  0  0  0  0  0
  -53.6610    0.0560  -24.1550 C   0  0  0  0  0  0  0  0  0  0  0  0
  -54.5880    0.4810  -25.1440 C   0  0  0  0  0  0  0  0  0  0  0  0
  -55.5420    1.4020  -24.8820 C   0  0  0  0  0  0  0  0  0  0  0  0
  -55.6210    1.9570  -23.6480 N   0  0  0  0  0  0  0  0  0  0  0  0
  -54.7850    1.6300  -22.6340 C   0  0  0  0  0  0  0  0  0  0  0  0
  -54.9620    2.2160  -21.5690 O   0  0  0  0  0  0  0  0  0  0  0  0
  -52.6980   -0.9070  -24.4660 N   0  0  0  0  0  0  0  0  0  0  0  0
  -52.4780   -1.6100  -25.6660 C   0  0  0  0  0  0  0  0  0  0  0  0
  -51.5140   -2.6400  -25.6690 C   0  0  0  0  0  0  0  0  0  0  0  0
  -51.2730   -3.3470  -26.8490 C   0  0  0  0  0  0  0  0  0  0  0  0
  -51.9450   -3.0290  -27.9540 N   0  0  0  0  0  0  0  0  0  0  0  0
  -52.8380   -2.0430  -27.9370 C   0  0  0  0  0  0  0  0  0  0  0  0
  -53.1030   -1.3430  -26.8280 N   0  0  0  0  0  0  0  0  0  0  0  0
  -53.5160   -1.7530  -29.1000 N   0  0  0  0  0  0  0  0  0  0  0  0
  -52.3675   -0.3170  -14.6937 H   0  0  0  0  0  0  0  0  0  0  0  0
  -51.2449   -1.6649  -15.1406 H   0  0  0  0  0  0  0  0  0  0  0  0
  -48.7572   -0.8298  -15.9913 H   0  0  0  0  0  0  0  0  0  0  0  0
  -48.5237    0.9597  -15.8195 H   0  0  0  0  0  0  0  0  0  0  0  0
  -47.5053   -0.4763  -13.9559 H   0  0  0  0  0  0  0  0  0  0  0  0
  -48.6202    0.8400  -13.4285 H   0  0  0  0  0  0  0  0  0  0  0  0
  -52.6139    1.7312  -16.0928 H   0  0  0  0  0  0  0  0  0  0  0  0
  -53.6367    1.9926  -18.3312 H   0  0  0  0  0  0  0  0  0  0  0  0
  -50.5875   -0.5437  -20.0528 H   0  0  0  0  0  0  0  0  0  0  0  0
  -49.6116   -0.8843  -17.7898 H   0  0  0  0  0  0  0  0  0  0  0  0
  -50.9581    0.2256  -12.7421 H   0  0  0  0  0  0  0  0  0  0  0  0
  -51.4096   -1.5013  -12.6799 H   0  0  0  0  0  0  0  0  0  0  0  0
  -49.6256   -0.9807  -11.1650 H   0  0  0  0  0  0  0  0  0  0  0  0
  -48.8548   -2.4926  -11.7539 H   0  0  0  0  0  0  0  0  0  0  0  0
  -47.9288   -0.9534  -11.7539 H   0  0  0  0  0  0  0  0  0  0  0  0
  -53.4413    1.8075  -20.5830 H   0  0  0  0  0  0  0  0  0  0  0  0
  -54.5276    0.0476  -26.1532 H   0  0  0  0  0  0  0  0  0  0  0  0
  -56.2519    1.7001  -25.6676 H   0  0  0  0  0  0  0  0  0  0  0  0
  -56.3519    2.6613  -23.4730 H   0  0  0  0  0  0  0  0  0  0  0  0
  -52.0494   -1.1383  -23.7000 H   0  0  0  0  0  0  0  0  0  0  0  0
  -50.9581   -2.8837  -24.7516 H   0  0  0  0  0  0  0  0  0  0  0  0
  -50.5332   -4.1609  -26.8657 H   0  0  0  0  0  0  0  0  0  0  0  0
  -54.4622   -1.3483  -29.0573 H   0  0  0  0  0  0  0  0  0  0  0  0
  -53.0769   -1.9408  -30.0126 H   0  0  0  0  0  0  0  0  0  0  0  0
 31 29  1  0
 28 29  2  0
 28 27  1  0
 29 30  1  0
 27 26  2  0
 30 25  2  0
 26 25  1  0
 25 24  1  0
 19 20  2  0
 19 18  1  0
 20 21  1  0
 24 18  1  0
 18 17  2  0
 21 22  1  0
 17 22  1  0
 17 15  1  0
 22 23  2  0
 16 15  2  0
 15 14  1  0
 14  3  1  0
  3  8  2  0
  3  7  1  0
  8  9  1  0
  7  6  2  0
  9  5  2  0
  6  5  1  0
  5 13  1  0
 13  2  1  0
 13  1  1  0
  2  4  1  0
  1 11  1  0
  4 10  1  0
 10 11  1  0
 10 12  1  0
  1 32  1  0
  1 33  1  0
  2 34  1  0
  2 35  1  0
  4 36  1  0
  4 37  1  0
  6 38  1  0
  7 39  1  0
  8 40  1  0
  9 41  1  0
 11 42  1  0
 11 43  1  0
 12 44  1  0
 12 45  1  0
 12 46  1  0
 14 47  1  0
 19 48  1  0
 20 49  1  0
 21 50  1  0
 24 51  1  0
 26 52  1  0
 27 53  1  0
 31 54  1  0
 31 55  1  0
A    1
C4
A    2
C6
A    3
C11
A    4
C7
A    5
C8
A    6
C9
A    7
C10
A    8
C12
A    9
C13
A   10
N2
A   11
C3
A   12
C1
A   13
N5
A   14
N14
A   15
C15
A   16
O16
A   17
C17
A   18
C18
A   19
C19
A   20
C20
A   21
N21
A   22
C23
A   23
O24
A   24
N25
A   25
C26
A   26
C27
A   27
C28
A   28
N29
A   29
C30
A   30
N31
A   31
N32
M  END
