5EML_5QK_A_702
     RDKit          3D

 54 57  0  0  0  0  0  0  0  0999 V2000
   22.7280  -44.7520  -10.7420 C   0  0  0  0  0  0  0  0  0  0  0  0
   23.1200  -43.3720  -10.2370 C   0  0  0  0  0  0  0  0  0  0  0  0
   23.0700  -43.3370   -8.8340 C   0  0  0  0  0  0  0  0  0  0  0  0
   23.7980  -42.3410   -8.1640 C   0  0  0  0  0  0  0  0  0  0  0  0
   23.7710  -42.2820   -6.7720 C   0  0  0  0  0  0  0  0  0  0  0  0
   23.0130  -43.1980   -6.0400 C   0  0  0  0  0  0  0  0  0  0  0  0
   22.2860  -44.1970   -6.6860 C   0  0  0  0  0  0  0  0  0  0  0  0
   22.3100  -44.2730   -8.0840 C   0  0  0  0  0  0  0  0  0  0  0  0
   21.5630  -45.2920   -8.6820 C   0  0  0  0  0  0  0  0  0  0  0  0
   21.4620  -45.2330  -10.1520 N   0  0  0  0  0  0  0  0  0  0  0  0
   21.1770  -46.5980  -10.6690 C   0  0  0  0  0  0  0  0  0  0  0  0
   19.6720  -46.8660  -11.0230 C   0  0  0  0  0  0  0  0  0  0  0  0
   18.8640  -46.0290  -10.2070 O   0  0  0  0  0  0  0  0  0  0  0  0
   19.2460  -48.3600  -10.8680 C   0  0  0  0  0  0  0  0  0  0  0  0
   20.4180  -49.2340  -10.5810 N   0  0  0  0  0  0  0  0  0  0  0  0
   21.2910  -49.7000  -11.5430 C   0  0  0  0  0  0  0  0  0  0  0  0
   21.2020  -49.4980  -12.7610 O   0  0  0  0  0  0  0  0  0  0  0  0
   22.4660  -50.5530  -11.0340 C   0  0  0  0  0  0  0  0  0  0  0  0
   22.1310  -51.2050   -9.7940 O   0  0  0  0  0  0  0  0  0  0  0  0
   23.2530  -51.6650   -9.1960 C   0  0  0  0  0  0  0  0  0  0  0  0
   23.3530  -51.4600   -7.8130 C   0  0  0  0  0  0  0  0  0  0  0  0
   22.3760  -50.8250   -7.1220 N   0  0  0  0  0  0  0  0  0  0  0  0
   22.5020  -50.6130   -5.7230 C   0  0  0  0  0  0  0  0  0  0  0  0
   23.6400  -51.0620   -5.0430 C   0  0  0  0  0  0  0  0  0  0  0  0
   24.6430  -51.7190   -5.7600 C   0  0  0  0  0  0  0  0  0  0  0  0
   24.4990  -51.9170   -7.1400 C   0  0  0  0  0  0  0  0  0  0  0  0
   25.4990  -52.5700   -7.8680 C   0  0  0  0  0  0  0  0  0  0  0  0
   25.3800  -52.7710   -9.2470 C   0  0  0  0  0  0  0  0  0  0  0  0
   24.2520  -52.3170   -9.9220 C   0  0  0  0  0  0  0  0  0  0  0  0
   22.6132  -44.7079  -11.8351 H   0  0  0  0  0  0  0  0  0  0  0  0
   23.5219  -45.4536  -10.4461 H   0  0  0  0  0  0  0  0  0  0  0  0
   24.1424  -43.1400  -10.5701 H   0  0  0  0  0  0  0  0  0  0  0  0
   22.4162  -42.6289  -10.6400 H   0  0  0  0  0  0  0  0  0  0  0  0
   24.3878  -41.6096   -8.7360 H   0  0  0  0  0  0  0  0  0  0  0  0
   24.3506  -41.5088   -6.2465 H   0  0  0  0  0  0  0  0  0  0  0  0
   22.9892  -43.1308   -4.9423 H   0  0  0  0  0  0  0  0  0  0  0  0
   21.6979  -44.9201   -6.1018 H   0  0  0  0  0  0  0  0  0  0  0  0
   20.5435  -45.2491   -8.2713 H   0  0  0  0  0  0  0  0  0  0  0  0
   22.0964  -46.2270   -8.4556 H   0  0  0  0  0  0  0  0  0  0  0  0
   21.4831  -47.3252   -9.9025 H   0  0  0  0  0  0  0  0  0  0  0  0
   21.7389  -46.6967  -11.6095 H   0  0  0  0  0  0  0  0  0  0  0  0
   19.5325  -46.6323  -12.0888 H   0  0  0  0  0  0  0  0  0  0  0  0
   19.0486  -46.2202   -9.2534 H   0  0  0  0  0  0  0  0  0  0  0  0
   18.5269  -48.4427  -10.0398 H   0  0  0  0  0  0  0  0  0  0  0  0
   18.7924  -48.6899  -11.8142 H   0  0  0  0  0  0  0  0  0  0  0  0
   20.5874  -49.5078   -9.6026 H   0  0  0  0  0  0  0  0  0  0  0  0
   22.7094  -51.3164  -11.7876 H   0  0  0  0  0  0  0  0  0  0  0  0
   23.3292  -49.8934  -10.8613 H   0  0  0  0  0  0  0  0  0  0  0  0
   21.7030  -50.0946   -5.1726 H   0  0  0  0  0  0  0  0  0  0  0  0
   23.7431  -50.8999   -3.9599 H   0  0  0  0  0  0  0  0  0  0  0  0
   25.5440  -52.0802   -5.2425 H   0  0  0  0  0  0  0  0  0  0  0  0
   26.3966  -52.9326   -7.3457 H   0  0  0  0  0  0  0  0  0  0  0  0
   26.1791  -53.2885   -9.7980 H   0  0  0  0  0  0  0  0  0  0  0  0
   24.1487  -52.4685  -11.0066 H   0  0  0  0  0  0  0  0  0  0  0  0
 17 16  2  0
 16 18  1  0
 16 15  1  0
 18 19  1  0
 12 14  1  0
 12 11  1  0
 12 13  1  0
 14 15  1  0
  1  2  1  0
  1 10  1  0
 11 10  1  0
  2  3  1  0
 10  9  1  0
 29 28  1  0
 29 20  2  0
 19 20  1  0
 28 27  2  0
 20 21  1  0
  3  4  1  0
  3  8  2  0
  9  8  1  0
  4  5  2  0
  8  7  1  0
 27 26  1  0
 21 26  1  0
 21 22  2  0
 26 25  2  0
 22 23  1  0
  5  6  1  0
  7  6  2  0
 25 24  1  0
 23 24  2  0
  1 30  1  0
  1 31  1  0
  2 32  1  0
  2 33  1  0
  4 34  1  0
  5 35  1  0
  6 36  1  0
  7 37  1  0
  9 38  1  0
  9 39  1  0
 11 40  1  0
 11 41  1  0
 12 42  1  0
 13 43  1  0
 14 44  1  0
 14 45  1  0
 15 46  1  0
 18 47  1  0
 18 48  1  0
 23 49  1  0
 24 50  1  0
 25 51  1  0
 27 52  1  0
 28 53  1  0
 29 54  1  0
A    1
CAU
A    2
CAV
A    3
CAW
A    4
CBC
A    5
CBB
A    6
CBA
A    7
CAZ
A    8
CAX
A    9
CAY
A   10
NAT
A   11
CAS
A   12
CAB
A   13
OAA
A   14
CAC
A   15
NAD
A   16
CAE
A   17
OAF
A   18
CAG
A   19
OAH
A   20
CAI
A   21
CAJ
A   22
NAK
A   23
CAL
A   24
CAM
A   25
CAN
A   26
CAO
A   27
CAP
A   28
CAQ
A   29
CAR
M  END
