5EN4_5Q6_A_302
     RDKit          3D

 36 38  0  0  0  0  0  0  0  0999 V2000
   33.5860    7.2610  -10.7050 C   0  0  0  0  0  0  0  0  0  0  0  0
   32.2510    7.1810  -10.3520 C   0  0  0  0  0  0  0  0  0  0  0  0
   31.2620    7.5330  -11.2590 C   0  0  0  0  0  0  0  0  0  0  0  0
   31.6000    7.9810  -12.5340 C   0  0  0  0  0  0  0  0  0  0  0  0
   30.5590    8.3140  -13.5410 C   0  0  0  0  0  0  0  0  0  0  0  0
   29.1710    7.7340  -13.4530 C   0  0  0  0  0  0  0  0  0  0  0  0
   28.0560    8.5560  -13.5130 C   0  0  0  0  0  0  0  0  0  0  0  0
   26.8040    7.9710  -13.4550 C   0  0  0  0  0  0  0  0  0  0  0  0
   26.6980    6.6000  -13.3390 C   0  0  0  0  0  0  0  0  0  0  0  0
   27.8630    5.8410  -13.2820 C   0  0  0  0  0  0  0  0  0  0  0  0
   32.9590    8.0840  -12.8810 C   0  0  0  0  0  0  0  0  0  0  0  0
   28.9020    4.0770  -15.2300 F   0  0  0  0  0  0  0  0  0  0  0  0
   28.3900    3.5390  -14.1100 C   0  0  0  0  0  0  0  0  0  0  0  0
   28.4360    2.1630  -13.9490 C   0  0  0  0  0  0  0  0  0  0  0  0
   28.9860    1.3850  -14.9120 O   0  0  0  0  0  0  0  0  0  0  0  0
   27.9100    1.5980  -12.7930 C   0  0  0  0  0  0  0  0  0  0  0  0
   27.3450    2.4090  -11.8230 C   0  0  0  0  0  0  0  0  0  0  0  0
   27.3070    3.7830  -11.9960 C   0  0  0  0  0  0  0  0  0  0  0  0
   27.8390    4.3630  -13.1480 C   0  0  0  0  0  0  0  0  0  0  0  0
   29.0890    6.3980  -13.3420 N   0  0  0  0  0  0  0  0  0  0  0  0
   30.8660    9.0460  -14.4810 O   0  0  0  0  0  0  0  0  0  0  0  0
   33.3300    8.6640  -14.0440 O   0  0  0  0  0  0  0  0  0  0  0  0
   33.9420    7.6910  -11.9760 C   0  0  0  0  0  0  0  0  0  0  0  0
   35.2270    7.7040  -12.3780 O   0  0  0  0  0  0  0  0  0  0  0  0
   34.3649    6.9841   -9.9792 H   0  0  0  0  0  0  0  0  0  0  0  0
   31.9717    6.8360   -9.3455 H   0  0  0  0  0  0  0  0  0  0  0  0
   30.2035    7.4578  -10.9693 H   0  0  0  0  0  0  0  0  0  0  0  0
   28.1645    9.6468  -13.6045 H   0  0  0  0  0  0  0  0  0  0  0  0
   25.8989    8.5944  -13.5010 H   0  0  0  0  0  0  0  0  0  0  0  0
   25.7112    6.1162  -13.2925 H   0  0  0  0  0  0  0  0  0  0  0  0
   29.5388    0.6030  -14.6609 H   0  0  0  0  0  0  0  0  0  0  0  0
   27.9425    0.5080  -12.6489 H   0  0  0  0  0  0  0  0  0  0  0  0
   26.9245    1.9602  -10.9110 H   0  0  0  0  0  0  0  0  0  0  0  0
   26.8551    4.4198  -11.2212 H   0  0  0  0  0  0  0  0  0  0  0  0
   33.8634    9.4979  -14.0332 H   0  0  0  0  0  0  0  0  0  0  0  0
   35.9554    7.7114  -11.7075 H   0  0  0  0  0  0  0  0  0  0  0  0
 12 13  1  0
 15 14  1  0
 21  5  2  0
 13 14  2  0
 13 19  1  0
 22 11  1  0
 14 16  1  0
  5  6  1  0
  5  4  1  0
  7  8  2  0
  7  6  1  0
  8  9  1  0
  6 20  2  0
 20 10  1  0
  9 10  2  0
 10 19  1  0
 19 18  2  0
 11  4  2  0
 11 23  1  0
 16 17  2  0
  4  3  1  0
 24 23  1  0
 18 17  1  0
 23  1  2  0
  3  2  2  0
  1  2  1  0
  1 25  1  0
  2 26  1  0
  3 27  1  0
  7 28  1  0
  8 29  1  0
  9 30  1  0
 15 31  1  0
 16 32  1  0
 17 33  1  0
 18 34  1  0
 22 35  1  0
 24 36  1  0
A    1
C1
A    2
C2
A    3
C3
A    4
C4
A    5
C5
A    6
C6
A    7
C7
A    8
C8
A    9
C9
A   10
C10
A   11
C17
A   12
F
A   13
C16
A   14
C15
A   15
O2
A   16
C14
A   17
C13
A   18
C12
A   19
C11
A   20
N
A   21
O1
A   22
O3
A   23
C
A   24
O
M  END
