5ENC_5QD_A_1503
     RDKit          3D

 22 22  0  0  0  0  0  0  0  0999 V2000
  -26.7760    1.3340   -6.7740 C   0  0  0  0  0  0  0  0  0  0  0  0
  -27.5910    0.6610   -5.8740 C   0  0  0  0  0  0  0  0  0  0  0  0
  -28.7310    1.2840   -5.3940 C   0  0  0  0  0  0  0  0  0  0  0  0
  -29.0410    2.5720   -5.7960 C   0  0  0  0  0  0  0  0  0  0  0  0
  -28.2030    3.2250   -6.6900 C   0  0  0  0  0  0  0  0  0  0  0  0
  -23.6850    3.3430   -9.5760 O   0  0  0  0  0  0  0  0  0  0  0  0
  -23.7410    3.6760   -8.4060 C   0  0  0  0  0  0  0  0  0  0  0  0
  -22.5350    4.1790   -7.6700 C   0  0  0  0  0  0  0  0  0  0  0  0
  -24.8770    3.6100   -7.7080 N   0  0  0  0  0  0  0  0  0  0  0  0
  -26.1900    3.3130   -8.2710 C   0  0  0  0  0  0  0  0  0  0  0  0
  -27.0550    2.6250   -7.2360 C   0  0  0  0  0  0  0  0  0  0  0  0
  -28.5450    4.8810   -7.0760 Cl  0  0  0  0  0  0  0  0  0  0  0  0
  -25.3210    0.5620   -7.3160 Cl  0  0  0  0  0  0  0  0  0  0  0  0
  -27.3339   -0.3568   -5.5454 H   0  0  0  0  0  0  0  0  0  0  0  0
  -29.3916    0.7543   -4.6918 H   0  0  0  0  0  0  0  0  0  0  0  0
  -29.9417    3.0728   -5.4112 H   0  0  0  0  0  0  0  0  0  0  0  0
  -22.7099    4.1061   -6.5864 H   0  0  0  0  0  0  0  0  0  0  0  0
  -21.6595    3.5710   -7.9419 H   0  0  0  0  0  0  0  0  0  0  0  0
  -22.3510    5.2289   -7.9419 H   0  0  0  0  0  0  0  0  0  0  0  0
  -24.8225    3.7820   -6.6939 H   0  0  0  0  0  0  0  0  0  0  0  0
  -26.6726    4.2507   -8.5836 H   0  0  0  0  0  0  0  0  0  0  0  0
  -26.0682    2.6480   -9.1388 H   0  0  0  0  0  0  0  0  0  0  0  0
  6  7  2  0
  7  9  1  0
  7  8  1  0
 10  9  1  0
 10 11  1  0
 13  1  1  0
 11  1  2  0
 11  5  1  0
 12  5  1  0
  1  2  1  0
  5  4  2  0
  2  3  2  0
  4  3  1  0
  2 14  1  0
  3 15  1  0
  4 16  1  0
  8 17  1  0
  8 18  1  0
  8 19  1  0
  9 20  1  0
 10 21  1  0
 10 22  1  0
A    1
C4
A    2
C5
A    3
C6
A    4
C7
A    5
C8
A    6
O
A    7
C1
A    8
C
A    9
N
A   10
C2
A   11
C3
A   12
CL
A   13
CL1
M  END
