5ENH_5QB_A_1501
     RDKit          3D

 30 30  0  0  0  0  0  0  0  0999 V2000
  -27.2280    3.8530   -6.2760 C   0  0  0  0  0  0  0  0  0  0  0  0
  -28.1280    3.4330   -5.3050 C   0  0  0  0  0  0  0  0  0  0  0  0
  -28.1930    2.0930   -4.9620 C   0  0  0  0  0  0  0  0  0  0  0  0
  -27.3680    1.1670   -5.5760 C   0  0  0  0  0  0  0  0  0  0  0  0
  -26.4730    1.5850   -6.5580 C   0  0  0  0  0  0  0  0  0  0  0  0
  -26.7720    6.1080   -5.6230 C   0  0  0  0  0  0  0  0  0  0  0  0
  -23.1090    3.1920   -9.5340 O   0  0  0  0  0  0  0  0  0  0  0  0
  -23.0330    3.5400   -8.3610 C   0  0  0  0  0  0  0  0  0  0  0  0
  -21.7310    3.9550   -7.7410 C   0  0  0  0  0  0  0  0  0  0  0  0
  -24.1040    3.5700   -7.5630 N   0  0  0  0  0  0  0  0  0  0  0  0
  -25.4640    3.3720   -8.0510 C   0  0  0  0  0  0  0  0  0  0  0  0
  -26.3910    2.9360   -6.9350 C   0  0  0  0  0  0  0  0  0  0  0  0
  -25.6280    0.7470   -7.2350 O   0  0  0  0  0  0  0  0  0  0  0  0
  -25.4670   -0.5830   -6.7440 C   0  0  0  0  0  0  0  0  0  0  0  0
  -27.0680    5.1610   -6.6460 O   0  0  0  0  0  0  0  0  0  0  0  0
  -28.7866    4.1621   -4.8104 H   0  0  0  0  0  0  0  0  0  0  0  0
  -28.9073    1.7614   -4.1940 H   0  0  0  0  0  0  0  0  0  0  0  0
  -27.4188    0.1061   -5.2899 H   0  0  0  0  0  0  0  0  0  0  0  0
  -26.9179    5.6411   -4.6378 H   0  0  0  0  0  0  0  0  0  0  0  0
  -25.7275    6.4390   -5.7208 H   0  0  0  0  0  0  0  0  0  0  0  0
  -27.4420    6.9749   -5.7208 H   0  0  0  0  0  0  0  0  0  0  0  0
  -21.8211    3.9263   -6.6451 H   0  0  0  0  0  0  0  0  0  0  0  0
  -20.9360    3.2657   -8.0617 H   0  0  0  0  0  0  0  0  0  0  0  0
  -21.4815    4.9772   -8.0617 H   0  0  0  0  0  0  0  0  0  0  0  0
  -23.9628    3.7408   -6.5571 H   0  0  0  0  0  0  0  0  0  0  0  0
  -25.8337    4.3172   -8.4752 H   0  0  0  0  0  0  0  0  0  0  0  0
  -25.4467    2.5823   -8.8166 H   0  0  0  0  0  0  0  0  0  0  0  0
  -25.4685   -0.5705   -5.6441 H   0  0  0  0  0  0  0  0  0  0  0  0
  -26.2958   -1.2099   -7.1047 H   0  0  0  0  0  0  0  0  0  0  0  0
  -24.5125   -0.9940   -7.1047 H   0  0  0  0  0  0  0  0  0  0  0  0
  7  8  2  0
  8  9  1  0
  8 10  1  0
 11 10  1  0
 11 12  1  0
 13 14  1  0
 13  5  1  0
 12  5  1  0
 12  1  2  0
 15  1  1  0
 15  6  1  0
  5  4  2  0
  1  2  1  0
  4  3  1  0
  2  3  2  0
  2 16  1  0
  3 17  1  0
  4 18  1  0
  6 19  1  0
  6 20  1  0
  6 21  1  0
  9 22  1  0
  9 23  1  0
  9 24  1  0
 10 25  1  0
 11 26  1  0
 11 27  1  0
 14 28  1  0
 14 29  1  0
 14 30  1  0
A    1
C4
A    2
C5
A    3
C6
A    4
C7
A    5
C8
A    6
C10
A    7
O2
A    8
C1
A    9
C
A   10
N
A   11
C2
A   12
C3
A   13
O
A   14
C9
A   15
O1
M  END
