5ENI_5QA_A_1501
     RDKit          3D

 23 23  0  0  0  0  0  0  0  0999 V2000
  -28.1710    0.7390   -5.2430 C   0  0  0  0  0  0  0  0  0  0  0  0
  -26.9670    0.3750   -5.8190 C   0  0  0  0  0  0  0  0  0  0  0  0
  -26.3720    1.2200   -6.7450 C   0  0  0  0  0  0  0  0  0  0  0  0
  -23.8670    3.8570   -8.0020 C   0  0  0  0  0  0  0  0  0  0  0  0
  -22.7540    4.3530   -7.0760 C   0  0  0  0  0  0  0  0  0  0  0  0
  -23.5650    3.3550   -9.0820 O   0  0  0  0  0  0  0  0  0  0  0  0
  -23.1900    4.3560   -5.7320 O   0  0  0  0  0  0  0  0  0  0  0  0
  -25.1250    4.0050   -7.5740 N   0  0  0  0  0  0  0  0  0  0  0  0
  -26.2750    3.3350   -8.1690 C   0  0  0  0  0  0  0  0  0  0  0  0
  -26.9410    2.4380   -7.1440 C   0  0  0  0  0  0  0  0  0  0  0  0
  -24.8420    0.7590   -7.4160 Cl  0  0  0  0  0  0  0  0  0  0  0  0
  -28.7800    1.9350   -5.5880 C   0  0  0  0  0  0  0  0  0  0  0  0
  -28.1740    2.7660   -6.5190 C   0  0  0  0  0  0  0  0  0  0  0  0
  -28.9770    4.2600   -6.8860 Cl  0  0  0  0  0  0  0  0  0  0  0  0
  -28.6477    0.0751   -4.5068 H   0  0  0  0  0  0  0  0  0  0  0  0
  -26.4857   -0.5756   -5.5454 H   0  0  0  0  0  0  0  0  0  0  0  0
  -21.8817    3.6897   -7.1716 H   0  0  0  0  0  0  0  0  0  0  0  0
  -22.4844    5.3799   -7.3638 H   0  0  0  0  0  0  0  0  0  0  0  0
  -22.4040    4.3506   -5.1301 H   0  0  0  0  0  0  0  0  0  0  0  0
  -25.2921    4.6316   -6.7738 H   0  0  0  0  0  0  0  0  0  0  0  0
  -26.9964    4.0893   -8.5163 H   0  0  0  0  0  0  0  0  0  0  0  0
  -25.9365    2.7232   -9.0182 H   0  0  0  0  0  0  0  0  0  0  0  0
  -29.7364    2.2232   -5.1273 H   0  0  0  0  0  0  0  0  0  0  0  0
  6  4  2  0
  9  8  1  0
  9 10  1  0
  4  8  1  0
  4  5  1  0
 11  3  1  0
 10  3  2  0
 10 13  1  0
  5  7  1  0
 14 13  1  0
  3  2  1  0
 13 12  2  0
  2  1  2  0
 12  1  1  0
  1 15  1  0
  2 16  1  0
  5 17  1  0
  5 18  1  0
  7 19  1  0
  8 20  1  0
  9 21  1  0
  9 22  1  0
 12 23  1  0
A    1
C4
A    2
C5
A    3
C6
A    4
C7
A    5
C8
A    6
O1
A    7
O
A    8
N
A    9
C
A   10
C1
A   11
CL
A   12
C3
A   13
C2
A   14
CL1
M  END
