5ENJ_5Q9_A_1501
     RDKit          3D

 25 25  0  0  0  0  0  0  0  0999 V2000
  -27.3530    2.8060   -7.1700 C   0  0  0  0  0  0  0  0  0  0  0  0
  -26.9610    1.5370   -6.7170 C   0  0  0  0  0  0  0  0  0  0  0  0
  -27.6860    0.8140   -5.7790 C   0  0  0  0  0  0  0  0  0  0  0  0
  -28.8390    1.3580   -5.2500 C   0  0  0  0  0  0  0  0  0  0  0  0
  -29.2600    2.6150   -5.6400 C   0  0  0  0  0  0  0  0  0  0  0  0
  -24.0120    2.8290   -9.2430 O   0  0  0  0  0  0  0  0  0  0  0  0
  -24.0630    3.6310   -8.3210 C   0  0  0  0  0  0  0  0  0  0  0  0
  -22.8040    4.2050   -7.7380 C   0  0  0  0  0  0  0  0  0  0  0  0
  -25.2570    3.9720   -7.7290 N   0  0  0  0  0  0  0  0  0  0  0  0
  -25.3510    4.7880   -6.5240 C   0  0  0  0  0  0  0  0  0  0  0  0
  -26.5840    3.5430   -8.2430 C   0  0  0  0  0  0  0  0  0  0  0  0
  -28.5140    3.3270   -6.5700 C   0  0  0  0  0  0  0  0  0  0  0  0
  -29.0320    4.9360   -6.9390 Cl  0  0  0  0  0  0  0  0  0  0  0  0
  -25.4920    0.8560   -7.3350 Cl  0  0  0  0  0  0  0  0  0  0  0  0
  -27.3449   -0.1822   -5.4608 H   0  0  0  0  0  0  0  0  0  0  0  0
  -29.4256    0.7881   -4.5144 H   0  0  0  0  0  0  0  0  0  0  0  0
  -30.1785    3.0481   -5.2172 H   0  0  0  0  0  0  0  0  0  0  0  0
  -22.8630    4.1781   -6.6399 H   0  0  0  0  0  0  0  0  0  0  0  0
  -21.9408    3.6115   -8.0735 H   0  0  0  0  0  0  0  0  0  0  0  0
  -22.6859    5.2459   -8.0735 H   0  0  0  0  0  0  0  0  0  0  0  0
  -25.2766    4.1419   -5.6369 H   0  0  0  0  0  0  0  0  0  0  0  0
  -24.5314    5.5216   -6.5131 H   0  0  0  0  0  0  0  0  0  0  0  0
  -26.3159    5.3160   -6.5131 H   0  0  0  0  0  0  0  0  0  0  0  0
  -27.1558    4.4297   -8.5542 H   0  0  0  0  0  0  0  0  0  0  0  0
  -26.4336    2.8697   -9.0997 H   0  0  0  0  0  0  0  0  0  0  0  0
  6  7  2  0
  7  8  1  0
  7  9  1  0
 11  9  1  0
 11  1  1  0
  9 10  1  0
 14  2  1  0
  1  2  2  0
  1 12  1  0
 13 12  1  0
  2  3  1  0
 12  5  2  0
  3  4  2  0
  5  4  1  0
  3 15  1  0
  4 16  1  0
  5 17  1  0
  8 18  1  0
  8 19  1  0
  8 20  1  0
 10 21  1  0
 10 22  1  0
 10 23  1  0
 11 24  1  0
 11 25  1  0
A    1
C4
A    2
C5
A    3
C6
A    4
C7
A    5
C8
A    6
O
A    7
C1
A    8
C
A    9
N
A   10
C2
A   11
C3
A   12
C9
A   13
CL
A   14
CL1
M  END
