5ENM_5QU_A_503
     RDKit          3D

 47 50  0  0  0  0  0  0  0  0999 V2000
   15.2320   40.0610   -6.0840 N   0  0  0  0  0  0  0  0  0  0  0  0
   22.0590   39.4140   -7.5590 C   0  0  0  0  0  0  0  0  0  0  0  0
   21.1050   40.0680   -6.7740 C   0  0  0  0  0  0  0  0  0  0  0  0
   19.7510   39.8690   -7.0460 C   0  0  0  0  0  0  0  0  0  0  0  0
   19.3210   39.0320   -8.0770 C   0  0  0  0  0  0  0  0  0  0  0  0
   21.6360   38.5810   -8.5930 C   0  0  0  0  0  0  0  0  0  0  0  0
   20.2820   38.3880   -8.8560 C   0  0  0  0  0  0  0  0  0  0  0  0
   21.5060   40.9730   -5.6540 C   0  0  0  0  0  0  0  0  0  0  0  0
   22.3910   42.0290   -5.8820 C   0  0  0  0  0  0  0  0  0  0  0  0
   16.0830   40.0560   -7.1200 C   0  0  0  0  0  0  0  0  0  0  0  0
   14.4920   40.9960  -11.0970 C   0  0  0  0  0  0  0  0  0  0  0  0
   15.7320   41.8230  -11.3600 C   0  0  0  0  0  0  0  0  0  0  0  0
   16.9350   41.8840  -10.6510 C   0  0  0  0  0  0  0  0  0  0  0  0
   17.7500   42.8030  -11.3120 C   0  0  0  0  0  0  0  0  0  0  0  0
   17.1090   43.2680  -12.3420 O   0  0  0  0  0  0  0  0  0  0  0  0
   15.8350   42.6720  -12.4030 N   0  0  0  0  0  0  0  0  0  0  0  0
   19.1530   43.2000  -10.9080 C   0  0  0  0  0  0  0  0  0  0  0  0
   17.3640   41.1450   -9.3970 C   0  0  0  0  0  0  0  0  0  0  0  0
   17.3890   39.6220   -9.5780 C   0  0  0  0  0  0  0  0  0  0  0  0
   17.8280   38.8810   -8.3010 C   0  0  0  0  0  0  0  0  0  0  0  0
   17.0430   39.2020   -7.0930 N   0  0  0  0  0  0  0  0  0  0  0  0
   16.3630   41.5720   -7.9750 S   0  0  0  0  0  0  0  0  0  0  0  0
   19.9880   37.5690   -9.8720 F   0  0  0  0  0  0  0  0  0  0  0  0
   23.3700   39.5780   -7.3320 F   0  0  0  0  0  0  0  0  0  0  0  0
   22.7370   42.8380   -4.8510 N   0  0  0  0  0  0  0  0  0  0  0  0
   22.2310   42.6410   -3.6110 C   0  0  0  0  0  0  0  0  0  0  0  0
   21.3690   41.6250   -3.3710 N   0  0  0  0  0  0  0  0  0  0  0  0
   20.9980   40.7870   -4.3660 C   0  0  0  0  0  0  0  0  0  0  0  0
   15.7644   40.0579   -5.2023 H   0  0  0  0  0  0  0  0  0  0  0  0
   14.6438   40.9055   -6.1269 H   0  0  0  0  0  0  0  0  0  0  0  0
   19.0008   40.3866   -6.4302 H   0  0  0  0  0  0  0  0  0  0  0  0
   22.3851   38.0665   -9.2128 H   0  0  0  0  0  0  0  0  0  0  0  0
   22.8027   42.2023   -6.8872 H   0  0  0  0  0  0  0  0  0  0  0  0
   15.4299   39.5761   -7.8638 H   0  0  0  0  0  0  0  0  0  0  0  0
   14.3415   40.8956  -10.0120 H   0  0  0  0  0  0  0  0  0  0  0  0
   13.6183   41.4929  -11.5439 H   0  0  0  0  0  0  0  0  0  0  0  0
   14.6150   39.9984  -11.5439 H   0  0  0  0  0  0  0  0  0  0  0  0
   19.2265   43.2208   -9.8107 H   0  0  0  0  0  0  0  0  0  0  0  0
   19.8708   42.4697  -11.3098 H   0  0  0  0  0  0  0  0  0  0  0  0
   19.3817   44.1981  -11.3098 H   0  0  0  0  0  0  0  0  0  0  0  0
   18.3951   41.4791   -9.2093 H   0  0  0  0  0  0  0  0  0  0  0  0
   16.3791   39.2832   -9.8524 H   0  0  0  0  0  0  0  0  0  0  0  0
   18.1219   39.3920  -10.3653 H   0  0  0  0  0  0  0  0  0  0  0  0
   17.6056   37.8192   -8.4833 H   0  0  0  0  0  0  0  0  0  0  0  0
   16.6325   38.3144   -6.7697 H   0  0  0  0  0  0  0  0  0  0  0  0
   22.5230   43.3129   -2.7905 H   0  0  0  0  0  0  0  0  0  0  0  0
   20.2991   39.9624   -4.1617 H   0  0  0  0  0  0  0  0  0  0  0  0
 16 15  1  0
 16 12  2  0
 15 14  1  0
 12 11  1  0
 12 13  1  0
 14 17  1  0
 14 13  2  0
 13 18  1  0
 23  7  1  0
 19 18  1  0
 19 20  1  0
 18 22  1  0
  7  6  1  0
  7  5  2  0
  6  2  2  0
 20  5  1  0
 20 21  1  0
  5  4  1  0
 22 10  1  0
  2 24  1  0
  2  3  1  0
 10 21  1  0
 10  1  1  0
  4  3  2  0
  3  8  1  0
  9  8  2  0
  9 25  1  0
  8 28  1  0
 25 26  2  0
 28 27  2  0
 26 27  1  0
  1 29  1  0
  1 30  1  0
  4 31  1  0
  6 32  1  0
  9 33  1  0
 10 34  1  0
 11 35  1  0
 11 36  1  0
 11 37  1  0
 17 38  1  0
 17 39  1  0
 17 40  1  0
 18 41  1  0
 19 42  1  0
 19 43  1  0
 20 44  1  0
 21 45  1  0
 26 46  1  0
 28 47  1  0
A    1
N14
A    2
C18
A    3
C17
A    4
C16
A    5
C15
A    6
C19
A    7
C20
A    8
C23
A    9
C24
A   10
C12
A   11
C1
A   12
C2
A   13
C3
A   14
C4
A   15
O5
A   16
N6
A   17
C7
A   18
C8
A   19
C9
A   20
C10
A   21
N11
A   22
S13
A   23
F21
A   24
F22
A   25
N25
A   26
C26
A   27
N27
A   28
C28
M  END
