5ENN_5QS_A_901
     RDKit          3D

 54 57  0  0  0  0  0  0  0  0999 V2000
  -28.4120   -8.8220   -9.5230 C   0  0  0  0  0  0  0  0  0  0  0  0
  -29.5990   -8.6360   -8.5630 C   0  0  0  0  0  0  0  0  0  0  0  0
  -27.2030   -7.8560   -9.2760 C   0  0  0  0  0  0  0  0  0  0  0  0
  -29.6270   -0.2020   -4.6820 C   0  0  0  0  0  0  0  0  0  0  0  0
  -30.1870    1.1090   -4.6330 C   0  0  0  0  0  0  0  0  0  0  0  0
  -30.4270    1.7880   -5.8350 C   0  0  0  0  0  0  0  0  0  0  0  0
  -29.5710    0.0240   -7.1060 C   0  0  0  0  0  0  0  0  0  0  0  0
  -29.2880   -0.7540   -5.9600 C   0  0  0  0  0  0  0  0  0  0  0  0
  -28.2630   -5.2010   -6.3820 C   0  0  0  0  0  0  0  0  0  0  0  0
  -29.1220   -4.1270   -6.9940 C   0  0  0  0  0  0  0  0  0  0  0  0
  -30.5590   -4.4810   -7.2090 C   0  0  0  0  0  0  0  0  0  0  0  0
  -30.9640   -5.4900   -8.2510 C   0  0  0  0  0  0  0  0  0  0  0  0
  -31.1480   -4.0270   -8.5160 C   0  0  0  0  0  0  0  0  0  0  0  0
  -27.9250  -10.1110   -9.2650 O   0  0  0  0  0  0  0  0  0  0  0  0
  -28.9280   -8.6120  -10.9830 C   0  0  0  0  0  0  0  0  0  0  0  0
  -26.6240   -7.9550   -7.9100 N   0  0  0  0  0  0  0  0  0  0  0  0
  -26.9420   -7.0490   -6.9220 C   0  0  0  0  0  0  0  0  0  0  0  0
  -27.8960   -6.0940   -7.2800 N   0  0  0  0  0  0  0  0  0  0  0  0
  -27.7570   -5.2010   -5.0260 C   0  0  0  0  0  0  0  0  0  0  0  0
  -26.8010   -6.2200   -4.7610 C   0  0  0  0  0  0  0  0  0  0  0  0
  -26.3660   -7.1530   -5.6790 N   0  0  0  0  0  0  0  0  0  0  0  0
  -28.1450   -4.2910   -3.9110 C   0  0  0  0  0  0  0  0  0  0  0  0
  -28.6570   -3.0250   -4.2690 N   0  0  0  0  0  0  0  0  0  0  0  0
  -28.9890   -2.1720   -3.2210 C   0  0  0  0  0  0  0  0  0  0  0  0
  -28.8580   -2.4730   -1.8830 N   0  0  0  0  0  0  0  0  0  0  0  0
  -28.3600   -3.7050   -1.5990 C   0  0  0  0  0  0  0  0  0  0  0  0
  -27.9880   -4.6630   -2.5560 C   0  0  0  0  0  0  0  0  0  0  0  0
  -29.5040   -0.8910   -3.4310 N   0  0  0  0  0  0  0  0  0  0  0  0
  -30.1390    1.2690   -7.0560 N   0  0  0  0  0  0  0  0  0  0  0  0
  -29.2424   -8.6919   -7.5239 H   0  0  0  0  0  0  0  0  0  0  0  0
  -30.0628   -7.6542   -8.7392 H   0  0  0  0  0  0  0  0  0  0  0  0
  -30.3408   -9.4289   -8.7392 H   0  0  0  0  0  0  0  0  0  0  0  0
  -26.4144   -8.0943  -10.0049 H   0  0  0  0  0  0  0  0  0  0  0  0
  -27.5847   -6.8305   -9.3882 H   0  0  0  0  0  0  0  0  0  0  0  0
  -30.4264    1.5791   -3.6678 H   0  0  0  0  0  0  0  0  0  0  0  0
  -30.8715    2.7930   -5.7868 H   0  0  0  0  0  0  0  0  0  0  0  0
  -29.3211   -0.3939   -8.0924 H   0  0  0  0  0  0  0  0  0  0  0  0
  -28.8241   -1.7476   -6.0464 H   0  0  0  0  0  0  0  0  0  0  0  0
  -28.6896   -3.8662   -7.9713 H   0  0  0  0  0  0  0  0  0  0  0  0
  -29.1253   -3.3001   -6.2686 H   0  0  0  0  0  0  0  0  0  0  0  0
  -30.7860   -4.3816   -6.1373 H   0  0  0  0  0  0  0  0  0  0  0  0
  -31.8406   -6.1327   -8.0825 H   0  0  0  0  0  0  0  0  0  0  0  0
  -30.4576   -6.3165   -8.7710 H   0  0  0  0  0  0  0  0  0  0  0  0
  -30.5138   -3.5189   -9.2574 H   0  0  0  0  0  0  0  0  0  0  0  0
  -31.9976   -3.3911   -8.8057 H   0  0  0  0  0  0  0  0  0  0  0  0
  -27.8711  -10.2537   -8.2868 H   0  0  0  0  0  0  0  0  0  0  0  0
  -29.9465   -8.1975  -10.9558 H   0  0  0  0  0  0  0  0  0  0  0  0
  -28.2618   -7.9135  -11.5104 H   0  0  0  0  0  0  0  0  0  0  0  0
  -28.9389   -9.5772  -11.5104 H   0  0  0  0  0  0  0  0  0  0  0  0
  -25.9685   -8.7204   -7.6970 H   0  0  0  0  0  0  0  0  0  0  0  0
  -26.3764   -6.2677   -3.7474 H   0  0  0  0  0  0  0  0  0  0  0  0
  -28.2391   -3.9722   -0.5388 H   0  0  0  0  0  0  0  0  0  0  0  0
  -27.5958   -5.6493   -2.2671 H   0  0  0  0  0  0  0  0  0  0  0  0
  -29.8314   -0.3858   -2.5952 H   0  0  0  0  0  0  0  0  0  0  0  0
 15  1  1  0
  1  3  1  0
  1 14  1  0
  1  2  1  0
  3 16  1  0
 13 12  1  0
 13 11  1  0
 12 11  1  0
 16 17  1  0
 18 17  2  0
 18  9  1  0
 11 10  1  0
  7 29  2  0
  7  8  1  0
 29  6  1  0
 10  9  1  0
 17 21  1  0
  9 19  2  0
  8  4  2  0
  6  5  2  0
 21 20  2  0
 19 20  1  0
 19 22  1  0
  4  5  1  0
  4 28  1  0
 23 22  2  0
 23 24  1  0
 22 27  1  0
 28 24  1  0
 24 25  2  0
 27 26  2  0
 25 26  1  0
  2 30  1  0
  2 31  1  0
  2 32  1  0
  3 33  1  0
  3 34  1  0
  5 35  1  0
  6 36  1  0
  7 37  1  0
  8 38  1  0
 10 39  1  0
 10 40  1  0
 11 41  1  0
 12 42  1  0
 12 43  1  0
 13 44  1  0
 13 45  1  0
 14 46  1  0
 15 47  1  0
 15 48  1  0
 15 49  1  0
 16 50  1  0
 20 51  1  0
 26 52  1  0
 27 53  1  0
 28 54  1  0
A    1
C1
A    2
C2
A    3
C3
A    4
C11
A    5
C12
A    6
C13
A    7
C14
A    8
C15
A    9
C16
A   10
C17
A   11
C18
A   12
C19
A   13
C20
A   14
O
A   15
C
A   16
N
A   17
C4
A   18
N6
A   19
C6
A   20
C5
A   21
N1
A   22
C7
A   23
N5
A   24
C10
A   25
N2
A   26
C9
A   27
C8
A   28
N3
A   29
N4
M  END
