5EOB_5QQ_A_1401
     RDKit          3D

 40 44  0  0  0  0  0  0  0  0999 V2000
    1.7800   11.6800   30.6160 C   0  0  0  0  0  0  0  0  0  0  0  0
    0.5860   13.7630   29.8840 C   0  0  0  0  0  0  0  0  0  0  0  0
   -4.1260   14.3780   30.6240 C   0  0  0  0  0  0  0  0  0  0  0  0
   -4.2350   13.1240   31.2330 C   0  0  0  0  0  0  0  0  0  0  0  0
   -1.8590   12.8060   30.8620 C   0  0  0  0  0  0  0  0  0  0  0  0
   -1.6610    7.9540   29.2170 C   0  0  0  0  0  0  0  0  0  0  0  0
   -4.1200    5.3000   28.9220 F   0  0  0  0  0  0  0  0  0  0  0  0
   -3.0510    6.0740   28.6650 C   0  0  0  0  0  0  0  0  0  0  0  0
   -2.2370    5.7870   27.5840 C   0  0  0  0  0  0  0  0  0  0  0  0
   -1.1370    6.5890   27.3150 C   0  0  0  0  0  0  0  0  0  0  0  0
   -0.8480    7.6670   28.1330 C   0  0  0  0  0  0  0  0  0  0  0  0
    0.2620    8.4730   27.8810 C   0  0  0  0  0  0  0  0  0  0  0  0
    1.0100    8.3170   26.7000 C   0  0  0  0  0  0  0  0  0  0  0  0
    2.0850    9.1110   26.4780 N   0  0  0  0  0  0  0  0  0  0  0  0
    2.4360   10.0500   27.4200 C   0  0  0  0  0  0  0  0  0  0  0  0
    3.4620   10.9740   27.4400 N   0  0  0  0  0  0  0  0  0  0  0  0
    3.3520   11.6750   28.5970 N   0  0  0  0  0  0  0  0  0  0  0  0
    2.2830   11.2120   29.2720 C   0  0  0  0  0  0  0  0  0  0  0  0
    2.7170   12.4550   31.1640 F   0  0  0  0  0  0  0  0  0  0  0  0
    1.5460   10.6170   31.3960 F   0  0  0  0  0  0  0  0  0  0  0  0
    0.5240   12.5050   30.4860 C   0  0  0  0  0  0  0  0  0  0  0  0
   -0.5590   14.5470   29.7670 C   0  0  0  0  0  0  0  0  0  0  0  0
   -1.7940   14.0500   30.2770 C   0  0  0  0  0  0  0  0  0  0  0  0
   -2.9330   14.8170   30.1610 N   0  0  0  0  0  0  0  0  0  0  0  0
   -3.1090   12.3110   31.3610 C   0  0  0  0  0  0  0  0  0  0  0  0
   -0.6830   12.0130   30.9800 C   0  0  0  0  0  0  0  0  0  0  0  0
    1.7190   10.1980   28.5420 N   0  0  0  0  0  0  0  0  0  0  0  0
    0.6160    9.4010   28.7930 N   0  0  0  0  0  0  0  0  0  0  0  0
   -2.7660    7.1590   29.4800 C   0  0  0  0  0  0  0  0  0  0  0  0
    1.5460   14.1376   29.4993 H   0  0  0  0  0  0  0  0  0  0  0  0
   -5.0181   15.0131   30.5205 H   0  0  0  0  0  0  0  0  0  0  0  0
   -5.2086   12.7788   31.6110 H   0  0  0  0  0  0  0  0  0  0  0  0
   -1.4306    8.8105   29.8676 H   0  0  0  0  0  0  0  0  0  0  0  0
   -2.4612    4.9247   26.9389 H   0  0  0  0  0  0  0  0  0  0  0  0
   -0.4940    6.3675   26.4504 H   0  0  0  0  0  0  0  0  0  0  0  0
    0.7236    7.5545   25.9607 H   0  0  0  0  0  0  0  0  0  0  0  0
   -0.5112   15.5360   29.2878 H   0  0  0  0  0  0  0  0  0  0  0  0
   -3.1778   11.3189   31.8311 H   0  0  0  0  0  0  0  0  0  0  0  0
   -0.7262   11.0223   31.4560 H   0  0  0  0  0  0  0  0  0  0  0  0
   -3.4173    7.3892   30.3361 H   0  0  0  0  0  0  0  0  0  0  0  0
 14 13  2  0
 14 15  1  0
 13 12  1  0
 10  9  2  0
 10 11  1  0
 15 16  2  0
 15 27  1  0
 16 17  1  0
  9  8  1  0
 12 11  1  0
 12 28  2  0
 11  6  2  0
 27 28  1  0
 27 18  1  0
 17 18  2  0
  8  7  1  0
  8 29  2  0
  6 29  1  0
 18  1  1  0
 22  2  2  0
 22 23  1  0
  2 21  1  0
 24 23  2  0
 24  3  1  0
 23  5  1  0
 21  1  1  0
 21 26  2  0
  1 19  1  0
  1 20  1  0
  3  4  2  0
  5 26  1  0
  5 25  2  0
  4 25  1  0
  2 30  1  0
  3 31  1  0
  4 32  1  0
  6 33  1  0
  9 34  1  0
 10 35  1  0
 13 36  1  0
 22 37  1  0
 25 38  1  0
 26 39  1  0
 29 40  1  0
A    1
C13
A    2
C17
A    3
C21
A    4
C22
A    5
C24
A    6
C28
A    7
F01
A    8
C02
A    9
C03
A   10
C04
A   11
C05
A   12
C06
A   13
C07
A   14
N08
A   15
C09
A   16
N10
A   17
N11
A   18
C12
A   19
F14
A   20
F15
A   21
C16
A   22
C18
A   23
C19
A   24
N20
A   25
C23
A   26
C25
A   27
N26
A   28
N27
A   29
C29
M  END
