5EQE_5R8_A_501
     RDKit          3D

 40 41  0  0  0  0  0  0  0  0999 V2000
   17.2160   72.9340   60.2590 C   0  0  0  0  0  0  0  0  0  0  0  0
   19.6050   72.1640   60.4190 C   0  0  0  0  0  0  0  0  0  0  0  0
   18.2970   72.3260   61.0750 N   0  0  0  0  0  0  0  0  0  0  0  0
   17.4650   74.4120   59.8420 C   0  0  0  0  0  0  0  0  0  0  0  0
   17.8350   75.3910   60.9230 N   0  0  0  0  0  0  0  0  0  0  0  0
   17.4390   75.0220   62.3020 C   0  0  0  0  0  0  0  0  0  0  0  0
   18.4690   74.1010   62.9500 C   0  0  0  0  0  0  0  0  0  0  0  0
   18.2850   72.6280   62.5420 C   0  0  0  0  0  0  0  0  0  0  0  0
   17.7520   76.8590   60.6240 C   0  0  0  0  0  0  0  0  0  0  0  0
   17.2610   77.3120   59.2440 C   0  0  0  0  0  0  0  0  0  0  0  0
   18.1980   77.6890   58.2340 C   0  0  0  0  0  0  0  0  0  0  0  0
   17.7530   78.1070   56.9580 C   0  0  0  0  0  0  0  0  0  0  0  0
   16.3510   78.1660   56.6640 C   0  0  0  0  0  0  0  0  0  0  0  0
   15.4130   77.7940   57.6690 C   0  0  0  0  0  0  0  0  0  0  0  0
   15.8580   77.3760   58.9420 C   0  0  0  0  0  0  0  0  0  0  0  0
   15.8630   78.6110   55.3030 C   0  0  0  0  0  0  0  0  0  0  0  0
   16.0910   80.0430   55.0660 N   0  0  0  0  0  0  0  0  0  0  0  0
   16.2842   72.8955   60.8424 H   0  0  0  0  0  0  0  0  0  0  0  0
   17.1687   72.3532   59.3261 H   0  0  0  0  0  0  0  0  0  0  0  0
   20.3894   72.0669   61.1841 H   0  0  0  0  0  0  0  0  0  0  0  0
   19.5911   71.2607   59.7914 H   0  0  0  0  0  0  0  0  0  0  0  0
   19.8119   73.0434   59.7914 H   0  0  0  0  0  0  0  0  0  0  0  0
   18.2816   74.4123   59.1050 H   0  0  0  0  0  0  0  0  0  0  0  0
   16.4914   74.7636   59.4699 H   0  0  0  0  0  0  0  0  0  0  0  0
   17.3479   75.9374   62.9052 H   0  0  0  0  0  0  0  0  0  0  0  0
   16.4785   74.4880   62.2550 H   0  0  0  0  0  0  0  0  0  0  0  0
   19.4745   74.4278   62.6463 H   0  0  0  0  0  0  0  0  0  0  0  0
   18.3340   74.1644   64.0398 H   0  0  0  0  0  0  0  0  0  0  0  0
   17.3181   72.2900   62.9432 H   0  0  0  0  0  0  0  0  0  0  0  0
   19.1624   72.1050   62.9503 H   0  0  0  0  0  0  0  0  0  0  0  0
   18.7625   77.2724   60.7578 H   0  0  0  0  0  0  0  0  0  0  0  0
   16.9753   77.2239   61.3121 H   0  0  0  0  0  0  0  0  0  0  0  0
   19.2759   77.6539   58.4505 H   0  0  0  0  0  0  0  0  0  0  0  0
   18.4861   78.3881   56.1876 H   0  0  0  0  0  0  0  0  0  0  0  0
   14.3353   77.8326   57.4521 H   0  0  0  0  0  0  0  0  0  0  0  0
   15.1226   77.0964   59.7108 H   0  0  0  0  0  0  0  0  0  0  0  0
   14.7842   78.4086   55.2312 H   0  0  0  0  0  0  0  0  0  0  0  0
   16.4299   78.0514   54.5444 H   0  0  0  0  0  0  0  0  0  0  0  0
   16.1689   80.5323   55.9690 H   0  0  0  0  0  0  0  0  0  0  0  0
   16.9625   80.1680   54.5314 H   0  0  0  0  0  0  0  0  0  0  0  0
 17 16  1  0
 16 13  1  0
 13 12  1  0
 13 14  2  0
 12 11  2  0
 14 15  1  0
 11 10  1  0
 15 10  2  0
 10  9  1  0
  4  1  1  0
  4  5  1  0
  1  3  1  0
  2  3  1  0
  9  5  1  0
  5  6  1  0
  3  8  1  0
  6  7  1  0
  8  7  1  0
  1 18  1  0
  1 19  1  0
  2 20  1  0
  2 21  1  0
  2 22  1  0
  4 23  1  0
  4 24  1  0
  6 25  1  0
  6 26  1  0
  7 27  1  0
  7 28  1  0
  8 29  1  0
  8 30  1  0
  9 31  1  0
  9 32  1  0
 11 33  1  0
 12 34  1  0
 14 35  1  0
 15 36  1  0
 16 37  1  0
 16 38  1  0
 17 39  1  0
 17 40  1  0
A    1
C6
A    2
C1
A    3
N2
A    4
C7
A    5
N8
A    6
C9
A    7
C10
A    8
C11
A    9
C22
A   10
C23
A   11
C26
A   12
C27
A   13
C28
A   14
C29
A   15
C30
A   16
C35
A   17
N36
M  END
