5EQG_5RE_A_501
     RDKit          3D

 56 58  0  0  0  0  0  0  0  0999 V2000
  583.3810  -26.6780  279.9330 C   0  0  0  0  0  0  0  0  0  0  0  0
  581.6410  -26.1820  281.5810 C   0  0  0  0  0  0  0  0  0  0  0  0
  581.2630  -22.3090  281.9530 C   0  0  0  0  0  0  0  0  0  0  0  0
  580.9240  -21.3280  282.9000 C   0  0  0  0  0  0  0  0  0  0  0  0
  580.8640  -20.0090  282.5330 O   0  0  0  0  0  0  0  0  0  0  0  0
  580.6530  -21.7060  284.2240 C   0  0  0  0  0  0  0  0  0  0  0  0
  580.7160  -23.0540  284.5960 C   0  0  0  0  0  0  0  0  0  0  0  0
  581.0530  -24.0340  283.6470 C   0  0  0  0  0  0  0  0  0  0  0  0
  581.3250  -23.6580  282.3250 C   0  0  0  0  0  0  0  0  0  0  0  0
  581.6890  -24.6590  281.2540 C   0  0  0  0  0  0  0  0  0  0  0  0
  580.8610  -26.5880  282.4060 O   0  0  0  0  0  0  0  0  0  0  0  0
  582.4270  -27.0750  280.9350 N   0  0  0  0  0  0  0  0  0  0  0  0
  584.1950  -27.8290  279.3400 C   0  0  0  0  0  0  0  0  0  0  0  0
  584.3790  -29.0830  280.1720 C   0  0  0  0  0  0  0  0  0  0  0  0
  584.3300  -30.3170  279.5280 C   0  0  0  0  0  0  0  0  0  0  0  0
  584.5000  -31.4980  280.2500 C   0  0  0  0  0  0  0  0  0  0  0  0
  584.7200  -31.4440  281.6180 C   0  0  0  0  0  0  0  0  0  0  0  0
  584.8830  -32.5850  282.3220 F   0  0  0  0  0  0  0  0  0  0  0  0
  584.7740  -30.2130  282.2650 C   0  0  0  0  0  0  0  0  0  0  0  0
  584.6090  -29.0310  281.5410 C   0  0  0  0  0  0  0  0  0  0  0  0
  582.6620  -25.9840  278.7810 C   0  0  0  0  0  0  0  0  0  0  0  0
  581.5480  -26.3410  278.4790 O   0  0  0  0  0  0  0  0  0  0  0  0
  583.3050  -24.9760  278.1550 N   0  0  0  0  0  0  0  0  0  0  0  0
  582.7810  -24.1990  277.0320 C   0  0  0  0  0  0  0  0  0  0  0  0
  581.9810  -25.0310  276.0920 C   0  0  0  0  0  0  0  0  0  0  0  0
  581.9160  -23.0140  277.4440 C   0  0  0  0  0  0  0  0  0  0  0  0
  580.8510  -23.1600  278.3200 C   0  0  0  0  0  0  0  0  0  0  0  0
  580.0800  -22.0580  278.6650 C   0  0  0  0  0  0  0  0  0  0  0  0
  580.3520  -20.8060  278.1320 C   0  0  0  0  0  0  0  0  0  0  0  0
  581.4090  -20.6640  277.2500 C   0  0  0  0  0  0  0  0  0  0  0  0
  582.1820  -21.7670  276.9080 C   0  0  0  0  0  0  0  0  0  0  0  0
  584.0826  -26.0099  280.4539 H   0  0  0  0  0  0  0  0  0  0  0  0
  581.4806  -22.0164  280.9152 H   0  0  0  0  0  0  0  0  0  0  0  0
  580.8319  -19.3032  283.2265 H   0  0  0  0  0  0  0  0  0  0  0  0
  580.3907  -20.9419  284.9706 H   0  0  0  0  0  0  0  0  0  0  0  0
  580.5011  -23.3470  285.6342 H   0  0  0  0  0  0  0  0  0  0  0  0
  581.1031  -25.0928  283.9410 H   0  0  0  0  0  0  0  0  0  0  0  0
  582.7181  -24.4313  280.9393 H   0  0  0  0  0  0  0  0  0  0  0  0
  580.8982  -24.5309  280.5002 H   0  0  0  0  0  0  0  0  0  0  0  0
  582.3392  -28.0742  281.1689 H   0  0  0  0  0  0  0  0  0  0  0  0
  583.7010  -28.1288  278.4040 H   0  0  0  0  0  0  0  0  0  0  0  0
  585.2107  -27.4191  279.2389 H   0  0  0  0  0  0  0  0  0  0  0  0
  584.1561  -30.3604  278.4427 H   0  0  0  0  0  0  0  0  0  0  0  0
  584.4597  -32.4695  279.7357 H   0  0  0  0  0  0  0  0  0  0  0  0
  584.9473  -30.1713  283.3505 H   0  0  0  0  0  0  0  0  0  0  0  0
  584.6610  -28.0593  282.0540 H   0  0  0  0  0  0  0  0  0  0  0  0
  584.2455  -24.7330  278.4975 H   0  0  0  0  0  0  0  0  0  0  0  0
  583.6878  -23.8195  276.5383 H   0  0  0  0  0  0  0  0  0  0  0  0
  581.3300  -25.7080  276.6646 H   0  0  0  0  0  0  0  0  0  0  0  0
  581.3635  -24.3774  275.4584 H   0  0  0  0  0  0  0  0  0  0  0  0
  582.6583  -25.6224  275.4584 H   0  0  0  0  0  0  0  0  0  0  0  0
  580.6170  -24.1487  278.7415 H   0  0  0  0  0  0  0  0  0  0  0  0
  579.2436  -22.1789  279.3692 H   0  0  0  0  0  0  0  0  0  0  0  0
  579.7354  -19.9376  278.4070 H   0  0  0  0  0  0  0  0  0  0  0  0
  581.6373  -19.6778  276.8196 H   0  0  0  0  0  0  0  0  0  0  0  0
  583.0166  -21.6468  276.2016 H   0  0  0  0  0  0  0  0  0  0  0  0
 25 24  1  0
 31 30  2  0
 31 26  1  0
 24 26  1  0
 24 23  1  0
 30 29  1  0
 26 27  2  0
 29 28  2  0
 23 21  1  0
 27 28  1  0
 22 21  2  0
 21  1  1  0
 13  1  1  0
 13 14  1  0
 15 14  2  0
 15 16  1  0
  1 12  1  0
 14 20  1  0
 16 17  2  0
 12  2  1  0
 10  2  1  0
 10  9  1  0
 20 19  2  0
  2 11  2  0
 17 19  1  0
 17 18  1  0
  3  9  2  0
  3  4  1  0
  9  8  1  0
  5  4  1  0
  4  6  2  0
  8  7  2  0
  6  7  1  0
  1 32  1  0
  3 33  1  0
  5 34  1  0
  6 35  1  0
  7 36  1  0
  8 37  1  0
 10 38  1  0
 10 39  1  0
 12 40  1  0
 13 41  1  0
 13 42  1  0
 15 43  1  0
 16 44  1  0
 19 45  1  0
 20 46  1  0
 23 47  1  0
 24 48  1  0
 25 49  1  0
 25 50  1  0
 25 51  1  0
 27 52  1  0
 28 53  1  0
 29 54  1  0
 30 55  1  0
 31 56  1  0
A    1
C14
A    2
C10
A    3
C01
A    4
C02
A    5
O03
A    6
C05
A    7
C06
A    8
C07
A    9
C08
A   10
C09
A   11
O11
A   12
N12
A   13
C15
A   14
C16
A   15
C17
A   16
C18
A   17
C19
A   18
F20
A   19
C21
A   20
C22
A   21
C23
A   22
O24
A   23
N25
A   24
C27
A   25
C28
A   26
C29
A   27
C30
A   28
C31
A   29
C32
A   30
C33
A   31
C34
M  END
