5EQI_5RH_A_501
     RDKit          3D

 72 75  0  0  0  0  0  0  0  0999 V2000
  -38.5090    6.6340   13.6120 C   0  0  0  0  0  0  0  0  0  0  0  0
  -38.3240   11.6910   15.7510 C   0  0  0  0  0  0  0  0  0  0  0  0
  -38.7550    9.0580   13.0970 C   0  0  0  0  0  0  0  0  0  0  0  0
  -40.1530   10.4780   17.4390 C   0  0  0  0  0  0  0  0  0  0  0  0
  -37.3740    9.4890   13.6200 C   0  0  0  0  0  0  0  0  0  0  0  0
  -37.3060    9.4260   15.1480 C   0  0  0  0  0  0  0  0  0  0  0  0
  -38.3040   10.3030   15.8920 C   0  0  0  0  0  0  0  0  0  0  0  0
  -39.2270    9.7070   16.7460 C   0  0  0  0  0  0  0  0  0  0  0  0
  -40.1620   11.8590   17.2860 C   0  0  0  0  0  0  0  0  0  0  0  0
  -39.2460   12.4650   16.4430 C   0  0  0  0  0  0  0  0  0  0  0  0
  -38.8030    7.6510   12.5110 C   0  0  0  0  0  0  0  0  0  0  0  0
  -41.1190   10.1430   14.5030 O   0  0  0  0  0  0  0  0  0  0  0  0
  -41.0160   10.8360   13.5060 C   0  0  0  0  0  0  0  0  0  0  0  0
  -40.5160   10.4420   12.3210 O   0  0  0  0  0  0  0  0  0  0  0  0
  -41.5420   12.2180   13.4970 C   0  0  0  0  0  0  0  0  0  0  0  0
  -41.4810   12.9660   12.4000 C   0  0  0  0  0  0  0  0  0  0  0  0
  -42.0440   14.3700   12.4090 C   0  0  0  0  0  0  0  0  0  0  0  0
  -43.3610   14.3290   11.8470 O   0  0  0  0  0  0  0  0  0  0  0  0
  -41.1930   15.3660   11.6180 C   0  0  0  0  0  0  0  0  0  0  0  0
  -40.4890   14.7980   10.3870 C   0  0  0  0  0  0  0  0  0  0  0  0
  -38.2220   11.3030   12.3980 C   0  0  0  0  0  0  0  0  0  0  0  0
  -38.3770   12.4600   12.0430 O   0  0  0  0  0  0  0  0  0  0  0  0
  -37.8620    7.5400   11.3360 C   0  0  0  0  0  0  0  0  0  0  0  0
  -37.2480   10.8580   13.1610 N   0  0  0  0  0  0  0  0  0  0  0  0
  -39.1320   10.1490   12.0920 C   0  0  0  0  0  0  0  0  0  0  0  0
  -37.1240    6.4580   11.1050 C   0  0  0  0  0  0  0  0  0  0  0  0
  -37.8130    8.7410   10.4250 C   0  0  0  0  0  0  0  0  0  0  0  0
  -37.8470    8.3040    9.0570 O   0  0  0  0  0  0  0  0  0  0  0  0
  -38.9790    9.7140   10.6340 C   0  0  0  0  0  0  0  0  0  0  0  0
  -38.7810   10.9440    9.7670 C   0  0  0  0  0  0  0  0  0  0  0  0
  -39.8000   11.6180    9.2260 C   0  0  0  0  0  0  0  0  0  0  0  0
  -39.4930   12.8320    8.3750 C   0  0  0  0  0  0  0  0  0  0  0  0
  -40.7290   13.6850    8.0950 C   0  0  0  0  0  0  0  0  0  0  0  0
  -40.3630   14.8770    7.2140 C   0  0  0  0  0  0  0  0  0  0  0  0
  -41.4340   14.1610    9.3680 C   0  0  0  0  0  0  0  0  0  0  0  0
  -38.6460    7.1080   14.5951 H   0  0  0  0  0  0  0  0  0  0  0  0
  -39.1974    5.7813   13.5169 H   0  0  0  0  0  0  0  0  0  0  0  0
  -37.4718    6.2802   13.5169 H   0  0  0  0  0  0  0  0  0  0  0  0
  -37.5994   12.1788   15.0824 H   0  0  0  0  0  0  0  0  0  0  0  0
  -39.4817    8.9756   13.9187 H   0  0  0  0  0  0  0  0  0  0  0  0
  -40.8792    9.9945   18.1090 H   0  0  0  0  0  0  0  0  0  0  0  0
  -36.5674    8.8331   13.2606 H   0  0  0  0  0  0  0  0  0  0  0  0
  -37.4814    8.3832   15.4510 H   0  0  0  0  0  0  0  0  0  0  0  0
  -36.3111    9.8091   15.4190 H   0  0  0  0  0  0  0  0  0  0  0  0
  -39.2238    8.6145   16.8740 H   0  0  0  0  0  0  0  0  0  0  0  0
  -40.8953   12.4695   17.8334 H   0  0  0  0  0  0  0  0  0  0  0  0
  -39.2487   13.5583   16.3216 H   0  0  0  0  0  0  0  0  0  0  0  0
  -39.8091    7.4334   12.1231 H   0  0  0  0  0  0  0  0  0  0  0  0
  -41.9904   12.6331   14.4117 H   0  0  0  0  0  0  0  0  0  0  0  0
  -41.0210   12.5640   11.4853 H   0  0  0  0  0  0  0  0  0  0  0  0
  -42.0541   14.7187   13.4522 H   0  0  0  0  0  0  0  0  0  0  0  0
  -44.0304   14.3082   12.5761 H   0  0  0  0  0  0  0  0  0  0  0  0
  -40.4231   15.7658   12.2943 H   0  0  0  0  0  0  0  0  0  0  0  0
  -41.8917   16.1276   11.2415 H   0  0  0  0  0  0  0  0  0  0  0  0
  -39.7732   14.0323   10.7206 H   0  0  0  0  0  0  0  0  0  0  0  0
  -40.0001   15.6440    9.8817 H   0  0  0  0  0  0  0  0  0  0  0  0
  -36.4431   11.4474   13.4173 H   0  0  0  0  0  0  0  0  0  0  0  0
  -37.1812    5.5973   11.7875 H   0  0  0  0  0  0  0  0  0  0  0  0
  -36.4564    6.4238   10.2314 H   0  0  0  0  0  0  0  0  0  0  0  0
  -36.8809    9.2726   10.6669 H   0  0  0  0  0  0  0  0  0  0  0  0
  -37.9238    7.3174    9.0275 H   0  0  0  0  0  0  0  0  0  0  0  0
  -39.8973    9.1799   10.3485 H   0  0  0  0  0  0  0  0  0  0  0  0
  -37.7561   11.2951    9.5761 H   0  0  0  0  0  0  0  0  0  0  0  0
  -40.8387   11.2980    9.3951 H   0  0  0  0  0  0  0  0  0  0  0  0
  -39.0753   12.4925    7.4157 H   0  0  0  0  0  0  0  0  0  0  0  0
  -38.7787   13.4558    8.9324 H   0  0  0  0  0  0  0  0  0  0  0  0
  -41.4428   13.0380    7.5640 H   0  0  0  0  0  0  0  0  0  0  0  0
  -40.0994   15.7354    7.8494 H   0  0  0  0  0  0  0  0  0  0  0  0
  -39.5043   14.6136    6.5789 H   0  0  0  0  0  0  0  0  0  0  0  0
  -41.2215   15.1409    6.5789 H   0  0  0  0  0  0  0  0  0  0  0  0
  -42.1952   14.9038    9.0873 H   0  0  0  0  0  0  0  0  0  0  0  0
  -41.8736   13.2729    9.8456 H   0  0  0  0  0  0  0  0  0  0  0  0
 34 33  1  0
 33 32  1  0
 33 35  1  0
 32 31  1  0
 28 27  1  0
 35 20  1  0
 31 30  2  0
 30 29  1  0
 27 29  1  0
 27 23  1  0
 29 25  1  0
 20 19  1  0
 26 23  2  3
 23 11  1  0
 19 17  1  0
 18 17  1  0
 22 21  2  0
 25 14  1  0
 25 21  1  0
 25  3  1  0
 14 13  1  0
 11  3  1  0
 11  1  1  0
 16 17  1  0
 16 15  2  0
 21 24  1  0
  3  5  1  0
 24  5  1  0
 13 15  1  0
 13 12  2  0
  5  6  1  0
  6  7  1  0
  2  7  2  0
  2 10  1  0
  7  8  1  0
 10  9  2  0
  8  4  2  0
  9  4  1  0
  1 36  1  0
  1 37  1  0
  1 38  1  0
  2 39  1  0
  3 40  1  0
  4 41  1  0
  5 42  1  0
  6 43  1  0
  6 44  1  0
  8 45  1  0
  9 46  1  0
 10 47  1  0
 11 48  1  0
 15 49  1  0
 16 50  1  0
 17 51  1  0
 18 52  1  0
 19 53  1  0
 19 54  1  0
 20 55  1  0
 20 56  1  0
 24 57  1  0
 26 58  1  0
 26 59  1  0
 27 60  1  0
 28 61  1  0
 29 62  1  0
 30 63  1  0
 31 64  1  0
 32 65  1  0
 32 66  1  0
 33 67  1  0
 34 68  1  0
 34 69  1  0
 34 70  1  0
 35 71  1  0
 35 72  1  0
A    1
C4
A    2
C14
A    3
C5
A    4
C11
A    5
C7
A    6
C8
A    7
C9
A    8
C10
A    9
C12
A   10
C13
A   11
C3
A   12
O3
A   13
C17
A   14
O2
A   15
C18
A   16
C19
A   17
C20
A   18
O4
A   19
C21
A   20
C22
A   21
C15
A   22
O1
A   23
C2
A   24
N
A   25
C16
A   26
C1
A   27
C30
A   28
O5
A   29
C29
A   30
C28
A   31
C27
A   32
C26
A   33
C24
A   34
C25
A   35
C23
M  END
