5EQP_5R9_A_501
     RDKit          3D

 40 42  0  0  0  0  0  0  0  0999 V2000
   18.3270   71.1430   60.9240 N   0  0  0  0  0  0  0  0  0  0  0  0
   18.3310   73.5380   60.2080 C   0  0  0  0  0  0  0  0  0  0  0  0
   17.8300   72.1120   59.9470 C   0  0  0  0  0  0  0  0  0  0  0  0
   18.6800   72.8470   62.7330 C   0  0  0  0  0  0  0  0  0  0  0  0
   17.9980   71.5460   62.2970 C   0  0  0  0  0  0  0  0  0  0  0  0
   17.8030   74.0820   62.5070 C   0  0  0  0  0  0  0  0  0  0  0  0
   17.4480   74.2900   61.1010 N   0  0  0  0  0  0  0  0  0  0  0  0
   19.7600   70.9210   60.7650 C   0  0  0  0  0  0  0  0  0  0  0  0
   17.4840   75.7030   60.7680 C   0  0  0  0  0  0  0  0  0  0  0  0
   16.6530   76.0110   59.5600 C   0  0  0  0  0  0  0  0  0  0  0  0
   15.3470   75.5470   59.4710 C   0  0  0  0  0  0  0  0  0  0  0  0
   14.5760   75.8280   58.3550 C   0  0  0  0  0  0  0  0  0  0  0  0
   15.0880   76.5680   57.2950 C   0  0  0  0  0  0  0  0  0  0  0  0
   16.3990   77.0400   57.4000 C   0  0  0  0  0  0  0  0  0  0  0  0
   17.1680   76.7540   58.5170 C   0  0  0  0  0  0  0  0  0  0  0  0
   14.3160   76.8360   56.2300 N   0  0  0  0  0  0  0  0  0  0  0  0
   14.8670   77.5580   55.2420 C   0  0  0  0  0  0  0  0  0  0  0  0
   16.1560   78.0510   55.2680 C   0  0  0  0  0  0  0  0  0  0  0  0
   16.9450   77.7750   56.3680 C   0  0  0  0  0  0  0  0  0  0  0  0
   18.3965   74.0698   59.2473 H   0  0  0  0  0  0  0  0  0  0  0  0
   19.3133   73.4618   60.6972 H   0  0  0  0  0  0  0  0  0  0  0  0
   16.7306   72.1146   59.9841 H   0  0  0  0  0  0  0  0  0  0  0  0
   18.2072   71.8065   58.9599 H   0  0  0  0  0  0  0  0  0  0  0  0
   19.6098   72.9663   62.1575 H   0  0  0  0  0  0  0  0  0  0  0  0
   18.8750   72.7727   63.8130 H   0  0  0  0  0  0  0  0  0  0  0  0
   18.3116   70.7428   62.9801 H   0  0  0  0  0  0  0  0  0  0  0  0
   16.9128   71.7229   62.3307 H   0  0  0  0  0  0  0  0  0  0  0  0
   16.8762   73.9632   63.0874 H   0  0  0  0  0  0  0  0  0  0  0  0
   18.3842   74.9584   62.8298 H   0  0  0  0  0  0  0  0  0  0  0  0
   20.2319   70.8479   61.7559 H   0  0  0  0  0  0  0  0  0  0  0  0
   19.9268   69.9863   60.2096 H   0  0  0  0  0  0  0  0  0  0  0  0
   20.2018   71.7614   60.2096 H   0  0  0  0  0  0  0  0  0  0  0  0
   17.0989   76.2800   61.6217 H   0  0  0  0  0  0  0  0  0  0  0  0
   18.5261   75.9754   60.5448 H   0  0  0  0  0  0  0  0  0  0  0  0
   14.9218   74.9520   60.2927 H   0  0  0  0  0  0  0  0  0  0  0  0
   13.5408   75.4593   58.3065 H   0  0  0  0  0  0  0  0  0  0  0  0
   18.2024   77.1240   58.5731 H   0  0  0  0  0  0  0  0  0  0  0  0
   14.2522   77.7704   54.3549 H   0  0  0  0  0  0  0  0  0  0  0  0
   16.5461   78.6500   54.4319 H   0  0  0  0  0  0  0  0  0  0  0  0
   17.9839   78.1328   56.4198 H   0  0  0  0  0  0  0  0  0  0  0  0
  4  6  1  0
  4  5  1  0
  6  7  1  0
  5  1  1  0
  9  7  1  0
  9 10  1  0
  7  2  1  0
  8  1  1  0
  2  3  1  0
  1  3  1  0
 10 15  1  0
 10 11  2  0
 15 14  2  0
 11 12  1  0
 14 19  1  0
 14 13  1  0
 19 18  2  0
 12 13  2  0
 13 16  1  0
 18 17  1  0
 16 17  2  0
  2 20  1  0
  2 21  1  0
  3 22  1  0
  3 23  1  0
  4 24  1  0
  4 25  1  0
  5 26  1  0
  5 27  1  0
  6 28  1  0
  6 29  1  0
  8 30  1  0
  8 31  1  0
  8 32  1  0
  9 33  1  0
  9 34  1  0
 11 35  1  0
 12 36  1  0
 15 37  1  0
 17 38  1  0
 18 39  1  0
 19 40  1  0
A    1
N7
A    2
C5
A    3
C6
A    4
C2
A    5
C1
A    6
C3
A    7
N4
A    8
C18
A    9
C22
A   10
C23
A   11
C26
A   12
C27
A   13
C28
A   14
C29
A   15
C30
A   16
N34
A   17
C35
A   18
C36
A   19
C37
M  END
