1A5Z_OXM_A_355
     RDKit          3D

  9  8  0  0  0  0  0  0  0  0999 V2000
   89.1380   32.8130   62.0110 C   0  0  0  0  0  0  0  0  0  0  0  0
   89.7740   32.3740   60.9260 N   0  0  0  0  0  0  0  0  0  0  0  0
   87.8600   32.8150   62.0070 O   0  0  0  0  0  0  0  0  0  0  0  0
   89.9180   33.2740   63.1930 C   0  0  0  0  0  0  0  0  0  0  0  0
   90.5160   32.4360   63.9290 O   0  0  0  0  0  0  0  0  0  0  0  0
   90.0020   34.5070   63.4820 O   0  0  0  0  0  0  0  0  0  0  0  0
   90.6178   31.7915   61.0240 H   0  0  0  0  0  0  0  0  0  0  0  0
   89.4219   32.6170   59.9890 H   0  0  0  0  0  0  0  0  0  0  0  0
   90.0215   34.7931   64.4296 H   0  0  0  0  0  0  0  0  0  0  0  0
  1  2  1  0
  1  3  2  0
  1  4  1  0
  4  5  2  0
  4  6  1  0
  2  7  1  0
  2  8  1  0
  6  9  1  0
A    1
C1
A    2
N1
A    3
O1
A    4
C2
A    5
O2
A    6
O3
M  END
