5ETD_5RN_A_801
     RDKit          3D

 21 22  0  0  0  0  0  0  0  0999 V2000
    9.3360  -13.8470    2.5890 C   0  0  0  0  0  0  0  0  0  0  0  0
    8.0530  -13.0180    2.7120 C   0  0  0  0  0  0  0  0  0  0  0  0
    7.2050  -13.0170    1.8150 O   0  0  0  0  0  0  0  0  0  0  0  0
    7.9180  -12.3420    3.8640 C   0  0  0  0  0  0  0  0  0  0  0  0
    6.9180  -11.5250    4.2160 C   0  0  0  0  0  0  0  0  0  0  0  0
    5.8100  -11.1200    3.5860 C   0  0  0  0  0  0  0  0  0  0  0  0
    4.9290  -10.2370    4.2020 C   0  0  0  0  0  0  0  0  0  0  0  0
    5.2210   -9.7870    5.4830 C   0  0  0  0  0  0  0  0  0  0  0  0
    6.3850  -10.2380    6.0880 C   0  0  0  0  0  0  0  0  0  0  0  0
    7.1990  -11.0820    5.4510 C   0  0  0  0  0  0  0  0  0  0  0  0
    8.3470  -11.6350    5.8440 N   0  0  0  0  0  0  0  0  0  0  0  0
    8.7980  -12.4130    4.8650 C   0  0  0  0  0  0  0  0  0  0  0  0
    9.7129  -14.0905    3.5933 H   0  0  0  0  0  0  0  0  0  0  0  0
    9.1206  -14.7771    2.0427 H   0  0  0  0  0  0  0  0  0  0  0  0
   10.0955  -13.2684    2.0427 H   0  0  0  0  0  0  0  0  0  0  0  0
    5.5935  -11.4882    2.5723 H   0  0  0  0  0  0  0  0  0  0  0  0
    4.0183   -9.9016    3.6842 H   0  0  0  0  0  0  0  0  0  0  0  0
    4.5470   -9.0912    6.0042 H   0  0  0  0  0  0  0  0  0  0  0  0
    6.6394   -9.8967    7.1023 H   0  0  0  0  0  0  0  0  0  0  0  0
    8.8070  -11.4846    6.7532 H   0  0  0  0  0  0  0  0  0  0  0  0
    9.7247  -13.0055    4.8775 H   0  0  0  0  0  0  0  0  0  0  0  0
  3  2  2  0
  1  2  1  0
  2  4  1  0
  6  7  1  0
  6  5  2  0
  4  5  1  0
  4 12  2  0
  7  8  2  0
  5 10  1  0
 12 11  1  0
 10 11  1  0
 10  9  2  0
  8  9  1  0
  1 13  1  0
  1 14  1  0
  1 15  1  0
  6 16  1  0
  7 17  1  0
  8 18  1  0
  9 19  1  0
 11 20  1  0
 12 21  1  0
A    1
CAA
A    2
CAI
A    3
OAB
A    4
CAJ
A    5
CAL
A    6
CAF
A    7
CAD
A    8
CAC
A    9
CAE
A   10
CAK
A   11
NAH
A   12
CAG
M  END
