5ETM_5RW_A_201
     RDKit          3D

 30 32  0  0  0  0  0  0  0  0999 V2000
   -0.1030   -2.3490    0.8420 C   0  0  0  0  0  0  0  0  0  0  0  0
    1.1950   -4.2670    0.4170 C   0  0  0  0  0  0  0  0  0  0  0  0
    1.0270   -1.5700    0.9840 C   0  0  0  0  0  0  0  0  0  0  0  0
    2.3320   -3.4830    0.5440 C   0  0  0  0  0  0  0  0  0  0  0  0
   -0.0590   -3.6920    0.5680 C   0  0  0  0  0  0  0  0  0  0  0  0
    2.2550   -2.1500    0.8320 C   0  0  0  0  0  0  0  0  0  0  0  0
   -0.1670   -8.3430    2.3530 C   0  0  0  0  0  0  0  0  0  0  0  0
    0.3920   -7.4860    3.2830 C   0  0  0  0  0  0  0  0  0  0  0  0
   -1.2680   -6.5160    2.1800 C   0  0  0  0  0  0  0  0  0  0  0  0
    0.3330   -9.6620    2.1960 C   0  0  0  0  0  0  0  0  0  0  0  0
    1.9100   -8.8590    4.0240 C   0  0  0  0  0  0  0  0  0  0  0  0
   -1.3260   -4.5470    0.3650 C   0  0  0  0  0  0  0  0  0  0  0  0
   -1.2190   -7.7310    1.6880 N   0  0  0  0  0  0  0  0  0  0  0  0
    1.4430   -7.6660    4.1620 N   0  0  0  0  0  0  0  0  0  0  0  0
   -0.3170   -6.3260    3.1550 N   0  0  0  0  0  0  0  0  0  0  0  0
    1.4330   -9.7950    3.1090 N   0  0  0  0  0  0  0  0  0  0  0  0
    2.9750   -9.2660    4.7990 N   0  0  0  0  0  0  0  0  0  0  0  0
   -0.0860  -10.5390    1.3970 O   0  0  0  0  0  0  0  0  0  0  0  0
    3.3550   -1.3850    0.9780 F   0  0  0  0  0  0  0  0  0  0  0  0
   -2.3950   -5.2630    1.6670 S   0  0  0  0  0  0  0  0  0  0  0  0
   -1.0867   -1.8696    0.9540 H   0  0  0  0  0  0  0  0  0  0  0  0
    1.2869   -5.3409    0.1973 H   0  0  0  0  0  0  0  0  0  0  0  0
    0.9407   -0.4982    1.2161 H   0  0  0  0  0  0  0  0  0  0  0  0
    3.3206   -3.9463    0.4094 H   0  0  0  0  0  0  0  0  0  0  0  0
   -1.9975   -3.9188   -0.2386 H   0  0  0  0  0  0  0  0  0  0  0  0
   -0.8572   -5.4707   -0.0050 H   0  0  0  0  0  0  0  0  0  0  0  0
   -1.8284   -8.1408    0.9658 H   0  0  0  0  0  0  0  0  0  0  0  0
    1.9322  -10.6956    3.0844 H   0  0  0  0  0  0  0  0  0  0  0  0
    2.9044   -9.2390    5.8262 H   0  0  0  0  0  0  0  0  0  0  0  0
    3.8413   -9.5971    4.3508 H   0  0  0  0  0  0  0  0  0  0  0  0
 12  5  1  0
 12 20  1  0
  2  4  2  0
  2  5  1  0
  4  6  1  0
  5  1  2  0
  6 19  1  0
  6  3  2  0
  1  3  1  0
 18 10  2  0
 20  9  1  0
 13  9  1  0
 13  7  1  0
  9 15  2  0
 10  7  1  0
 10 16  1  0
  7  8  2  0
 16 11  1  0
 15  8  1  0
  8 14  1  0
 11 14  2  0
 11 17  1  0
  1 21  1  0
  2 22  1  0
  3 23  1  0
  4 24  1  0
 12 25  1  0
 12 26  1  0
 13 27  1  0
 16 28  1  0
 17 29  1  0
 17 30  1  0
A    1
C1
A    2
C2
A    3
C3
A    4
C4
A    5
C5
A    6
C6
A    7
C7
A    8
C8
A    9
C9
A   10
C10
A   11
C11
A   12
C12
A   13
N13
A   14
N14
A   15
N15
A   16
N16
A   17
N17
A   18
O18
A   19
F19
A   20
S20
M  END
