5EVA_5S9_A_801
     RDKit          3D

 26 27  0  0  0  0  0  0  0  0999 V2000
    8.7980  -11.2810    8.3030 F   0  0  0  0  0  0  0  0  0  0  0  0
    8.1400  -10.1150    8.1500 C   0  0  0  0  0  0  0  0  0  0  0  0
    7.8740   -9.3440    9.2770 C   0  0  0  0  0  0  0  0  0  0  0  0
    7.2000   -8.1360    9.1550 C   0  0  0  0  0  0  0  0  0  0  0  0
    6.9460   -7.3790   10.2790 F   0  0  0  0  0  0  0  0  0  0  0  0
    6.7890   -7.6970    7.9010 C   0  0  0  0  0  0  0  0  0  0  0  0
    7.0580   -8.4660    6.7720 C   0  0  0  0  0  0  0  0  0  0  0  0
    7.7230   -9.6880    6.8890 C   0  0  0  0  0  0  0  0  0  0  0  0
    8.0330  -10.4970    5.8430 N   0  0  0  0  0  0  0  0  0  0  0  0
    7.1700  -10.6760    4.8090 C   0  0  0  0  0  0  0  0  0  0  0  0
    6.0660  -10.1300    4.7490 O   0  0  0  0  0  0  0  0  0  0  0  0
    7.6050  -11.4860    3.8140 C   0  0  0  0  0  0  0  0  0  0  0  0
    8.8540  -11.9150    3.6730 C   0  0  0  0  0  0  0  0  0  0  0  0
    8.8570  -12.6680    2.5780 C   0  0  0  0  0  0  0  0  0  0  0  0
    7.6170  -12.6760    2.0830 N   0  0  0  0  0  0  0  0  0  0  0  0
    6.8910  -11.9830    2.7980 N   0  0  0  0  0  0  0  0  0  0  0  0
    5.4600  -11.8380    2.4610 C   0  0  0  0  0  0  0  0  0  0  0  0
    8.1988   -9.6926   10.2685 H   0  0  0  0  0  0  0  0  0  0  0  0
    6.2515   -6.7425    7.8012 H   0  0  0  0  0  0  0  0  0  0  0  0
    6.7442   -8.1081    5.7803 H   0  0  0  0  0  0  0  0  0  0  0  0
    8.9403  -10.9845    5.8334 H   0  0  0  0  0  0  0  0  0  0  0  0
    9.7096  -11.6928    4.3276 H   0  0  0  0  0  0  0  0  0  0  0  0
    9.7267  -13.1917    2.1546 H   0  0  0  0  0  0  0  0  0  0  0  0
    4.8694  -11.7782    3.3871 H   0  0  0  0  0  0  0  0  0  0  0  0
    5.3131  -10.9204    1.8725 H   0  0  0  0  0  0  0  0  0  0  0  0
    5.1320  -12.7075    1.8725 H   0  0  0  0  0  0  0  0  0  0  0  0
 15 14  2  0
 15 16  1  0
 17 16  1  0
 14 13  1  0
 16 12  1  0
 13 12  2  0
 12 10  1  0
 11 10  2  0
 10  9  1  0
  9  8  1  0
  7  8  1  0
  7  6  2  0
  8  2  2  0
  6  4  1  0
  2  1  1  0
  2  3  1  0
  4  3  2  0
  4  5  1  0
  3 18  1  0
  6 19  1  0
  7 20  1  0
  9 21  1  0
 13 22  1  0
 14 23  1  0
 17 24  1  0
 17 25  1  0
 17 26  1  0
A    1
FAD
A    2
CAN
A    3
CAI
A    4
CAM
A    5
FAC
A    6
CAG
A    7
CAH
A    8
CAO
A    9
NAK
A   10
CAL
A   11
OAB
A   12
CAP
A   13
CAF
A   14
CAE
A   15
NAJ
A   16
NAQ
A   17
CAA
M  END
