5EW3_5T2_A_1201
     RDKit          3D

 43 45  0  0  0  0  0  0  0  0999 V2000
   17.1990   12.2780   12.8290 C   0  0  0  0  0  0  0  0  0  0  0  0
   16.0610   11.7210   13.4340 C   0  0  0  0  0  0  0  0  0  0  0  0
   16.0600   10.3730   13.8160 C   0  0  0  0  0  0  0  0  0  0  0  0
   22.0620    9.3980   12.2390 C   0  0  0  0  0  0  0  0  0  0  0  0
   22.2670    8.2810   11.4040 C   0  0  0  0  0  0  0  0  0  0  0  0
   23.5680    7.7720   11.2180 C   0  0  0  0  0  0  0  0  0  0  0  0
   24.6620    8.3700   11.8720 C   0  0  0  0  0  0  0  0  0  0  0  0
   24.4720    9.4860   12.6930 C   0  0  0  0  0  0  0  0  0  0  0  0
   23.1710    9.9770   12.8750 C   0  0  0  0  0  0  0  0  0  0  0  0
   16.0040    7.5220   14.5690 C   0  0  0  0  0  0  0  0  0  0  0  0
   14.8740    7.1600   13.5790 C   0  0  0  0  0  0  0  0  0  0  0  0
   15.0320    7.2820   12.1760 C   0  0  0  0  0  0  0  0  0  0  0  0
   13.9760    6.9350   11.3200 C   0  0  0  0  0  0  0  0  0  0  0  0
   12.6150    6.3280   13.1940 C   0  0  0  0  0  0  0  0  0  0  0  0
   13.6470    6.6710   14.0890 C   0  0  0  0  0  0  0  0  0  0  0  0
   23.7460    6.5270   10.3600 C   0  0  0  0  0  0  0  0  0  0  0  0
   17.1910    9.5420   13.6080 C   0  0  0  0  0  0  0  0  0  0  0  0
   18.3390   10.1040   12.9620 C   0  0  0  0  0  0  0  0  0  0  0  0
   18.3210   11.4690   12.5990 C   0  0  0  0  0  0  0  0  0  0  0  0
   19.6220    9.3210   12.6930 C   0  0  0  0  0  0  0  0  0  0  0  0
   17.1540    8.2210   13.9790 N   0  0  0  0  0  0  0  0  0  0  0  0
   20.7900    9.9840   12.4730 N   0  0  0  0  0  0  0  0  0  0  0  0
   19.5570    8.1040   12.6540 O   0  0  0  0  0  0  0  0  0  0  0  0
   12.8070    6.4710   11.8500 N   0  0  0  0  0  0  0  0  0  0  0  0
   24.9960    6.3780    9.8700 F   0  0  0  0  0  0  0  0  0  0  0  0
   23.5080    5.4500   11.1320 F   0  0  0  0  0  0  0  0  0  0  0  0
   22.8600    6.5390    9.3480 F   0  0  0  0  0  0  0  0  0  0  0  0
   17.2103   13.3388   12.5382 H   0  0  0  0  0  0  0  0  0  0  0  0
   15.1704   12.3428   13.6080 H   0  0  0  0  0  0  0  0  0  0  0  0
   15.1615    9.9491   14.2882 H   0  0  0  0  0  0  0  0  0  0  0  0
   21.4127    7.8073   10.8983 H   0  0  0  0  0  0  0  0  0  0  0  0
   25.6724    7.9568   11.7363 H   0  0  0  0  0  0  0  0  0  0  0  0
   25.3274    9.9699   13.1871 H   0  0  0  0  0  0  0  0  0  0  0  0
   23.0151   10.8421   13.5363 H   0  0  0  0  0  0  0  0  0  0  0  0
   15.5775    8.1682   15.3503 H   0  0  0  0  0  0  0  0  0  0  0  0
   16.3917    6.5663   14.9516 H   0  0  0  0  0  0  0  0  0  0  0  0
   15.9815    7.6483   11.7586 H   0  0  0  0  0  0  0  0  0  0  0  0
   14.0893    7.0361   10.2305 H   0  0  0  0  0  0  0  0  0  0  0  0
   11.6571    5.9460   13.5768 H   0  0  0  0  0  0  0  0  0  0  0  0
   13.5012    6.5601   15.1736 H   0  0  0  0  0  0  0  0  0  0  0  0
   19.2102   11.9087   12.1236 H   0  0  0  0  0  0  0  0  0  0  0  0
   18.0108    7.6691   13.8302 H   0  0  0  0  0  0  0  0  0  0  0  0
   20.7470   11.0131   12.4766 H   0  0  0  0  0  0  0  0  0  0  0  0
 27 16  1  0
 25 16  1  0
 16 26  1  0
 16  6  1  0
  6  5  2  0
  6  7  1  0
 13 24  1  0
 13 12  2  0
  5  4  1  0
 24 14  2  0
  7  8  2  0
 12 11  1  0
  4 22  1  0
  4  9  2  0
 22 20  1  0
 19  1  2  0
 19 18  1  0
 23 20  2  0
  8  9  1  0
 20 18  1  0
  1  2  1  0
 18 17  2  0
 14 15  1  0
  2  3  2  0
 11 15  2  0
 11 10  1  0
 17  3  1  0
 17 21  1  0
 21 10  1  0
  1 28  1  0
  2 29  1  0
  3 30  1  0
  5 31  1  0
  7 32  1  0
  8 33  1  0
  9 34  1  0
 10 35  1  0
 10 36  1  0
 12 37  1  0
 13 38  1  0
 14 39  1  0
 15 40  1  0
 19 41  1  0
 21 42  1  0
 22 43  1  0
A    1
C1
A    2
C2
A    3
C3
A    4
C11
A    5
C12
A    6
C13
A    7
C14
A    8
C15
A    9
C16
A   10
C17
A   11
C18
A   12
C19
A   13
C20
A   14
C22
A   15
C23
A   16
C24
A   17
C4
A   18
C5
A   19
C6
A   20
C7
A   21
N8
A   22
N9
A   23
O10
A   24
N21
A   25
F25
A   26
F26
A   27
F27
M  END
