5EW9_5VC_A_1000
     RDKit          3D

 52 55  0  0  0  0  0  0  0  0999 V2000
  -15.7450   11.5850   17.7900 C   0  0  0  0  0  0  0  0  0  0  0  0
  -16.8250   10.8860   18.3440 C   0  0  0  0  0  0  0  0  0  0  0  0
  -16.5920   10.0120   19.3850 C   0  0  0  0  0  0  0  0  0  0  0  0
  -15.2820    9.8800   19.8360 C   0  0  0  0  0  0  0  0  0  0  0  0
  -14.2580   10.6090   19.2380 C   0  0  0  0  0  0  0  0  0  0  0  0
  -14.2820   14.7400   14.6160 C   0  0  0  0  0  0  0  0  0  0  0  0
   -8.9970   11.4400   12.8780 C   0  0  0  0  0  0  0  0  0  0  0  0
   -9.3120   11.1010   17.0190 O   0  0  0  0  0  0  0  0  0  0  0  0
   -9.2100   11.1500   15.6540 C   0  0  0  0  0  0  0  0  0  0  0  0
   -9.4280   12.3640   15.0440 C   0  0  0  0  0  0  0  0  0  0  0  0
   -9.3290   12.5280   13.6840 C   0  0  0  0  0  0  0  0  0  0  0  0
  -15.0860   13.2820   16.0470 C   0  0  0  0  0  0  0  0  0  0  0  0
  -15.4040   14.0940   15.0740 N   0  0  0  0  0  0  0  0  0  0  0  0
  -13.4140   13.2260   16.4990 S   0  0  0  0  0  0  0  0  0  0  0  0
  -13.1130   14.4030   15.2490 C   0  0  0  0  0  0  0  0  0  0  0  0
  -16.0630   12.4680   16.7080 N   0  0  0  0  0  0  0  0  0  0  0  0
  -12.8510   10.4320   19.7460 C   0  0  0  0  0  0  0  0  0  0  0  0
  -12.2430    9.1060   19.2420 C   0  0  0  0  0  0  0  0  0  0  0  0
  -12.9620    7.9070   19.7810 C   0  0  0  0  0  0  0  0  0  0  0  0
  -12.7250    7.5740   20.9840 O   0  0  0  0  0  0  0  0  0  0  0  0
  -13.7660    7.2860   19.0060 O   0  0  0  0  0  0  0  0  0  0  0  0
  -10.7850    8.9810   19.6920 C   0  0  0  0  0  0  0  0  0  0  0  0
   -9.9430   10.0900   19.0710 C   0  0  0  0  0  0  0  0  0  0  0  0
  -10.0150    9.9900   17.5390 C   0  0  0  0  0  0  0  0  0  0  0  0
   -9.7570   13.4340   15.7810 F   0  0  0  0  0  0  0  0  0  0  0  0
   -9.6490   14.1170   13.0620 Cl  0  0  0  0  0  0  0  0  0  0  0  0
   -8.7810   10.2050   13.5060 C   0  0  0  0  0  0  0  0  0  0  0  0
   -8.8770   10.0310   14.8910 C   0  0  0  0  0  0  0  0  0  0  0  0
  -11.4760   10.1560   17.1070 C   0  0  0  0  0  0  0  0  0  0  0  0
  -12.3260    9.0450   17.7160 C   0  0  0  0  0  0  0  0  0  0  0  0
  -14.4910   11.4500   18.2250 N   0  0  0  0  0  0  0  0  0  0  0  0
  -17.8434   11.0320   17.9547 H   0  0  0  0  0  0  0  0  0  0  0  0
  -17.4123    9.4396   19.8426 H   0  0  0  0  0  0  0  0  0  0  0  0
  -15.0550    9.1972   20.6680 H   0  0  0  0  0  0  0  0  0  0  0  0
  -14.3184   15.4758   13.7991 H   0  0  0  0  0  0  0  0  0  0  0  0
   -8.9076   11.5467   11.7868 H   0  0  0  0  0  0  0  0  0  0  0  0
  -12.1243   14.8173   15.0025 H   0  0  0  0  0  0  0  0  0  0  0  0
  -17.0411   12.5205   16.3896 H   0  0  0  0  0  0  0  0  0  0  0  0
  -12.2324   11.2693   19.3906 H   0  0  0  0  0  0  0  0  0  0  0  0
  -12.8758   10.4103   20.8455 H   0  0  0  0  0  0  0  0  0  0  0  0
  -13.1034    8.1056   21.7285 H   0  0  0  0  0  0  0  0  0  0  0  0
  -10.3898    8.0046   19.3751 H   0  0  0  0  0  0  0  0  0  0  0  0
  -10.7398    9.0681   20.7876 H   0  0  0  0  0  0  0  0  0  0  0  0
   -8.8978    9.9832   19.3968 H   0  0  0  0  0  0  0  0  0  0  0  0
  -10.3291   11.0682   19.3935 H   0  0  0  0  0  0  0  0  0  0  0  0
   -9.6054    9.0300   17.1916 H   0  0  0  0  0  0  0  0  0  0  0  0
   -8.5250    9.3354   12.8829 H   0  0  0  0  0  0  0  0  0  0  0  0
   -8.6972    9.0518   15.3589 H   0  0  0  0  0  0  0  0  0  0  0  0
  -11.8497   11.1317   17.4512 H   0  0  0  0  0  0  0  0  0  0  0  0
  -11.5383   10.1003   16.0102 H   0  0  0  0  0  0  0  0  0  0  0  0
  -13.3725    9.1721   17.4019 H   0  0  0  0  0  0  0  0  0  0  0  0
  -11.9510    8.0703   17.3707 H   0  0  0  0  0  0  0  0  0  0  0  0
  7 27  2  0
  7 11  1  0
 26 11  1  0
 27 28  1  0
 11 10  2  0
  6 13  1  0
  6 15  2  0
 28  9  2  0
 10  9  1  0
 10 25  1  0
 13 12  2  0
 15 14  1  0
  9  8  1  0
 12 14  1  0
 12 16  1  0
 16  1  1  0
  8 24  1  0
 29 24  1  0
 29 30  1  0
 24 23  1  0
 30 18  1  0
  1 31  1  0
  1  2  2  0
 31  5  2  0
  2  3  1  0
 21 19  2  0
 23 22  1  0
  5 17  1  0
  5  4  1  0
 18 22  1  0
 18 17  1  0
 18 19  1  0
  3  4  2  0
 19 20  1  0
  2 32  1  0
  3 33  1  0
  4 34  1  0
  6 35  1  0
  7 36  1  0
 15 37  1  0
 16 38  1  0
 17 39  1  0
 17 40  1  0
 20 41  1  0
 22 42  1  0
 22 43  1  0
 23 44  1  0
 23 45  1  0
 24 46  1  0
 27 47  1  0
 28 48  1  0
 29 49  1  0
 29 50  1  0
 30 51  1  0
 30 52  1  0
A    1
C13
A    2
C14
A    3
C15
A    4
C16
A    5
C11
A    6
C21
A    7
C27
A    8
O23
A    9
C24
A   10
C25
A   11
C26
A   12
C18
A   13
N22
A   14
S19
A   15
C20
A   16
N17
A   17
C10
A   18
C1
A   19
C7
A   20
O8
A   21
O9
A   22
C2
A   23
C3
A   24
C4
A   25
F30
A   26
CL3
A   27
C28
A   28
C29
A   29
C5
A   30
C6
A   31
N12
M  END
