5EWH_5SG_A_801
     RDKit          3D

 18 19  0  0  0  0  0  0  0  0999 V2000
    8.9440  -10.9260    6.3410 C   0  0  0  0  0  0  0  0  0  0  0  0
    9.9030  -11.8280    5.8870 C   0  0  0  0  0  0  0  0  0  0  0  0
    9.7330  -12.4660    4.6600 C   0  0  0  0  0  0  0  0  0  0  0  0
    8.6090  -12.2000    3.8890 C   0  0  0  0  0  0  0  0  0  0  0  0
    8.4470  -12.8380    2.6690 C   0  0  0  0  0  0  0  0  0  0  0  0
    7.3180  -12.5830    1.8910 N   0  0  0  0  0  0  0  0  0  0  0  0
    6.3550  -11.6730    2.3490 C   0  0  0  0  0  0  0  0  0  0  0  0
    6.5230  -11.0340    3.5700 C   0  0  0  0  0  0  0  0  0  0  0  0
    7.6480  -11.3000    4.3380 C   0  0  0  0  0  0  0  0  0  0  0  0
    7.8220  -10.6690    5.5610 C   0  0  0  0  0  0  0  0  0  0  0  0
    6.8450   -9.7990    5.9430 O   0  0  0  0  0  0  0  0  0  0  0  0
    9.0732  -10.4206    7.3095 H   0  0  0  0  0  0  0  0  0  0  0  0
   10.7944  -12.0367    6.4968 H   0  0  0  0  0  0  0  0  0  0  0  0
   10.4891  -13.1803    4.3021 H   0  0  0  0  0  0  0  0  0  0  0  0
    9.2100  -13.5464    2.3141 H   0  0  0  0  0  0  0  0  0  0  0  0
    5.4636  -11.4646    1.7391 H   0  0  0  0  0  0  0  0  0  0  0  0
    5.7671  -10.3193    3.9275 H   0  0  0  0  0  0  0  0  0  0  0  0
    6.6696   -9.6428    6.9047 H   0  0  0  0  0  0  0  0  0  0  0  0
 11 10  1  0
 10  1  2  0
 10  9  1  0
  1  2  1  0
  8  9  2  0
  8  7  1  0
  9  4  1  0
  7  6  2  0
  2  3  2  0
  4  3  1  0
  4  5  2  0
  6  5  1  0
  1 12  1  0
  2 13  1  0
  3 14  1  0
  5 15  1  0
  7 16  1  0
  8 17  1  0
 11 18  1  0
A    1
CAD
A    2
CAB
A    3
CAE
A    4
CAJ
A    5
CAG
A    6
NAH
A    7
CAC
A    8
CAF
A    9
CAK
A   10
CAI
A   11
OAA
M  END
