5EWW_5SK_A_801
     RDKit          3D

 36 38  0  0  0  0  0  0  0  0999 V2000
    3.5780   -6.1850    2.9850 C   0  0  0  0  0  0  0  0  0  0  0  0
    3.9570   -7.6660    3.0910 C   0  0  0  0  0  0  0  0  0  0  0  0
    5.4780   -7.8370    3.0510 C   0  0  0  0  0  0  0  0  0  0  0  0
    6.0700   -6.9710    4.1730 C   0  0  0  0  0  0  0  0  0  0  0  0
    5.8020   -9.3010    3.1000 N   0  0  0  0  0  0  0  0  0  0  0  0
    6.7220   -9.9380    3.8510 C   0  0  0  0  0  0  0  0  0  0  0  0
    7.0380   -9.5960    5.1100 N   0  0  0  0  0  0  0  0  0  0  0  0
    7.9600  -10.2770    5.7990 C   0  0  0  0  0  0  0  0  0  0  0  0
    8.2690   -9.8770    7.0980 C   0  0  0  0  0  0  0  0  0  0  0  0
    9.2200  -10.5760    7.8310 C   0  0  0  0  0  0  0  0  0  0  0  0
    9.8540  -11.6730    7.2560 C   0  0  0  0  0  0  0  0  0  0  0  0
    9.5410  -12.0640    5.9590 C   0  0  0  0  0  0  0  0  0  0  0  0
    8.5880  -11.3730    5.2100 C   0  0  0  0  0  0  0  0  0  0  0  0
    8.2310  -11.6890    3.9480 N   0  0  0  0  0  0  0  0  0  0  0  0
    7.3110  -10.9950    3.2780 C   0  0  0  0  0  0  0  0  0  0  0  0
    7.1760  -11.5470    2.0690 N   0  0  0  0  0  0  0  0  0  0  0  0
    7.9140  -12.5020    1.9500 N   0  0  0  0  0  0  0  0  0  0  0  0
    8.6020  -12.6450    3.0800 C   0  0  0  0  0  0  0  0  0  0  0  0
    9.6320  -13.7680    3.2530 C   0  0  0  0  0  0  0  0  0  0  0  0
    3.4695   -5.7611    3.9942 H   0  0  0  0  0  0  0  0  0  0  0  0
    4.3663   -5.6427    2.4423 H   0  0  0  0  0  0  0  0  0  0  0  0
    2.6261   -6.0880    2.4423 H   0  0  0  0  0  0  0  0  0  0  0  0
    3.5725   -8.0707    4.0388 H   0  0  0  0  0  0  0  0  0  0  0  0
    3.5168   -8.2066    2.2401 H   0  0  0  0  0  0  0  0  0  0  0  0
    5.9412   -7.4821    2.1185 H   0  0  0  0  0  0  0  0  0  0  0  0
    5.7838   -7.3897    5.1491 H   0  0  0  0  0  0  0  0  0  0  0  0
    7.1665   -6.9584    4.0867 H   0  0  0  0  0  0  0  0  0  0  0  0
    5.6836   -5.9447    4.0867 H   0  0  0  0  0  0  0  0  0  0  0  0
    5.2455   -9.9010    2.4745 H   0  0  0  0  0  0  0  0  0  0  0  0
    7.7604   -9.0087    7.5424 H   0  0  0  0  0  0  0  0  0  0  0  0
    9.4694  -10.2651    8.8563 H   0  0  0  0  0  0  0  0  0  0  0  0
   10.6064  -12.2335    7.8302 H   0  0  0  0  0  0  0  0  0  0  0  0
   10.0526  -12.9315    5.5165 H   0  0  0  0  0  0  0  0  0  0  0  0
    9.7992  -13.9503    4.3248 H   0  0  0  0  0  0  0  0  0  0  0  0
    9.2559  -14.6867    2.7791 H   0  0  0  0  0  0  0  0  0  0  0  0
   10.5797  -13.4725    2.7791 H   0  0  0  0  0  0  0  0  0  0  0  0
 17 16  1  0
 17 18  2  0
 16 15  2  0
  1  2  1  0
  3  2  1  0
  3  5  1  0
  3  4  1  0
 18 19  1  0
 18 14  1  0
  5  6  1  0
 15  6  1  0
 15 14  1  0
  6  7  2  0
 14 13  1  0
  7  8  1  0
 13  8  2  0
 13 12  1  0
  8  9  1  0
 12 11  2  0
  9 10  2  0
 11 10  1  0
  1 20  1  0
  1 21  1  0
  1 22  1  0
  2 23  1  0
  2 24  1  0
  3 25  1  0
  4 26  1  0
  4 27  1  0
  4 28  1  0
  5 29  1  0
  9 30  1  0
 10 31  1  0
 11 32  1  0
 12 33  1  0
 19 34  1  0
 19 35  1  0
 19 36  1  0
A    1
CAA
A    2
CAH
A    3
CAR
A    4
CAC
A    5
NAL
A    6
CAN
A    7
NAK
A    8
CAO
A    9
CAF
A   10
CAD
A   11
CAE
A   12
CAG
A   13
CAP
A   14
NAS
A   15
CAQ
A   16
NAJ
A   17
NAI
A   18
CAM
A   19
CAB
M  END
