5EXL_5SS_A_301
     RDKit          3D

 66 70  0  0  0  0  0  0  0  0999 V2000
   44.3590  -21.1760   30.1780 C   0  0  0  0  0  0  0  0  0  0  0  0
   48.0070  -21.0460   31.2830 C   0  0  0  0  0  0  0  0  0  0  0  0
   41.2160  -20.5930   28.2780 C   0  0  0  0  0  0  0  0  0  0  0  0
   46.1790  -22.0420   32.0920 C   0  0  0  0  0  0  0  0  0  0  0  0
   39.8760  -23.2110   28.4400 C   0  0  0  0  0  0  0  0  0  0  0  0
   38.8540  -18.3630   28.7860 C   0  0  0  0  0  0  0  0  0  0  0  0
   36.9790  -16.8130   29.3060 C   0  0  0  0  0  0  0  0  0  0  0  0
   38.7060  -16.1340   27.5340 C   0  0  0  0  0  0  0  0  0  0  0  0
   36.0560  -15.6870   28.8370 C   0  0  0  0  0  0  0  0  0  0  0  0
   37.7440  -15.0240   27.0770 C   0  0  0  0  0  0  0  0  0  0  0  0
   37.9510  -17.2920   28.2170 C   0  0  0  0  0  0  0  0  0  0  0  0
   43.0110  -20.3320   26.8140 C   0  0  0  0  0  0  0  0  0  0  0  0
   46.6260  -21.2270   31.0380 C   0  0  0  0  0  0  0  0  0  0  0  0
   35.9540  -13.3570   27.8640 C   0  0  0  0  0  0  0  0  0  0  0  0
   41.3420  -25.2990   29.5890 C   0  0  0  0  0  0  0  0  0  0  0  0
   41.5360  -24.9550   28.2430 C   0  0  0  0  0  0  0  0  0  0  0  0
   40.4240  -24.5930   30.3660 C   0  0  0  0  0  0  0  0  0  0  0  0
   43.9390  -22.0280   31.2220 C   0  0  0  0  0  0  0  0  0  0  0  0
   40.8100  -23.9060   27.6650 C   0  0  0  0  0  0  0  0  0  0  0  0
   39.7050  -23.5430   29.7900 C   0  0  0  0  0  0  0  0  0  0  0  0
   44.8400  -22.4760   32.2040 C   0  0  0  0  0  0  0  0  0  0  0  0
   43.9280  -20.5830   27.8280 C   0  0  0  0  0  0  0  0  0  0  0  0
   45.7070  -20.7820   30.0640 C   0  0  0  0  0  0  0  0  0  0  0  0
   42.0550  -20.8950   29.3400 C   0  0  0  0  0  0  0  0  0  0  0  0
   43.4330  -20.8320   29.1170 C   0  0  0  0  0  0  0  0  0  0  0  0
   36.8700  -14.5220   28.2470 C   0  0  0  0  0  0  0  0  0  0  0  0
   39.1510  -22.0050   27.8640 C   0  0  0  0  0  0  0  0  0  0  0  0
   39.7100  -20.6920   28.4830 C   0  0  0  0  0  0  0  0  0  0  0  0
   41.6660  -20.3490   27.0160 N   0  0  0  0  0  0  0  0  0  0  0  0
   48.4130  -21.7110   32.3740 N   0  0  0  0  0  0  0  0  0  0  0  0
   47.2980  -22.3000   32.8490 N   0  0  0  0  0  0  0  0  0  0  0  0
   36.7300  -12.3020   27.2980 N   0  0  0  0  0  0  0  0  0  0  0  0
   38.9370  -19.5360   28.0480 N   0  0  0  0  0  0  0  0  0  0  0  0
   39.4180  -18.1760   29.8570 O   0  0  0  0  0  0  0  0  0  0  0  0
   48.8870  -20.2890   30.5930 O   0  0  0  0  0  0  0  0  0  0  0  0
   36.3588  -17.6653   29.6205 H   0  0  0  0  0  0  0  0  0  0  0  0
   37.5852  -16.4155   30.1334 H   0  0  0  0  0  0  0  0  0  0  0  0
   39.2423  -16.5253   26.6569 H   0  0  0  0  0  0  0  0  0  0  0  0
   39.4081  -15.7030   28.2629 H   0  0  0  0  0  0  0  0  0  0  0  0
   35.4706  -15.3205   29.6932 H   0  0  0  0  0  0  0  0  0  0  0  0
   35.3883  -16.0809   28.0566 H   0  0  0  0  0  0  0  0  0  0  0  0
   38.3307  -14.1820   26.6811 H   0  0  0  0  0  0  0  0  0  0  0  0
   37.0820  -15.4361   26.3011 H   0  0  0  0  0  0  0  0  0  0  0  0
   37.3720  -17.7440   27.3982 H   0  0  0  0  0  0  0  0  0  0  0  0
   43.3892  -20.1102   25.8052 H   0  0  0  0  0  0  0  0  0  0  0  0
   35.4357  -12.9888   28.7617 H   0  0  0  0  0  0  0  0  0  0  0  0
   35.2145  -13.7019   27.1263 H   0  0  0  0  0  0  0  0  0  0  0  0
   41.9148  -26.1269   30.0323 H   0  0  0  0  0  0  0  0  0  0  0  0
   42.2642  -25.5136   27.6366 H   0  0  0  0  0  0  0  0  0  0  0  0
   40.2677  -24.8602   31.4215 H   0  0  0  0  0  0  0  0  0  0  0  0
   42.8874  -22.3474   31.2682 H   0  0  0  0  0  0  0  0  0  0  0  0
   40.9727  -23.6316   26.6123 H   0  0  0  0  0  0  0  0  0  0  0  0
   38.9954  -22.9695   30.4045 H   0  0  0  0  0  0  0  0  0  0  0  0
   44.5163  -23.1352   33.0230 H   0  0  0  0  0  0  0  0  0  0  0  0
   45.0093  -20.5863   27.6259 H   0  0  0  0  0  0  0  0  0  0  0  0
   46.0361  -20.1408   29.2330 H   0  0  0  0  0  0  0  0  0  0  0  0
   41.6499  -21.1744   30.3238 H   0  0  0  0  0  0  0  0  0  0  0  0
   37.5570  -14.1292   29.0110 H   0  0  0  0  0  0  0  0  0  0  0  0
   39.2948  -21.9820   26.7737 H   0  0  0  0  0  0  0  0  0  0  0  0
   38.0799  -22.0846   28.1015 H   0  0  0  0  0  0  0  0  0  0  0  0
   39.5801  -20.7108   29.5751 H   0  0  0  0  0  0  0  0  0  0  0  0
   47.2850  -22.8860   33.6960 H   0  0  0  0  0  0  0  0  0  0  0  0
   37.1450  -11.7378   28.0532 H   0  0  0  0  0  0  0  0  0  0  0  0
   37.4801  -12.7016   26.7161 H   0  0  0  0  0  0  0  0  0  0  0  0
   38.4297  -19.5915   27.1533 H   0  0  0  0  0  0  0  0  0  0  0  0
   49.5417  -19.7258   31.0771 H   0  0  0  0  0  0  0  0  0  0  0  0
 12 29  2  0
 12 22  1  0
 29  3  1  0
 10  8  1  0
 10 26  1  0
 32 14  1  0
  8 11  1  0
 19 16  1  0
 19  5  2  0
 22 25  2  0
 27  5  1  0
 27 28  1  0
 14 26  1  0
 33 28  1  0
 33  6  1  0
 11  6  1  0
 11  7  1  0
 16 15  2  0
 26  9  1  0
  3 28  1  0
  3 24  2  0
  5 20  1  0
  6 34  2  0
  9  7  1  0
 25 24  1  0
 25  1  1  0
 15 17  1  0
 20 17  2  0
 23  1  1  0
 23 13  2  0
  1 18  2  0
 35  2  1  0
 13  2  1  0
 13  4  1  0
 18 21  1  0
  2 30  2  0
  4 21  2  0
  4 31  1  0
 30 31  1  0
  7 36  1  0
  7 37  1  0
  8 38  1  0
  8 39  1  0
  9 40  1  0
  9 41  1  0
 10 42  1  0
 10 43  1  0
 11 44  1  0
 12 45  1  0
 14 46  1  0
 14 47  1  0
 15 48  1  0
 16 49  1  0
 17 50  1  0
 18 51  1  0
 19 52  1  0
 20 53  1  0
 21 54  1  0
 22 55  1  0
 23 56  1  0
 24 57  1  0
 26 58  1  0
 27 59  1  0
 27 60  1  0
 28 61  1  0
 31 62  1  0
 32 63  1  0
 32 64  1  0
 33 65  1  0
 35 66  1  0
A    1
C13
A    2
C18
A    3
C17
A    4
C16
A    5
C15
A    6
C19
A    7
C20
A    8
C21
A    9
C22
A   10
C23
A   11
C24
A   12
C11
A   13
C12
A   14
C27
A   15
C1
A   16
C2
A   17
C3
A   18
C4
A   19
C5
A   20
C6
A   21
C7
A   22
C8
A   23
C9
A   24
C10
A   25
C14
A   26
C25
A   27
C26
A   28
C28
A   29
N29
A   30
N30
A   31
N31
A   32
N32
A   33
N33
A   34
O34
A   35
O35
M  END
