5EXM_5ST_A_301
     RDKit          3D

 70 73  0  0  0  0  0  0  0  0999 V2000
   44.6380  -21.1640   30.2690 C   0  0  0  0  0  0  0  0  0  0  0  0
   39.0510  -18.4600   29.0700 C   0  0  0  0  0  0  0  0  0  0  0  0
   41.4110  -20.6050   28.4990 C   0  0  0  0  0  0  0  0  0  0  0  0
   46.5230  -21.9040   32.2480 C   0  0  0  0  0  0  0  0  0  0  0  0
   40.1180  -23.2930   28.6710 C   0  0  0  0  0  0  0  0  0  0  0  0
   48.8450  -22.0190   33.2580 C   0  0  0  0  0  0  0  0  0  0  0  0
   37.1410  -16.9290   29.5200 C   0  0  0  0  0  0  0  0  0  0  0  0
   38.9260  -16.2570   27.7940 C   0  0  0  0  0  0  0  0  0  0  0  0
   36.2450  -15.7760   29.0330 C   0  0  0  0  0  0  0  0  0  0  0  0
   37.9740  -15.1560   27.2820 C   0  0  0  0  0  0  0  0  0  0  0  0
   38.1480  -17.4130   28.4630 C   0  0  0  0  0  0  0  0  0  0  0  0
   42.3100  -20.9100   29.5070 C   0  0  0  0  0  0  0  0  0  0  0  0
   43.1220  -20.3040   26.9590 C   0  0  0  0  0  0  0  0  0  0  0  0
   39.3450  -22.0740   28.1950 C   0  0  0  0  0  0  0  0  0  0  0  0
   41.6480  -25.4550   29.6010 C   0  0  0  0  0  0  0  0  0  0  0  0
   40.7410  -24.8160   30.4550 C   0  0  0  0  0  0  0  0  0  0  0  0
   41.8050  -24.9990   28.2800 C   0  0  0  0  0  0  0  0  0  0  0  0
   44.2650  -22.0180   31.3240 C   0  0  0  0  0  0  0  0  0  0  0  0
   45.9550  -20.6780   30.2060 C   0  0  0  0  0  0  0  0  0  0  0  0
   39.9930  -23.7260   29.9940 C   0  0  0  0  0  0  0  0  0  0  0  0
   41.0440  -23.9120   27.8170 C   0  0  0  0  0  0  0  0  0  0  0  0
   45.1940  -22.3710   32.3210 C   0  0  0  0  0  0  0  0  0  0  0  0
   46.9010  -21.0710   31.1720 C   0  0  0  0  0  0  0  0  0  0  0  0
   44.0960  -20.5660   27.9230 C   0  0  0  0  0  0  0  0  0  0  0  0
   43.6730  -20.8330   29.2320 C   0  0  0  0  0  0  0  0  0  0  0  0
   37.0800  -14.6260   28.4240 C   0  0  0  0  0  0  0  0  0  0  0  0
   50.8240  -22.2880   34.6180 C   0  0  0  0  0  0  0  0  0  0  0  0
   36.1710  -13.4680   27.9760 C   0  0  0  0  0  0  0  0  0  0  0  0
   39.9210  -20.7600   28.7960 C   0  0  0  0  0  0  0  0  0  0  0  0
   41.7890  -20.3210   27.2200 N   0  0  0  0  0  0  0  0  0  0  0  0
   36.9500  -12.3770   27.4660 N   0  0  0  0  0  0  0  0  0  0  0  0
   47.4670  -22.3120   33.2070 N   0  0  0  0  0  0  0  0  0  0  0  0
   39.1250  -19.6340   28.3560 N   0  0  0  0  0  0  0  0  0  0  0  0
   39.6300  -18.2730   30.1390 O   0  0  0  0  0  0  0  0  0  0  0  0
   49.4620  -21.3230   32.4600 O   0  0  0  0  0  0  0  0  0  0  0  0
   49.4380  -22.5810   34.3690 O   0  0  0  0  0  0  0  0  0  0  0  0
   36.4971  -17.7755   29.8006 H   0  0  0  0  0  0  0  0  0  0  0  0
   37.7241  -16.5478   30.3713 H   0  0  0  0  0  0  0  0  0  0  0  0
   39.4997  -16.6567   26.9448 H   0  0  0  0  0  0  0  0  0  0  0  0
   39.5959  -15.8122   28.5446 H   0  0  0  0  0  0  0  0  0  0  0  0
   35.6691  -15.3866   29.8855 H   0  0  0  0  0  0  0  0  0  0  0  0
   35.5752  -16.1662   28.2525 H   0  0  0  0  0  0  0  0  0  0  0  0
   38.5696  -14.3252   26.8757 H   0  0  0  0  0  0  0  0  0  0  0  0
   37.3291  -15.5844   26.5006 H   0  0  0  0  0  0  0  0  0  0  0  0
   37.5869  -17.8768   27.6383 H   0  0  0  0  0  0  0  0  0  0  0  0
   41.9548  -21.2071   30.5048 H   0  0  0  0  0  0  0  0  0  0  0  0
   43.4503  -20.0718   25.9352 H   0  0  0  0  0  0  0  0  0  0  0  0
   39.4034  -22.0203   27.0979 H   0  0  0  0  0  0  0  0  0  0  0  0
   38.3018  -22.1764   28.5284 H   0  0  0  0  0  0  0  0  0  0  0  0
   42.2362  -26.3114   29.9624 H   0  0  0  0  0  0  0  0  0  0  0  0
   40.6160  -25.1706   31.4888 H   0  0  0  0  0  0  0  0  0  0  0  0
   42.5233  -25.4930   27.6092 H   0  0  0  0  0  0  0  0  0  0  0  0
   43.2393  -22.4127   31.3697 H   0  0  0  0  0  0  0  0  0  0  0  0
   46.2476  -19.9889   29.4001 H   0  0  0  0  0  0  0  0  0  0  0  0
   39.3034  -23.2077   30.6765 H   0  0  0  0  0  0  0  0  0  0  0  0
   41.1738  -23.5471   26.7874 H   0  0  0  0  0  0  0  0  0  0  0  0
   44.8829  -23.0124   33.1588 H   0  0  0  0  0  0  0  0  0  0  0  0
   47.9423  -20.7266   31.0880 H   0  0  0  0  0  0  0  0  0  0  0  0
   45.1648  -20.5631   27.6631 H   0  0  0  0  0  0  0  0  0  0  0  0
   37.7495  -14.2202   29.1967 H   0  0  0  0  0  0  0  0  0  0  0  0
   51.0017  -22.2504   35.7029 H   0  0  0  0  0  0  0  0  0  0  0  0
   51.4509  -23.0735   34.1708 H   0  0  0  0  0  0  0  0  0  0  0  0
   51.0794  -21.3160   34.1708 H   0  0  0  0  0  0  0  0  0  0  0  0
   35.5813  -13.1188   28.8364 H   0  0  0  0  0  0  0  0  0  0  0  0
   35.5063  -13.8300   27.1778 H   0  0  0  0  0  0  0  0  0  0  0  0
   39.8523  -20.8030   29.8930 H   0  0  0  0  0  0  0  0  0  0  0  0
   37.3371  -11.8348   28.2516 H   0  0  0  0  0  0  0  0  0  0  0  0
   37.7206  -12.7450   26.8901 H   0  0  0  0  0  0  0  0  0  0  0  0
   47.1050  -22.9008   33.9706 H   0  0  0  0  0  0  0  0  0  0  0  0
   38.5948  -19.7144   27.4766 H   0  0  0  0  0  0  0  0  0  0  0  0
 13 30  2  0
 13 24  1  0
 30  3  1  0
 10  8  1  0
 10 26  1  0
 31 28  1  0
  8 11  1  0
 21 17  1  0
 21  5  2  0
 24 25  2  0
 28 26  1  0
 14  5  1  0
 14 29  1  0
 17 15  2  0
 33 29  1  0
 33  2  1  0
 26  9  1  0
 11  2  1  0
 11  7  1  0
  3 29  1  0
  3 12  2  0
  5 20  1  0
  9  7  1  0
  2 34  2  0
 25 12  1  0
 25  1  1  0
 15 16  1  0
 20 16  2  0
 19  1  2  0
 19 23  1  0
  1 18  1  0
 23  4  2  0
 18 22  2  0
  4 22  1  0
  4 32  1  0
 35  6  2  0
 32  6  1  0
  6 36  1  0
 36 27  1  0
  7 37  1  0
  7 38  1  0
  8 39  1  0
  8 40  1  0
  9 41  1  0
  9 42  1  0
 10 43  1  0
 10 44  1  0
 11 45  1  0
 12 46  1  0
 13 47  1  0
 14 48  1  0
 14 49  1  0
 15 50  1  0
 16 51  1  0
 17 52  1  0
 18 53  1  0
 19 54  1  0
 20 55  1  0
 21 56  1  0
 22 57  1  0
 23 58  1  0
 24 59  1  0
 26 60  1  0
 27 61  1  0
 27 62  1  0
 27 63  1  0
 28 64  1  0
 28 65  1  0
 29 66  1  0
 31 67  1  0
 31 68  1  0
 32 69  1  0
 33 70  1  0
A    1
C13
A    2
C18
A    3
C17
A    4
C16
A    5
C15
A    6
C19
A    7
C20
A    8
C21
A    9
C22
A   10
C23
A   11
C24
A   12
C11
A   13
C12
A   14
C27
A   15
C1
A   16
C2
A   17
C3
A   18
C4
A   19
C5
A   20
C6
A   21
C7
A   22
C8
A   23
C9
A   24
C10
A   25
C14
A   26
C25
A   27
C26
A   28
C28
A   29
C29
A   30
N30
A   31
N31
A   32
N32
A   33
N33
A   34
O34
A   35
O35
A   36
O36
M  END
