5EXN_5SU_A_302
     RDKit          3D

 68 72  0  0  0  0  0  0  0  0999 V2000
   -3.0100   10.0650  -18.2730 C   0  0  0  0  0  0  0  0  0  0  0  0
   -0.0830    6.2040  -17.5340 C   0  0  0  0  0  0  0  0  0  0  0  0
   -0.6790    7.2120  -18.5010 C   0  0  0  0  0  0  0  0  0  0  0  0
    0.9860    5.3810  -17.9520 C   0  0  0  0  0  0  0  0  0  0  0  0
    1.5470    4.4360  -17.0800 C   0  0  0  0  0  0  0  0  0  0  0  0
    1.0580    4.3190  -15.7670 C   0  0  0  0  0  0  0  0  0  0  0  0
    0.0200    5.1320  -15.3460 C   0  0  0  0  0  0  0  0  0  0  0  0
   -0.5620    6.0500  -16.2220 C   0  0  0  0  0  0  0  0  0  0  0  0
    1.8000   10.8320  -11.2620 C   0  0  0  0  0  0  0  0  0  0  0  0
    2.3790   11.7090  -12.1910 C   0  0  0  0  0  0  0  0  0  0  0  0
   -6.4000   13.1190  -22.9240 C   0  0  0  0  0  0  0  0  0  0  0  0
   -5.0730   13.5220  -22.9290 C   0  0  0  0  0  0  0  0  0  0  0  0
    0.0140    9.3170  -17.3410 C   0  0  0  0  0  0  0  0  0  0  0  0
    0.9040    9.7570  -18.2450 N   0  0  0  0  0  0  0  0  0  0  0  0
    1.9670   10.4310  -17.7770 C   0  0  0  0  0  0  0  0  0  0  0  0
    2.1980   10.6620  -16.4340 C   0  0  0  0  0  0  0  0  0  0  0  0
    1.2630   10.2040  -15.4980 C   0  0  0  0  0  0  0  0  0  0  0  0
    0.1490    9.5260  -15.9970 C   0  0  0  0  0  0  0  0  0  0  0  0
    1.4170   10.4500  -14.0360 C   0  0  0  0  0  0  0  0  0  0  0  0
    2.1690   11.5280  -13.5500 C   0  0  0  0  0  0  0  0  0  0  0  0
    1.0110    9.7790  -11.7320 C   0  0  0  0  0  0  0  0  0  0  0  0
    0.8450    9.5840  -13.0940 C   0  0  0  0  0  0  0  0  0  0  0  0
    1.9630   10.8970   -9.8570 N   0  0  0  0  0  0  0  0  0  0  0  0
   -1.1410    8.5320  -17.8730 C   0  0  0  0  0  0  0  0  0  0  0  0
   -1.9810    9.2900  -18.7990 N   0  0  0  0  0  0  0  0  0  0  0  0
   -3.1470   10.2530  -17.0520 O   0  0  0  0  0  0  0  0  0  0  0  0
    2.7300   11.7840   -9.1700 C   0  0  0  0  0  0  0  0  0  0  0  0
    3.3260   12.7350   -9.6470 O   0  0  0  0  0  0  0  0  0  0  0  0
    2.7090   11.4660   -7.8700 O   0  0  0  0  0  0  0  0  0  0  0  0
    3.3760   12.4250   -6.9630 C   0  0  0  0  0  0  0  0  0  0  0  0
   -3.8570   10.7860  -19.2180 C   0  0  0  0  0  0  0  0  0  0  0  0
   -3.6080   11.0260  -20.4780 C   0  0  0  0  0  0  0  0  0  0  0  0
   -4.5180   11.7580  -21.3550 C   0  0  0  0  0  0  0  0  0  0  0  0
   -4.1220   12.8430  -22.1570 C   0  0  0  0  0  0  0  0  0  0  0  0
   -6.7730   12.0460  -22.1480 C   0  0  0  0  0  0  0  0  0  0  0  0
   -5.8660   11.3690  -21.3640 C   0  0  0  0  0  0  0  0  0  0  0  0
   -2.7420   13.2260  -22.2520 N   0  0  0  0  0  0  0  0  0  0  0  0
   -1.9220   13.3610  -23.2980 C   0  0  0  0  0  0  0  0  0  0  0  0
   -0.7340   13.7120  -22.8870 N   0  0  0  0  0  0  0  0  0  0  0  0
   -0.8270   13.7960  -21.5380 N   0  0  0  0  0  0  0  0  0  0  0  0
   -2.0300   13.5160  -21.1330 N   0  0  0  0  0  0  0  0  0  0  0  0
   -8.4290   11.5180  -22.1790 Cl  0  0  0  0  0  0  0  0  0  0  0  0
   -1.5486    6.7441  -18.9857 H   0  0  0  0  0  0  0  0  0  0  0  0
    0.1284    7.4752  -19.2002 H   0  0  0  0  0  0  0  0  0  0  0  0
    1.3832    5.4821  -18.9728 H   0  0  0  0  0  0  0  0  0  0  0  0
    2.3674    3.7882  -17.4227 H   0  0  0  0  0  0  0  0  0  0  0  0
    1.4986    3.5842  -15.0771 H   0  0  0  0  0  0  0  0  0  0  0  0
   -0.3494    5.0542  -14.3128 H   0  0  0  0  0  0  0  0  0  0  0  0
   -1.4091    6.6626  -15.8797 H   0  0  0  0  0  0  0  0  0  0  0  0
    3.0027   12.5444  -11.8400 H   0  0  0  0  0  0  0  0  0  0  0  0
   -7.1455   13.6510  -23.5333 H   0  0  0  0  0  0  0  0  0  0  0  0
   -4.7653   14.3809  -23.5435 H   0  0  0  0  0  0  0  0  0  0  0  0
    2.6950   10.8213  -18.5035 H   0  0  0  0  0  0  0  0  0  0  0  0
    3.1015   11.1968  -16.1060 H   0  0  0  0  0  0  0  0  0  0  0  0
   -0.6234    9.1584  -15.3054 H   0  0  0  0  0  0  0  0  0  0  0  0
    2.6021   12.2462  -14.2617 H   0  0  0  0  0  0  0  0  0  0  0  0
    0.5195    9.1019  -11.0179 H   0  0  0  0  0  0  0  0  0  0  0  0
    0.2494    8.7282  -13.4445 H   0  0  0  0  0  0  0  0  0  0  0  0
    1.4479   10.2013   -9.2988 H   0  0  0  0  0  0  0  0  0  0  0  0
   -1.7736    8.3007  -17.0033 H   0  0  0  0  0  0  0  0  0  0  0  0
   -1.8153    9.2513  -19.8148 H   0  0  0  0  0  0  0  0  0  0  0  0
    3.1782   12.1406   -5.9190 H   0  0  0  0  0  0  0  0  0  0  0  0
    4.4603   12.4110   -7.1477 H   0  0  0  0  0  0  0  0  0  0  0  0
    2.9856   13.4367   -7.1477 H   0  0  0  0  0  0  0  0  0  0  0  0
   -4.8105   11.1698  -18.8261 H   0  0  0  0  0  0  0  0  0  0  0  0
   -2.6621   10.6569  -20.9010 H   0  0  0  0  0  0  0  0  0  0  0  0
   -6.1983   10.5229  -20.7445 H   0  0  0  0  0  0  0  0  0  0  0  0
   -2.2057   13.2004  -24.3486 H   0  0  0  0  0  0  0  0  0  0  0  0
 38 39  2  0
 38 37  1  0
 12 11  2  0
 12 34  1  0
 11 35  1  0
 39 40  1  0
 37 34  1  0
 37 41  1  0
 42 35  1  0
 34 33  2  0
 35 36  2  0
 40 41  2  0
 36 33  1  0
 33 32  1  0
 32 31  2  0
 31  1  1  0
 25  1  1  0
 25 24  1  0
  3 24  1  0
  3  2  1  0
  1 26  2  0
 14 15  2  0
 14 13  1  0
  4  2  2  0
  4  5  1  0
 24 13  1  0
 15 16  1  0
  2  8  1  0
 13 18  2  0
  5  6  2  0
 16 17  2  0
  8  7  2  0
 18 17  1  0
  6  7  1  0
 17 19  1  0
 19 20  2  0
 19 22  1  0
 20 10  1  0
 22 21  2  0
 10  9  2  0
 21  9  1  0
  9 23  1  0
 23 27  1  0
 28 27  2  0
 27 29  1  0
 29 30  1  0
  3 43  1  0
  3 44  1  0
  4 45  1  0
  5 46  1  0
  6 47  1  0
  7 48  1  0
  8 49  1  0
 10 50  1  0
 11 51  1  0
 12 52  1  0
 15 53  1  0
 16 54  1  0
 18 55  1  0
 20 56  1  0
 21 57  1  0
 22 58  1  0
 23 59  1  0
 24 60  1  0
 25 61  1  0
 30 62  1  0
 30 63  1  0
 30 64  1  0
 31 65  1  0
 32 66  1  0
 36 67  1  0
 38 68  1  0
A    1
C18
A    2
C16
A    3
C15
A    4
C20
A    5
C21
A    6
C22
A    7
C23
A    8
C24
A    9
C11
A   10
C12
A   11
C34
A   12
C33
A   13
C1
A   14
N2
A   15
C3
A   16
C4
A   17
C5
A   18
C6
A   19
C7
A   20
C8
A   21
C9
A   22
C10
A   23
N13
A   24
C14
A   25
N17
A   26
O19
A   27
C25
A   28
O26
A   29
O27
A   30
C28
A   31
C29
A   32
C30
A   33
C31
A   34
C32
A   35
C35
A   36
C36
A   37
N37
A   38
C38
A   39
N39
A   40
N40
A   41
N41
A   42
CL4
M  END
