5EZH_841_A_301
     RDKit          3D

 45 47  0  0  0  0  0  0  0  0999 V2000
   21.8180   31.5440   -1.5030 O   0  0  0  0  0  0  0  0  0  0  0  0
   20.7300   31.8170   -0.9430 C   0  0  0  0  0  0  0  0  0  0  0  0
   19.6200   31.7760   -1.6470 N   0  0  0  0  0  0  0  0  0  0  0  0
   19.6720   31.3630   -3.0960 C   0  0  0  0  0  0  0  0  0  0  0  0
   18.2910   31.9010   -3.4600 C   0  0  0  0  0  0  0  0  0  0  0  0
   17.3880   31.8410   -2.2460 C   0  0  0  0  0  0  0  0  0  0  0  0
   18.3230   32.1830   -1.1140 C   0  0  0  0  0  0  0  0  0  0  0  0
   20.6910   32.1290    0.3830 N   0  0  0  0  0  0  0  0  0  0  0  0
   21.9220   32.4020    1.1840 C   0  0  0  0  0  0  0  0  0  0  0  0
   22.6270   33.7390    0.7830 C   0  0  0  0  0  0  0  0  0  0  0  0
   23.3300   34.2440    2.0460 C   0  0  0  0  0  0  0  0  0  0  0  0
   23.9840   35.5950    1.7490 C   0  0  0  0  0  0  0  0  0  0  0  0
   21.6380   34.7980    0.2840 C   0  0  0  0  0  0  0  0  0  0  0  0
   22.3840   36.1460    0.0110 C   0  0  0  0  0  0  0  0  0  0  0  0
   22.8660   36.4280    1.3700 N   0  0  0  0  0  0  0  0  0  0  0  0
   22.0680   37.1450    2.2960 C   0  0  0  0  0  0  0  0  0  0  0  0
   22.4430   37.3070    3.6470 C   0  0  0  0  0  0  0  0  0  0  0  0
   21.5930   37.9920    4.5580 C   0  0  0  0  0  0  0  0  0  0  0  0
   20.8640   37.6100    1.8540 N   0  0  0  0  0  0  0  0  0  0  0  0
   19.9920   38.2480    2.6920 C   0  0  0  0  0  0  0  0  0  0  0  0
   20.3360   38.4800    4.0810 C   0  0  0  0  0  0  0  0  0  0  0  0
   19.7522   30.2736   -3.2255 H   0  0  0  0  0  0  0  0  0  0  0  0
   20.5248   31.7212   -3.6913 H   0  0  0  0  0  0  0  0  0  0  0  0
   18.3815   32.9438   -3.7981 H   0  0  0  0  0  0  0  0  0  0  0  0
   17.8609   31.2892   -4.2666 H   0  0  0  0  0  0  0  0  0  0  0  0
   16.5731   32.5760   -2.3221 H   0  0  0  0  0  0  0  0  0  0  0  0
   16.8922   30.8671   -2.1209 H   0  0  0  0  0  0  0  0  0  0  0  0
   18.3036   33.2604   -0.8931 H   0  0  0  0  0  0  0  0  0  0  0  0
   18.0633   31.6915   -0.1648 H   0  0  0  0  0  0  0  0  0  0  0  0
   19.7753   32.1786    0.8521 H   0  0  0  0  0  0  0  0  0  0  0  0
   21.6437   32.4574    2.2468 H   0  0  0  0  0  0  0  0  0  0  0  0
   22.6309   31.5841    0.9876 H   0  0  0  0  0  0  0  0  0  0  0  0
   23.3262   33.5570   -0.0464 H   0  0  0  0  0  0  0  0  0  0  0  0
   22.5942   34.3610    2.8553 H   0  0  0  0  0  0  0  0  0  0  0  0
   24.0984   33.5207    2.3567 H   0  0  0  0  0  0  0  0  0  0  0  0
   24.7089   35.5097    0.9261 H   0  0  0  0  0  0  0  0  0  0  0  0
   24.5507   35.9963    2.6021 H   0  0  0  0  0  0  0  0  0  0  0  0
   20.8626   34.9597    1.0473 H   0  0  0  0  0  0  0  0  0  0  0  0
   21.1765   34.4468   -0.6507 H   0  0  0  0  0  0  0  0  0  0  0  0
   23.2125   36.0208   -0.7017 H   0  0  0  0  0  0  0  0  0  0  0  0
   21.7727   36.9383   -0.4456 H   0  0  0  0  0  0  0  0  0  0  0  0
   23.4023   36.8993    3.9986 H   0  0  0  0  0  0  0  0  0  0  0  0
   21.8950   38.1431    5.6049 H   0  0  0  0  0  0  0  0  0  0  0  0
   19.0191   38.5888    2.3081 H   0  0  0  0  0  0  0  0  0  0  0  0
   19.6483   39.0173    4.7506 H   0  0  0  0  0  0  0  0  0  0  0  0
  5  4  1  0
  5  6  1  0
  4  3  1  0
  6  7  1  0
  3  7  1  0
  3  2  1  0
  1  2  2  0
  2  8  1  0
 14 13  1  0
 14 15  1  0
 13 10  1  0
  8  9  1  0
 10  9  1  0
 10 11  1  0
 15 12  1  0
 15 16  1  0
 12 11  1  0
 19 16  1  0
 19 20  2  0
 16 17  2  0
 20 21  1  0
 17 18  1  0
 21 18  2  0
  4 22  1  0
  4 23  1  0
  5 24  1  0
  5 25  1  0
  6 26  1  0
  6 27  1  0
  7 28  1  0
  7 29  1  0
  8 30  1  0
  9 31  1  0
  9 32  1  0
 10 33  1  0
 11 34  1  0
 11 35  1  0
 12 36  1  0
 12 37  1  0
 13 38  1  0
 13 39  1  0
 14 40  1  0
 14 41  1  0
 17 42  1  0
 18 43  1  0
 20 44  1  0
 21 45  1  0
A    1
O
A    2
C11
A    3
N3
A    4
C15
A    5
C14
A    6
C13
A    7
C12
A    8
N2
A    9
C10
A   10
C7
A   11
C6
A   12
C5
A   13
C8
A   14
C9
A   15
N1
A   16
C3
A   17
C4
A   18
C
A   19
N
A   20
C2
A   21
C1
M  END
