5F08_5TG_A_301
     RDKit          3D

 50 52  0  0  0  0  0  0  0  0999 V2000
   28.8630   14.6990   -1.5790 N   0  0  0  0  0  0  0  0  0  0  0  0
   29.2060   15.6880   -0.5520 C   0  0  0  0  0  0  0  0  0  0  0  0
   27.7300   13.3690   -0.1060 O   0  0  0  0  0  0  0  0  0  0  0  0
   28.1870   13.6240   -1.2820 C   0  0  0  0  0  0  0  0  0  0  0  0
   29.2830   14.9780   -2.9620 C   0  0  0  0  0  0  0  0  0  0  0  0
   29.9980   16.3270   -2.8030 C   0  0  0  0  0  0  0  0  0  0  0  0
   30.1330   16.6090   -1.3100 C   0  0  0  0  0  0  0  0  0  0  0  0
   28.0700   12.6480   -2.4270 C   0  0  0  0  0  0  0  0  0  0  0  0
   27.2630   11.4600   -1.9710 C   0  0  0  0  0  0  0  0  0  0  0  0
   27.0180   10.4370   -3.0610 C   0  0  0  0  0  0  0  0  0  0  0  0
   26.2810    9.3370   -2.3490 C   0  0  0  0  0  0  0  0  0  0  0  0
   25.9170    8.2580   -3.3730 C   0  0  0  0  0  0  0  0  0  0  0  0
   27.0880    7.7910   -4.0990 N   0  0  0  0  0  0  0  0  0  0  0  0
   27.8970    8.7690   -4.7910 C   0  0  0  0  0  0  0  0  0  0  0  0
   28.2800    9.8430   -3.7350 C   0  0  0  0  0  0  0  0  0  0  0  0
   27.2440    6.3360   -4.0540 C   0  0  0  0  0  0  0  0  0  0  0  0
   28.3150    5.6620   -4.5420 C   0  0  0  0  0  0  0  0  0  0  0  0
   28.3590    4.2510   -4.4580 C   0  0  0  0  0  0  0  0  0  0  0  0
   27.2940    3.5220   -3.8790 C   0  0  0  0  0  0  0  0  0  0  0  0
   26.1860    4.1970   -3.3990 C   0  0  0  0  0  0  0  0  0  0  0  0
   26.2090    5.5940   -3.4970 C   0  0  0  0  0  0  0  0  0  0  0  0
   27.3320    2.0020   -3.7880 C   0  0  0  0  0  0  0  0  0  0  0  0
   28.3129   16.2224   -0.1960 H   0  0  0  0  0  0  0  0  0  0  0  0
   29.6521   15.2534    0.3547 H   0  0  0  0  0  0  0  0  0  0  0  0
   28.4171   15.0599   -3.6354 H   0  0  0  0  0  0  0  0  0  0  0  0
   29.9089   14.1902   -3.4065 H   0  0  0  0  0  0  0  0  0  0  0  0
   30.9944   16.2795   -3.2666 H   0  0  0  0  0  0  0  0  0  0  0  0
   29.4247   17.1265   -3.2951 H   0  0  0  0  0  0  0  0  0  0  0  0
   31.1711   16.4306   -0.9930 H   0  0  0  0  0  0  0  0  0  0  0  0
   29.8685   17.6565   -1.1033 H   0  0  0  0  0  0  0  0  0  0  0  0
   29.0729   12.3175   -2.7352 H   0  0  0  0  0  0  0  0  0  0  0  0
   27.5738   13.1315   -3.2814 H   0  0  0  0  0  0  0  0  0  0  0  0
   26.2894   11.8202   -1.6074 H   0  0  0  0  0  0  0  0  0  0  0  0
   27.8450   10.9585   -1.1838 H   0  0  0  0  0  0  0  0  0  0  0  0
   26.4844   10.9197   -3.8930 H   0  0  0  0  0  0  0  0  0  0  0  0
   25.3651    9.7391   -1.8914 H   0  0  0  0  0  0  0  0  0  0  0  0
   26.9134    8.9090   -1.5573 H   0  0  0  0  0  0  0  0  0  0  0  0
   25.1955    8.6758   -4.0905 H   0  0  0  0  0  0  0  0  0  0  0  0
   25.4841    7.4033   -2.8326 H   0  0  0  0  0  0  0  0  0  0  0  0
   28.8024    8.2952   -5.1982 H   0  0  0  0  0  0  0  0  0  0  0  0
   27.3507    9.2149   -5.6352 H   0  0  0  0  0  0  0  0  0  0  0  0
   28.9142    9.3796   -2.9649 H   0  0  0  0  0  0  0  0  0  0  0  0
   28.8201   10.6555   -4.2430 H   0  0  0  0  0  0  0  0  0  0  0  0
   29.1486    6.2123   -5.0027 H   0  0  0  0  0  0  0  0  0  0  0  0
   29.2347    3.7122   -4.8489 H   0  0  0  0  0  0  0  0  0  0  0  0
   25.3293    3.6630   -2.9620 H   0  0  0  0  0  0  0  0  0  0  0  0
   25.3425    6.1456   -3.1034 H   0  0  0  0  0  0  0  0  0  0  0  0
   27.3396    1.6980   -2.7309 H   0  0  0  0  0  0  0  0  0  0  0  0
   26.4441    1.5827   -4.2837 H   0  0  0  0  0  0  0  0  0  0  0  0
   28.2398    1.6276   -4.2837 H   0  0  0  0  0  0  0  0  0  0  0  0
 14 13  1  0
 14 15  1  0
 17 18  2  0
 17 16  1  0
 18 19  1  0
 13 16  1  0
 13 12  1  0
 16 21  2  0
 19 22  1  0
 19 20  2  0
 15 10  1  0
 21 20  1  0
 12 11  1  0
 10 11  1  0
 10  9  1  0
  5  6  1  0
  5  1  1  0
  6  7  1  0
  8  9  1  0
  8  4  1  0
  1  4  1  0
  1  2  1  0
  7  2  1  0
  4  3  2  0
  2 23  1  0
  2 24  1  0
  5 25  1  0
  5 26  1  0
  6 27  1  0
  6 28  1  0
  7 29  1  0
  7 30  1  0
  8 31  1  0
  8 32  1  0
  9 33  1  0
  9 34  1  0
 10 35  1  0
 11 36  1  0
 11 37  1  0
 12 38  1  0
 12 39  1  0
 14 40  1  0
 14 41  1  0
 15 42  1  0
 15 43  1  0
 17 44  1  0
 18 45  1  0
 20 46  1  0
 21 47  1  0
 22 48  1  0
 22 49  1  0
 22 50  1  0
A    1
N
A    2
C
A    3
O2
A    4
C4
A    5
C3
A    6
C2
A    7
C1
A    8
C5
A    9
C6
A   10
C7
A   11
C11
A   12
C10
A   13
N1
A   14
C9
A   15
C8
A   16
C12
A   17
C17
A   18
C16
A   19
C15
A   20
C14
A   21
C13
A   22
C18
M  END
