5F20_5U4_A_1200
     RDKit          3D

 40 43  0  0  0  0  0  0  0  0999 V2000
   20.2340  -19.5720    7.6380 C   0  0  0  0  0  0  0  0  0  0  0  0
   20.3600  -20.1390    6.3770 C   0  0  0  0  0  0  0  0  0  0  0  0
   21.6130  -20.4560    5.8870 C   0  0  0  0  0  0  0  0  0  0  0  0
   22.7470  -20.1990    6.6600 C   0  0  0  0  0  0  0  0  0  0  0  0
   25.3930  -22.3400    5.4470 C   0  0  0  0  0  0  0  0  0  0  0  0
   25.0430  -25.9200    4.9800 C   0  0  0  0  0  0  0  0  0  0  0  0
   27.2470  -26.9150    4.4470 C   0  0  0  0  0  0  0  0  0  0  0  0
   26.4110  -21.3860    5.0250 C   0  0  0  0  0  0  0  0  0  0  0  0
   27.3490  -19.3450    4.6000 C   0  0  0  0  0  0  0  0  0  0  0  0
   24.8960  -19.5950    5.6850 C   0  0  0  0  0  0  0  0  0  0  0  0
   23.7540  -19.3200    8.8680 C   0  0  0  0  0  0  0  0  0  0  0  0
   22.6000  -19.6280    7.9460 C   0  0  0  0  0  0  0  0  0  0  0  0
   21.3430  -19.3140    8.4220 C   0  0  0  0  0  0  0  0  0  0  0  0
   23.9970  -20.5490    6.1050 N   0  0  0  0  0  0  0  0  0  0  0  0
   24.2260  -21.8850    5.9610 C   0  0  0  0  0  0  0  0  0  0  0  0
   25.5940  -23.7910    5.2250 C   0  0  0  0  0  0  0  0  0  0  0  0
   24.5350  -24.7110    5.2480 C   0  0  0  0  0  0  0  0  0  0  0  0
   26.3650  -25.7850    4.7690 N   0  0  0  0  0  0  0  0  0  0  0  0
   26.7080  -24.4330    4.9180 N   0  0  0  0  0  0  0  0  0  0  0  0
   27.6390  -21.5340    4.4790 N   0  0  0  0  0  0  0  0  0  0  0  0
   28.1900  -20.2740    4.2340 N   0  0  0  0  0  0  0  0  0  0  0  0
   27.6100  -17.9880    4.4880 N   0  0  0  0  0  0  0  0  0  0  0  0
   26.1480  -20.0080    5.1300 C   0  0  0  0  0  0  0  0  0  0  0  0
   24.6520  -18.3880    5.7970 O   0  0  0  0  0  0  0  0  0  0  0  0
   19.2330  -19.3234    8.0204 H   0  0  0  0  0  0  0  0  0  0  0  0
   19.4646  -20.3356    5.7691 H   0  0  0  0  0  0  0  0  0  0  0  0
   21.7165  -20.9097    4.8903 H   0  0  0  0  0  0  0  0  0  0  0  0
   24.4769  -26.8622    4.9392 H   0  0  0  0  0  0  0  0  0  0  0  0
   27.6070  -27.3762    5.3785 H   0  0  0  0  0  0  0  0  0  0  0  0
   26.6892  -27.6600    3.8607 H   0  0  0  0  0  0  0  0  0  0  0  0
   28.1052  -26.5548    3.8607 H   0  0  0  0  0  0  0  0  0  0  0  0
   23.4221  -19.4086    9.9130 H   0  0  0  0  0  0  0  0  0  0  0  0
   24.5722  -20.0312    8.6816 H   0  0  0  0  0  0  0  0  0  0  0  0
   24.1090  -18.2957    8.6816 H   0  0  0  0  0  0  0  0  0  0  0  0
   21.2246  -18.8618    9.4178 H   0  0  0  0  0  0  0  0  0  0  0  0
   23.4515  -22.6038    6.2668 H   0  0  0  0  0  0  0  0  0  0  0  0
   23.4785  -24.4805    5.4497 H   0  0  0  0  0  0  0  0  0  0  0  0
   28.0963  -22.4342    4.2757 H   0  0  0  0  0  0  0  0  0  0  0  0
   27.7206  -17.4132    5.3355 H   0  0  0  0  0  0  0  0  0  0  0  0
   27.6933  -17.5547    3.5573 H   0  0  0  0  0  0  0  0  0  0  0  0
 21 20  1  0
 21  9  2  0
  7 18  1  0
 20  8  1  0
 22  9  1  0
  9 23  1  0
 18 19  1  0
 18  6  1  0
 19 16  2  0
  6 17  2  0
  8 23  2  0
  8  5  1  0
 23 10  1  0
 16 17  1  0
 16  5  1  0
  5 15  2  0
 10 24  2  0
 10 14  1  0
  3  2  1  0
  3  4  2  0
 15 14  1  0
 14  4  1  0
  2  1  2  0
  4 12  1  0
  1 13  1  0
 12 13  2  0
 12 11  1  0
  1 25  1  0
  2 26  1  0
  3 27  1  0
  6 28  1  0
  7 29  1  0
  7 30  1  0
  7 31  1  0
 11 32  1  0
 11 33  1  0
 11 34  1  0
 13 35  1  0
 15 36  1  0
 17 37  1  0
 20 38  1  0
 22 39  1  0
 22 40  1  0
A    1
C4
A    2
C5
A    3
C6
A    4
C7
A    5
C10
A    6
C13
A    7
C15
A    8
C17
A    9
C21
A   10
C24
A   11
C1
A   12
C2
A   13
C3
A   14
N8
A   15
C9
A   16
C11
A   17
C12
A   18
N14
A   19
N16
A   20
N18
A   21
N20
A   22
N22
A   23
C23
A   24
O25
M  END
