5F36_5UE_A_1201
     RDKit          3D

 26 26  0  0  0  0  0  0  0  0999 V2000
   23.3370  -44.5650  147.0950 C   0  0  0  0  0  0  0  0  0  0  0  0
   31.6760  -43.7010  151.9130 C   0  0  0  0  0  0  0  0  0  0  0  0
   31.1330  -42.8330  150.7800 C   0  0  0  0  0  0  0  0  0  0  0  0
   30.1470  -43.6490  149.9480 C   0  0  0  0  0  0  0  0  0  0  0  0
   30.5300  -44.5730  149.3130 O   0  0  0  0  0  0  0  0  0  0  0  0
   28.7470  -43.2680  149.9520 N   0  0  0  0  0  0  0  0  0  0  0  0
   27.7190  -43.9640  149.2000 C   0  0  0  0  0  0  0  0  0  0  0  0
   26.5260  -43.4750  148.9320 N   0  0  0  0  0  0  0  0  0  0  0  0
   25.6930  -44.2230  148.2390 C   0  0  0  0  0  0  0  0  0  0  0  0
   26.1490  -45.4700  147.8510 C   0  0  0  0  0  0  0  0  0  0  0  0
   27.7540  -45.5390  148.4870 S   0  0  0  0  0  0  0  0  0  0  0  0
   24.3030  -43.7030  147.9040 C   0  0  0  0  0  0  0  0  0  0  0  0
   23.9910  -42.6240  148.2880 O   0  0  0  0  0  0  0  0  0  0  0  0
   32.2210  -42.3790  149.9310 N   0  0  0  0  0  0  0  0  0  0  0  0
   22.6949  -45.1379  147.7802 H   0  0  0  0  0  0  0  0  0  0  0  0
   22.7120  -43.9189  146.4609 H   0  0  0  0  0  0  0  0  0  0  0  0
   23.9080  -45.2592  146.4609 H   0  0  0  0  0  0  0  0  0  0  0  0
   31.3983  -43.2571  152.8804 H   0  0  0  0  0  0  0  0  0  0  0  0
   31.2490  -44.7119  151.8374 H   0  0  0  0  0  0  0  0  0  0  0  0
   32.7719  -43.7593  151.8374 H   0  0  0  0  0  0  0  0  0  0  0  0
   30.6248  -41.9570  151.2094 H   0  0  0  0  0  0  0  0  0  0  0  0
   28.4665  -42.4568  150.5213 H   0  0  0  0  0  0  0  0  0  0  0  0
   25.6147  -46.2382  147.2727 H   0  0  0  0  0  0  0  0  0  0  0  0
   33.0018  -42.0532  150.5184 H   0  0  0  0  0  0  0  0  0  0  0  0
   32.5401  -43.1571  149.3363 H   0  0  0  0  0  0  0  0  0  0  0  0
   31.8924  -41.6048  149.3363 H   0  0  0  0  0  0  0  0  0  0  0  0
  1 12  1  0
 10  9  2  0
 10 11  1  0
 12  9  1  0
 12 13  2  0
  9  8  1  0
 11  7  1  0
  8  7  2  0
  7  6  1  0
  5  4  2  0
 14  3  1  0
  4  6  1  0
  4  3  1  0
  3  2  1  0
  1 15  1  0
  1 16  1  0
  1 17  1  0
  2 18  1  0
  2 19  1  0
  2 20  1  0
  3 21  1  0
  6 22  1  0
 10 23  1  0
 14 24  1  0
 14 25  1  0
 14 26  1  0
M  CHG  1  14   1
A    1
C13
A    2
C01
A    3
C02
A    4
C03
A    5
O04
A    6
N05
A    7
C06
A    8
N07
A    9
C08
A   10
C09
A   11
S10
A   12
C11
A   13
O12
A   14
N14
M  END
