5F37_N5J_A_403
     RDKit          3D

 16 17  0  0  0  0  0  0  0  0999 V2000
   -0.1190 -105.0600   16.0500 O   0  0  0  0  0  0  0  0  0  0  0  0
    1.0570 -105.0830   16.3900 C   0  0  0  0  0  0  0  0  0  0  0  0
    1.7050 -103.9730   16.8340 N   0  0  0  0  0  0  0  0  0  0  0  0
    2.9950 -103.9810   17.2340 C   0  0  0  0  0  0  0  0  0  0  0  0
    3.7680 -105.0350   17.2440 N   0  0  0  0  0  0  0  0  0  0  0  0
    3.1980 -106.2260   16.8010 C   0  0  0  0  0  0  0  0  0  0  0  0
    3.4460 -108.5820   16.3180 N   0  0  0  0  0  0  0  0  0  0  0  0
    3.9170 -107.4080   16.7450 C   0  0  0  0  0  0  0  0  0  0  0  0
    2.1760 -108.6120   15.9200 C   0  0  0  0  0  0  0  0  0  0  0  0
    1.3460 -107.5120   15.9240 C   0  0  0  0  0  0  0  0  0  0  0  0
    1.8690 -106.3020   16.3690 C   0  0  0  0  0  0  0  0  0  0  0  0
    1.1871 -103.0833   16.8668 H   0  0  0  0  0  0  0  0  0  0  0  0
    3.4274 -103.0295   17.5770 H   0  0  0  0  0  0  0  0  0  0  0  0
    4.9641 -107.3771   17.0805 H   0  0  0  0  0  0  0  0  0  0  0  0
    1.7656 -109.5698   15.5677 H   0  0  0  0  0  0  0  0  0  0  0  0
    0.3021 -107.5883   15.5858 H   0  0  0  0  0  0  0  0  0  0  0  0
  1  2  2  0
  2  3  1  0
  2 11  1  0
  3  4  1  0
  4  5  2  0
  5  6  1  0
  6  8  1  0
  6 11  2  0
  7  8  2  0
  7  9  1  0
  9 10  2  0
 10 11  1  0
  3 12  1  0
  4 13  1  0
  8 14  1  0
  9 15  1  0
 10 16  1  0
A    1
O
A    2
C1
A    3
N1
A    4
C2
A    5
N2
A    6
C3
A    7
N3
A    8
C4
A    9
C5
A   10
C6
A   11
C7
M  END
