2C6X_COZ_A_1365
     RDKit          3D

 84 86  0  0  0  0  0  0  0  0999 V2000
  -15.9250   -8.6390    3.3480 N   0  0  0  0  0  0  0  0  0  0  0  0
  -17.2180   -8.3570    3.1270 C   0  0  0  0  0  0  0  0  0  0  0  0
  -17.7470   -7.2020    3.5530 N   0  0  0  0  0  0  0  0  0  0  0  0
  -16.9860   -6.2990    4.2160 C   0  0  0  0  0  0  0  0  0  0  0  0
  -15.6490   -6.5670    4.4520 C   0  0  0  0  0  0  0  0  0  0  0  0
  -15.1230   -7.7690    4.0040 C   0  0  0  0  0  0  0  0  0  0  0  0
  -13.8470   -8.0650    4.2360 N   0  0  0  0  0  0  0  0  0  0  0  0
  -15.1350   -5.5420    5.1110 N   0  0  0  0  0  0  0  0  0  0  0  0
  -16.1070   -4.6470    5.2950 C   0  0  0  0  0  0  0  0  0  0  0  0
  -17.2450   -5.1040    4.7510 N   0  0  0  0  0  0  0  0  0  0  0  0
  -18.5500   -4.3690    4.7740 C   0  0  0  0  0  0  0  0  0  0  0  0
  -19.8170   -5.1960    4.8770 C   0  0  0  0  0  0  0  0  0  0  0  0
  -20.1440   -5.7980    3.6210 O   0  0  0  0  0  0  0  0  0  0  0  0
  -20.8520   -4.1720    5.2800 C   0  0  0  0  0  0  0  0  0  0  0  0
  -21.3350   -3.5120    4.0750 O   0  0  0  0  0  0  0  0  0  0  0  0
  -22.9360   -3.7500    3.8130 P   0  0  0  0  0  0  0  0  0  0  0  0
  -23.7960   -4.0330    5.1480 O   0  0  0  0  0  0  0  0  0  0  0  0
  -23.6010   -2.6540    2.8320 O   0  0  0  0  0  0  0  0  0  0  0  0
  -23.0210   -5.0220    3.0470 O   0  0  0  0  0  0  0  0  0  0  0  0
  -20.0650   -3.1410    6.1440 C   0  0  0  0  0  0  0  0  0  0  0  0
  -18.6490   -3.5500    5.9610 O   0  0  0  0  0  0  0  0  0  0  0  0
  -20.3960   -2.6880    7.5440 C   0  0  0  0  0  0  0  0  0  0  0  0
  -19.4910   -1.6420    7.9460 O   0  0  0  0  0  0  0  0  0  0  0  0
  -18.6150   -2.0990    9.2410 P   0  0  0  0  0  0  0  0  0  0  0  0
  -19.4380   -2.9360   10.3460 O   0  0  0  0  0  0  0  0  0  0  0  0
  -17.6390   -3.0740    8.7130 O   0  0  0  0  0  0  0  0  0  0  0  0
  -17.7240   -0.9030    9.8660 O   0  0  0  0  0  0  0  0  0  0  0  0
  -16.3720   -0.6710    9.0100 P   0  0  0  0  0  0  0  0  0  0  0  0
  -16.5090   -1.0530    7.4520 O   0  0  0  0  0  0  0  0  0  0  0  0
  -16.1860    0.7980    8.9980 O   0  0  0  0  0  0  0  0  0  0  0  0
  -15.0390   -1.2550    9.7450 O   0  0  0  0  0  0  0  0  0  0  0  0
  -13.8650   -3.3970    9.5710 C   0  0  0  0  0  0  0  0  0  0  0  0
  -14.2560   -2.0720    8.8570 C   0  0  0  0  0  0  0  0  0  0  0  0
  -12.6760   -3.1720   10.5310 C   0  0  0  0  0  0  0  0  0  0  0  0
  -14.9840   -4.3210    9.9940 C   0  0  0  0  0  0  0  0  0  0  0  0
  -13.1810   -4.1900    8.3970 C   0  0  0  0  0  0  0  0  0  0  0  0
  -14.0510   -4.2150    7.2610 O   0  0  0  0  0  0  0  0  0  0  0  0
  -12.8000   -5.6620    8.7530 C   0  0  0  0  0  0  0  0  0  0  0  0
  -13.6590   -6.4550    9.1360 O   0  0  0  0  0  0  0  0  0  0  0  0
  -11.5120   -5.9900    8.5880 N   0  0  0  0  0  0  0  0  0  0  0  0
  -11.0340   -7.3530    8.8710 C   0  0  0  0  0  0  0  0  0  0  0  0
  -10.3720   -7.4200   10.2510 C   0  0  0  0  0  0  0  0  0  0  0  0
   -8.9340   -6.8990   10.2440 C   0  0  0  0  0  0  0  0  0  0  0  0
   -8.6530   -5.7790    9.8250 O   0  0  0  0  0  0  0  0  0  0  0  0
   -8.0590   -7.7670   10.7350 N   0  0  0  0  0  0  0  0  0  0  0  0
   -6.6210   -7.5170   10.8370 C   0  0  0  0  0  0  0  0  0  0  0  0
   -6.0740   -8.3990   11.9510 C   0  0  0  0  0  0  0  0  0  0  0  0
   -6.4660  -10.1690   11.6990 S   0  0  0  0  0  0  0  0  0  0  0  0
  -17.8497   -9.0808    2.5911 H   0  0  0  0  0  0  0  0  0  0  0  0
  -13.5046   -8.1444    5.2042 H   0  0  0  0  0  0  0  0  0  0  0  0
  -13.2015   -8.2147    3.4475 H   0  0  0  0  0  0  0  0  0  0  0  0
  -15.9930   -3.6832    5.8128 H   0  0  0  0  0  0  0  0  0  0  0  0
  -18.5137   -3.8487    3.8055 H   0  0  0  0  0  0  0  0  0  0  0  0
  -19.7354   -6.0334    5.5856 H   0  0  0  0  0  0  0  0  0  0  0  0
  -20.6105   -6.6569    3.7782 H   0  0  0  0  0  0  0  0  0  0  0  0
  -21.7072   -4.6073    5.8178 H   0  0  0  0  0  0  0  0  0  0  0  0
  -24.0312   -1.9450    3.3727 H   0  0  0  0  0  0  0  0  0  0  0  0
  -23.0719   -5.7839    3.6771 H   0  0  0  0  0  0  0  0  0  0  0  0
  -20.4141   -2.1704    5.7619 H   0  0  0  0  0  0  0  0  0  0  0  0
  -21.4279   -2.3079    7.5703 H   0  0  0  0  0  0  0  0  0  0  0  0
  -20.2963   -3.5390    8.2338 H   0  0  0  0  0  0  0  0  0  0  0  0
  -17.1849   -3.5276    9.4668 H   0  0  0  0  0  0  0  0  0  0  0  0
  -16.1436    1.1329    9.9287 H   0  0  0  0  0  0  0  0  0  0  0  0
  -14.8451   -2.3018    7.9569 H   0  0  0  0  0  0  0  0  0  0  0  0
  -13.3429   -1.5286    8.5724 H   0  0  0  0  0  0  0  0  0  0  0  0
  -13.0271   -3.2384   11.5714 H   0  0  0  0  0  0  0  0  0  0  0  0
  -11.9101   -3.9412   10.3526 H   0  0  0  0  0  0  0  0  0  0  0  0
  -12.2441   -2.1762   10.3526 H   0  0  0  0  0  0  0  0  0  0  0  0
  -15.0316   -4.3603   11.0923 H   0  0  0  0  0  0  0  0  0  0  0  0
  -15.9392   -3.9450    9.5988 H   0  0  0  0  0  0  0  0  0  0  0  0
  -14.7955   -5.3301    9.5988 H   0  0  0  0  0  0  0  0  0  0  0  0
  -12.2436   -3.6548    8.1853 H   0  0  0  0  0  0  0  0  0  0  0  0
  -14.9922   -4.2420    7.5667 H   0  0  0  0  0  0  0  0  0  0  0  0
  -10.8456   -5.2773    8.2579 H   0  0  0  0  0  0  0  0  0  0  0  0
  -11.8870   -8.0471    8.8458 H   0  0  0  0  0  0  0  0  0  0  0  0
  -10.2914   -7.6323    8.1090 H   0  0  0  0  0  0  0  0  0  0  0  0
  -10.9622   -6.8136   10.9538 H   0  0  0  0  0  0  0  0  0  0  0  0
  -10.3398   -8.4775   10.5521 H   0  0  0  0  0  0  0  0  0  0  0  0
   -8.4149   -8.6753   11.0656 H   0  0  0  0  0  0  0  0  0  0  0  0
   -6.1291   -7.7675    9.8855 H   0  0  0  0  0  0  0  0  0  0  0  0
   -6.4297   -6.4564   11.0572 H   0  0  0  0  0  0  0  0  0  0  0  0
   -4.9810   -8.2816   11.9895 H   0  0  0  0  0  0  0  0  0  0  0  0
   -6.5478   -8.0821   12.8918 H   0  0  0  0  0  0  0  0  0  0  0  0
   -6.6023  -10.7842   12.9155 H   0  0  0  0  0  0  0  0  0  0  0  0
  1  2  2  0
  1  6  1  0
  2  3  1  0
  3  4  2  0
  4  5  1  0
  4 10  1  0
  5  6  2  0
  5  8  1  0
  6  7  1  0
  8  9  2  0
  9 10  1  0
 10 11  1  0
 11 12  1  0
 11 21  1  0
 12 13  1  0
 12 14  1  0
 14 15  1  0
 14 20  1  0
 15 16  1  0
 16 17  2  0
 16 18  1  0
 16 19  1  0
 20 21  1  0
 20 22  1  0
 22 23  1  0
 23 24  1  0
 24 25  2  0
 24 26  1  0
 24 27  1  0
 27 28  1  0
 28 29  2  0
 28 30  1  0
 28 31  1  0
 31 33  1  0
 32 33  1  0
 32 34  1  0
 32 35  1  0
 32 36  1  0
 36 37  1  0
 36 38  1  0
 38 39  2  0
 38 40  1  0
 40 41  1  0
 41 42  1  0
 42 43  1  0
 43 44  2  0
 43 45  1  0
 45 46  1  0
 46 47  1  0
 47 48  1  0
  2 49  1  0
  7 50  1  0
  7 51  1  0
  9 52  1  0
 11 53  1  0
 12 54  1  0
 13 55  1  0
 14 56  1  0
 18 57  1  0
 19 58  1  0
 20 59  1  0
 22 60  1  0
 22 61  1  0
 26 62  1  0
 30 63  1  0
 33 64  1  0
 33 65  1  0
 34 66  1  0
 34 67  1  0
 34 68  1  0
 35 69  1  0
 35 70  1  0
 35 71  1  0
 36 72  1  0
 37 73  1  0
 40 74  1  0
 41 75  1  0
 41 76  1  0
 42 77  1  0
 42 78  1  0
 45 79  1  0
 46 80  1  0
 46 81  1  0
 47 82  1  0
 47 83  1  0
 48 84  1  0
A    1
N1A
A    2
C2A
A    3
N3A
A    4
C4A
A    5
C5A
A    6
C6A
A    7
N6A
A    8
N7A
A    9
C8A
A   10
N9A
A   11
C1B
A   12
C2B
A   13
O2B
A   14
C3B
A   15
O3B
A   16
P3B
A   17
O7A
A   18
O8A
A   19
O9A
A   20
C4B
A   21
O4B
A   22
C5B
A   23
O5B
A   24
P1A
A   25
O1A
A   26
O2A
A   27
O3A
A   28
P2A
A   29
O4A
A   30
O5A
A   31
O6A
A   32
CBP
A   33
CCP
A   34
CDP
A   35
CEP
A   36
CAP
A   37
OAP
A   38
C9P
A   39
O9P
A   40
N8P
A   41
C7P
A   42
C6P
A   43
C5P
A   44
O5P
A   45
N4P
A   46
C3P
A   47
C2P
A   48
S1P
M  END
