5F3E_5UO_A_403
     RDKit          3D

 37 39  0  0  0  0  0  0  0  0999 V2000
    6.5290  -18.4420  -53.1620 C   0  0  0  0  0  0  0  0  0  0  0  0
    4.5740  -14.8140  -52.1630 N   0  0  0  0  0  0  0  0  0  0  0  0
    5.4380  -15.0040  -53.2770 C   0  0  0  0  0  0  0  0  0  0  0  0
    3.3300  -13.7620  -50.7950 C   0  0  0  0  0  0  0  0  0  0  0  0
    3.4640  -15.0580  -50.2770 C   0  0  0  0  0  0  0  0  0  0  0  0
    2.8970  -15.6190  -48.9980 C   0  0  0  0  0  0  0  0  0  0  0  0
    4.2190  -15.7860  -45.4550 C   0  0  0  0  0  0  0  0  0  0  0  0
    4.2690  -15.7060  -51.1970 C   0  0  0  0  0  0  0  0  0  0  0  0
    6.5710  -13.9050  -54.9330 C   0  0  0  0  0  0  0  0  0  0  0  0
    7.3600  -14.9970  -55.2180 C   0  0  0  0  0  0  0  0  0  0  0  0
    5.8370  -17.3780  -52.8240 N   0  0  0  0  0  0  0  0  0  0  0  0
    6.1410  -16.2210  -53.5040 C   0  0  0  0  0  0  0  0  0  0  0  0
    3.8130  -15.3970  -47.8060 C   0  0  0  0  0  0  0  0  0  0  0  0
    2.7240  -17.2150  -46.6360 C   0  0  0  0  0  0  0  0  0  0  0  0
    3.9900  -13.6030  -51.9260 N   0  0  0  0  0  0  0  0  0  0  0  0
    3.2340  -15.8460  -46.5360 N   0  0  0  0  0  0  0  0  0  0  0  0
    5.6220  -13.8930  -53.9920 N   0  0  0  0  0  0  0  0  0  0  0  0
    7.1280  -16.1640  -54.4970 C   0  0  0  0  0  0  0  0  0  0  0  0
    7.8840  -17.3800  -54.8000 C   0  0  0  0  0  0  0  0  0  0  0  0
    8.8100  -17.4010  -55.6020 O   0  0  0  0  0  0  0  0  0  0  0  0
    7.5080  -18.4690  -54.0930 N   0  0  0  0  0  0  0  0  0  0  0  0
    6.2931  -19.3849  -52.6469 H   0  0  0  0  0  0  0  0  0  0  0  0
    2.7412  -12.9678  -50.3128 H   0  0  0  0  0  0  0  0  0  0  0  0
    2.7413  -16.7004  -49.1261 H   0  0  0  0  0  0  0  0  0  0  0  0
    1.9519  -15.0944  -48.7942 H   0  0  0  0  0  0  0  0  0  0  0  0
    3.7012  -15.8175  -44.4850 H   0  0  0  0  0  0  0  0  0  0  0  0
    4.9026  -16.6442  -45.5338 H   0  0  0  0  0  0  0  0  0  0  0  0
    4.7934  -14.8512  -45.5338 H   0  0  0  0  0  0  0  0  0  0  0  0
    4.5993  -16.7542  -51.1499 H   0  0  0  0  0  0  0  0  0  0  0  0
    6.7317  -12.9860  -55.5157 H   0  0  0  0  0  0  0  0  0  0  0  0
    8.1447  -14.9484  -55.9873 H   0  0  0  0  0  0  0  0  0  0  0  0
    4.0310  -14.3216  -47.7291 H   0  0  0  0  0  0  0  0  0  0  0  0
    4.7210  -15.9936  -47.9782 H   0  0  0  0  0  0  0  0  0  0  0  0
    2.5716  -17.6242  -45.6264 H   0  0  0  0  0  0  0  0  0  0  0  0
    1.7670  -17.2111  -47.1784 H   0  0  0  0  0  0  0  0  0  0  0  0
    3.4503  -17.8382  -47.1784 H   0  0  0  0  0  0  0  0  0  0  0  0
    7.9903  -19.3612  -54.2723 H   0  0  0  0  0  0  0  0  0  0  0  0
  7 16  1  0
 16 14  1  0
 16 13  1  0
 13  6  1  0
  6  5  1  0
  5  4  1  0
  5  8  2  0
  4 15  2  0
  8  2  1  0
 15  2  1  0
  2  3  1  0
 11  1  2  0
 11 12  1  0
  3 12  2  0
  3 17  1  0
  1 21  1  0
 12 18  1  0
 17  9  2  0
 21 19  1  0
 18 19  1  0
 18 10  2  0
  9 10  1  0
 19 20  2  0
  1 22  1  0
  4 23  1  0
  6 24  1  0
  6 25  1  0
  7 26  1  0
  7 27  1  0
  7 28  1  0
  8 29  1  0
  9 30  1  0
 10 31  1  0
 13 32  1  0
 13 33  1  0
 14 34  1  0
 14 35  1  0
 14 36  1  0
 21 37  1  0
A    1
C1
A    2
N2
A    3
C3
A    4
C4
A    5
C5
A    6
C6
A    7
C18
A    8
C19
A    9
C20
A   10
C21
A   11
N1
A   12
C2
A   13
C7
A   14
C8
A   15
N3
A   16
N4
A   17
N5
A   18
C22
A   19
C
A   20
O
A   21
N
M  END
