5F3F_5US_A_201
     RDKit          3D

 54 56  0  0  0  0  0  0  0  0999 V2000
   -0.9690    8.3560    9.3370 C   0  0  0  0  0  0  0  0  0  0  0  0
   -3.0440    7.2930    7.5860 C   0  0  0  0  0  0  0  0  0  0  0  0
   -3.5290    6.1400    6.7120 C   0  0  0  0  0  0  0  0  0  0  0  0
   -8.6200    8.0190   11.7080 C   0  0  0  0  0  0  0  0  0  0  0  0
   -9.1750    9.0780   12.3080 C   0  0  0  0  0  0  0  0  0  0  0  0
  -10.6270    9.0070   12.7850 C   0  0  0  0  0  0  0  0  0  0  0  0
  -10.6980    6.6710   11.9390 C   0  0  0  0  0  0  0  0  0  0  0  0
  -11.5410    5.4050   11.7440 C   0  0  0  0  0  0  0  0  0  0  0  0
   -4.9720   10.7870    9.7270 C   0  0  0  0  0  0  0  0  0  0  0  0
   -5.3560    9.4610   10.3120 C   0  0  0  0  0  0  0  0  0  0  0  0
   -6.6570    9.2670   10.7150 C   0  0  0  0  0  0  0  0  0  0  0  0
   -7.1510    8.1170   11.2610 C   0  0  0  0  0  0  0  0  0  0  0  0
   -6.2110    7.0570   11.4110 C   0  0  0  0  0  0  0  0  0  0  0  0
   -4.8470    7.2380   10.9880 C   0  0  0  0  0  0  0  0  0  0  0  0
   -4.4140    8.4540   10.4280 C   0  0  0  0  0  0  0  0  0  0  0  0
   -3.0960    8.7430   10.0010 O   0  0  0  0  0  0  0  0  0  0  0  0
   -2.2140    7.6780    9.8460 C   0  0  0  0  0  0  0  0  0  0  0  0
   -1.2740    8.9720    7.9930 C   0  0  0  0  0  0  0  0  0  0  0  0
   -1.7980    7.9450    7.0210 C   0  0  0  0  0  0  0  0  0  0  0  0
   -2.7120    6.7840    8.8590 O   0  0  0  0  0  0  0  0  0  0  0  0
   -2.5140    5.1090    6.7310 O   0  0  0  0  0  0  0  0  0  0  0  0
   -2.0310    8.5700    5.7500 O   0  0  0  0  0  0  0  0  0  0  0  0
   -0.0800    9.5620    7.4640 O   0  0  0  0  0  0  0  0  0  0  0  0
    0.0790    7.3940    9.2570 O   0  0  0  0  0  0  0  0  0  0  0  0
  -11.3310    7.8640   12.5980 C   0  0  0  0  0  0  0  0  0  0  0  0
   -9.4010    6.7440   11.5140 C   0  0  0  0  0  0  0  0  0  0  0  0
  -12.7630    5.5380   11.7710 O   0  0  0  0  0  0  0  0  0  0  0  0
  -11.0080    4.0560   11.5280 N   0  0  0  0  0  0  0  0  0  0  0  0
   -9.6110    3.7310   11.4740 C   0  0  0  0  0  0  0  0  0  0  0  0
   -0.6418    9.1568   10.0164 H   0  0  0  0  0  0  0  0  0  0  0  0
   -3.8497    8.0405    7.6330 H   0  0  0  0  0  0  0  0  0  0  0  0
   -3.6846    6.4921    5.6816 H   0  0  0  0  0  0  0  0  0  0  0  0
   -4.4825    5.7456    7.0931 H   0  0  0  0  0  0  0  0  0  0  0  0
   -8.5893    9.9969   12.4580 H   0  0  0  0  0  0  0  0  0  0  0  0
  -11.0945    9.8742   13.2744 H   0  0  0  0  0  0  0  0  0  0  0  0
   -4.7655   11.5000   10.5388 H   0  0  0  0  0  0  0  0  0  0  0  0
   -4.0717   10.6671    9.1065 H   0  0  0  0  0  0  0  0  0  0  0  0
   -5.7971   11.1668    9.1065 H   0  0  0  0  0  0  0  0  0  0  0  0
   -7.3561   10.1065   10.5870 H   0  0  0  0  0  0  0  0  0  0  0  0
   -6.5277    6.0996   11.8504 H   0  0  0  0  0  0  0  0  0  0  0  0
   -4.1308    6.4113   11.1046 H   0  0  0  0  0  0  0  0  0  0  0  0
   -2.0569    7.0929   10.7642 H   0  0  0  0  0  0  0  0  0  0  0  0
   -2.0514    9.7376    8.1325 H   0  0  0  0  0  0  0  0  0  0  0  0
   -1.0570    7.1467    6.8676 H   0  0  0  0  0  0  0  0  0  0  0  0
   -2.2911    4.8826    7.6686 H   0  0  0  0  0  0  0  0  0  0  0  0
   -2.3733    9.4881    5.8915 H   0  0  0  0  0  0  0  0  0  0  0  0
    0.5039    9.8505    8.2096 H   0  0  0  0  0  0  0  0  0  0  0  0
    0.3603    7.1358   10.1704 H   0  0  0  0  0  0  0  0  0  0  0  0
  -12.3775    7.8090   12.9324 H   0  0  0  0  0  0  0  0  0  0  0  0
   -8.9285    5.8754   11.0320 H   0  0  0  0  0  0  0  0  0  0  0  0
  -11.6834    3.2879   11.4065 H   0  0  0  0  0  0  0  0  0  0  0  0
   -9.2161    3.6391   12.4966 H   0  0  0  0  0  0  0  0  0  0  0  0
   -9.4766    2.7776   10.9420 H   0  0  0  0  0  0  0  0  0  0  0  0
   -9.0696    4.5272   10.9420 H   0  0  0  0  0  0  0  0  0  0  0  0
 22 19  1  0
  3 21  1  0
  3  2  1  0
 19  2  1  0
 19 18  1  0
 23 18  1  0
  2 20  1  0
 18  1  1  0
 20 17  1  0
 24  1  1  0
  1 17  1  0
  9 10  1  0
 17 16  1  0
 16 15  1  0
 10 15  2  0
 10 11  1  0
 15 14  1  0
 11 12  2  0
 14 13  2  0
 12 13  1  0
 12  4  1  0
 29 28  1  0
 26  4  1  0
 26  7  2  0
 28  8  1  0
  4  5  2  0
  8 27  2  0
  8  7  1  0
  7 25  1  0
  5  6  1  0
 25  6  2  0
  1 30  1  0
  2 31  1  0
  3 32  1  0
  3 33  1  0
  5 34  1  0
  6 35  1  0
  9 36  1  0
  9 37  1  0
  9 38  1  0
 11 39  1  0
 13 40  1  0
 14 41  1  0
 17 42  1  0
 18 43  1  0
 19 44  1  0
 21 45  1  0
 22 46  1  0
 23 47  1  0
 24 48  1  0
 25 49  1  0
 26 50  1  0
 28 51  1  0
 29 52  1  0
 29 53  1  0
 29 54  1  0
A    1
C10
A    2
C13
A    3
C15
A    4
C20
A    5
C21
A    6
C22
A    7
C24
A    8
C26
A    9
C01
A   10
C02
A   11
C03
A   12
C04
A   13
C05
A   14
C06
A   15
C07
A   16
O08
A   17
C09
A   18
C11
A   19
C12
A   20
O14
A   21
O16
A   22
O17
A   23
O18
A   24
O19
A   25
C23
A   26
C25
A   27
O27
A   28
N28
A   29
C29
M  END
