5F3G_5UL_A_403
     RDKit          3D

 57 61  0  0  0  0  0  0  0  0999 V2000
  -17.8210  -16.4050  -29.7830 C   0  0  0  0  0  0  0  0  0  0  0  0
  -18.8180  -16.9210  -28.9770 C   0  0  0  0  0  0  0  0  0  0  0  0
  -23.1910  -12.2550  -17.4650 N   0  0  0  0  0  0  0  0  0  0  0  0
  -21.2430  -17.3150  -28.4140 C   0  0  0  0  0  0  0  0  0  0  0  0
  -20.7850  -15.0140  -25.3120 C   0  0  0  0  0  0  0  0  0  0  0  0
  -21.4440  -14.9880  -22.4300 C   0  0  0  0  0  0  0  0  0  0  0  0
  -21.6520  -14.2250  -21.1470 C   0  0  0  0  0  0  0  0  0  0  0  0
  -22.3940  -14.6160  -20.0620 C   0  0  0  0  0  0  0  0  0  0  0  0
  -21.2230  -12.9270  -20.8150 C   0  0  0  0  0  0  0  0  0  0  0  0
  -23.1220  -13.4890  -17.9750 C   0  0  0  0  0  0  0  0  0  0  0  0
  -24.0370  -12.0830  -16.4420 C   0  0  0  0  0  0  0  0  0  0  0  0
  -24.6930  -14.3650  -16.4390 C   0  0  0  0  0  0  0  0  0  0  0  0
  -23.8080  -14.6190  -17.4950 C   0  0  0  0  0  0  0  0  0  0  0  0
  -24.3220  -16.8410  -17.4620 C   0  0  0  0  0  0  0  0  0  0  0  0
  -22.5740  -16.5010  -24.8520 C   0  0  0  0  0  0  0  0  0  0  0  0
  -19.4880  -15.4540  -31.2160 C   0  0  0  0  0  0  0  0  0  0  0  0
  -26.3280  -15.3530  -15.0330 O   0  0  0  0  0  0  0  0  0  0  0  0
  -25.4690  -15.4780  -15.8980 C   0  0  0  0  0  0  0  0  0  0  0  0
  -24.8160  -13.0860  -15.9040 C   0  0  0  0  0  0  0  0  0  0  0  0
  -25.2160  -16.6740  -16.4590 N   0  0  0  0  0  0  0  0  0  0  0  0
  -23.6160  -15.8830  -18.0120 N   0  0  0  0  0  0  0  0  0  0  0  0
  -22.4010  -13.5900  -19.1870 N   0  0  0  0  0  0  0  0  0  0  0  0
  -21.6730  -12.5320  -19.6370 N   0  0  0  0  0  0  0  0  0  0  0  0
  -22.3530  -14.4690  -23.5310 C   0  0  0  0  0  0  0  0  0  0  0  0
  -22.1630  -15.1000  -24.8420 N   0  0  0  0  0  0  0  0  0  0  0  0
  -20.6880  -15.4800  -26.7590 C   0  0  0  0  0  0  0  0  0  0  0  0
  -22.5580  -17.0510  -26.2710 C   0  0  0  0  0  0  0  0  0  0  0  0
  -21.1940  -16.9060  -26.9370 C   0  0  0  0  0  0  0  0  0  0  0  0
  -20.1570  -16.7190  -29.2750 C   0  0  0  0  0  0  0  0  0  0  0  0
  -20.4740  -15.9740  -30.4010 C   0  0  0  0  0  0  0  0  0  0  0  0
  -18.1700  -15.6780  -30.8970 C   0  0  0  0  0  0  0  0  0  0  0  0
  -16.9210  -15.0350  -31.9250 Cl  0  0  0  0  0  0  0  0  0  0  0  0
  -16.7623  -16.5736  -29.5368 H   0  0  0  0  0  0  0  0  0  0  0  0
  -18.5446  -17.5019  -28.0838 H   0  0  0  0  0  0  0  0  0  0  0  0
  -22.2145  -17.0009  -28.8234 H   0  0  0  0  0  0  0  0  0  0  0  0
  -21.0920  -18.4043  -28.4374 H   0  0  0  0  0  0  0  0  0  0  0  0
  -20.1467  -15.6513  -24.6823 H   0  0  0  0  0  0  0  0  0  0  0  0
  -20.4515  -13.9676  -25.2508 H   0  0  0  0  0  0  0  0  0  0  0  0
  -21.6637  -16.0515  -22.2547 H   0  0  0  0  0  0  0  0  0  0  0  0
  -20.3996  -14.8553  -22.7489 H   0  0  0  0  0  0  0  0  0  0  0  0
  -22.8919  -15.5879  -19.9298 H   0  0  0  0  0  0  0  0  0  0  0  0
  -20.5842  -12.3097  -21.4637 H   0  0  0  0  0  0  0  0  0  0  0  0
  -24.1159  -11.0777  -16.0024 H   0  0  0  0  0  0  0  0  0  0  0  0
  -24.1765  -17.8615  -17.8459 H   0  0  0  0  0  0  0  0  0  0  0  0
  -23.5921  -16.5825  -24.4436 H   0  0  0  0  0  0  0  0  0  0  0  0
  -21.8712  -17.0824  -24.2371 H   0  0  0  0  0  0  0  0  0  0  0  0
  -19.7538  -14.8684  -32.1084 H   0  0  0  0  0  0  0  0  0  0  0  0
  -25.5128  -12.8815  -15.0778 H   0  0  0  0  0  0  0  0  0  0  0  0
  -25.7247  -17.4990  -16.1103 H   0  0  0  0  0  0  0  0  0  0  0  0
  -22.1718  -13.3898  -23.6425 H   0  0  0  0  0  0  0  0  0  0  0  0
  -23.3803  -14.7101  -23.2202 H   0  0  0  0  0  0  0  0  0  0  0  0
  -19.6358  -15.4348  -27.0764 H   0  0  0  0  0  0  0  0  0  0  0  0
  -21.3183  -14.8180  -27.3710 H   0  0  0  0  0  0  0  0  0  0  0  0
  -23.3027  -16.5056  -26.8693 H   0  0  0  0  0  0  0  0  0  0  0  0
  -22.7914  -18.1246  -26.2165 H   0  0  0  0  0  0  0  0  0  0  0  0
  -20.4851  -17.5907  -26.4485 H   0  0  0  0  0  0  0  0  0  0  0  0
  -21.5304  -15.7940  -30.6495 H   0  0  0  0  0  0  0  0  0  0  0  0
 32 31  1  0
 16 31  1  0
 16 30  2  0
 31  1  2  0
 30 29  1  0
  1  2  1  0
 29  2  2  0
 29  4  1  0
  4 28  1  0
 28 26  1  0
 28 27  1  0
 26  5  1  0
 27 15  1  0
  5 25  1  0
 15 25  1  0
 25 24  1  0
 24  6  1  0
  6  7  1  0
  7  9  1  0
  7  8  2  0
  9 23  2  0
  8 22  1  0
 23 22  1  0
 22 10  1  0
 21 13  1  0
 21 14  2  0
 10 13  1  0
 10  3  2  0
 13 12  2  0
  3 11  1  0
 14 20  1  0
 20 18  1  0
 11 19  2  0
 12 19  1  0
 12 18  1  0
 18 17  2  0
  1 33  1  0
  2 34  1  0
  4 35  1  0
  4 36  1  0
  5 37  1  0
  5 38  1  0
  6 39  1  0
  6 40  1  0
  8 41  1  0
  9 42  1  0
 11 43  1  0
 14 44  1  0
 15 45  1  0
 15 46  1  0
 16 47  1  0
 19 48  1  0
 20 49  1  0
 24 50  1  0
 24 51  1  0
 26 52  1  0
 26 53  1  0
 27 54  1  0
 27 55  1  0
 28 56  1  0
 30 57  1  0
A    1
C1
A    2
C2
A    3
N3
A    4
C4
A    5
C7
A    6
C9
A    7
C10
A    8
C11
A    9
C12
A   10
C13
A   11
C14
A   12
C16
A   13
C17
A   14
C18
A   15
C20
A   16
C23
A   17
O
A   18
C19
A   19
C15
A   20
N5
A   21
N4
A   22
N1
A   23
N2
A   24
C8
A   25
N
A   26
C6
A   27
C21
A   28
C5
A   29
C3
A   30
C22
A   31
C
A   32
CL
M  END
