5F3T_5UH_A_1003
     RDKit          3D

 32 33  0  0  0  0  0  0  0  0999 V2000
   18.0890   60.8460   10.5690 C   0  0  0  0  0  0  0  0  0  0  0  0
   17.9010   61.0270   11.9520 C   0  0  0  0  0  0  0  0  0  0  0  0
   17.7320   62.3130   12.4730 C   0  0  0  0  0  0  0  0  0  0  0  0
   18.7230   66.8550   12.2070 O   0  0  0  0  0  0  0  0  0  0  0  0
   19.8530   65.0260   12.6710 O   0  0  0  0  0  0  0  0  0  0  0  0
   19.2860   60.8060    6.2780 C   0  0  0  0  0  0  0  0  0  0  0  0
   18.4890   61.5550    5.4180 C   0  0  0  0  0  0  0  0  0  0  0  0
   17.5720   62.4640    5.9500 C   0  0  0  0  0  0  0  0  0  0  0  0
   17.4510   62.6160    7.3340 C   0  0  0  0  0  0  0  0  0  0  0  0
   18.7880   65.6180   12.3860 C   0  0  0  0  0  0  0  0  0  0  0  0
   17.5240   64.8080   12.2800 C   0  0  0  0  0  0  0  0  0  0  0  0
   17.7610   63.4460   11.6530 C   0  0  0  0  0  0  0  0  0  0  0  0
   17.9310   63.3170   10.2650 C   0  0  0  0  0  0  0  0  0  0  0  0
   18.1150   62.0500    9.6820 C   0  0  0  0  0  0  0  0  0  0  0  0
   18.2510   59.5900   10.0170 O   0  0  0  0  0  0  0  0  0  0  0  0
   17.9440   58.4010   10.7510 C   0  0  0  0  0  0  0  0  0  0  0  0
   18.2760   61.8880    8.2020 C   0  0  0  0  0  0  0  0  0  0  0  0
   19.2040   60.9870    7.6630 C   0  0  0  0  0  0  0  0  0  0  0  0
   17.8870   60.1558   12.6234 H   0  0  0  0  0  0  0  0  0  0  0  0
   17.5723   62.4372   13.5542 H   0  0  0  0  0  0  0  0  0  0  0  0
   20.1036   64.8867   13.6186 H   0  0  0  0  0  0  0  0  0  0  0  0
   19.9867   60.0651    5.8655 H   0  0  0  0  0  0  0  0  0  0  0  0
   18.5804   61.4322    4.3287 H   0  0  0  0  0  0  0  0  0  0  0  0
   16.9418   63.0633    5.2764 H   0  0  0  0  0  0  0  0  0  0  0  0
   16.7038   63.3112    7.7444 H   0  0  0  0  0  0  0  0  0  0  0  0
   16.8010   65.3605   11.6619 H   0  0  0  0  0  0  0  0  0  0  0  0
   17.1424   64.6466   13.2990 H   0  0  0  0  0  0  0  0  0  0  0  0
   17.9202   64.2140    9.6284 H   0  0  0  0  0  0  0  0  0  0  0  0
   17.9983   58.6115   11.8293 H   0  0  0  0  0  0  0  0  0  0  0  0
   16.9292   58.0632   10.4940 H   0  0  0  0  0  0  0  0  0  0  0  0
   18.6684   57.6141   10.4940 H   0  0  0  0  0  0  0  0  0  0  0  0
   19.8699   60.4204    8.3306 H   0  0  0  0  0  0  0  0  0  0  0  0
  7  8  1  0
  7  6  2  0
  8  9  2  0
  6 18  1  0
  9 17  1  0
 18 17  2  0
 17 14  1  0
 14 13  1  0
 14  1  2  0
 15  1  1  0
 15 16  1  0
 13 12  2  0
  1  2  1  0
 12 11  1  0
 12  3  1  0
  2  3  2  0
  4 10  2  0
 11 10  1  0
 10  5  1  0
  2 19  1  0
  3 20  1  0
  5 21  1  0
  6 22  1  0
  7 23  1  0
  8 24  1  0
  9 25  1  0
 11 26  1  0
 11 27  1  0
 13 28  1  0
 16 29  1  0
 16 30  1  0
 16 31  1  0
 18 32  1  0
A    1
C1
A    2
C2
A    3
C3
A    4
O1
A    5
O2
A    6
C11
A    7
C12
A    8
C13
A    9
C14
A   10
C6
A   11
C5
A   12
C4
A   13
C7
A   14
C8
A   15
O
A   16
C
A   17
C9
A   18
C10
M  END
