5F5C_5V3_A_411
     RDKit          3D

 34 36  0  0  0  0  0  0  0  0999 V2000
    8.8430   -4.4130   20.2890 C   0  0  0  0  0  0  0  0  0  0  0  0
    8.8880   -1.9740   18.8440 C   0  0  0  0  0  0  0  0  0  0  0  0
    6.5820   -4.6590   22.1390 C   0  0  0  0  0  0  0  0  0  0  0  0
    6.5290   -4.7580   23.7050 C   0  0  0  0  0  0  0  0  0  0  0  0
    5.4180   -5.3080   24.3150 C   0  0  0  0  0  0  0  0  0  0  0  0
    5.3480   -5.4260   25.7170 C   0  0  0  0  0  0  0  0  0  0  0  0
    6.3890   -4.9670   26.4900 C   0  0  0  0  0  0  0  0  0  0  0  0
    7.5030   -4.4070   25.8820 C   0  0  0  0  0  0  0  0  0  0  0  0
    7.5690   -4.3070   24.4850 C   0  0  0  0  0  0  0  0  0  0  0  0
    7.2430   -5.7910   21.4590 N   0  0  0  0  0  0  0  0  0  0  0  0
    8.6660   -5.7000   21.1070 C   0  0  0  0  0  0  0  0  0  0  0  0
    9.9820   -3.5560   20.4340 C   0  0  0  0  0  0  0  0  0  0  0  0
   10.0260   -2.3680   19.7210 C   0  0  0  0  0  0  0  0  0  0  0  0
    7.8230   -2.8390   18.7540 C   0  0  0  0  0  0  0  0  0  0  0  0
    7.7870   -4.0200   19.4440 N   0  0  0  0  0  0  0  0  0  0  0  0
   11.2080   -1.4600   19.8270 C   0  0  0  0  0  0  0  0  0  0  0  0
   12.2790   -1.8690   20.6540 N   0  0  0  0  0  0  0  0  0  0  0  0
   12.2470   -3.0920   21.3910 C   0  0  0  0  0  0  0  0  0  0  0  0
   11.0830   -3.9620   21.2930 N   0  0  0  0  0  0  0  0  0  0  0  0
   11.2180   -0.4220   19.2170 O   0  0  0  0  0  0  0  0  0  0  0  0
    8.8993   -1.0248   18.2882 H   0  0  0  0  0  0  0  0  0  0  0  0
    7.1246   -3.7394   21.8744 H   0  0  0  0  0  0  0  0  0  0  0  0
    5.5364   -4.6663   21.7973 H   0  0  0  0  0  0  0  0  0  0  0  0
    4.5774   -5.6582   23.6980 H   0  0  0  0  0  0  0  0  0  0  0  0
    4.4663   -5.8824   26.1906 H   0  0  0  0  0  0  0  0  0  0  0  0
    6.3383   -5.0437   27.5862 H   0  0  0  0  0  0  0  0  0  0  0  0
    8.3373   -4.0402   26.4979 H   0  0  0  0  0  0  0  0  0  0  0  0
    8.4574   -3.8654   24.0098 H   0  0  0  0  0  0  0  0  0  0  0  0
    6.7284   -5.9537   20.5817 H   0  0  0  0  0  0  0  0  0  0  0  0
    8.9637   -6.5729   20.5075 H   0  0  0  0  0  0  0  0  0  0  0  0
    9.2940   -5.6815   22.0099 H   0  0  0  0  0  0  0  0  0  0  0  0
    6.9737   -2.5734   18.1073 H   0  0  0  0  0  0  0  0  0  0  0  0
   13.0969   -3.3754   22.0292 H   0  0  0  0  0  0  0  0  0  0  0  0
   11.0406   -4.8456   21.8206 H   0  0  0  0  0  0  0  0  0  0  0  0
 14  2  2  0
 14 15  1  0
  2 13  1  0
 20 16  2  0
 15  1  2  0
 13 16  1  0
 13 12  2  0
 16 17  1  0
  1 12  1  0
  1 11  1  0
 12 19  1  0
 17 18  2  0
 11 10  1  0
 19 18  1  0
 10  3  1  0
  3  4  1  0
  4  5  2  0
  4  9  1  0
  5  6  1  0
  9  8  2  0
  6  7  2  0
  8  7  1  0
  2 21  1  0
  3 22  1  0
  3 23  1  0
  5 24  1  0
  6 25  1  0
  7 26  1  0
  8 27  1  0
  9 28  1  0
 10 29  1  0
 11 30  1  0
 11 31  1  0
 14 32  1  0
 18 33  1  0
 19 34  1  0
A    1
C10
A    2
C13
A    3
C01
A    4
C02
A    5
C03
A    6
C04
A    7
C05
A    8
C06
A    9
C07
A   10
N08
A   11
C09
A   12
C11
A   13
C12
A   14
C14
A   15
N15
A   16
C16
A   17
N17
A   18
C18
A   19
N19
A   20
O20
M  END
