5F6R_5VO_A_201
     RDKit          3D

 29 29  0  0  0  0  0  0  0  0999 V2000
   11.7440   -4.3310   21.3550 C   0  0  0  0  0  0  0  0  0  0  0  0
   10.8180   -4.7830   20.7100 O   0  0  0  0  0  0  0  0  0  0  0  0
   11.6180   -2.9510   21.9400 C   0  0  0  0  0  0  0  0  0  0  0  0
   10.5940   -3.1070   23.0580 C   0  0  0  0  0  0  0  0  0  0  0  0
   10.4900   -1.9030   23.9880 C   0  0  0  0  0  0  0  0  0  0  0  0
   11.8480   -1.4560   24.5230 C   0  0  0  0  0  0  0  0  0  0  0  0
   11.9630   -1.7770   25.9990 C   0  0  0  0  0  0  0  0  0  0  0  0
   11.3070   -2.6840   26.4820 O   0  0  0  0  0  0  0  0  0  0  0  0
   12.8860   -0.9810   26.8730 C   0  0  0  0  0  0  0  0  0  0  0  0
   13.8960   -0.2210   26.2990 C   0  0  0  0  0  0  0  0  0  0  0  0
   14.7500    0.5210   27.1090 C   0  0  0  0  0  0  0  0  0  0  0  0
   14.5980    0.5090   28.4890 C   0  0  0  0  0  0  0  0  0  0  0  0
   13.5850   -0.2500   29.0620 C   0  0  0  0  0  0  0  0  0  0  0  0
   12.7310   -0.9960   28.2560 C   0  0  0  0  0  0  0  0  0  0  0  0
   12.8260   -5.0770   21.5670 O   0  0  0  0  0  0  0  0  0  0  0  0
   12.5833   -2.6083   22.3410 H   0  0  0  0  0  0  0  0  0  0  0  0
   11.3128   -2.2042   21.1922 H   0  0  0  0  0  0  0  0  0  0  0  0
    9.6078   -3.2749   22.6006 H   0  0  0  0  0  0  0  0  0  0  0  0
   10.9292   -3.9533   23.6756 H   0  0  0  0  0  0  0  0  0  0  0  0
   10.0373   -1.0676   23.4337 H   0  0  0  0  0  0  0  0  0  0  0  0
    9.8735   -2.1994   24.8494 H   0  0  0  0  0  0  0  0  0  0  0  0
   12.6445   -1.9801   23.9745 H   0  0  0  0  0  0  0  0  0  0  0  0
   11.9472   -0.3693   24.3843 H   0  0  0  0  0  0  0  0  0  0  0  0
   14.0209   -0.2054   25.2062 H   0  0  0  0  0  0  0  0  0  0  0  0
   15.5511    1.1212   26.6529 H   0  0  0  0  0  0  0  0  0  0  0  0
   15.2758    1.0971   29.1252 H   0  0  0  0  0  0  0  0  0  0  0  0
   13.4581   -0.2611   30.1546 H   0  0  0  0  0  0  0  0  0  0  0  0
   11.9320   -1.5986   28.7125 H   0  0  0  0  0  0  0  0  0  0  0  0
   13.1159   -5.2769   22.4923 H   0  0  0  0  0  0  0  0  0  0  0  0
  2  1  2  0
  1 15  1  0
  1  3  1  0
  3  4  1  0
  4  5  1  0
  5  6  1  0
  6  7  1  0
  7  8  2  0
  7  9  1  0
 10  9  2  0
 10 11  1  0
  9 14  1  0
 11 12  2  0
 14 13  2  0
 12 13  1  0
  3 16  1  0
  3 17  1  0
  4 18  1  0
  4 19  1  0
  5 20  1  0
  5 21  1  0
  6 22  1  0
  6 23  1  0
 10 24  1  0
 11 25  1  0
 12 26  1  0
 13 27  1  0
 14 28  1  0
 15 29  1  0
A    1
C21
A    2
O2
A    3
C22
A    4
C23
A    5
C24
A    6
C25
A    7
C26
A    8
O3
A    9
C27
A   10
C28
A   11
C29
A   12
C30
A   13
C31
A   14
C32
A   15
OXT
M  END
