5F8P_FIJ_A_602
     RDKit          3D

 42 44  0  0  0  0  0  0  0  0999 V2000
  -18.8660  -26.4700  -32.2230 C   0  0  0  0  0  0  0  0  0  0  0  0
  -18.8600  -24.0970  -32.3990 C   0  0  0  0  0  0  0  0  0  0  0  0
  -19.4820  -23.3520  -31.4170 C   0  0  0  0  0  0  0  0  0  0  0  0
  -18.8730  -22.2420  -30.8640 C   0  0  0  0  0  0  0  0  0  0  0  0
  -16.9520  -22.6610  -32.1810 C   0  0  0  0  0  0  0  0  0  0  0  0
  -17.5540  -23.7820  -32.7490 C   0  0  0  0  0  0  0  0  0  0  0  0
  -19.3570  -23.4900  -35.6430 C   0  0  0  0  0  0  0  0  0  0  0  0
  -20.4030  -25.5010  -36.5000 C   0  0  0  0  0  0  0  0  0  0  0  0
  -21.4290  -24.3000  -34.6620 C   0  0  0  0  0  0  0  0  0  0  0  0
  -21.7220  -24.6160  -33.3170 C   0  0  0  0  0  0  0  0  0  0  0  0
  -22.9870  -24.2220  -32.8040 C   0  0  0  0  0  0  0  0  0  0  0  0
  -23.9480  -23.5310  -33.5430 C   0  0  0  0  0  0  0  0  0  0  0  0
  -23.6280  -23.2180  -34.8840 C   0  0  0  0  0  0  0  0  0  0  0  0
  -22.3890  -23.5940  -35.4310 C   0  0  0  0  0  0  0  0  0  0  0  0
  -20.1240  -24.7130  -35.2680 C   0  0  0  0  0  0  0  0  0  0  0  0
  -19.2900  -25.5460  -34.3580 C   0  0  0  0  0  0  0  0  0  0  0  0
  -19.5340  -25.3310  -32.9040 C   0  0  0  0  0  0  0  0  0  0  0  0
  -17.5850  -21.8670  -31.2280 C   0  0  0  0  0  0  0  0  0  0  0  0
  -20.8550  -25.3550  -32.5350 O   0  0  0  0  0  0  0  0  0  0  0  0
  -25.1530  -23.1650  -32.9840 O   0  0  0  0  0  0  0  0  0  0  0  0
  -16.9640  -20.7760  -30.6670 O   0  0  0  0  0  0  0  0  0  0  0  0
  -16.8680  -24.5280  -33.6780 O   0  0  0  0  0  0  0  0  0  0  0  0
  -24.7670  -22.3610  -35.8670 Cl  0  0  0  0  0  0  0  0  0  0  0  0
  -19.7360  -21.3150  -29.6860 Cl  0  0  0  0  0  0  0  0  0  0  0  0
  -18.9416  -26.3410  -31.1332 H   0  0  0  0  0  0  0  0  0  0  0  0
  -19.3556  -27.4105  -32.5158 H   0  0  0  0  0  0  0  0  0  0  0  0
  -17.8062  -26.5018  -32.5158 H   0  0  0  0  0  0  0  0  0  0  0  0
  -20.4823  -23.6481  -31.0680 H   0  0  0  0  0  0  0  0  0  0  0  0
  -15.9339  -22.3919  -32.4988 H   0  0  0  0  0  0  0  0  0  0  0  0
  -19.0299  -22.9684  -34.7314 H   0  0  0  0  0  0  0  0  0  0  0  0
  -18.4768  -23.7770  -36.2371 H   0  0  0  0  0  0  0  0  0  0  0  0
  -19.9986  -22.8226  -36.2371 H   0  0  0  0  0  0  0  0  0  0  0  0
  -20.7581  -26.5040  -36.2211 H   0  0  0  0  0  0  0  0  0  0  0  0
  -21.1751  -24.9908  -37.0946 H   0  0  0  0  0  0  0  0  0  0  0  0
  -19.4819  -25.5903  -37.0946 H   0  0  0  0  0  0  0  0  0  0  0  0
  -23.2233  -24.4773  -31.7604 H   0  0  0  0  0  0  0  0  0  0  0  0
  -22.1596  -23.3358  -36.4754 H   0  0  0  0  0  0  0  0  0  0  0  0
  -19.4905  -26.6036  -34.5845 H   0  0  0  0  0  0  0  0  0  0  0  0
  -18.2467  -25.2492  -34.5409 H   0  0  0  0  0  0  0  0  0  0  0  0
  -25.2531  -23.1346  -31.9995 H   0  0  0  0  0  0  0  0  0  0  0  0
  -16.9135  -20.6872  -29.6823 H   0  0  0  0  0  0  0  0  0  0  0  0
  -16.2289  -25.2230  -33.3805 H   0  0  0  0  0  0  0  0  0  0  0  0
  8 15  1  0
 23 13  1  0
  7 15  1  0
 14 13  2  0
 14  9  1  0
 15  9  1  0
 15 16  1  0
 13 12  1  0
  9 10  2  0
 16 17  1  0
 22  6  1  0
 12 20  1  0
 12 11  2  0
 10 11  1  0
 10 19  1  0
 17 19  1  0
 17  2  1  0
 17  1  1  0
  6  2  1  0
  6  5  2  0
  2  3  2  0
  5 18  1  0
  3  4  1  0
 18  4  2  0
 18 21  1  0
  4 24  1  0
  1 25  1  0
  1 26  1  0
  1 27  1  0
  3 28  1  0
  5 29  1  0
  7 30  1  0
  7 31  1  0
  7 32  1  0
  8 33  1  0
  8 34  1  0
  8 35  1  0
 11 36  1  0
 14 37  1  0
 16 38  1  0
 16 39  1  0
 20 40  1  0
 21 41  1  0
 22 42  1  0
A    1
C14
A    2
C15
A    3
C16
A    4
C17
A    5
C10
A    6
C11
A    7
C12
A    8
C13
A    9
C01
A   10
C02
A   11
C03
A   12
C04
A   13
C05
A   14
C06
A   15
C07
A   16
C08
A   17
C09
A   18
C
A   19
O01
A   20
O02
A   21
O03
A   22
O
A   23
CL1
A   24
CL
M  END
