5F91_5WJ_A_501
     RDKit          3D

 59 62  0  0  0  0  0  0  0  0999 V2000
  164.5430  -14.3710   30.6950 C   0  0  0  0  0  0  0  0  0  0  0  0
  165.5130  -11.2890   30.0130 C   0  0  0  0  0  0  0  0  0  0  0  0
  169.8580  -10.0160   32.0630 C   0  0  0  0  0  0  0  0  0  0  0  0
  170.1440   -8.6750   31.6950 C   0  0  0  0  0  0  0  0  0  0  0  0
  171.7640   -6.9480   31.4300 C   0  0  0  0  0  0  0  0  0  0  0  0
  169.0890   -7.7770   31.5020 C   0  0  0  0  0  0  0  0  0  0  0  0
  167.7710   -8.1920   31.6780 C   0  0  0  0  0  0  0  0  0  0  0  0
  167.4380   -9.4970   32.0440 C   0  0  0  0  0  0  0  0  0  0  0  0
  172.5320  -18.0980   30.2310 O   0  0  0  0  0  0  0  0  0  0  0  0
  172.4870  -16.9410   30.6010 C   0  0  0  0  0  0  0  0  0  0  0  0
  172.1000  -16.6970   31.9350 N   0  0  0  0  0  0  0  0  0  0  0  0
  172.0050  -15.5000   32.5200 N   0  0  0  0  0  0  0  0  0  0  0  0
  172.8160  -15.7360   29.8110 C   0  0  0  0  0  0  0  0  0  0  0  0
  172.7350  -14.4690   30.4170 C   0  0  0  0  0  0  0  0  0  0  0  0
  173.0580  -13.3240   29.6700 C   0  0  0  0  0  0  0  0  0  0  0  0
  173.4380  -13.4550   28.3320 C   0  0  0  0  0  0  0  0  0  0  0  0
  173.5050  -14.7200   27.7380 C   0  0  0  0  0  0  0  0  0  0  0  0
  173.2010  -15.8670   28.4670 C   0  0  0  0  0  0  0  0  0  0  0  0
  172.2960  -14.4240   31.8160 C   0  0  0  0  0  0  0  0  0  0  0  0
  172.0950  -13.1090   32.4920 C   0  0  0  0  0  0  0  0  0  0  0  0
  170.8950  -12.2830   32.0450 C   0  0  0  0  0  0  0  0  0  0  0  0
  169.9970  -12.8200   31.3910 O   0  0  0  0  0  0  0  0  0  0  0  0
  170.8820  -10.9390   32.3750 N   0  0  0  0  0  0  0  0  0  0  0  0
  168.5070  -10.4120   32.2110 C   0  0  0  0  0  0  0  0  0  0  0  0
  171.4510   -8.3400   31.5550 O   0  0  0  0  0  0  0  0  0  0  0  0
  165.8460   -9.9520   32.3760 S   0  0  0  0  0  0  0  0  0  0  0  0
  164.9560   -8.9330   31.9450 O   0  0  0  0  0  0  0  0  0  0  0  0
  165.7650  -10.3420   33.7580 O   0  0  0  0  0  0  0  0  0  0  0  0
  165.6250  -11.3320   31.4930 N   0  0  0  0  0  0  0  0  0  0  0  0
  165.6010  -12.6350   32.1870 C   0  0  0  0  0  0  0  0  0  0  0  0
  164.3450  -13.4650   31.9080 C   0  0  0  0  0  0  0  0  0  0  0  0
  164.5810  -13.5720   29.3920 C   0  0  0  0  0  0  0  0  0  0  0  0
  165.7750  -12.6200   29.2940 C   0  0  0  0  0  0  0  0  0  0  0  0
  163.7120  -15.0902   30.6479 H   0  0  0  0  0  0  0  0  0  0  0  0
  165.5069  -14.8888   30.8077 H   0  0  0  0  0  0  0  0  0  0  0  0
  166.2393  -10.5525   29.6389 H   0  0  0  0  0  0  0  0  0  0  0  0
  164.4668  -11.0278   29.7956 H   0  0  0  0  0  0  0  0  0  0  0  0
  171.8640   -6.5033   32.4311 H   0  0  0  0  0  0  0  0  0  0  0  0
  172.7105   -6.8328   30.8814 H   0  0  0  0  0  0  0  0  0  0  0  0
  170.9579   -6.4387   30.8814 H   0  0  0  0  0  0  0  0  0  0  0  0
  169.3012   -6.7380   31.2098 H   0  0  0  0  0  0  0  0  0  0  0  0
  166.9617   -7.4633   31.5226 H   0  0  0  0  0  0  0  0  0  0  0  0
  171.8691  -17.5184   32.5120 H   0  0  0  0  0  0  0  0  0  0  0  0
  173.0119  -12.3288   30.1364 H   0  0  0  0  0  0  0  0  0  0  0  0
  173.6856  -12.5596   27.7429 H   0  0  0  0  0  0  0  0  0  0  0  0
  173.8014  -14.8097   26.6825 H   0  0  0  0  0  0  0  0  0  0  0  0
  173.2615  -16.8599   27.9974 H   0  0  0  0  0  0  0  0  0  0  0  0
  171.9834  -13.3022   33.5691 H   0  0  0  0  0  0  0  0  0  0  0  0
  172.9754  -12.5081   32.2202 H   0  0  0  0  0  0  0  0  0  0  0  0
  171.6937  -10.5779   32.8962 H   0  0  0  0  0  0  0  0  0  0  0  0
  168.2809  -11.4587   32.4625 H   0  0  0  0  0  0  0  0  0  0  0  0
  166.4780  -13.2152   31.8642 H   0  0  0  0  0  0  0  0  0  0  0  0
  165.6087  -12.4215   33.2661 H   0  0  0  0  0  0  0  0  0  0  0  0
  163.5012  -12.7861   31.7154 H   0  0  0  0  0  0  0  0  0  0  0  0
  164.1411  -14.0959   32.7857 H   0  0  0  0  0  0  0  0  0  0  0  0
  163.6568  -12.9799   29.3197 H   0  0  0  0  0  0  0  0  0  0  0  0
  164.6774  -14.2973   28.5706 H   0  0  0  0  0  0  0  0  0  0  0  0
  166.6519  -13.1028   29.7499 H   0  0  0  0  0  0  0  0  0  0  0  0
  165.9478  -12.4018   28.2298 H   0  0  0  0  0  0  0  0  0  0  0  0
 17 16  2  0
 17 18  1  0
 16 15  1  0
 18 13  2  0
 33 32  1  0
 33  2  1  0
 32  1  1  0
 15 14  2  0
 13 14  1  0
 13 10  1  0
  2 29  1  0
  9 10  2  0
 14 19  1  0
 10 11  1  0
  1 31  1  0
 22 21  2  0
  5 25  1  0
 29 30  1  0
 29 26  1  0
  6  7  1  0
  6  4  2  0
 25  4  1  0
  7  8  2  0
  4  3  1  0
 19 20  1  0
 19 12  2  0
 31 30  1  0
 11 12  1  0
 27 26  2  0
  8 24  1  0
  8 26  1  0
 21 23  1  0
 21 20  1  0
  3 24  2  0
  3 23  1  0
 26 28  2  0
  1 34  1  0
  1 35  1  0
  2 36  1  0
  2 37  1  0
  5 38  1  0
  5 39  1  0
  5 40  1  0
  6 41  1  0
  7 42  1  0
 11 43  1  0
 15 44  1  0
 16 45  1  0
 17 46  1  0
 18 47  1  0
 20 48  1  0
 20 49  1  0
 23 50  1  0
 24 51  1  0
 30 52  1  0
 30 53  1  0
 31 54  1  0
 31 55  1  0
 32 56  1  0
 32 57  1  0
 33 58  1  0
 33 59  1  0
A    1
C10
A    2
C7
A    3
C1
A    4
C2
A    5
C3
A    6
C4
A    7
C5
A    8
C6
A    9
O4
A   10
C16
A   11
N3
A   12
N2
A   13
C17
A   14
C22
A   15
C21
A   16
C20
A   17
C19
A   18
C18
A   19
C15
A   20
C14
A   21
C
A   22
O
A   23
N
A   24
C13
A   25
O1
A   26
S
A   27
O2
A   28
O3
A   29
N1
A   30
C12
A   31
C11
A   32
C9
A   33
C8
M  END
