5FAH_5VT_A_302
     RDKit          3D

 61 64  0  0  0  0  0  0  0  0999 V2000
   14.5200   14.0510   40.6290 C   0  0  0  0  0  0  0  0  0  0  0  0
   15.8750   13.1030   38.8180 C   0  0  0  0  0  0  0  0  0  0  0  0
   15.8010   12.6300   33.4560 C   0  0  0  0  0  0  0  0  0  0  0  0
   15.7030   14.0550   32.8790 C   0  0  0  0  0  0  0  0  0  0  0  0
   15.5500   16.6570   31.7910 C   0  0  0  0  0  0  0  0  0  0  0  0
   16.0690   16.4600   33.0720 C   0  0  0  0  0  0  0  0  0  0  0  0
   16.1630   15.1560   33.6140 C   0  0  0  0  0  0  0  0  0  0  0  0
   15.1190   15.5510   31.0250 C   0  0  0  0  0  0  0  0  0  0  0  0
   15.1860   14.2380   31.5820 C   0  0  0  0  0  0  0  0  0  0  0  0
   14.7030   13.1820   30.7900 C   0  0  0  0  0  0  0  0  0  0  0  0
   14.1470   13.3950   29.5230 C   0  0  0  0  0  0  0  0  0  0  0  0
   14.0950   14.6900   29.0040 C   0  0  0  0  0  0  0  0  0  0  0  0
   14.5420   15.7690   29.7620 C   0  0  0  0  0  0  0  0  0  0  0  0
   15.5340   14.6930   41.6000 C   0  0  0  0  0  0  0  0  0  0  0  0
   14.9170   15.9630   42.1950 C   0  0  0  0  0  0  0  0  0  0  0  0
   15.1370   17.2130   41.6070 C   0  0  0  0  0  0  0  0  0  0  0  0
   13.7110   18.2570   43.2960 C   0  0  0  0  0  0  0  0  0  0  0  0
   13.4870   17.0050   43.8800 C   0  0  0  0  0  0  0  0  0  0  0  0
   14.5360   18.3660   42.1600 C   0  0  0  0  0  0  0  0  0  0  0  0
   14.0910   15.8680   43.3170 C   0  0  0  0  0  0  0  0  0  0  0  0
   15.1300   12.9370   39.8940 N   0  0  0  0  0  0  0  0  0  0  0  0
   16.4750   11.8500   38.2270 C   0  0  0  0  0  0  0  0  0  0  0  0
   16.9790   12.0730   36.8880 N   0  0  0  0  0  0  0  0  0  0  0  0
   17.7430   11.4080   39.0030 C   0  0  0  0  0  0  0  0  0  0  0  0
   18.3900   11.7310   36.7290 C   0  0  0  0  0  0  0  0  0  0  0  0
   18.6440   10.7940   37.9330 C   0  0  0  0  0  0  0  0  0  0  0  0
   16.0750   14.2280   38.3170 O   0  0  0  0  0  0  0  0  0  0  0  0
   16.0930   12.2820   35.8710 C   0  0  0  0  0  0  0  0  0  0  0  0
   14.8720   12.2330   36.0600 O   0  0  0  0  0  0  0  0  0  0  0  0
   16.6160   12.5040   34.6500 N   0  0  0  0  0  0  0  0  0  0  0  0
   13.1000   19.4030   43.8600 O   0  0  0  0  0  0  0  0  0  0  0  0
   12.3880   19.4210   45.1120 C   0  0  0  0  0  0  0  0  0  0  0  0
   14.1779   14.8113   39.9114 H   0  0  0  0  0  0  0  0  0  0  0  0
   13.6720   13.6637   41.2128 H   0  0  0  0  0  0  0  0  0  0  0  0
   14.7836   12.2907   33.7005 H   0  0  0  0  0  0  0  0  0  0  0  0
   16.2926   12.0200   32.6838 H   0  0  0  0  0  0  0  0  0  0  0  0
   15.4766   17.6739   31.3780 H   0  0  0  0  0  0  0  0  0  0  0  0
   16.4069   17.3236   33.6637 H   0  0  0  0  0  0  0  0  0  0  0  0
   16.5976   15.0065   34.6134 H   0  0  0  0  0  0  0  0  0  0  0  0
   14.7639   12.1547   31.1784 H   0  0  0  0  0  0  0  0  0  0  0  0
   13.7541   12.5485   28.9408 H   0  0  0  0  0  0  0  0  0  0  0  0
   13.6991   14.8587   27.9917 H   0  0  0  0  0  0  0  0  0  0  0  0
   14.4435   16.7929   29.3721 H   0  0  0  0  0  0  0  0  0  0  0  0
   15.7712   13.9847   42.4074 H   0  0  0  0  0  0  0  0  0  0  0  0
   16.4582   14.9459   41.0597 H   0  0  0  0  0  0  0  0  0  0  0  0
   15.7765   17.2982   40.7160 H   0  0  0  0  0  0  0  0  0  0  0  0
   12.8459   16.9121   44.7690 H   0  0  0  0  0  0  0  0  0  0  0  0
   14.7129   19.3505   41.7023 H   0  0  0  0  0  0  0  0  0  0  0  0
   13.9093   14.8821   43.7697 H   0  0  0  0  0  0  0  0  0  0  0  0
   14.9686   11.9785   40.2349 H   0  0  0  0  0  0  0  0  0  0  0  0
   15.6618   11.1101   38.2619 H   0  0  0  0  0  0  0  0  0  0  0  0
   17.4895   10.6643   39.7729 H   0  0  0  0  0  0  0  0  0  0  0  0
   18.2259   12.2436   39.5308 H   0  0  0  0  0  0  0  0  0  0  0  0
   18.5683   11.2113   35.7761 H   0  0  0  0  0  0  0  0  0  0  0  0
   19.0543   12.6075   36.7072 H   0  0  0  0  0  0  0  0  0  0  0  0
   18.3473    9.7596   37.7050 H   0  0  0  0  0  0  0  0  0  0  0  0
   19.7015   10.7244   38.2277 H   0  0  0  0  0  0  0  0  0  0  0  0
   17.6386   12.5880   34.5598 H   0  0  0  0  0  0  0  0  0  0  0  0
   13.1079   19.4028   45.9435 H   0  0  0  0  0  0  0  0  0  0  0  0
   11.7789   20.3348   45.1743 H   0  0  0  0  0  0  0  0  0  0  0  0
   11.7335   18.5391   45.1743 H   0  0  0  0  0  0  0  0  0  0  0  0
 12 11  1  0
 12 13  2  0
 11 10  2  0
 13  8  1  0
 10  9  1  0
  8  9  1  0
  8  5  2  0
  9  4  2  0
  5  6  1  0
  4  3  1  0
  4  7  1  0
  6  7  2  0
  3 30  1  0
 30 28  1  0
 28 29  2  0
 28 23  1  0
 25 23  1  0
 25 26  1  0
 23 22  1  0
 26 24  1  0
 22  2  1  0
 22 24  1  0
 27  2  2  0
  2 21  1  0
 21  1  1  0
  1 14  1  0
 14 15  1  0
 16 19  2  0
 16 15  1  0
 19 17  1  0
 15 20  2  0
 17 31  1  0
 17 18  2  0
 20 18  1  0
 31 32  1  0
  1 33  1  0
  1 34  1  0
  3 35  1  0
  3 36  1  0
  5 37  1  0
  6 38  1  0
  7 39  1  0
 10 40  1  0
 11 41  1  0
 12 42  1  0
 13 43  1  0
 14 44  1  0
 14 45  1  0
 16 46  1  0
 18 47  1  0
 19 48  1  0
 20 49  1  0
 21 50  1  0
 22 51  1  0
 24 52  1  0
 24 53  1  0
 25 54  1  0
 25 55  1  0
 26 56  1  0
 26 57  1  0
 30 58  1  0
 32 59  1  0
 32 60  1  0
 32 61  1  0
A    1
C2
A    2
C3
A    3
C13
A    4
C14
A    5
C15
A    6
C16
A    7
C17
A    8
C18
A    9
C19
A   10
C20
A   11
C21
A   12
C22
A   13
C23
A   14
C24
A   15
C25
A   16
C26
A   17
C27
A   18
C28
A   19
C29
A   20
C30
A   21
N1
A   22
C4
A   23
N5
A   24
C6
A   25
C7
A   26
C8
A   27
O9
A   28
C10
A   29
O11
A   30
N12
A   31
O31
A   32
C32
M  END
