5FBR_5W7_A_801
     RDKit          3D

 69 72  0  0  0  0  0  0  0  0999 V2000
    9.0180  -13.0120   34.9500 C   0  0  0  0  0  0  0  0  0  0  0  0
    1.5900  -13.6570   35.6840 C   0  0  0  0  0  0  0  0  0  0  0  0
    1.5430  -13.5850   34.1800 C   0  0  0  0  0  0  0  0  0  0  0  0
    1.0160  -13.9120   37.7990 C   0  0  0  0  0  0  0  0  0  0  0  0
    2.4480  -13.7000   40.2130 C   0  0  0  0  0  0  0  0  0  0  0  0
    1.0950  -14.0300   40.2730 C   0  0  0  0  0  0  0  0  0  0  0  0
    7.4260  -15.2460   42.7360 N   0  0  0  0  0  0  0  0  0  0  0  0
    4.1900  -13.0710   36.3600 C   0  0  0  0  0  0  0  0  0  0  0  0
    2.7500  -13.4220   36.5760 C   0  0  0  0  0  0  0  0  0  0  0  0
    6.8750  -12.4350   35.9240 C   0  0  0  0  0  0  0  0  0  0  0  0
    7.9330  -14.1220   41.9020 C   0  0  0  0  0  0  0  0  0  0  0  0
    6.8440  -13.0680   41.7460 C   0  0  0  0  0  0  0  0  0  0  0  0
    8.3490  -14.6310   40.5250 C   0  0  0  0  0  0  0  0  0  0  0  0
    7.3020  -11.9290   40.8410 C   0  0  0  0  0  0  0  0  0  0  0  0
    4.9080  -13.7130   35.3570 C   0  0  0  0  0  0  0  0  0  0  0  0
    6.2450  -13.3960   35.1410 C   0  0  0  0  0  0  0  0  0  0  0  0
    0.3450  -14.1440   39.1080 C   0  0  0  0  0  0  0  0  0  0  0  0
    6.1670  -11.7880   36.9240 C   0  0  0  0  0  0  0  0  0  0  0  0
    4.8270  -12.1040   37.1350 C   0  0  0  0  0  0  0  0  0  0  0  0
    7.6890  -12.4530   39.4620 C   0  0  0  0  0  0  0  0  0  0  0  0
    8.7980  -13.4880   39.6200 C   0  0  0  0  0  0  0  0  0  0  0  0
   -2.5860  -12.8040   40.0140 C   0  0  0  0  0  0  0  0  0  0  0  0
   -1.7510  -14.0420   40.3150 C   0  0  0  0  0  0  0  0  0  0  0  0
   -4.8840  -12.2460   40.5330 C   0  0  0  0  0  0  0  0  0  0  0  0
   -6.0510  -12.6650   41.3820 C   0  0  0  0  0  0  0  0  0  0  0  0
    6.8830  -10.6840   37.8360 S   0  0  0  0  0  0  0  0  0  0  0  0
    5.9540  -10.1790   38.8060 O   0  0  0  0  0  0  0  0  0  0  0  0
    7.3320   -9.5970   37.0100 O   0  0  0  0  0  0  0  0  0  0  0  0
    8.1460  -11.3400   38.6020 N   0  0  0  0  0  0  0  0  0  0  0  0
    8.1940  -12.1280   35.7060 O   0  0  0  0  0  0  0  0  0  0  0  0
    0.5660  -13.9500   36.5160 N   0  0  0  0  0  0  0  0  0  0  0  0
    2.3180  -13.6010   37.8240 N   0  0  0  0  0  0  0  0  0  0  0  0
    3.0530  -13.4900   39.0160 N   0  0  0  0  0  0  0  0  0  0  0  0
    3.3840  -13.5590   41.7450 Cl  0  0  0  0  0  0  0  0  0  0  0  0
   -0.9650  -14.4640   39.1740 N   0  0  0  0  0  0  0  0  0  0  0  0
   -3.6970  -12.6850   40.9370 N   0  0  0  0  0  0  0  0  0  0  0  0
   -5.0110  -11.5550   39.5330 O   0  0  0  0  0  0  0  0  0  0  0  0
    9.6050  -13.6417   35.6348 H   0  0  0  0  0  0  0  0  0  0  0  0
    8.3855  -13.6506   34.3159 H   0  0  0  0  0  0  0  0  0  0  0  0
    9.6994  -12.4258   34.3159 H   0  0  0  0  0  0  0  0  0  0  0  0
    0.9656  -12.7005   33.8731 H   0  0  0  0  0  0  0  0  0  0  0  0
    2.5666  -13.5100   33.7843 H   0  0  0  0  0  0  0  0  0  0  0  0
    1.0625  -14.4919   33.7843 H   0  0  0  0  0  0  0  0  0  0  0  0
    0.6174  -14.2014   41.2490 H   0  0  0  0  0  0  0  0  0  0  0  0
    7.5328  -15.0093   43.7327 H   0  0  0  0  0  0  0  0  0  0  0  0
    6.4306  -15.4074   42.5262 H   0  0  0  0  0  0  0  0  0  0  0  0
    8.8082  -13.6783   42.3991 H   0  0  0  0  0  0  0  0  0  0  0  0
    6.5949  -12.6605   42.7369 H   0  0  0  0  0  0  0  0  0  0  0  0
    5.9636  -13.5429   41.2885 H   0  0  0  0  0  0  0  0  0  0  0  0
    7.4933  -15.1413   40.0588 H   0  0  0  0  0  0  0  0  0  0  0  0
    9.1944  -15.3230   40.6532 H   0  0  0  0  0  0  0  0  0  0  0  0
    8.1730  -11.4350   41.2963 H   0  0  0  0  0  0  0  0  0  0  0  0
    6.4727  -11.2154   40.7263 H   0  0  0  0  0  0  0  0  0  0  0  0
    4.4171  -14.4739   34.7325 H   0  0  0  0  0  0  0  0  0  0  0  0
    6.8071  -13.9084   34.3463 H   0  0  0  0  0  0  0  0  0  0  0  0
    4.2642  -11.5833   37.9238 H   0  0  0  0  0  0  0  0  0  0  0  0
    6.8143  -12.9198   38.9854 H   0  0  0  0  0  0  0  0  0  0  0  0
    9.0572  -13.8924   38.6304 H   0  0  0  0  0  0  0  0  0  0  0  0
    9.6722  -13.0004   40.0761 H   0  0  0  0  0  0  0  0  0  0  0  0
   -1.9491  -11.9114   40.1019 H   0  0  0  0  0  0  0  0  0  0  0  0
   -2.9881  -12.8942   38.9941 H   0  0  0  0  0  0  0  0  0  0  0  0
   -2.4250  -14.8621   40.6034 H   0  0  0  0  0  0  0  0  0  0  0  0
   -1.0553  -13.7897   41.1289 H   0  0  0  0  0  0  0  0  0  0  0  0
   -5.7843  -12.5692   42.4449 H   0  0  0  0  0  0  0  0  0  0  0  0
   -6.9150  -12.0209   41.1613 H   0  0  0  0  0  0  0  0  0  0  0  0
   -6.3080  -13.7115   41.1613 H   0  0  0  0  0  0  0  0  0  0  0  0
    8.8181  -11.6979   37.9084 H   0  0  0  0  0  0  0  0  0  0  0  0
   -1.4037  -15.0061   38.4160 H   0  0  0  0  0  0  0  0  0  0  0  0
   -3.5638  -12.9456   41.9245 H   0  0  0  0  0  0  0  0  0  0  0  0
  3  2  1  0
  1 30  1  0
 16 15  1  0
 16 10  2  0
 15  8  2  0
  2 31  1  0
  2  9  2  0
 30 10  1  0
 10 18  1  0
  8  9  1  0
  8 19  1  0
 31  4  2  0
  9 32  1  0
 18 19  2  0
 18 26  1  0
 28 26  2  0
  4 32  1  0
  4 17  1  0
 32 33  1  0
 26 29  1  0
 26 27  2  0
 29 20  1  0
 33  5  2  0
 17 35  1  0
 17  6  2  0
 35 23  1  0
 20 21  1  0
 20 14  1  0
 37 24  2  0
 21 13  1  0
 22 23  1  0
 22 36  1  0
  5  6  1  0
  5 34  1  0
 13 11  1  0
 24 36  1  0
 24 25  1  0
 14 12  1  0
 12 11  1  0
 11  7  1  0
  1 38  1  0
  1 39  1  0
  1 40  1  0
  3 41  1  0
  3 42  1  0
  3 43  1  0
  6 44  1  0
  7 45  1  0
  7 46  1  0
 11 47  1  0
 12 48  1  0
 12 49  1  0
 13 50  1  0
 13 51  1  0
 14 52  1  0
 14 53  1  0
 15 54  1  0
 16 55  1  0
 19 56  1  0
 20 57  1  0
 21 58  1  0
 21 59  1  0
 22 60  1  0
 22 61  1  0
 23 62  1  0
 23 63  1  0
 25 64  1  0
 25 65  1  0
 25 66  1  0
 29 67  1  0
 35 68  1  0
 36 69  1  0
A    1
C18
A    2
C19
A    3
C20
A    4
C23
A    5
C25
A    6
C26
A    7
N1
A    8
C2
A    9
C1
A   10
C5
A   11
C9
A   12
C8
A   13
C13
A   14
C12
A   15
C3
A   16
C4
A   17
C27
A   18
C6
A   19
C7
A   20
C11
A   21
C10
A   22
C31
A   23
C30
A   24
C33
A   25
C34
A   26
S8
A   27
O9
A   28
O10
A   29
N11
A   30
O17
A   31
N21
A   32
N22
A   33
N24
A   34
CL1
A   35
N29
A   36
N32
A   37
O35
M  END
