5FBV_5W3_A_801
     RDKit          3D

 58 60  0  0  0  0  0  0  0  0999 V2000
   46.2840   64.7450  129.4750 C   0  0  0  0  0  0  0  0  0  0  0  0
   44.8280   64.4760  129.1950 C   0  0  0  0  0  0  0  0  0  0  0  0
   44.2840   65.1300  128.1120 C   0  0  0  0  0  0  0  0  0  0  0  0
   42.9570   64.9090  127.7790 C   0  0  0  0  0  0  0  0  0  0  0  0
   42.1230   64.0480  128.4970 C   0  0  0  0  0  0  0  0  0  0  0  0
   42.6390   63.3680  129.6110 C   0  0  0  0  0  0  0  0  0  0  0  0
   44.0010   63.5830  129.9310 C   0  0  0  0  0  0  0  0  0  0  0  0
   41.6770   62.3830  130.4730 S   0  0  0  0  0  0  0  0  0  0  0  0
   42.4410   61.5540  131.3590 O   0  0  0  0  0  0  0  0  0  0  0  0
   40.9610   61.5220  129.5770 O   0  0  0  0  0  0  0  0  0  0  0  0
   40.6280   63.1990  131.4150 N   0  0  0  0  0  0  0  0  0  0  0  0
   40.8120   63.9090  128.0600 O   0  0  0  0  0  0  0  0  0  0  0  0
   39.6980   64.5330  128.7080 C   0  0  0  0  0  0  0  0  0  0  0  0
   47.5110   65.0640  128.6820 C   0  0  0  0  0  0  0  0  0  0  0  0
   47.6680   65.2580  127.2020 C   0  0  0  0  0  0  0  0  0  0  0  0
   48.5110   65.1590  129.5960 N   0  0  0  0  0  0  0  0  0  0  0  0
   46.6830   64.6830  130.7370 N   0  0  0  0  0  0  0  0  0  0  0  0
   48.0040   64.9240  130.8500 C   0  0  0  0  0  0  0  0  0  0  0  0
   45.8720   64.4030  131.8360 N   0  0  0  0  0  0  0  0  0  0  0  0
   46.3590   64.3450  133.0980 C   0  0  0  0  0  0  0  0  0  0  0  0
   47.7370   64.5870  133.2920 C   0  0  0  0  0  0  0  0  0  0  0  0
   48.6090   64.8860  132.2300 C   0  0  0  0  0  0  0  0  0  0  0  0
   45.1900   63.9600  134.4480 Cl  0  0  0  0  0  0  0  0  0  0  0  0
   49.9430   65.0990  132.4580 N   0  0  0  0  0  0  0  0  0  0  0  0
   50.7860   63.9760  132.8820 C   0  0  0  0  0  0  0  0  0  0  0  0
   52.2780   63.9880  132.4930 C   0  0  0  0  0  0  0  0  0  0  0  0
   53.2060   63.4330  133.5070 N   0  0  0  0  0  0  0  0  0  0  0  0
   54.1040   64.0960  134.2920 C   0  0  0  0  0  0  0  0  0  0  0  0
   53.7570   65.4980  134.7420 C   0  0  0  0  0  0  0  0  0  0  0  0
   55.1690   63.5750  134.6460 O   0  0  0  0  0  0  0  0  0  0  0  0
   41.3900   63.9080  132.4510 C   0  0  0  0  0  0  0  0  0  0  0  0
   40.4550   64.4710  133.5140 C   0  0  0  0  0  0  0  0  0  0  0  0
   41.2170   64.8780  134.6630 O   0  0  0  0  0  0  0  0  0  0  0  0
   44.8975   65.8219  127.5163 H   0  0  0  0  0  0  0  0  0  0  0  0
   42.5405   65.4364  126.9081 H   0  0  0  0  0  0  0  0  0  0  0  0
   44.4366   63.0385  130.7817 H   0  0  0  0  0  0  0  0  0  0  0  0
   39.9712   62.5396  131.8563 H   0  0  0  0  0  0  0  0  0  0  0  0
   39.8222   64.4634  129.7987 H   0  0  0  0  0  0  0  0  0  0  0  0
   39.6469   65.5911  128.4115 H   0  0  0  0  0  0  0  0  0  0  0  0
   38.7691   64.0239  128.4115 H   0  0  0  0  0  0  0  0  0  0  0  0
   48.3497   66.1003  127.0129 H   0  0  0  0  0  0  0  0  0  0  0  0
   48.0829   64.3429  126.7542 H   0  0  0  0  0  0  0  0  0  0  0  0
   46.6865   65.4729  126.7542 H   0  0  0  0  0  0  0  0  0  0  0  0
   48.1437   64.5398  134.3130 H   0  0  0  0  0  0  0  0  0  0  0  0
   50.3494   66.0372  132.3331 H   0  0  0  0  0  0  0  0  0  0  0  0
   50.3469   63.0616  132.4565 H   0  0  0  0  0  0  0  0  0  0  0  0
   50.7935   64.0445  133.9798 H   0  0  0  0  0  0  0  0  0  0  0  0
   52.5699   65.0311  132.3012 H   0  0  0  0  0  0  0  0  0  0  0  0
   52.3660   63.3341  131.6128 H   0  0  0  0  0  0  0  0  0  0  0  0
   53.1680   62.4118  133.6361 H   0  0  0  0  0  0  0  0  0  0  0  0
   53.7470   65.5383  135.8412 H   0  0  0  0  0  0  0  0  0  0  0  0
   54.5077   66.2033  134.3560 H   0  0  0  0  0  0  0  0  0  0  0  0
   52.7640   65.7718  134.3560 H   0  0  0  0  0  0  0  0  0  0  0  0
   41.9488   64.7341  131.9870 H   0  0  0  0  0  0  0  0  0  0  0  0
   42.0835   63.1999  132.9280 H   0  0  0  0  0  0  0  0  0  0  0  0
   39.7309   63.6979  133.8106 H   0  0  0  0  0  0  0  0  0  0  0  0
   39.9200   65.3407  133.1049 H   0  0  0  0  0  0  0  0  0  0  0  0
   40.7339   64.6199  135.4877 H   0  0  0  0  0  0  0  0  0  0  0  0
 29 28  1  0
 33 32  1  0
 30 28  2  0
 23 20  1  0
 28 27  1  0
 32 31  1  0
 27 26  1  0
 21 20  1  0
 21 22  2  0
 20 19  2  0
 25 26  1  0
 25 24  1  0
 24 22  1  0
 31 11  1  0
 22 18  1  0
 19 17  1  0
 11  8  1  0
  9  8  2  0
 18 17  1  0
 18 16  2  0
 17  1  1  0
  8  6  1  0
  8 10  2  0
  7  6  2  0
  7  2  1  0
  6  5  1  0
 16 14  1  0
  1  2  1  0
  1 14  2  0
  2  3  2  0
 13 12  1  0
 14 15  1  0
  5 12  1  0
  5  4  2  0
  3  4  1  0
  3 34  1  0
  4 35  1  0
  7 36  1  0
 11 37  1  0
 13 38  1  0
 13 39  1  0
 13 40  1  0
 15 41  1  0
 15 42  1  0
 15 43  1  0
 21 44  1  0
 24 45  1  0
 25 46  1  0
 25 47  1  0
 26 48  1  0
 26 49  1  0
 27 50  1  0
 29 51  1  0
 29 52  1  0
 29 53  1  0
 31 54  1  0
 31 55  1  0
 32 56  1  0
 32 57  1  0
 33 58  1  0
A    1
C1
A    2
C2
A    3
C3
A    4
C4
A    5
C5
A    6
C6
A    7
C7
A    8
S8
A    9
O9
A   10
O10
A   11
N11
A   12
O17
A   13
C18
A   14
C19
A   15
C20
A   16
N21
A   17
N22
A   18
C23
A   19
N24
A   20
C25
A   21
C26
A   22
C27
A   23
CL
A   24
N29
A   25
C30
A   26
C31
A   27
N32
A   28
C33
A   29
C34
A   30
O35
A   31
C11
A   32
C12
A   33
O1
M  END
