5FBW_5W8_A_801
     RDKit          3D

 64 66  0  0  0  0  0  0  0  0999 V2000
   29.9140   94.6010  131.4950 C   0  0  0  0  0  0  0  0  0  0  0  0
   26.0410   90.6010  129.5730 C   0  0  0  0  0  0  0  0  0  0  0  0
   25.2430   90.4940  131.6300 C   0  0  0  0  0  0  0  0  0  0  0  0
   27.1210   90.8180  130.5680 C   0  0  0  0  0  0  0  0  0  0  0  0
   28.5890   91.0920  130.4240 C   0  0  0  0  0  0  0  0  0  0  0  0
   29.1380   90.9920  129.1580 C   0  0  0  0  0  0  0  0  0  0  0  0
   30.4870   91.2450  128.9650 C   0  0  0  0  0  0  0  0  0  0  0  0
   31.3100   91.6020  130.0230 C   0  0  0  0  0  0  0  0  0  0  0  0
   30.7870   91.7040  131.3120 C   0  0  0  0  0  0  0  0  0  0  0  0
   29.4210   91.4560  131.4840 C   0  0  0  0  0  0  0  0  0  0  0  0
   32.4160   94.4960  131.9000 C   0  0  0  0  0  0  0  0  0  0  0  0
   31.2880   94.6680  130.8680 C   0  0  0  0  0  0  0  0  0  0  0  0
   33.6590   95.2720  131.4820 C   0  0  0  0  0  0  0  0  0  0  0  0
   33.6060   90.8060  129.9320 C   0  0  0  0  0  0  0  0  0  0  0  0
   26.1520   90.5930  128.0730 C   0  0  0  0  0  0  0  0  0  0  0  0
   31.7180   92.1300  132.5660 S   0  0  0  0  0  0  0  0  0  0  0  0
   32.3600   90.9860  133.1610 O   0  0  0  0  0  0  0  0  0  0  0  0
   30.9560   92.8190  133.5770 O   0  0  0  0  0  0  0  0  0  0  0  0
   32.8790   93.1000  132.0360 N   0  0  0  0  0  0  0  0  0  0  0  0
   32.6350   91.8410  129.7730 O   0  0  0  0  0  0  0  0  0  0  0  0
   24.9230   90.4080  130.3060 N   0  0  0  0  0  0  0  0  0  0  0  0
   26.5520   90.7380  131.7770 N   0  0  0  0  0  0  0  0  0  0  0  0
   27.1500   90.8740  133.0380 N   0  0  0  0  0  0  0  0  0  0  0  0
   26.4160   90.7620  134.1720 C   0  0  0  0  0  0  0  0  0  0  0  0
   25.0500   90.5060  134.1030 C   0  0  0  0  0  0  0  0  0  0  0  0
   24.4300   90.3670  132.8700 C   0  0  0  0  0  0  0  0  0  0  0  0
   27.1970   90.9420  135.7850 Cl  0  0  0  0  0  0  0  0  0  0  0  0
   23.1070   90.1220  132.8290 N   0  0  0  0  0  0  0  0  0  0  0  0
   22.3550   90.2540  134.0610 C   0  0  0  0  0  0  0  0  0  0  0  0
   21.7280   91.6380  134.1720 C   0  0  0  0  0  0  0  0  0  0  0  0
   20.3180   91.6210  134.5250 N   0  0  0  0  0  0  0  0  0  0  0  0
   19.7530   90.8070  135.4280 C   0  0  0  0  0  0  0  0  0  0  0  0
   18.2770   91.0240  135.6050 C   0  0  0  0  0  0  0  0  0  0  0  0
   20.3600   89.9560  136.0720 O   0  0  0  0  0  0  0  0  0  0  0  0
   33.3440   96.5940  131.0310 O   0  0  0  0  0  0  0  0  0  0  0  0
   30.0104   94.6057  132.5908 H   0  0  0  0  0  0  0  0  0  0  0  0
   29.3222   95.4714  131.1752 H   0  0  0  0  0  0  0  0  0  0  0  0
   29.4097   93.6772  131.1752 H   0  0  0  0  0  0  0  0  0  0  0  0
   28.5036   90.7116  128.3042 H   0  0  0  0  0  0  0  0  0  0  0  0
   30.9128   91.1611  127.9542 H   0  0  0  0  0  0  0  0  0  0  0  0
   28.9872   91.5512  132.4903 H   0  0  0  0  0  0  0  0  0  0  0  0
   31.9781   94.8544  132.8433 H   0  0  0  0  0  0  0  0  0  0  0  0
   31.3723   93.8688  130.1169 H   0  0  0  0  0  0  0  0  0  0  0  0
   31.3997   95.6636  130.4138 H   0  0  0  0  0  0  0  0  0  0  0  0
   34.1583   94.7288  130.6662 H   0  0  0  0  0  0  0  0  0  0  0  0
   34.3133   95.3618  132.3617 H   0  0  0  0  0  0  0  0  0  0  0  0
   33.7763   90.6245  131.0035 H   0  0  0  0  0  0  0  0  0  0  0  0
   33.2398   89.8836  129.4575 H   0  0  0  0  0  0  0  0  0  0  0  0
   34.5498   91.1127  129.4575 H   0  0  0  0  0  0  0  0  0  0  0  0
   27.2106   90.5167  127.7841 H   0  0  0  0  0  0  0  0  0  0  0  0
   25.5987   89.7324  127.6690 H   0  0  0  0  0  0  0  0  0  0  0  0
   25.7278   91.5240  127.6690 H   0  0  0  0  0  0  0  0  0  0  0  0
   33.1981   92.7646  131.1159 H   0  0  0  0  0  0  0  0  0  0  0  0
   24.4611   90.4137  135.0275 H   0  0  0  0  0  0  0  0  0  0  0  0
   22.6439   89.8495  131.9503 H   0  0  0  0  0  0  0  0  0  0  0  0
   21.5584   89.4956  134.0793 H   0  0  0  0  0  0  0  0  0  0  0  0
   23.0421   90.1115  134.9081 H   0  0  0  0  0  0  0  0  0  0  0  0
   22.2711   92.2031  134.9438 H   0  0  0  0  0  0  0  0  0  0  0  0
   21.8018   92.1019  133.1773 H   0  0  0  0  0  0  0  0  0  0  0  0
   19.7019   92.2898  134.0412 H   0  0  0  0  0  0  0  0  0  0  0  0
   18.0377   91.0592  136.6781 H   0  0  0  0  0  0  0  0  0  0  0  0
   17.9870   91.9744  135.1333 H   0  0  0  0  0  0  0  0  0  0  0  0
   17.7257   90.1973  135.1333 H   0  0  0  0  0  0  0  0  0  0  0  0
   33.2033   97.1847  131.8129 H   0  0  0  0  0  0  0  0  0  0  0  0
 15  2  1  0
  7  6  2  0
  7  8  1  0
  6  5  1  0
  2 21  1  0
  2  4  2  0
 20 14  1  0
 20  8  1  0
  8  9  2  0
 21  3  2  0
  5  4  1  0
  5 10  2  0
  4 22  1  0
 12  1  1  0
 12 11  1  0
 35 13  1  0
  9 10  1  0
  9 16  1  0
 13 11  1  0
  3 22  1  0
  3 26  1  0
 22 23  1  0
 11 19  1  0
 19 16  1  0
 16 17  2  0
 16 18  2  0
 28 26  1  0
 28 29  1  0
 26 25  2  0
 23 24  2  0
 29 30  1  0
 25 24  1  0
 24 27  1  0
 30 31  1  0
 31 32  1  0
 32 33  1  0
 32 34  2  0
  1 36  1  0
  1 37  1  0
  1 38  1  0
  6 39  1  0
  7 40  1  0
 10 41  1  0
 11 42  1  0
 12 43  1  0
 12 44  1  0
 13 45  1  0
 13 46  1  0
 14 47  1  0
 14 48  1  0
 14 49  1  0
 15 50  1  0
 15 51  1  0
 15 52  1  0
 19 53  1  0
 25 54  1  0
 28 55  1  0
 29 56  1  0
 29 57  1  0
 30 58  1  0
 30 59  1  0
 31 60  1  0
 33 61  1  0
 33 62  1  0
 33 63  1  0
 35 64  1  0
A    1
C10
A    2
C19
A    3
C23
A    4
C1
A    5
C2
A    6
C3
A    7
C4
A    8
C5
A    9
C6
A   10
C7
A   11
C8
A   12
C9
A   13
C11
A   14
C18
A   15
C20
A   16
S8
A   17
O9
A   18
O10
A   19
N11
A   20
O17
A   21
N21
A   22
N22
A   23
N24
A   24
C25
A   25
C26
A   26
C27
A   27
CL1
A   28
N29
A   29
C30
A   30
C31
A   31
N32
A   32
C33
A   33
C34
A   34
O35
A   35
O12
M  END
