5FC4_5WL_A_401
     RDKit          3D

 52 55  0  0  0  0  0  0  0  0999 V2000
    1.7780    3.9800    5.2050 C   0  0  0  0  0  0  0  0  0  0  0  0
    0.7670    2.8940    6.1370 S   0  0  0  0  0  0  0  0  0  0  0  0
    1.2290    1.5230    5.9430 O   0  0  0  0  0  0  0  0  0  0  0  0
   -0.6190    3.1120    5.6750 O   0  0  0  0  0  0  0  0  0  0  0  0
    0.7920    3.2850    7.6190 N   0  0  0  0  0  0  0  0  0  0  0  0
    1.9440    3.2490    8.4180 C   0  0  0  0  0  0  0  0  0  0  0  0
    3.0300    2.9100    7.9110 O   0  0  0  0  0  0  0  0  0  0  0  0
    1.7730    3.6070    9.8020 C   0  0  0  0  0  0  0  0  0  0  0  0
    0.5270    3.7800   10.3750 N   0  0  0  0  0  0  0  0  0  0  0  0
    0.7230    4.1460   11.6410 C   0  0  0  0  0  0  0  0  0  0  0  0
   -0.2570    4.4170   12.6250 C   0  0  0  0  0  0  0  0  0  0  0  0
    0.2310    4.7840   13.8940 C   0  0  0  0  0  0  0  0  0  0  0  0
   -0.9590    5.1120   15.1240 Cl  0  0  0  0  0  0  0  0  0  0  0  0
    1.5690    4.8810   14.2580 C   0  0  0  0  0  0  0  0  0  0  0  0
    2.5170    4.5840   13.2720 C   0  0  0  0  0  0  0  0  0  0  0  0
    2.1070    4.1720   11.9590 C   0  0  0  0  0  0  0  0  0  0  0  0
    2.7640    3.8450   10.7540 C   0  0  0  0  0  0  0  0  0  0  0  0
    4.2860    3.7830   10.5010 C   0  0  0  0  0  0  0  0  0  0  0  0
    4.8570    2.3820   10.8270 C   0  0  0  0  0  0  0  0  0  0  0  0
    4.8310    2.0570   12.2590 C   0  0  0  0  0  0  0  0  0  0  0  0
    5.7530    2.8360   13.0110 O   0  0  0  0  0  0  0  0  0  0  0  0
    5.8810    2.6100   14.3840 C   0  0  0  0  0  0  0  0  0  0  0  0
    6.8790    3.4130   15.0310 C   0  0  0  0  0  0  0  0  0  0  0  0
    7.6800    4.3420   14.2860 C   0  0  0  0  0  0  0  0  0  0  0  0
    8.6750    5.1030   14.9020 C   0  0  0  0  0  0  0  0  0  0  0  0
    8.8460    4.9410   16.2760 C   0  0  0  0  0  0  0  0  0  0  0  0
    8.0220    4.1240   17.0020 C   0  0  0  0  0  0  0  0  0  0  0  0
    7.0770    3.2880   16.3870 C   0  0  0  0  0  0  0  0  0  0  0  0
    6.1940    2.3720   17.1070 C   0  0  0  0  0  0  0  0  0  0  0  0
    5.2100    1.5970   16.4770 C   0  0  0  0  0  0  0  0  0  0  0  0
    5.0440    1.7290   15.0750 C   0  0  0  0  0  0  0  0  0  0  0  0
    2.3654    4.6110    5.8882 H   0  0  0  0  0  0  0  0  0  0  0  0
    2.4590    3.3934    4.5709 H   0  0  0  0  0  0  0  0  0  0  0  0
    1.1443    4.6174    4.5709 H   0  0  0  0  0  0  0  0  0  0  0  0
   -0.0897    3.5924    8.0538 H   0  0  0  0  0  0  0  0  0  0  0  0
   -0.3829    3.6502    9.9101 H   0  0  0  0  0  0  0  0  0  0  0  0
   -1.3338    4.3454   12.4119 H   0  0  0  0  0  0  0  0  0  0  0  0
    1.8689    5.1775   15.2739 H   0  0  0  0  0  0  0  0  0  0  0  0
    3.5887    4.6672   13.5057 H   0  0  0  0  0  0  0  0  0  0  0  0
    4.4824    4.0121    9.4432 H   0  0  0  0  0  0  0  0  0  0  0  0
    4.7758    4.5173   11.1574 H   0  0  0  0  0  0  0  0  0  0  0  0
    4.2620    1.6297   10.2885 H   0  0  0  0  0  0  0  0  0  0  0  0
    5.9117    2.3819   10.5145 H   0  0  0  0  0  0  0  0  0  0  0  0
    3.8172    2.2411   12.6442 H   0  0  0  0  0  0  0  0  0  0  0  0
    5.1192    1.0010   12.3674 H   0  0  0  0  0  0  0  0  0  0  0  0
    7.5061    4.4569   13.2059 H   0  0  0  0  0  0  0  0  0  0  0  0
    9.2991    5.8024   14.3264 H   0  0  0  0  0  0  0  0  0  0  0  0
    9.6581    5.4797   16.7862 H   0  0  0  0  0  0  0  0  0  0  0  0
    8.1027    4.1225   18.0990 H   0  0  0  0  0  0  0  0  0  0  0  0
    6.3073    2.2865   18.1978 H   0  0  0  0  0  0  0  0  0  0  0  0
    4.5823    0.9037   17.0560 H   0  0  0  0  0  0  0  0  0  0  0  0
    4.2739    1.1511   14.5430 H   0  0  0  0  0  0  0  0  0  0  0  0
  1  2  1  0
  4  2  2  0
  3  2  2  0
  2  5  1  0
  5  6  1  0
  7  6  2  0
  6  8  1  0
  8  9  1  0
  8 17  2  0
  9 10  1  0
 18 17  1  0
 18 19  1  0
 17 16  1  0
 19 20  1  0
 10 16  2  0
 10 11  1  0
 16 15  1  0
 20 21  1  0
 11 12  2  0
 21 22  1  0
 15 14  2  0
 12 14  1  0
 12 13  1  0
 24 25  2  0
 24 23  1  0
 22 23  2  0
 22 31  1  0
 25 26  1  0
 23 28  1  0
 31 30  2  0
 26 27  2  0
 28 27  1  0
 28 29  2  0
 30 29  1  0
  1 32  1  0
  1 33  1  0
  1 34  1  0
  5 35  1  0
  9 36  1  0
 11 37  1  0
 14 38  1  0
 15 39  1  0
 18 40  1  0
 18 41  1  0
 19 42  1  0
 19 43  1  0
 20 44  1  0
 20 45  1  0
 24 46  1  0
 25 47  1  0
 26 48  1  0
 27 49  1  0
 29 50  1  0
 30 51  1  0
 31 52  1  0
A    1
CAA
A    2
SBE
A    3
OAC
A    4
OAD
A    5
NAS
A    6
CAV
A    7
OAB
A    8
CAZ
A    9
NAT
A   10
CBB
A   11
CAO
A   12
CAW
A   13
CL
A   14
CAJ
A   15
CAN
A   16
CBD
A   17
CAY
A   18
CAR
A   19
CAP
A   20
CAQ
A   21
OAU
A   22
CAX
A   23
CBC
A   24
CAM
A   25
CAG
A   26
CAF
A   27
CAK
A   28
CBA
A   29
CAL
A   30
CAH
A   31
CAI
M  END
