5FC4_5WK_A_403
     RDKit          3D

 26 27  0  0  0  0  0  0  0  0999 V2000
    1.3130    8.6200    2.0340 C   0  0  0  0  0  0  0  0  0  0  0  0
    2.4040   14.2360   -0.3170 O   0  0  0  0  0  0  0  0  0  0  0  0
    2.7270   13.5590   -1.5170 C   0  0  0  0  0  0  0  0  0  0  0  0
    3.1190   14.2710   -2.5900 C   0  0  0  0  0  0  0  0  0  0  0  0
    3.3720   13.6250   -3.7280 C   0  0  0  0  0  0  0  0  0  0  0  0
    3.3240   12.2790   -3.8470 C   0  0  0  0  0  0  0  0  0  0  0  0
    2.9020   11.4450   -2.7850 C   0  0  0  0  0  0  0  0  0  0  0  0
    2.5860   12.1380   -1.5080 C   0  0  0  0  0  0  0  0  0  0  0  0
    2.1790   11.3510   -0.2730 C   0  0  0  0  0  0  0  0  0  0  0  0
    1.9630    9.9430   -0.0940 C   0  0  0  0  0  0  0  0  0  0  0  0
    1.6880    9.8040    1.2580 C   0  0  0  0  0  0  0  0  0  0  0  0
    1.7210   10.9750    1.8400 N   0  0  0  0  0  0  0  0  0  0  0  0
    2.0730   11.9230    0.9700 N   0  0  0  0  0  0  0  0  0  0  0  0
    0.8690    7.7050    1.1900 F   0  0  0  0  0  0  0  0  0  0  0  0
    0.2690    8.9240    2.7480 F   0  0  0  0  0  0  0  0  0  0  0  0
    2.3700    8.2360    3.0090 C   0  0  0  0  0  0  0  0  0  0  0  0
    2.0930    6.9220    3.1630 F   0  0  0  0  0  0  0  0  0  0  0  0
    3.5590    8.3890    2.4430 F   0  0  0  0  0  0  0  0  0  0  0  0
    2.6041   13.8166    0.5572 H   0  0  0  0  0  0  0  0  0  0  0  0
    3.2283   15.3638   -2.5289 H   0  0  0  0  0  0  0  0  0  0  0  0
    3.6335   14.2179   -4.6169 H   0  0  0  0  0  0  0  0  0  0  0  0
    3.6226   11.8177   -4.7999 H   0  0  0  0  0  0  0  0  0  0  0  0
    2.8134   10.3543   -2.8968 H   0  0  0  0  0  0  0  0  0  0  0  0
    2.0060    9.1524   -0.8576 H   0  0  0  0  0  0  0  0  0  0  0  0
    1.5050   11.1421    2.8331 H   0  0  0  0  0  0  0  0  0  0  0  0
    2.3876    8.8145    3.9444 H   0  0  0  0  0  0  0  0  0  0  0  0
  6  5  2  0
  6  7  1  0
  5  4  1  0
  7  8  2  0
  4  3  2  0
  3  8  1  0
  3  2  1  0
  8  9  1  0
  9 10  1  0
  9 13  2  0
 10 11  2  0
 13 12  1  0
 14  1  1  0
 11 12  1  0
 11  1  1  0
  1 15  1  0
  1 16  1  0
 18 16  1  0
 16 17  1  0
  2 19  1  0
  4 20  1  0
  5 21  1  0
  6 22  1  0
  7 23  1  0
 10 24  1  0
 12 25  1  0
 16 26  1  0
A    1
C10
A    2
O
A    3
C01
A    4
C02
A    5
C03
A    6
C04
A    7
C05
A    8
C06
A    9
C07
A   10
C08
A   11
C09
A   12
N01
A   13
N
A   14
F01
A   15
F02
A   16
C
A   17
F03
A   18
F
M  END
