5FCK_5WC_A_301
     RDKit          3D

 56 60  0  0  0  0  0  0  0  0999 V2000
   -2.0840  -10.3960   10.8650 C   0  0  0  0  0  0  0  0  0  0  0  0
   -0.6990  -10.1930   11.5590 C   0  0  0  0  0  0  0  0  0  0  0  0
   -2.0260   -9.6610    9.5200 C   0  0  0  0  0  0  0  0  0  0  0  0
    4.6810  -10.9560   10.4480 C   0  0  0  0  0  0  0  0  0  0  0  0
   -0.2660   -8.3170    8.5340 C   0  0  0  0  0  0  0  0  0  0  0  0
   -1.3070   -7.9980    7.5220 C   0  0  0  0  0  0  0  0  0  0  0  0
   -0.1140   -7.2790    5.4410 C   0  0  0  0  0  0  0  0  0  0  0  0
    0.1790   -6.1300    4.7180 C   0  0  0  0  0  0  0  0  0  0  0  0
   -0.4580   -5.0960    5.5800 C   0  0  0  0  0  0  0  0  0  0  0  0
    0.3390   -8.5750    5.0040 C   0  0  0  0  0  0  0  0  0  0  0  0
    1.3680   -7.4550    3.1170 C   0  0  0  0  0  0  0  0  0  0  0  0
    0.9350   -6.1480    3.5080 C   0  0  0  0  0  0  0  0  0  0  0  0
   -0.4810   -3.6740    5.2610 C   0  0  0  0  0  0  0  0  0  0  0  0
    5.3110   -9.8070   10.9090 C   0  0  0  0  0  0  0  0  0  0  0  0
    6.4800   -9.3650   10.3550 C   0  0  0  0  0  0  0  0  0  0  0  0
    7.1070  -10.0780    9.3340 C   0  0  0  0  0  0  0  0  0  0  0  0
    6.4800  -11.2250    8.8500 C   0  0  0  0  0  0  0  0  0  0  0  0
   -0.6580   -9.1370    9.5160 N   0  0  0  0  0  0  0  0  0  0  0  0
    0.2550   -9.3890   10.6160 C   0  0  0  0  0  0  0  0  0  0  0  0
    1.3890  -10.3340   10.2700 C   0  0  0  0  0  0  0  0  0  0  0  0
    2.3100  -10.4810   11.2290 N   0  0  0  0  0  0  0  0  0  0  0  0
    1.3600  -10.9490    9.2250 O   0  0  0  0  0  0  0  0  0  0  0  0
    3.3990  -11.4470   11.1140 C   0  0  0  0  0  0  0  0  0  0  0  0
    3.6320  -11.9490   12.5840 C   0  0  0  0  0  0  0  0  0  0  0  0
   -0.7990   -6.9840    6.5890 N   0  0  0  0  0  0  0  0  0  0  0  0
    0.8550   -7.7990    8.4610 O   0  0  0  0  0  0  0  0  0  0  0  0
   -1.0600   -5.6620    6.5890 N   0  0  0  0  0  0  0  0  0  0  0  0
    1.0600   -8.5930    3.8440 N   0  0  0  0  0  0  0  0  0  0  0  0
   -1.4390   -2.8520    5.8350 N   0  0  0  0  0  0  0  0  0  0  0  0
    0.3240   -3.2930    4.4410 O   0  0  0  0  0  0  0  0  0  0  0  0
    5.2650  -11.6940    9.4160 C   0  0  0  0  0  0  0  0  0  0  0  0
    4.7850   -9.1140   11.9090 F   0  0  0  0  0  0  0  0  0  0  0  0
    7.1790   -7.9020   11.0620 Cl  0  0  0  0  0  0  0  0  0  0  0  0
   -2.9240   -9.1280   10.6380 C   0  0  0  0  0  0  0  0  0  0  0  0
   -2.3452  -11.3865   11.2659 H   0  0  0  0  0  0  0  0  0  0  0  0
   -0.2533  -11.1745   11.7782 H   0  0  0  0  0  0  0  0  0  0  0  0
   -0.8410   -9.6323   12.4947 H   0  0  0  0  0  0  0  0  0  0  0  0
   -2.2320   -9.8123    8.4501 H   0  0  0  0  0  0  0  0  0  0  0  0
   -2.2032   -7.6113    8.0293 H   0  0  0  0  0  0  0  0  0  0  0  0
   -1.5623   -8.9105    6.9633 H   0  0  0  0  0  0  0  0  0  0  0  0
    0.1181   -9.4925    5.5691 H   0  0  0  0  0  0  0  0  0  0  0  0
    1.9697   -7.5599    2.2022 H   0  0  0  0  0  0  0  0  0  0  0  0
    1.1639   -5.2411    2.9291 H   0  0  0  0  0  0  0  0  0  0  0  0
    8.0706   -9.7443    8.9215 H   0  0  0  0  0  0  0  0  0  0  0  0
    6.9347  -11.7770    8.0142 H   0  0  0  0  0  0  0  0  0  0  0  0
    0.7257   -8.4651   10.9832 H   0  0  0  0  0  0  0  0  0  0  0  0
    2.2492   -9.8951   12.0740 H   0  0  0  0  0  0  0  0  0  0  0  0
    3.1065  -12.2466   10.4175 H   0  0  0  0  0  0  0  0  0  0  0  0
    3.2778  -11.1858   13.2926 H   0  0  0  0  0  0  0  0  0  0  0  0
    3.0760  -12.8845   12.7444 H   0  0  0  0  0  0  0  0  0  0  0  0
    4.7054  -12.1283   12.7444 H   0  0  0  0  0  0  0  0  0  0  0  0
   -1.5146   -2.7872    6.8602 H   0  0  0  0  0  0  0  0  0  0  0  0
   -2.0750   -2.3063    5.2362 H   0  0  0  0  0  0  0  0  0  0  0  0
    4.7941  -12.6182    9.0497 H   0  0  0  0  0  0  0  0  0  0  0  0
   -2.6613   -8.1941   11.1564 H   0  0  0  0  0  0  0  0  0  0  0  0
   -3.9912   -8.8761   10.7250 H   0  0  0  0  0  0  0  0  0  0  0  0
 11 12  1  0
 11 28  2  0
 12  8  2  0
 28 10  1  0
 30 13  2  0
  8  7  1  0
  8  9  1  0
 10  7  2  0
 13  9  1  0
 13 29  1  0
  7 25  1  0
  9 27  2  0
 25 27  1  0
 25  6  1  0
  6  5  1  0
 26  5  2  0
  5 18  1  0
 17 16  2  0
 17 31  1  0
 22 20  2  0
 16 15  1  0
 31  4  2  0
 18  3  1  0
 18 19  1  0
  3 34  1  0
  3  1  1  0
 20 19  1  0
 20 21  1  0
 15 14  2  0
 15 33  1  0
  4 14  1  0
  4 23  1  0
 19  2  1  0
 34  1  1  0
  1  2  1  0
 14 32  1  0
 23 21  1  0
 23 24  1  0
  1 35  1  0
  2 36  1  0
  2 37  1  0
  3 38  1  0
  6 39  1  0
  6 40  1  0
 10 41  1  0
 11 42  1  0
 12 43  1  0
 16 44  1  0
 17 45  1  0
 19 46  1  0
 21 47  1  0
 23 48  1  0
 24 49  1  0
 24 50  1  0
 24 51  1  0
 29 52  1  0
 29 53  1  0
 31 54  1  0
 34 55  1  0
 34 56  1  0
A    1
C1
A    2
C2
A    3
C3
A    4
C11
A    5
C12
A    6
C13
A    7
C16
A    8
C17
A    9
C18
A   10
C20
A   11
C22
A   12
C23
A   13
C24
A   14
C27
A   15
C28
A   16
C29
A   17
C30
A   18
N4
A   19
C5
A   20
C6
A   21
N7
A   22
O8
A   23
C9
A   24
C10
A   25
N14
A   26
O15
A   27
N19
A   28
N21
A   29
N25
A   30
O26
A   31
C31
A   32
F
A   33
CL
A   34
C34
M  END
