4ZHZ_4P8_A_301
     RDKit          3D

 30 31  0  0  0  0  0  0  0  0999 V2000
   -8.0100  -34.1890   17.1400 O   0  0  0  0  0  0  0  0  0  0  0  0
   -7.4600  -34.5980   16.1200 C   0  0  0  0  0  0  0  0  0  0  0  0
   -6.2550  -34.0570   15.6950 C   0  0  0  0  0  0  0  0  0  0  0  0
   -5.6330  -34.5190   14.5380 C   0  0  0  0  0  0  0  0  0  0  0  0
   -5.6420  -33.0420   16.4080 C   0  0  0  0  0  0  0  0  0  0  0  0
   -6.2340  -32.5780   17.5390 O   0  0  0  0  0  0  0  0  0  0  0  0
   -4.4400  -32.4960   15.9970 C   0  0  0  0  0  0  0  0  0  0  0  0
   -3.9250  -31.5300   16.7370 N   0  0  0  0  0  0  0  0  0  0  0  0
   -2.7530  -31.0000   16.3500 O   0  0  0  0  0  0  0  0  0  0  0  0
   -4.5940  -31.1230   17.8660 O   0  0  0  0  0  0  0  0  0  0  0  0
   -3.8210  -32.9540   14.8460 C   0  0  0  0  0  0  0  0  0  0  0  0
   -4.4180  -33.9740   14.1120 C   0  0  0  0  0  0  0  0  0  0  0  0
   -3.8020  -34.4470   12.9520 C   0  0  0  0  0  0  0  0  0  0  0  0
   -2.6030  -35.0890   13.2720 C   0  0  0  0  0  0  0  0  0  0  0  0
   -2.6030  -36.4120   13.7070 C   0  0  0  0  0  0  0  0  0  0  0  0
   -4.0880  -37.2980   13.8630 Cl  0  0  0  0  0  0  0  0  0  0  0  0
   -1.4000  -37.0360   14.0220 C   0  0  0  0  0  0  0  0  0  0  0  0
   -0.1970  -36.3470   13.9030 C   0  0  0  0  0  0  0  0  0  0  0  0
   -0.1920  -35.0270   13.4680 C   0  0  0  0  0  0  0  0  0  0  0  0
   -1.3960  -34.4040   13.1540 C   0  0  0  0  0  0  0  0  0  0  0  0
   -7.9292  -35.4036   15.5362 H   0  0  0  0  0  0  0  0  0  0  0  0
   -6.1033  -35.3225   13.9521 H   0  0  0  0  0  0  0  0  0  0  0  0
   -5.8879  -32.8493   18.4260 H   0  0  0  0  0  0  0  0  0  0  0  0
   -2.8676  -32.5160   14.5156 H   0  0  0  0  0  0  0  0  0  0  0  0
   -3.5937  -33.6013   12.2801 H   0  0  0  0  0  0  0  0  0  0  0  0
   -4.4725  -35.1638   12.4553 H   0  0  0  0  0  0  0  0  0  0  0  0
   -1.3999  -38.0804   14.3672 H   0  0  0  0  0  0  0  0  0  0  0  0
    0.7502  -36.8471   14.1533 H   0  0  0  0  0  0  0  0  0  0  0  0
    0.7568  -34.4787   13.3726 H   0  0  0  0  0  0  0  0  0  0  0  0
   -1.3945  -33.3595   12.8090 H   0  0  0  0  0  0  0  0  0  0  0  0
 13 14  1  0
 13 12  1  0
 20 14  1  0
 20 19  2  0
 14 15  2  0
 19 18  1  0
 15 16  1  0
 15 17  1  0
 18 17  2  0
 12  4  1  0
 12 11  2  0
  4  3  2  0
 11  7  1  0
  3  2  1  0
  3  5  1  0
  7  5  2  0
  7  8  1  0
  2  1  2  0
  9  8  1  0
  5  6  1  0
  8 10  2  0
  2 21  1  0
  4 22  1  0
  6 23  1  0
 11 24  1  0
 13 25  1  0
 13 26  1  0
 17 27  1  0
 18 28  1  0
 19 29  1  0
 20 30  1  0
M  CHG  2   8   1   9  -1
A    1
OAP
A    2
CAO
A    3
CAM
A    4
CAK
A    5
CAN
A    6
OAQ
A    7
CAL
A    8
NAR
A    9
OAT
A   10
OAS
A   11
CAJ
A   12
CAI
A   13
CAH
A   14
CAB
A   15
CAA
A   16
CLG
A   17
CAF
A   18
CAE
A   19
CAD
A   20
CAC
M  END
