5FDR_5X3_A_400
     RDKit          3D

 72 76  0  0  0  0  0  0  0  0999 V2000
   39.5660   -0.7550   20.0080 C   0  0  0  0  0  0  0  0  0  0  0  0
   37.2410   -0.1750   20.6150 N   0  0  0  0  0  0  0  0  0  0  0  0
   36.3030    0.7370   20.3480 C   0  0  0  0  0  0  0  0  0  0  0  0
   35.9880    2.6950   19.0170 C   0  0  0  0  0  0  0  0  0  0  0  0
   34.1880    1.8910   20.4050 C   0  0  0  0  0  0  0  0  0  0  0  0
   34.4410   -0.1850   21.7970 C   0  0  0  0  0  0  0  0  0  0  0  0
   34.1440   -1.5340   21.4530 C   0  0  0  0  0  0  0  0  0  0  0  0
   34.3650   -2.1780   20.0840 C   0  0  0  0  0  0  0  0  0  0  0  0
   34.1730    1.1960   23.9990 C   0  0  0  0  0  0  0  0  0  0  0  0
   39.1980    1.8700   18.2190 C   0  0  0  0  0  0  0  0  0  0  0  0
   40.8440   -7.6030   16.3110 O   0  0  0  0  0  0  0  0  0  0  0  0
   41.4090   -6.8630   17.1720 C   0  0  0  0  0  0  0  0  0  0  0  0
   40.6710   -5.6740   17.7950 C   0  0  0  0  0  0  0  0  0  0  0  0
   39.5800   -4.9630   17.2630 C   0  0  0  0  0  0  0  0  0  0  0  0
   39.2870   -3.9720   18.2590 C   0  0  0  0  0  0  0  0  0  0  0  0
   40.2400   -4.1850   19.2700 C   0  0  0  0  0  0  0  0  0  0  0  0
   40.3800   -3.2710   20.8240 S   0  0  0  0  0  0  0  0  0  0  0  0
   39.8740   -4.3050   22.0020 O   0  0  0  0  0  0  0  0  0  0  0  0
   39.2690   -2.0170   20.6590 N   0  0  0  0  0  0  0  0  0  0  0  0
   38.3370    0.1270   19.9530 C   0  0  0  0  0  0  0  0  0  0  0  0
   36.8160    1.6480   19.4470 C   0  0  0  0  0  0  0  0  0  0  0  0
   34.6760    2.8170   19.4970 C   0  0  0  0  0  0  0  0  0  0  0  0
   32.5250    2.0440   21.0130 Cl  0  0  0  0  0  0  0  0  0  0  0  0
   34.9960    0.8600   20.8360 C   0  0  0  0  0  0  0  0  0  0  0  0
   33.6630   -2.1340   22.5140 N   0  0  0  0  0  0  0  0  0  0  0  0
   33.6300   -1.2490   23.5180 N   0  0  0  0  0  0  0  0  0  0  0  0
   34.0740   -0.0660   23.1460 C   0  0  0  0  0  0  0  0  0  0  0  0
   38.1480    1.2470   19.1630 C   0  0  0  0  0  0  0  0  0  0  0  0
   40.0050    2.9560   18.9170 C   0  0  0  0  0  0  0  0  0  0  0  0
   39.1680    4.2180   18.9180 C   0  0  0  0  0  0  0  0  0  0  0  0
   38.6220    4.4110   17.6330 O   0  0  0  0  0  0  0  0  0  0  0  0
   38.0100    5.6870   17.5350 C   0  0  0  0  0  0  0  0  0  0  0  0
   37.8440    6.4280   18.6950 C   0  0  0  0  0  0  0  0  0  0  0  0
   37.2470    7.6700   18.6490 C   0  0  0  0  0  0  0  0  0  0  0  0
   37.0290    8.5160   19.9120 C   0  0  0  0  0  0  0  0  0  0  0  0
   37.5940    6.1880   16.3110 C   0  0  0  0  0  0  0  0  0  0  0  0
   37.0020    7.4360   16.2610 C   0  0  0  0  0  0  0  0  0  0  0  0
   36.5230    8.0360   14.9370 C   0  0  0  0  0  0  0  0  0  0  0  0
   36.8340    8.1660   17.4330 C   0  0  0  0  0  0  0  0  0  0  0  0
   36.0830    9.7720   17.4090 Cl  0  0  0  0  0  0  0  0  0  0  0  0
   40.6190   -0.4560   19.5160 O   0  0  0  0  0  0  0  0  0  0  0  0
   41.8880   -2.7280   21.1710 O   0  0  0  0  0  0  0  0  0  0  0  0
   41.0030   -5.1710   18.9490 O   0  0  0  0  0  0  0  0  0  0  0  0
   42.5770   -7.1150   17.5720 O   0  0  0  0  0  0  0  0  0  0  0  0
   37.1250   -0.9857   21.2397 H   0  0  0  0  0  0  0  0  0  0  0  0
   36.3724    3.4297   18.2942 H   0  0  0  0  0  0  0  0  0  0  0  0
   34.7194   -3.2107   20.2175 H   0  0  0  0  0  0  0  0  0  0  0  0
   33.4178   -2.1848   19.5248 H   0  0  0  0  0  0  0  0  0  0  0  0
   35.1168   -1.6018   19.5248 H   0  0  0  0  0  0  0  0  0  0  0  0
   34.1515    0.9214   25.0639 H   0  0  0  0  0  0  0  0  0  0  0  0
   35.1148    1.7178   23.7739 H   0  0  0  0  0  0  0  0  0  0  0  0
   33.3240    1.8583   23.7739 H   0  0  0  0  0  0  0  0  0  0  0  0
   38.6826    2.3096   17.3523 H   0  0  0  0  0  0  0  0  0  0  0  0
   39.8907    1.0760   17.9031 H   0  0  0  0  0  0  0  0  0  0  0  0
   39.0685   -5.1286   16.3033 H   0  0  0  0  0  0  0  0  0  0  0  0
   38.4915   -3.2127   18.2362 H   0  0  0  0  0  0  0  0  0  0  0  0
   38.3230   -2.1538   21.0427 H   0  0  0  0  0  0  0  0  0  0  0  0
   34.0371    3.6442   19.1542 H   0  0  0  0  0  0  0  0  0  0  0  0
   33.3620   -3.1176   22.5665 H   0  0  0  0  0  0  0  0  0  0  0  0
   40.2274    2.6524   19.9506 H   0  0  0  0  0  0  0  0  0  0  0  0
   40.9585    3.1248   18.3952 H   0  0  0  0  0  0  0  0  0  0  0  0
   39.7998    5.0787   19.1827 H   0  0  0  0  0  0  0  0  0  0  0  0
   38.3567    4.1237   19.6548 H   0  0  0  0  0  0  0  0  0  0  0  0
   38.1904    6.0229   19.6572 H   0  0  0  0  0  0  0  0  0  0  0  0
   37.1898    7.8920   20.8035 H   0  0  0  0  0  0  0  0  0  0  0  0
   37.7403    9.3551   19.9186 H   0  0  0  0  0  0  0  0  0  0  0  0
   36.0008    8.9068   19.9186 H   0  0  0  0  0  0  0  0  0  0  0  0
   37.7332    5.6000   15.3918 H   0  0  0  0  0  0  0  0  0  0  0  0
   35.8485    8.8809   15.1400 H   0  0  0  0  0  0  0  0  0  0  0  0
   37.3900    8.3895   14.3597 H   0  0  0  0  0  0  0  0  0  0  0  0
   35.9862    7.2688   14.3597 H   0  0  0  0  0  0  0  0  0  0  0  0
   42.7698   -7.1566   18.5422 H   0  0  0  0  0  0  0  0  0  0  0  0
 38 37  1  0
 11 12  2  0
 37 36  2  0
 37 39  1  0
 36 32  1  0
 12 44  1  0
 12 13  1  0
 14 13  2  0
 14 15  1  0
 39 40  1  0
 39 34  2  0
 32 31  1  0
 32 33  2  0
 31 30  1  0
 13 43  1  0
 10 29  1  0
 10 28  1  0
 15 16  2  0
 34 33  1  0
 34 35  1  0
 43 16  1  0
 29 30  1  0
  4 22  2  0
  4 21  1  0
 28 21  1  0
 28 20  2  0
 16 17  1  0
 22  5  1  0
 21  3  2  0
 41  1  2  0
 20  1  1  0
 20  2  1  0
  1 19  1  0
  8  7  1  0
  5 24  2  0
  5 23  1  0
  3  2  1  0
  3 24  1  0
 19 17  1  0
 17 42  2  0
 17 18  2  0
 24  6  1  0
  7  6  2  0
  7 25  1  0
  6 27  1  0
 25 26  1  0
 27 26  2  0
 27  9  1  0
  2 45  1  0
  4 46  1  0
  8 47  1  0
  8 48  1  0
  8 49  1  0
  9 50  1  0
  9 51  1  0
  9 52  1  0
 10 53  1  0
 10 54  1  0
 14 55  1  0
 15 56  1  0
 19 57  1  0
 22 58  1  0
 25 59  1  0
 29 60  1  0
 29 61  1  0
 30 62  1  0
 30 63  1  0
 33 64  1  0
 35 65  1  0
 35 66  1  0
 35 67  1  0
 36 68  1  0
 38 69  1  0
 38 70  1  0
 38 71  1  0
 44 72  1  0
A    1
C10
A    2
N12
A    3
C13
A    4
C15
A    5
C17
A    6
C20
A    7
C21
A    8
C22
A    9
C26
A   10
C28
A   11
O01
A   12
C02
A   13
C03
A   14
C04
A   15
C05
A   16
C06
A   17
S07
A   18
O08
A   19
N09
A   20
C11
A   21
C14
A   22
C16
A   23
CL2
A   24
C19
A   25
N23
A   26
N24
A   27
C25
A   28
C27
A   29
C29
A   30
C30
A   31
O31
A   32
C32
A   33
C33
A   34
C34
A   35
C35
A   36
C36
A   37
C37
A   38
C38
A   39
C39
A   40
CL
A   41
O41
A   42
O42
A   43
O43
A   44
O44
M  END
