5FDX_5X1_A_1001
     RDKit          3D

 69 73  0  0  0  0  0  0  0  0999 V2000
    1.5640  -22.5180  -31.0370 C   0  0  0  0  0  0  0  0  0  0  0  0
    6.4630  -11.6630  -27.7170 C   0  0  0  0  0  0  0  0  0  0  0  0
   11.1510  -22.9620  -31.1280 C   0  0  0  0  0  0  0  0  0  0  0  0
    7.0410  -15.7250  -29.6170 C   0  0  0  0  0  0  0  0  0  0  0  0
    7.3070  -14.4870  -28.9640 C   0  0  0  0  0  0  0  0  0  0  0  0
    3.0490  -12.5610  -21.7590 C   0  0  0  0  0  0  0  0  0  0  0  0
    5.1340  -12.9880  -22.8250 C   0  0  0  0  0  0  0  0  0  0  0  0
    3.1030  -12.9630  -24.0560 C   0  0  0  0  0  0  0  0  0  0  0  0
    3.9910  -22.2960  -31.8910 C   0  0  0  0  0  0  0  0  0  0  0  0
    3.0460  -20.4780  -30.5930 C   0  0  0  0  0  0  0  0  0  0  0  0
    5.2730  -20.2960  -31.5240 C   0  0  0  0  0  0  0  0  0  0  0  0
    5.4960  -16.3540  -27.8540 C   0  0  0  0  0  0  0  0  0  0  0  0
    8.8410  -22.6760  -30.8190 C   0  0  0  0  0  0  0  0  0  0  0  0
    9.8210  -22.2760  -32.9780 C   0  0  0  0  0  0  0  0  0  0  0  0
    7.4910  -22.8060  -31.5160 C   0  0  0  0  0  0  0  0  0  0  0  0
    8.4400  -22.3480  -33.6160 C   0  0  0  0  0  0  0  0  0  0  0  0
    6.1110  -21.9540  -33.2820 C   0  0  0  0  0  0  0  0  0  0  0  0
    4.9650  -14.8340  -25.7790 C   0  0  0  0  0  0  0  0  0  0  0  0
    6.5110  -12.8980  -25.5540 C   0  0  0  0  0  0  0  0  0  0  0  0
    4.5890  -18.6320  -29.6790 C   0  0  0  0  0  0  0  0  0  0  0  0
    2.8890  -21.7580  -31.1610 C   0  0  0  0  0  0  0  0  0  0  0  0
    5.0300  -21.4300  -32.3140 C   0  0  0  0  0  0  0  0  0  0  0  0
    4.3900  -12.7100  -21.6930 N   0  0  0  0  0  0  0  0  0  0  0  0
    2.4050  -12.6970  -22.9620 N   0  0  0  0  0  0  0  0  0  0  0  0
    5.8810  -17.8920  -29.7790 N   0  0  0  0  0  0  0  0  0  0  0  0
    3.6560  -18.2040  -28.9570 O   0  0  0  0  0  0  0  0  0  0  0  0
    6.1330  -16.6650  -29.0790 C   0  0  0  0  0  0  0  0  0  0  0  0
    4.3550  -19.9380  -30.4720 C   0  0  0  0  0  0  0  0  0  0  0  0
    5.7480  -15.0300  -27.1320 C   0  0  0  0  0  0  0  0  0  0  0  0
    4.4980  -13.1160  -24.0840 C   0  0  0  0  0  0  0  0  0  0  0  0
    6.6170  -14.1490  -27.6420 C   0  0  0  0  0  0  0  0  0  0  0  0
    6.9750  -12.8410  -26.9830 C   0  0  0  0  0  0  0  0  0  0  0  0
    9.8630  -23.0610  -31.7300 N   0  0  0  0  0  0  0  0  0  0  0  0
    7.4190  -21.9940  -32.6680 N   0  0  0  0  0  0  0  0  0  0  0  0
    5.2230  -13.4750  -25.3060 N   0  0  0  0  0  0  0  0  0  0  0  0
    0.5580  -21.6360  -31.1460 F   0  0  0  0  0  0  0  0  0  0  0  0
    1.4970  -23.1660  -29.8550 F   0  0  0  0  0  0  0  0  0  0  0  0
    1.4290  -23.4310  -31.9900 F   0  0  0  0  0  0  0  0  0  0  0  0
    6.1310  -10.8991  -26.9985 H   0  0  0  0  0  0  0  0  0  0  0  0
    7.2624  -11.2490  -28.3491 H   0  0  0  0  0  0  0  0  0  0  0  0
    5.6149  -11.9650  -28.3491 H   0  0  0  0  0  0  0  0  0  0  0  0
   11.0456  -22.9701  -30.0331 H   0  0  0  0  0  0  0  0  0  0  0  0
   11.7696  -23.8152  -31.4431 H   0  0  0  0  0  0  0  0  0  0  0  0
   11.6319  -22.0242  -31.4431 H   0  0  0  0  0  0  0  0  0  0  0  0
    7.5545  -15.9547  -30.5623 H   0  0  0  0  0  0  0  0  0  0  0  0
    8.0117  -13.7714  -29.4127 H   0  0  0  0  0  0  0  0  0  0  0  0
    2.4747  -12.3310  -20.8494 H   0  0  0  0  0  0  0  0  0  0  0  0
    6.2244  -13.1102  -22.7473 H   0  0  0  0  0  0  0  0  0  0  0  0
    2.5542  -13.0709  -25.0032 H   0  0  0  0  0  0  0  0  0  0  0  0
    4.0334  -23.3705  -32.1227 H   0  0  0  0  0  0  0  0  0  0  0  0
    2.1709  -19.9069  -30.2494 H   0  0  0  0  0  0  0  0  0  0  0  0
    6.1652  -19.6795  -31.7078 H   0  0  0  0  0  0  0  0  0  0  0  0
    4.8022  -17.0831  -27.4102 H   0  0  0  0  0  0  0  0  0  0  0  0
    8.8663  -23.3312  -29.9358 H   0  0  0  0  0  0  0  0  0  0  0  0
    8.9981  -21.6360  -30.4969 H   0  0  0  0  0  0  0  0  0  0  0  0
   10.5648  -22.6776  -33.6819 H   0  0  0  0  0  0  0  0  0  0  0  0
   10.0458  -21.2255  -32.7415 H   0  0  0  0  0  0  0  0  0  0  0  0
    6.6978  -22.5036  -30.8164 H   0  0  0  0  0  0  0  0  0  0  0  0
    7.3642  -23.8538  -31.8260 H   0  0  0  0  0  0  0  0  0  0  0  0
    8.3992  -21.6515  -34.4664 H   0  0  0  0  0  0  0  0  0  0  0  0
    8.2626  -23.3791  -33.9557 H   0  0  0  0  0  0  0  0  0  0  0  0
    6.1516  -21.2924  -34.1598 H   0  0  0  0  0  0  0  0  0  0  0  0
    5.8400  -22.9811  -33.5678 H   0  0  0  0  0  0  0  0  0  0  0  0
    3.8869  -14.9733  -25.9471 H   0  0  0  0  0  0  0  0  0  0  0  0
    5.2977  -15.5702  -25.0325 H   0  0  0  0  0  0  0  0  0  0  0  0
    7.2506  -13.4844  -24.9891 H   0  0  0  0  0  0  0  0  0  0  0  0
    6.4148  -11.8467  -25.2451 H   0  0  0  0  0  0  0  0  0  0  0  0
    6.6249  -18.2792  -30.3770 H   0  0  0  0  0  0  0  0  0  0  0  0
    8.0667  -12.7074  -27.0041 H   0  0  0  0  0  0  0  0  0  0  0  0
 16 14  1  0
 16 34  1  0
 17 34  1  0
 17 22  1  0
 14 33  1  0
 34 15  1  0
 22  9  2  0
 22 11  1  0
 38  1  1  0
  9 21  1  0
 33  3  1  0
 33 13  1  0
 11 28  2  0
 15 13  1  0
 21  1  1  0
 21 10  2  0
 36  1  1  0
  1 37  1  0
 10 28  1  0
 28 20  1  0
 25 20  1  0
 25 27  1  0
 20 26  2  0
  4 27  2  0
  4  5  1  0
 27 12  1  0
  5 31  2  0
 12 29  2  0
  2 32  1  0
 31 29  1  0
 31 32  1  0
 29 18  1  0
 32 19  1  0
 18 35  1  0
 19 35  1  0
 35 30  1  0
 30  8  2  0
 30  7  1  0
  8 24  1  0
 24  6  2  0
  7 23  2  0
  6 23  1  0
  2 39  1  0
  2 40  1  0
  2 41  1  0
  3 42  1  0
  3 43  1  0
  3 44  1  0
  4 45  1  0
  5 46  1  0
  6 47  1  0
  7 48  1  0
  8 49  1  0
  9 50  1  0
 10 51  1  0
 11 52  1  0
 12 53  1  0
 13 54  1  0
 13 55  1  0
 14 56  1  0
 14 57  1  0
 15 58  1  0
 15 59  1  0
 16 60  1  0
 16 61  1  0
 17 62  1  0
 17 63  1  0
 18 64  1  0
 18 65  1  0
 19 66  1  0
 19 67  1  0
 25 68  1  0
 32 69  1  0
A    1
CAA
A    2
CAB
A    3
CAC
A    4
CAE
A    5
CAF
A    6
CAG
A    7
CAH
A    8
CAI
A    9
CAJ
A   10
CAK
A   11
CAL
A   12
CAM
A   13
CAN
A   14
CAO
A   15
CAP
A   16
CAQ
A   17
CAR
A   18
CAS
A   19
CAT
A   20
CAX
A   21
CAY
A   22
CAZ
A   23
NAU
A   24
NAV
A   25
NAW
A   26
OAD
A   27
CBA
A   28
CBB
A   29
CBC
A   30
CBD
A   31
CBE
A   32
CBF
A   33
NBG
A   34
NBH
A   35
NBI
A   36
F01
A   37
F02
A   38
F03
M  END
