5FDZ_5X0_A_901
     RDKit          3D

 52 54  0  0  0  0  0  0  0  0999 V2000
   -0.6570    9.5680   76.3450 C   0  0  0  0  0  0  0  0  0  0  0  0
   -1.7090    8.9910   77.2490 C   0  0  0  0  0  0  0  0  0  0  0  0
   -2.9130    8.7500   76.5010 O   0  0  0  0  0  0  0  0  0  0  0  0
   -2.7220    7.6810   75.5920 C   0  0  0  0  0  0  0  0  0  0  0  0
   -1.6080    8.0080   74.6200 C   0  0  0  0  0  0  0  0  0  0  0  0
   -1.0420    9.3930   74.8550 C   0  0  0  0  0  0  0  0  0  0  0  0
    0.1770    9.6760   74.0280 O   0  0  0  0  0  0  0  0  0  0  0  0
    0.3260    9.2700   72.7000 C   0  0  0  0  0  0  0  0  0  0  0  0
    0.3710   10.2680   71.6770 C   0  0  0  0  0  0  0  0  0  0  0  0
    0.5580    9.8210   70.3510 C   0  0  0  0  0  0  0  0  0  0  0  0
    0.2470   11.6760   71.8690 C   0  0  0  0  0  0  0  0  0  0  0  0
    0.6960   12.4550   71.0320 O   0  0  0  0  0  0  0  0  0  0  0  0
   -0.4060   12.1180   72.9580 N   0  0  0  0  0  0  0  0  0  0  0  0
   -0.5200   13.5660   73.1680 C   0  0  0  0  0  0  0  0  0  0  0  0
    0.4880    7.9110   72.3480 C   0  0  0  0  0  0  0  0  0  0  0  0
    0.6580    7.5100   71.0170 C   0  0  0  0  0  0  0  0  0  0  0  0
    0.7060    8.4760   70.0060 C   0  0  0  0  0  0  0  0  0  0  0  0
    0.8520    8.1890   68.6730 O   0  0  0  0  0  0  0  0  0  0  0  0
    1.4720    6.9680   68.2320 C   0  0  0  0  0  0  0  0  0  0  0  0
    1.7250    7.0510   66.7110 C   0  0  0  0  0  0  0  0  0  0  0  0
    2.1530    6.0730   66.0930 O   0  0  0  0  0  0  0  0  0  0  0  0
    1.4410    8.2580   66.1660 N   0  0  0  0  0  0  0  0  0  0  0  0
    1.6380    8.4810   64.8600 C   0  0  0  0  0  0  0  0  0  0  0  0
    0.7880    7.9180   63.9020 C   0  0  0  0  0  0  0  0  0  0  0  0
    1.0030    8.1910   62.5450 C   0  0  0  0  0  0  0  0  0  0  0  0
    2.0550    9.0290   62.1470 C   0  0  0  0  0  0  0  0  0  0  0  0
    2.8970    9.6030   63.1040 C   0  0  0  0  0  0  0  0  0  0  0  0
    2.6830    9.3310   64.4550 C   0  0  0  0  0  0  0  0  0  0  0  0
    0.2976    9.0543   76.5317 H   0  0  0  0  0  0  0  0  0  0  0  0
   -0.5666   10.6435   76.5576 H   0  0  0  0  0  0  0  0  0  0  0  0
   -1.3464    8.0431   77.6732 H   0  0  0  0  0  0  0  0  0  0  0  0
   -1.9212    9.7024   78.0607 H   0  0  0  0  0  0  0  0  0  0  0  0
   -3.6533    7.5105   75.0320 H   0  0  0  0  0  0  0  0  0  0  0  0
   -2.4496    6.7769   76.1562 H   0  0  0  0  0  0  0  0  0  0  0  0
   -2.0034    7.9546   73.5949 H   0  0  0  0  0  0  0  0  0  0  0  0
   -0.7985    7.2787   74.7713 H   0  0  0  0  0  0  0  0  0  0  0  0
   -1.8333   10.0983   74.5609 H   0  0  0  0  0  0  0  0  0  0  0  0
    0.5887   10.5716   69.5474 H   0  0  0  0  0  0  0  0  0  0  0  0
   -0.8173   11.4548   73.6302 H   0  0  0  0  0  0  0  0  0  0  0  0
   -0.5368   13.7798   74.2469 H   0  0  0  0  0  0  0  0  0  0  0  0
    0.3411   14.0722   72.7073 H   0  0  0  0  0  0  0  0  0  0  0  0
   -1.4497   13.9313   72.7073 H   0  0  0  0  0  0  0  0  0  0  0  0
    0.4804    7.1480   73.1403 H   0  0  0  0  0  0  0  0  0  0  0  0
    0.7531    6.4428   70.7681 H   0  0  0  0  0  0  0  0  0  0  0  0
    0.8080    6.1183   68.4492 H   0  0  0  0  0  0  0  0  0  0  0  0
    2.4267    6.8254   68.7594 H   0  0  0  0  0  0  0  0  0  0  0  0
    1.0699    9.0119   66.7617 H   0  0  0  0  0  0  0  0  0  0  0  0
   -0.0423    7.2663   64.2118 H   0  0  0  0  0  0  0  0  0  0  0  0
    0.3425    7.7453   61.7866 H   0  0  0  0  0  0  0  0  0  0  0  0
    2.2179    9.2351   61.0788 H   0  0  0  0  0  0  0  0  0  0  0  0
    3.7207   10.2631   62.7943 H   0  0  0  0  0  0  0  0  0  0  0  0
    3.3385    9.7861   65.2121 H   0  0  0  0  0  0  0  0  0  0  0  0
 26 25  1  0
 26 27  2  0
 25 24  2  0
 27 28  1  0
 24 23  1  0
 28 23  2  0
 23 22  1  0
 21 20  2  0
 22 20  1  0
 20 19  1  0
 19 18  1  0
 18 17  1  0
 17 10  1  0
 17 16  2  0
 10  9  2  0
 16 15  1  0
 12 11  2  0
  9 11  1  0
  9  8  1  0
 11 13  1  0
 15  8  2  0
  8  7  1  0
 13 14  1  0
  7  6  1  0
  5  6  1  0
  5  4  1  0
  6  1  1  0
  4  3  1  0
  1  2  1  0
  3  2  1  0
  1 29  1  0
  1 30  1  0
  2 31  1  0
  2 32  1  0
  4 33  1  0
  4 34  1  0
  5 35  1  0
  5 36  1  0
  6 37  1  0
 10 38  1  0
 13 39  1  0
 14 40  1  0
 14 41  1  0
 14 42  1  0
 15 43  1  0
 16 44  1  0
 19 45  1  0
 19 46  1  0
 22 47  1  0
 24 48  1  0
 25 49  1  0
 26 50  1  0
 27 51  1  0
 28 52  1  0
A    1
CAN
A    2
CAL
A    3
OAS
A    4
CAM
A    5
CAO
A    6
CBB
A    7
OAU
A    8
CAZ
A    9
CBA
A   10
CAK
A   11
CAW
A   12
OAC
A   13
NAQ
A   14
CAA
A   15
CAJ
A   16
CAI
A   17
CAY
A   18
OAT
A   19
CAP
A   20
CAV
A   21
OAB
A   22
NAR
A   23
CAX
A   24
CAG
A   25
CAE
A   26
CAD
A   27
CAF
A   28
CAH
M  END
