4NYB_2QC_A_101
     RDKit          3D

 22 23  0  0  0  0  0  0  0  0999 V2000
    7.7520  -17.8590   -1.1780 C   0  0  0  0  0  0  0  0  0  0  0  0
    7.6180  -16.5740   -0.6670 C   0  0  0  0  0  0  0  0  0  0  0  0
    6.4400  -15.8620   -0.8670 C   0  0  0  0  0  0  0  0  0  0  0  0
    6.3580  -14.5320   -0.4720 C   0  0  0  0  0  0  0  0  0  0  0  0
    5.4000  -13.7870   -1.3020 N   0  0  0  0  0  0  0  0  0  0  0  0
    5.3850  -16.4490   -1.5580 C   0  0  0  0  0  0  0  0  0  0  0  0
    5.5160  -17.7370   -2.0640 C   0  0  0  0  0  0  0  0  0  0  0  0
    6.7000  -18.4410   -1.8780 C   0  0  0  0  0  0  0  0  0  0  0  0
    6.8490  -19.6350   -2.4450 C   0  0  0  0  0  0  0  0  0  0  0  0
    5.8020  -20.3190   -2.9160 N   0  0  0  0  0  0  0  0  0  0  0  0
    5.9910  -21.3540   -3.3480 N   0  0  0  0  0  0  0  0  0  0  0  0
    7.6200  -21.7160   -3.2530 S   0  0  0  0  0  0  0  0  0  0  0  0
    8.0300  -20.2440   -2.5150 C   0  0  0  0  0  0  0  0  0  0  0  0
    8.6890  -18.4157   -1.0292 H   0  0  0  0  0  0  0  0  0  0  0  0
    8.4454  -16.1187   -0.1030 H   0  0  0  0  0  0  0  0  0  0  0  0
    6.0319  -14.4893    0.5777 H   0  0  0  0  0  0  0  0  0  0  0  0
    7.3506  -14.0727   -0.5898 H   0  0  0  0  0  0  0  0  0  0  0  0
    4.7435  -13.2765   -0.6943 H   0  0  0  0  0  0  0  0  0  0  0  0
    5.9089  -13.1174   -1.8966 H   0  0  0  0  0  0  0  0  0  0  0  0
    4.4467  -15.8937   -1.7040 H   0  0  0  0  0  0  0  0  0  0  0  0
    4.6820  -18.1995   -2.6121 H   0  0  0  0  0  0  0  0  0  0  0  0
    9.0153  -19.8864   -2.1814 H   0  0  0  0  0  0  0  0  0  0  0  0
  1  2  2  0
  1  8  1  0
  2  3  1  0
  3  4  1  0
  3  6  2  0
  4  5  1  0
  6  7  1  0
  7  8  2  0
  8  9  1  0
  9 10  1  0
  9 13  2  0
 10 11  2  0
 11 12  1  0
 12 13  1  0
  1 14  1  0
  2 15  1  0
  4 16  1  0
  4 17  1  0
  5 18  1  0
  5 19  1  0
  6 20  1  0
  7 21  1  0
 13 22  1  0
A    1
CAE
A    2
CAF
A    3
CAK
A    4
CAL
A    5
NAM
A    6
CAJ
A    7
CAI
A    8
CAD
A    9
CAC
A   10
NAB
A   11
NAA
A   12
SAG
A   13
CAH
M  END
