5FE6_5WZ_A_909
     RDKit          3D

 28 29  0  0  0  0  0  0  0  0999 V2000
    0.6790    7.6270   32.9760 C   0  0  0  0  0  0  0  0  0  0  0  0
    0.6710   11.4090   32.8820 C   0  0  0  0  0  0  0  0  0  0  0  0
   -0.4020   11.7260   33.7730 C   0  0  0  0  0  0  0  0  0  0  0  0
    1.0710   10.1100   32.8090 N   0  0  0  0  0  0  0  0  0  0  0  0
   -1.1430   12.9890   33.4860 C   0  0  0  0  0  0  0  0  0  0  0  0
   -0.2040   12.9380   34.6350 C   0  0  0  0  0  0  0  0  0  0  0  0
    1.1230   12.2880   32.1500 O   0  0  0  0  0  0  0  0  0  0  0  0
    2.1440    9.6130   31.9480 C   0  0  0  0  0  0  0  0  0  0  0  0
    1.5950    8.6770   30.8650 C   0  0  0  0  0  0  0  0  0  0  0  0
    0.4380    9.0170   33.5850 C   0  0  0  0  0  0  0  0  0  0  0  0
    0.6270    7.6690   31.4590 C   0  0  0  0  0  0  0  0  0  0  0  0
    0.8250    6.3280   30.9020 N   0  0  0  0  0  0  0  0  0  0  0  0
   -0.0959    6.9371   33.3415 H   0  0  0  0  0  0  0  0  0  0  0  0
    1.6801    7.2859   33.2783 H   0  0  0  0  0  0  0  0  0  0  0  0
   -0.6842   10.6775   33.9492 H   0  0  0  0  0  0  0  0  0  0  0  0
   -0.8892   13.5838   32.5962 H   0  0  0  0  0  0  0  0  0  0  0  0
   -2.2035   13.2542   33.3634 H   0  0  0  0  0  0  0  0  0  0  0  0
    0.7451   13.4925   34.5947 H   0  0  0  0  0  0  0  0  0  0  0  0
   -0.2806   13.1475   35.7122 H   0  0  0  0  0  0  0  0  0  0  0  0
    2.8720    9.0631   32.5626 H   0  0  0  0  0  0  0  0  0  0  0  0
    2.6233   10.4724   31.4564 H   0  0  0  0  0  0  0  0  0  0  0  0
    2.4320    8.1391   30.3959 H   0  0  0  0  0  0  0  0  0  0  0  0
    1.0589    9.2807   30.1179 H   0  0  0  0  0  0  0  0  0  0  0  0
    0.8494    9.0283   34.6051 H   0  0  0  0  0  0  0  0  0  0  0  0
   -0.6475    9.1949   33.5764 H   0  0  0  0  0  0  0  0  0  0  0  0
   -0.3775    8.0162   31.1754 H   0  0  0  0  0  0  0  0  0  0  0  0
    0.9253    5.6487   31.6697 H   0  0  0  0  0  0  0  0  0  0  0  0
    0.0125    6.0736   30.3224 H   0  0  0  0  0  0  0  0  0  0  0  0
  9 11  1  0
  9  8  1  0
 12 11  1  0
 11  1  1  0
  8  4  1  0
  7  2  2  0
  4  2  1  0
  4 10  1  0
  2  3  1  0
  1 10  1  0
  5  3  1  0
  5  6  1  0
  3  6  1  0
  1 13  1  0
  1 14  1  0
  3 15  1  0
  5 16  1  0
  5 17  1  0
  6 18  1  0
  6 19  1  0
  8 20  1  0
  8 21  1  0
  9 22  1  0
  9 23  1  0
 10 24  1  0
 10 25  1  0
 11 26  1  0
 12 27  1  0
 12 28  1  0
A    1
C4
A    2
C5
A    3
C6
A    4
N1
A    5
C7
A    6
C8
A    7
O
A    8
C2
A    9
C1
A   10
C3
A   11
C
A   12
N
M  END
