5FE7_5WU_A_902
     RDKit          3D

 28 29  0  0  0  0  0  0  0  0999 V2000
  -10.0410   39.1250   22.7750 C   0  0  0  0  0  0  0  0  0  0  0  0
   -9.8060   38.7560   24.0810 C   0  0  0  0  0  0  0  0  0  0  0  0
   -8.9880   37.6170   24.4490 C   0  0  0  0  0  0  0  0  0  0  0  0
  -10.8760   40.2010   22.8350 N   0  0  0  0  0  0  0  0  0  0  0  0
   -8.3200   36.8650   23.3260 C   0  0  0  0  0  0  0  0  0  0  0  0
   -9.0580   36.9690   21.9810 C   0  0  0  0  0  0  0  0  0  0  0  0
   -9.4310   38.4220   21.6050 C   0  0  0  0  0  0  0  0  0  0  0  0
   -8.8090   37.3060   25.6320 O   0  0  0  0  0  0  0  0  0  0  0  0
  -10.5360   39.6920   24.8630 C   0  0  0  0  0  0  0  0  0  0  0  0
  -10.5860   39.8530   26.3440 C   0  0  0  0  0  0  0  0  0  0  0  0
  -11.1950   40.5370   24.1060 N   0  0  0  0  0  0  0  0  0  0  0  0
  -11.3620   41.0610   21.7550 C   0  0  0  0  0  0  0  0  0  0  0  0
  -10.7080   42.4370   21.7660 C   0  0  0  0  0  0  0  0  0  0  0  0
   -9.2970   42.3720   21.4910 O   0  0  0  0  0  0  0  0  0  0  0  0
   -8.2607   35.8032   23.6073 H   0  0  0  0  0  0  0  0  0  0  0  0
   -7.3288   37.3198   23.1824 H   0  0  0  0  0  0  0  0  0  0  0  0
   -9.9817   36.3748   22.0416 H   0  0  0  0  0  0  0  0  0  0  0  0
   -8.3771   36.5932   21.2031 H   0  0  0  0  0  0  0  0  0  0  0  0
   -8.5235   38.9595   21.2925 H   0  0  0  0  0  0  0  0  0  0  0  0
  -10.1610   38.4006   20.7824 H   0  0  0  0  0  0  0  0  0  0  0  0
  -10.2927   38.9085   26.8256 H   0  0  0  0  0  0  0  0  0  0  0  0
   -9.8934   40.6510   26.6497 H   0  0  0  0  0  0  0  0  0  0  0  0
  -11.6088   40.1183   26.6497 H   0  0  0  0  0  0  0  0  0  0  0  0
  -12.4492   41.1862   21.8658 H   0  0  0  0  0  0  0  0  0  0  0  0
  -11.1059   40.5768   20.8011 H   0  0  0  0  0  0  0  0  0  0  0  0
  -10.8549   42.8908   22.7572 H   0  0  0  0  0  0  0  0  0  0  0  0
  -11.1781   43.0399   20.9751 H   0  0  0  0  0  0  0  0  0  0  0  0
   -8.7952   42.3489   22.3441 H   0  0  0  0  0  0  0  0  0  0  0  0
 14 13  1  0
  7  6  1  0
  7  1  1  0
 12 13  1  0
 12  4  1  0
  6  5  1  0
  1  4  1  0
  1  2  2  0
  4 11  1  0
  5  3  1  0
  2  3  1  0
  2  9  1  0
 11  9  2  0
  3  8  2  0
  9 10  1  0
  5 15  1  0
  5 16  1  0
  6 17  1  0
  6 18  1  0
  7 19  1  0
  7 20  1  0
 10 21  1  0
 10 22  1  0
 10 23  1  0
 12 24  1  0
 12 25  1  0
 13 26  1  0
 13 27  1  0
 14 28  1  0
A    1
C4
A    2
C5
A    3
C6
A    4
N1
A    5
C7
A    6
C8
A    7
C9
A    8
O1
A    9
C1
A   10
C
A   11
N
A   12
C2
A   13
C3
A   14
O
M  END
