5FE8_5WT_A_901
     RDKit          3D

 31 32  0  0  0  0  0  0  0  0999 V2000
    6.1470    4.9900  102.7600 C   0  0  0  0  0  0  0  0  0  0  0  0
    7.3010    5.2570  101.9540 C   0  0  0  0  0  0  0  0  0  0  0  0
    8.3540    6.0240  102.4690 C   0  0  0  0  0  0  0  0  0  0  0  0
    9.5170    6.2990  101.7240 C   0  0  0  0  0  0  0  0  0  0  0  0
   10.4170    6.9880  102.2250 O   0  0  0  0  0  0  0  0  0  0  0  0
    9.6530    5.8140  100.4890 N   0  0  0  0  0  0  0  0  0  0  0  0
   10.9170    6.1770   99.7910 C   0  0  0  0  0  0  0  0  0  0  0  0
    8.6310    5.0500   99.9240 C   0  0  0  0  0  0  0  0  0  0  0  0
    8.7280    4.5220   98.6220 C   0  0  0  0  0  0  0  0  0  0  0  0
    7.4420    4.7450  100.6550 C   0  0  0  0  0  0  0  0  0  0  0  0
    6.4200    3.9500  100.0790 C   0  0  0  0  0  0  0  0  0  0  0  0
    6.5580    3.4700   98.7900 C   0  0  0  0  0  0  0  0  0  0  0  0
    7.7290    3.7400   98.0530 C   0  0  0  0  0  0  0  0  0  0  0  0
    7.9560    3.3390   96.7890 N   0  0  0  0  0  0  0  0  0  0  0  0
    7.6070    2.1170   96.3460 C   0  0  0  0  0  0  0  0  0  0  0  0
    7.0440    1.2420   97.0110 O   0  0  0  0  0  0  0  0  0  0  0  0
    7.9700    1.8790   94.8620 C   0  0  0  0  0  0  0  0  0  0  0  0
    6.4201    5.0532  103.8237 H   0  0  0  0  0  0  0  0  0  0  0  0
    5.3650    5.7309  102.5376 H   0  0  0  0  0  0  0  0  0  0  0  0
    5.7699    3.9809  102.5376 H   0  0  0  0  0  0  0  0  0  0  0  0
    8.2696    6.4250  103.4898 H   0  0  0  0  0  0  0  0  0  0  0  0
   11.6956    6.4006  100.5352 H   0  0  0  0  0  0  0  0  0  0  0  0
   11.2425    5.3360   99.1611 H   0  0  0  0  0  0  0  0  0  0  0  0
   10.7467    7.0625   99.1611 H   0  0  0  0  0  0  0  0  0  0  0  0
    9.6307    4.7370   98.0313 H   0  0  0  0  0  0  0  0  0  0  0  0
    5.5153    3.7144  100.6586 H   0  0  0  0  0  0  0  0  0  0  0  0
    5.7509    2.8750   98.3376 H   0  0  0  0  0  0  0  0  0  0  0  0
    8.4137    3.9912   96.1363 H   0  0  0  0  0  0  0  0  0  0  0  0
    8.8885    1.2768   94.8012 H   0  0  0  0  0  0  0  0  0  0  0  0
    7.1474    1.3443   94.3645 H   0  0  0  0  0  0  0  0  0  0  0  0
    8.1323    2.8465   94.3645 H   0  0  0  0  0  0  0  0  0  0  0  0
 17 15  1  0
 15 14  1  0
 15 16  2  0
 14 13  1  0
 13  9  2  0
 13 12  1  0
  9  8  1  0
 12 11  2  0
  7  6  1  0
  8  6  1  0
  8 10  2  0
 11 10  1  0
  6  4  1  0
 10  2  1  0
  4  5  2  0
  4  3  1  0
  2  3  2  0
  2  1  1  0
  1 18  1  0
  1 19  1  0
  1 20  1  0
  3 21  1  0
  7 22  1  0
  7 23  1  0
  7 24  1  0
  9 25  1  0
 11 26  1  0
 12 27  1  0
 14 28  1  0
 17 29  1  0
 17 30  1  0
 17 31  1  0
A    1
CAB
A    2
CAM
A    3
CAH
A    4
CAN
A    5
OAE
A    6
NAQ
A    7
CAC
A    8
CAP
A    9
CAI
A   10
CAO
A   11
CAG
A   12
CAF
A   13
CAL
A   14
NAJ
A   15
CAK
A   16
OAD
A   17
CAA
M  END
