5FEP_41K_A_409
     RDKit          3D

 21 21  0  0  0  0  0  0  0  0999 V2000
   43.5150    4.3950   10.9610 O   0  0  0  0  0  0  0  0  0  0  0  0
   44.7010    4.6750   11.1910 C   0  0  0  0  0  0  0  0  0  0  0  0
   45.5650    4.1140   10.5760 O   0  0  0  0  0  0  0  0  0  0  0  0
   45.0190    5.7020   12.2070 C   0  0  0  0  0  0  0  0  0  0  0  0
   44.0480    6.8710   12.1280 C   0  0  0  0  0  0  0  0  0  0  0  0
   46.3670    6.2570   11.9670 N   0  0  0  0  0  0  0  0  0  0  0  0
   45.0600    4.9550   13.8480 S   0  0  0  0  0  0  0  0  0  0  0  0
   46.6570    5.6320   14.2480 C   0  0  0  0  0  0  0  0  0  0  0  0
   46.9290    6.7300   13.2410 C   0  0  0  0  0  0  0  0  0  0  0  0
   48.3600    7.1320   13.1410 C   0  0  0  0  0  0  0  0  0  0  0  0
   49.0920    6.6740   12.3070 O   0  0  0  0  0  0  0  0  0  0  0  0
   48.7430    7.9850   13.9690 O   0  0  0  0  0  0  0  0  0  0  0  0
   42.8868    4.2467   11.7117 H   0  0  0  0  0  0  0  0  0  0  0  0
   43.7796    7.1941   13.1447 H   0  0  0  0  0  0  0  0  0  0  0  0
   44.5221    7.7058   11.5911 H   0  0  0  0  0  0  0  0  0  0  0  0
   43.1403    6.5581   11.5911 H   0  0  0  0  0  0  0  0  0  0  0  0
   46.9755    5.5256   11.5725 H   0  0  0  0  0  0  0  0  0  0  0  0
   46.6488    6.0458   15.2671 H   0  0  0  0  0  0  0  0  0  0  0  0
   47.4365    4.8569   14.2084 H   0  0  0  0  0  0  0  0  0  0  0  0
   46.4488    7.6653   13.5643 H   0  0  0  0  0  0  0  0  0  0  0  0
   48.6620    7.8045   14.9390 H   0  0  0  0  0  0  0  0  0  0  0  0
  3  2  2  0
  5  4  1  0
  7  4  1  0
  7  8  1  0
  2  4  1  0
  2  1  1  0
  4  6  1  0
  8  9  1  0
  6  9  1  0
  9 10  1  0
 10 11  2  0
 10 12  1  0
  1 13  1  0
  5 14  1  0
  5 15  1  0
  5 16  1  0
  6 17  1  0
  8 18  1  0
  8 19  1  0
  9 20  1  0
 12 21  1  0
A    1
OAA
A    2
CAE
A    3
OAD
A    4
CAF
A    5
CAB
A    6
N
A    7
SAK
A    8
CB
A    9
CA
A   10
C
A   11
O
A   12
OXT
M  END
