2GVC_MMZ_A_501
     RDKit          3D

 13 13  0  0  0  0  0  0  0  0999 V2000
  -11.9300  -14.1940   -3.5610 N   0  0  0  0  0  0  0  0  0  0  0  0
  -10.9090  -14.0330   -4.4910 C   0  0  0  0  0  0  0  0  0  0  0  0
  -12.7530  -13.1170   -3.6370 C   0  0  0  0  0  0  0  0  0  0  0  0
  -14.1230  -12.9150   -2.6330 S   0  0  0  0  0  0  0  0  0  0  0  0
  -12.3090  -12.2660   -4.5940 N   0  0  0  0  0  0  0  0  0  0  0  0
  -11.1090  -12.8080   -5.1580 C   0  0  0  0  0  0  0  0  0  0  0  0
  -12.8310  -10.9910   -5.1130 C   0  0  0  0  0  0  0  0  0  0  0  0
  -12.0428  -14.9945   -2.9227 H   0  0  0  0  0  0  0  0  0  0  0  0
  -10.0867  -14.7402   -4.6745 H   0  0  0  0  0  0  0  0  0  0  0  0
  -10.4792  -12.3636   -5.9428 H   0  0  0  0  0  0  0  0  0  0  0  0
  -13.0995  -10.3351   -4.2717 H   0  0  0  0  0  0  0  0  0  0  0  0
  -12.0606  -10.5023   -5.7275 H   0  0  0  0  0  0  0  0  0  0  0  0
  -13.7229  -11.1829   -5.7275 H   0  0  0  0  0  0  0  0  0  0  0  0
  1  2  1  0
  1  3  1  0
  2  6  2  0
  3  4  2  0
  3  5  1  0
  5  6  1  0
  5  7  1  0
  1  8  1  0
  2  9  1  0
  6 10  1  0
  7 11  1  0
  7 12  1  0
  7 13  1  0
A    1
N1
A    2
C1A
A    3
C2
A    4
S2
A    5
N3
A    6
C3A
A    7
C4
M  END
