5FFY_5XD_A_801
     RDKit          3D

 47 49  0  0  0  0  0  0  0  0999 V2000
   10.7270  -34.8610   10.3530 C   0  0  0  0  0  0  0  0  0  0  0  0
   10.5110  -35.7110   11.6190 C   0  0  0  0  0  0  0  0  0  0  0  0
   11.5030  -35.4910   12.6370 C   0  0  0  0  0  0  0  0  0  0  0  0
   12.4220  -36.4590   12.9400 C   0  0  0  0  0  0  0  0  0  0  0  0
   13.3230  -36.2160   13.9730 C   0  0  0  0  0  0  0  0  0  0  0  0
   11.3940  -34.3040   13.3470 C   0  0  0  0  0  0  0  0  0  0  0  0
   12.3050  -34.0440   14.3490 C   0  0  0  0  0  0  0  0  0  0  0  0
   13.2510  -34.9930   14.6410 C   0  0  0  0  0  0  0  0  0  0  0  0
   14.4330  -34.6520   15.9510 S   0  0  0  0  0  0  0  0  0  0  0  0
   13.7160  -35.0190   17.2750 O   0  0  0  0  0  0  0  0  0  0  0  0
   15.6110  -35.4580   15.6830 O   0  0  0  0  0  0  0  0  0  0  0  0
   14.6520  -33.0190   15.9680 N   0  0  0  0  0  0  0  0  0  0  0  0
   15.3750  -32.3490   14.9700 C   0  0  0  0  0  0  0  0  0  0  0  0
   16.5860  -32.7320   14.3410 C   0  0  0  0  0  0  0  0  0  0  0  0
   17.1770  -31.8890   13.4210 C   0  0  0  0  0  0  0  0  0  0  0  0
   18.3110  -32.0220   12.6760 N   0  0  0  0  0  0  0  0  0  0  0  0
   19.2610  -33.1940   12.6430 C   0  0  0  0  0  0  0  0  0  0  0  0
   18.4200  -30.9180   11.9140 C   0  0  0  0  0  0  0  0  0  0  0  0
   19.3920  -30.7580   11.1650 O   0  0  0  0  0  0  0  0  0  0  0  0
   17.3820  -30.0980   12.1690 N   0  0  0  0  0  0  0  0  0  0  0  0
   17.2890  -28.7440   11.4970 C   0  0  0  0  0  0  0  0  0  0  0  0
   16.6100  -30.6870   13.1570 C   0  0  0  0  0  0  0  0  0  0  0  0
   15.4540  -30.2880   13.7360 C   0  0  0  0  0  0  0  0  0  0  0  0
   14.8110  -31.1200   14.6480 C   0  0  0  0  0  0  0  0  0  0  0  0
   13.6560  -30.7590   15.2780 O   0  0  0  0  0  0  0  0  0  0  0  0
   12.8160  -29.8830   14.5390 C   0  0  0  0  0  0  0  0  0  0  0  0
   10.9884  -33.8324   10.6422 H   0  0  0  0  0  0  0  0  0  0  0  0
   11.5439  -35.2930    9.7563 H   0  0  0  0  0  0  0  0  0  0  0  0
    9.8030  -34.8506    9.7563 H   0  0  0  0  0  0  0  0  0  0  0  0
    9.5234  -35.4668   12.0374 H   0  0  0  0  0  0  0  0  0  0  0  0
   10.5882  -36.7657   11.3162 H   0  0  0  0  0  0  0  0  0  0  0  0
   12.4480  -37.4059   12.3809 H   0  0  0  0  0  0  0  0  0  0  0  0
   14.0731  -36.9694   14.2556 H   0  0  0  0  0  0  0  0  0  0  0  0
   10.5957  -33.5837   13.1149 H   0  0  0  0  0  0  0  0  0  0  0  0
   12.2736  -33.0943   14.9031 H   0  0  0  0  0  0  0  0  0  0  0  0
   14.2437  -32.4709   16.7385 H   0  0  0  0  0  0  0  0  0  0  0  0
   17.0534  -33.6974   14.5849 H   0  0  0  0  0  0  0  0  0  0  0  0
   19.5061  -33.4964   13.6718 H   0  0  0  0  0  0  0  0  0  0  0  0
   18.7870  -34.0355   12.1166 H   0  0  0  0  0  0  0  0  0  0  0  0
   20.1824  -32.9044   12.1166 H   0  0  0  0  0  0  0  0  0  0  0  0
   17.2350  -27.9571   12.2637 H   0  0  0  0  0  0  0  0  0  0  0  0
   18.1783  -28.5842   10.8696 H   0  0  0  0  0  0  0  0  0  0  0  0
   16.3862  -28.7073   10.8696 H   0  0  0  0  0  0  0  0  0  0  0  0
   15.0229  -29.3073   13.4863 H   0  0  0  0  0  0  0  0  0  0  0  0
   12.2259  -29.2677   15.2341 H   0  0  0  0  0  0  0  0  0  0  0  0
   13.4342  -29.2300   13.9054 H   0  0  0  0  0  0  0  0  0  0  0  0
   12.1376  -30.4732   13.9054 H   0  0  0  0  0  0  0  0  0  0  0  0
  1  2  1  0
 19 18  2  0
 21 20  1  0
  2  3  1  0
 18 20  1  0
 18 16  1  0
 20 22  1  0
  3  4  2  0
  3  6  1  0
 17 16  1  0
 16 15  1  0
  4  5  1  0
 22 15  1  0
 22 23  2  0
  6  7  2  0
 15 14  2  0
 23 24  1  0
  5  8  2  0
 14 13  1  0
  7  8  1  0
 26 25  1  0
  8  9  1  0
 24 13  2  0
 24 25  1  0
 13 12  1  0
 11  9  2  0
  9 12  1  0
  9 10  2  0
  1 27  1  0
  1 28  1  0
  1 29  1  0
  2 30  1  0
  2 31  1  0
  4 32  1  0
  5 33  1  0
  6 34  1  0
  7 35  1  0
 12 36  1  0
 14 37  1  0
 17 38  1  0
 17 39  1  0
 17 40  1  0
 21 41  1  0
 21 42  1  0
 21 43  1  0
 23 44  1  0
 26 45  1  0
 26 46  1  0
 26 47  1  0
A    1
CAA
A    2
CAN
A    3
CAQ
A    4
CAI
A    5
CAK
A    6
CAH
A    7
CAJ
A    8
CAR
A    9
SAZ
A   10
OAF
A   11
OAG
A   12
NAO
A   13
CAS
A   14
CAL
A   15
CAV
A   16
NAX
A   17
CAC
A   18
CAU
A   19
OAE
A   20
NAY
A   21
CAD
A   22
CAW
A   23
CAM
A   24
CAT
A   25
OAP
A   26
CAB
M  END
