5FG5_5XF_A_801
     RDKit          3D

 52 55  0  0  0  0  0  0  0  0999 V2000
   16.3280   17.4530   20.0480 C   0  0  0  0  0  0  0  0  0  0  0  0
   15.6250   17.6300   21.3980 C   0  0  0  0  0  0  0  0  0  0  0  0
   14.6340   16.5460   21.3920 C   0  0  0  0  0  0  0  0  0  0  0  0
   14.8940   15.6490   20.2350 C   0  0  0  0  0  0  0  0  0  0  0  0
   16.2000   16.0330   19.7210 N   0  0  0  0  0  0  0  0  0  0  0  0
   16.6290   15.4440   18.5450 C   0  0  0  0  0  0  0  0  0  0  0  0
   16.4980   16.1750   17.3470 C   0  0  0  0  0  0  0  0  0  0  0  0
   16.8990   15.6340   16.1590 C   0  0  0  0  0  0  0  0  0  0  0  0
   16.8640   16.1170   14.8800 N   0  0  0  0  0  0  0  0  0  0  0  0
   16.3310   17.4120   14.4150 C   0  0  0  0  0  0  0  0  0  0  0  0
   17.3490   15.1780   14.0820 C   0  0  0  0  0  0  0  0  0  0  0  0
   17.4480   15.2880   12.8550 O   0  0  0  0  0  0  0  0  0  0  0  0
   17.7130   14.1260   14.8040 N   0  0  0  0  0  0  0  0  0  0  0  0
   18.2560   12.8840   14.2750 C   0  0  0  0  0  0  0  0  0  0  0  0
   17.4210   14.3730   16.1110 C   0  0  0  0  0  0  0  0  0  0  0  0
   17.5710   13.6280   17.2350 C   0  0  0  0  0  0  0  0  0  0  0  0
   17.1810   14.1300   18.4950 C   0  0  0  0  0  0  0  0  0  0  0  0
   17.2520   13.5050   19.7450 N   0  0  0  0  0  0  0  0  0  0  0  0
   17.4910   12.1850   19.9590 C   0  0  0  0  0  0  0  0  0  0  0  0
   17.7390   11.4070   19.0470 O   0  0  0  0  0  0  0  0  0  0  0  0
   17.4070   11.6940   21.3300 C   0  0  0  0  0  0  0  0  0  0  0  0
   17.5030   10.3040   21.5100 C   0  0  0  0  0  0  0  0  0  0  0  0
   17.4160    9.7250   22.7860 C   0  0  0  0  0  0  0  0  0  0  0  0
   17.2430   10.5310   23.8720 C   0  0  0  0  0  0  0  0  0  0  0  0
   17.1150   11.9130   23.7700 C   0  0  0  0  0  0  0  0  0  0  0  0
   17.1870   12.5080   22.4800 C   0  0  0  0  0  0  0  0  0  0  0  0
   17.0910   13.8730   22.3210 O   0  0  0  0  0  0  0  0  0  0  0  0
   17.1130   14.7620   23.4640 C   0  0  0  0  0  0  0  0  0  0  0  0
   15.8415   18.0697   19.2780 H   0  0  0  0  0  0  0  0  0  0  0  0
   17.3813   17.7669   20.0934 H   0  0  0  0  0  0  0  0  0  0  0  0
   15.1365   18.6133   21.4647 H   0  0  0  0  0  0  0  0  0  0  0  0
   16.3119   17.5880   22.2561 H   0  0  0  0  0  0  0  0  0  0  0  0
   14.7119   15.9717   22.3270 H   0  0  0  0  0  0  0  0  0  0  0  0
   13.6230   16.9714   21.3086 H   0  0  0  0  0  0  0  0  0  0  0  0
   14.9041   14.5981   20.5598 H   0  0  0  0  0  0  0  0  0  0  0  0
   14.1128   15.7431   19.4663 H   0  0  0  0  0  0  0  0  0  0  0  0
   16.0699   17.1880   17.3692 H   0  0  0  0  0  0  0  0  0  0  0  0
   16.0742   18.0360   15.2837 H   0  0  0  0  0  0  0  0  0  0  0  0
   17.0913   17.9245   13.8073 H   0  0  0  0  0  0  0  0  0  0  0  0
   15.4302   17.2408   13.8073 H   0  0  0  0  0  0  0  0  0  0  0  0
   18.5439   12.2256   15.1078 H   0  0  0  0  0  0  0  0  0  0  0  0
   17.4944   12.3840   13.6586 H   0  0  0  0  0  0  0  0  0  0  0  0
   19.1402   13.1035   13.6586 H   0  0  0  0  0  0  0  0  0  0  0  0
   18.0026   12.6187   17.1632 H   0  0  0  0  0  0  0  0  0  0  0  0
   17.1107   14.0977   20.5755 H   0  0  0  0  0  0  0  0  0  0  0  0
   17.6493    9.6561   20.6332 H   0  0  0  0  0  0  0  0  0  0  0  0
   17.4866    8.6341   22.9081 H   0  0  0  0  0  0  0  0  0  0  0  0
   17.2030   10.0699   24.8699 H   0  0  0  0  0  0  0  0  0  0  0  0
   16.9616   12.5313   24.6668 H   0  0  0  0  0  0  0  0  0  0  0  0
   17.0983   14.1688   24.3902 H   0  0  0  0  0  0  0  0  0  0  0  0
   18.0266   15.3740   23.4350 H   0  0  0  0  0  0  0  0  0  0  0  0
   16.2308   15.4184   23.4350 H   0  0  0  0  0  0  0  0  0  0  0  0
 28 27  1  0
 25 24  2  0
 25 26  1  0
 24 23  1  0
 27 26  1  0
 26 21  2  0
 23 22  2  0
  2  3  1  0
  2  1  1  0
  3  4  1  0
 22 21  1  0
 21 19  1  0
  1  5  1  0
  4  5  1  0
  5  6  1  0
 19 18  1  0
 19 20  2  0
 18 17  1  0
  6 17  1  0
  6  7  2  0
 17 16  2  0
  7  8  1  0
 16 15  1  0
  8 15  2  0
  8  9  1  0
 15 13  1  0
  9 10  1  0
  9 11  1  0
 13 11  1  0
 13 14  1  0
 11 12  2  0
  1 29  1  0
  1 30  1  0
  2 31  1  0
  2 32  1  0
  3 33  1  0
  3 34  1  0
  4 35  1  0
  4 36  1  0
  7 37  1  0
 10 38  1  0
 10 39  1  0
 10 40  1  0
 14 41  1  0
 14 42  1  0
 14 43  1  0
 16 44  1  0
 18 45  1  0
 22 46  1  0
 23 47  1  0
 24 48  1  0
 25 49  1  0
 28 50  1  0
 28 51  1  0
 28 52  1  0
A    1
CAO
A    2
CAP
A    3
CAQ
A    4
CAR
A    5
NAN
A    6
CAA
A    7
CAB
A    8
CAC
A    9
NAH
A   10
CAL
A   11
CAI
A   12
OAK
A   13
NAJ
A   14
CAM
A   15
CAD
A   16
CAE
A   17
CAF
A   18
NAG
A   19
CAS
A   20
OAU
A   21
CAT
A   22
CAV
A   23
CAW
A   24
CAX
A   25
CAY
A   26
CAZ
A   27
OBA
A   28
CBB
M  END
