5FG4_5XE_A_801
     RDKit          3D

 44 46  0  0  0  0  0  0  0  0999 V2000
   -7.5200  -17.9530  -10.4810 C   0  0  0  0  0  0  0  0  0  0  0  0
   -7.1370  -19.1730  -11.0080 C   0  0  0  0  0  0  0  0  0  0  0  0
   -7.8670  -19.6300  -12.0670 C   0  0  0  0  0  0  0  0  0  0  0  0
   -7.5410  -20.8480  -12.6120 C   0  0  0  0  0  0  0  0  0  0  0  0
   -8.4970  -21.4660  -14.0590 Br  0  0  0  0  0  0  0  0  0  0  0  0
   -6.4970  -21.6140  -12.1380 C   0  0  0  0  0  0  0  0  0  0  0  0
   -5.7570  -21.1620  -11.0730 C   0  0  0  0  0  0  0  0  0  0  0  0
   -6.0810  -19.9400  -10.5110 C   0  0  0  0  0  0  0  0  0  0  0  0
   -5.0740  -19.4730   -9.1980 S   0  0  0  0  0  0  0  0  0  0  0  0
   -5.7360  -20.0030   -7.8970 O   0  0  0  0  0  0  0  0  0  0  0  0
   -3.7240  -20.1300   -9.4250 O   0  0  0  0  0  0  0  0  0  0  0  0
   -4.8280  -17.8200   -9.1470 N   0  0  0  0  0  0  0  0  0  0  0  0
   -4.0790  -17.1820  -10.1170 C   0  0  0  0  0  0  0  0  0  0  0  0
   -2.8740  -17.5870  -10.7260 C   0  0  0  0  0  0  0  0  0  0  0  0
   -2.3040  -16.7410  -11.6510 C   0  0  0  0  0  0  0  0  0  0  0  0
   -1.1710  -16.8690  -12.4050 N   0  0  0  0  0  0  0  0  0  0  0  0
   -0.1980  -18.0010  -12.4940 C   0  0  0  0  0  0  0  0  0  0  0  0
   -1.0460  -15.7340  -13.1200 C   0  0  0  0  0  0  0  0  0  0  0  0
   -0.0980  -15.5360  -13.8910 O   0  0  0  0  0  0  0  0  0  0  0  0
   -2.0540  -14.9000  -12.8320 N   0  0  0  0  0  0  0  0  0  0  0  0
   -2.2100  -13.5550  -13.4400 C   0  0  0  0  0  0  0  0  0  0  0  0
   -2.8180  -15.5060  -11.9120 C   0  0  0  0  0  0  0  0  0  0  0  0
   -3.9280  -15.0640  -11.3240 C   0  0  0  0  0  0  0  0  0  0  0  0
   -4.5650  -15.9120  -10.4080 C   0  0  0  0  0  0  0  0  0  0  0  0
   -5.6910  -15.5710   -9.7460 O   0  0  0  0  0  0  0  0  0  0  0  0
   -6.4930  -14.5580  -10.3620 C   0  0  0  0  0  0  0  0  0  0  0  0
   -7.5032  -18.0066   -9.3824 H   0  0  0  0  0  0  0  0  0  0  0  0
   -6.8238  -17.1720  -10.8207 H   0  0  0  0  0  0  0  0  0  0  0  0
   -8.5376  -17.7101  -10.8207 H   0  0  0  0  0  0  0  0  0  0  0  0
   -8.6981  -19.0360  -12.4750 H   0  0  0  0  0  0  0  0  0  0  0  0
   -6.2588  -22.5791  -12.6090 H   0  0  0  0  0  0  0  0  0  0  0  0
   -4.9236  -21.7594  -10.6749 H   0  0  0  0  0  0  0  0  0  0  0  0
   -5.2410  -17.2691   -8.3810 H   0  0  0  0  0  0  0  0  0  0  0  0
   -2.4040  -18.5482  -10.4705 H   0  0  0  0  0  0  0  0  0  0  0  0
    0.0808  -18.3254  -11.4806 H   0  0  0  0  0  0  0  0  0  0  0  0
   -0.6606  -18.8406  -13.0334 H   0  0  0  0  0  0  0  0  0  0  0  0
    0.7016  -17.6697  -13.0334 H   0  0  0  0  0  0  0  0  0  0  0  0
   -2.2975  -12.8007  -12.6441 H   0  0  0  0  0  0  0  0  0  0  0  0
   -1.3319  -13.3303  -14.0632 H   0  0  0  0  0  0  0  0  0  0  0  0
   -3.1162  -13.5372  -14.0632 H   0  0  0  0  0  0  0  0  0  0  0  0
   -4.3317  -14.0660  -11.5499 H   0  0  0  0  0  0  0  0  0  0  0  0
   -6.9755  -13.9486   -9.5837 H   0  0  0  0  0  0  0  0  0  0  0  0
   -5.8558  -13.9160  -10.9879 H   0  0  0  0  0  0  0  0  0  0  0  0
   -7.2641  -15.0310  -10.9879 H   0  0  0  0  0  0  0  0  0  0  0  0
  5  4  1  0
  4  6  2  0
  4  3  1  0
  6  7  1  0
  3  2  2  0
  7  8  2  0
  2  8  1  0
  2  1  1  0
  8  9  1  0
 10  9  2  0
  9 11  2  0
  9 12  1  0
 12 13  1  0
 13 14  2  0
 13 24  1  0
 25 24  1  0
 25 26  1  0
 14 15  1  0
 24 23  2  0
 15 16  1  0
 15 22  2  0
 17 16  1  0
 23 22  1  0
 16 18  1  0
 22 20  1  0
 20 18  1  0
 20 21  1  0
 18 19  2  0
  1 27  1  0
  1 28  1  0
  1 29  1  0
  3 30  1  0
  6 31  1  0
  7 32  1  0
 12 33  1  0
 14 34  1  0
 17 35  1  0
 17 36  1  0
 17 37  1  0
 21 38  1  0
 21 39  1  0
 21 40  1  0
 23 41  1  0
 26 42  1  0
 26 43  1  0
 26 44  1  0
A    1
CAZ
A    2
CAT
A    3
CAU
A    4
CAV
A    5
BR
A    6
CAW
A    7
CAX
A    8
CAR
A    9
SAA
A   10
OAC
A   11
OAD
A   12
NAB
A   13
CAE
A   14
CAF
A   15
CAG
A   16
NAL
A   17
CAP
A   18
CAM
A   19
OAO
A   20
NAN
A   21
CAQ
A   22
CAH
A   23
CAI
A   24
CAJ
A   25
OAK
A   26
CAS
M  END
