5FGK_5XG_A_401
     RDKit          3D

 49 53  0  0  0  0  0  0  0  0999 V2000
   -4.0010  -21.3190  140.4010 C   0  0  0  0  0  0  0  0  0  0  0  0
   -5.3150  -21.3730  142.2840 C   0  0  0  0  0  0  0  0  0  0  0  0
   -6.0270  -22.0240  143.3250 C   0  0  0  0  0  0  0  0  0  0  0  0
   -6.0560  -23.4110  143.3870 C   0  0  0  0  0  0  0  0  0  0  0  0
   -5.3560  -24.1970  142.4460 C   0  0  0  0  0  0  0  0  0  0  0  0
   -6.7710  -24.1050  144.4950 C   0  0  0  0  0  0  0  0  0  0  0  0
   -7.9610  -24.7850  144.2380 C   0  0  0  0  0  0  0  0  0  0  0  0
   -8.6100  -25.4180  145.2040 N   0  0  0  0  0  0  0  0  0  0  0  0
   -6.9900  -24.7910  146.8030 C   0  0  0  0  0  0  0  0  0  0  0  0
   -6.2510  -24.1100  145.8270 C   0  0  0  0  0  0  0  0  0  0  0  0
   -3.7960  -23.8040  145.4930 C   0  0  0  0  0  0  0  0  0  0  0  0
   -2.5800  -22.4370  147.2190 C   0  0  0  0  0  0  0  0  0  0  0  0
   -1.3750  -20.3710  147.2560 C   0  0  0  0  0  0  0  0  0  0  0  0
   -1.1740  -23.4640  148.8830 O   0  0  0  0  0  0  0  0  0  0  0  0
   -3.8760  -22.2470  147.9970 C   0  0  0  0  0  0  0  0  0  0  0  0
   -3.2250  -21.6560  139.2990 N   0  0  0  0  0  0  0  0  0  0  0  0
   -4.3030  -20.0710  140.8020 N   0  0  0  0  0  0  0  0  0  0  0  0
   -5.1060  -20.1100  141.9400 N   0  0  0  0  0  0  0  0  0  0  0  0
   -4.6620  -23.6240  141.4210 C   0  0  0  0  0  0  0  0  0  0  0  0
   -4.6050  -22.2100  141.2920 C   0  0  0  0  0  0  0  0  0  0  0  0
   -8.1570  -25.4300  146.4450 C   0  0  0  0  0  0  0  0  0  0  0  0
   -6.4980  -24.8710  148.4650 Cl  0  0  0  0  0  0  0  0  0  0  0  0
   -5.0650  -23.4340  146.1510 N   0  0  0  0  0  0  0  0  0  0  0  0
   -2.6090  -23.7510  146.4420 C   0  0  0  0  0  0  0  0  0  0  0  0
   -2.2600  -21.2260  146.3130 C   0  0  0  0  0  0  0  0  0  0  0  0
   -0.7810  -21.3210  148.2030 N   0  0  0  0  0  0  0  0  0  0  0  0
   -1.4430  -22.4960  148.1980 C   0  0  0  0  0  0  0  0  0  0  0  0
   -5.1030  -22.2840  147.0780 C   0  0  0  0  0  0  0  0  0  0  0  0
   -6.5566  -21.4291  144.0837 H   0  0  0  0  0  0  0  0  0  0  0  0
   -5.3706  -25.2928  142.5413 H   0  0  0  0  0  0  0  0  0  0  0  0
   -8.3677  -24.7960  143.2160 H   0  0  0  0  0  0  0  0  0  0  0  0
   -3.8879  -24.8274  145.1003 H   0  0  0  0  0  0  0  0  0  0  0  0
   -3.6128  -23.0763  144.6888 H   0  0  0  0  0  0  0  0  0  0  0  0
   -0.5892  -19.8561  146.6839 H   0  0  0  0  0  0  0  0  0  0  0  0
   -1.9587  -19.5930  147.7699 H   0  0  0  0  0  0  0  0  0  0  0  0
   -3.8442  -21.2742  148.5094 H   0  0  0  0  0  0  0  0  0  0  0  0
   -3.9650  -23.0718  148.7193 H   0  0  0  0  0  0  0  0  0  0  0  0
   -2.2884  -22.0628  139.4337 H   0  0  0  0  0  0  0  0  0  0  0  0
   -3.5863  -21.4991  138.3473 H   0  0  0  0  0  0  0  0  0  0  0  0
   -3.9859  -19.2097  140.3346 H   0  0  0  0  0  0  0  0  0  0  0  0
   -4.1430  -24.2607  140.6894 H   0  0  0  0  0  0  0  0  0  0  0  0
   -8.7291  -25.9666  147.2162 H   0  0  0  0  0  0  0  0  0  0  0  0
   -2.6812  -24.5868  147.1535 H   0  0  0  0  0  0  0  0  0  0  0  0
   -1.6857  -23.8246  145.8486 H   0  0  0  0  0  0  0  0  0  0  0  0
   -1.7098  -21.5316  145.4108 H   0  0  0  0  0  0  0  0  0  0  0  0
   -3.1477  -20.7023  145.9286 H   0  0  0  0  0  0  0  0  0  0  0  0
    0.0364  -21.1169  148.7955 H   0  0  0  0  0  0  0  0  0  0  0  0
   -5.1347  -21.3548  146.4902 H   0  0  0  0  0  0  0  0  0  0  0  0
   -5.9979  -22.3857  147.7095 H   0  0  0  0  0  0  0  0  0  0  0  0
 16  1  1  0
  1 17  1  0
  1 20  2  0
 17 18  1  0
 20 19  1  0
 20  2  1  0
 19  5  2  0
 18  2  2  0
  2  3  1  0
  5  4  1  0
  3  4  2  0
  4  6  1  0
  7  6  2  0
  7  8  1  0
  6 10  1  0
  8 21  2  0
 11 23  1  0
 11 24  1  0
 10 23  1  0
 10  9  2  0
 23 28  1  0
 25 12  1  0
 25 13  1  0
 24 12  1  0
 21  9  1  0
  9 22  1  0
 28 15  1  0
 12 15  1  0
 12 27  1  0
 13 26  1  0
 27 26  1  0
 27 14  2  0
  3 29  1  0
  5 30  1  0
  7 31  1  0
 11 32  1  0
 11 33  1  0
 13 34  1  0
 13 35  1  0
 15 36  1  0
 15 37  1  0
 16 38  1  0
 16 39  1  0
 17 40  1  0
 19 41  1  0
 21 42  1  0
 24 43  1  0
 24 44  1  0
 25 45  1  0
 25 46  1  0
 26 47  1  0
 28 48  1  0
 28 49  1  0
A    1
C2
A    2
C5
A    3
C6
A    4
C7
A    5
C8
A    6
C11
A    7
C12
A    8
N13
A    9
C15
A   10
C17
A   11
C19
A   12
C21
A   13
C23
A   14
O26
A   15
C27
A   16
N1
A   17
N3
A   18
N4
A   19
C9
A   20
C10
A   21
C14
A   22
CL1
A   23
N18
A   24
C20
A   25
C22
A   26
N24
A   27
C25
A   28
C28
M  END
