5FH7_5XL_A_803
     RDKit          3D

 33 35  0  0  0  0  0  0  0  0999 V2000
   12.7200    7.4780   29.7930 C   0  0  0  0  0  0  0  0  0  0  0  0
   12.7730    6.6800   28.5100 C   0  0  0  0  0  0  0  0  0  0  0  0
   11.4470    4.6300   27.8100 C   0  0  0  0  0  0  0  0  0  0  0  0
   10.5790    3.6060   28.2600 C   0  0  0  0  0  0  0  0  0  0  0  0
   11.9010    4.6900   26.4920 C   0  0  0  0  0  0  0  0  0  0  0  0
   11.4840    3.7530   25.5820 C   0  0  0  0  0  0  0  0  0  0  0  0
   10.6150    2.7570   25.9610 C   0  0  0  0  0  0  0  0  0  0  0  0
   10.1490    2.7080   27.2660 C   0  0  0  0  0  0  0  0  0  0  0  0
   10.2080    3.5600   29.7040 C   0  0  0  0  0  0  0  0  0  0  0  0
   11.4410    5.5320   30.0660 C   0  0  0  0  0  0  0  0  0  0  0  0
   11.8480    5.5640   28.7550 N   0  0  0  0  0  0  0  0  0  0  0  0
   10.6510    4.5900   30.5260 N   0  0  0  0  0  0  0  0  0  0  0  0
   11.9780    6.6260   30.7770 C   0  0  0  0  0  0  0  0  0  0  0  0
    8.9310    1.5140   27.5760 Cl  0  0  0  0  0  0  0  0  0  0  0  0
    9.6260    2.5720   30.2090 O   0  0  0  0  0  0  0  0  0  0  0  0
   11.8060    6.8070   32.1050 C   0  0  0  0  0  0  0  0  0  0  0  0
   12.1480    7.7920   32.9300 N   0  0  0  0  0  0  0  0  0  0  0  0
   12.7790    9.0680   32.4990 C   0  0  0  0  0  0  0  0  0  0  0  0
   11.8780    7.7370   34.3470 C   0  0  0  0  0  0  0  0  0  0  0  0
   13.1403    8.4793   29.9682 H   0  0  0  0  0  0  0  0  0  0  0  0
   13.3646    6.8860   27.6058 H   0  0  0  0  0  0  0  0  0  0  0  0
   12.5925    5.4879   26.1834 H   0  0  0  0  0  0  0  0  0  0  0  0
   11.8462    3.7982   24.5443 H   0  0  0  0  0  0  0  0  0  0  0  0
   10.2904    2.0011   25.2308 H   0  0  0  0  0  0  0  0  0  0  0  0
   10.3545    4.6143   31.5121 H   0  0  0  0  0  0  0  0  0  0  0  0
   10.7161    6.7325   32.2340 H   0  0  0  0  0  0  0  0  0  0  0  0
   12.5929    6.1072   32.4230 H   0  0  0  0  0  0  0  0  0  0  0  0
   13.0678    9.6520   33.3853 H   0  0  0  0  0  0  0  0  0  0  0  0
   13.6730    8.8498   31.8964 H   0  0  0  0  0  0  0  0  0  0  0  0
   12.0629    9.6460   31.8964 H   0  0  0  0  0  0  0  0  0  0  0  0
   12.8070    7.9262   34.9049 H   0  0  0  0  0  0  0  0  0  0  0  0
   11.1314    8.5015   34.6079 H   0  0  0  0  0  0  0  0  0  0  0  0
   11.4899    6.7414   34.6079 H   0  0  0  0  0  0  0  0  0  0  0  0
  6  7  2  0
  6  5  1  0
  7  8  1  0
  5  3  2  0
  8 14  1  0
  8  4  2  0
  3  4  1  0
  3 11  1  0
  4  9  1  0
  2 11  1  0
  2  1  2  0
 11 10  1  0
  9 15  2  0
  9 12  1  0
  1 13  1  0
 10 12  1  0
 10 13  2  0
 13 16  1  0
 16 17  1  0
 18 17  1  0
 17 19  1  0
  1 20  1  0
  2 21  1  0
  5 22  1  0
  6 23  1  0
  7 24  1  0
 12 25  1  0
 16 26  1  0
 16 27  1  0
 18 28  1  0
 18 29  1  0
 18 30  1  0
 19 31  1  0
 19 32  1  0
 19 33  1  0
A    1
C4
A    2
C5
A    3
C6
A    4
C11
A    5
C7
A    6
C8
A    7
C9
A    8
C10
A    9
C12
A   10
C13
A   11
N1
A   12
N2
A   13
C3
A   14
CL
A   15
O
A   16
C2
A   17
N
A   18
C1
A   19
C
M  END
