5FHN_5XO_A_305
     RDKit          3D

 41 43  0  0  0  0  0  0  0  0999 V2000
  -16.1390  -11.2640    8.5770 C   0  0  0  0  0  0  0  0  0  0  0  0
  -16.5350  -10.7010    9.7270 C   0  0  0  0  0  0  0  0  0  0  0  0
  -16.3060  -11.5010   10.7990 O   0  0  0  0  0  0  0  0  0  0  0  0
  -15.7100  -12.7300   10.1990 N   0  0  0  0  0  0  0  0  0  0  0  0
  -15.6090  -12.5500    8.8620 C   0  0  0  0  0  0  0  0  0  0  0  0
  -17.0800   -9.3700    9.9000 C   0  0  0  0  0  0  0  0  0  0  0  0
  -17.2640   -8.8940   11.1640 N   0  0  0  0  0  0  0  0  0  0  0  0
  -17.7010   -7.6940   10.9950 N   0  0  0  0  0  0  0  0  0  0  0  0
  -17.7670   -7.5140    9.6560 N   0  0  0  0  0  0  0  0  0  0  0  0
  -17.3790   -8.5620    8.8840 N   0  0  0  0  0  0  0  0  0  0  0  0
  -18.2230   -6.2880    9.0580 C   0  0  0  0  0  0  0  0  0  0  0  0
  -21.3690   -4.3710   11.2850 C   0  0  0  0  0  0  0  0  0  0  0  0
  -20.0530   -3.8960   11.3740 C   0  0  0  0  0  0  0  0  0  0  0  0
  -19.0300   -4.5480   10.6480 C   0  0  0  0  0  0  0  0  0  0  0  0
  -19.3480   -5.6320    9.8340 C   0  0  0  0  0  0  0  0  0  0  0  0
  -20.6680   -6.1280    9.7460 C   0  0  0  0  0  0  0  0  0  0  0  0
  -21.6880   -5.4890   10.4920 C   0  0  0  0  0  0  0  0  0  0  0  0
  -15.1600  -13.2810    7.9530 O   0  0  0  0  0  0  0  0  0  0  0  0
  -16.1660  -10.7530    7.1360 C   0  0  0  0  0  0  0  0  0  0  0  0
  -14.8730  -10.0460    6.6660 C   0  0  0  0  0  0  0  0  0  0  0  0
  -14.4600  -10.4170    5.2310 C   0  0  0  0  0  0  0  0  0  0  0  0
  -14.0650   -9.5030    4.4780 O   0  0  0  0  0  0  0  0  0  0  0  0
  -14.5350  -11.6250    4.9200 O   0  0  0  0  0  0  0  0  0  0  0  0
  -14.8900   -8.5580    6.7750 N   0  0  0  0  0  0  0  0  0  0  0  0
  -19.7160   -2.6950   12.2460 C   0  0  0  0  0  0  0  0  0  0  0  0
  -15.4236  -13.5737   10.7158 H   0  0  0  0  0  0  0  0  0  0  0  0
  -17.3769   -5.5869    9.0075 H   0  0  0  0  0  0  0  0  0  0  0  0
  -18.6128   -6.5345    8.0593 H   0  0  0  0  0  0  0  0  0  0  0  0
  -22.1665   -3.8607   11.8450 H   0  0  0  0  0  0  0  0  0  0  0  0
  -17.9891   -4.2010   10.7257 H   0  0  0  0  0  0  0  0  0  0  0  0
  -20.8992   -6.9949    9.1095 H   0  0  0  0  0  0  0  0  0  0  0  0
  -22.7215   -5.8635   10.4520 H   0  0  0  0  0  0  0  0  0  0  0  0
  -16.9977  -10.0391    7.0432 H   0  0  0  0  0  0  0  0  0  0  0  0
  -16.2783  -11.6419    6.4979 H   0  0  0  0  0  0  0  0  0  0  0  0
  -14.1294  -10.4301    7.3798 H   0  0  0  0  0  0  0  0  0  0  0  0
  -14.5779  -12.3165    5.6272 H   0  0  0  0  0  0  0  0  0  0  0  0
  -14.8931   -8.2865    7.7686 H   0  0  0  0  0  0  0  0  0  0  0  0
  -14.0534   -8.1705    6.3158 H   0  0  0  0  0  0  0  0  0  0  0  0
  -19.7953   -2.9778   13.3061 H   0  0  0  0  0  0  0  0  0  0  0  0
  -18.6898   -2.3623   12.0311 H   0  0  0  0  0  0  0  0  0  0  0  0
  -20.4193   -1.8770   12.0311 H   0  0  0  0  0  0  0  0  0  0  0  0
 22 21  2  0
 23 21  1  0
 21 20  1  0
 20 24  1  0
 20 19  1  0
 19  1  1  0
 18  5  2  0
  1  5  1  0
  1  2  2  0
  5  4  1  0
 10  9  1  0
 10  6  2  0
 11  9  1  0
 11 15  1  0
  9  8  1  0
  2  6  1  0
  2  3  1  0
 16 15  2  0
 16 17  1  0
 15 14  1  0
  6  7  1  0
  4  3  1  0
 17 12  2  0
 14 13  2  0
  8  7  2  0
 12 13  1  0
 13 25  1  0
  4 26  1  0
 11 27  1  0
 11 28  1  0
 12 29  1  0
 14 30  1  0
 16 31  1  0
 17 32  1  0
 19 33  1  0
 19 34  1  0
 20 35  1  0
 23 36  1  0
 24 37  1  0
 24 38  1  0
 25 39  1  0
 25 40  1  0
 25 41  1  0
A    1
C1
A    2
C2
A    3
O3
A    4
N4
A    5
C5
A    6
C6
A    7
N7
A    8
N8
A    9
N9
A   10
N10
A   11
C11
A   12
C12
A   13
C13
A   14
C14
A   15
C15
A   16
C16
A   17
C17
A   18
O23
A   19
C24
A   20
C25
A   21
C26
A   22
O27
A   23
O28
A   24
N29
A   25
C18
M  END
