5FHO_5XN_A_301
     RDKit          3D

 39 41  0  0  0  0  0  0  0  0999 V2000
   93.2970   16.9610   29.1280 C   0  0  0  0  0  0  0  0  0  0  0  0
   93.5990   16.6690   30.4050 C   0  0  0  0  0  0  0  0  0  0  0  0
   92.6670   17.1750   31.2800 O   0  0  0  0  0  0  0  0  0  0  0  0
   91.7160   17.8400   30.4640 N   0  0  0  0  0  0  0  0  0  0  0  0
   92.0800   17.7190   29.1610 C   0  0  0  0  0  0  0  0  0  0  0  0
   94.7450   15.8990   30.9270 C   0  0  0  0  0  0  0  0  0  0  0  0
   94.8430   15.6310   32.2580 N   0  0  0  0  0  0  0  0  0  0  0  0
   95.9320   14.9460   32.3790 N   0  0  0  0  0  0  0  0  0  0  0  0
   96.4520   14.8260   31.1330 N   0  0  0  0  0  0  0  0  0  0  0  0
   95.7190   15.4230   30.1630 N   0  0  0  0  0  0  0  0  0  0  0  0
   97.6940   14.1090   30.9020 C   0  0  0  0  0  0  0  0  0  0  0  0
  100.1700   14.2980   34.4680 C   0  0  0  0  0  0  0  0  0  0  0  0
   99.4270   13.1380   34.1900 C   0  0  0  0  0  0  0  0  0  0  0  0
   98.6230   13.0770   33.0340 C   0  0  0  0  0  0  0  0  0  0  0  0
   98.5680   14.1750   32.1490 C   0  0  0  0  0  0  0  0  0  0  0  0
   99.3130   15.3400   32.4360 C   0  0  0  0  0  0  0  0  0  0  0  0
  100.1140   15.4000   33.5920 C   0  0  0  0  0  0  0  0  0  0  0  0
   91.4770   18.1810   28.1720 O   0  0  0  0  0  0  0  0  0  0  0  0
   94.0280   16.6100   27.8360 C   0  0  0  0  0  0  0  0  0  0  0  0
   93.5370   15.3040   27.1570 C   0  0  0  0  0  0  0  0  0  0  0  0
   93.5530   15.4100   25.6170 C   0  0  0  0  0  0  0  0  0  0  0  0
   94.1010   14.4950   24.9680 O   0  0  0  0  0  0  0  0  0  0  0  0
   93.0280   16.3950   25.0590 O   0  0  0  0  0  0  0  0  0  0  0  0
   94.3290   14.1220   27.5340 N   0  0  0  0  0  0  0  0  0  0  0  0
   99.5060   11.7960   35.2730 Cl  0  0  0  0  0  0  0  0  0  0  0  0
   90.8808   18.3365   30.8059 H   0  0  0  0  0  0  0  0  0  0  0  0
   97.4706   13.0577   30.6679 H   0  0  0  0  0  0  0  0  0  0  0  0
   98.2286   14.5710   30.0590 H   0  0  0  0  0  0  0  0  0  0  0  0
  100.7963   14.3456   35.3710 H   0  0  0  0  0  0  0  0  0  0  0  0
   98.0367   12.1710   32.8209 H   0  0  0  0  0  0  0  0  0  0  0  0
   99.2672   16.2024   31.7547 H   0  0  0  0  0  0  0  0  0  0  0  0
  100.6961   16.3072   33.8114 H   0  0  0  0  0  0  0  0  0  0  0  0
   95.0979   16.4973   28.0656 H   0  0  0  0  0  0  0  0  0  0  0  0
   93.8254   17.4274   27.1283 H   0  0  0  0  0  0  0  0  0  0  0  0
   92.5062   15.1761   27.5192 H   0  0  0  0  0  0  0  0  0  0  0  0
   92.6394   17.1240   25.6045 H   0  0  0  0  0  0  0  0  0  0  0  0
   94.3753   14.0529   28.5606 H   0  0  0  0  0  0  0  0  0  0  0  0
   93.8843   13.2748   27.1526 H   0  0  0  0  0  0  0  0  0  0  0  0
   95.2816   14.2111   27.1526 H   0  0  0  0  0  0  0  0  0  0  0  0
 22 21  2  0
 23 21  1  0
 21 20  1  0
 20 24  1  0
 20 19  1  0
 19  1  1  0
 18  5  2  0
  1  5  1  0
  1  2  2  0
  5  4  1  0
 10  6  2  0
 10  9  1  0
  2  6  1  0
  2  3  1  0
  4  3  1  0
 11  9  1  0
 11 15  1  0
  6  7  1  0
  9  8  1  0
 15 16  2  0
 15 14  1  0
  7  8  2  0
 16 17  1  0
 14 13  2  0
 17 12  2  0
 13 12  1  0
 13 25  1  0
  4 26  1  0
 11 27  1  0
 11 28  1  0
 12 29  1  0
 14 30  1  0
 16 31  1  0
 17 32  1  0
 19 33  1  0
 19 34  1  0
 20 35  1  0
 23 36  1  0
 24 37  1  0
 24 38  1  0
 24 39  1  0
M  CHG  1  24   1
A    1
C1
A    2
C2
A    3
O3
A    4
N4
A    5
C5
A    6
C6
A    7
N7
A    8
N8
A    9
N9
A   10
N10
A   11
C11
A   12
C12
A   13
C13
A   14
C14
A   15
C15
A   16
C16
A   17
C17
A   18
O23
A   19
C24
A   20
C25
A   21
C26
A   22
O27
A   23
O28
A   24
N29
A   25
CL1
M  END
