5FI2_5XX_A_601
     RDKit          3D

 60 64  0  0  0  0  0  0  0  0999 V2000
  122.6410  302.5390  173.4430 C   0  0  0  0  0  0  0  0  0  0  0  0
  119.7410  305.1180  172.6890 C   0  0  0  0  0  0  0  0  0  0  0  0
  117.8130  306.3720  173.7130 C   0  0  0  0  0  0  0  0  0  0  0  0
  115.9500  305.2490  174.7470 C   0  0  0  0  0  0  0  0  0  0  0  0
  129.5620  302.0130  176.8410 C   0  0  0  0  0  0  0  0  0  0  0  0
  131.2410  306.1620  177.4480 C   0  0  0  0  0  0  0  0  0  0  0  0
  126.8790  299.3890  176.1350 C   0  0  0  0  0  0  0  0  0  0  0  0
  127.6910  300.1860  177.1950 C   0  0  0  0  0  0  0  0  0  0  0  0
  128.4140  301.2860  176.4020 N   0  0  0  0  0  0  0  0  0  0  0  0
  128.0420  301.1160  175.1600 C   0  0  0  0  0  0  0  0  0  0  0  0
  126.6590  300.2630  175.2390 C   0  0  0  0  0  0  0  0  0  0  0  0
  125.5910  301.0750  175.7240 N   0  0  0  0  0  0  0  0  0  0  0  0
  124.5920  301.5110  174.7730 C   0  0  0  0  0  0  0  0  0  0  0  0
  124.5070  301.1910  173.4730 N   0  0  0  0  0  0  0  0  0  0  0  0
  123.4850  301.7290  172.7700 N   0  0  0  0  0  0  0  0  0  0  0  0
  121.4960  303.2300  172.8770 N   0  0  0  0  0  0  0  0  0  0  0  0
  120.9260  304.4520  173.3910 C   0  0  0  0  0  0  0  0  0  0  0  0
  118.4050  305.1480  173.4260 C   0  0  0  0  0  0  0  0  0  0  0  0
  116.5910  306.4200  174.3740 C   0  0  0  0  0  0  0  0  0  0  0  0
  116.5290  304.0220  174.4590 C   0  0  0  0  0  0  0  0  0  0  0  0
  117.7480  303.9760  173.7890 C   0  0  0  0  0  0  0  0  0  0  0  0
  121.3830  304.9600  174.3820 O   0  0  0  0  0  0  0  0  0  0  0  0
  123.2570  302.5720  175.0550 S   0  0  0  0  0  0  0  0  0  0  0  0
  130.0670  302.0940  178.0870 N   0  0  0  0  0  0  0  0  0  0  0  0
  131.1840  302.8500  178.2240 N   0  0  0  0  0  0  0  0  0  0  0  0
  131.6590  303.4210  177.1080 C   0  0  0  0  0  0  0  0  0  0  0  0
  132.8200  304.2550  177.0140 N   0  0  0  0  0  0  0  0  0  0  0  0
  132.6590  305.6620  177.1730 C   0  0  0  0  0  0  0  0  0  0  0  0
  130.4880  307.0240  176.4220 C   0  0  0  0  0  0  0  0  0  0  0  0
  130.5730  308.4100  176.4510 C   0  0  0  0  0  0  0  0  0  0  0  0
  129.8570  309.1670  175.5250 C   0  0  0  0  0  0  0  0  0  0  0  0
  129.0480  308.5330  174.5880 C   0  0  0  0  0  0  0  0  0  0  0  0
  128.9530  307.1510  174.5690 C   0  0  0  0  0  0  0  0  0  0  0  0
  129.6680  306.3930  175.4900 C   0  0  0  0  0  0  0  0  0  0  0  0
  133.6200  306.4000  177.1270 O   0  0  0  0  0  0  0  0  0  0  0  0
  130.5860  302.9490  175.8350 S   0  0  0  0  0  0  0  0  0  0  0  0
  120.0254  306.1602  172.4819 H   0  0  0  0  0  0  0  0  0  0  0  0
  119.5557  304.4928  171.8031 H   0  0  0  0  0  0  0  0  0  0  0  0
  118.3129  307.3058  173.4162 H   0  0  0  0  0  0  0  0  0  0  0  0
  114.9836  305.2928  175.2706 H   0  0  0  0  0  0  0  0  0  0  0  0
  131.2930  306.7535  178.3740 H   0  0  0  0  0  0  0  0  0  0  0  0
  130.6554  305.2308  177.4548 H   0  0  0  0  0  0  0  0  0  0  0  0
  125.9376  299.0095  176.5591 H   0  0  0  0  0  0  0  0  0  0  0  0
  127.4058  298.4998  175.7585 H   0  0  0  0  0  0  0  0  0  0  0  0
  127.0180  300.6289  177.9440 H   0  0  0  0  0  0  0  0  0  0  0  0
  128.3951  299.5430  177.7434 H   0  0  0  0  0  0  0  0  0  0  0  0
  128.8077  300.5577  174.6014 H   0  0  0  0  0  0  0  0  0  0  0  0
  127.9034  302.0746  174.6386 H   0  0  0  0  0  0  0  0  0  0  0  0
  126.3870  299.8610  174.2519 H   0  0  0  0  0  0  0  0  0  0  0  0
  125.5332  301.3417  176.7172 H   0  0  0  0  0  0  0  0  0  0  0  0
  121.0561  302.8153  172.0431 H   0  0  0  0  0  0  0  0  0  0  0  0
  116.1303  307.3925  174.6022 H   0  0  0  0  0  0  0  0  0  0  0  0
  116.0273  303.0900  174.7586 H   0  0  0  0  0  0  0  0  0  0  0  0
  118.1972  303.0024  173.5436 H   0  0  0  0  0  0  0  0  0  0  0  0
  133.7490  303.8474  176.8357 H   0  0  0  0  0  0  0  0  0  0  0  0
  131.2032  308.9087  177.2021 H   0  0  0  0  0  0  0  0  0  0  0  0
  129.9317  310.2644  175.5353 H   0  0  0  0  0  0  0  0  0  0  0  0
  128.4814  309.1312  173.8592 H   0  0  0  0  0  0  0  0  0  0  0  0
  128.3124  306.6536  173.8259 H   0  0  0  0  0  0  0  0  0  0  0  0
  129.5859  305.2961  175.4823 H   0  0  0  0  0  0  0  0  0  0  0  0
  2 17  1  0
  2 18  1  0
 15  1  2  0
 15 14  1  0
 16 17  1  0
 16  1  1  0
 17 22  2  0
 18  3  2  0
 18 21  1  0
  1 23  1  0
 14 13  2  0
  3 19  1  0
 21 20  2  0
 19  4  2  0
 20  4  1  0
 33 32  2  0
 33 34  1  0
 32 31  1  0
 13 23  1  0
 13 12  1  0
 10 11  1  0
 10  9  1  0
 11 12  1  0
 11  7  1  0
 34 29  2  0
 31 30  2  0
 36  5  1  0
 36 26  1  0
  7  8  1  0
  9  5  1  0
  9  8  1  0
 29 30  1  0
 29  6  1  0
  5 24  2  0
 27 26  1  0
 27 28  1  0
 26 25  2  0
 35 28  2  0
 28  6  1  0
 24 25  1  0
  2 37  1  0
  2 38  1  0
  3 39  1  0
  4 40  1  0
  6 41  1  0
  6 42  1  0
  7 43  1  0
  7 44  1  0
  8 45  1  0
  8 46  1  0
 10 47  1  0
 10 48  1  0
 11 49  1  0
 12 50  1  0
 16 51  1  0
 19 52  1  0
 20 53  1  0
 21 54  1  0
 27 55  1  0
 30 56  1  0
 31 57  1  0
 32 58  1  0
 33 59  1  0
 34 60  1  0
A    1
C10
A    2
C13
A    3
C15
A    4
C17
A    5
C22
A    6
C28
A    7
C01
A    8
C02
A    9
N03
A   10
C04
A   11
C05
A   12
N06
A   13
C07
A   14
N08
A   15
N09
A   16
N11
A   17
C12
A   18
C14
A   19
C16
A   20
C18
A   21
C19
A   22
O20
A   23
S21
A   24
N23
A   25
N24
A   26
C25
A   27
N26
A   28
C27
A   29
C29
A   30
C30
A   31
C31
A   32
C32
A   33
C33
A   34
C34
A   35
O35
A   36
S36
M  END
