5FI4_5XV_A_1102
     RDKit          3D

 42 44  0  0  0  0  0  0  0  0999 V2000
   14.0060  -22.1550  -16.2310 C   0  0  0  0  0  0  0  0  0  0  0  0
   15.1410  -22.7830  -15.5070 C   0  0  0  0  0  0  0  0  0  0  0  0
   16.0090  -23.5740  -16.2070 C   0  0  0  0  0  0  0  0  0  0  0  0
   15.3280  -22.4500  -14.0570 C   0  0  0  0  0  0  0  0  0  0  0  0
   17.1690  -26.1730  -20.7640 C   0  0  0  0  0  0  0  0  0  0  0  0
   17.2870  -26.8410  -22.0970 C   0  0  0  0  0  0  0  0  0  0  0  0
   16.4510  -22.8310  -12.0250 C   0  0  0  0  0  0  0  0  0  0  0  0
   15.8060  -21.7460  -11.4270 C   0  0  0  0  0  0  0  0  0  0  0  0
   14.6740  -21.3770  -13.4430 C   0  0  0  0  0  0  0  0  0  0  0  0
   17.8930  -24.7890  -11.6750 C   0  0  0  0  0  0  0  0  0  0  0  0
   17.2370  -25.9140  -10.8560 C   0  0  0  0  0  0  0  0  0  0  0  0
   19.4130  -24.7280  -11.3720 C   0  0  0  0  0  0  0  0  0  0  0  0
   15.7550  -23.8300  -17.4700 N   0  0  0  0  0  0  0  0  0  0  0  0
   14.7480  -23.3390  -18.1270 C   0  0  0  0  0  0  0  0  0  0  0  0
   13.8060  -22.3940  -17.5190 C   0  0  0  0  0  0  0  0  0  0  0  0
   16.4130  -24.6600  -18.2300 C   0  0  0  0  0  0  0  0  0  0  0  0
   15.8280  -24.6810  -19.4450 C   0  0  0  0  0  0  0  0  0  0  0  0
   14.7140  -23.7930  -19.2700 N   0  0  0  0  0  0  0  0  0  0  0  0
   16.1150  -25.3540  -20.5750 N   0  0  0  0  0  0  0  0  0  0  0  0
   18.0430  -26.4190  -19.9500 O   0  0  0  0  0  0  0  0  0  0  0  0
   16.2140  -23.1380  -13.3160 N   0  0  0  0  0  0  0  0  0  0  0  0
   14.9300  -21.0400  -12.1660 N   0  0  0  0  0  0  0  0  0  0  0  0
   15.9950  -21.4630  -10.1190 N   0  0  0  0  0  0  0  0  0  0  0  0
   17.2900  -25.6290   -9.5260 F   0  0  0  0  0  0  0  0  0  0  0  0
   15.9440  -26.1030  -11.2280 F   0  0  0  0  0  0  0  0  0  0  0  0
   17.9500  -27.0270  -11.1300 F   0  0  0  0  0  0  0  0  0  0  0  0
   17.3300  -23.5450  -11.2510 O   0  0  0  0  0  0  0  0  0  0  0  0
   13.3228  -21.4830  -15.6910 H   0  0  0  0  0  0  0  0  0  0  0  0
   16.9044  -23.9888  -15.7210 H   0  0  0  0  0  0  0  0  0  0  0  0
   17.4767  -27.9150  -21.9534 H   0  0  0  0  0  0  0  0  0  0  0  0
   16.3511  -26.7059  -22.6590 H   0  0  0  0  0  0  0  0  0  0  0  0
   18.1200  -26.3934  -22.6590 H   0  0  0  0  0  0  0  0  0  0  0  0
   13.9354  -20.7970  -14.0158 H   0  0  0  0  0  0  0  0  0  0  0  0
   17.7259  -24.9753  -12.7462 H   0  0  0  0  0  0  0  0  0  0  0  0
   19.5699  -24.7217  -10.2833 H   0  0  0  0  0  0  0  0  0  0  0  0
   19.9095  -25.6069  -11.8089 H   0  0  0  0  0  0  0  0  0  0  0  0
   19.8375  -23.8121  -11.8089 H   0  0  0  0  0  0  0  0  0  0  0  0
   12.9941  -21.9190  -18.0893 H   0  0  0  0  0  0  0  0  0  0  0  0
   17.2958  -25.2442  -17.9310 H   0  0  0  0  0  0  0  0  0  0  0  0
   15.4697  -25.2319  -21.3685 H   0  0  0  0  0  0  0  0  0  0  0  0
   15.5876  -22.0731   -9.3960 H   0  0  0  0  0  0  0  0  0  0  0  0
   16.5465  -20.6373   -9.8452 H   0  0  0  0  0  0  0  0  0  0  0  0
  6  5  1  0
  5 19  1  0
  5 20  2  0
 19 17  1  0
 17 18  1  0
 17 16  2  0
 18 14  2  0
 16 13  1  0
 14 15  1  0
 14 13  1  0
 15  1  2  0
 13  3  1  0
  1  2  1  0
  3  2  2  0
  2  4  1  0
  4  9  2  0
  4 21  1  0
  9 22  1  0
 21  7  2  0
 22  8  2  0
  7  8  1  0
  7 27  1  0
 10 12  1  0
 10 27  1  0
 10 11  1  0
  8 23  1  0
 25 11  1  0
 26 11  1  0
 11 24  1  0
  1 28  1  0
  3 29  1  0
  6 30  1  0
  6 31  1  0
  6 32  1  0
  9 33  1  0
 10 34  1  0
 12 35  1  0
 12 36  1  0
 12 37  1  0
 15 38  1  0
 16 39  1  0
 19 40  1  0
 23 41  1  0
 23 42  1  0
A    1
C1
A    2
C2
A    3
C3
A    4
C11
A    5
C12
A    6
C13
A    7
C16
A    8
C17
A    9
C19
A   10
C21
A   11
C22
A   12
C23
A   13
N4
A   14
C5
A   15
C6
A   16
C7
A   17
C8
A   18
N9
A   19
N10
A   20
O14
A   21
N15
A   22
N18
A   23
N20
A   24
F24
A   25
F25
A   26
F26
A   27
O27
M  END
