5FI7_5XZ_A_601
     RDKit          3D

 59 63  0  0  0  0  0  0  0  0999 V2000
   28.9420  -47.0620   -0.4480 C   0  0  0  0  0  0  0  0  0  0  0  0
   33.7730  -43.3680    0.5870 C   0  0  0  0  0  0  0  0  0  0  0  0
   36.5250  -40.7220    1.2180 C   0  0  0  0  0  0  0  0  0  0  0  0
   37.5740  -41.2700    0.2550 C   0  0  0  0  0  0  0  0  0  0  0  0
   37.9410  -42.6140    0.2910 C   0  0  0  0  0  0  0  0  0  0  0  0
   39.4990  -42.2830   -1.5000 C   0  0  0  0  0  0  0  0  0  0  0  0
   38.1780  -40.4370   -0.6780 C   0  0  0  0  0  0  0  0  0  0  0  0
   21.4850  -41.6060   -3.5240 C   0  0  0  0  0  0  0  0  0  0  0  0
   22.8710  -42.1020   -3.1650 C   0  0  0  0  0  0  0  0  0  0  0  0
   23.1490  -43.4940   -3.2760 N   0  0  0  0  0  0  0  0  0  0  0  0
   24.4170  -44.0710   -2.9620 C   0  0  0  0  0  0  0  0  0  0  0  0
   25.2500  -44.7200   -3.7990 N   0  0  0  0  0  0  0  0  0  0  0  0
   26.3960  -45.1800   -3.2580 N   0  0  0  0  0  0  0  0  0  0  0  0
   26.5820  -44.9460   -1.9480 C   0  0  0  0  0  0  0  0  0  0  0  0
   27.6870  -45.3330   -1.1430 N   0  0  0  0  0  0  0  0  0  0  0  0
   27.6330  -46.2870   -0.2570 C   0  0  0  0  0  0  0  0  0  0  0  0
   29.9440  -45.9360   -0.7780 C   0  0  0  0  0  0  0  0  0  0  0  0
   29.2520  -45.1240   -1.5180 C   0  0  0  0  0  0  0  0  0  0  0  0
   30.3600  -45.3180    0.5140 O   0  0  0  0  0  0  0  0  0  0  0  0
   31.5820  -44.6330    0.3820 C   0  0  0  0  0  0  0  0  0  0  0  0
   32.1740  -44.2760   -0.7660 N   0  0  0  0  0  0  0  0  0  0  0  0
   33.3330  -43.6140   -0.6550 N   0  0  0  0  0  0  0  0  0  0  0  0
   34.9900  -42.6980    0.8850 N   0  0  0  0  0  0  0  0  0  0  0  0
   35.1480  -41.2840    0.9210 C   0  0  0  0  0  0  0  0  0  0  0  0
   38.8920  -43.1240   -0.5810 C   0  0  0  0  0  0  0  0  0  0  0  0
   39.1370  -40.9430   -1.5520 C   0  0  0  0  0  0  0  0  0  0  0  0
   34.2070  -40.5420    0.7270 O   0  0  0  0  0  0  0  0  0  0  0  0
   32.6010  -44.0550    1.6480 S   0  0  0  0  0  0  0  0  0  0  0  0
   25.1880  -44.0920   -1.4240 S   0  0  0  0  0  0  0  0  0  0  0  0
   23.7310  -41.3350   -2.7910 O   0  0  0  0  0  0  0  0  0  0  0  0
   21.2340  -40.1220   -3.3320 C   0  0  0  0  0  0  0  0  0  0  0  0
   20.2940  -39.7120   -2.3950 C   0  0  0  0  0  0  0  0  0  0  0  0
   20.0380  -38.3600   -2.2090 C   0  0  0  0  0  0  0  0  0  0  0  0
   20.7160  -37.4160   -2.9640 C   0  0  0  0  0  0  0  0  0  0  0  0
   21.6510  -37.8190   -3.9050 C   0  0  0  0  0  0  0  0  0  0  0  0
   21.9080  -39.1710   -4.0910 C   0  0  0  0  0  0  0  0  0  0  0  0
   29.2283  -47.5935    0.4715 H   0  0  0  0  0  0  0  0  0  0  0  0
   28.8841  -47.8415   -1.2219 H   0  0  0  0  0  0  0  0  0  0  0  0
   36.8074  -40.9934    2.2459 H   0  0  0  0  0  0  0  0  0  0  0  0
   36.4844  -39.6294    1.0977 H   0  0  0  0  0  0  0  0  0  0  0  0
   37.4677  -43.2831    1.0247 H   0  0  0  0  0  0  0  0  0  0  0  0
   40.2646  -42.6751   -2.1857 H   0  0  0  0  0  0  0  0  0  0  0  0
   37.8980  -39.3743   -0.7267 H   0  0  0  0  0  0  0  0  0  0  0  0
   21.3082  -41.8419   -4.5837 H   0  0  0  0  0  0  0  0  0  0  0  0
   20.8013  -42.1128   -2.8271 H   0  0  0  0  0  0  0  0  0  0  0  0
   22.3959  -44.1176   -3.5998 H   0  0  0  0  0  0  0  0  0  0  0  0
   26.7654  -46.9382   -0.4391 H   0  0  0  0  0  0  0  0  0  0  0  0
   27.5206  -45.9013    0.7670 H   0  0  0  0  0  0  0  0  0  0  0  0
   30.8617  -46.2509   -1.2963 H   0  0  0  0  0  0  0  0  0  0  0  0
   29.4168  -45.3525   -2.5813 H   0  0  0  0  0  0  0  0  0  0  0  0
   29.5569  -44.0824   -1.3387 H   0  0  0  0  0  0  0  0  0  0  0  0
   35.8170  -43.2770    1.0896 H   0  0  0  0  0  0  0  0  0  0  0  0
   39.1625  -44.1895   -0.5431 H   0  0  0  0  0  0  0  0  0  0  0  0
   39.6109  -40.2771   -2.2883 H   0  0  0  0  0  0  0  0  0  0  0  0
   19.7511  -40.4603   -1.7989 H   0  0  0  0  0  0  0  0  0  0  0  0
   19.2971  -38.0382   -1.4624 H   0  0  0  0  0  0  0  0  0  0  0  0
   20.5119  -36.3452   -2.8164 H   0  0  0  0  0  0  0  0  0  0  0  0
   22.1886  -37.0688   -4.5035 H   0  0  0  0  0  0  0  0  0  0  0  0
   22.6467  -39.4908   -4.8407 H   0  0  0  0  0  0  0  0  0  0  0  0
 12 13  1  0
 12 11  2  0
 36 35  2  0
 36 31  1  0
 13 14  2  0
 35 34  1  0
  8  9  1  0
  8 31  1  0
 30  9  2  0
  9 10  1  0
 10 11  1  0
 31 32  2  0
 11 29  1  0
 16  1  1  0
 16 15  1  0
 34 33  2  0
 14 15  1  0
 14 29  1  0
  1 17  1  0
 32 33  1  0
 15 18  1  0
 25  5  2  0
 25  6  1  0
  5  4  1  0
  6 26  2  0
 17 18  1  0
 17 19  1  0
 21 22  1  0
 21 20  2  0
 22  2  2  0
 27 24  2  0
 20 19  1  0
 20 28  1  0
  4  3  1  0
  4  7  2  0
 26  7  1  0
  2 23  1  0
  2 28  1  0
 24  3  1  0
 24 23  1  0
  1 37  1  0
  1 38  1  0
  3 39  1  0
  3 40  1  0
  5 41  1  0
  6 42  1  0
  7 43  1  0
  8 44  1  0
  8 45  1  0
 10 46  1  0
 16 47  1  0
 16 48  1  0
 17 49  1  0
 18 50  1  0
 18 51  1  0
 23 52  1  0
 25 53  1  0
 26 54  1  0
 32 55  1  0
 33 56  1  0
 34 57  1  0
 35 58  1  0
 36 59  1  0
A    1
C10
A    2
C17
A    3
C20
A    4
C21
A    5
C22
A    6
C24
A    7
C26
A    8
C01
A    9
C02
A   10
N03
A   11
C04
A   12
N05
A   13
N06
A   14
C07
A   15
N08
A   16
C09
A   17
C11
A   18
C12
A   19
O13
A   20
C14
A   21
N15
A   22
N16
A   23
N18
A   24
C19
A   25
C23
A   26
C25
A   27
O27
A   28
S28
A   29
S29
A   30
O30
A   31
C31
A   32
C32
A   33
C33
A   34
C34
A   35
C35
A   36
C36
M  END
