5FI8_5Y5_A_1001
     RDKit          3D

 44 47  0  0  0  0  0  0  0  0999 V2000
  -38.1070  103.8000  -14.5740 C   0  0  0  0  0  0  0  0  0  0  0  0
  -37.2550  102.8570  -13.7340 C   0  0  0  0  0  0  0  0  0  0  0  0
  -36.1230  103.5870  -13.0610 C   0  0  0  0  0  0  0  0  0  0  0  0
  -36.1140  105.0680  -12.9460 C   0  0  0  0  0  0  0  0  0  0  0  0
  -37.2390  105.9070  -13.5110 C   0  0  0  0  0  0  0  0  0  0  0  0
  -40.0510  103.3430  -16.0580 C   0  0  0  0  0  0  0  0  0  0  0  0
  -39.6790  104.2540  -17.0510 C   0  0  0  0  0  0  0  0  0  0  0  0
  -40.0880  105.3900  -19.2560 C   0  0  0  0  0  0  0  0  0  0  0  0
  -34.0130  103.5230  -11.9040 C   0  0  0  0  0  0  0  0  0  0  0  0
  -33.9990  104.9100  -11.7990 C   0  0  0  0  0  0  0  0  0  0  0  0
  -35.0380  105.6790  -12.3170 C   0  0  0  0  0  0  0  0  0  0  0  0
  -45.1590  101.0360  -15.4540 C   0  0  0  0  0  0  0  0  0  0  0  0
  -43.7970  100.3770  -15.5780 C   0  0  0  0  0  0  0  0  0  0  0  0
  -42.8140  101.3980  -16.0580 C   0  0  0  0  0  0  0  0  0  0  0  0
  -41.9200  102.8450  -17.3290 C   0  0  0  0  0  0  0  0  0  0  0  0
  -38.4640  105.0450  -13.7800 C   0  0  0  0  0  0  0  0  0  0  0  0
  -32.5640  102.5390  -11.1870 Br  0  0  0  0  0  0  0  0  0  0  0  0
  -35.0650  102.8610  -12.5300 C   0  0  0  0  0  0  0  0  0  0  0  0
  -39.3380  103.1210  -14.9250 N   0  0  0  0  0  0  0  0  0  0  0  0
  -40.4810  104.4190  -18.1810 C   0  0  0  0  0  0  0  0  0  0  0  0
  -41.1820  102.6640  -16.2430 N   0  0  0  0  0  0  0  0  0  0  0  0
  -41.6140  103.7050  -18.3200 N   0  0  0  0  0  0  0  0  0  0  0  0
  -41.7060  101.7220  -15.3630 N   0  0  0  0  0  0  0  0  0  0  0  0
  -42.9880  102.0280  -17.2430 N   0  0  0  0  0  0  0  0  0  0  0  0
  -43.4390   99.8900  -14.4050 F   0  0  0  0  0  0  0  0  0  0  0  0
  -43.8600   99.4060  -16.4680 F   0  0  0  0  0  0  0  0  0  0  0  0
  -37.5403  104.0892  -15.4714 H   0  0  0  0  0  0  0  0  0  0  0  0
  -37.8888  102.3929  -12.9640 H   0  0  0  0  0  0  0  0  0  0  0  0
  -36.8258  102.0942  -14.4002 H   0  0  0  0  0  0  0  0  0  0  0  0
  -36.9080  106.3694  -14.4526 H   0  0  0  0  0  0  0  0  0  0  0  0
  -37.5048  106.6843  -12.7795 H   0  0  0  0  0  0  0  0  0  0  0  0
  -38.7547  104.8403  -16.9417 H   0  0  0  0  0  0  0  0  0  0  0  0
  -39.7133  106.3157  -18.7948 H   0  0  0  0  0  0  0  0  0  0  0  0
  -39.2988  104.9460  -19.8805 H   0  0  0  0  0  0  0  0  0  0  0  0
  -40.9639  105.6199  -19.8805 H   0  0  0  0  0  0  0  0  0  0  0  0
  -33.1544  105.4069  -11.2992 H   0  0  0  0  0  0  0  0  0  0  0  0
  -35.0059  106.7749  -12.2274 H   0  0  0  0  0  0  0  0  0  0  0  0
  -45.4117  101.1583  -14.3904 H   0  0  0  0  0  0  0  0  0  0  0  0
  -45.1349  102.0221  -15.9409 H   0  0  0  0  0  0  0  0  0  0  0  0
  -45.9173  100.4051  -15.9409 H   0  0  0  0  0  0  0  0  0  0  0  0
  -39.1972  105.6343  -14.3503 H   0  0  0  0  0  0  0  0  0  0  0  0
  -38.8819  104.7288  -12.8128 H   0  0  0  0  0  0  0  0  0  0  0  0
  -35.0584  101.7635  -12.6041 H   0  0  0  0  0  0  0  0  0  0  0  0
  -39.6988  102.4172  -14.2652 H   0  0  0  0  0  0  0  0  0  0  0  0
  8 20  1  0
 22 20  2  0
 22 15  1  0
 20  7  1  0
 15 24  2  0
 15 21  1  0
 24 14  1  0
  7  6  2  0
 26 13  1  0
 21  6  1  0
 21 23  1  0
  6 19  1  0
 14 13  1  0
 14 23  2  0
 13 12  1  0
 13 25  1  0
 19  1  1  0
  1 16  1  0
  1  2  1  0
 16  5  1  0
  2  3  1  0
  5  4  1  0
  3  4  2  0
  3 18  1  0
  4 11  1  0
 18  9  2  0
 11 10  2  0
  9 10  1  0
  9 17  1  0
  1 27  1  0
  2 28  1  0
  2 29  1  0
  5 30  1  0
  5 31  1  0
  7 32  1  0
  8 33  1  0
  8 34  1  0
  8 35  1  0
 10 36  1  0
 11 37  1  0
 12 38  1  0
 12 39  1  0
 12 40  1  0
 16 41  1  0
 16 42  1  0
 18 43  1  0
 19 44  1  0
A    1
C2
A    2
C3
A    3
C4
A    4
C5
A    5
C6
A    6
C7
A    7
C8
A    8
C10
A    9
C17
A   10
C16
A   11
C15
A   12
C14
A   13
C13
A   14
C12
A   15
C11
A   16
C1
A   17
BR1
A   18
C18
A   19
N1
A   20
C9
A   21
N2
A   22
N5
A   23
N3
A   24
N4
A   25
F1
A   26
F2
M  END
