5FIC_6E0_A_714
     RDKit          3D

 61 60  0  0  0  0  0  0  0  0999 V2000
  -61.9720   -0.2730  -68.0420 C   0  0  0  0  0  0  0  0  0  0  0  0
  -62.1480   -1.0460  -69.3490 C   0  0  0  0  0  0  0  0  0  0  0  0
  -62.5500   -0.1370  -70.5050 C   0  0  0  0  0  0  0  0  0  0  0  0
  -62.9010   -0.8880  -71.7770 C   0  0  0  0  0  0  0  0  0  0  0  0
  -51.2820   -3.8420  -69.7830 C   0  0  0  0  0  0  0  0  0  0  0  0
  -50.6350   -2.9040  -68.7710 C   0  0  0  0  0  0  0  0  0  0  0  0
  -50.4450   -3.5710  -67.4010 C   0  0  0  0  0  0  0  0  0  0  0  0
  -50.7910   -2.6610  -66.2200 C   0  0  0  0  0  0  0  0  0  0  0  0
  -52.2170   -2.1100  -66.3090 C   0  0  0  0  0  0  0  0  0  0  0  0
  -52.8670   -1.8250  -64.9550 C   0  0  0  0  0  0  0  0  0  0  0  0
  -54.1510   -1.0070  -65.1120 C   0  0  0  0  0  0  0  0  0  0  0  0
  -55.3370   -1.6290  -64.3740 C   0  0  0  0  0  0  0  0  0  0  0  0
  -56.5210   -0.6690  -64.2400 C   0  0  0  0  0  0  0  0  0  0  0  0
  -57.8160   -1.2780  -64.7780 C   0  0  0  0  0  0  0  0  0  0  0  0
  -59.0710   -0.6460  -64.1760 C   0  0  0  0  0  0  0  0  0  0  0  0
  -60.3390   -1.3290  -64.6920 C   0  0  0  0  0  0  0  0  0  0  0  0
  -61.1500   -0.4470  -65.6430 C   0  0  0  0  0  0  0  0  0  0  0  0
  -61.4890   -1.1960  -66.9280 C   0  0  0  0  0  0  0  0  0  0  0  0
  -63.9240    0.1910  -72.9050 P   0  0  0  0  0  0  0  0  0  0  0  0
  -65.3130    0.2150  -72.4500 O   0  0  0  0  0  0  0  0  0  0  0  0
  -63.8390   -0.4070  -74.4400 O   0  0  0  0  0  0  0  0  0  0  0  0
  -63.3240    1.7290  -72.8730 O   0  0  0  0  0  0  0  0  0  0  0  0
  -61.2328    0.5274  -68.1931 H   0  0  0  0  0  0  0  0  0  0  0  0
  -62.9434    0.1531  -67.7507 H   0  0  0  0  0  0  0  0  0  0  0  0
  -62.9297   -1.8070  -69.2082 H   0  0  0  0  0  0  0  0  0  0  0  0
  -61.1819   -1.5072  -69.6018 H   0  0  0  0  0  0  0  0  0  0  0  0
  -61.7113    0.5409  -70.7219 H   0  0  0  0  0  0  0  0  0  0  0  0
  -63.4549    0.4033  -70.1900 H   0  0  0  0  0  0  0  0  0  0  0  0
  -63.4750   -1.7902  -71.5191 H   0  0  0  0  0  0  0  0  0  0  0  0
  -61.9719   -1.1678  -72.2952 H   0  0  0  0  0  0  0  0  0  0  0  0
  -51.8287   -4.6346  -69.2510 H   0  0  0  0  0  0  0  0  0  0  0  0
  -51.9815   -3.2743  -70.4142 H   0  0  0  0  0  0  0  0  0  0  0  0
  -50.5028   -4.2942  -70.4142 H   0  0  0  0  0  0  0  0  0  0  0  0
  -49.6514   -2.5941  -69.1536 H   0  0  0  0  0  0  0  0  0  0  0  0
  -51.3025   -2.0401  -68.6364 H   0  0  0  0  0  0  0  0  0  0  0  0
  -51.0910   -4.4601  -67.3551 H   0  0  0  0  0  0  0  0  0  0  0  0
  -49.3779   -3.8222  -67.3112 H   0  0  0  0  0  0  0  0  0  0  0  0
  -50.6920   -3.2375  -65.2884 H   0  0  0  0  0  0  0  0  0  0  0  0
  -50.0984   -1.8067  -66.2393 H   0  0  0  0  0  0  0  0  0  0  0  0
  -52.1885   -1.1714  -66.8818 H   0  0  0  0  0  0  0  0  0  0  0  0
  -52.8256   -2.8880  -66.7931 H   0  0  0  0  0  0  0  0  0  0  0  0
  -53.1090   -2.7803  -64.4662 H   0  0  0  0  0  0  0  0  0  0  0  0
  -52.1586   -1.2433  -64.3470 H   0  0  0  0  0  0  0  0  0  0  0  0
  -53.9769    0.0027  -64.7117 H   0  0  0  0  0  0  0  0  0  0  0  0
  -54.4010   -0.9806  -66.1829 H   0  0  0  0  0  0  0  0  0  0  0  0
  -55.6677   -2.5199  -64.9280 H   0  0  0  0  0  0  0  0  0  0  0  0
  -54.9993   -1.8825  -63.3583 H   0  0  0  0  0  0  0  0  0  0  0  0
  -56.2993    0.2491  -64.8038 H   0  0  0  0  0  0  0  0  0  0  0  0
  -56.6650   -0.4544  -63.1708 H   0  0  0  0  0  0  0  0  0  0  0  0
  -57.8421   -1.1378  -65.8687 H   0  0  0  0  0  0  0  0  0  0  0  0
  -57.8186   -2.3421  -64.4994 H   0  0  0  0  0  0  0  0  0  0  0  0
  -59.0315   -0.7437  -63.0811 H   0  0  0  0  0  0  0  0  0  0  0  0
  -59.1023    0.4132  -64.4711 H   0  0  0  0  0  0  0  0  0  0  0  0
  -60.9717   -1.5896  -63.8307 H   0  0  0  0  0  0  0  0  0  0  0  0
  -60.0258   -2.2195  -65.2568 H   0  0  0  0  0  0  0  0  0  0  0  0
  -60.5617    0.4482  -65.8930 H   0  0  0  0  0  0  0  0  0  0  0  0
  -62.0887   -0.1644  -65.1441 H   0  0  0  0  0  0  0  0  0  0  0  0
  -62.2812   -1.9273  -66.7097 H   0  0  0  0  0  0  0  0  0  0  0  0
  -60.5677   -1.6838  -67.2791 H   0  0  0  0  0  0  0  0  0  0  0  0
  -63.6998   -1.3865  -74.4053 H   0  0  0  0  0  0  0  0  0  0  0  0
  -63.2107    2.0195  -71.9334 H   0  0  0  0  0  0  0  0  0  0  0  0
 21 19  1  0
 19 22  1  0
 19 20  2  0
 19  4  1  0
  4  3  1  0
  3  2  1  0
  5  6  1  0
  2  1  1  0
  6  7  1  0
  1 18  1  0
  7  8  1  0
 18 17  1  0
  9  8  1  0
  9 10  1  0
 17 16  1  0
 11 10  1  0
 11 12  1  0
 14 13  1  0
 14 15  1  0
 16 15  1  0
 12 13  1  0
  1 23  1  0
  1 24  1  0
  2 25  1  0
  2 26  1  0
  3 27  1  0
  3 28  1  0
  4 29  1  0
  4 30  1  0
  5 31  1  0
  5 32  1  0
  5 33  1  0
  6 34  1  0
  6 35  1  0
  7 36  1  0
  7 37  1  0
  8 38  1  0
  8 39  1  0
  9 40  1  0
  9 41  1  0
 10 42  1  0
 10 43  1  0
 11 44  1  0
 11 45  1  0
 12 46  1  0
 12 47  1  0
 13 48  1  0
 13 49  1  0
 14 50  1  0
 14 51  1  0
 15 52  1  0
 15 53  1  0
 16 54  1  0
 16 55  1  0
 17 56  1  0
 17 57  1  0
 18 58  1  0
 18 59  1  0
 21 60  1  0
 22 61  1  0
A    1
C15
A    2
C16
A    3
C17
A    4
C18
A    5
C01
A    6
C02
A    7
C03
A    8
C04
A    9
C05
A   10
C06
A   11
C07
A   12
C08
A   13
C09
A   14
C10
A   15
C11
A   16
C12
A   17
C13
A   18
C14
A   19
P19
A   20
O20
A   21
O21
A   22
O22
M  END
