5FKY_2J4_A_1717
     RDKit          3D

 26 27  0  0  0  0  0  0  0  0999 V2000
    4.7550  -12.8640    0.6710 O   0  0  0  0  0  0  0  0  0  0  0  0
    4.2460  -11.6670    1.2490 C   0  0  0  0  0  0  0  0  0  0  0  0
    5.3120  -11.2060    2.2890 C   0  0  0  0  0  0  0  0  0  0  0  0
    5.5020  -12.2130    3.2630 O   0  0  0  0  0  0  0  0  0  0  0  0
    6.6890  -10.8830    1.6130 C   0  0  0  0  0  0  0  0  0  0  0  0
    6.4950   -9.8770    0.6480 O   0  0  0  0  0  0  0  0  0  0  0  0
    7.6430  -10.3280    2.6880 C   0  0  0  0  0  0  0  0  0  0  0  0
    8.8740   -9.8750    2.1020 O   0  0  0  0  0  0  0  0  0  0  0  0
    7.7990  -11.3950    3.7900 C   0  0  0  0  0  0  0  0  0  0  0  0
    6.4110  -11.9350    4.3080 C   0  0  0  0  0  0  0  0  0  0  0  0
    5.9610  -10.6590    5.5050 S   0  0  0  0  0  0  0  0  0  0  0  0
    8.3780  -10.8380    5.0340 N   0  0  0  0  0  0  0  0  0  0  0  0
    7.5760  -10.3240    5.9960 C   0  0  0  0  0  0  0  0  0  0  0  0
    8.0210   -9.6390    7.1940 N   0  0  0  0  0  0  0  0  0  0  0  0
    5.0213  -13.4903    1.3900 H   0  0  0  0  0  0  0  0  0  0  0  0
    4.1086  -10.8972    0.4754 H   0  0  0  0  0  0  0  0  0  0  0  0
    3.2666  -11.8322    1.7217 H   0  0  0  0  0  0  0  0  0  0  0  0
    4.9345  -10.2858    2.7588 H   0  0  0  0  0  0  0  0  0  0  0  0
    7.1037  -11.7906    1.1500 H   0  0  0  0  0  0  0  0  0  0  0  0
    6.3283   -9.0127    1.1012 H   0  0  0  0  0  0  0  0  0  0  0  0
    7.2290   -9.4277    3.1656 H   0  0  0  0  0  0  0  0  0  0  0  0
    9.5141   -9.6395    2.8196 H   0  0  0  0  0  0  0  0  0  0  0  0
    8.4236  -12.1627    3.3099 H   0  0  0  0  0  0  0  0  0  0  0  0
    6.4254  -12.9281    4.7808 H   0  0  0  0  0  0  0  0  0  0  0  0
    7.7776  -10.0137    8.1220 H   0  0  0  0  0  0  0  0  0  0  0  0
    8.5805   -8.7777    7.1170 H   0  0  0  0  0  0  0  0  0  0  0  0
  1  2  1  0
  2  3  1  0
  3  4  1  0
  3  5  1  0
  4 10  1  0
  5  6  1  0
  5  7  1  0
  7  8  1  0
  7  9  1  0
  9 10  1  0
  9 12  1  0
 10 11  1  0
 11 13  1  0
 12 13  2  0
 14 13  1  0
  1 15  1  0
  2 16  1  0
  2 17  1  0
  3 18  1  0
  5 19  1  0
  6 20  1  0
  7 21  1  0
  8 22  1  0
  9 23  1  0
 10 24  1  0
 14 25  1  0
 14 26  1  0
A    1
O6
A    2
C6
A    3
C5
A    4
O5
A    5
C4
A    6
O4
A    7
C3
A    8
O3
A    9
C2
A   10
C1
A   11
S1
A   12
N2
A   13
C7
A   14
N1
M  END
