4BF1_9FK_A_271
     RDKit          3D

 36 39  0  0  0  0  0  0  0  0999 V2000
   -7.6010    0.8800   16.9280 O   0  0  0  0  0  0  0  0  0  0  0  0
   -6.1270    0.8910   16.9860 S   0  0  0  0  0  0  0  0  0  0  0  0
   -5.4990    1.0010   18.2510 O   0  0  0  0  0  0  0  0  0  0  0  0
   -5.5400   -0.4170   16.2370 N   0  0  0  0  0  0  0  0  0  0  0  0
   -5.7160    2.3600   16.1880 C   0  0  0  0  0  0  0  0  0  0  0  0
   -4.1700    2.7740   15.5350 S   0  0  0  0  0  0  0  0  0  0  0  0
   -4.6440    4.2940   15.0120 C   0  0  0  0  0  0  0  0  0  0  0  0
   -5.9930    4.5040   15.2910 C   0  0  0  0  0  0  0  0  0  0  0  0
   -6.6210    3.4210   15.8850 C   0  0  0  0  0  0  0  0  0  0  0  0
   -3.8030    5.2990   14.3490 C   0  0  0  0  0  0  0  0  0  0  0  0
   -2.4330    5.2110   14.1480 C   0  0  0  0  0  0  0  0  0  0  0  0
   -2.1700    6.4300   13.5980 N   0  0  0  0  0  0  0  0  0  0  0  0
   -3.2820    7.2370   13.4820 N   0  0  0  0  0  0  0  0  0  0  0  0
   -4.3310    6.5160   13.9870 N   0  0  0  0  0  0  0  0  0  0  0  0
   -0.9730    6.8740   13.1380 C   0  0  0  0  0  0  0  0  0  0  0  0
   -0.3180    6.3340   12.0690 C   0  0  0  0  0  0  0  0  0  0  0  0
    0.9290    6.7310   11.6180 C   0  0  0  0  0  0  0  0  0  0  0  0
    1.5650    7.8390   12.1880 C   0  0  0  0  0  0  0  0  0  0  0  0
    0.8930    8.5410   13.1920 C   0  0  0  0  0  0  0  0  0  0  0  0
   -0.3740    8.0780   13.7480 C   0  0  0  0  0  0  0  0  0  0  0  0
    1.4720    9.6460   13.7680 C   0  0  0  0  0  0  0  0  0  0  0  0
    0.8790   10.3110   14.8390 C   0  0  0  0  0  0  0  0  0  0  0  0
   -0.3560    9.8880   15.3250 C   0  0  0  0  0  0  0  0  0  0  0  0
   -0.9760    8.7660   14.7930 C   0  0  0  0  0  0  0  0  0  0  0  0
   -5.2313   -1.1049   16.9387 H   0  0  0  0  0  0  0  0  0  0  0  0
   -6.2747   -0.8338   15.6477 H   0  0  0  0  0  0  0  0  0  0  0  0
   -6.5130    5.4455   15.0603 H   0  0  0  0  0  0  0  0  0  0  0  0
   -7.6992    3.3832   16.0995 H   0  0  0  0  0  0  0  0  0  0  0  0
   -1.7454    4.3821   14.3719 H   0  0  0  0  0  0  0  0  0  0  0  0
   -0.8197    5.5208   11.5241 H   0  0  0  0  0  0  0  0  0  0  0  0
    1.4218    6.1730   10.8082 H   0  0  0  0  0  0  0  0  0  0  0  0
    2.5665    8.1490   11.8550 H   0  0  0  0  0  0  0  0  0  0  0  0
    2.4297   10.0156   13.3728 H   0  0  0  0  0  0  0  0  0  0  0  0
    1.3864   11.1707   15.3011 H   0  0  0  0  0  0  0  0  0  0  0  0
   -0.8437   10.4476   16.1368 H   0  0  0  0  0  0  0  0  0  0  0  0
   -1.9399    8.4234   15.1974 H   0  0  0  0  0  0  0  0  0  0  0  0
  1  2  2  0
  2  3  2  0
  2  4  1  0
  2  5  1  0
  5  6  1  0
  5  9  2  0
  6  7  1  0
  7  8  2  0
  7 10  1  0
  8  9  1  0
 10 11  2  0
 10 14  1  0
 11 12  1  0
 12 13  1  0
 12 15  1  0
 13 14  2  0
 15 16  2  0
 15 20  1  0
 16 17  1  0
 17 18  2  0
 18 19  1  0
 19 20  2  0
 19 21  1  0
 20 24  1  0
 21 22  2  0
 22 23  1  0
 23 24  2  0
  4 25  1  0
  4 26  1  0
  8 27  1  0
  9 28  1  0
 11 29  1  0
 16 30  1  0
 17 31  1  0
 18 32  1  0
 21 33  1  0
 22 34  1  0
 23 35  1  0
 24 36  1  0
A    1
O22
A    2
S21
A    3
O23
A    4
N24
A    5
C19
A    6
S20
A    7
C16
A    8
C17
A    9
C18
A   10
C14
A   11
C15
A   12
N11
A   13
N12
A   14
N13
A   15
C10
A   16
C9
A   17
C8
A   18
C7
A   19
C4
A   20
C3
A   21
C5
A   22
C6
A   23
C1
A   24
C2
M  END
