5FL6_Y0R_A_268
     RDKit          3D

 33 35  0  0  0  0  0  0  0  0999 V2000
  -27.3540   -5.2740   -1.6650 S   0  0  0  0  0  0  0  0  0  0  0  0
  -27.3980   -6.5030   -0.6130 N   0  0  0  0  0  0  0  0  0  0  0  0
  -27.5290   -5.7810   -3.0210 O   0  0  0  0  0  0  0  0  0  0  0  0
  -26.0730   -4.6350   -1.6180 O   0  0  0  0  0  0  0  0  0  0  0  0
  -28.6490   -4.2380   -1.4650 C   0  0  0  0  0  0  0  0  0  0  0  0
  -28.4520   -2.5230   -1.5250 S   0  0  0  0  0  0  0  0  0  0  0  0
  -30.1610   -2.2740   -1.3630 C   0  0  0  0  0  0  0  0  0  0  0  0
  -30.8760   -3.4780   -1.2960 C   0  0  0  0  0  0  0  0  0  0  0  0
  -30.0070   -4.6090   -1.3760 C   0  0  0  0  0  0  0  0  0  0  0  0
  -30.6780   -0.8670   -1.3500 C   0  0  0  0  0  0  0  0  0  0  0  0
  -31.9960   -0.4810   -1.5590 C   0  0  0  0  0  0  0  0  0  0  0  0
  -31.9000    0.8630   -1.4920 N   0  0  0  0  0  0  0  0  0  0  0  0
  -30.5810    1.3270   -1.2870 N   0  0  0  0  0  0  0  0  0  0  0  0
  -29.8010    0.1690   -1.2190 N   0  0  0  0  0  0  0  0  0  0  0  0
  -36.0340    4.8250   -1.9380 C   0  0  0  0  0  0  0  0  0  0  0  0
  -32.9150    1.7540   -1.6170 C   0  0  0  0  0  0  0  0  0  0  0  0
  -34.0460    1.5740   -2.4310 C   0  0  0  0  0  0  0  0  0  0  0  0
  -35.0580    2.5390   -2.5490 C   0  0  0  0  0  0  0  0  0  0  0  0
  -34.9690    3.7550   -1.8570 C   0  0  0  0  0  0  0  0  0  0  0  0
  -33.8560    3.9600   -1.0430 C   0  0  0  0  0  0  0  0  0  0  0  0
  -32.8650    2.9830   -0.9350 C   0  0  0  0  0  0  0  0  0  0  0  0
  -27.3847   -6.1329    0.3481 H   0  0  0  0  0  0  0  0  0  0  0  0
  -28.2591   -7.0491   -0.7588 H   0  0  0  0  0  0  0  0  0  0  0  0
  -31.9693   -3.5436   -1.1945 H   0  0  0  0  0  0  0  0  0  0  0  0
  -30.3574   -5.6517   -1.3690 H   0  0  0  0  0  0  0  0  0  0  0  0
  -32.8840   -1.1064   -1.7332 H   0  0  0  0  0  0  0  0  0  0  0  0
  -36.3315    5.1239   -0.9220 H   0  0  0  0  0  0  0  0  0  0  0  0
  -35.6361    5.6984   -2.4754 H   0  0  0  0  0  0  0  0  0  0  0  0
  -36.9093    4.4312   -2.4754 H   0  0  0  0  0  0  0  0  0  0  0  0
  -34.1422    0.6373   -2.9997 H   0  0  0  0  0  0  0  0  0  0  0  0
  -35.9291    2.3395   -3.1904 H   0  0  0  0  0  0  0  0  0  0  0  0
  -33.7579    4.9003   -0.4807 H   0  0  0  0  0  0  0  0  0  0  0  0
  -32.0016    3.1844   -0.2838 H   0  0  0  0  0  0  0  0  0  0  0  0
  2  1  1  0
  4  1  2  0
  1  5  1  0
  1  3  2  0
  5  9  2  0
  5  6  1  0
  9  8  1  0
  6  7  1  0
  8  7  2  0
  7 10  1  0
 14 10  1  0
 14 13  2  0
 10 11  2  0
 13 12  1  0
 11 12  1  0
 12 16  1  0
 21 16  1  0
 21 20  2  0
 16 17  2  0
 20 19  1  0
 17 18  1  0
 19 18  2  0
 19 15  1  0
  2 22  1  0
  2 23  1  0
  8 24  1  0
  9 25  1  0
 11 26  1  0
 15 27  1  0
 15 28  1  0
 15 29  1  0
 17 30  1  0
 18 31  1  0
 20 32  1  0
 21 33  1  0
A    1
S1
A    2
N2
A    3
O5
A    4
O6
A    5
C7
A    6
S8
A    7
C9
A    8
C10
A    9
C11
A   10
C12
A   11
C13
A   12
N14
A   13
N15
A   14
N16
A   15
C23
A   16
C24
A   17
C25
A   18
C26
A   19
C27
A   20
C28
A   21
C29
M  END
