5FNS_XYY_A_1614
     RDKit          3D

 50 52  0  0  0  0  0  0  0  0999 V2000
   13.1400   64.6650   30.3310 C   0  0  0  0  0  0  0  0  0  0  0  0
   17.1200   65.0610   32.6110 Cl  0  0  0  0  0  0  0  0  0  0  0  0
   13.9130   65.4390   31.3140 N   0  0  0  0  0  0  0  0  0  0  0  0
   14.9940   66.2480   30.7350 C   0  0  0  0  0  0  0  0  0  0  0  0
   16.0970   65.4180   30.1160 C   0  0  0  0  0  0  0  0  0  0  0  0
   16.1300   65.2100   28.7400 C   0  0  0  0  0  0  0  0  0  0  0  0
   17.1300   64.4520   28.1390 C   0  0  0  0  0  0  0  0  0  0  0  0
   18.1150   63.8940   28.9440 C   0  0  0  0  0  0  0  0  0  0  0  0
   18.1020   64.0870   30.3110 C   0  0  0  0  0  0  0  0  0  0  0  0
   17.1000   64.8430   30.8920 C   0  0  0  0  0  0  0  0  0  0  0  0
   17.1790   64.2160   26.6360 C   0  0  0  0  0  0  0  0  0  0  0  0
   17.8080   65.3930   25.8970 C   0  0  0  0  0  0  0  0  0  0  0  0
   18.0840   65.1100   24.4270 C   0  0  0  0  0  0  0  0  0  0  0  0
   17.7370   65.9830   23.6100 O   0  0  0  0  0  0  0  0  0  0  0  0
   18.6360   64.0320   24.1130 O   0  0  0  0  0  0  0  0  0  0  0  0
   15.8170   63.7860   26.1040 C   0  0  0  0  0  0  0  0  0  0  0  0
   15.0520   64.5790   25.2400 C   0  0  0  0  0  0  0  0  0  0  0  0
   13.8120   64.1510   24.7740 C   0  0  0  0  0  0  0  0  0  0  0  0
   13.3110   62.9040   25.1730 C   0  0  0  0  0  0  0  0  0  0  0  0
   12.1750   62.2070   24.9120 N   0  0  0  0  0  0  0  0  0  0  0  0
   11.0380   62.5650   24.0760 C   0  0  0  0  0  0  0  0  0  0  0  0
   12.1930   61.0190   25.5710 N   0  0  0  0  0  0  0  0  0  0  0  0
   13.3300   60.9610   26.2430 N   0  0  0  0  0  0  0  0  0  0  0  0
   14.0510   62.0980   26.0300 C   0  0  0  0  0  0  0  0  0  0  0  0
   15.3100   62.5400   26.4980 C   0  0  0  0  0  0  0  0  0  0  0  0
   13.1060   66.0410   32.6050 S   0  0  0  0  0  0  0  0  0  0  0  0
   12.2180   65.0200   33.0600 O   0  0  0  0  0  0  0  0  0  0  0  0
   14.0710   66.5740   33.5130 O   0  0  0  0  0  0  0  0  0  0  0  0
   12.1430   67.3710   31.9740 C   0  0  0  0  0  0  0  0  0  0  0  0
   12.4574   63.9816   30.8573 H   0  0  0  0  0  0  0  0  0  0  0  0
   12.5567   65.3519   29.7002 H   0  0  0  0  0  0  0  0  0  0  0  0
   13.8277   64.0826   29.7002 H   0  0  0  0  0  0  0  0  0  0  0  0
   14.5661   66.8964   29.9563 H   0  0  0  0  0  0  0  0  0  0  0  0
   15.4432   66.8267   31.5556 H   0  0  0  0  0  0  0  0  0  0  0  0
   15.3452   65.6564   28.1116 H   0  0  0  0  0  0  0  0  0  0  0  0
   18.9142   63.2917   28.4873 H   0  0  0  0  0  0  0  0  0  0  0  0
   18.8878   63.6399   30.9376 H   0  0  0  0  0  0  0  0  0  0  0  0
   17.8528   63.3703   26.4341 H   0  0  0  0  0  0  0  0  0  0  0  0
   17.1238   66.2517   25.9637 H   0  0  0  0  0  0  0  0  0  0  0  0
   18.7780   65.5941   26.3753 H   0  0  0  0  0  0  0  0  0  0  0  0
   18.9525   63.4140   24.8187 H   0  0  0  0  0  0  0  0  0  0  0  0
   15.4383   65.5591   24.9234 H   0  0  0  0  0  0  0  0  0  0  0  0
   13.2273   64.7891   24.0950 H   0  0  0  0  0  0  0  0  0  0  0  0
   10.1837   62.8340   24.7146 H   0  0  0  0  0  0  0  0  0  0  0  0
   11.3054   63.4224   23.4409 H   0  0  0  0  0  0  0  0  0  0  0  0
   10.7659   61.7091   23.4409 H   0  0  0  0  0  0  0  0  0  0  0  0
   15.8956   61.9016   27.1759 H   0  0  0  0  0  0  0  0  0  0  0  0
   11.7241   67.9495   32.8105 H   0  0  0  0  0  0  0  0  0  0  0  0
   12.7788   68.0243   31.3584 H   0  0  0  0  0  0  0  0  0  0  0  0
   11.3239   66.9708   31.3584 H   0  0  0  0  0  0  0  0  0  0  0  0
  1  3  1  0
 10  2  1  0
  4  3  1  0
  3 26  1  0
  5  4  1  0
  6  5  2  0
  5 10  1  0
  7  6  1  0
 11  7  1  0
  7  8  2  0
  8  9  1  0
  9 10  2  0
 12 11  1  0
 16 11  1  0
 13 12  1  0
 14 13  2  0
 15 13  1  0
 17 16  2  0
 16 25  1  0
 18 17  1  0
 18 19  2  0
 20 19  1  0
 19 24  1  0
 21 20  1  0
 20 22  1  0
 22 23  2  0
 24 23  1  0
 24 25  2  0
 29 26  1  0
 26 27  2  0
 26 28  2  0
  1 30  1  0
  1 31  1  0
  1 32  1  0
  4 33  1  0
  4 34  1  0
  6 35  1  0
  8 36  1  0
  9 37  1  0
 11 38  1  0
 12 39  1  0
 12 40  1  0
 15 41  1  0
 17 42  1  0
 18 43  1  0
 21 44  1  0
 21 45  1  0
 21 46  1  0
 25 47  1  0
 29 48  1  0
 29 49  1  0
 29 50  1  0
A    1
C1
A    2
CL1
A    3
N2
A    4
C3
A    5
C4
A    6
C5
A    7
C6
A    8
C7
A    9
C8
A   10
C9
A   11
C11
A   12
C12
A   13
C13
A   14
O14
A   15
O15
A   16
C16
A   17
C17
A   18
C18
A   19
C19
A   20
N20
A   21
C21
A   22
N22
A   23
N23
A   24
C24
A   25
C25
A   26
S26
A   27
O27
A   28
O28
A   29
C29
M  END
