5FNU_L6I_A_1615
     RDKit          3D

 69 73  0  0  0  0  0  0  0  0999 V2000
   13.4520   65.4580   23.1700 C   0  0  0  0  0  0  0  0  0  0  0  0
   12.9600   64.2380   23.7230 O   0  0  0  0  0  0  0  0  0  0  0  0
   13.7260   63.5970   24.6620 C   0  0  0  0  0  0  0  0  0  0  0  0
   14.9520   64.0460   25.1470 C   0  0  0  0  0  0  0  0  0  0  0  0
   15.6710   63.3290   26.1080 C   0  0  0  0  0  0  0  0  0  0  0  0
   15.1270   62.1300   26.5820 C   0  0  0  0  0  0  0  0  0  0  0  0
   13.8780   61.6680   26.0910 C   0  0  0  0  0  0  0  0  0  0  0  0
   13.1490   60.5520   26.3870 N   0  0  0  0  0  0  0  0  0  0  0  0
   12.0390   60.5500   25.6690 N   0  0  0  0  0  0  0  0  0  0  0  0
   12.0540   61.6740   24.9040 N   0  0  0  0  0  0  0  0  0  0  0  0
   10.9520   61.9580   23.9940 C   0  0  0  0  0  0  0  0  0  0  0  0
   13.1890   62.3930   25.1450 C   0  0  0  0  0  0  0  0  0  0  0  0
   17.0140   63.8090   26.6480 C   0  0  0  0  0  0  0  0  0  0  0  0
   17.6280   64.9930   25.8910 C   0  0  0  0  0  0  0  0  0  0  0  0
   17.9150   64.7380   24.4160 C   0  0  0  0  0  0  0  0  0  0  0  0
   17.5790   65.6320   23.6070 O   0  0  0  0  0  0  0  0  0  0  0  0
   18.4640   63.6640   24.0880 O   0  0  0  0  0  0  0  0  0  0  0  0
   16.9510   64.1260   28.1340 C   0  0  0  0  0  0  0  0  0  0  0  0
   17.9780   63.7460   28.9870 C   0  0  0  0  0  0  0  0  0  0  0  0
   17.9170   64.0360   30.3400 C   0  0  0  0  0  0  0  0  0  0  0  0
   16.8240   64.7170   30.8770 C   0  0  0  0  0  0  0  0  0  0  0  0
   16.7880   65.0180   32.3540 C   0  0  0  0  0  0  0  0  0  0  0  0
   15.7810   65.1070   30.0280 C   0  0  0  0  0  0  0  0  0  0  0  0
   14.5700   65.8470   30.5480 C   0  0  0  0  0  0  0  0  0  0  0  0
   13.6780   64.9920   31.3600 N   0  0  0  0  0  0  0  0  0  0  0  0
   13.1040   63.8030   30.6760 C   0  0  0  0  0  0  0  0  0  0  0  0
   11.9360   64.1380   29.7490 C   0  0  0  0  0  0  0  0  0  0  0  0
   11.5120   62.9310   28.9150 C   0  0  0  0  0  0  0  0  0  0  0  0
   10.7960   64.5740   30.5070 O   0  0  0  0  0  0  0  0  0  0  0  0
   10.6850   65.9340   30.7830 C   0  0  0  0  0  0  0  0  0  0  0  0
    9.6990   66.6530   30.1200 C   0  0  0  0  0  0  0  0  0  0  0  0
    9.5550   68.0070   30.3660 C   0  0  0  0  0  0  0  0  0  0  0  0
   10.3870   68.6450   31.2670 C   0  0  0  0  0  0  0  0  0  0  0  0
   11.3730   67.9340   31.9320 C   0  0  0  0  0  0  0  0  0  0  0  0
   11.5250   66.5700   31.6910 C   0  0  0  0  0  0  0  0  0  0  0  0
   12.7790   65.6570   32.5350 S   0  0  0  0  0  0  0  0  0  0  0  0
   12.1500   64.5980   33.2600 O   0  0  0  0  0  0  0  0  0  0  0  0
   13.6060   66.5770   33.2570 O   0  0  0  0  0  0  0  0  0  0  0  0
   15.8660   64.8040   28.6730 C   0  0  0  0  0  0  0  0  0  0  0  0
   13.7287   66.1442   23.9840 H   0  0  0  0  0  0  0  0  0  0  0  0
   14.3362   65.2492   22.5499 H   0  0  0  0  0  0  0  0  0  0  0  0
   12.6703   65.9210   22.5499 H   0  0  0  0  0  0  0  0  0  0  0  0
   15.3658   64.9903   24.7635 H   0  0  0  0  0  0  0  0  0  0  0  0
   15.6694   61.5433   27.3380 H   0  0  0  0  0  0  0  0  0  0  0  0
   10.0475   62.1911   24.5750 H   0  0  0  0  0  0  0  0  0  0  0  0
   11.2124   62.8184   23.3600 H   0  0  0  0  0  0  0  0  0  0  0  0
   10.7641   61.0789   23.3600 H   0  0  0  0  0  0  0  0  0  0  0  0
   17.6847   62.9531   26.4816 H   0  0  0  0  0  0  0  0  0  0  0  0
   16.9307   65.8408   25.9609 H   0  0  0  0  0  0  0  0  0  0  0  0
   18.6021   65.1871   26.3637 H   0  0  0  0  0  0  0  0  0  0  0  0
   18.7838   63.0384   24.7854 H   0  0  0  0  0  0  0  0  0  0  0  0
   18.8494   63.2089   28.5842 H   0  0  0  0  0  0  0  0  0  0  0  0
   18.7407   63.7255   30.9996 H   0  0  0  0  0  0  0  0  0  0  0  0
   16.8999   64.0825   32.9217 H   0  0  0  0  0  0  0  0  0  0  0  0
   17.6107   65.7022   32.6089 H   0  0  0  0  0  0  0  0  0  0  0  0
   15.8271   65.4889   32.6089 H   0  0  0  0  0  0  0  0  0  0  0  0
   14.9124   66.6873   31.1699 H   0  0  0  0  0  0  0  0  0  0  0  0
   13.9939   66.1909   29.6763 H   0  0  0  0  0  0  0  0  0  0  0  0
   13.8968   63.3279   30.0795 H   0  0  0  0  0  0  0  0  0  0  0  0
   12.7146   63.1358   31.4591 H   0  0  0  0  0  0  0  0  0  0  0  0
   12.2844   64.9398   29.0813 H   0  0  0  0  0  0  0  0  0  0  0  0
   11.2225   62.1068   29.5835 H   0  0  0  0  0  0  0  0  0  0  0  0
   10.6567   63.2061   28.2804 H   0  0  0  0  0  0  0  0  0  0  0  0
   12.3514   62.6107   28.2804 H   0  0  0  0  0  0  0  0  0  0  0  0
    9.0354   66.1483   29.4024 H   0  0  0  0  0  0  0  0  0  0  0  0
    8.7747   68.5785   29.8421 H   0  0  0  0  0  0  0  0  0  0  0  0
   10.2658   69.7217   31.4568 H   0  0  0  0  0  0  0  0  0  0  0  0
   12.0337   68.4447   32.6480 H   0  0  0  0  0  0  0  0  0  0  0  0
   15.0466   65.1117   28.0067 H   0  0  0  0  0  0  0  0  0  0  0  0
  1  2  1  0
  2  3  1  0
  3 12  2  0
  3  4  1  0
  4  5  2  0
  5  6  1  0
  5 13  1  0
  7  6  2  0
 12  7  1  0
  7  8  1  0
  9  8  2  0
 10  9  1  0
 11 10  1  0
 10 12  1  0
 14 13  1  0
 13 18  1  0
 15 14  1  0
 16 15  2  0
 17 15  1  0
 18 39  1  0
 18 19  2  0
 19 20  1  0
 20 21  2  0
 23 21  1  0
 21 22  1  0
 39 23  2  0
 23 24  1  0
 24 25  1  0
 26 25  1  0
 25 36  1  0
 27 26  1  0
 28 27  1  0
 27 29  1  0
 29 30  1  0
 31 30  1  0
 30 35  2  0
 31 32  2  0
 32 33  1  0
 33 34  2  0
 35 34  1  0
 35 36  1  0
 36 38  2  0
 36 37  2  0
  1 40  1  0
  1 41  1  0
  1 42  1  0
  4 43  1  0
  6 44  1  0
 11 45  1  0
 11 46  1  0
 11 47  1  0
 13 48  1  0
 14 49  1  0
 14 50  1  0
 17 51  1  0
 19 52  1  0
 20 53  1  0
 22 54  1  0
 22 55  1  0
 22 56  1  0
 24 57  1  0
 24 58  1  0
 26 59  1  0
 26 60  1  0
 27 61  1  0
 28 62  1  0
 28 63  1  0
 28 64  1  0
 31 65  1  0
 32 66  1  0
 33 67  1  0
 34 68  1  0
 39 69  1  0
A    1
C1
A    2
O2
A    3
C3
A    4
C4
A    5
C5
A    6
C6
A    7
C7
A    8
N8
A    9
N9
A   10
N10
A   11
C11
A   12
C12
A   13
C13
A   14
C14
A   15
C15
A   16
O16
A   17
O17
A   18
C18
A   19
C19
A   20
C20
A   21
C21
A   22
C22
A   23
C23
A   24
C24
A   25
N25
A   26
C26
A   27
C27
A   28
C28
A   29
O29
A   30
C30
A   31
C31
A   32
C32
A   33
C33
A   34
C34
A   35
C35
A   36
S36
A   37
O37
A   38
O38
A   39
C39
M  END
