5FP0_SZC_A_1549
     RDKit          3D

 46 49  0  0  0  0  0  0  0  0999 V2000
   13.6590  -12.4160  -19.5260 C   0  0  0  0  0  0  0  0  0  0  0  0
   17.5780  -11.3420  -14.3700 C   0  0  0  0  0  0  0  0  0  0  0  0
   17.3010   -9.0240  -14.8280 C   0  0  0  0  0  0  0  0  0  0  0  0
   18.4970  -11.0600  -13.3820 C   0  0  0  0  0  0  0  0  0  0  0  0
   18.2010   -8.7300  -13.8300 C   0  0  0  0  0  0  0  0  0  0  0  0
   14.2680  -12.7840  -18.3410 C   0  0  0  0  0  0  0  0  0  0  0  0
   13.6840  -11.1160  -19.9910 C   0  0  0  0  0  0  0  0  0  0  0  0
   16.9690  -10.3330  -15.1000 C   0  0  0  0  0  0  0  0  0  0  0  0
   18.8130   -9.7430  -13.1170 C   0  0  0  0  0  0  0  0  0  0  0  0
   14.9010  -11.7730  -17.6250 C   0  0  0  0  0  0  0  0  0  0  0  0
   14.9400  -10.4840  -18.1000 C   0  0  0  0  0  0  0  0  0  0  0  0
   14.3360  -10.1190  -19.2860 C   0  0  0  0  0  0  0  0  0  0  0  0
   16.0710  -10.6550  -16.1860 C   0  0  0  0  0  0  0  0  0  0  0  0
   10.4420   -7.9560  -17.0270 C   0  0  0  0  0  0  0  0  0  0  0  0
   10.5110   -6.5180  -17.4720 C   0  0  0  0  0  0  0  0  0  0  0  0
   11.4170   -8.7400  -17.8680 C   0  0  0  0  0  0  0  0  0  0  0  0
   11.2310   -6.4870  -18.7980 C   0  0  0  0  0  0  0  0  0  0  0  0
   11.8710   -7.8450  -18.9970 C   0  0  0  0  0  0  0  0  0  0  0  0
   19.8030   -9.3940  -12.0450 C   0  0  0  0  0  0  0  0  0  0  0  0
   15.6010  -11.8440  -16.4540 N   0  0  0  0  0  0  0  0  0  0  0  0
   15.6630   -9.7980  -17.1650 N   0  0  0  0  0  0  0  0  0  0  0  0
   13.3250   -7.6570  -18.8560 N   0  0  0  0  0  0  0  0  0  0  0  0
   15.6950   -7.9500  -19.7410 O   0  0  0  0  0  0  0  0  0  0  0  0
   13.7560   -8.5880  -21.2630 O   0  0  0  0  0  0  0  0  0  0  0  0
   19.3030   -9.5720  -10.7920 F   0  0  0  0  0  0  0  0  0  0  0  0
   20.9760  -10.0840  -12.1320 F   0  0  0  0  0  0  0  0  0  0  0  0
   20.2020   -8.1030  -12.0810 F   0  0  0  0  0  0  0  0  0  0  0  0
   14.3580   -8.4740  -19.9450 S   0  0  0  0  0  0  0  0  0  0  0  0
   13.1378  -13.1832  -20.1175 H   0  0  0  0  0  0  0  0  0  0  0  0
   17.3224  -12.3903  -14.5838 H   0  0  0  0  0  0  0  0  0  0  0  0
   16.8446   -8.2106  -15.4112 H   0  0  0  0  0  0  0  0  0  0  0  0
   18.9716  -11.8730  -12.8130 H   0  0  0  0  0  0  0  0  0  0  0  0
   18.4352   -7.6806  -13.5979 H   0  0  0  0  0  0  0  0  0  0  0  0
   14.2529  -13.8237  -17.9822 H   0  0  0  0  0  0  0  0  0  0  0  0
   13.1781  -10.8690  -20.9360 H   0  0  0  0  0  0  0  0  0  0  0  0
   10.7160   -8.0335  -15.9645 H   0  0  0  0  0  0  0  0  0  0  0  0
    9.4222   -8.3499  -17.1491 H   0  0  0  0  0  0  0  0  0  0  0  0
    9.4954   -6.1113  -17.5866 H   0  0  0  0  0  0  0  0  0  0  0  0
   11.0435   -5.9075  -16.7279 H   0  0  0  0  0  0  0  0  0  0  0  0
   12.2812   -9.0410  -17.2575 H   0  0  0  0  0  0  0  0  0  0  0  0
   10.9409   -9.6491  -18.2640 H   0  0  0  0  0  0  0  0  0  0  0  0
   10.5162   -6.2856  -19.6095 H   0  0  0  0  0  0  0  0  0  0  0  0
   11.9925   -5.6932  -18.8083 H   0  0  0  0  0  0  0  0  0  0  0  0
   11.6065   -8.2776  -19.9732 H   0  0  0  0  0  0  0  0  0  0  0  0
   15.8681   -8.7891  -17.1951 H   0  0  0  0  0  0  0  0  0  0  0  0
   13.5131   -6.6492  -18.9554 H   0  0  0  0  0  0  0  0  0  0  0  0
  1  6  2  0
  1  7  1  0
  2  4  2  0
  2  8  1  0
  3  5  1  0
  3  8  2  0
  4  9  1  0
  5  9  2  0
  6 10  1  0
  7 12  2  0
  8 13  1  0
  9 19  1  0
 10 11  2  0
 10 20  1  0
 11 12  1  0
 11 21  1  0
 12 28  1  0
 13 20  2  0
 13 21  1  0
 14 15  1  0
 14 16  1  0
 15 17  1  0
 16 18  1  0
 17 18  1  0
 18 22  1  0
 19 25  1  0
 19 26  1  0
 19 27  1  0
 22 28  1  0
 23 28  2  0
 24 28  2  0
  1 29  1  0
  2 30  1  0
  3 31  1  0
  4 32  1  0
  5 33  1  0
  6 34  1  0
  7 35  1  0
 14 36  1  0
 14 37  1  0
 15 38  1  0
 15 39  1  0
 16 40  1  0
 16 41  1  0
 17 42  1  0
 17 43  1  0
 18 44  1  0
 21 45  1  0
 22 46  1  0
A    1
C1
A    2
C2
A    3
C3
A    4
C4
A    5
C5
A    6
C6
A    7
C7
A    8
C8
A    9
C9
A   10
C10
A   11
C11
A   12
C12
A   13
C13
A   14
C14
A   15
C15
A   16
C16
A   17
C17
A   18
C18
A   19
C19
A   20
N20
A   21
N21
A   22
N22
A   23
O23
A   24
O24
A   25
F25
A   26
F26
A   27
F27
A   28
S28
M  END
