5FP4_YC8_A_1344
     RDKit          3D

 37 38  0  0  0  0  0  0  0  0999 V2000
   11.1870    1.5120   17.6230 C   0  0  0  0  0  0  0  0  0  0  0  0
    8.1490    4.4330   18.4340 N   0  0  0  0  0  0  0  0  0  0  0  0
   12.3670    1.8570   17.5350 O   0  0  0  0  0  0  0  0  0  0  0  0
   10.1360    2.5430   17.8940 C   0  0  0  0  0  0  0  0  0  0  0  0
   11.5050    4.1980   16.8510 N   0  0  0  0  0  0  0  0  0  0  0  0
   10.8470    0.2380   17.4850 O   0  0  0  0  0  0  0  0  0  0  0  0
    8.9770    2.1770   18.5520 C   0  0  0  0  0  0  0  0  0  0  0  0
   11.2960    6.4640   16.6850 O   0  0  0  0  0  0  0  0  0  0  0  0
    8.0190    3.1510   18.7980 C   0  0  0  0  0  0  0  0  0  0  0  0
    9.2780    4.7880   17.7930 C   0  0  0  0  0  0  0  0  0  0  0  0
   10.2870    3.8660   17.5000 C   0  0  0  0  0  0  0  0  0  0  0  0
   11.9240    5.4210   16.5370 C   0  0  0  0  0  0  0  0  0  0  0  0
   13.3280    5.3820   15.9770 C   0  0  0  0  0  0  0  0  0  0  0  0
   13.9830    6.7460   15.9250 C   0  0  0  0  0  0  0  0  0  0  0  0
   13.6020    7.5080   14.6750 C   0  0  0  0  0  0  0  0  0  0  0  0
   14.5820    8.6470   14.5430 C   0  0  0  0  0  0  0  0  0  0  0  0
   14.5730    9.6760   15.4830 C   0  0  0  0  0  0  0  0  0  0  0  0
   15.4750   10.7300   15.3720 C   0  0  0  0  0  0  0  0  0  0  0  0
   16.3880   10.7470   14.3210 C   0  0  0  0  0  0  0  0  0  0  0  0
   16.4030    9.7140   13.3830 C   0  0  0  0  0  0  0  0  0  0  0  0
   15.5000    8.6600   13.4960 C   0  0  0  0  0  0  0  0  0  0  0  0
   12.1252    3.4154   16.5984 H   0  0  0  0  0  0  0  0  0  0  0  0
   10.6970   -0.3239   18.2862 H   0  0  0  0  0  0  0  0  0  0  0  0
    8.8173    1.1372   18.8735 H   0  0  0  0  0  0  0  0  0  0  0  0
    7.0994    2.8522   19.3226 H   0  0  0  0  0  0  0  0  0  0  0  0
    9.4109    5.8371   17.4900 H   0  0  0  0  0  0  0  0  0  0  0  0
   13.9399    4.7234   16.6109 H   0  0  0  0  0  0  0  0  0  0  0  0
   13.2596    5.0106   14.9439 H   0  0  0  0  0  0  0  0  0  0  0  0
   13.6673    7.3258   16.8049 H   0  0  0  0  0  0  0  0  0  0  0  0
   15.0733    6.6003   15.9161 H   0  0  0  0  0  0  0  0  0  0  0  0
   13.6659    6.8497   13.7960 H   0  0  0  0  0  0  0  0  0  0  0  0
   12.5694    7.8814   14.7398 H   0  0  0  0  0  0  0  0  0  0  0  0
   13.8521    9.6550   16.3136 H   0  0  0  0  0  0  0  0  0  0  0  0
   15.4667   11.5452   16.1106 H   0  0  0  0  0  0  0  0  0  0  0  0
   17.1014   11.5793   14.2296 H   0  0  0  0  0  0  0  0  0  0  0  0
   17.1273    9.7323   12.5553 H   0  0  0  0  0  0  0  0  0  0  0  0
   15.5118    7.8413   12.7614 H   0  0  0  0  0  0  0  0  0  0  0  0
  3  1  2  0
  6  1  1  0
  1  4  1  0
 10  2  2  0
  2  9  1  0
 11  4  2  0
  4  7  1  0
 12  5  1  0
  5 11  1  0
  7  9  2  0
 12  8  2  0
 11 10  1  0
 13 12  1  0
 14 13  1  0
 15 14  1  0
 16 15  1  0
 17 16  2  0
 16 21  1  0
 18 17  1  0
 18 19  2  0
 19 20  1  0
 20 21  2  0
  5 22  1  0
  6 23  1  0
  7 24  1  0
  9 25  1  0
 10 26  1  0
 13 27  1  0
 13 28  1  0
 14 29  1  0
 14 30  1  0
 15 31  1  0
 15 32  1  0
 17 33  1  0
 18 34  1  0
 19 35  1  0
 20 36  1  0
 21 37  1  0
A    1
C1
A    2
N1
A    3
O1
A    4
C2
A    5
N2
A    6
O2
A    7
C3
A    8
O3
A    9
C4
A   10
C5
A   11
C6
A   12
C7
A   13
C8
A   14
C9
A   15
C10
A   16
C11
A   17
C12
A   18
C13
A   19
C14
A   20
C15
A   21
C16
M  END
