5FPB_HA6_A_1341
     RDKit          3D

 24 26  0  0  0  0  0  0  0  0999 V2000
   10.1100    2.4560   17.9810 C   0  0  0  0  0  0  0  0  0  0  0  0
    8.1390    4.3460   18.4170 N   0  0  0  0  0  0  0  0  0  0  0  0
   13.5770    3.6150   16.1520 O   0  0  0  0  0  0  0  0  0  0  0  0
   11.1750    1.4770   17.7340 C   0  0  0  0  0  0  0  0  0  0  0  0
   12.2980    1.9840   17.1140 N   0  0  0  0  0  0  0  0  0  0  0  0
   11.0980    0.2860   18.0500 O   0  0  0  0  0  0  0  0  0  0  0  0
   12.4180    3.2890   16.7480 C   0  0  0  0  0  0  0  0  0  0  0  0
   14.9160    6.8690   16.8630 N   0  0  0  0  0  0  0  0  0  0  0  0
   14.0120    4.9570   16.1630 C   0  0  0  0  0  0  0  0  0  0  0  0
   14.4450    6.9920   15.6050 N   0  0  0  0  0  0  0  0  0  0  0  0
   14.6550    5.6140   17.2110 C   0  0  0  0  0  0  0  0  0  0  0  0
   11.4740    4.1930   16.9530 N   0  0  0  0  0  0  0  0  0  0  0  0
   13.9020    5.8530   15.1740 C   0  0  0  0  0  0  0  0  0  0  0  0
   10.3060    3.7780   17.5770 C   0  0  0  0  0  0  0  0  0  0  0  0
    9.2870    4.6750   17.8150 C   0  0  0  0  0  0  0  0  0  0  0  0
    7.9780    3.0750   18.7920 C   0  0  0  0  0  0  0  0  0  0  0  0
    8.9220    2.0870   18.5990 C   0  0  0  0  0  0  0  0  0  0  0  0
   13.0821    1.3451   16.9191 H   0  0  0  0  0  0  0  0  0  0  0  0
   15.3786    7.5927   17.4315 H   0  0  0  0  0  0  0  0  0  0  0  0
   14.9083    5.1609   18.1808 H   0  0  0  0  0  0  0  0  0  0  0  0
   13.4472    5.6810   14.1873 H   0  0  0  0  0  0  0  0  0  0  0  0
    9.4254    5.7175   17.4925 H   0  0  0  0  0  0  0  0  0  0  0  0
    7.0346    2.7981   19.2853 H   0  0  0  0  0  0  0  0  0  0  0  0
    8.7412    1.0508   18.9210 H   0  0  0  0  0  0  0  0  0  0  0  0
  1  4  1  0
  1 14  2  0
  1 17  1  0
  2 15  2  0
  2 16  1  0
  3  7  1  0
  3  9  1  0
  4  5  1  0
  4  6  2  0
  5  7  1  0
  7 12  2  0
  8 10  1  0
  8 11  1  0
  9 11  2  0
  9 13  1  0
 10 13  2  0
 12 14  1  0
 14 15  1  0
 16 17  2  0
  5 18  1  0
  8 19  1  0
 11 20  1  0
 13 21  1  0
 15 22  1  0
 16 23  1  0
 17 24  1  0
A    1
C1
A    2
N1
A    3
O1
A    4
C01
A    5
N01
A    6
O01
A    7
C02
A    8
N02
A    9
C03
A   10
N03
A   11
C04
A   12
N04
A   13
C05
A   14
C06
A   15
C07
A   16
C08
A   17
C09
M  END
