5FPF_5ZI_A_2112
     RDKit          3D

 56 60  0  0  0  0  0  0  0  0999 V2000
  -25.4460   -3.3960  -26.9480 O   0  0  0  0  0  0  0  0  0  0  0  0
  -26.1660   -4.2450  -27.4580 C   0  0  0  0  0  0  0  0  0  0  0  0
  -25.6600   -5.6300  -27.8630 C   0  0  0  0  0  0  0  0  0  0  0  0
  -24.6710   -5.7520  -29.0110 C   0  0  0  0  0  0  0  0  0  0  0  0
  -23.3740   -5.2480  -28.8830 C   0  0  0  0  0  0  0  0  0  0  0  0
  -22.4830   -6.0220  -28.2320 N   0  0  0  0  0  0  0  0  0  0  0  0
  -21.1990   -5.6560  -28.1140 C   0  0  0  0  0  0  0  0  0  0  0  0
  -20.7390   -4.4770  -28.6830 C   0  0  0  0  0  0  0  0  0  0  0  0
  -19.4060   -4.1070  -28.5410 C   0  0  0  0  0  0  0  0  0  0  0  0
  -18.5310   -4.9240  -27.8410 C   0  0  0  0  0  0  0  0  0  0  0  0
  -18.9900   -6.1050  -27.2780 C   0  0  0  0  0  0  0  0  0  0  0  0
  -20.3220   -6.4690  -27.4120 C   0  0  0  0  0  0  0  0  0  0  0  0
  -21.6120   -3.6680  -29.3910 C   0  0  0  0  0  0  0  0  0  0  0  0
  -21.2170   -2.6180  -29.9100 O   0  0  0  0  0  0  0  0  0  0  0  0
  -22.9540   -4.0680  -29.5060 N   0  0  0  0  0  0  0  0  0  0  0  0
  -27.4520   -4.0970  -27.8290 N   0  0  0  0  0  0  0  0  0  0  0  0
  -28.2130   -3.0200  -27.6370 C   0  0  0  0  0  0  0  0  0  0  0  0
  -27.8850   -1.8190  -27.0180 C   0  0  0  0  0  0  0  0  0  0  0  0
  -28.8210   -0.7750  -26.9410 C   0  0  0  0  0  0  0  0  0  0  0  0
  -30.0860   -0.9110  -27.5190 C   0  0  0  0  0  0  0  0  0  0  0  0
  -30.3510   -2.1070  -28.1790 C   0  0  0  0  0  0  0  0  0  0  0  0
  -29.4410   -3.1340  -28.2350 C   0  0  0  0  0  0  0  0  0  0  0  0
  -31.0400    0.1190  -27.5260 C   0  0  0  0  0  0  0  0  0  0  0  0
  -30.8890    1.1040  -26.8090 O   0  0  0  0  0  0  0  0  0  0  0  0
  -32.1680   -0.1790  -28.2140 N   0  0  0  0  0  0  0  0  0  0  0  0
  -33.2240    0.6410  -28.3630 C   0  0  0  0  0  0  0  0  0  0  0  0
  -34.3050    0.0670  -29.0390 C   0  0  0  0  0  0  0  0  0  0  0  0
  -34.2050   -1.1890  -29.5030 N   0  0  0  0  0  0  0  0  0  0  0  0
  -35.2590   -1.8000  -30.1940 C   0  0  0  0  0  0  0  0  0  0  0  0
  -36.4310   -1.0990  -30.4110 C   0  0  0  0  0  0  0  0  0  0  0  0
  -36.5400    0.1990  -29.9370 C   0  0  0  0  0  0  0  0  0  0  0  0
  -35.4800    0.7810  -29.2490 C   0  0  0  0  0  0  0  0  0  0  0  0
  -35.5960    2.0780  -28.7680 C   0  0  0  0  0  0  0  0  0  0  0  0
  -34.5290    2.6510  -28.0940 C   0  0  0  0  0  0  0  0  0  0  0  0
  -33.3610    1.9270  -27.8580 C   0  0  0  0  0  0  0  0  0  0  0  0
  -25.1787   -6.0682  -26.9763 H   0  0  0  0  0  0  0  0  0  0  0  0
  -26.5605   -6.1379  -28.2386 H   0  0  0  0  0  0  0  0  0  0  0  0
  -24.5724   -6.8255  -29.2300 H   0  0  0  0  0  0  0  0  0  0  0  0
  -25.1116   -5.1102  -29.7881 H   0  0  0  0  0  0  0  0  0  0  0  0
  -19.0458   -3.1667  -28.9838 H   0  0  0  0  0  0  0  0  0  0  0  0
  -17.4750   -4.6357  -27.7326 H   0  0  0  0  0  0  0  0  0  0  0  0
  -18.2966   -6.7547  -26.7239 H   0  0  0  0  0  0  0  0  0  0  0  0
  -20.6833   -7.4047  -26.9603 H   0  0  0  0  0  0  0  0  0  0  0  0
  -23.6222   -3.4978  -30.0439 H   0  0  0  0  0  0  0  0  0  0  0  0
  -27.8911   -4.8956  -28.3089 H   0  0  0  0  0  0  0  0  0  0  0  0
  -26.8829   -1.6854  -26.5845 H   0  0  0  0  0  0  0  0  0  0  0  0
  -28.5562    0.1577  -26.4214 H   0  0  0  0  0  0  0  0  0  0  0  0
  -31.3250   -2.2345  -28.6740 H   0  0  0  0  0  0  0  0  0  0  0  0
  -29.7012   -4.0609  -28.7671 H   0  0  0  0  0  0  0  0  0  0  0  0
  -32.2215   -1.1067  -28.6582 H   0  0  0  0  0  0  0  0  0  0  0  0
  -35.1551   -2.8314  -30.5619 H   0  0  0  0  0  0  0  0  0  0  0  0
  -37.2666   -1.5657  -30.9532 H   0  0  0  0  0  0  0  0  0  0  0  0
  -37.4654    0.7694  -30.1050 H   0  0  0  0  0  0  0  0  0  0  0  0
  -36.5259    2.6456  -28.9203 H   0  0  0  0  0  0  0  0  0  0  0  0
  -34.6046    3.6900  -27.7408 H   0  0  0  0  0  0  0  0  0  0  0  0
  -32.5464    2.3756  -27.2705 H   0  0  0  0  0  0  0  0  0  0  0  0
  1  2  2  0
  2  3  1  0
  2 16  1  0
  3  4  1  0
  4  5  1  0
  5  6  2  0
  5 15  1  0
  6  7  1  0
  7  8  2  0
  7 12  1  0
  8  9  1  0
  8 13  1  0
  9 10  2  0
 10 11  1  0
 11 12  2  0
 13 14  2  0
 13 15  1  0
 16 17  1  0
 17 18  2  0
 17 22  1  0
 18 19  1  0
 19 20  2  0
 20 21  1  0
 20 23  1  0
 21 22  2  0
 23 24  2  0
 23 25  1  0
 25 26  1  0
 26 27  1  0
 26 35  2  0
 27 28  2  0
 27 32  1  0
 28 29  1  0
 29 30  2  0
 30 31  1  0
 31 32  2  0
 32 33  1  0
 33 34  2  0
 34 35  1  0
  3 36  1  0
  3 37  1  0
  4 38  1  0
  4 39  1  0
  9 40  1  0
 10 41  1  0
 11 42  1  0
 12 43  1  0
 15 44  1  0
 16 45  1  0
 18 46  1  0
 19 47  1  0
 21 48  1  0
 22 49  1  0
 25 50  1  0
 29 51  1  0
 30 52  1  0
 31 53  1  0
 33 54  1  0
 34 55  1  0
 35 56  1  0
A    1
OAA
A    2
CAB
A    3
CAC
A    4
CAD
A    5
CAE
A    6
NAF
A    7
CAG
A    8
CAH
A    9
CAI
A   10
CAJ
A   11
CAK
A   12
CAL
A   13
CAM
A   14
OAN
A   15
NAO
A   16
NAP
A   17
CAQ
A   18
CAR
A   19
CAS
A   20
CAT
A   21
CAU
A   22
CAV
A   23
CAW
A   24
OAX
A   25
NAY
A   26
CAZ
A   27
CBA
A   28
NBB
A   29
CBC
A   30
CBD
A   31
CBE
A   32
CBF
A   33
CBG
A   34
CBH
A   35
CBI
M  END
