4CI2_LVY_B_1429
     RDKit          3D

 32 34  0  0  0  0  0  0  0  0999 V2000
   84.2300  156.3710   13.8710 C   0  0  0  0  0  0  0  0  0  0  0  0
   85.1530  156.8780   15.0090 C   0  0  0  0  0  0  0  0  0  0  0  0
   84.8460  158.3630   15.2820 C   0  0  0  0  0  0  0  0  0  0  0  0
   85.0100  159.1500   14.0030 C   0  0  0  0  0  0  0  0  0  0  0  0
   84.7820  158.5390   12.8080 N   0  0  0  0  0  0  0  0  0  0  0  0
   84.4320  157.2300   12.6430 C   0  0  0  0  0  0  0  0  0  0  0  0
   84.1060  152.7120   13.1650 C   0  0  0  0  0  0  0  0  0  0  0  0
   85.4170  153.0100   12.7900 C   0  0  0  0  0  0  0  0  0  0  0  0
   85.7210  154.4870   12.9980 C   0  0  0  0  0  0  0  0  0  0  0  0
   84.4530  154.9740   13.5320 N   0  0  0  0  0  0  0  0  0  0  0  0
   83.5020  154.0070   13.6410 C   0  0  0  0  0  0  0  0  0  0  0  0
   84.4530  150.4040   12.5990 C   0  0  0  0  0  0  0  0  0  0  0  0
   85.7900  150.7100   12.2340 C   0  0  0  0  0  0  0  0  0  0  0  0
   86.3000  152.0260   12.3190 C   0  0  0  0  0  0  0  0  0  0  0  0
   83.5800  151.4140   13.0630 C   0  0  0  0  0  0  0  0  0  0  0  0
   82.3300  154.0900   14.0400 O   0  0  0  0  0  0  0  0  0  0  0  0
   87.5760  152.3610   11.9750 N   0  0  0  0  0  0  0  0  0  0  0  0
   84.2170  156.7370   11.5430 O   0  0  0  0  0  0  0  0  0  0  0  0
   85.3050  160.3310   14.0740 O   0  0  0  0  0  0  0  0  0  0  0  0
   83.1951  156.4476   14.2360 H   0  0  0  0  0  0  0  0  0  0  0  0
   84.9707  156.2903   15.9208 H   0  0  0  0  0  0  0  0  0  0  0  0
   86.2058  156.7656   14.7107 H   0  0  0  0  0  0  0  0  0  0  0  0
   83.8127  158.4638   15.6456 H   0  0  0  0  0  0  0  0  0  0  0  0
   85.5397  158.7488   16.0436 H   0  0  0  0  0  0  0  0  0  0  0  0
   84.8819  159.1120   11.9579 H   0  0  0  0  0  0  0  0  0  0  0  0
   86.5412  154.6309   13.7167 H   0  0  0  0  0  0  0  0  0  0  0  0
   86.0538  155.0083   12.0883 H   0  0  0  0  0  0  0  0  0  0  0  0
   84.0918  149.3680   12.5198 H   0  0  0  0  0  0  0  0  0  0  0  0
   86.4460  149.9029   11.8759 H   0  0  0  0  0  0  0  0  0  0  0  0
   82.5364  151.1934   13.3319 H   0  0  0  0  0  0  0  0  0  0  0  0
   88.2757  152.5447   12.7082 H   0  0  0  0  0  0  0  0  0  0  0  0
   87.8403  152.4304   10.9819 H   0  0  0  0  0  0  0  0  0  0  0  0
  1  2  1  0
  1  6  1  0
  1 10  1  0
  2  3  1  0
  3  4  1  0
  4  5  1  0
  4 19  2  0
  5  6  1  0
  6 18  2  0
  7  8  2  0
  7 11  1  0
  7 15  1  0
  8  9  1  0
  8 14  1  0
  9 10  1  0
 10 11  1  0
 11 16  2  0
 12 13  1  0
 12 15  2  0
 13 14  2  0
 14 17  1  0
  1 20  1  0
  2 21  1  0
  2 22  1  0
  3 23  1  0
  3 24  1  0
  5 25  1  0
  9 26  1  0
  9 27  1  0
 12 28  1  0
 13 29  1  0
 15 30  1  0
 17 31  1  0
 17 32  1  0
A    1
C1
A    2
C2
A    3
C3
A    4
C4
A    5
N5
A    6
C6
A    7
C7
A    8
C8
A    9
C9
A   10
N10
A   11
C11
A   12
C12
A   13
C13
A   14
C14
A   15
C15
A   16
O16
A   17
N17
A   18
O18
A   19
O19
M  END
