5FQP_GQD_A_1549
     RDKit          3D

 54 56  0  0  0  0  0  0  0  0999 V2000
   13.2740   23.6510   61.9190 C   0  0  0  0  0  0  0  0  0  0  0  0
   12.7900   23.8510   63.3500 C   0  0  0  0  0  0  0  0  0  0  0  0
   13.3520   25.1140   63.9830 C   0  0  0  0  0  0  0  0  0  0  0  0
   14.8110   24.9940   64.3280 C   0  0  0  0  0  0  0  0  0  0  0  0
   15.5490   26.1510   64.4580 C   0  0  0  0  0  0  0  0  0  0  0  0
   16.8860   26.0710   64.7810 C   0  0  0  0  0  0  0  0  0  0  0  0
   17.5100   24.8600   64.9720 C   0  0  0  0  0  0  0  0  0  0  0  0
   16.7680   23.7040   64.8370 C   0  0  0  0  0  0  0  0  0  0  0  0
   15.4200   23.7680   64.5190 C   0  0  0  0  0  0  0  0  0  0  0  0
   14.6510   22.4870   64.4000 C   0  0  0  0  0  0  0  0  0  0  0  0
   13.1750   22.6830   64.2090 N   0  0  0  0  0  0  0  0  0  0  0  0
   12.4950   21.4070   63.8360 C   0  0  0  0  0  0  0  0  0  0  0  0
   11.1150   21.2980   64.4580 C   0  0  0  0  0  0  0  0  0  0  0  0
   10.5370   19.9420   64.1120 C   0  0  0  0  0  0  0  0  0  0  0  0
   11.1530   21.4480   65.9600 C   0  0  0  0  0  0  0  0  0  0  0  0
   14.8600   21.6550   65.6330 C   0  0  0  0  0  0  0  0  0  0  0  0
   14.6220   22.1900   66.8860 C   0  0  0  0  0  0  0  0  0  0  0  0
   14.8120   21.4180   68.0150 C   0  0  0  0  0  0  0  0  0  0  0  0
   15.2370   20.1090   67.8960 C   0  0  0  0  0  0  0  0  0  0  0  0
   15.4740   19.5750   66.6460 C   0  0  0  0  0  0  0  0  0  0  0  0
   15.2850   20.3500   65.5180 C   0  0  0  0  0  0  0  0  0  0  0  0
   15.4500   19.2650   69.0670 C   0  0  0  0  0  0  0  0  0  0  0  0
   15.9010   19.8040   70.2030 C   0  0  0  0  0  0  0  0  0  0  0  0
   16.0680   18.7850   71.3150 C   0  0  0  0  0  0  0  0  0  0  0  0
   15.8560   17.5780   71.0120 O   0  0  0  0  0  0  0  0  0  0  0  0
   16.4040   19.2710   72.4300 O   0  0  0  0  0  0  0  0  0  0  0  0
   17.6110   27.2290   64.9200 O   0  0  0  0  0  0  0  0  0  0  0  0
   14.2906   23.2309   61.9311 H   0  0  0  0  0  0  0  0  0  0  0  0
   12.5974   22.9588   61.3965 H   0  0  0  0  0  0  0  0  0  0  0  0
   13.2834   24.6189   61.3965 H   0  0  0  0  0  0  0  0  0  0  0  0
   11.6954   23.9428   63.2922 H   0  0  0  0  0  0  0  0  0  0  0  0
   13.2254   25.9475   63.2764 H   0  0  0  0  0  0  0  0  0  0  0  0
   12.8033   25.2867   64.9206 H   0  0  0  0  0  0  0  0  0  0  0  0
   15.0738   27.1312   64.3049 H   0  0  0  0  0  0  0  0  0  0  0  0
   18.5790   24.8138   65.2272 H   0  0  0  0  0  0  0  0  0  0  0  0
   17.2492   22.7256   64.9826 H   0  0  0  0  0  0  0  0  0  0  0  0
   15.0363   21.9850   63.5003 H   0  0  0  0  0  0  0  0  0  0  0  0
   12.3960   21.3636   62.7413 H   0  0  0  0  0  0  0  0  0  0  0  0
   13.1053   20.5729   64.2125 H   0  0  0  0  0  0  0  0  0  0  0  0
   10.4936   22.1124   64.0573 H   0  0  0  0  0  0  0  0  0  0  0  0
   10.3041   19.3956   65.0379 H   0  0  0  0  0  0  0  0  0  0  0  0
    9.6173   20.0748   63.5234 H   0  0  0  0  0  0  0  0  0  0  0  0
   11.2697   19.3704   63.5234 H   0  0  0  0  0  0  0  0  0  0  0  0
   10.9089   20.4844   66.4310 H   0  0  0  0  0  0  0  0  0  0  0  0
   12.1595   21.7639   66.2716 H   0  0  0  0  0  0  0  0  0  0  0  0
   10.4183   22.2050   66.2716 H   0  0  0  0  0  0  0  0  0  0  0  0
   14.2811   23.2313   66.9832 H   0  0  0  0  0  0  0  0  0  0  0  0
   14.6246   21.8461   69.0108 H   0  0  0  0  0  0  0  0  0  0  0  0
   15.8131   18.5332   66.5477 H   0  0  0  0  0  0  0  0  0  0  0  0
   15.4750   19.9224   64.5225 H   0  0  0  0  0  0  0  0  0  0  0  0
   15.2395   18.1866   69.0144 H   0  0  0  0  0  0  0  0  0  0  0  0
   16.1275   20.8740   70.3201 H   0  0  0  0  0  0  0  0  0  0  0  0
   15.7373   16.9020   71.7255 H   0  0  0  0  0  0  0  0  0  0  0  0
   17.8263   27.5728   65.8231 H   0  0  0  0  0  0  0  0  0  0  0  0
  1  2  1  0
  2  3  1  0
  2 11  1  0
  3  4  1  0
  4  5  1  0
  4  9  2  0
  5  6  2  0
  6  7  1  0
  6 27  1  0
  7  8  2  0
  8  9  1  0
  9 10  1  0
 10 11  1  0
 10 16  1  0
 11 12  1  0
 12 13  1  0
 13 14  1  0
 13 15  1  0
 16 17  2  0
 16 21  1  0
 17 18  1  0
 18 19  2  0
 19 20  1  0
 19 22  1  0
 20 21  2  0
 22 23  2  0
 23 24  1  0
 24 25  1  0
 24 26  2  0
  1 28  1  0
  1 29  1  0
  1 30  1  0
  2 31  1  0
  3 32  1  0
  3 33  1  0
  5 34  1  0
  7 35  1  0
  8 36  1  0
 10 37  1  0
 12 38  1  0
 12 39  1  0
 13 40  1  0
 14 41  1  0
 14 42  1  0
 14 43  1  0
 15 44  1  0
 15 45  1  0
 15 46  1  0
 17 47  1  0
 18 48  1  0
 20 49  1  0
 21 50  1  0
 22 51  1  0
 23 52  1  0
 25 53  1  0
 27 54  1  0
A    1
C1
A    2
C2
A    3
C4
A    4
C5
A    5
C6
A    6
C7
A    7
C8
A    8
C9
A    9
C10
A   10
C11
A   11
N13
A   12
C14
A   13
C15
A   14
C16
A   15
C17
A   16
C18
A   17
C19
A   18
C20
A   19
C21
A   20
C22
A   21
C23
A   22
C24
A   23
C25
A   24
C26
A   25
O27
A   26
O28
A   27
O29
M  END
