5FRI_ZUQ_A_1501
     RDKit          3D

 36 39  0  0  0  0  0  0  0  0999 V2000
    5.0150    7.2090    2.8970 C   0  0  0  0  0  0  0  0  0  0  0  0
    2.6840    6.8640    3.2000 C   0  0  0  0  0  0  0  0  0  0  0  0
    4.8550    6.6980    1.6400 C   0  0  0  0  0  0  0  0  0  0  0  0
    6.5050    8.7160    7.5240 C   0  0  0  0  0  0  0  0  0  0  0  0
    3.8990    7.2940    3.7090 C   0  0  0  0  0  0  0  0  0  0  0  0
    5.0220    8.4530    5.6450 C   0  0  0  0  0  0  0  0  0  0  0  0
    5.7190    9.4770    5.0420 C   0  0  0  0  0  0  0  0  0  0  0  0
    5.4420    8.0870    6.9090 C   0  0  0  0  0  0  0  0  0  0  0  0
    2.6200    6.3660    1.9160 C   0  0  0  0  0  0  0  0  0  0  0  0
    6.7510   10.0340    5.7250 C   0  0  0  0  0  0  0  0  0  0  0  0
    0.1510    5.9440    1.7820 C   0  0  0  0  0  0  0  0  0  0  0  0
   -2.1620    4.8230    1.5610 C   0  0  0  0  0  0  0  0  0  0  0  0
   -2.1820    6.0380    0.6760 C   0  0  0  0  0  0  0  0  0  0  0  0
    6.6060   11.0920    3.7840 C   0  0  0  0  0  0  0  0  0  0  0  0
   -0.8900    5.2900    0.9000 C   0  0  0  0  0  0  0  0  0  0  0  0
    3.6960    6.2760    1.1260 N   0  0  0  0  0  0  0  0  0  0  0  0
    7.1950    9.7160    6.9450 N   0  0  0  0  0  0  0  0  0  0  0  0
    3.9430    7.8040    5.0320 N   0  0  0  0  0  0  0  0  0  0  0  0
    1.4150    5.8900    1.3030 N   0  0  0  0  0  0  0  0  0  0  0  0
   -0.1600    6.4870    2.8270 O   0  0  0  0  0  0  0  0  0  0  0  0
    5.5800   10.0920    3.8150 O   0  0  0  0  0  0  0  0  0  0  0  0
    7.3540   11.0270    5.0130 O   0  0  0  0  0  0  0  0  0  0  0  0
    4.6310    6.8110    7.7530 Cl  0  0  0  0  0  0  0  0  0  0  0  0
    6.0012    7.5425    3.2521 H   0  0  0  0  0  0  0  0  0  0  0  0
    1.7752    6.9197    3.8173 H   0  0  0  0  0  0  0  0  0  0  0  0
    5.7486    6.6287    1.0023 H   0  0  0  0  0  0  0  0  0  0  0  0
    6.8012    8.3860    8.5307 H   0  0  0  0  0  0  0  0  0  0  0  0
   -2.2887    4.9329    2.6481 H   0  0  0  0  0  0  0  0  0  0  0  0
   -2.7188    3.8748    1.5912 H   0  0  0  0  0  0  0  0  0  0  0  0
   -2.6788    5.9959   -0.3045 H   0  0  0  0  0  0  0  0  0  0  0  0
   -2.5068    7.0821    0.7960 H   0  0  0  0  0  0  0  0  0  0  0  0
    7.2772   10.9069    2.9324 H   0  0  0  0  0  0  0  0  0  0  0  0
    6.1537   12.0886    3.6738 H   0  0  0  0  0  0  0  0  0  0  0  0
   -0.1342    4.8282    0.2477 H   0  0  0  0  0  0  0  0  0  0  0  0
    3.0928    7.6845    5.6010 H   0  0  0  0  0  0  0  0  0  0  0  0
    1.5258    5.4500    0.3783 H   0  0  0  0  0  0  0  0  0  0  0  0
  1  3  2  0
  1  5  1  0
  2  5  2  0
  2  9  1  0
  3 16  1  0
  4  8  2  0
  4 17  1  0
  5 18  1  0
  6  7  2  0
  6  8  1  0
  6 18  1  0
  7 10  1  0
  7 21  1  0
  8 23  1  0
  9 16  2  0
  9 19  1  0
 10 17  2  0
 10 22  1  0
 11 15  1  0
 11 19  1  0
 11 20  2  0
 12 13  1  0
 12 15  1  0
 13 15  1  0
 14 21  1  0
 14 22  1  0
  1 24  1  0
  2 25  1  0
  3 26  1  0
  4 27  1  0
 12 28  1  0
 12 29  1  0
 13 30  1  0
 13 31  1  0
 14 32  1  0
 14 33  1  0
 15 34  1  0
 18 35  1  0
 19 36  1  0
A    1
C1
A    2
C5
A    3
C2
A    4
C10
A    5
C6
A    6
C8
A    7
C13
A    8
C9
A    9
C4
A   10
C12
A   11
C19
A   12
C22
A   13
C23
A   14
C15
A   15
C21
A   16
N3
A   17
N11
A   18
N7
A   19
N18
A   20
O20
A   21
O14
A   22
O16
A   23
CL
M  END
