5FRM_WA5_D_1018
     RDKit          3D

 37 39  0  0  0  0  0  0  0  0999 V2000
  -37.1700   30.9280  -22.3380 N   0  0  0  0  0  0  0  0  0  0  0  0
  -37.2240   33.3150  -22.7420 O   0  0  0  0  0  0  0  0  0  0  0  0
  -36.3710   33.8800  -18.8740 O   0  0  0  0  0  0  0  0  0  0  0  0
  -36.0140   31.9470  -17.1500 O   0  0  0  0  0  0  0  0  0  0  0  0
  -41.9320   38.5170  -21.1250 F   0  0  0  0  0  0  0  0  0  0  0  0
  -37.8350   36.9250  -19.4350 F   0  0  0  0  0  0  0  0  0  0  0  0
  -36.6150   27.7860  -19.6800 C   0  0  0  0  0  0  0  0  0  0  0  0
  -36.3190   28.1050  -18.3560 C   0  0  0  0  0  0  0  0  0  0  0  0
  -40.4000   37.4490  -22.5850 C   0  0  0  0  0  0  0  0  0  0  0  0
  -39.1760   36.8160  -22.7830 C   0  0  0  0  0  0  0  0  0  0  0  0
  -36.8090   28.8090  -20.6030 C   0  0  0  0  0  0  0  0  0  0  0  0
  -39.8730   37.7220  -20.2550 C   0  0  0  0  0  0  0  0  0  0  0  0
  -37.0680   35.9930  -21.9350 C   0  0  0  0  0  0  0  0  0  0  0  0
  -36.2180   29.4490  -17.9490 N   0  0  0  0  0  0  0  0  0  0  0  0
  -36.8900   34.8040  -21.0750 N   0  0  0  0  0  0  0  0  0  0  0  0
  -36.9750   33.5540  -21.5610 C   0  0  0  0  0  0  0  0  0  0  0  0
  -40.7480   37.9010  -21.3190 C   0  0  0  0  0  0  0  0  0  0  0  0
  -36.8820   31.1870  -21.0640 C   0  0  0  0  0  0  0  0  0  0  0  0
  -38.6520   37.0880  -20.4560 C   0  0  0  0  0  0  0  0  0  0  0  0
  -38.2970   36.6240  -21.7200 C   0  0  0  0  0  0  0  0  0  0  0  0
  -36.7870   32.5090  -20.6510 C   0  0  0  0  0  0  0  0  0  0  0  0
  -36.4790   32.7360  -19.3090 C   0  0  0  0  0  0  0  0  0  0  0  0
  -36.7020   30.1300  -20.1810 C   0  0  0  0  0  0  0  0  0  0  0  0
  -36.4060   30.4270  -18.8530 C   0  0  0  0  0  0  0  0  0  0  0  0
  -36.3030   31.7050  -18.4600 N   0  0  0  0  0  0  0  0  0  0  0  0
  -37.2443   29.9529  -22.6612 H   0  0  0  0  0  0  0  0  0  0  0  0
  -36.6318   31.4297  -16.5748 H   0  0  0  0  0  0  0  0  0  0  0  0
  -36.6946   26.7344  -19.9927 H   0  0  0  0  0  0  0  0  0  0  0  0
  -36.1630   27.2999  -17.6228 H   0  0  0  0  0  0  0  0  0  0  0  0
  -41.0901   37.5908  -23.4298 H   0  0  0  0  0  0  0  0  0  0  0  0
  -38.9006   36.4643  -23.7882 H   0  0  0  0  0  0  0  0  0  0  0  0
  -37.0438   28.5762  -21.6521 H   0  0  0  0  0  0  0  0  0  0  0  0
  -40.1464   38.0823  -19.2523 H   0  0  0  0  0  0  0  0  0  0  0  0
  -37.0105   35.6798  -22.9879 H   0  0  0  0  0  0  0  0  0  0  0  0
  -36.2728   36.7109  -21.6855 H   0  0  0  0  0  0  0  0  0  0  0  0
  -36.6948   34.9377  -20.0725 H   0  0  0  0  0  0  0  0  0  0  0  0
  -37.8629   32.5148  -20.4221 H   0  0  0  0  0  0  0  0  0  0  0  0
  1 18  2  3
  2 16  2  0
 22  3  2  0
 25  4  1  0
 17  5  1  0
 19  6  1  0
 11  7  2  0
  7  8  1  0
  8 14  2  0
 10  9  2  0
  9 17  1  0
 10 20  1  0
 11 23  1  0
 17 12  2  0
 19 12  1  0
 13 20  1  0
 13 15  1  0
 24 14  1  0
 16 15  1  0
 16 21  1  0
 18 21  1  0
 18 23  1  0
 20 19  2  0
 21 22  1  0
 22 25  1  0
 23 24  2  0
 24 25  1  0
  1 26  1  0
  4 27  1  0
  7 28  1  0
  8 29  1  0
  9 30  1  0
 10 31  1  0
 11 32  1  0
 12 33  1  0
 13 34  1  0
 13 35  1  0
 15 36  1  0
 21 37  1  0
A    1
NAA
A    2
OAB
A    3
OAC
A    4
OAD
A    5
FAE
A    6
FAF
A    7
CAG
A    8
CAH
A    9
CAI
A   10
CAJ
A   11
CAK
A   12
CAL
A   13
CAM
A   14
NAN
A   15
NAO
A   16
CAP
A   17
CAQ
A   18
CAR
A   19
CAS
A   20
CAT
A   21
CAU
A   22
CAV
A   23
CAW
A   24
CAX
A   25
NAY
M  END
