4BUQ_KGM_A_201
     RDKit          3D

 45 45  0  0  0  0  0  0  0  0999 V2000
   21.5880   -4.6460    5.2170 O   0  0  0  0  0  0  0  0  0  0  0  0
   21.9480   -5.2020    6.5060 C   0  0  0  0  0  0  0  0  0  0  0  0
   20.7850   -6.0600    7.0150 C   0  0  0  0  0  0  0  0  0  0  0  0
   20.1990   -5.8900   13.5660 C   0  0  0  0  0  0  0  0  0  0  0  0
   19.6130   -5.2220    7.1330 O   0  0  0  0  0  0  0  0  0  0  0  0
   20.4940   -7.1770    6.0630 C   0  0  0  0  0  0  0  0  0  0  0  0
   21.6730   -8.0430    5.9980 O   0  0  0  0  0  0  0  0  0  0  0  0
   19.3210   -7.9820    6.5990 C   0  0  0  0  0  0  0  0  0  0  0  0
   19.0330   -9.0150    5.6520 O   0  0  0  0  0  0  0  0  0  0  0  0
   18.0940   -7.0760    6.7340 C   0  0  0  0  0  0  0  0  0  0  0  0
   17.7700   -6.5580    5.4730 O   0  0  0  0  0  0  0  0  0  0  0  0
   18.4280   -5.9240    7.6330 C   0  0  0  0  0  0  0  0  0  0  0  0
   18.7600   -6.4330    8.9360 O   0  0  0  0  0  0  0  0  0  0  0  0
   19.0290   -5.4320    9.9330 C   0  0  0  0  0  0  0  0  0  0  0  0
   19.4450   -6.1850   11.2030 C   0  0  0  0  0  0  0  0  0  0  0  0
   19.7640   -5.1740   12.2920 C   0  0  0  0  0  0  0  0  0  0  0  0
   21.3020   -4.5610   17.0320 C   0  0  0  0  0  0  0  0  0  0  0  0
   20.9730   -5.5570   15.9150 C   0  0  0  0  0  0  0  0  0  0  0  0
   20.5220   -4.8420   14.6400 C   0  0  0  0  0  0  0  0  0  0  0  0
   21.0548   -3.8225    5.3501 H   0  0  0  0  0  0  0  0  0  0  0  0
   22.1458   -4.3872    7.2180 H   0  0  0  0  0  0  0  0  0  0  0  0
   22.8531   -5.8193    6.4075 H   0  0  0  0  0  0  0  0  0  0  0  0
   21.0556   -6.4921    7.9897 H   0  0  0  0  0  0  0  0  0  0  0  0
   21.0934   -6.4968   13.3615 H   0  0  0  0  0  0  0  0  0  0  0  0
   19.3907   -6.5477   13.9183 H   0  0  0  0  0  0  0  0  0  0  0  0
   20.2530   -6.7815    5.0652 H   0  0  0  0  0  0  0  0  0  0  0  0
   21.9721   -8.2627    6.9158 H   0  0  0  0  0  0  0  0  0  0  0  0
   19.5666   -8.4063    7.5837 H   0  0  0  0  0  0  0  0  0  0  0  0
   18.8006   -9.8484    6.1332 H   0  0  0  0  0  0  0  0  0  0  0  0
   17.2540   -7.6550    7.1454 H   0  0  0  0  0  0  0  0  0  0  0  0
   17.2483   -5.7239    5.5830 H   0  0  0  0  0  0  0  0  0  0  0  0
   17.5644   -5.2437    7.6697 H   0  0  0  0  0  0  0  0  0  0  0  0
   18.1261   -4.8336   10.1243 H   0  0  0  0  0  0  0  0  0  0  0  0
   19.8194   -4.7423    9.6019 H   0  0  0  0  0  0  0  0  0  0  0  0
   20.3352   -6.7968   10.9948 H   0  0  0  0  0  0  0  0  0  0  0  0
   18.6263   -6.8418   11.5322 H   0  0  0  0  0  0  0  0  0  0  0  0
   18.8679   -4.5716   12.5020 H   0  0  0  0  0  0  0  0  0  0  0  0
   20.5824   -4.5240   11.9490 H   0  0  0  0  0  0  0  0  0  0  0  0
   21.1436   -5.0405   18.0092 H   0  0  0  0  0  0  0  0  0  0  0  0
   22.3521   -4.2454   16.9443 H   0  0  0  0  0  0  0  0  0  0  0  0
   20.6465   -3.6820   16.9443 H   0  0  0  0  0  0  0  0  0  0  0  0
   21.8703   -6.1530   15.6921 H   0  0  0  0  0  0  0  0  0  0  0  0
   20.1500   -6.2009   16.2586 H   0  0  0  0  0  0  0  0  0  0  0  0
   19.6245   -4.2422   14.8515 H   0  0  0  0  0  0  0  0  0  0  0  0
   21.3238   -4.1791   14.2827 H   0  0  0  0  0  0  0  0  0  0  0  0
 17 18  1  0
 18 19  1  0
 19  4  1  0
  4 16  1  0
 16 15  1  0
 15 14  1  0
 14 13  1  0
 13 12  1  0
 12 10  1  0
 12  5  1  0
 10 11  1  0
 10  8  1  0
  8  9  1  0
  8  6  1  0
  6  7  1  0
  6  3  1  0
  3  5  1  0
  3  2  1  0
  2  1  1  0
  1 20  1  0
  2 21  1  0
  2 22  1  0
  3 23  1  0
  4 24  1  0
  4 25  1  0
  6 26  1  0
  7 27  1  0
  8 28  1  0
  9 29  1  0
 10 30  1  0
 11 31  1  0
 12 32  1  0
 14 33  1  0
 14 34  1  0
 15 35  1  0
 15 36  1  0
 16 37  1  0
 16 38  1  0
 17 39  1  0
 17 40  1  0
 17 41  1  0
 18 42  1  0
 18 43  1  0
 19 44  1  0
 19 45  1  0
A    1
O6
A    2
C6
A    3
C5
A    4
C10
A    5
O5
A    6
C4
A    7
O4
A    8
C3
A    9
O3
A   10
C2
A   11
O2
A   12
C1
A   13
O1
A   14
C7
A   15
C8
A   16
C9
A   17
C13
A   18
C12
A   19
C11
M  END
