5FSK_H6Y_A_1157
     RDKit          3D

 48 50  0  0  0  0  0  0  0  0999 V2000
    3.8270   20.7820    2.5420 P   0  0  0  0  0  0  0  0  0  0  0  0
    2.5390   20.8360    3.2560 O   0  0  0  0  0  0  0  0  0  0  0  0
    3.7010   20.1890    1.1280 O   0  0  0  0  0  0  0  0  0  0  0  0
    4.9300   20.0250    3.3170 O   0  0  0  0  0  0  0  0  0  0  0  0
    5.6210   22.7640    1.5430 P   0  0  0  0  0  0  0  0  0  0  0  0
    6.1230   24.0670    1.9960 O   0  0  0  0  0  0  0  0  0  0  0  0
    5.3550   22.7710    0.0490 O   0  0  0  0  0  0  0  0  0  0  0  0
    4.3580   22.2760    2.3750 O   0  0  0  0  0  0  0  0  0  0  0  0
    8.0170   21.0370    1.3900 P   0  0  0  0  0  0  0  0  0  0  0  0
    8.1450   19.6970    2.0300 O   0  0  0  0  0  0  0  0  0  0  0  0
    7.9470   20.9110   -0.1410 O   0  0  0  0  0  0  0  0  0  0  0  0
    6.6690   21.6490    1.9660 O   0  0  0  0  0  0  0  0  0  0  0  0
    9.1270   22.1010    1.7290 O   0  0  0  0  0  0  0  0  0  0  0  0
   10.2530   21.7740    2.5640 C   0  0  0  0  0  0  0  0  0  0  0  0
   11.4830   21.6830    1.6990 C   0  0  0  0  0  0  0  0  0  0  0  0
   12.6550   21.6140    2.5380 O   0  0  0  0  0  0  0  0  0  0  0  0
   11.5630   20.4870    0.7390 C   0  0  0  0  0  0  0  0  0  0  0  0
   11.9100   20.9640   -0.5600 O   0  0  0  0  0  0  0  0  0  0  0  0
   12.6740   19.6180    1.3460 C   0  0  0  0  0  0  0  0  0  0  0  0
   13.3980   18.9330    0.3360 O   0  0  0  0  0  0  0  0  0  0  0  0
   13.5520   20.6950    1.9630 C   0  0  0  0  0  0  0  0  0  0  0  0
   14.5210   20.3280    2.9780 N   0  0  0  0  0  0  0  0  0  0  0  0
   14.2750   19.4810    4.0910 C   0  0  0  0  0  0  0  0  0  0  0  0
   13.2350   18.8840    4.3340 O   0  0  0  0  0  0  0  0  0  0  0  0
   15.4290   19.4590    4.8250 N   0  0  0  0  0  0  0  0  0  0  0  0
   16.3650   20.2910    4.2400 C   0  0  0  0  0  0  0  0  0  0  0  0
   17.6990   20.6690    4.4660 C   0  0  0  0  0  0  0  0  0  0  0  0
   18.3790   20.1970    5.5080 N   0  0  0  0  0  0  0  0  0  0  0  0
   18.3240   21.5060    3.6080 N   0  0  0  0  0  0  0  0  0  0  0  0
   17.6400   21.9820    2.5670 C   0  0  0  0  0  0  0  0  0  0  0  0
   15.7930   20.8530    3.0610 C   0  0  0  0  0  0  0  0  0  0  0  0
   16.3820   21.7110    2.2050 N   0  0  0  0  0  0  0  0  0  0  0  0
    3.4957   19.2227    1.1925 H   0  0  0  0  0  0  0  0  0  0  0  0
    4.7797   20.1282    4.2901 H   0  0  0  0  0  0  0  0  0  0  0  0
    4.3786   22.7967   -0.1122 H   0  0  0  0  0  0  0  0  0  0  0  0
    7.4807   20.0716   -0.3821 H   0  0  0  0  0  0  0  0  0  0  0  0
   10.3912   22.5578    3.3233 H   0  0  0  0  0  0  0  0  0  0  0  0
   10.0784   20.8135    3.0709 H   0  0  0  0  0  0  0  0  0  0  0  0
   11.4267   22.5862    1.0736 H   0  0  0  0  0  0  0  0  0  0  0  0
   10.6240   19.9252    0.6262 H   0  0  0  0  0  0  0  0  0  0  0  0
   12.4902   21.7616   -0.4746 H   0  0  0  0  0  0  0  0  0  0  0  0
   12.3158   18.8395    2.0357 H   0  0  0  0  0  0  0  0  0  0  0  0
   14.0490   18.3171    0.7567 H   0  0  0  0  0  0  0  0  0  0  0  0
   14.1905   21.0549    1.1428 H   0  0  0  0  0  0  0  0  0  0  0  0
   15.5777   18.9072    5.6819 H   0  0  0  0  0  0  0  0  0  0  0  0
   18.0684   20.4126    6.4661 H   0  0  0  0  0  0  0  0  0  0  0  0
   19.2159   19.6161    5.3564 H   0  0  0  0  0  0  0  0  0  0  0  0
   18.1814   22.6898    1.9222 H   0  0  0  0  0  0  0  0  0  0  0  0
  1  2  2  0
  1  3  1  0
  1  4  1  0
  1  8  1  0
  5  6  2  0
  5  7  1  0
  5  8  1  0
  5 12  1  0
  9 10  2  0
  9 11  1  0
  9 12  1  0
  9 13  1  0
 13 14  1  0
 14 15  1  0
 15 16  1  0
 15 17  1  0
 16 21  1  0
 17 18  1  0
 17 19  1  0
 19 20  1  0
 19 21  1  0
 21 22  1  0
 22 23  1  0
 22 31  1  0
 23 24  2  0
 23 25  1  0
 25 26  1  0
 26 27  1  0
 26 31  2  0
 32 31  1  0
 27 28  1  0
 27 29  2  0
 29 30  1  0
 30 32  2  0
  3 33  1  0
  4 34  1  0
  7 35  1  0
 11 36  1  0
 14 37  1  0
 14 38  1  0
 15 39  1  0
 17 40  1  0
 18 41  1  0
 19 42  1  0
 20 43  1  0
 21 44  1  0
 25 45  1  0
 28 46  1  0
 28 47  1  0
 30 48  1  0
A    1
PG
A    2
O1G
A    3
O2G
A    4
O3G
A    5
PB
A    6
O1B
A    7
O2B
A    8
O3B
A    9
PA
A   10
O1A
A   11
O2A
A   12
O3A
A   13
O5'
A   14
C5'
A   15
C4'
A   16
O4'
A   17
C3'
A   18
O3'
A   19
C2'
A   20
O2'
A   21
C1'
A   22
N9
A   23
C8
A   24
O8
A   25
N7
A   26
C5
A   27
C6
A   28
N6
A   29
N1
A   30
C2
A   31
C4
A   32
N3
M  END
