5FSL_UAN_A_1157
     RDKit          3D

 22 23  0  0  0  0  0  0  0  0999 V2000
   17.4620   19.5730    6.1990 O   0  0  0  0  0  0  0  0  0  0  0  0
   17.0380   20.1520    5.1830 C   0  0  0  0  0  0  0  0  0  0  0  0
   17.8180   21.0510    4.4630 N   0  0  0  0  0  0  0  0  0  0  0  0
   15.7010   20.0070    4.6120 C   0  0  0  0  0  0  0  0  0  0  0  0
   14.6750   19.1270    4.9140 N   0  0  0  0  0  0  0  0  0  0  0  0
   13.7420   19.4290    4.0360 C   0  0  0  0  0  0  0  0  0  0  0  0
   14.1480   20.3200    3.0970 N   0  0  0  0  0  0  0  0  0  0  0  0
   13.3760   20.7410    1.9270 C   0  0  0  0  0  0  0  0  0  0  0  0
   15.3960   20.7310    3.4730 C   0  0  0  0  0  0  0  0  0  0  0  0
   16.1930   21.5770    2.7980 N   0  0  0  0  0  0  0  0  0  0  0  0
   17.3800   21.7330    3.3560 C   0  0  0  0  0  0  0  0  0  0  0  0
   18.2760   22.4970    2.7340 N   0  0  0  0  0  0  0  0  0  0  0  0
   17.9760   23.3280    1.5800 C   0  0  0  0  0  0  0  0  0  0  0  0
   18.7840   21.2148    4.7805 H   0  0  0  0  0  0  0  0  0  0  0  0
   12.7295   18.9998    4.0612 H   0  0  0  0  0  0  0  0  0  0  0  0
   12.4547   21.2434    2.2570 H   0  0  0  0  0  0  0  0  0  0  0  0
   13.9765   21.4365    1.3223 H   0  0  0  0  0  0  0  0  0  0  0  0
   13.1165   19.8595    1.3223 H   0  0  0  0  0  0  0  0  0  0  0  0
   19.2414   22.4991    3.0930 H   0  0  0  0  0  0  0  0  0  0  0  0
   17.6207   24.3122    1.9193 H   0  0  0  0  0  0  0  0  0  0  0  0
   18.8849   23.4554    0.9736 H   0  0  0  0  0  0  0  0  0  0  0  0
   17.1953   22.8454    0.9736 H   0  0  0  0  0  0  0  0  0  0  0  0
  1  2  2  0
  2  3  1  0
  2  4  1  0
  3 11  1  0
  4  5  1  0
  4  9  2  0
  5  6  2  0
  6  7  1  0
  7  8  1  0
  7  9  1  0
  9 10  1  0
 10 11  2  0
 11 12  1  0
 12 13  1  0
  3 14  1  0
  6 15  1  0
  8 16  1  0
  8 17  1  0
  8 18  1  0
 12 19  1  0
 13 20  1  0
 13 21  1  0
 13 22  1  0
A    1
O
A    2
C2
A    3
N1
A    4
C3
A    5
N4
A    6
C5
A    7
N3
A    8
C6
A    9
C4
A   10
N2
A   11
C1
A   12
N
A   13
C
M  END
