5FSM_N91_A_202
     RDKit          3D

 25 26  0  0  0  0  0  0  0  0999 V2000
   15.2040   17.5980    6.6480 O   0  0  0  0  0  0  0  0  0  0  0  0
   16.3180   17.8300    7.0980 C   0  0  0  0  0  0  0  0  0  0  0  0
   16.9230   16.9750    8.1710 C   0  0  0  0  0  0  0  0  0  0  0  0
   17.0900   18.8870    6.6870 N   0  0  0  0  0  0  0  0  0  0  0  0
   16.8830   19.7510    5.5790 C   0  0  0  0  0  0  0  0  0  0  0  0
   17.9940   20.4070    5.0400 C   0  0  0  0  0  0  0  0  0  0  0  0
   17.8110   21.3010    3.9860 C   0  0  0  0  0  0  0  0  0  0  0  0
   18.7360   22.0210    3.2340 N   0  0  0  0  0  0  0  0  0  0  0  0
   18.0050   22.6760    2.3680 C   0  0  0  0  0  0  0  0  0  0  0  0
   16.6820   22.3850    2.4250 N   0  0  0  0  0  0  0  0  0  0  0  0
   15.6170   22.9500    1.6050 C   0  0  0  0  0  0  0  0  0  0  0  0
   16.5270   21.5280    3.4950 C   0  0  0  0  0  0  0  0  0  0  0  0
   15.4110   20.8790    4.0120 C   0  0  0  0  0  0  0  0  0  0  0  0
   15.5940   20.0380    5.1010 C   0  0  0  0  0  0  0  0  0  0  0  0
   16.6423   17.3717    9.1578 H   0  0  0  0  0  0  0  0  0  0  0  0
   16.5521   15.9442    8.0712 H   0  0  0  0  0  0  0  0  0  0  0  0
   18.0184   16.9818    8.0712 H   0  0  0  0  0  0  0  0  0  0  0  0
   17.9275   19.0786    7.2551 H   0  0  0  0  0  0  0  0  0  0  0  0
   19.0004   20.2199    5.4428 H   0  0  0  0  0  0  0  0  0  0  0  0
   18.4275   23.3999    1.6556 H   0  0  0  0  0  0  0  0  0  0  0  0
   14.8339   23.3654    2.2563 H   0  0  0  0  0  0  0  0  0  0  0  0
   16.0277   23.7488    0.9700 H   0  0  0  0  0  0  0  0  0  0  0  0
   15.1859   22.1620    0.9700 H   0  0  0  0  0  0  0  0  0  0  0  0
   14.4140   21.0275    3.5715 H   0  0  0  0  0  0  0  0  0  0  0  0
   14.7190   19.5910    5.5955 H   0  0  0  0  0  0  0  0  0  0  0  0
  1  2  2  0
  2  3  1  0
  2  4  1  0
  4  5  1  0
  5  6  2  0
  5 14  1  0
  6  7  1  0
  7  8  1  0
  7 12  2  0
  8  9  2  0
  9 10  1  0
 10 11  1  0
 10 12  1  0
 12 13  1  0
 13 14  2  0
  3 15  1  0
  3 16  1  0
  3 17  1  0
  4 18  1  0
  6 19  1  0
  9 20  1  0
 11 21  1  0
 11 22  1  0
 11 23  1  0
 13 24  1  0
 14 25  1  0
A    1
O10
A    2
C10
A    3
C11
A    4
N5
A    5
C5
A    6
C4
A    7
C9
A    8
N3
A    9
C2
A   10
N1
A   11
C1
A   12
C8
A   13
C7
A   14
C6
M  END
