5FSN_6Q3_A_201
     RDKit          3D

 26 26  0  0  0  0  0  0  0  0999 V2000
   15.8790   21.6550    4.7830 N   0  0  0  0  0  0  0  0  0  0  0  0
   17.1840   21.3420    4.6340 C   0  0  0  0  0  0  0  0  0  0  0  0
   17.6910   20.4230    5.4540 N   0  0  0  0  0  0  0  0  0  0  0  0
   18.0160   21.8760    3.7160 N   0  0  0  0  0  0  0  0  0  0  0  0
   17.5030   22.8020    2.8920 C   0  0  0  0  0  0  0  0  0  0  0  0
   18.4350   23.3880    1.8770 C   0  0  0  0  0  0  0  0  0  0  0  0
   15.4140   22.5830    3.9570 C   0  0  0  0  0  0  0  0  0  0  0  0
   16.1800   23.1950    2.9810 C   0  0  0  0  0  0  0  0  0  0  0  0
   10.3200   21.6220    4.5260 O   0  0  0  0  0  0  0  0  0  0  0  0
   10.8800   22.3540    5.5850 C   0  0  0  0  0  0  0  0  0  0  0  0
   11.9630   23.1580    4.9780 C   0  0  0  0  0  0  0  0  0  0  0  0
   13.2680   22.3990    5.0100 C   0  0  0  0  0  0  0  0  0  0  0  0
   14.1200   22.9930    4.0210 O   0  0  0  0  0  0  0  0  0  0  0  0
   17.6218   20.5485    6.4740 H   0  0  0  0  0  0  0  0  0  0  0  0
   18.1523   19.5868    5.0681 H   0  0  0  0  0  0  0  0  0  0  0  0
   19.2583   23.9057    2.3909 H   0  0  0  0  0  0  0  0  0  0  0  0
   18.8437   22.5841    1.2472 H   0  0  0  0  0  0  0  0  0  0  0  0
   17.8876   24.1047    1.2472 H   0  0  0  0  0  0  0  0  0  0  0  0
   15.7577   23.9566    2.3090 H   0  0  0  0  0  0  0  0  0  0  0  0
    9.7606   20.8907    4.8898 H   0  0  0  0  0  0  0  0  0  0  0  0
   10.1239   23.0095    6.0418 H   0  0  0  0  0  0  0  0  0  0  0  0
   11.2567   21.6964    6.3823 H   0  0  0  0  0  0  0  0  0  0  0  0
   11.7026   23.3861    3.9339 H   0  0  0  0  0  0  0  0  0  0  0  0
   12.0792   24.0889    5.5524 H   0  0  0  0  0  0  0  0  0  0  0  0
   13.7292   22.4814    6.0053 H   0  0  0  0  0  0  0  0  0  0  0  0
   13.1075   21.3310    4.8011 H   0  0  0  0  0  0  0  0  0  0  0  0
  1  2  2  0
  1  7  1  0
  2  3  1  0
  2  4  1  0
  4  5  2  0
  5  6  1  0
  5  8  1  0
  7  8  2  0
  7 13  1  0
  9 10  1  0
 10 11  1  0
 11 12  1  0
 12 13  1  0
  3 14  1  0
  3 15  1  0
  6 16  1  0
  6 17  1  0
  6 18  1  0
  8 19  1  0
  9 20  1  0
 10 21  1  0
 10 22  1  0
 11 23  1  0
 11 24  1  0
 12 25  1  0
 12 26  1  0
A    1
N3
A    2
C2
A    3
N2
A    4
N1
A    5
C6
A    6
C7
A    7
C4
A    8
C5
A    9
O1'
A   10
C1'
A   11
C2'
A   12
C3'
A   13
O3'
M  END
