5FUN_GZA_A_1756
     RDKit          3D

 37 40  0  0  0  0  0  0  0  0999 V2000
   85.4640   58.7090   10.4110 C   0  0  0  0  0  0  0  0  0  0  0  0
   85.5060   57.2060   10.8890 C   0  0  0  0  0  0  0  0  0  0  0  0
   84.6090   56.7590   11.8800 C   0  0  0  0  0  0  0  0  0  0  0  0
   84.6430   55.4200   12.3110 C   0  0  0  0  0  0  0  0  0  0  0  0
   85.5640   54.5350   11.7610 C   0  0  0  0  0  0  0  0  0  0  0  0
   86.4630   54.9780   10.7720 C   0  0  0  0  0  0  0  0  0  0  0  0
   86.4290   56.3250   10.3380 C   0  0  0  0  0  0  0  0  0  0  0  0
   86.6560   59.3910   10.8690 N   0  0  0  0  0  0  0  0  0  0  0  0
   86.7900   60.0460   12.0530 C   0  0  0  0  0  0  0  0  0  0  0  0
   88.0830   60.5690   12.1050 C   0  0  0  0  0  0  0  0  0  0  0  0
   88.7240   60.1910   10.9100 C   0  0  0  0  0  0  0  0  0  0  0  0
   87.8270   59.4830   10.1850 N   0  0  0  0  0  0  0  0  0  0  0  0
   88.6680   61.3150   13.1680 O   0  0  0  0  0  0  0  0  0  0  0  0
   88.1480   62.6090   13.3060 C   0  0  0  0  0  0  0  0  0  0  0  0
   88.8200   63.5170   14.1850 N   0  0  0  0  0  0  0  0  0  0  0  0
   88.3390   64.8140   14.3600 C   0  0  0  0  0  0  0  0  0  0  0  0
   87.1030   65.2580   13.6170 C   0  0  0  0  0  0  0  0  0  0  0  0
   86.5980   66.5840   13.7840 C   0  0  0  0  0  0  0  0  0  0  0  0
   85.4680   66.9440   13.0850 C   0  0  0  0  0  0  0  0  0  0  0  0
   84.8370   66.0770   12.2600 N   0  0  0  0  0  0  0  0  0  0  0  0
   85.3040   64.8320   12.1000 C   0  0  0  0  0  0  0  0  0  0  0  0
   86.4630   64.3920   12.7810 C   0  0  0  0  0  0  0  0  0  0  0  0
   86.9690   63.0340   12.6000 N   0  0  0  0  0  0  0  0  0  0  0  0
   88.9150   65.5830   15.1080 O   0  0  0  0  0  0  0  0  0  0  0  0
   85.4200   58.7440    9.3124 H   0  0  0  0  0  0  0  0  0  0  0  0
   84.5740   59.2031   10.8278 H   0  0  0  0  0  0  0  0  0  0  0  0
   83.8810   57.4582   12.3173 H   0  0  0  0  0  0  0  0  0  0  0  0
   83.9408   55.0731   13.0833 H   0  0  0  0  0  0  0  0  0  0  0  0
   85.5902   53.4885   12.0987 H   0  0  0  0  0  0  0  0  0  0  0  0
   87.1913   54.2778   10.3369 H   0  0  0  0  0  0  0  0  0  0  0  0
   87.1314   56.6736    9.5665 H   0  0  0  0  0  0  0  0  0  0  0  0
   86.0180   60.1458   12.8302 H   0  0  0  0  0  0  0  0  0  0  0  0
   89.7587   60.4266   10.6202 H   0  0  0  0  0  0  0  0  0  0  0  0
   89.6633   63.2107   14.6909 H   0  0  0  0  0  0  0  0  0  0  0  0
   87.0990   67.2986   14.4536 H   0  0  0  0  0  0  0  0  0  0  0  0
   85.0680   67.9622   13.2001 H   0  0  0  0  0  0  0  0  0  0  0  0
   84.7770   64.1395   11.4272 H   0  0  0  0  0  0  0  0  0  0  0  0
  1  2  1  0
  1  8  1  0
  2  3  2  0
  2  7  1  0
  3  4  1  0
  4  5  2  0
  5  6  1  0
  6  7  2  0
  8  9  1  0
  8 12  1  0
  9 10  2  0
 10 11  1  0
 10 13  1  0
 11 12  2  0
 13 14  1  0
 14 15  1  0
 14 23  2  0
 15 16  1  0
 16 17  1  0
 16 24  2  0
 17 18  2  0
 17 22  1  0
 18 19  1  0
 19 20  2  0
 20 21  1  0
 21 22  2  0
 22 23  1  0
  1 25  1  0
  1 26  1  0
  3 27  1  0
  4 28  1  0
  5 29  1  0
  6 30  1  0
  7 31  1  0
  9 32  1  0
 11 33  1  0
 15 34  1  0
 18 35  1  0
 19 36  1  0
 21 37  1  0
A    1
C01
A    2
C02
A    3
C03
A    4
C04
A    5
C05
A    6
C06
A    7
C07
A    8
N08
A    9
C09
A   10
C10
A   11
C11
A   12
N12
A   13
O13
A   14
C14
A   15
N15
A   16
C16
A   17
C17
A   18
C18
A   19
C19
A   20
N20
A   21
C21
A   22
C22
A   23
N23
A   24
O24
M  END
