5FVR_H65_A_800
     RDKit          3D

 49 51  0  0  0  0  0  0  0  0999 V2000
   13.2280    0.2280   23.7180 N   0  0  0  0  0  0  0  0  0  0  0  0
   14.5080    0.2500   23.2900 C   0  0  0  0  0  0  0  0  0  0  0  0
   15.4050   -0.6060   23.8600 N   0  0  0  0  0  0  0  0  0  0  0  0
   14.8720    1.1270   22.2680 C   0  0  0  0  0  0  0  0  0  0  0  0
   13.9150    1.9770   21.7130 C   0  0  0  0  0  0  0  0  0  0  0  0
   12.6080    1.9270   22.1830 C   0  0  0  0  0  0  0  0  0  0  0  0
   12.2810    1.0520   23.2170 C   0  0  0  0  0  0  0  0  0  0  0  0
   14.2720    2.9420   20.6040 C   0  0  0  0  0  0  0  0  0  0  0  0
   10.8480    0.9400   23.7030 C   0  0  0  0  0  0  0  0  0  0  0  0
   10.3750   -0.0200   22.6010 C   0  0  0  0  0  0  0  0  0  0  0  0
    7.5580   -2.3050   21.6340 N   0  0  0  0  0  0  0  0  0  0  0  0
    8.7340   -1.6620   21.6850 C   0  0  0  0  0  0  0  0  0  0  0  0
    9.0140   -0.6860   22.6470 C   0  0  0  0  0  0  0  0  0  0  0  0
    8.0370   -0.3730   23.5800 C   0  0  0  0  0  0  0  0  0  0  0  0
    6.8210   -1.0550   23.5130 C   0  0  0  0  0  0  0  0  0  0  0  0
    6.6030   -2.0200   22.5250 C   0  0  0  0  0  0  0  0  0  0  0  0
    5.9650    0.6670   25.0690 C   0  0  0  0  0  0  0  0  0  0  0  0
    5.7530   -0.7340   24.4930 C   0  0  0  0  0  0  0  0  0  0  0  0
    5.7240   -1.7260   25.6480 C   0  0  0  0  0  0  0  0  0  0  0  0
    4.7940    0.9980   25.9830 C   0  0  0  0  0  0  0  0  0  0  0  0
    4.5560   -1.3540   26.5570 C   0  0  0  0  0  0  0  0  0  0  0  0
    4.7310    0.0170   27.0800 N   0  0  0  0  0  0  0  0  0  0  0  0
    3.6010    0.3560   27.9550 C   0  0  0  0  0  0  0  0  0  0  0  0
   15.4740   -0.6718   24.8856 H   0  0  0  0  0  0  0  0  0  0  0  0
   16.0131   -1.1863   23.2646 H   0  0  0  0  0  0  0  0  0  0  0  0
   15.9089    1.1482   21.9014 H   0  0  0  0  0  0  0  0  0  0  0  0
   11.8362    2.5744   21.7413 H   0  0  0  0  0  0  0  0  0  0  0  0
   14.6223    3.8889   21.0406 H   0  0  0  0  0  0  0  0  0  0  0  0
   15.0690    2.5077   19.9825 H   0  0  0  0  0  0  0  0  0  0  0  0
   13.3843    3.1310   19.9825 H   0  0  0  0  0  0  0  0  0  0  0  0
   10.7741    0.5008   24.7088 H   0  0  0  0  0  0  0  0  0  0  0  0
   10.2862    1.8778   23.8247 H   0  0  0  0  0  0  0  0  0  0  0  0
   10.4074    0.5502   21.6609 H   0  0  0  0  0  0  0  0  0  0  0  0
   11.0553   -0.8746   22.7308 H   0  0  0  0  0  0  0  0  0  0  0  0
    9.5067   -1.9114   20.9429 H   0  0  0  0  0  0  0  0  0  0  0  0
    8.2152    0.3911   24.3510 H   0  0  0  0  0  0  0  0  0  0  0  0
    5.6392   -2.5483   22.4805 H   0  0  0  0  0  0  0  0  0  0  0  0
    6.9027    0.6936   25.6435 H   0  0  0  0  0  0  0  0  0  0  0  0
    6.0257    1.4033   24.2541 H   0  0  0  0  0  0  0  0  0  0  0  0
    4.7970   -0.7891   23.9518 H   0  0  0  0  0  0  0  0  0  0  0  0
    5.5860   -2.7463   25.2609 H   0  0  0  0  0  0  0  0  0  0  0  0
    6.6707   -1.6908   26.2070 H   0  0  0  0  0  0  0  0  0  0  0  0
    4.9295    2.0064   26.4010 H   0  0  0  0  0  0  0  0  0  0  0  0
    3.8583    0.9613   25.4059 H   0  0  0  0  0  0  0  0  0  0  0  0
    3.6186   -1.4071   25.9838 H   0  0  0  0  0  0  0  0  0  0  0  0
    4.5210   -2.0579   27.4016 H   0  0  0  0  0  0  0  0  0  0  0  0
    3.9107    0.2631   29.0064 H   0  0  0  0  0  0  0  0  0  0  0  0
    3.2811    1.3897   27.7569 H   0  0  0  0  0  0  0  0  0  0  0  0
    2.7650   -0.3309   27.7569 H   0  0  0  0  0  0  0  0  0  0  0  0
  3  2  1  0
  2  4  1  0
  2  1  2  0
  4  5  2  0
  5  6  1  0
  5  8  1  0
  6  7  2  0
  1  7  1  0
  7  9  1  0
  9 10  1  0
 10 13  1  0
 13 12  1  0
 13 14  2  0
 12 11  2  0
 11 16  1  0
 16 15  2  0
 14 15  1  0
 15 18  1  0
 18 19  1  0
 18 17  1  0
 19 21  1  0
 17 20  1  0
 20 22  1  0
 22 21  1  0
 22 23  1  0
  3 24  1  0
  3 25  1  0
  4 26  1  0
  6 27  1  0
  8 28  1  0
  8 29  1  0
  8 30  1  0
  9 31  1  0
  9 32  1  0
 10 33  1  0
 10 34  1  0
 12 35  1  0
 14 36  1  0
 16 37  1  0
 17 38  1  0
 17 39  1  0
 18 40  1  0
 19 41  1  0
 19 42  1  0
 20 43  1  0
 20 44  1  0
 21 45  1  0
 21 46  1  0
 23 47  1  0
 23 48  1  0
 23 49  1  0
A    1
N01
A    2
C02
A    3
N02
A    4
C03
A    5
C04
A    6
C05
A    7
C06
A    8
C07
A    9
C08
A   10
C09
A   11
N11
A   12
C12
A   13
C13
A   14
C14
A   15
C15
A   16
C16
A   17
C23
A   18
C24
A   19
C25
A   20
C22
A   21
C26
A   22
N21
A   23
C27
M  END
