5FVQ_W64_A_800
     RDKit          3D

 48 50  0  0  0  0  0  0  0  0999 V2000
   13.2910    0.0040   23.6480 N   0  0  0  0  0  0  0  0  0  0  0  0
   14.5770    0.0650   23.2490 C   0  0  0  0  0  0  0  0  0  0  0  0
   15.4720   -0.7680   23.8560 N   0  0  0  0  0  0  0  0  0  0  0  0
   14.9460    0.9560   22.2330 C   0  0  0  0  0  0  0  0  0  0  0  0
   13.9720    1.7730   21.6520 C   0  0  0  0  0  0  0  0  0  0  0  0
   12.6600    1.6850   22.1050 C   0  0  0  0  0  0  0  0  0  0  0  0
   12.3350    0.7970   23.1240 C   0  0  0  0  0  0  0  0  0  0  0  0
   14.2980    2.7590   20.5490 C   0  0  0  0  0  0  0  0  0  0  0  0
   10.8980    0.6580   23.5840 C   0  0  0  0  0  0  0  0  0  0  0  0
   10.3450   -0.1350   22.3930 C   0  0  0  0  0  0  0  0  0  0  0  0
    7.4800   -2.4270   21.6600 N   0  0  0  0  0  0  0  0  0  0  0  0
    8.6640   -1.8070   21.6190 C   0  0  0  0  0  0  0  0  0  0  0  0
    8.9830   -0.7870   22.5180 C   0  0  0  0  0  0  0  0  0  0  0  0
    8.0490   -0.4120   23.4780 C   0  0  0  0  0  0  0  0  0  0  0  0
    6.8180   -1.0730   23.5020 C   0  0  0  0  0  0  0  0  0  0  0  0
    6.5640   -2.0840   22.5710 C   0  0  0  0  0  0  0  0  0  0  0  0
    5.7040   -1.8050   25.4460 C   0  0  0  0  0  0  0  0  0  0  0  0
    5.8340   -0.7370   24.4550 N   0  0  0  0  0  0  0  0  0  0  0  0
    6.1210    0.5490   25.0900 C   0  0  0  0  0  0  0  0  0  0  0  0
    4.4590   -1.4560   26.2550 C   0  0  0  0  0  0  0  0  0  0  0  0
    4.8610    0.8850   25.8820 C   0  0  0  0  0  0  0  0  0  0  0  0
    4.6540   -0.1510   26.9090 N   0  0  0  0  0  0  0  0  0  0  0  0
    3.4820    0.1850   27.7330 C   0  0  0  0  0  0  0  0  0  0  0  0
   15.5193   -0.8120   24.8840 H   0  0  0  0  0  0  0  0  0  0  0  0
   16.1000   -1.3525   23.2860 H   0  0  0  0  0  0  0  0  0  0  0  0
   15.9916    1.0121   21.8959 H   0  0  0  0  0  0  0  0  0  0  0  0
   11.8797    2.3179   21.6571 H   0  0  0  0  0  0  0  0  0  0  0  0
   14.6139    3.7146   20.9930 H   0  0  0  0  0  0  0  0  0  0  0  0
   15.1111    2.3572   19.9266 H   0  0  0  0  0  0  0  0  0  0  0  0
   13.4056    2.9211   19.9266 H   0  0  0  0  0  0  0  0  0  0  0  0
   10.8184    0.0968   24.5267 H   0  0  0  0  0  0  0  0  0  0  0  0
   10.3782    1.6010   23.8088 H   0  0  0  0  0  0  0  0  0  0  0  0
   10.2948    0.5570   21.5394 H   0  0  0  0  0  0  0  0  0  0  0  0
   11.0377   -0.9839   22.2946 H   0  0  0  0  0  0  0  0  0  0  0  0
    9.4026   -2.1068   20.8609 H   0  0  0  0  0  0  0  0  0  0  0  0
    8.2740    0.3858   24.2011 H   0  0  0  0  0  0  0  0  0  0  0  0
    5.5955   -2.6053   22.5882 H   0  0  0  0  0  0  0  0  0  0  0  0
    5.5799   -2.7784   24.9490 H   0  0  0  0  0  0  0  0  0  0  0  0
    6.5974   -1.8837   26.0828 H   0  0  0  0  0  0  0  0  0  0  0  0
    6.9888    0.4644   25.7607 H   0  0  0  0  0  0  0  0  0  0  0  0
    6.3680    1.3284   24.3542 H   0  0  0  0  0  0  0  0  0  0  0  0
    3.5879   -1.4049   25.5853 H   0  0  0  0  0  0  0  0  0  0  0  0
    4.2868   -2.2289   27.0185 H   0  0  0  0  0  0  0  0  0  0  0  0
    3.9949    0.9119   25.2044 H   0  0  0  0  0  0  0  0  0  0  0  0
    4.9727    1.8687   26.3614 H   0  0  0  0  0  0  0  0  0  0  0  0
    3.7482    0.1087   28.7976 H   0  0  0  0  0  0  0  0  0  0  0  0
    3.1584    1.2121   27.5087 H   0  0  0  0  0  0  0  0  0  0  0  0
    2.6633   -0.5146   27.5087 H   0  0  0  0  0  0  0  0  0  0  0  0
  8  5  1  0
  7  6  1  0
  7  1  2  0
  7  9  1  0
  6  5  2  0
  5  4  1  0
  4  2  2  0
  2  3  1  0
  2  1  1  0
  9 10  1  0
 10 13  1  0
 16 15  1  0
 16 11  2  0
 15 14  2  0
 15 18  1  0
 14 13  1  0
 13 12  2  0
 12 11  1  0
 18 17  1  0
 18 19  1  0
 17 20  1  0
 20 22  1  0
 22 23  1  0
 22 21  1  0
 21 19  1  0
  3 24  1  0
  3 25  1  0
  4 26  1  0
  6 27  1  0
  8 28  1  0
  8 29  1  0
  8 30  1  0
  9 31  1  0
  9 32  1  0
 10 33  1  0
 10 34  1  0
 12 35  1  0
 14 36  1  0
 16 37  1  0
 17 38  1  0
 17 39  1  0
 19 40  1  0
 19 41  1  0
 20 42  1  0
 20 43  1  0
 21 44  1  0
 21 45  1  0
 23 46  1  0
 23 47  1  0
 23 48  1  0
A    1
N01
A    2
C02
A    3
N02
A    4
C03
A    5
C04
A    6
C05
A    7
C06
A    8
C07
A    9
C08
A   10
C09
A   11
N11
A   12
C12
A   13
C13
A   14
C14
A   15
C15
A   16
C16
A   17
C22
A   18
N21
A   19
C26
A   20
C23
A   21
C25
A   22
N24
A   23
C27
M  END
