5FW0_W30_A_800
     RDKit          3D

 46 47  0  0  0  0  0  0  0  0999 V2000
   14.0390    2.8290   20.6150 C   0  0  0  0  0  0  0  0  0  0  0  0
   12.2480    1.2840   23.5990 C   0  0  0  0  0  0  0  0  0  0  0  0
   12.5340    2.0920   22.4980 C   0  0  0  0  0  0  0  0  0  0  0  0
   13.7410    1.9440   21.8200 C   0  0  0  0  0  0  0  0  0  0  0  0
   14.6450    0.9740   22.2570 C   0  0  0  0  0  0  0  0  0  0  0  0
   14.3270    0.1810   23.3720 C   0  0  0  0  0  0  0  0  0  0  0  0
   15.1730   -0.7810   23.8340 N   0  0  0  0  0  0  0  0  0  0  0  0
   13.1440    0.3530   24.0030 N   0  0  0  0  0  0  0  0  0  0  0  0
   10.9280    1.4360   24.3360 C   0  0  0  0  0  0  0  0  0  0  0  0
    9.8660    0.6180   23.6030 C   0  0  0  0  0  0  0  0  0  0  0  0
    6.0020    1.0130   25.3920 C   0  0  0  0  0  0  0  0  0  0  0  0
    6.7590    2.1630   25.1670 C   0  0  0  0  0  0  0  0  0  0  0  0
    8.0230    2.0610   24.5870 C   0  0  0  0  0  0  0  0  0  0  0  0
    8.4990    0.8020   24.2340 C   0  0  0  0  0  0  0  0  0  0  0  0
    7.6980   -0.3080   24.4920 C   0  0  0  0  0  0  0  0  0  0  0  0
    6.4850   -0.1870   25.0520 N   0  0  0  0  0  0  0  0  0  0  0  0
    6.2600    3.4270   25.5190 N   0  0  0  0  0  0  0  0  0  0  0  0
    5.5160    3.6030   26.7620 C   0  0  0  0  0  0  0  0  0  0  0  0
    6.4900    4.5550   24.6220 C   0  0  0  0  0  0  0  0  0  0  0  0
    5.2060    4.7940   23.8420 C   0  0  0  0  0  0  0  0  0  0  0  0
    5.4620    4.5120   22.4680 O   0  0  0  0  0  0  0  0  0  0  0  0
    5.4170    3.1190   22.1560 C   0  0  0  0  0  0  0  0  0  0  0  0
   14.3723    3.8187   20.9604 H   0  0  0  0  0  0  0  0  0  0  0  0
   14.8311    2.3668   20.0075 H   0  0  0  0  0  0  0  0  0  0  0  0
   13.1287    2.9400   20.0075 H   0  0  0  0  0  0  0  0  0  0  0  0
   11.8056    2.8462   22.1656 H   0  0  0  0  0  0  0  0  0  0  0  0
   15.6007    0.8315   21.7313 H   0  0  0  0  0  0  0  0  0  0  0  0
   15.2931   -0.9176   24.8478 H   0  0  0  0  0  0  0  0  0  0  0  0
   15.6928   -1.3720   23.1696 H   0  0  0  0  0  0  0  0  0  0  0  0
   11.0341    1.0673   25.3669 H   0  0  0  0  0  0  0  0  0  0  0  0
   10.6332    2.4953   24.3661 H   0  0  0  0  0  0  0  0  0  0  0  0
    9.8234    0.9440   22.5533 H   0  0  0  0  0  0  0  0  0  0  0  0
   10.1393   -0.4455   23.6683 H   0  0  0  0  0  0  0  0  0  0  0  0
    5.0052    1.0934   25.8503 H   0  0  0  0  0  0  0  0  0  0  0  0
    8.6328    2.9596   24.4117 H   0  0  0  0  0  0  0  0  0  0  0  0
    8.0697   -1.3096   24.2298 H   0  0  0  0  0  0  0  0  0  0  0  0
    6.1887    3.4439   27.6177 H   0  0  0  0  0  0  0  0  0  0  0  0
    5.1060    4.6229   26.8027 H   0  0  0  0  0  0  0  0  0  0  0  0
    4.6925    2.8749   26.8027 H   0  0  0  0  0  0  0  0  0  0  0  0
    6.7465    5.4516   25.2055 H   0  0  0  0  0  0  0  0  0  0  0  0
    7.3229    4.3391   23.9367 H   0  0  0  0  0  0  0  0  0  0  0  0
    4.4131    4.1303   24.2172 H   0  0  0  0  0  0  0  0  0  0  0  0
    4.8766    5.8367   23.9615 H   0  0  0  0  0  0  0  0  0  0  0  0
    5.3981    2.5349   23.0879 H   0  0  0  0  0  0  0  0  0  0  0  0
    4.5114    2.9036   21.5699 H   0  0  0  0  0  0  0  0  0  0  0  0
    6.3068    2.8456   21.5699 H   0  0  0  0  0  0  0  0  0  0  0  0
  7  6  1  0
  6  5  2  0
  6  8  1  0
  5  4  1  0
  4  1  1  0
  4  3  2  0
  3  2  1  0
  8  2  2  0
  2  9  1  0
  9 10  1  0
 10 14  1  0
 14 15  1  0
 14 13  2  0
 15 16  2  0
 13 12  1  0
 12 11  2  0
 12 17  1  0
 11 16  1  0
 17 18  1  0
 17 19  1  0
 19 20  1  0
 20 21  1  0
 21 22  1  0
  1 23  1  0
  1 24  1  0
  1 25  1  0
  3 26  1  0
  5 27  1  0
  7 28  1  0
  7 29  1  0
  9 30  1  0
  9 31  1  0
 10 32  1  0
 10 33  1  0
 11 34  1  0
 13 35  1  0
 15 36  1  0
 18 37  1  0
 18 38  1  0
 18 39  1  0
 19 40  1  0
 19 41  1  0
 20 42  1  0
 20 43  1  0
 22 44  1  0
 22 45  1  0
 22 46  1  0
A    1
C07
A    2
C06
A    3
C05
A    4
C04
A    5
C03
A    6
C02
A    7
N02
A    8
N01
A    9
C08
A   10
C09
A   11
C16
A   12
C15
A   13
C14
A   14
C13
A   15
C12
A   16
N11
A   17
N17
A   18
C18
A   19
C19
A   20
C20
A   21
O21
A   22
C22
M  END
