4X50_3X8_A_301
     RDKit          3D

 44 46  0  0  0  0  0  0  0  0999 V2000
  -21.0150   -6.8340  -11.2780 C   0  0  0  0  0  0  0  0  0  0  0  0
  -21.4650   -5.8590  -12.3560 C   0  0  0  0  0  0  0  0  0  0  0  0
  -22.7030   -5.0940  -11.8750 C   0  0  0  0  0  0  0  0  0  0  0  0
  -19.7810   -7.5730  -11.7600 C   0  0  0  0  0  0  0  0  0  0  0  0
  -21.2550   -3.5070  -19.7290 C   0  0  0  0  0  0  0  0  0  0  0  0
  -21.7630   -3.1600  -20.9790 C   0  0  0  0  0  0  0  0  0  0  0  0
  -22.5030   -4.0770  -21.7170 C   0  0  0  0  0  0  0  0  0  0  0  0
  -22.7360   -5.3460  -21.2050 C   0  0  0  0  0  0  0  0  0  0  0  0
  -22.2250   -5.6930  -19.9590 C   0  0  0  0  0  0  0  0  0  0  0  0
  -21.4840   -4.7780  -19.2150 C   0  0  0  0  0  0  0  0  0  0  0  0
  -20.9820   -5.1520  -17.9650 C   0  0  0  0  0  0  0  0  0  0  0  0
  -20.8570   -4.2340  -16.9210 C   0  0  0  0  0  0  0  0  0  0  0  0
  -20.3580   -4.6330  -15.6790 C   0  0  0  0  0  0  0  0  0  0  0  0
  -20.6020   -6.4720  -17.7580 C   0  0  0  0  0  0  0  0  0  0  0  0
  -20.1040   -6.8680  -16.5260 C   0  0  0  0  0  0  0  0  0  0  0  0
  -19.9790   -5.9600  -15.4820 C   0  0  0  0  0  0  0  0  0  0  0  0
  -19.4830   -6.4460  -14.3050 O   0  0  0  0  0  0  0  0  0  0  0  0
  -19.2280   -5.6120  -13.1600 C   0  0  0  0  0  0  0  0  0  0  0  0
  -20.4080   -4.9290  -12.6680 O   0  0  0  0  0  0  0  0  0  0  0  0
  -22.3900   -4.3590  -10.6880 O   0  0  0  0  0  0  0  0  0  0  0  0
  -22.0680   -7.7690  -11.0330 O   0  0  0  0  0  0  0  0  0  0  0  0
  -19.3360   -8.5030  -10.7610 O   0  0  0  0  0  0  0  0  0  0  0  0
  -18.6990   -6.5400  -12.0680 C   0  0  0  0  0  0  0  0  0  0  0  0
  -18.3780   -5.7800  -10.8930 O   0  0  0  0  0  0  0  0  0  0  0  0
  -20.7776   -6.2913  -10.3511 H   0  0  0  0  0  0  0  0  0  0  0  0
  -21.7142   -6.4265  -13.2648 H   0  0  0  0  0  0  0  0  0  0  0  0
  -23.0289   -4.3965  -12.6607 H   0  0  0  0  0  0  0  0  0  0  0  0
  -23.5089   -5.8099  -11.6560 H   0  0  0  0  0  0  0  0  0  0  0  0
  -20.0102   -8.1498  -12.6682 H   0  0  0  0  0  0  0  0  0  0  0  0
  -20.6730   -2.7755  -19.1491 H   0  0  0  0  0  0  0  0  0  0  0  0
  -21.5775   -2.1544  -21.3845 H   0  0  0  0  0  0  0  0  0  0  0  0
  -22.9024   -3.7978  -22.7032 H   0  0  0  0  0  0  0  0  0  0  0  0
  -23.3230   -6.0749  -21.7830 H   0  0  0  0  0  0  0  0  0  0  0  0
  -22.4079   -6.7004  -19.5569 H   0  0  0  0  0  0  0  0  0  0  0  0
  -21.1542   -3.1866  -17.0779 H   0  0  0  0  0  0  0  0  0  0  0  0
  -20.2645   -3.9040  -14.8606 H   0  0  0  0  0  0  0  0  0  0  0  0
  -20.6964   -7.2046  -18.5731 H   0  0  0  0  0  0  0  0  0  0  0  0
  -19.8039   -7.9152  -16.3732 H   0  0  0  0  0  0  0  0  0  0  0  0
  -18.5168   -4.8228  -13.4453 H   0  0  0  0  0  0  0  0  0  0  0  0
  -22.6212   -4.9019   -9.8931 H   0  0  0  0  0  0  0  0  0  0  0  0
  -22.1915   -7.8786  -10.0569 H   0  0  0  0  0  0  0  0  0  0  0  0
  -19.5141   -8.1309   -9.8610 H   0  0  0  0  0  0  0  0  0  0  0  0
  -17.7829   -7.0476  -12.4044 H   0  0  0  0  0  0  0  0  0  0  0  0
  -18.6014   -6.3090  -10.0866 H   0  0  0  0  0  0  0  0  0  0  0  0
  7  8  2  0
  7  6  1  0
  8  9  1  0
  6  5  2  0
  9 10  2  0
  5 10  1  0
 10 11  1  0
 11 14  1  0
 11 12  2  0
 14 15  2  0
 12 13  1  0
 15 16  1  0
 13 16  2  0
 16 17  1  0
 17 18  1  0
 18 19  1  0
 18 23  1  0
 19  2  1  0
  2  3  1  0
  2  1  1  0
 23  4  1  0
 23 24  1  0
  3 20  1  0
  4  1  1  0
  4 22  1  0
  1 21  1  0
  1 25  1  0
  2 26  1  0
  3 27  1  0
  3 28  1  0
  4 29  1  0
  5 30  1  0
  6 31  1  0
  7 32  1  0
  8 33  1  0
  9 34  1  0
 12 35  1  0
 13 36  1  0
 14 37  1  0
 15 38  1  0
 18 39  1  0
 20 40  1  0
 21 41  1  0
 22 42  1  0
 23 43  1  0
 24 44  1  0
A    1
C4
A    2
C5
A    3
C6
A    4
C3
A    5
CAH
A    6
CAI
A    7
CAJ
A    8
CAK
A    9
CAL
A   10
CAG
A   11
CAD
A   12
CAC
A   13
CAB
A   14
CAE
A   15
CAF
A   16
CAA
A   17
O1
A   18
C1
A   19
O5
A   20
O6
A   21
O4
A   22
O3
A   23
C2
A   24
O2
M  END
