5FYB_77J_A_1760
     RDKit          3D

 33 34  0  0  0  0  0  0  0  0999 V2000
   85.8900   88.7880   14.6300 C   0  0  0  0  0  0  0  0  0  0  0  0
   85.1740   89.8550   14.1540 N   0  0  0  0  0  0  0  0  0  0  0  0
   84.4550   91.1330   12.4220 O   0  0  0  0  0  0  0  0  0  0  0  0
   85.8230   88.5240   16.3610 S   0  0  0  0  0  0  0  0  0  0  0  0
   86.5620   88.2370   12.5110 C   0  0  0  0  0  0  0  0  0  0  0  0
   86.5810   87.9820   13.8660 N   0  0  0  0  0  0  0  0  0  0  0  0
   91.7620   86.6660   17.3530 O   0  0  0  0  0  0  0  0  0  0  0  0
   85.8660   89.2910   11.9630 C   0  0  0  0  0  0  0  0  0  0  0  0
   90.4450   87.0750   17.5360 N   0  0  0  0  0  0  0  0  0  0  0  0
   89.6270   86.1200   15.6760 O   0  0  0  0  0  0  0  0  0  0  0  0
   85.1260   90.1590   12.8020 C   0  0  0  0  0  0  0  0  0  0  0  0
   87.2930   87.3070   11.6360 C   0  0  0  0  0  0  0  0  0  0  0  0
   86.9260   87.1480   10.3040 C   0  0  0  0  0  0  0  0  0  0  0  0
   87.5810   86.2340    9.4970 C   0  0  0  0  0  0  0  0  0  0  0  0
   88.6060   85.4680   10.0080 C   0  0  0  0  0  0  0  0  0  0  0  0
   88.9890   85.6240   11.3230 C   0  0  0  0  0  0  0  0  0  0  0  0
   88.3430   86.5400   12.1360 C   0  0  0  0  0  0  0  0  0  0  0  0
   87.2290   87.4020   16.5880 C   0  0  0  0  0  0  0  0  0  0  0  0
   88.5670   88.1030   16.4990 C   0  0  0  0  0  0  0  0  0  0  0  0
   89.5990   87.0050   16.5270 C   0  0  0  0  0  0  0  0  0  0  0  0
   84.6570   90.4477   14.8191 H   0  0  0  0  0  0  0  0  0  0  0  0
   92.1917   86.5326   18.2349 H   0  0  0  0  0  0  0  0  0  0  0  0
   85.8848   89.4584   10.8760 H   0  0  0  0  0  0  0  0  0  0  0  0
   90.1335   87.4294   18.4516 H   0  0  0  0  0  0  0  0  0  0  0  0
   86.1077   87.7542    9.8881 H   0  0  0  0  0  0  0  0  0  0  0  0
   87.2824   86.1188    8.4446 H   0  0  0  0  0  0  0  0  0  0  0  0
   89.1174   84.7338    9.3682 H   0  0  0  0  0  0  0  0  0  0  0  0
   89.8122   85.0176   11.7286 H   0  0  0  0  0  0  0  0  0  0  0  0
   88.6605   86.6627   13.1820 H   0  0  0  0  0  0  0  0  0  0  0  0
   87.1453   86.9315   17.5788 H   0  0  0  0  0  0  0  0  0  0  0  0
   87.1920   86.6607   15.7762 H   0  0  0  0  0  0  0  0  0  0  0  0
   88.6397   88.6752   15.5624 H   0  0  0  0  0  0  0  0  0  0  0  0
   88.7090   88.8178   17.3229 H   0  0  0  0  0  0  0  0  0  0  0  0
  1  2  1  0
  1  4  1  0
  1  6  2  0
  2 11  1  0
  3 11  2  0
  4 18  1  0
  5  6  1  0
  5  8  2  0
  5 12  1  0
  7  9  1  0
  8 11  1  0
  9 20  1  0
 10 20  2  0
 12 13  2  0
 12 17  1  0
 13 14  1  0
 14 15  2  0
 15 16  1  0
 16 17  2  0
 18 19  1  0
 19 20  1  0
  2 21  1  0
  7 22  1  0
  8 23  1  0
  9 24  1  0
 13 25  1  0
 14 26  1  0
 15 27  1  0
 16 28  1  0
 17 29  1  0
 18 30  1  0
 18 31  1  0
 19 32  1  0
 19 33  1  0
A    1
C
A    2
N
A    3
O
A    4
S
A    5
C1
A    6
N1
A    7
O1
A    8
C2
A    9
N2
A   10
O2
A   11
C3
A   12
C4
A   13
C5
A   14
C6
A   15
C7
A   16
C8
A   17
C9
A   18
C10
A   19
C11
A   20
C12
M  END
