5FYT_WQS_A_1757
     RDKit          3D

 23 24  0  0  0  0  0  0  0  0999 V2000
   86.1040   66.1720   13.6350 C   0  0  0  0  0  0  0  0  0  0  0  0
   86.1120   64.7530   14.1900 C   0  0  0  0  0  0  0  0  0  0  0  0
   87.3370   64.3880   14.6750 C   0  0  0  0  0  0  0  0  0  0  0  0
   87.8800   63.2680   14.2120 N   0  0  0  0  0  0  0  0  0  0  0  0
   86.9100   62.7290   13.1790 C   0  0  0  0  0  0  0  0  0  0  0  0
   86.9120   61.6220   12.3580 C   0  0  0  0  0  0  0  0  0  0  0  0
   85.8210   61.4050   11.4940 C   0  0  0  0  0  0  0  0  0  0  0  0
   84.7280   62.3290   11.4590 C   0  0  0  0  0  0  0  0  0  0  0  0
   84.7270   63.4660   12.2970 C   0  0  0  0  0  0  0  0  0  0  0  0
   85.7850   63.6860   13.1510 C   0  0  0  0  0  0  0  0  0  0  0  0
   83.6950   62.1170   10.6240 F   0  0  0  0  0  0  0  0  0  0  0  0
   87.8860   65.0400   15.5330 O   0  0  0  0  0  0  0  0  0  0  0  0
   84.6780   66.6720   13.4840 C   0  0  0  0  0  0  0  0  0  0  0  0
   84.1270   66.6070   12.3540 O   0  0  0  0  0  0  0  0  0  0  0  0
   84.0430   67.1370   14.4780 O   0  0  0  0  0  0  0  0  0  0  0  0
   86.6494   66.8339   14.3238 H   0  0  0  0  0  0  0  0  0  0  0  0
   86.5892   66.1723   12.6478 H   0  0  0  0  0  0  0  0  0  0  0  0
   85.3430   64.7933   14.9755 H   0  0  0  0  0  0  0  0  0  0  0  0
   88.7775   62.8505   14.4968 H   0  0  0  0  0  0  0  0  0  0  0  0
   87.7556   60.9163   12.3773 H   0  0  0  0  0  0  0  0  0  0  0  0
   85.8087   60.5194   10.8416 H   0  0  0  0  0  0  0  0  0  0  0  0
   83.8847   64.1729   12.2677 H   0  0  0  0  0  0  0  0  0  0  0  0
   84.3374   66.9214   15.3983 H   0  0  0  0  0  0  0  0  0  0  0  0
  1  2  1  0
  1 13  1  0
  2  3  1  0
  2 10  1  0
  3  4  1  0
  3 12  2  0
  4  5  1  0
  5  6  2  0
  5 10  1  0
  6  7  1  0
  7  8  2  0
  8  9  1  0
  8 11  1  0
  9 10  2  0
 13 14  2  0
 13 15  1  0
  1 16  1  0
  1 17  1  0
  2 18  1  0
  4 19  1  0
  6 20  1  0
  7 21  1  0
  9 22  1  0
 15 23  1  0
A    1
C01
A    2
C02
A    3
C03
A    4
N04
A    5
C05
A    6
C06
A    7
C07
A    8
C08
A    9
C09
A   10
C10
A   11
F11
A   12
O12
A   13
C13
A   14
O14
A   15
O15
M  END
