5FYY_N6Y_A_1758
     RDKit          3D

 23 24  0  0  0  0  0  0  0  0999 V2000
   85.9660   66.4390   13.4720 C   0  0  0  0  0  0  0  0  0  0  0  0
   83.9520   66.1730   12.2090 N   0  0  0  0  0  0  0  0  0  0  0  0
   84.8210   66.9340   12.8860 C   0  0  0  0  0  0  0  0  0  0  0  0
   84.1240   59.9050   10.7900 N   0  0  0  0  0  0  0  0  0  0  0  0
   84.2340   64.8720   12.1030 C   0  0  0  0  0  0  0  0  0  0  0  0
   85.3620   64.2670   12.6420 C   0  0  0  0  0  0  0  0  0  0  0  0
   86.2370   65.0930   13.3460 C   0  0  0  0  0  0  0  0  0  0  0  0
   85.6460   62.8280   12.4510 C   0  0  0  0  0  0  0  0  0  0  0  0
   84.7530   62.0320   11.7330 C   0  0  0  0  0  0  0  0  0  0  0  0
   85.0090   60.6760   11.5240 C   0  0  0  0  0  0  0  0  0  0  0  0
   86.1740   60.1200   12.0510 C   0  0  0  0  0  0  0  0  0  0  0  0
   87.0700   60.9040   12.7550 C   0  0  0  0  0  0  0  0  0  0  0  0
   86.8050   62.2460   12.9550 C   0  0  0  0  0  0  0  0  0  0  0  0
   86.6469   67.1014   14.0266 H   0  0  0  0  0  0  0  0  0  0  0  0
   84.6103   68.0096   12.9793 H   0  0  0  0  0  0  0  0  0  0  0  0
   83.4382   59.3075   11.2732 H   0  0  0  0  0  0  0  0  0  0  0  0
   84.1514   59.9288    9.7606 H   0  0  0  0  0  0  0  0  0  0  0  0
   83.5251   64.2367   11.5517 H   0  0  0  0  0  0  0  0  0  0  0  0
   87.1447   64.6704   13.8015 H   0  0  0  0  0  0  0  0  0  0  0  0
   83.8343   62.4794   11.3259 H   0  0  0  0  0  0  0  0  0  0  0  0
   86.3821   59.0497   11.9058 H   0  0  0  0  0  0  0  0  0  0  0  0
   87.9932   60.4598   13.1556 H   0  0  0  0  0  0  0  0  0  0  0  0
   87.5200   62.8620   13.5202 H   0  0  0  0  0  0  0  0  0  0  0  0
  1  3  2  0
  1  7  1  0
  2  3  1  0
  2  5  2  0
  4 10  1  0
  5  6  1  0
  6  7  2  0
  6  8  1  0
  8  9  2  0
  8 13  1  0
  9 10  1  0
 10 11  2  0
 11 12  1  0
 12 13  2  0
  1 14  1  0
  3 15  1  0
  4 16  1  0
  4 17  1  0
  5 18  1  0
  7 19  1  0
  9 20  1  0
 11 21  1  0
 12 22  1  0
 13 23  1  0
A    1
C
A    2
N
A    3
C1
A    4
N1
A    5
C2
A    6
C3
A    7
C4
A    8
C5
A    9
C6
A   10
C7
A   11
C8
A   12
C9
A   13
C10
M  END
