5FZ9_NUK_A_1767
     RDKit          3D

 15 16  0  0  0  0  0  0  0  0999 V2000
   44.0550   68.3960    0.4550 O   0  0  0  0  0  0  0  0  0  0  0  0
   44.2790   67.8580    1.5270 C   0  0  0  0  0  0  0  0  0  0  0  0
   43.6040   66.8510    1.9870 O   0  0  0  0  0  0  0  0  0  0  0  0
   45.3880   68.2940    2.3870 C   0  0  0  0  0  0  0  0  0  0  0  0
   45.7950   67.7660    3.5850 C   0  0  0  0  0  0  0  0  0  0  0  0
   46.4160   69.5910    1.8710 S   0  0  0  0  0  0  0  0  0  0  0  0
   47.4270   69.4140    3.2670 C   0  0  0  0  0  0  0  0  0  0  0  0
   48.5930   70.0810    3.7490 C   0  0  0  0  0  0  0  0  0  0  0  0
   46.9640   68.4070    4.0770 C   0  0  0  0  0  0  0  0  0  0  0  0
   47.9770   68.2660    5.4560 S   0  0  0  0  0  0  0  0  0  0  0  0
   48.9860   69.5510    4.9330 C   0  0  0  0  0  0  0  0  0  0  0  0
   43.5157   66.7192    2.9642 H   0  0  0  0  0  0  0  0  0  0  0  0
   45.2786   66.9446    4.1033 H   0  0  0  0  0  0  0  0  0  0  0  0
   49.1012   70.9086    3.2324 H   0  0  0  0  0  0  0  0  0  0  0  0
   49.8596   69.9072    5.4987 H   0  0  0  0  0  0  0  0  0  0  0  0
  1  2  2  0
  2  3  1  0
  2  4  1  0
  4  5  2  0
  4  6  1  0
  5  9  1  0
  6  7  1  0
  7  8  1  0
  7  9  2  0
  8 11  2  0
  9 10  1  0
 10 11  1  0
  3 12  1  0
  5 13  1  0
  8 14  1  0
 11 15  1  0
A    1
O1
A    2
C5
A    3
O
A    4
C4
A    5
C3
A    6
S1
A    7
C6
A    8
C
A    9
C2
A   10
S
A   11
C1
M  END
