5FZC_D8S_A_1771
     RDKit          3D

 24 26  0  0  0  0  0  0  0  0999 V2000
   86.6230   87.5720    8.6220 C   0  0  0  0  0  0  0  0  0  0  0  0
   85.5710   88.5870    8.6330 C   0  0  0  0  0  0  0  0  0  0  0  0
   85.4370   89.4780    9.8130 C   0  0  0  0  0  0  0  0  0  0  0  0
   84.4760   90.4790    9.9320 C   0  0  0  0  0  0  0  0  0  0  0  0
   84.5260   91.2080   11.1420 C   0  0  0  0  0  0  0  0  0  0  0  0
   83.6010   92.3570   11.5470 C   0  0  0  0  0  0  0  0  0  0  0  0
   82.4040   92.4480   11.0110 O   0  0  0  0  0  0  0  0  0  0  0  0
   83.9980   93.2410   12.4290 O   0  0  0  0  0  0  0  0  0  0  0  0
   85.8520   90.5380   12.0750 S   0  0  0  0  0  0  0  0  0  0  0  0
   86.3290   89.3330   10.9230 C   0  0  0  0  0  0  0  0  0  0  0  0
   87.3790   88.3060   10.8970 C   0  0  0  0  0  0  0  0  0  0  0  0
   88.2300   88.2010   12.0030 C   0  0  0  0  0  0  0  0  0  0  0  0
   89.2240   87.2520   12.0090 C   0  0  0  0  0  0  0  0  0  0  0  0
   89.3870   86.3820   10.9000 C   0  0  0  0  0  0  0  0  0  0  0  0
   88.5440   86.4910    9.8040 C   0  0  0  0  0  0  0  0  0  0  0  0
   87.5380   87.4490    9.7950 C   0  0  0  0  0  0  0  0  0  0  0  0
   86.7394   86.9039    7.7559 H   0  0  0  0  0  0  0  0  0  0  0  0
   84.8871   88.6893    7.7775 H   0  0  0  0  0  0  0  0  0  0  0  0
   83.7355   90.6862    9.1454 H   0  0  0  0  0  0  0  0  0  0  0  0
   81.6048   92.5088   11.5921 H   0  0  0  0  0  0  0  0  0  0  0  0
   88.1039   88.8748   12.8633 H   0  0  0  0  0  0  0  0  0  0  0  0
   89.8953   87.1666   12.8762 H   0  0  0  0  0  0  0  0  0  0  0  0
   90.1816   85.6214   10.9095 H   0  0  0  0  0  0  0  0  0  0  0  0
   88.6719   85.8193    8.9424 H   0  0  0  0  0  0  0  0  0  0  0  0
  1  2  2  0
  1 16  1  0
  2  3  1  0
  3  4  1  0
  3 10  2  0
  4  5  2  0
  5  6  1  0
  5  9  1  0
  6  7  1  0
  6  8  2  0
  9 10  1  0
 10 11  1  0
 11 12  1  0
 11 16  2  0
 12 13  2  0
 13 14  1  0
 14 15  2  0
 15 16  1  0
  1 17  1  0
  2 18  1  0
  4 19  1  0
  7 20  1  0
 12 21  1  0
 13 22  1  0
 14 23  1  0
 15 24  1  0
A    1
C01
A    2
C02
A    3
C03
A    4
C04
A    5
C05
A    6
C06
A    7
O07
A    8
O08
A    9
S09
A   10
C10
A   11
C11
A   12
C12
A   13
C13
A   14
C14
A   15
C15
A   16
C16
M  END
