5FZF_UUN_A_1757
     RDKit          3D

 30 31  0  0  0  0  0  0  0  0999 V2000
   86.9040   87.1870   16.2750 C   0  0  0  0  0  0  0  0  0  0  0  0
   88.7900   88.4900   15.5990 N   0  0  0  0  0  0  0  0  0  0  0  0
   90.1530   88.6720   15.3830 O   0  0  0  0  0  0  0  0  0  0  0  0
   85.8710   88.6680   16.1770 S   0  0  0  0  0  0  0  0  0  0  0  0
   88.3250   87.2670   15.7460 C   0  0  0  0  0  0  0  0  0  0  0  0
   84.9800   90.0180   14.0390 N   0  0  0  0  0  0  0  0  0  0  0  0
   88.9730   86.2560   15.4810 O   0  0  0  0  0  0  0  0  0  0  0  0
   85.7460   88.9580   14.4500 C   0  0  0  0  0  0  0  0  0  0  0  0
   86.3670   88.1640   13.6170 N   0  0  0  0  0  0  0  0  0  0  0  0
   84.1130   91.3020   12.3770 O   0  0  0  0  0  0  0  0  0  0  0  0
   84.8100   90.3240   12.6940 C   0  0  0  0  0  0  0  0  0  0  0  0
   85.4780   89.4570   11.7860 C   0  0  0  0  0  0  0  0  0  0  0  0
   86.2270   88.4070   12.2670 C   0  0  0  0  0  0  0  0  0  0  0  0
   86.8990   87.4660   11.3530 C   0  0  0  0  0  0  0  0  0  0  0  0
   87.9960   86.7240   11.7810 C   0  0  0  0  0  0  0  0  0  0  0  0
   88.6090   85.8200   10.9270 C   0  0  0  0  0  0  0  0  0  0  0  0
   88.1400   85.6550    9.6410 C   0  0  0  0  0  0  0  0  0  0  0  0
   87.0600   86.3900    9.2020 C   0  0  0  0  0  0  0  0  0  0  0  0
   86.4380   87.2900   10.0530 C   0  0  0  0  0  0  0  0  0  0  0  0
   86.9664   86.9025   17.3357 H   0  0  0  0  0  0  0  0  0  0  0  0
   86.4068   86.4636   15.6121 H   0  0  0  0  0  0  0  0  0  0  0  0
   88.1549   89.2997   15.6432 H   0  0  0  0  0  0  0  0  0  0  0  0
   90.6197   88.7343   16.2539 H   0  0  0  0  0  0  0  0  0  0  0  0
   84.5170   90.6048   14.7477 H   0  0  0  0  0  0  0  0  0  0  0  0
   85.3964   89.6250   10.7020 H   0  0  0  0  0  0  0  0  0  0  0  0
   88.3792   86.8557   12.8036 H   0  0  0  0  0  0  0  0  0  0  0  0
   89.4714   85.2332   11.2762 H   0  0  0  0  0  0  0  0  0  0  0  0
   88.6278   84.9368    8.9655 H   0  0  0  0  0  0  0  0  0  0  0  0
   86.6907   86.2621    8.1738 H   0  0  0  0  0  0  0  0  0  0  0  0
   85.5732   87.8694    9.6973 H   0  0  0  0  0  0  0  0  0  0  0  0
  1  4  1  0
  1  5  1  0
  2  3  1  0
  2  5  1  0
  4  8  1  0
  5  7  2  0
  6  8  1  0
  6 11  1  0
  8  9  2  0
  9 13  1  0
 10 11  2  0
 11 12  1  0
 12 13  2  0
 13 14  1  0
 14 15  2  0
 14 19  1  0
 15 16  1  0
 16 17  2  0
 17 18  1  0
 18 19  2  0
  1 20  1  0
  1 21  1  0
  2 22  1  0
  3 23  1  0
  6 24  1  0
 12 25  1  0
 15 26  1  0
 16 27  1  0
 17 28  1  0
 18 29  1  0
 19 30  1  0
A    1
C
A    2
N
A    3
O
A    4
S
A    5
C1
A    6
N1
A    7
O1
A    8
C2
A    9
N2
A   10
O2
A   11
C3
A   12
C4
A   13
C5
A   14
C6
A   15
C7
A   16
C8
A   17
C9
A   18
C10
A   19
C11
M  END
