5FZH_0TI_A_1770
     RDKit          3D

 18 19  0  0  0  0  0  0  0  0999 V2000
   87.0190   62.5900   12.2110 C   0  0  0  0  0  0  0  0  0  0  0  0
   88.0160   60.4650   12.0590 F   0  0  0  0  0  0  0  0  0  0  0  0
   88.2390   65.4440   14.3080 N   0  0  0  0  0  0  0  0  0  0  0  0
   89.6260   66.2500   15.9520 O   0  0  0  0  0  0  0  0  0  0  0  0
   87.0170   63.8670   12.7560 C   0  0  0  0  0  0  0  0  0  0  0  0
   91.2900   63.9480   15.0400 O   0  0  0  0  0  0  0  0  0  0  0  0
   88.0260   64.2340   13.6500 C   0  0  0  0  0  0  0  0  0  0  0  0
   89.0460   63.3440   13.9810 C   0  0  0  0  0  0  0  0  0  0  0  0
   89.0740   62.0770   13.4030 C   0  0  0  0  0  0  0  0  0  0  0  0
   88.0440   61.7340   12.5530 C   0  0  0  0  0  0  0  0  0  0  0  0
   89.8770   63.9390   15.1120 C   0  0  0  0  0  0  0  0  0  0  0  0
   89.2830   65.3760   15.1650 C   0  0  0  0  0  0  0  0  0  0  0  0
   86.2225   62.2693   11.5234 H   0  0  0  0  0  0  0  0  0  0  0  0
   87.6693   66.2891   14.1593 H   0  0  0  0  0  0  0  0  0  0  0  0
   86.2275   64.5839   12.4861 H   0  0  0  0  0  0  0  0  0  0  0  0
   91.6671   63.9504   15.9554 H   0  0  0  0  0  0  0  0  0  0  0  0
   89.8914   61.3729   13.6177 H   0  0  0  0  0  0  0  0  0  0  0  0
   89.7925   63.3033   16.0057 H   0  0  0  0  0  0  0  0  0  0  0  0
  1  5  2  0
  1 10  1  0
  2 10  1  0
  3  7  1  0
  3 12  1  0
  4 12  2  0
  5  7  1  0
  6 11  1  0
  7  8  2  0
  8  9  1  0
  8 11  1  0
  9 10  2  0
 11 12  1  0
  1 13  1  0
  3 14  1  0
  5 15  1  0
  6 16  1  0
  9 17  1  0
 11 18  1  0
A    1
C
A    2
F
A    3
N
A    4
O
A    5
C1
A    6
O1
A    7
C2
A    8
C3
A    9
C4
A   10
C5
A   11
C6
A   12
C7
M  END
