5G0T_S72_A_1271
     RDKit          3D

 74 77  0  0  0  0  0  0  0  0999 V2000
   -3.3770    4.1040   27.0120 C   0  0  0  0  0  0  0  0  0  0  0  0
  -16.2310    3.8770   24.4330 F   0  0  0  0  0  0  0  0  0  0  0  0
   -6.8830    5.0490   27.7130 N   0  0  0  0  0  0  0  0  0  0  0  0
   -4.3760    6.8080   25.8350 O   0  0  0  0  0  0  0  0  0  0  0  0
   -4.8210    4.2930   27.3420 C   0  0  0  0  0  0  0  0  0  0  0  0
   -6.8350    3.8160   28.1640 N   0  0  0  0  0  0  0  0  0  0  0  0
  -11.2350    9.7250   23.5570 O   0  0  0  0  0  0  0  0  0  0  0  0
   -5.6450    5.3860   27.2580 C   0  0  0  0  0  0  0  0  0  0  0  0
   -5.5720    3.3650   27.9820 N   0  0  0  0  0  0  0  0  0  0  0  0
  -13.4980    6.8010   26.7300 O   0  0  0  0  0  0  0  0  0  0  0  0
   -5.2600    1.9850   28.3650 C   0  0  0  0  0  0  0  0  0  0  0  0
   -6.3830    7.5370   26.6070 N   0  0  0  0  0  0  0  0  0  0  0  0
   -5.4140    1.0300   27.2100 C   0  0  0  0  0  0  0  0  0  0  0  0
  -12.9420    9.2170   24.9430 N   0  0  0  0  0  0  0  0  0  0  0  0
   -4.2990    0.4200   26.6540 C   0  0  0  0  0  0  0  0  0  0  0  0
  -12.8190    8.2920   28.2630 N   0  0  0  0  0  0  0  0  0  0  0  0
   -4.4240   -0.4310   25.5660 C   0  0  0  0  0  0  0  0  0  0  0  0
   -5.6610   -0.6540   24.9970 C   0  0  0  0  0  0  0  0  0  0  0  0
   -6.7750   -0.0170   25.5120 C   0  0  0  0  0  0  0  0  0  0  0  0
   -6.6490    0.8330   26.6020 C   0  0  0  0  0  0  0  0  0  0  0  0
   -5.3990    6.6310   26.4980 C   0  0  0  0  0  0  0  0  0  0  0  0
   -6.4260    8.7450   25.7830 C   0  0  0  0  0  0  0  0  0  0  0  0
   -6.9300    9.9340   26.5920 C   0  0  0  0  0  0  0  0  0  0  0  0
   -8.4220    9.8500   26.8740 C   0  0  0  0  0  0  0  0  0  0  0  0
   -9.2370    9.7450   25.5920 C   0  0  0  0  0  0  0  0  0  0  0  0
   -8.7870    8.5040   24.8240 C   0  0  0  0  0  0  0  0  0  0  0  0
   -7.2780    8.5220   24.5280 C   0  0  0  0  0  0  0  0  0  0  0  0
  -10.7390    9.7570   25.8880 C   0  0  0  0  0  0  0  0  0  0  0  0
  -11.6550    9.5660   24.6980 C   0  0  0  0  0  0  0  0  0  0  0  0
  -13.9210    8.9760   23.8750 C   0  0  0  0  0  0  0  0  0  0  0  0
  -14.5630    7.6090   23.9690 C   0  0  0  0  0  0  0  0  0  0  0  0
  -13.8510    6.4640   23.6250 C   0  0  0  0  0  0  0  0  0  0  0  0
  -14.4040    5.2030   23.7790 C   0  0  0  0  0  0  0  0  0  0  0  0
  -15.6740    5.1090   24.2920 C   0  0  0  0  0  0  0  0  0  0  0  0
  -16.4060    6.2040   24.6660 C   0  0  0  0  0  0  0  0  0  0  0  0
  -15.8320    7.4550   24.5190 C   0  0  0  0  0  0  0  0  0  0  0  0
  -13.4860    9.1520   26.2890 C   0  0  0  0  0  0  0  0  0  0  0  0
  -13.0190    7.8990   27.0110 C   0  0  0  0  0  0  0  0  0  0  0  0
  -13.6970    7.9020   29.3520 C   0  0  0  0  0  0  0  0  0  0  0  0
   -2.7952    4.0278   27.9424 H   0  0  0  0  0  0  0  0  0  0  0  0
   -3.2526    3.1819   26.4252 H   0  0  0  0  0  0  0  0  0  0  0  0
   -3.0195    4.9630   26.4252 H   0  0  0  0  0  0  0  0  0  0  0  0
   -4.2214    1.9425   28.7248 H   0  0  0  0  0  0  0  0  0  0  0  0
   -5.9666    1.6829   29.1521 H   0  0  0  0  0  0  0  0  0  0  0  0
   -7.1334    7.3764   27.2941 H   0  0  0  0  0  0  0  0  0  0  0  0
   -3.3039    0.6135   27.0811 H   0  0  0  0  0  0  0  0  0  0  0  0
  -12.0109    8.8962   28.4698 H   0  0  0  0  0  0  0  0  0  0  0  0
   -3.5338   -0.9299   25.1553 H   0  0  0  0  0  0  0  0  0  0  0  0
   -5.7604   -1.3346   24.1386 H   0  0  0  0  0  0  0  0  0  0  0  0
   -7.7625   -0.1841   25.0572 H   0  0  0  0  0  0  0  0  0  0  0  0
   -7.5357    1.3565   26.9891 H   0  0  0  0  0  0  0  0  0  0  0  0
   -5.4016    8.9732   25.4536 H   0  0  0  0  0  0  0  0  0  0  0  0
   -6.3902    9.9643   27.5500 H   0  0  0  0  0  0  0  0  0  0  0  0
   -6.7503   10.8438   26.0004 H   0  0  0  0  0  0  0  0  0  0  0  0
   -8.6174    8.9622   27.4934 H   0  0  0  0  0  0  0  0  0  0  0  0
   -8.7229   10.7709   27.3949 H   0  0  0  0  0  0  0  0  0  0  0  0
   -9.0563   10.6241   24.9560 H   0  0  0  0  0  0  0  0  0  0  0  0
   -9.0201    7.6119   25.4238 H   0  0  0  0  0  0  0  0  0  0  0  0
   -9.3205    8.4891   23.8622 H   0  0  0  0  0  0  0  0  0  0  0  0
   -7.0701    9.3326   23.8141 H   0  0  0  0  0  0  0  0  0  0  0  0
   -7.0104    7.5368   24.1183 H   0  0  0  0  0  0  0  0  0  0  0  0
  -10.9465    8.9488   26.6047 H   0  0  0  0  0  0  0  0  0  0  0  0
  -10.9565   10.7658   26.2687 H   0  0  0  0  0  0  0  0  0  0  0  0
  -14.7093    9.7403   23.9412 H   0  0  0  0  0  0  0  0  0  0  0  0
  -13.3852    9.0262   22.9156 H   0  0  0  0  0  0  0  0  0  0  0  0
  -12.8314    6.5617   23.2238 H   0  0  0  0  0  0  0  0  0  0  0  0
  -13.8405    4.3011   23.4977 H   0  0  0  0  0  0  0  0  0  0  0  0
  -17.4222    6.0926   25.0721 H   0  0  0  0  0  0  0  0  0  0  0  0
  -16.3903    8.3455   24.8435 H   0  0  0  0  0  0  0  0  0  0  0  0
  -13.1539   10.0360   26.8532 H   0  0  0  0  0  0  0  0  0  0  0  0
  -14.5835    9.1254   26.2200 H   0  0  0  0  0  0  0  0  0  0  0  0
  -13.2079    8.1192   30.3131 H   0  0  0  0  0  0  0  0  0  0  0  0
  -14.6387    8.4665   29.2839 H   0  0  0  0  0  0  0  0  0  0  0  0
  -13.9095    6.8249   29.2839 H   0  0  0  0  0  0  0  0  0  0  0  0
  1  5  1  0
  2 34  1  0
  3  6  2  0
  3  8  1  0
  4 21  2  0
  5  8  2  0
  5  9  1  0
  6  9  1  0
  7 29  2  0
  8 21  1  0
  9 11  1  0
 10 38  2  0
 11 13  1  0
 12 21  1  0
 12 22  1  0
 13 15  2  0
 13 20  1  0
 14 29  1  0
 14 30  1  0
 14 37  1  0
 15 17  1  0
 16 38  1  0
 16 39  1  0
 17 18  2  0
 18 19  1  0
 19 20  2  0
 22 23  1  0
 22 27  1  0
 23 24  1  0
 24 25  1  0
 25 26  1  0
 25 28  1  0
 26 27  1  0
 28 29  1  0
 30 31  1  0
 31 32  2  0
 31 36  1  0
 32 33  1  0
 33 34  2  0
 34 35  1  0
 35 36  2  0
 37 38  1  0
  1 40  1  0
  1 41  1  0
  1 42  1  0
 11 43  1  0
 11 44  1  0
 12 45  1  0
 15 46  1  0
 16 47  1  0
 17 48  1  0
 18 49  1  0
 19 50  1  0
 20 51  1  0
 22 52  1  0
 23 53  1  0
 23 54  1  0
 24 55  1  0
 24 56  1  0
 25 57  1  0
 26 58  1  0
 26 59  1  0
 27 60  1  0
 27 61  1  0
 28 62  1  0
 28 63  1  0
 30 64  1  0
 30 65  1  0
 32 66  1  0
 33 67  1  0
 35 68  1  0
 36 69  1  0
 37 70  1  0
 37 71  1  0
 39 72  1  0
 39 73  1  0
 39 74  1  0
A    1
C
A    2
F
A    3
N
A    4
O
A    5
C1
A    6
N1
A    7
O1
A    8
C2
A    9
N2
A   10
O2
A   11
C3
A   12
N3
A   13
C4
A   14
N4
A   15
C5
A   16
N5
A   17
C6
A   18
C7
A   19
C8
A   20
C9
A   21
C10
A   22
C11
A   23
C12
A   24
C13
A   25
C14
A   26
C15
A   27
C16
A   28
C17
A   29
C18
A   30
C19
A   31
C20
A   32
C21
A   33
C22
A   34
C23
A   35
C24
A   36
C25
A   37
C26
A   38
C27
A   39
C28
M  END
