5G0W_9NU_B_1271
     RDKit          3D

 83 86  0  0  0  0  0  0  0  0999 V2000
   25.1640  -24.2450   24.3510 O   0  0  0  0  0  0  0  0  0  0  0  0
   24.0090  -24.6640   24.3260 C   0  0  0  0  0  0  0  0  0  0  0  0
   23.0110  -24.0940   23.3660 C   0  0  0  0  0  0  0  0  0  0  0  0
   21.6810  -23.8760   23.7290 C   0  0  0  0  0  0  0  0  0  0  0  0
   20.7580  -23.4350   22.7930 C   0  0  0  0  0  0  0  0  0  0  0  0
   21.1430  -23.1550   21.4860 C   0  0  0  0  0  0  0  0  0  0  0  0
   20.1410  -22.6600   20.4700 C   0  0  0  0  0  0  0  0  0  0  0  0
   19.6130  -21.3420   20.8190 N   0  0  0  0  0  0  0  0  0  0  0  0
   20.4250  -20.2550   20.8080 N   0  0  0  0  0  0  0  0  0  0  0  0
   19.6250  -19.2540   21.1570 C   0  0  0  0  0  0  0  0  0  0  0  0
   18.3400  -19.6920   21.4480 C   0  0  0  0  0  0  0  0  0  0  0  0
   18.3680  -21.0340   21.2240 C   0  0  0  0  0  0  0  0  0  0  0  0
   22.4820  -23.3060   21.1470 C   0  0  0  0  0  0  0  0  0  0  0  0
   23.4050  -23.7650   22.0700 C   0  0  0  0  0  0  0  0  0  0  0  0
   23.5780  -25.6420   25.1450 N   0  0  0  0  0  0  0  0  0  0  0  0
   24.3190  -26.0700   26.3290 C   0  0  0  0  0  0  0  0  0  0  0  0
   23.3640  -26.4360   27.4680 C   0  0  0  0  0  0  0  0  0  0  0  0
   22.4740  -27.4220   26.9070 O   0  0  0  0  0  0  0  0  0  0  0  0
   22.3050  -28.7270   27.5380 C   0  0  0  0  0  0  0  0  0  0  0  0
   23.5930  -29.5270   27.5260 C   0  0  0  0  0  0  0  0  0  0  0  0
   21.7520  -28.6210   28.9440 C   0  0  0  0  0  0  0  0  0  0  0  0
   21.2810  -29.3560   26.6180 C   0  0  0  0  0  0  0  0  0  0  0  0
   22.6210  -25.2480   28.0360 C   0  0  0  0  0  0  0  0  0  0  0  0
   25.4490  -27.0240   25.9460 C   0  0  0  0  0  0  0  0  0  0  0  0
   26.3980  -27.1760   26.7120 O   0  0  0  0  0  0  0  0  0  0  0  0
   25.3150  -27.7260   24.8130 N   0  0  0  0  0  0  0  0  0  0  0  0
   26.3100  -28.7120   24.3950 C   0  0  0  0  0  0  0  0  0  0  0  0
   27.4110  -28.1300   23.5000 C   0  0  0  0  0  0  0  0  0  0  0  0
   28.0410  -29.3400   22.9610 N   0  0  0  0  0  0  0  0  0  0  0  0
   27.0780  -30.4510   22.9390 C   0  0  0  0  0  0  0  0  0  0  0  0
   26.8390  -31.0740   21.5750 C   0  0  0  0  0  0  0  0  0  0  0  0
   26.8620  -30.2480   20.5390 N   0  0  0  0  0  0  0  0  0  0  0  0
   26.2090  -30.5730   19.2880 C   0  0  0  0  0  0  0  0  0  0  0  0
   26.5570  -32.2660   21.4870 O   0  0  0  0  0  0  0  0  0  0  0  0
   25.7900  -29.7950   23.4580 C   0  0  0  0  0  0  0  0  0  0  0  0
   29.3690  -29.5490   22.6840 C   0  0  0  0  0  0  0  0  0  0  0  0
   29.7840  -30.6580   22.3860 O   0  0  0  0  0  0  0  0  0  0  0  0
   30.3440  -28.4110   22.7820 C   0  0  0  0  0  0  0  0  0  0  0  0
   30.1290  -27.1750   22.1650 C   0  0  0  0  0  0  0  0  0  0  0  0
   31.0530  -26.1480   22.3040 C   0  0  0  0  0  0  0  0  0  0  0  0
   32.2310  -26.3600   22.9990 C   0  0  0  0  0  0  0  0  0  0  0  0
   32.4670  -27.5890   23.5960 C   0  0  0  0  0  0  0  0  0  0  0  0
   31.5420  -28.6160   23.4710 C   0  0  0  0  0  0  0  0  0  0  0  0
   21.3624  -24.0556   24.7664 H   0  0  0  0  0  0  0  0  0  0  0  0
   19.7064  -23.3047   23.0882 H   0  0  0  0  0  0  0  0  0  0  0  0
   20.6325  -22.5971   19.4879 H   0  0  0  0  0  0  0  0  0  0  0  0
   19.2998  -23.3685   20.4491 H   0  0  0  0  0  0  0  0  0  0  0  0
   19.9429  -18.2022   21.2093 H   0  0  0  0  0  0  0  0  0  0  0  0
   17.4860  -19.0866   21.7858 H   0  0  0  0  0  0  0  0  0  0  0  0
   17.5299  -21.7351   21.3504 H   0  0  0  0  0  0  0  0  0  0  0  0
   22.8137  -23.0566   20.1283 H   0  0  0  0  0  0  0  0  0  0  0  0
   24.4602  -23.8713   21.7782 H   0  0  0  0  0  0  0  0  0  0  0  0
   22.6863  -26.1091   24.9270 H   0  0  0  0  0  0  0  0  0  0  0  0
   24.8846  -25.2454   26.7873 H   0  0  0  0  0  0  0  0  0  0  0  0
   23.9185  -26.8260   28.3343 H   0  0  0  0  0  0  0  0  0  0  0  0
   23.9114  -29.7248   28.5602 H   0  0  0  0  0  0  0  0  0  0  0  0
   23.4271  -30.4812   27.0046 H   0  0  0  0  0  0  0  0  0  0  0  0
   24.3749  -28.9553   27.0046 H   0  0  0  0  0  0  0  0  0  0  0  0
   22.5637  -28.7766   29.6699 H   0  0  0  0  0  0  0  0  0  0  0  0
   21.3144  -27.6226   29.0916 H   0  0  0  0  0  0  0  0  0  0  0  0
   20.9763  -29.3868   29.0916 H   0  0  0  0  0  0  0  0  0  0  0  0
   20.4958  -29.8383   27.2186 H   0  0  0  0  0  0  0  0  0  0  0  0
   20.8314  -28.5781   25.9834 H   0  0  0  0  0  0  0  0  0  0  0  0
   21.7716  -30.1087   25.9834 H   0  0  0  0  0  0  0  0  0  0  0  0
   22.6474  -25.2902   29.1349 H   0  0  0  0  0  0  0  0  0  0  0  0
   23.0990  -24.3185   27.6932 H   0  0  0  0  0  0  0  0  0  0  0  0
   21.5760  -25.2710   27.6932 H   0  0  0  0  0  0  0  0  0  0  0  0
   24.4881  -27.5666   24.2200 H   0  0  0  0  0  0  0  0  0  0  0  0
   26.6375  -29.0816   25.3779 H   0  0  0  0  0  0  0  0  0  0  0  0
   26.9864  -27.5095   22.6971 H   0  0  0  0  0  0  0  0  0  0  0  0
   28.1093  -27.4671   24.0319 H   0  0  0  0  0  0  0  0  0  0  0  0
   27.4513  -31.2963   23.5358 H   0  0  0  0  0  0  0  0  0  0  0  0
   27.3583  -29.3496   20.6260 H   0  0  0  0  0  0  0  0  0  0  0  0
   25.2416  -31.0545   19.4936 H   0  0  0  0  0  0  0  0  0  0  0  0
   26.0445  -29.6516   18.7101 H   0  0  0  0  0  0  0  0  0  0  0  0
   26.8449  -31.2598   18.7101 H   0  0  0  0  0  0  0  0  0  0  0  0
   25.1673  -30.5215   24.0006 H   0  0  0  0  0  0  0  0  0  0  0  0
   25.1497  -29.4020   22.6545 H   0  0  0  0  0  0  0  0  0  0  0  0
   29.2211  -27.0150   21.5650 H   0  0  0  0  0  0  0  0  0  0  0  0
   30.8481  -25.1625   21.8603 H   0  0  0  0  0  0  0  0  0  0  0  0
   32.9776  -25.5560   23.0775 H   0  0  0  0  0  0  0  0  0  0  0  0
   33.3908  -27.7506   24.1708 H   0  0  0  0  0  0  0  0  0  0  0  0
   31.7536  -29.5987   23.9177 H   0  0  0  0  0  0  0  0  0  0  0  0
  1  2  2  0
  2  3  1  0
  2 15  1  0
  3  4  2  0
  3 14  1  0
  4  5  1  0
  5  6  2  0
  6  7  1  0
  6 13  1  0
  7  8  1  0
  8  9  1  0
  8 12  1  0
  9 10  2  0
 10 11  1  0
 11 12  2  0
 13 14  2  0
 15 16  1  0
 16 17  1  0
 16 24  1  0
 17 18  1  0
 17 23  1  0
 18 19  1  0
 19 20  1  0
 19 21  1  0
 19 22  1  0
 24 25  2  0
 24 26  1  0
 26 27  1  0
 27 28  1  0
 27 35  1  0
 28 29  1  0
 29 30  1  0
 29 36  1  0
 30 31  1  0
 30 35  1  0
 31 32  1  0
 31 34  2  0
 32 33  1  0
 36 37  2  0
 36 38  1  0
 38 39  2  0
 38 43  1  0
 39 40  1  0
 40 41  2  0
 41 42  1  0
 42 43  2  0
  4 44  1  0
  5 45  1  0
  7 46  1  0
  7 47  1  0
 10 48  1  0
 11 49  1  0
 12 50  1  0
 13 51  1  0
 14 52  1  0
 15 53  1  0
 16 54  1  0
 17 55  1  0
 20 56  1  0
 20 57  1  0
 20 58  1  0
 21 59  1  0
 21 60  1  0
 21 61  1  0
 22 62  1  0
 22 63  1  0
 22 64  1  0
 23 65  1  0
 23 66  1  0
 23 67  1  0
 26 68  1  0
 27 69  1  0
 28 70  1  0
 28 71  1  0
 30 72  1  0
 32 73  1  0
 33 74  1  0
 33 75  1  0
 33 76  1  0
 35 77  1  0
 35 78  1  0
 39 79  1  0
 40 80  1  0
 41 81  1  0
 42 82  1  0
 43 83  1  0
A    1
O3
A    2
C17
A    3
C18
A    4
C23
A    5
C22
A    6
C21
A    7
C24
A    8
N4
A    9
N5
A   10
C27
A   11
C26
A   12
C25
A   13
C20
A   14
C19
A   15
N3
A   16
C2
A   17
C1
A   18
O4
A   19
C28
A   20
C31
A   21
C30
A   22
C29
A   23
C
A   24
C3
A   25
O
A   26
N
A   27
C4
A   28
C7
A   29
N1
A   30
C6
A   31
C15
A   32
N2
A   33
C16
A   34
O2
A   35
C5
A   36
C8
A   37
O1
A   38
C9
A   39
C14
A   40
C13
A   41
C12
A   42
C11
A   43
C10
M  END
