5G1U_64Z_A_1366
     RDKit          3D

 29 28  0  0  0  0  0  0  0  0999 V2000
   26.7580  -55.7030  -97.5930 C   0  0  0  0  0  0  0  0  0  0  0  0
   27.5950  -56.9780  -97.6770 C   0  0  0  0  0  0  0  0  0  0  0  0
   28.8230  -57.0650  -98.6130 C   0  0  0  0  0  0  0  0  0  0  0  0
   29.5250  -58.4380  -98.5220 C   0  0  0  0  0  0  0  0  0  0  0  0
   30.9830  -58.3400  -98.8880 C   0  0  0  0  0  0  0  0  0  0  0  0
   31.3890  -57.5140 -100.1160 C   0  0  0  0  0  0  0  0  0  0  0  0
   32.8430  -57.3170 -100.5710 C   0  0  0  0  0  0  0  0  0  0  0  0
   31.9740  -59.1170  -98.0380 C   0  0  0  0  0  0  0  0  0  0  0  0
   27.1480  -54.5540  -98.4870 C   0  0  0  0  0  0  0  0  0  0  0  0
   33.0600  -56.1620 -101.4810 O   0  0  0  0  0  0  0  0  0  0  0  0
   25.5730  -55.5700  -96.5890 C   0  0  0  0  0  0  0  0  0  0  0  0
   27.3200  -57.8477  -97.0622 H   0  0  0  0  0  0  0  0  0  0  0  0
   28.4915  -56.9038  -99.6494 H   0  0  0  0  0  0  0  0  0  0  0  0
   29.5431  -56.2943  -98.3007 H   0  0  0  0  0  0  0  0  0  0  0  0
   29.4399  -58.8150  -97.4921 H   0  0  0  0  0  0  0  0  0  0  0  0
   29.0370  -59.1220  -99.2320 H   0  0  0  0  0  0  0  0  0  0  0  0
   30.5926  -57.0352 -100.7046 H   0  0  0  0  0  0  0  0  0  0  0  0
   33.1647  -58.2298 -101.0938 H   0  0  0  0  0  0  0  0  0  0  0  0
   33.4266  -57.1091  -99.6620 H   0  0  0  0  0  0  0  0  0  0  0  0
   31.7566  -58.9465  -96.9733 H   0  0  0  0  0  0  0  0  0  0  0  0
   31.8873  -60.1903  -98.2627 H   0  0  0  0  0  0  0  0  0  0  0  0
   32.9956  -58.7767  -98.2627 H   0  0  0  0  0  0  0  0  0  0  0  0
   27.4406  -53.6919  -97.8696 H   0  0  0  0  0  0  0  0  0  0  0  0
   27.9945  -54.8544  -99.1220 H   0  0  0  0  0  0  0  0  0  0  0  0
   26.2935  -54.2771  -99.1220 H   0  0  0  0  0  0  0  0  0  0  0  0
   33.2137  -55.3439 -100.9450 H   0  0  0  0  0  0  0  0  0  0  0  0
   25.9581  -55.6132  -95.5595 H   0  0  0  0  0  0  0  0  0  0  0  0
   25.0625  -54.6089  -96.7495 H   0  0  0  0  0  0  0  0  0  0  0  0
   24.8622  -56.3940  -96.7495 H   0  0  0  0  0  0  0  0  0  0  0  0
  9  1  1  0
 11  1  1  0
  1  2  2  0
  2  3  1  0
  3  4  1  0
  4  5  1  0
  8  5  1  0
  5  6  2  0
 10  7  1  0
  6  7  1  0
  2 12  1  0
  3 13  1  0
  3 14  1  0
  4 15  1  0
  4 16  1  0
  6 17  1  0
  7 18  1  0
  7 19  1  0
  8 20  1  0
  8 21  1  0
  8 22  1  0
  9 23  1  0
  9 24  1  0
  9 25  1  0
 10 26  1  0
 11 27  1  0
 11 28  1  0
 11 29  1  0
A    1
C1
A    2
C2
A    3
C3
A    4
C4
A    5
C5
A    6
C6
A    7
C7
A    8
C8
A    9
C9
A   10
O
A   11
C
M  END
