5G3J_E7T_A_1779
     RDKit          3D

 51 54  0  0  0  0  0  0  0  0999 V2000
    0.6140  -37.6810   -1.4230 C   0  0  0  0  0  0  0  0  0  0  0  0
   -0.4590  -38.0160   -2.4560 C   0  0  0  0  0  0  0  0  0  0  0  0
    0.2290  -38.7370   -3.6220 C   0  0  0  0  0  0  0  0  0  0  0  0
    0.4660  -37.7000   -4.7250 C   0  0  0  0  0  0  0  0  0  0  0  0
    0.6380  -38.3210   -6.1250 C   0  0  0  0  0  0  0  0  0  0  0  0
    1.7270  -39.2510   -6.1390 O   0  0  0  0  0  0  0  0  0  0  0  0
   -0.6800  -39.0410   -6.4860 C   0  0  0  0  0  0  0  0  0  0  0  0
   -0.4070  -39.7200   -7.7600 N   0  0  0  0  0  0  0  0  0  0  0  0
   -1.2570  -39.6880   -8.8560 C   0  0  0  0  0  0  0  0  0  0  0  0
   -2.6070  -39.3240   -8.7320 C   0  0  0  0  0  0  0  0  0  0  0  0
   -3.4420  -39.3530   -9.8430 C   0  0  0  0  0  0  0  0  0  0  0  0
   -2.9630  -39.7810  -11.0760 C   0  0  0  0  0  0  0  0  0  0  0  0
   -1.6260  -40.1540  -11.2300 C   0  0  0  0  0  0  0  0  0  0  0  0
   -1.1440  -40.5710  -12.4590 N   0  0  0  0  0  0  0  0  0  0  0  0
    0.1580  -40.9000  -12.6200 C   0  0  0  0  0  0  0  0  0  0  0  0
    0.5530  -41.2640  -13.7250 O   0  0  0  0  0  0  0  0  0  0  0  0
    1.0660  -40.8210  -11.5250 C   0  0  0  0  0  0  0  0  0  0  0  0
    0.6320  -40.4360  -10.2940 C   0  0  0  0  0  0  0  0  0  0  0  0
   -0.7440  -40.0930  -10.1160 C   0  0  0  0  0  0  0  0  0  0  0  0
   -0.9770  -40.0930   -5.4280 C   0  0  0  0  0  0  0  0  0  0  0  0
   -1.6230  -41.2700   -5.8330 C   0  0  0  0  0  0  0  0  0  0  0  0
   -1.8250  -42.3140   -4.9430 C   0  0  0  0  0  0  0  0  0  0  0  0
   -2.4370  -43.4490   -5.3270 F   0  0  0  0  0  0  0  0  0  0  0  0
   -1.3590  -42.2150   -3.6460 C   0  0  0  0  0  0  0  0  0  0  0  0
   -1.5580  -43.2450   -2.8030 F   0  0  0  0  0  0  0  0  0  0  0  0
   -0.7010  -41.0610   -3.2280 C   0  0  0  0  0  0  0  0  0  0  0  0
   -0.2660  -41.0140   -1.9460 O   0  0  0  0  0  0  0  0  0  0  0  0
   -0.5340  -39.9660   -4.1050 C   0  0  0  0  0  0  0  0  0  0  0  0
    1.0040  -37.2040   -7.1170 C   0  0  0  0  0  0  0  0  0  0  0  0
    2.0840  -36.4830   -6.6060 F   0  0  0  0  0  0  0  0  0  0  0  0
    1.4000  -37.7310   -8.3450 F   0  0  0  0  0  0  0  0  0  0  0  0
   -0.0790  -36.3440   -7.3230 F   0  0  0  0  0  0  0  0  0  0  0  0
    0.2019  -37.8097   -0.4113 H   0  0  0  0  0  0  0  0  0  0  0  0
    1.4743  -38.3533   -1.5567 H   0  0  0  0  0  0  0  0  0  0  0  0
    0.9390  -36.6386   -1.5567 H   0  0  0  0  0  0  0  0  0  0  0  0
   -1.2205  -38.6706   -2.0071 H   0  0  0  0  0  0  0  0  0  0  0  0
   -0.9563  -37.1000   -2.8076 H   0  0  0  0  0  0  0  0  0  0  0  0
    1.1918  -39.1503   -3.2870 H   0  0  0  0  0  0  0  0  0  0  0  0
   -0.3951  -37.0160   -4.7508 H   0  0  0  0  0  0  0  0  0  0  0  0
    1.4047  -37.1796   -4.4840 H   0  0  0  0  0  0  0  0  0  0  0  0
    1.9849  -39.4712   -5.2089 H   0  0  0  0  0  0  0  0  0  0  0  0
   -1.5314  -38.3473   -6.5486 H   0  0  0  0  0  0  0  0  0  0  0  0
    0.4702  -40.2531   -7.8447 H   0  0  0  0  0  0  0  0  0  0  0  0
   -3.0048  -39.0153   -7.7540 H   0  0  0  0  0  0  0  0  0  0  0  0
   -4.4904  -39.0347   -9.7458 H   0  0  0  0  0  0  0  0  0  0  0  0
   -3.6438  -39.8263  -11.9388 H   0  0  0  0  0  0  0  0  0  0  0  0
   -1.7860  -40.6316  -13.2621 H   0  0  0  0  0  0  0  0  0  0  0  0
    2.1260  -41.0731  -11.6757 H   0  0  0  0  0  0  0  0  0  0  0  0
    1.3316  -40.3894   -9.4464 H   0  0  0  0  0  0  0  0  0  0  0  0
   -1.9743  -41.3664   -6.8709 H   0  0  0  0  0  0  0  0  0  0  0  0
   -0.9138  -41.0840   -1.2006 H   0  0  0  0  0  0  0  0  0  0  0  0
  1  2  1  0
  2  3  1  0
  3  4  1  0
  3 28  1  0
  4  5  1  0
  5  6  1  0
  5  7  1  0
  5 29  1  0
  7  8  1  0
  7 20  1  0
  8  9  1  0
  9 10  2  0
  9 19  1  0
 10 11  1  0
 11 12  2  0
 12 13  1  0
 13 14  1  0
 13 19  2  0
 14 15  1  0
 15 16  2  0
 15 17  1  0
 17 18  2  0
 18 19  1  0
 20 21  1  0
 20 28  2  0
 21 22  2  0
 22 23  1  0
 22 24  1  0
 24 25  1  0
 24 26  2  0
 26 27  1  0
 26 28  1  0
 29 30  1  0
 29 31  1  0
 29 32  1  0
  1 33  1  0
  1 34  1  0
  1 35  1  0
  2 36  1  0
  2 37  1  0
  3 38  1  0
  4 39  1  0
  4 40  1  0
  6 41  1  0
  7 42  1  0
  8 43  1  0
 10 44  1  0
 11 45  1  0
 12 46  1  0
 14 47  1  0
 17 48  1  0
 18 49  1  0
 21 50  1  0
 27 51  1  0
A    1
C1
A    2
C2
A    3
C3
A    4
C5
A    5
C6
A    6
O7
A    7
C8
A    8
N10
A    9
C11
A   10
C12
A   11
C13
A   12
C14
A   13
C15
A   14
N16
A   15
C18
A   16
O19
A   17
C20
A   18
C21
A   19
C22
A   20
C23
A   21
C24
A   22
C25
A   23
F26
A   24
C27
A   25
F28
A   26
C29
A   27
O30
A   28
C31
A   29
C32
A   30
F33
A   31
F34
A   32
F35
M  END
