5G3M_9JH_A_1134
     RDKit          3D

 29 30  0  0  0  0  0  0  0  0999 V2000
   -1.7930    0.5230   -4.3420 O   0  0  0  0  0  0  0  0  0  0  0  0
   -0.8860    0.1600   -3.5890 C   0  0  0  0  0  0  0  0  0  0  0  0
   -0.3980   -1.0960   -3.7040 N   0  0  0  0  0  0  0  0  0  0  0  0
    0.2400    3.2470    2.3800 C   0  0  0  0  0  0  0  0  0  0  0  0
    0.4610    4.0960    1.3120 C   0  0  0  0  0  0  0  0  0  0  0  0
   -0.2890    5.2530    1.1800 C   0  0  0  0  0  0  0  0  0  0  0  0
    1.5140    3.7390    0.2970 C   0  0  0  0  0  0  0  0  0  0  0  0
   -1.2560    5.5430    2.1340 C   0  0  0  0  0  0  0  0  0  0  0  0
   -1.4750    4.6890    3.2000 C   0  0  0  0  0  0  0  0  0  0  0  0
   -0.7260    3.5310    3.3250 C   0  0  0  0  0  0  0  0  0  0  0  0
    0.9300    0.7810   -1.9840 C   0  0  0  0  0  0  0  0  0  0  0  0
   -0.2980    1.0870   -2.5850 C   0  0  0  0  0  0  0  0  0  0  0  0
    1.5120    1.6340   -1.0510 C   0  0  0  0  0  0  0  0  0  0  0  0
    0.8770    2.8120   -0.7190 C   0  0  0  0  0  0  0  0  0  0  0  0
   -0.3460    3.1320   -1.3090 C   0  0  0  0  0  0  0  0  0  0  0  0
   -0.9490    2.2830   -2.2330 C   0  0  0  0  0  0  0  0  0  0  0  0
   -0.1847   -1.6450   -2.8590 H   0  0  0  0  0  0  0  0  0  0  0  0
   -0.2396   -1.5036   -4.6366 H   0  0  0  0  0  0  0  0  0  0  0  0
    0.8423    2.3319    2.4786 H   0  0  0  0  0  0  0  0  0  0  0  0
   -0.1212    5.9327    0.3315 H   0  0  0  0  0  0  0  0  0  0  0  0
    1.8775    4.6493   -0.2022 H   0  0  0  0  0  0  0  0  0  0  0  0
    2.3692    3.2481    0.7845 H   0  0  0  0  0  0  0  0  0  0  0  0
   -1.8540    6.4615    2.0409 H   0  0  0  0  0  0  0  0  0  0  0  0
   -2.2443    4.9298    3.9485 H   0  0  0  0  0  0  0  0  0  0  0  0
   -0.8986    2.8452    4.1675 H   0  0  0  0  0  0  0  0  0  0  0  0
    1.4447   -0.1526   -2.2551 H   0  0  0  0  0  0  0  0  0  0  0  0
    2.4714    1.3704   -0.5819 H   0  0  0  0  0  0  0  0  0  0  0  0
   -0.8442    4.0747   -1.0385 H   0  0  0  0  0  0  0  0  0  0  0  0
   -1.9194    2.5435   -2.6808 H   0  0  0  0  0  0  0  0  0  0  0  0
  9 10  1  0
  9  8  2  0
 10  4  2  0
  4  5  1  0
  5  6  2  0
  5  7  1  0
  6  8  1  0
  7 14  1  0
 14 13  1  0
 14 15  2  0
 13 11  2  0
 11 12  1  0
 12 16  2  0
 12  2  1  0
 16 15  1  0
  2  1  2  0
  2  3  1  0
  3 17  1  0
  3 18  1  0
  4 19  1  0
  6 20  1  0
  7 21  1  0
  7 22  1  0
  8 23  1  0
  9 24  1  0
 10 25  1  0
 11 26  1  0
 13 27  1  0
 15 28  1  0
 16 29  1  0
A    1
O15
A    2
C14
A    3
N16
A    4
C3
A    5
C4
A    6
C5
A    7
C7
A    8
C6
A    9
C1
A   10
C2
A   11
C10
A   12
C11
A   13
C9
A   14
C8
A   15
C13
A   16
C12
M  END
