5G3U_ITW_A_420
     RDKit          3D

 26 27  0  0  0  0  0  0  0  0999 V2000
   14.0590   -3.1330  -34.0190 O   0  0  0  0  0  0  0  0  0  0  0  0
   13.3640   -3.8820  -34.7730 C   0  0  0  0  0  0  0  0  0  0  0  0
   12.0870   -3.8860  -34.6960 O   0  0  0  0  0  0  0  0  0  0  0  0
   14.0440   -4.7940  -35.8040 C   0  0  0  0  0  0  0  0  0  0  0  0
   13.2560   -5.3050  -36.8000 C   0  0  0  0  0  0  0  0  0  0  0  0
   15.5020   -5.1550  -35.8250 C   0  0  0  0  0  0  0  0  0  0  0  0
   16.5080   -4.1820  -36.3490 C   0  0  0  0  0  0  0  0  0  0  0  0
   16.6940   -3.9980  -37.7570 C   0  0  0  0  0  0  0  0  0  0  0  0
   17.7250   -3.0010  -37.9530 N   0  0  0  0  0  0  0  0  0  0  0  0
   18.1760   -2.5650  -36.7060 C   0  0  0  0  0  0  0  0  0  0  0  0
   19.1810   -1.5940  -36.4340 C   0  0  0  0  0  0  0  0  0  0  0  0
   19.4720   -1.3120  -35.0900 C   0  0  0  0  0  0  0  0  0  0  0  0
   18.7710   -1.9900  -34.0340 C   0  0  0  0  0  0  0  0  0  0  0  0
   17.7670   -2.9590  -34.3640 C   0  0  0  0  0  0  0  0  0  0  0  0
   17.4700   -3.2470  -35.7050 C   0  0  0  0  0  0  0  0  0  0  0  0
   13.9836   -3.2142  -33.0352 H   0  0  0  0  0  0  0  0  0  0  0  0
   13.6938   -5.9640  -37.5642 H   0  0  0  0  0  0  0  0  0  0  0  0
   12.1850   -5.0566  -36.8361 H   0  0  0  0  0  0  0  0  0  0  0  0
   15.7882   -5.3785  -34.7867 H   0  0  0  0  0  0  0  0  0  0  0  0
   15.5466   -5.9791  -36.5522 H   0  0  0  0  0  0  0  0  0  0  0  0
   16.1471   -4.5242  -38.5532 H   0  0  0  0  0  0  0  0  0  0  0  0
   18.0698   -2.6675  -38.8645 H   0  0  0  0  0  0  0  0  0  0  0  0
   19.7119   -1.0817  -37.2499 H   0  0  0  0  0  0  0  0  0  0  0  0
   20.2423   -0.5666  -34.8431 H   0  0  0  0  0  0  0  0  0  0  0  0
   19.0028   -1.7674  -32.9820 H   0  0  0  0  0  0  0  0  0  0  0  0
   17.2259   -3.4802  -33.5606 H   0  0  0  0  0  0  0  0  0  0  0  0
  2  1  1  0
  4  2  1  0
  2  3  2  0
  5  4  2  3
  6  4  1  0
  7  6  1  0
  8  7  2  0
  7 15  1  0
  9  8  1  0
  9 10  1  0
 10 11  1  0
 10 15  2  0
 11 12  2  0
 12 13  1  0
 14 13  2  0
 15 14  1  0
  1 16  1  0
  5 17  1  0
  5 18  1  0
  6 19  1  0
  6 20  1  0
  8 21  1  0
  9 22  1  0
 11 23  1  0
 12 24  1  0
 13 25  1  0
 14 26  1  0
A    1
O01
A    2
C02
A    3
O03
A    4
C04
A    5
C05
A    6
C06
A    7
C07
A    8
C08
A    9
N09
A   10
C10
A   11
C11
A   12
C12
A   13
C13
A   14
C14
A   15
C15
M  END
