5G43_5IM_A_1510
     RDKit          3D

 25 26  0  0  0  0  0  0  0  0999 V2000
  -23.8920   12.4850  -14.9960 C   0  0  0  0  0  0  0  0  0  0  0  0
  -23.3750   11.5740  -14.1090 C   0  0  0  0  0  0  0  0  0  0  0  0
  -25.1700   10.3940  -14.7730 C   0  0  0  0  0  0  0  0  0  0  0  0
  -28.1290    7.3570  -14.7540 C   0  0  0  0  0  0  0  0  0  0  0  0
  -28.0210    8.3450  -15.9030 C   0  0  0  0  0  0  0  0  0  0  0  0
  -26.8300    7.1490  -13.9940 C   0  0  0  0  0  0  0  0  0  0  0  0
  -27.3750    9.6370  -15.4480 C   0  0  0  0  0  0  0  0  0  0  0  0
  -26.1350    8.4610  -13.6900 C   0  0  0  0  0  0  0  0  0  0  0  0
  -24.0950   10.4140  -13.9990 N   0  0  0  0  0  0  0  0  0  0  0  0
  -26.0760    9.3610  -14.8510 N   0  0  0  0  0  0  0  0  0  0  0  0
  -22.2570   11.7740  -13.3780 N   0  0  0  0  0  0  0  0  0  0  0  0
  -25.3120   11.8370  -15.7050 S   0  0  0  0  0  0  0  0  0  0  0  0
  -23.4633   13.4737  -15.2168 H   0  0  0  0  0  0  0  0  0  0  0  0
  -28.8869    7.7283  -14.0485 H   0  0  0  0  0  0  0  0  0  0  0  0
  -28.3996    6.3857  -15.1937 H   0  0  0  0  0  0  0  0  0  0  0  0
  -27.4117    7.9005  -16.7037 H   0  0  0  0  0  0  0  0  0  0  0  0
  -29.0337    8.5692  -16.2692 H   0  0  0  0  0  0  0  0  0  0  0  0
  -27.0510    6.6360  -13.0464 H   0  0  0  0  0  0  0  0  0  0  0  0
  -26.1594    6.5469  -14.6248 H   0  0  0  0  0  0  0  0  0  0  0  0
  -27.2440   10.3033  -16.3134 H   0  0  0  0  0  0  0  0  0  0  0  0
  -28.0210   10.1198  -14.6999 H   0  0  0  0  0  0  0  0  0  0  0  0
  -26.6810    8.9679  -12.8807 H   0  0  0  0  0  0  0  0  0  0  0  0
  -25.0996    8.2265  -13.4019 H   0  0  0  0  0  0  0  0  0  0  0  0
  -22.3059   11.7652  -12.3492 H   0  0  0  0  0  0  0  0  0  0  0  0
  -21.3555   11.9353  -13.8493 H   0  0  0  0  0  0  0  0  0  0  0  0
  1  2  2  0
  1 12  1  0
  2  9  1  0
  2 11  1  0
  3  9  2  0
  3 10  1  0
  3 12  1  0
  4  5  1  0
  4  6  1  0
  5  7  1  0
  6  8  1  0
  7 10  1  0
  8 10  1  0
  1 13  1  0
  4 14  1  0
  4 15  1  0
  5 16  1  0
  5 17  1  0
  6 18  1  0
  6 19  1  0
  7 20  1  0
  7 21  1  0
  8 22  1  0
  8 23  1  0
 11 24  1  0
 11 25  1  0
A    1
C1
A    2
C2
A    3
C3
A    4
C4
A    5
C5
A    6
C6
A    7
C7
A    8
C8
A    9
N9
A   10
N10
A   11
N11
A   12
S12
M  END
