5G45_A7W_A_1509
     RDKit          3D

 20 21  0  0  0  0  0  0  0  0999 V2000
  -29.3720    6.8300  -17.6620 C   0  0  0  0  0  0  0  0  0  0  0  0
  -29.2640    6.7070  -16.2920 C   0  0  0  0  0  0  0  0  0  0  0  0
  -29.3810    5.7070  -18.4690 C   0  0  0  0  0  0  0  0  0  0  0  0
  -29.0490    5.3210  -14.3590 C   0  0  0  0  0  0  0  0  0  0  0  0
  -29.0120    2.9450  -14.6990 C   0  0  0  0  0  0  0  0  0  0  0  0
  -29.1470    5.4470  -15.7360 C   0  0  0  0  0  0  0  0  0  0  0  0
  -29.1570    4.2990  -16.5340 C   0  0  0  0  0  0  0  0  0  0  0  0
  -29.2760    4.4460  -17.9080 C   0  0  0  0  0  0  0  0  0  0  0  0
  -28.9840    4.0340  -13.8550 C   0  0  0  0  0  0  0  0  0  0  0  0
  -29.1060    3.0550  -16.0250 N   0  0  0  0  0  0  0  0  0  0  0  0
  -29.3220    3.3010  -18.7270 N   0  0  0  0  0  0  0  0  0  0  0  0
  -28.8860    3.7910  -12.5160 O   0  0  0  0  0  0  0  0  0  0  0  0
  -29.4515    7.8289  -18.1158 H   0  0  0  0  0  0  0  0  0  0  0  0
  -29.2709    7.6004  -15.6503 H   0  0  0  0  0  0  0  0  0  0  0  0
  -29.4719    5.8162  -19.5598 H   0  0  0  0  0  0  0  0  0  0  0  0
  -29.0241    6.2009  -13.6994 H   0  0  0  0  0  0  0  0  0  0  0  0
  -28.9542    1.9385  -14.2589 H   0  0  0  0  0  0  0  0  0  0  0  0
  -29.3596    2.3641  -18.3007 H   0  0  0  0  0  0  0  0  0  0  0  0
  -29.3180    3.4006  -19.7522 H   0  0  0  0  0  0  0  0  0  0  0  0
  -29.1652    4.4832  -11.8656 H   0  0  0  0  0  0  0  0  0  0  0  0
  1  2  2  0
  1  3  1  0
  2  6  1  0
  3  8  2  0
  4  6  2  0
  4  9  1  0
  5  9  2  0
  5 10  1  0
  6  7  1  0
  7  8  1  0
  7 10  2  0
  8 11  1  0
  9 12  1  0
  1 13  1  0
  2 14  1  0
  3 15  1  0
  4 16  1  0
  5 17  1  0
 11 18  1  0
 11 19  1  0
 12 20  1  0
A    1
C1
A    2
C2
A    3
C3
A    4
C4
A    5
C5
A    6
C6
A    7
C7
A    8
C8
A    9
C9
A   10
N10
A   11
N11
A   12
O12
M  END
