5G4M_O82_A_1292
     RDKit          3D

 36 38  0  0  0  0  0  0  0  0999 V2000
   91.3380   93.8340  -43.7870 C   0  0  0  0  0  0  0  0  0  0  0  0
   94.0570   93.4900  -40.7540 F   0  0  0  0  0  0  0  0  0  0  0  0
   91.6280   93.9440  -42.4490 N   0  0  0  0  0  0  0  0  0  0  0  0
   91.0780   95.1280  -44.2490 C   0  0  0  0  0  0  0  0  0  0  0  0
   89.7680   99.8920  -41.2460 N   0  0  0  0  0  0  0  0  0  0  0  0
   91.2190   96.0150  -43.1490 C   0  0  0  0  0  0  0  0  0  0  0  0
   91.5590   95.2510  -42.0320 C   0  0  0  0  0  0  0  0  0  0  0  0
   91.2880   92.7150  -44.6240 C   0  0  0  0  0  0  0  0  0  0  0  0
   90.9570   92.9410  -45.9600 C   0  0  0  0  0  0  0  0  0  0  0  0
   90.6830   94.2190  -46.4320 C   0  0  0  0  0  0  0  0  0  0  0  0
   90.7460   95.3330  -45.5960 C   0  0  0  0  0  0  0  0  0  0  0  0
   91.7810   95.8250  -40.7760 C   0  0  0  0  0  0  0  0  0  0  0  0
   91.6400   97.2110  -40.6830 C   0  0  0  0  0  0  0  0  0  0  0  0
   91.2910   97.9950  -41.7800 C   0  0  0  0  0  0  0  0  0  0  0  0
   91.0800   97.4050  -43.0220 C   0  0  0  0  0  0  0  0  0  0  0  0
   91.9580   92.8220  -41.5900 C   0  0  0  0  0  0  0  0  0  0  0  0
   93.4460   92.5640  -41.5310 C   0  0  0  0  0  0  0  0  0  0  0  0
   91.1410   99.4760  -41.6580 C   0  0  0  0  0  0  0  0  0  0  0  0
   89.6530  101.3760  -41.2310 C   0  0  0  0  0  0  0  0  0  0  0  0
   89.0833   99.5061  -41.9116 H   0  0  0  0  0  0  0  0  0  0  0  0
   91.4998   91.7038  -44.2465 H   0  0  0  0  0  0  0  0  0  0  0  0
   90.9119   92.0894  -46.6548 H   0  0  0  0  0  0  0  0  0  0  0  0
   90.4103   94.3548  -47.4890 H   0  0  0  0  0  0  0  0  0  0  0  0
   90.5414   96.3427  -45.9815 H   0  0  0  0  0  0  0  0  0  0  0  0
   92.0537   95.2137  -39.9031 H   0  0  0  0  0  0  0  0  0  0  0  0
   91.8100   97.6994  -39.7122 H   0  0  0  0  0  0  0  0  0  0  0  0
   90.8079   98.0200  -43.8925 H   0  0  0  0  0  0  0  0  0  0  0  0
   91.5953   93.0357  -40.5737 H   0  0  0  0  0  0  0  0  0  0  0  0
   91.4769   91.9252  -42.0075 H   0  0  0  0  0  0  0  0  0  0  0  0
   93.8626   92.6128  -42.5479 H   0  0  0  0  0  0  0  0  0  0  0  0
   93.6176   91.5672  -41.0986 H   0  0  0  0  0  0  0  0  0  0  0  0
   91.3677   99.9326  -42.6327 H   0  0  0  0  0  0  0  0  0  0  0  0
   91.8356   99.8133  -40.8745 H   0  0  0  0  0  0  0  0  0  0  0  0
   89.6255  101.7311  -40.1903 H   0  0  0  0  0  0  0  0  0  0  0  0
   90.5197  101.8162  -41.7458 H   0  0  0  0  0  0  0  0  0  0  0  0
   88.7288  101.6774  -41.7458 H   0  0  0  0  0  0  0  0  0  0  0  0
  1  3  1  0
  1  4  2  0
  1  8  1  0
  2 17  1  0
  3  7  1  0
  3 16  1  0
  4  6  1  0
  4 11  1  0
  5 18  1  0
  5 19  1  0
  6  7  2  0
  6 15  1  0
  7 12  1  0
  8  9  2  0
  9 10  1  0
 10 11  2  0
 12 13  2  0
 13 14  1  0
 14 15  2  0
 14 18  1  0
 16 17  1  0
  5 20  1  0
  8 21  1  0
  9 22  1  0
 10 23  1  0
 11 24  1  0
 12 25  1  0
 13 26  1  0
 15 27  1  0
 16 28  1  0
 16 29  1  0
 17 30  1  0
 17 31  1  0
 18 32  1  0
 18 33  1  0
 19 34  1  0
 19 35  1  0
 19 36  1  0
A    1
C1
A    2
F1
A    3
N1
A    4
C2
A    5
N2
A    6
C3
A    7
C4
A    8
C5
A    9
C6
A   10
C7
A   11
C8
A   12
C9
A   13
C10
A   14
C11
A   15
C12
A   16
C13
A   17
C14
A   18
C15
A   19
C16
M  END
