5G4N_O83_A_1294
     RDKit          3D

 36 38  0  0  0  0  0  0  0  0999 V2000
   91.3050   93.6160  -43.9170 C   0  0  0  0  0  0  0  0  0  0  0  0
   94.0550   93.3590  -40.8670 F   0  0  0  0  0  0  0  0  0  0  0  0
   91.6380   93.7340  -42.5910 N   0  0  0  0  0  0  0  0  0  0  0  0
   91.0170   94.9020  -44.3760 C   0  0  0  0  0  0  0  0  0  0  0  0
   93.8790   91.2400  -41.2480 F   0  0  0  0  0  0  0  0  0  0  0  0
   89.8330   99.7200  -41.2250 N   0  0  0  0  0  0  0  0  0  0  0  0
   91.1910   95.8010  -43.2820 C   0  0  0  0  0  0  0  0  0  0  0  0
   91.5760   95.0420  -42.1740 C   0  0  0  0  0  0  0  0  0  0  0  0
   91.2410   92.4830  -44.7370 C   0  0  0  0  0  0  0  0  0  0  0  0
   90.8610   92.6840  -46.0660 C   0  0  0  0  0  0  0  0  0  0  0  0
   90.5640   93.9520  -46.5440 C   0  0  0  0  0  0  0  0  0  0  0  0
   90.6380   95.0760  -45.7190 C   0  0  0  0  0  0  0  0  0  0  0  0
   91.8360   95.6190  -40.9240 C   0  0  0  0  0  0  0  0  0  0  0  0
   91.6880   97.0050  -40.8150 C   0  0  0  0  0  0  0  0  0  0  0  0
   91.2950   97.7860  -41.9000 C   0  0  0  0  0  0  0  0  0  0  0  0
   91.0470   97.1910  -43.1380 C   0  0  0  0  0  0  0  0  0  0  0  0
   92.0180   92.6130  -41.7510 C   0  0  0  0  0  0  0  0  0  0  0  0
   93.5250   92.4590  -41.7270 C   0  0  0  0  0  0  0  0  0  0  0  0
   91.1470   99.2680  -41.7650 C   0  0  0  0  0  0  0  0  0  0  0  0
   89.7950  101.2060  -41.1840 C   0  0  0  0  0  0  0  0  0  0  0  0
   89.0758   99.3744  -41.8318 H   0  0  0  0  0  0  0  0  0  0  0  0
   91.4791   91.4804  -44.3522 H   0  0  0  0  0  0  0  0  0  0  0  0
   90.7961   91.8215  -46.7457 H   0  0  0  0  0  0  0  0  0  0  0  0
   90.2639   94.0745  -47.5952 H   0  0  0  0  0  0  0  0  0  0  0  0
   90.4047   96.0768  -46.1114 H   0  0  0  0  0  0  0  0  0  0  0  0
   92.1439   95.0067  -40.0636 H   0  0  0  0  0  0  0  0  0  0  0  0
   91.8868   97.4911  -39.8485 H   0  0  0  0  0  0  0  0  0  0  0  0
   90.7405   97.8071  -43.9962 H   0  0  0  0  0  0  0  0  0  0  0  0
   91.6550   92.7875  -40.7274 H   0  0  0  0  0  0  0  0  0  0  0  0
   91.5715   91.6939  -42.1584 H   0  0  0  0  0  0  0  0  0  0  0  0
   93.8869   92.5983  -42.7564 H   0  0  0  0  0  0  0  0  0  0  0  0
   91.2803   99.7170  -42.7603 H   0  0  0  0  0  0  0  0  0  0  0  0
   91.9070   99.5894  -41.0376 H   0  0  0  0  0  0  0  0  0  0  0  0
   89.7864  101.5438  -40.1372 H   0  0  0  0  0  0  0  0  0  0  0  0
   90.6831  101.6097  -41.6922 H   0  0  0  0  0  0  0  0  0  0  0  0
   88.8874  101.5637  -41.6922 H   0  0  0  0  0  0  0  0  0  0  0  0
  1  3  1  0
  1  4  2  0
  1  9  1  0
  2 18  1  0
  3  8  1  0
  3 17  1  0
  4  7  1  0
  4 12  1  0
  5 18  1  0
  6 19  1  0
  6 20  1  0
  7  8  2  0
  7 16  1  0
  8 13  1  0
  9 10  2  0
 10 11  1  0
 11 12  2  0
 13 14  2  0
 14 15  1  0
 15 16  2  0
 15 19  1  0
 17 18  1  0
  6 21  1  0
  9 22  1  0
 10 23  1  0
 11 24  1  0
 12 25  1  0
 13 26  1  0
 14 27  1  0
 16 28  1  0
 17 29  1  0
 17 30  1  0
 18 31  1  0
 19 32  1  0
 19 33  1  0
 20 34  1  0
 20 35  1  0
 20 36  1  0
A    1
C1
A    2
F1
A    3
N1
A    4
C2
A    5
F2
A    6
N2
A    7
C3
A    8
C4
A    9
C5
A   10
C6
A   11
C7
A   12
C8
A   13
C9
A   14
C10
A   15
C11
A   16
C12
A   17
C13
A   18
C14
A   19
C15
A   20
C16
M  END
