4N95_2HQ_A_401
     RDKit          3D

 16 17  0  0  0  0  0  0  0  0999 V2000
  -24.1950   -0.6180  -21.6840 O   0  0  0  0  0  0  0  0  0  0  0  0
  -24.4100   -0.0070  -22.7290 C   0  0  0  0  0  0  0  0  0  0  0  0
  -23.4670    0.5960  -23.5410 C   0  0  0  0  0  0  0  0  0  0  0  0
  -22.0840    0.7090  -23.4760 C   0  0  0  0  0  0  0  0  0  0  0  0
  -21.4040    1.3950  -24.4740 C   0  0  0  0  0  0  0  0  0  0  0  0
  -19.6860    1.5280  -24.3810 Cl  0  0  0  0  0  0  0  0  0  0  0  0
  -22.0970    1.9670  -25.5400 C   0  0  0  0  0  0  0  0  0  0  0  0
  -23.4840    1.8490  -25.6030 C   0  0  0  0  0  0  0  0  0  0  0  0
  -24.1760    1.1630  -24.6040 C   0  0  0  0  0  0  0  0  0  0  0  0
  -25.4840    0.9160  -24.4330 N   0  0  0  0  0  0  0  0  0  0  0  0
  -25.6440    0.2100  -23.3100 C   0  0  0  0  0  0  0  0  0  0  0  0
  -26.7180   -0.1820  -22.8570 O   0  0  0  0  0  0  0  0  0  0  0  0
  -21.5307    0.2579  -22.6391 H   0  0  0  0  0  0  0  0  0  0  0  0
  -21.5518    2.5085  -26.3271 H   0  0  0  0  0  0  0  0  0  0  0  0
  -24.0350    2.2979  -26.4426 H   0  0  0  0  0  0  0  0  0  0  0  0
  -26.2396    1.2204  -25.0633 H   0  0  0  0  0  0  0  0  0  0  0  0
  8  7  2  0
  8  9  1  0
  7  5  1  0
  9 10  1  0
  9  3  2  0
  5  6  1  0
  5  4  2  0
 10 11  1  0
  3  4  1  0
  3  2  1  0
 11 12  2  0
 11  2  1  0
  2  1  2  0
  4 13  1  0
  7 14  1  0
  8 15  1  0
 10 16  1  0
A    1
OAL
A    2
CAI
A    3
CAE
A    4
CAF
A    5
CAA
A    6
CLA
A    7
CAB
A    8
CAC
A    9
CAD
A   10
NAH
A   11
CAJ
A   12
OAK
M  END
