5G55_3QH_A_2095
     RDKit          3D

 43 45  0  0  0  0  0  0  0  0999 V2000
   43.4810   13.0730   30.0550 C   0  0  0  0  0  0  0  0  0  0  0  0
   44.1390   12.0740   29.3470 C   0  0  0  0  0  0  0  0  0  0  0  0
   45.4850   12.1230   29.1900 C   0  0  0  0  0  0  0  0  0  0  0  0
   44.2090   14.1380   30.6020 C   0  0  0  0  0  0  0  0  0  0  0  0
   45.6160   14.2140   30.4630 C   0  0  0  0  0  0  0  0  0  0  0  0
   46.2440   13.1590   29.7340 C   0  0  0  0  0  0  0  0  0  0  0  0
   47.5780   13.1290   29.5680 N   0  0  0  0  0  0  0  0  0  0  0  0
   48.3640   14.0560   30.0670 C   0  0  0  0  0  0  0  0  0  0  0  0
   47.8650   15.1500   30.7960 C   0  0  0  0  0  0  0  0  0  0  0  0
   46.4700   15.2610   31.0070 C   0  0  0  0  0  0  0  0  0  0  0  0
   42.0510   12.9750   30.1990 C   0  0  0  0  0  0  0  0  0  0  0  0
   40.9170   12.9070   30.3430 N   0  0  0  0  0  0  0  0  0  0  0  0
   48.8300   16.1720   31.3330 C   0  0  0  0  0  0  0  0  0  0  0  0
   50.0790   16.3310   30.8010 N   0  0  0  0  0  0  0  0  0  0  0  0
   48.5220   16.8730   32.2890 O   0  0  0  0  0  0  0  0  0  0  0  0
   43.9650   16.2090   32.8120 C   0  0  0  0  0  0  0  0  0  0  0  0
   44.7400   16.8640   31.6970 C   0  0  0  0  0  0  0  0  0  0  0  0
   42.5900   16.3320   32.8540 C   0  0  0  0  0  0  0  0  0  0  0  0
   44.6230   15.4730   33.7940 C   0  0  0  0  0  0  0  0  0  0  0  0
   44.7510   18.3800   31.9460 C   0  0  0  0  0  0  0  0  0  0  0  0
   46.1130   16.3670   31.7550 N   0  0  0  0  0  0  0  0  0  0  0  0
   41.8720   15.7140   33.8660 C   0  0  0  0  0  0  0  0  0  0  0  0
   43.9040   14.8500   34.8090 C   0  0  0  0  0  0  0  0  0  0  0  0
   42.5300   14.9720   34.8420 C   0  0  0  0  0  0  0  0  0  0  0  0
   41.7370   14.3060   35.9240 C   0  0  0  0  0  0  0  0  0  0  0  0
   43.5662   11.2413   28.9128 H   0  0  0  0  0  0  0  0  0  0  0  0
   45.9894   11.3281   28.6210 H   0  0  0  0  0  0  0  0  0  0  0  0
   43.6773   14.9300   31.1498 H   0  0  0  0  0  0  0  0  0  0  0  0
   49.4495   13.9735   29.9091 H   0  0  0  0  0  0  0  0  0  0  0  0
   50.8940   16.4348   31.4222 H   0  0  0  0  0  0  0  0  0  0  0  0
   50.2052   16.3471   29.7789 H   0  0  0  0  0  0  0  0  0  0  0  0
   44.2900   16.6433   30.7178 H   0  0  0  0  0  0  0  0  0  0  0  0
   42.0656   16.9193   32.0858 H   0  0  0  0  0  0  0  0  0  0  0  0
   45.7190   15.3836   33.7670 H   0  0  0  0  0  0  0  0  0  0  0  0
   44.7524   18.5737   33.0288 H   0  0  0  0  0  0  0  0  0  0  0  0
   45.6524   18.8193   31.4937 H   0  0  0  0  0  0  0  0  0  0  0  0
   43.8561   18.8324   31.4937 H   0  0  0  0  0  0  0  0  0  0  0  0
   46.8101   16.8378   32.3494 H   0  0  0  0  0  0  0  0  0  0  0  0
   40.7767   15.8107   33.8976 H   0  0  0  0  0  0  0  0  0  0  0  0
   44.4270   14.2645   35.5795 H   0  0  0  0  0  0  0  0  0  0  0  0
   42.1166   14.6248   36.9060 H   0  0  0  0  0  0  0  0  0  0  0  0
   40.6784   14.5898   35.8304 H   0  0  0  0  0  0  0  0  0  0  0  0
   41.8336   13.2143   35.8304 H   0  0  0  0  0  0  0  0  0  0  0  0
  1  2  2  0
  1  4  1  0
  1 11  1  0
  2  3  1  0
  3  6  2  0
  4  5  2  0
  5  6  1  0
  5 10  1  0
  6  7  1  0
  7  8  2  0
  8  9  1  0
  9 10  2  0
  9 13  1  0
 10 21  1  0
 11 12  3  0
 13 14  1  0
 13 15  2  0
 16 17  1  0
 16 18  2  0
 16 19  1  0
 17 20  1  0
 17 21  1  0
 18 22  1  0
 19 23  2  0
 22 24  2  0
 23 24  1  0
 24 25  1  0
  2 26  1  0
  3 27  1  0
  4 28  1  0
  8 29  1  0
 14 30  1  0
 14 31  1  0
 17 32  1  0
 18 33  1  0
 19 34  1  0
 20 35  1  0
 20 36  1  0
 20 37  1  0
 21 38  1  0
 22 39  1  0
 23 40  1  0
 25 41  1  0
 25 42  1  0
 25 43  1  0
A    1
C1
A    2
C2
A    3
C3
A    4
C4
A    5
C5
A    6
C6
A    7
N7
A    8
C8
A    9
C9
A   10
C10
A   11
C11
A   12
N12
A   13
C13
A   14
N14
A   15
O15
A   16
C16
A   17
C17
A   18
C18
A   19
C19
A   20
C20
A   21
N21
A   22
C22
A   23
C23
A   24
C24
A   25
C25
M  END
