2OHL_2AQ_A_390
     RDKit          3D

 19 20  0  0  0  0  0  0  0  0999 V2000
   65.9390   48.6290    6.0130 N   0  0  0  0  0  0  0  0  0  0  0  0
   66.6300   48.6680    7.0830 C   0  0  0  0  0  0  0  0  0  0  0  0
   66.9230   47.5020    7.7790 C   0  0  0  0  0  0  0  0  0  0  0  0
   67.6720   47.5720    8.9280 C   0  0  0  0  0  0  0  0  0  0  0  0
   68.1000   48.8100    9.3810 C   0  0  0  0  0  0  0  0  0  0  0  0
   68.8550   48.9590   10.5330 C   0  0  0  0  0  0  0  0  0  0  0  0
   69.2520   50.2120   10.9470 C   0  0  0  0  0  0  0  0  0  0  0  0
   68.9030   51.3310   10.2150 C   0  0  0  0  0  0  0  0  0  0  0  0
   68.1580   51.2020    9.0600 C   0  0  0  0  0  0  0  0  0  0  0  0
   67.7480   49.9540    8.6280 C   0  0  0  0  0  0  0  0  0  0  0  0
   67.0270   49.8790    7.5020 N   0  0  0  0  0  0  0  0  0  0  0  0
   64.9119   48.5710    6.0650 H   0  0  0  0  0  0  0  0  0  0  0  0
   66.4075   48.6554    5.0961 H   0  0  0  0  0  0  0  0  0  0  0  0
   66.5582   46.5310    7.4129 H   0  0  0  0  0  0  0  0  0  0  0  0
   67.9290   46.6570    9.4818 H   0  0  0  0  0  0  0  0  0  0  0  0
   69.1389   48.0730   11.1199 H   0  0  0  0  0  0  0  0  0  0  0  0
   69.8493   50.3220   11.8641 H   0  0  0  0  0  0  0  0  0  0  0  0
   69.2200   52.3283   10.5540 H   0  0  0  0  0  0  0  0  0  0  0  0
   67.8890   52.0971    8.4800 H   0  0  0  0  0  0  0  0  0  0  0  0
  1  2  1  0
  2 11  2  0
  2  3  1  0
  3  4  2  0
  4  5  1  0
  5 10  2  0
  5  6  1  0
  6  7  2  0
  7  8  1  0
  8  9  2  0
  9 10  1  0
 10 11  1  0
  1 12  1  0
  1 13  1  0
  3 14  1  0
  4 15  1  0
  6 16  1  0
  7 17  1  0
  8 18  1  0
  9 19  1  0
A    1
N1
A    2
C2
A    3
C3
A    4
C4
A    5
C5
A    6
C6
A    7
C7
A    8
C8
A    9
C9
A   10
C10
A   11
N11
M  END
