5G66_M5K_A_1366
     RDKit          3D

 22 23  0  0  0  0  0  0  0  0999 V2000
    2.4270   20.3130   23.0280 C   0  0  0  0  0  0  0  0  0  0  0  0
    2.6540   19.0310   23.8330 C   0  0  0  0  0  0  0  0  0  0  0  0
    2.0510   18.8740   25.0900 C   0  0  0  0  0  0  0  0  0  0  0  0
    3.4650   17.9900   23.3230 C   0  0  0  0  0  0  0  0  0  0  0  0
    2.2450   17.6820   25.8110 C   0  0  0  0  0  0  0  0  0  0  0  0
    1.6580   17.5220   27.0930 N   0  0  0  0  0  0  0  0  0  0  0  0
    3.0670   16.7150   25.3320 N   0  0  0  0  0  0  0  0  0  0  0  0
    4.5170   15.8080   23.6190 C   0  0  0  0  0  0  0  0  0  0  0  0
    3.6480   16.8580   24.0810 C   0  0  0  0  0  0  0  0  0  0  0  0
    4.9100   17.0370   21.5960 C   0  0  0  0  0  0  0  0  0  0  0  0
    4.0970   18.0800   22.0490 C   0  0  0  0  0  0  0  0  0  0  0  0
    5.1360   15.8880   22.3710 C   0  0  0  0  0  0  0  0  0  0  0  0
    2.2775   21.1571   23.7173 H   0  0  0  0  0  0  0  0  0  0  0  0
    3.3046   20.5082   22.3941 H   0  0  0  0  0  0  0  0  0  0  0  0
    1.5358   20.1950   22.3941 H   0  0  0  0  0  0  0  0  0  0  0  0
    1.4297   19.6790   25.5095 H   0  0  0  0  0  0  0  0  0  0  0  0
    2.2225   17.6759   27.9407 H   0  0  0  0  0  0  0  0  0  0  0  0
    0.6675   17.2520   27.1758 H   0  0  0  0  0  0  0  0  0  0  0  0
    4.6956   14.9307   24.2582 H   0  0  0  0  0  0  0  0  0  0  0  0
    5.3849   17.1184   20.6071 H   0  0  0  0  0  0  0  0  0  0  0  0
    3.9450   18.9707   21.4217 H   0  0  0  0  0  0  0  0  0  0  0  0
    5.7814   15.0757   22.0054 H   0  0  0  0  0  0  0  0  0  0  0  0
  1  2  1  0
  2  3  2  0
  2  4  1  0
  3  5  1  0
  5  6  1  0
  5  7  2  0
  7  9  1  0
  9  8  1  0
  9  4  2  0
  8 12  2  0
 12 10  1  0
 10 11  2  0
 11  4  1  0
  1 13  1  0
  1 14  1  0
  1 15  1  0
  3 16  1  0
  6 17  1  0
  6 18  1  0
  8 19  1  0
 10 20  1  0
 11 21  1  0
 12 22  1  0
A    1
C01
A    2
C02
A    3
C03
A    4
C12
A    5
C04
A    6
N05
A    7
N06
A    8
C08
A    9
C07
A   10
C10
A   11
C11
A   12
C09
M  END
