4CAN_M7K_A_800
     RDKit          3D

 40 42  0  0  0  0  0  0  0  0999 V2000
   13.1230    0.5440   24.2220 N   0  0  0  0  0  0  0  0  0  0  0  0
   14.3040    0.4050   23.5490 C   0  0  0  0  0  0  0  0  0  0  0  0
   15.0510   -0.7150   23.6850 N   0  0  0  0  0  0  0  0  0  0  0  0
   14.7060    1.4100   22.6640 C   0  0  0  0  0  0  0  0  0  0  0  0
   13.9440    2.5850   22.5240 C   0  0  0  0  0  0  0  0  0  0  0  0
   12.7660    2.7140   23.2490 C   0  0  0  0  0  0  0  0  0  0  0  0
   11.9920    3.8560   23.1080 C   0  0  0  0  0  0  0  0  0  0  0  0
   10.8020    4.0110   23.8120 C   0  0  0  0  0  0  0  0  0  0  0  0
   10.3760    2.9900   24.6540 C   0  0  0  0  0  0  0  0  0  0  0  0
   11.1540    1.8280   24.7980 C   0  0  0  0  0  0  0  0  0  0  0  0
   12.3530    1.6820   24.0980 C   0  0  0  0  0  0  0  0  0  0  0  0
    9.0880    3.1770   25.4230 C   0  0  0  0  0  0  0  0  0  0  0  0
    7.9150    2.4790   24.7490 C   0  0  0  0  0  0  0  0  0  0  0  0
    6.6840    3.2090   25.0090 N   0  0  0  0  0  0  0  0  0  0  0  0
    5.4410    2.4990   25.2190 C   0  0  0  0  0  0  0  0  0  0  0  0
    4.7960    3.0430   26.4770 C   0  0  0  0  0  0  0  0  0  0  0  0
    3.7320    3.9520   26.4080 C   0  0  0  0  0  0  0  0  0  0  0  0
    3.1560    4.4380   27.5890 C   0  0  0  0  0  0  0  0  0  0  0  0
    3.6400    4.0230   28.8290 C   0  0  0  0  0  0  0  0  0  0  0  0
    4.6970    3.1160   28.9000 C   0  0  0  0  0  0  0  0  0  0  0  0
    5.2750    2.6330   27.7240 C   0  0  0  0  0  0  0  0  0  0  0  0
    2.1320    5.3060   27.5450 F   0  0  0  0  0  0  0  0  0  0  0  0
   15.2856   -1.0667   24.6243 H   0  0  0  0  0  0  0  0  0  0  0  0
   15.3851   -1.2159   22.8493 H   0  0  0  0  0  0  0  0  0  0  0  0
   15.6246    1.2814   22.0728 H   0  0  0  0  0  0  0  0  0  0  0  0
   14.2762    3.3890   21.8507 H   0  0  0  0  0  0  0  0  0  0  0  0
   12.3248    4.6535   22.4274 H   0  0  0  0  0  0  0  0  0  0  0  0
   10.2061    4.9292   23.7038 H   0  0  0  0  0  0  0  0  0  0  0  0
   10.8145    1.0254   25.4693 H   0  0  0  0  0  0  0  0  0  0  0  0
    9.2146    2.7625   26.4340 H   0  0  0  0  0  0  0  0  0  0  0  0
    8.8672    4.2540   25.4593 H   0  0  0  0  0  0  0  0  0  0  0  0
    8.0910    2.4369   23.6640 H   0  0  0  0  0  0  0  0  0  0  0  0
    7.8218    1.4598   25.1523 H   0  0  0  0  0  0  0  0  0  0  0  0
    6.8483    3.7733   25.8548 H   0  0  0  0  0  0  0  0  0  0  0  0
    4.7724    2.6552   24.3596 H   0  0  0  0  0  0  0  0  0  0  0  0
    5.6307    1.4205   25.3234 H   0  0  0  0  0  0  0  0  0  0  0  0
    3.3505    4.2827   25.4307 H   0  0  0  0  0  0  0  0  0  0  0  0
    3.1872    4.4117   29.7531 H   0  0  0  0  0  0  0  0  0  0  0  0
    5.0738    2.7825   29.8781 H   0  0  0  0  0  0  0  0  0  0  0  0
    6.1142    1.9240   27.7798 H   0  0  0  0  0  0  0  0  0  0  0  0
  2  1  2  0
 11  1  1  0
  4  2  1  0
  2  3  1  0
  5  4  2  0
  5  6  1  0
  7  6  1  0
  6 11  2  0
  7  8  2  0
  8  9  1  0
  9 10  2  0
  9 12  1  0
 11 10  1  0
 13 12  1  0
 13 14  1  0
 14 15  1  0
 15 16  1  0
 17 16  2  0
 16 21  1  0
 17 18  1  0
 22 18  1  0
 18 19  2  0
 19 20  1  0
 21 20  2  0
  3 23  1  0
  3 24  1  0
  4 25  1  0
  5 26  1  0
  7 27  1  0
  8 28  1  0
 10 29  1  0
 12 30  1  0
 12 31  1  0
 13 32  1  0
 13 33  1  0
 14 34  1  0
 15 35  1  0
 15 36  1  0
 17 37  1  0
 19 38  1  0
 20 39  1  0
 21 40  1  0
A    1
N01
A    2
C02
A    3
N02
A    4
C03
A    5
C04
A    6
C05
A    7
C06
A    8
C07
A    9
C08
A   10
C09
A   11
C10
A   12
C11
A   13
C12
A   14
N13
A   15
C14
A   16
C21
A   17
C22
A   18
C23
A   19
C24
A   20
C25
A   21
C26
A   22
F27
M  END
