4CDT_M48_A_801
     RDKit          3D

 43 45  0  0  0  0  0  0  0  0999 V2000
    0.2940    2.3640   28.7590 F   0  0  0  0  0  0  0  0  0  0  0  0
    2.2870    5.4170   29.0090 C   0  0  0  0  0  0  0  0  0  0  0  0
    1.1980    4.5440   29.0890 C   0  0  0  0  0  0  0  0  0  0  0  0
    1.3400    3.2150   28.6740 C   0  0  0  0  0  0  0  0  0  0  0  0
    2.5770    2.7700   28.1670 C   0  0  0  0  0  0  0  0  0  0  0  0
    3.5180    4.9640   28.5030 C   0  0  0  0  0  0  0  0  0  0  0  0
    3.6870    3.6360   28.0570 C   0  0  0  0  0  0  0  0  0  0  0  0
    5.0290    3.1140   27.5020 C   0  0  0  0  0  0  0  0  0  0  0  0
    5.6150    3.8210   26.2600 C   0  0  0  0  0  0  0  0  0  0  0  0
    6.6460    3.0100   25.6030 N   0  0  0  0  0  0  0  0  0  0  0  0
    7.8660    3.5540   25.0020 C   0  0  0  0  0  0  0  0  0  0  0  0
    9.1550    3.0490   25.6620 C   0  0  0  0  0  0  0  0  0  0  0  0
   10.4370    2.9470   24.8310 C   0  0  0  0  0  0  0  0  0  0  0  0
   10.9040    3.9440   23.9860 C   0  0  0  0  0  0  0  0  0  0  0  0
   12.0950    3.7940   23.2310 C   0  0  0  0  0  0  0  0  0  0  0  0
   11.2500    1.8140   24.9780 C   0  0  0  0  0  0  0  0  0  0  0  0
   12.4540    1.6500   24.2660 C   0  0  0  0  0  0  0  0  0  0  0  0
   13.2040    0.5210   24.4480 N   0  0  0  0  0  0  0  0  0  0  0  0
   12.8710    2.6470   23.3780 C   0  0  0  0  0  0  0  0  0  0  0  0
   14.0500    2.4910   22.6800 C   0  0  0  0  0  0  0  0  0  0  0  0
   14.7660    1.3080   22.8520 C   0  0  0  0  0  0  0  0  0  0  0  0
   14.3470    0.3590   23.7680 C   0  0  0  0  0  0  0  0  0  0  0  0
   15.0590   -0.7580   23.9560 N   0  0  0  0  0  0  0  0  0  0  0  0
    2.1806    6.4598   29.3424 H   0  0  0  0  0  0  0  0  0  0  0  0
    0.2324    4.9006   29.4770 H   0  0  0  0  0  0  0  0  0  0  0  0
    2.6807    1.7221   27.8490 H   0  0  0  0  0  0  0  0  0  0  0  0
    4.3682    5.6602   28.4537 H   0  0  0  0  0  0  0  0  0  0  0  0
    5.7725    3.1964   28.3085 H   0  0  0  0  0  0  0  0  0  0  0  0
    4.8108    2.0906   27.1627 H   0  0  0  0  0  0  0  0  0  0  0  0
    4.8026    4.0118   25.5433 H   0  0  0  0  0  0  0  0  0  0  0  0
    6.0810    4.7607   26.5915 H   0  0  0  0  0  0  0  0  0  0  0  0
    6.9634    2.3354   26.3137 H   0  0  0  0  0  0  0  0  0  0  0  0
    7.8858    3.2710   23.9392 H   0  0  0  0  0  0  0  0  0  0  0  0
    7.8368    4.6443   25.1449 H   0  0  0  0  0  0  0  0  0  0  0  0
    9.3710    3.7258   26.5018 H   0  0  0  0  0  0  0  0  0  0  0  0
    8.9249    2.0027   25.9118 H   0  0  0  0  0  0  0  0  0  0  0  0
   10.3324    4.8798   23.8992 H   0  0  0  0  0  0  0  0  0  0  0  0
   12.4056    4.5828   22.5300 H   0  0  0  0  0  0  0  0  0  0  0  0
   10.9356    1.0237   25.6756 H   0  0  0  0  0  0  0  0  0  0  0  0
   14.4155    3.2793   22.0055 H   0  0  0  0  0  0  0  0  0  0  0  0
   15.6718    1.1269   22.2547 H   0  0  0  0  0  0  0  0  0  0  0  0
   15.2657   -1.0823   24.9115 H   0  0  0  0  0  0  0  0  0  0  0  0
   15.4004   -1.2937   23.1452 H   0  0  0  0  0  0  0  0  0  0  0  0
  1  4  1  0
  4  3  1  0
  4  5  2  0
  3  2  2  0
  2  6  1  0
  6  7  2  0
  5  7  1  0
  7  8  1  0
  8  9  1  0
  9 10  1  0
 10 11  1  0
 11 12  1  0
 12 13  1  0
 13 14  2  0
 13 16  1  0
 14 15  1  0
 15 19  2  0
 16 17  2  0
 17 18  1  0
 17 19  1  0
 18 22  2  0
 19 20  1  0
 20 21  2  0
 21 22  1  0
 22 23  1  0
  2 24  1  0
  3 25  1  0
  5 26  1  0
  6 27  1  0
  8 28  1  0
  8 29  1  0
  9 30  1  0
  9 31  1  0
 10 32  1  0
 11 33  1  0
 11 34  1  0
 12 35  1  0
 12 36  1  0
 14 37  1  0
 15 38  1  0
 16 39  1  0
 20 40  1  0
 21 41  1  0
 23 42  1  0
 23 43  1  0
A    1
F23
A    2
C25
A    3
C24
A    4
C23
A    5
C22
A    6
C26
A    7
C21
A    8
C15
A    9
C14
A   10
N13
A   11
C12
A   12
C11
A   13
C08
A   14
C07
A   15
C06
A   16
C09
A   17
C10
A   18
N01
A   19
C05
A   20
C04
A   21
C03
A   22
C02
A   23
N02
M  END
