5ADB_XEB_A_800
     RDKit          3D

 41 43  0  0  0  0  0  0  0  0999 V2000
   13.2610    0.4800   24.2810 N   0  0  0  0  0  0  0  0  0  0  0  0
   14.4150    0.3270   23.6080 C   0  0  0  0  0  0  0  0  0  0  0  0
   15.1500   -0.7930   23.8150 N   0  0  0  0  0  0  0  0  0  0  0  0
   14.8290    1.3010   22.6970 C   0  0  0  0  0  0  0  0  0  0  0  0
   14.0590    2.4530   22.5010 C   0  0  0  0  0  0  0  0  0  0  0  0
   12.8700    2.5850   23.2180 C   0  0  0  0  0  0  0  0  0  0  0  0
   12.0490    3.7090   23.0660 C   0  0  0  0  0  0  0  0  0  0  0  0
   10.8600    3.8420   23.7970 C   0  0  0  0  0  0  0  0  0  0  0  0
   10.4670    2.8280   24.6760 C   0  0  0  0  0  0  0  0  0  0  0  0
   11.2890    1.7110   24.8190 C   0  0  0  0  0  0  0  0  0  0  0  0
   12.4880    1.5830   24.1040 C   0  0  0  0  0  0  0  0  0  0  0  0
    9.1900    2.9020   25.4940 C   0  0  0  0  0  0  0  0  0  0  0  0
    8.2490    3.8610   25.0270 O   0  0  0  0  0  0  0  0  0  0  0  0
    7.1250    4.1140   25.7800 C   0  0  0  0  0  0  0  0  0  0  0  0
    6.3800    5.2650   25.5330 C   0  0  0  0  0  0  0  0  0  0  0  0
    5.2420    5.5270   26.2910 C   0  0  0  0  0  0  0  0  0  0  0  0
    4.8400    4.6490   27.2960 C   0  0  0  0  0  0  0  0  0  0  0  0
    5.5720    3.4980   27.5510 C   0  0  0  0  0  0  0  0  0  0  0  0
    6.7160    3.2340   26.7890 C   0  0  0  0  0  0  0  0  0  0  0  0
    3.3690    5.0120   28.2610 Cl  0  0  0  0  0  0  0  0  0  0  0  0
    5.1250    2.5410   28.6430 C   0  0  0  0  0  0  0  0  0  0  0  0
    6.1810    1.5350   28.8900 N   0  0  0  0  0  0  0  0  0  0  0  0
    5.6060    0.2200   29.2230 C   0  0  0  0  0  0  0  0  0  0  0  0
   15.3545   -1.1046   24.7752 H   0  0  0  0  0  0  0  0  0  0  0  0
   15.5040   -1.3324   23.0121 H   0  0  0  0  0  0  0  0  0  0  0  0
   15.7626    1.1624   22.1321 H   0  0  0  0  0  0  0  0  0  0  0  0
   14.3835    3.2351   21.7988 H   0  0  0  0  0  0  0  0  0  0  0  0
   12.3418    4.5011   22.3611 H   0  0  0  0  0  0  0  0  0  0  0  0
   10.2380    4.7416   23.6794 H   0  0  0  0  0  0  0  0  0  0  0  0
   10.9891    0.9098   25.5104 H   0  0  0  0  0  0  0  0  0  0  0  0
    8.7110    1.9120   25.4747 H   0  0  0  0  0  0  0  0  0  0  0  0
    9.4830    3.2163   26.5066 H   0  0  0  0  0  0  0  0  0  0  0  0
    6.6897    5.9641   24.7422 H   0  0  0  0  0  0  0  0  0  0  0  0
    4.6543    6.4359   26.0948 H   0  0  0  0  0  0  0  0  0  0  0  0
    7.3011    2.3235   26.9855 H   0  0  0  0  0  0  0  0  0  0  0  0
    4.9346    3.1053   29.5678 H   0  0  0  0  0  0  0  0  0  0  0  0
    4.2042    2.0306   28.3244 H   0  0  0  0  0  0  0  0  0  0  0  0
    6.7599    1.4425   28.0431 H   0  0  0  0  0  0  0  0  0  0  0  0
    5.5568    0.1075   30.3161 H   0  0  0  0  0  0  0  0  0  0  0  0
    4.5930    0.1452   28.8007 H   0  0  0  0  0  0  0  0  0  0  0  0
    6.2389   -0.5745   28.8007 H   0  0  0  0  0  0  0  0  0  0  0  0
  1  2  2  0
  1 11  1  0
  2  3  1  0
  2  4  1  0
  4  5  2  0
  5  6  1  0
  6  7  1  0
  6 11  2  0
  7  8  2  0
  8  9  1  0
  9 10  2  0
  9 12  1  0
 10 11  1  0
 12 13  1  0
 13 14  1  0
 14 15  2  0
 14 19  1  0
 15 16  1  0
 16 17  2  0
 17 18  1  0
 17 20  1  0
 18 19  2  0
 18 21  1  0
 21 22  1  0
 22 23  1  0
  3 24  1  0
  3 25  1  0
  4 26  1  0
  5 27  1  0
  7 28  1  0
  8 29  1  0
 10 30  1  0
 12 31  1  0
 12 32  1  0
 15 33  1  0
 16 34  1  0
 19 35  1  0
 21 36  1  0
 21 37  1  0
 22 38  1  0
 23 39  1  0
 23 40  1  0
 23 41  1  0
A    1
N01
A    2
C02
A    3
N02
A    4
C03
A    5
C04
A    6
C05
A    7
C06
A    8
C07
A    9
C08
A   10
C09
A   11
C10
A   12
C11
A   13
O12
A   14
C21
A   15
C22
A   16
C23
A   17
C24
A   18
C25
A   19
C26
A   20
CL
A   21
C28
A   22
N29
A   23
C30
M  END
