5AD8_9M9_A_800
     RDKit          3D

 38 40  0  0  0  0  0  0  0  0999 V2000
   13.1650    0.4520   24.1780 N   0  0  0  0  0  0  0  0  0  0  0  0
   14.3310    0.2900   23.5230 C   0  0  0  0  0  0  0  0  0  0  0  0
   15.0300   -0.8610   23.7050 N   0  0  0  0  0  0  0  0  0  0  0  0
   14.7920    1.2910   22.6710 C   0  0  0  0  0  0  0  0  0  0  0  0
   14.0490    2.4550   22.5080 C   0  0  0  0  0  0  0  0  0  0  0  0
   12.8500    2.5900   23.2050 C   0  0  0  0  0  0  0  0  0  0  0  0
   12.0820    3.7390   23.0800 C   0  0  0  0  0  0  0  0  0  0  0  0
   10.8820    3.8410   23.7850 C   0  0  0  0  0  0  0  0  0  0  0  0
   10.4500    2.8010   24.6180 C   0  0  0  0  0  0  0  0  0  0  0  0
   11.2240    1.6550   24.7310 C   0  0  0  0  0  0  0  0  0  0  0  0
   12.4240    1.5620   24.0390 C   0  0  0  0  0  0  0  0  0  0  0  0
    9.1460    2.9150   25.3740 C   0  0  0  0  0  0  0  0  0  0  0  0
    8.5550    4.1360   24.9650 O   0  0  0  0  0  0  0  0  0  0  0  0
    5.2000    4.2170   26.4000 C   0  0  0  0  0  0  0  0  0  0  0  0
    4.5150    4.9100   25.3960 C   0  0  0  0  0  0  0  0  0  0  0  0
    5.1760    5.3460   24.2470 C   0  0  0  0  0  0  0  0  0  0  0  0
    6.5340    5.0790   24.1070 C   0  0  0  0  0  0  0  0  0  0  0  0
    7.2180    4.3800   25.1050 C   0  0  0  0  0  0  0  0  0  0  0  0
    6.5590    3.9510   26.2540 C   0  0  0  0  0  0  0  0  0  0  0  0
    4.4790    3.7430   27.6430 C   0  0  0  0  0  0  0  0  0  0  0  0
    5.2200    2.6320   28.2620 N   0  0  0  0  0  0  0  0  0  0  0  0
   15.2329   -1.1951   24.6579 H   0  0  0  0  0  0  0  0  0  0  0  0
   15.3569   -1.3993   22.8900 H   0  0  0  0  0  0  0  0  0  0  0  0
   15.7404    1.1611   22.1291 H   0  0  0  0  0  0  0  0  0  0  0  0
   14.4015    3.2552   21.8406 H   0  0  0  0  0  0  0  0  0  0  0  0
   12.4161    4.5620   22.4311 H   0  0  0  0  0  0  0  0  0  0  0  0
   10.2683    4.7485   23.6854 H   0  0  0  0  0  0  0  0  0  0  0  0
   10.8879    0.8227   25.3669 H   0  0  0  0  0  0  0  0  0  0  0  0
    8.4865    2.0705   25.1254 H   0  0  0  0  0  0  0  0  0  0  0  0
    9.3111    2.8951   26.4614 H   0  0  0  0  0  0  0  0  0  0  0  0
    3.4405    5.1140   25.5140 H   0  0  0  0  0  0  0  0  0  0  0  0
    4.6311    5.8929   23.4634 H   0  0  0  0  0  0  0  0  0  0  0  0
    7.0705    5.4188   23.2088 H   0  0  0  0  0  0  0  0  0  0  0  0
    7.1063    3.4076   27.0383 H   0  0  0  0  0  0  0  0  0  0  0  0
    4.4032    4.5742   28.3595 H   0  0  0  0  0  0  0  0  0  0  0  0
    3.4725    3.3959   27.3664 H   0  0  0  0  0  0  0  0  0  0  0  0
    5.1662    2.7126   29.2874 H   0  0  0  0  0  0  0  0  0  0  0  0
    4.8065    1.7363   27.9659 H   0  0  0  0  0  0  0  0  0  0  0  0
  1  2  2  0
  1 11  1  0
  2  3  1  0
  2  4  1  0
  4  5  2  0
  5  6  1  0
  6  7  1  0
  6 11  2  0
  7  8  2  0
  8  9  1  0
  9 10  2  0
  9 12  1  0
 10 11  1  0
 12 13  1  0
 13 18  1  0
 14 15  2  0
 14 19  1  0
 14 20  1  0
 15 16  1  0
 16 17  2  0
 17 18  1  0
 18 19  2  0
 20 21  1  0
  3 22  1  0
  3 23  1  0
  4 24  1  0
  5 25  1  0
  7 26  1  0
  8 27  1  0
 10 28  1  0
 12 29  1  0
 12 30  1  0
 15 31  1  0
 16 32  1  0
 17 33  1  0
 19 34  1  0
 20 35  1  0
 20 36  1  0
 21 37  1  0
 21 38  1  0
A    1
N01
A    2
C02
A    3
N02
A    4
C03
A    5
C04
A    6
C05
A    7
C06
A    8
C07
A    9
C08
A   10
C09
A   11
C10
A   12
C11
A   13
O12
A   14
C21
A   15
C22
A   16
C23
A   17
C24
A   18
C25
A   19
C26
A   20
C27
A   21
N28
M  END
