5AD9_8VJ_A_800
     RDKit          3D

 44 46  0  0  0  0  0  0  0  0999 V2000
    3.9000    1.3760   30.0950 C   0  0  0  0  0  0  0  0  0  0  0  0
    4.0070    0.6050   28.8460 N   0  0  0  0  0  0  0  0  0  0  0  0
    3.1430   -0.5840   28.9270 C   0  0  0  0  0  0  0  0  0  0  0  0
    3.6010    1.4290   27.6900 C   0  0  0  0  0  0  0  0  0  0  0  0
    6.7900    3.2410   26.7060 C   0  0  0  0  0  0  0  0  0  0  0  0
    5.6790    2.8280   27.4330 C   0  0  0  0  0  0  0  0  0  0  0  0
    4.8120    1.8790   26.8980 C   0  0  0  0  0  0  0  0  0  0  0  0
    5.0570    1.3510   25.6300 C   0  0  0  0  0  0  0  0  0  0  0  0
    6.1710    1.7650   24.9030 C   0  0  0  0  0  0  0  0  0  0  0  0
    7.0330    2.7200   25.4390 C   0  0  0  0  0  0  0  0  0  0  0  0
    8.1450    3.1400   24.7580 O   0  0  0  0  0  0  0  0  0  0  0  0
    9.3620    2.9530   25.4620 C   0  0  0  0  0  0  0  0  0  0  0  0
   12.5830    1.6080   23.9940 C   0  0  0  0  0  0  0  0  0  0  0  0
   11.4220    1.7430   24.7480 C   0  0  0  0  0  0  0  0  0  0  0  0
   10.5990    2.8570   24.6010 C   0  0  0  0  0  0  0  0  0  0  0  0
   10.9370    3.8620   23.6930 C   0  0  0  0  0  0  0  0  0  0  0  0
   12.0980    3.7220   22.9280 C   0  0  0  0  0  0  0  0  0  0  0  0
   12.9210    2.6060   23.0800 C   0  0  0  0  0  0  0  0  0  0  0  0
   14.0830    2.4650   22.3260 C   0  0  0  0  0  0  0  0  0  0  0  0
   14.8760    1.3300   22.4860 C   0  0  0  0  0  0  0  0  0  0  0  0
   14.5070    0.3600   23.4200 C   0  0  0  0  0  0  0  0  0  0  0  0
   15.2820   -0.7420   23.5950 N   0  0  0  0  0  0  0  0  0  0  0  0
   13.3750    0.5150   24.1450 N   0  0  0  0  0  0  0  0  0  0  0  0
    3.9943    0.6963   30.9547 H   0  0  0  0  0  0  0  0  0  0  0  0
    4.7025    2.1275   30.1319 H   0  0  0  0  0  0  0  0  0  0  0  0
    2.9232    1.8805   30.1319 H   0  0  0  0  0  0  0  0  0  0  0  0
    2.9613   -0.8340   29.9827 H   0  0  0  0  0  0  0  0  0  0  0  0
    2.1844   -0.3753   28.4294 H   0  0  0  0  0  0  0  0  0  0  0  0
    3.6376   -1.4312   28.4294 H   0  0  0  0  0  0  0  0  0  0  0  0
    2.9435    0.8358   27.0375 H   0  0  0  0  0  0  0  0  0  0  0  0
    3.0712    2.3191   28.0602 H   0  0  0  0  0  0  0  0  0  0  0  0
    7.4799    3.9829   27.1345 H   0  0  0  0  0  0  0  0  0  0  0  0
    5.4852    3.2507   28.4299 H   0  0  0  0  0  0  0  0  0  0  0  0
    4.3691    0.6062   25.2034 H   0  0  0  0  0  0  0  0  0  0  0  0
    6.3697    1.3392   23.9084 H   0  0  0  0  0  0  0  0  0  0  0  0
    9.4912    3.8027   26.1485 H   0  0  0  0  0  0  0  0  0  0  0  0
    9.2714    1.9828   25.9725 H   0  0  0  0  0  0  0  0  0  0  0  0
   11.1501    0.9592   25.4703 H   0  0  0  0  0  0  0  0  0  0  0  0
   10.2989    4.7510   23.5813 H   0  0  0  0  0  0  0  0  0  0  0  0
   12.3658    4.5002   22.1981 H   0  0  0  0  0  0  0  0  0  0  0  0
   14.3738    3.2456   21.6075 H   0  0  0  0  0  0  0  0  0  0  0  0
   15.7855    1.1995   21.8811 H   0  0  0  0  0  0  0  0  0  0  0  0
   15.5097   -1.0658   24.5459 H   0  0  0  0  0  0  0  0  0  0  0  0
   15.6419   -1.2537   22.7768 H   0  0  0  0  0  0  0  0  0  0  0  0
  1  2  1  0
  2  3  1  0
  2  4  1  0
  4  7  1  0
  5  6  2  0
  5 10  1  0
  6  7  1  0
  7  8  2  0
  8  9  1  0
  9 10  2  0
 10 11  1  0
 11 12  1  0
 12 15  1  0
 13 14  2  0
 13 18  1  0
 13 23  1  0
 14 15  1  0
 15 16  2  0
 16 17  1  0
 17 18  2  0
 18 19  1  0
 19 20  2  0
 20 21  1  0
 21 22  1  0
 21 23  2  0
  1 24  1  0
  1 25  1  0
  1 26  1  0
  3 27  1  0
  3 28  1  0
  3 29  1  0
  4 30  1  0
  4 31  1  0
  5 32  1  0
  6 33  1  0
  8 34  1  0
  9 35  1  0
 12 36  1  0
 12 37  1  0
 14 38  1  0
 16 39  1  0
 17 40  1  0
 19 41  1  0
 20 42  1  0
 22 43  1  0
 22 44  1  0
A    1
C29
A    2
N28
A    3
C30
A    4
C27
A    5
C26
A    6
C25
A    7
C24
A    8
C23
A    9
C22
A   10
C21
A   11
O12
A   12
C11
A   13
C10
A   14
C09
A   15
C08
A   16
C07
A   17
C06
A   18
C05
A   19
C04
A   20
C03
A   21
C02
A   22
N02
A   23
N01
M  END
