3QRI_919_A_500
     RDKit          3D

 69 73  0  0  0  0  0  0  0  0999 V2000
   26.5400    7.9350   28.7590 C   0  0  0  0  0  0  0  0  0  0  0  0
   26.9920    6.6310   28.5320 C   0  0  0  0  0  0  0  0  0  0  0  0
   27.1300    5.6850   29.5410 C   0  0  0  0  0  0  0  0  0  0  0  0
   26.8920    6.0360   30.8630 C   0  0  0  0  0  0  0  0  0  0  0  0
   26.3500    7.2820   31.1250 C   0  0  0  0  0  0  0  0  0  0  0  0
   26.2240    8.2250   30.0900 C   0  0  0  0  0  0  0  0  0  0  0  0
   26.5480    5.3600   33.0870 C   0  0  0  0  0  0  0  0  0  0  0  0
   26.9800    5.1040   31.8390 N   0  0  0  0  0  0  0  0  0  0  0  0
   26.0300    7.6110   32.4420 C   0  0  0  0  0  0  0  0  0  0  0  0
   26.2700    6.6790   33.4480 C   0  0  0  0  0  0  0  0  0  0  0  0
   29.0890   20.1520   30.3000 C   0  0  0  0  0  0  0  0  0  0  0  0
   28.6330   21.0580   31.1800 N   0  0  0  0  0  0  0  0  0  0  0  0
   28.3310   20.7220   32.4460 C   0  0  0  0  0  0  0  0  0  0  0  0
   28.5310   19.4100   32.8760 C   0  0  0  0  0  0  0  0  0  0  0  0
   29.0080   18.4590   31.9850 C   0  0  0  0  0  0  0  0  0  0  0  0
   29.2920   18.8320   30.6840 C   0  0  0  0  0  0  0  0  0  0  0  0
   27.6220   14.5020   30.4660 C   0  0  0  0  0  0  0  0  0  0  0  0
   27.8550   15.7500   31.0450 C   0  0  0  0  0  0  0  0  0  0  0  0
   28.9910   15.9850   31.8080 C   0  0  0  0  0  0  0  0  0  0  0  0
   29.9050   14.9540   31.9970 C   0  0  0  0  0  0  0  0  0  0  0  0
   29.6810   13.7170   31.4130 C   0  0  0  0  0  0  0  0  0  0  0  0
   28.5530   13.4710   30.6310 C   0  0  0  0  0  0  0  0  0  0  0  0
   25.5050    9.5670   25.9910 C   0  0  0  0  0  0  0  0  0  0  0  0
   26.0910   10.6450   26.6250 C   0  0  0  0  0  0  0  0  0  0  0  0
   26.7810   10.1020   27.6990 C   0  0  0  0  0  0  0  0  0  0  0  0
   26.4570    8.7880   27.7170 N   0  0  0  0  0  0  0  0  0  0  0  0
   25.6590    8.4110   26.6400 N   0  0  0  0  0  0  0  0  0  0  0  0
   27.5220   10.6070   28.7330 N   0  0  0  0  0  0  0  0  0  0  0  0
   27.6000   11.9190   29.0400 C   0  0  0  0  0  0  0  0  0  0  0  0
   28.3470   12.2220   30.1160 N   0  0  0  0  0  0  0  0  0  0  0  0
   27.0330   12.7870   28.3770 O   0  0  0  0  0  0  0  0  0  0  0  0
   29.2240   17.1830   32.4340 O   0  0  0  0  0  0  0  0  0  0  0  0
   30.5930   12.7680   31.6170 F   0  0  0  0  0  0  0  0  0  0  0  0
   27.8100   21.7820   33.3890 C   0  0  0  0  0  0  0  0  0  0  0  0
   27.4140   21.4530   34.4960 O   0  0  0  0  0  0  0  0  0  0  0  0
   27.8050   23.0510   32.9930 N   0  0  0  0  0  0  0  0  0  0  0  0
   27.5850   24.1310   33.9340 C   0  0  0  0  0  0  0  0  0  0  0  0
   24.4900    9.7050   24.8860 C   0  0  0  0  0  0  0  0  0  0  0  0
   25.2690    9.5690   23.5810 C   0  0  0  0  0  0  0  0  0  0  0  0
   23.7790   11.0620   24.9430 C   0  0  0  0  0  0  0  0  0  0  0  0
   23.4640    8.5790   24.9890 C   0  0  0  0  0  0  0  0  0  0  0  0
   27.2512    6.3395   27.5035 H   0  0  0  0  0  0  0  0  0  0  0  0
   27.4284    4.6561   29.2915 H   0  0  0  0  0  0  0  0  0  0  0  0
   25.8615    9.2336   30.3376 H   0  0  0  0  0  0  0  0  0  0  0  0
   26.4160    4.5427   33.8113 H   0  0  0  0  0  0  0  0  0  0  0  0
   25.5945    8.5921   32.6823 H   0  0  0  0  0  0  0  0  0  0  0  0
   26.2411    6.9765   34.5066 H   0  0  0  0  0  0  0  0  0  0  0  0
   29.3039   20.4576   29.2654 H   0  0  0  0  0  0  0  0  0  0  0  0
   28.3115   19.1305   33.9170 H   0  0  0  0  0  0  0  0  0  0  0  0
   29.6734   18.0939   29.9630 H   0  0  0  0  0  0  0  0  0  0  0  0
   26.7071   14.3290   29.8803 H   0  0  0  0  0  0  0  0  0  0  0  0
   27.1270   16.5607   30.8945 H   0  0  0  0  0  0  0  0  0  0  0  0
   30.8040   15.1198   32.6088 H   0  0  0  0  0  0  0  0  0  0  0  0
   26.0249   11.7053   26.3399 H   0  0  0  0  0  0  0  0  0  0  0  0
   28.0541    9.9435   29.3139 H   0  0  0  0  0  0  0  0  0  0  0  0
   28.8083   11.4375   30.5985 H   0  0  0  0  0  0  0  0  0  0  0  0
   27.9604   23.2708   31.9988 H   0  0  0  0  0  0  0  0  0  0  0  0
   27.6638   23.7444   34.9608 H   0  0  0  0  0  0  0  0  0  0  0  0
   28.3422   24.9134   33.7777 H   0  0  0  0  0  0  0  0  0  0  0  0
   26.5821   24.5549   33.7777 H   0  0  0  0  0  0  0  0  0  0  0  0
   26.3299    9.3838   23.8049 H   0  0  0  0  0  0  0  0  0  0  0  0
   24.8649    8.7278   22.9987 H   0  0  0  0  0  0  0  0  0  0  0  0
   25.1738   10.4974   22.9987 H   0  0  0  0  0  0  0  0  0  0  0  0
   23.6268   11.3524   25.9930 H   0  0  0  0  0  0  0  0  0  0  0  0
   24.3956   11.8205   24.4384 H   0  0  0  0  0  0  0  0  0  0  0  0
   22.8044   10.9868   24.4384 H   0  0  0  0  0  0  0  0  0  0  0  0
   23.2647    8.3603   26.0485 H   0  0  0  0  0  0  0  0  0  0  0  0
   22.5302    8.8877   24.4964 H   0  0  0  0  0  0  0  0  0  0  0  0
   23.8579    7.6778   24.4964 H   0  0  0  0  0  0  0  0  0  0  0  0
  1  2  2  0
  1  6  1  0
  1 26  1  0
  2  3  1  0
  3  4  2  0
  4  5  1  0
  4  8  1  0
  5  6  2  0
  5  9  1  0
  7  8  2  0
  7 10  1  0
  9 10  2  0
 11 12  2  0
 11 16  1  0
 12 13  1  0
 13 14  2  0
 13 34  1  0
 14 15  1  0
 15 16  2  0
 15 32  1  0
 17 18  2  0
 17 22  1  0
 18 19  1  0
 19 20  2  0
 19 32  1  0
 20 21  1  0
 21 22  2  0
 21 33  1  0
 22 30  1  0
 23 24  1  0
 23 27  2  0
 23 38  1  0
 24 25  2  0
 25 26  1  0
 25 28  1  0
 26 27  1  0
 28 29  1  0
 29 30  1  0
 29 31  2  0
 34 35  2  0
 34 36  1  0
 36 37  1  0
 38 39  1  0
 38 40  1  0
 38 41  1  0
  2 42  1  0
  3 43  1  0
  6 44  1  0
  7 45  1  0
  9 46  1  0
 10 47  1  0
 11 48  1  0
 14 49  1  0
 16 50  1  0
 17 51  1  0
 18 52  1  0
 20 53  1  0
 24 54  1  0
 28 55  1  0
 30 56  1  0
 36 57  1  0
 37 58  1  0
 37 59  1  0
 37 60  1  0
 39 61  1  0
 39 62  1  0
 39 63  1  0
 40 64  1  0
 40 65  1  0
 40 66  1  0
 41 67  1  0
 41 68  1  0
 41 69  1  0
A    1
C1
A    2
C2
A    3
C3
A    4
C4
A    5
C5
A    6
C6
A    7
C9
A    8
N10
A    9
C13
A   10
C14
A   11
C22
A   12
N23
A   13
C24
A   14
C25
A   15
C26
A   16
C27
A   17
C34
A   18
C35
A   19
C36
A   20
C37
A   21
C38
A   22
C39
A   23
C46
A   24
C47
A   25
C48
A   26
N49
A   27
N50
A   28
N56
A   29
C58
A   30
N60
A   31
O63
A   32
O65
A   33
F68
A   34
C70
A   35
O72
A   36
N74
A   37
C76
A   38
C79
A   39
C81
A   40
C83
A   41
C85
M  END
