5GGK_MBE_A_301
     RDKit          3D

 36 37  0  0  0  0  0  0  0  0999 V2000
  -26.7670  -18.3060  -11.0490 C   0  0  0  0  0  0  0  0  0  0  0  0
  -27.9710  -18.5930  -10.1610 C   0  0  0  0  0  0  0  0  0  0  0  0
  -27.8040  -17.8650   -8.8370 C   0  0  0  0  0  0  0  0  0  0  0  0
  -26.4470  -18.2250   -8.2160 C   0  0  0  0  0  0  0  0  0  0  0  0
  -25.3030  -17.9590   -9.2030 C   0  0  0  0  0  0  0  0  0  0  0  0
  -23.9450  -18.4050   -8.6770 C   0  0  0  0  0  0  0  0  0  0  0  0
  -26.1970  -18.8500  -13.3330 C   0  0  0  0  0  0  0  0  0  0  0  0
  -25.1790  -17.8970  -13.3360 C   0  0  0  0  0  0  0  0  0  0  0  0
  -24.5000  -17.6270  -14.5100 C   0  0  0  0  0  0  0  0  0  0  0  0
  -24.8420  -18.3240  -15.6560 C   0  0  0  0  0  0  0  0  0  0  0  0
  -25.8440  -19.2780  -15.6450 C   0  0  0  0  0  0  0  0  0  0  0  0
  -26.5320  -19.5410  -14.4820 C   0  0  0  0  0  0  0  0  0  0  0  0
  -24.1850  -18.0950  -16.8590 N   0  0  0  0  0  0  0  0  0  0  0  0
  -26.8960  -19.1360  -12.1970 O   0  0  0  0  0  0  0  0  0  0  0  0
  -28.0730  -20.0030   -9.9300 O   0  0  0  0  0  0  0  0  0  0  0  0
  -28.8930  -18.2080   -7.9700 O   0  0  0  0  0  0  0  0  0  0  0  0
  -26.2510  -17.4410   -7.0290 O   0  0  0  0  0  0  0  0  0  0  0  0
  -25.5460  -18.6820  -10.4080 O   0  0  0  0  0  0  0  0  0  0  0  0
  -23.9120  -19.8260   -8.4200 O   0  0  0  0  0  0  0  0  0  0  0  0
  -24.5640  -18.8150  -17.9730 O   0  0  0  0  0  0  0  0  0  0  0  0
  -23.1500  -17.1900  -16.9070 O   0  0  0  0  0  0  0  0  0  0  0  0
  -26.7391  -17.2313  -11.2820 H   0  0  0  0  0  0  0  0  0  0  0  0
  -28.8877  -18.2424  -10.6578 H   0  0  0  0  0  0  0  0  0  0  0  0
  -27.8205  -16.7765   -8.9950 H   0  0  0  0  0  0  0  0  0  0  0  0
  -26.4450  -19.2965   -7.9674 H   0  0  0  0  0  0  0  0  0  0  0  0
  -25.2757  -16.8711   -9.3637 H   0  0  0  0  0  0  0  0  0  0  0  0
  -23.1754  -18.1598   -9.4238 H   0  0  0  0  0  0  0  0  0  0  0  0
  -23.7555  -17.8806   -7.7288 H   0  0  0  0  0  0  0  0  0  0  0  0
  -24.9177  -17.3634  -12.4103 H   0  0  0  0  0  0  0  0  0  0  0  0
  -23.7014  -16.8709  -14.5328 H   0  0  0  0  0  0  0  0  0  0  0  0
  -26.0910  -19.8265  -16.5659 H   0  0  0  0  0  0  0  0  0  0  0  0
  -27.3370  -20.2905  -14.4674 H   0  0  0  0  0  0  0  0  0  0  0  0
  -28.0856  -20.1777   -8.9556 H   0  0  0  0  0  0  0  0  0  0  0  0
  -28.6053  -18.1174   -7.0271 H   0  0  0  0  0  0  0  0  0  0  0  0
  -26.3931  -18.0093   -6.2309 H   0  0  0  0  0  0  0  0  0  0  0  0
  -23.9083  -19.9846   -7.4428 H   0  0  0  0  0  0  0  0  0  0  0  0
 20 13  1  0
 21 13  2  0
 13 10  1  0
 10 11  2  0
 10  9  1  0
 11 12  1  0
  9  8  2  0
 12  7  2  0
  8  7  1  0
  7 14  1  0
 14  1  1  0
  1 18  1  0
  1  2  1  0
 18  5  1  0
  2 15  1  0
  2  3  1  0
  5  6  1  0
  5  4  1  0
  3  4  1  0
  3 16  1  0
  6 19  1  0
  4 17  1  0
  1 22  1  0
  2 23  1  0
  3 24  1  0
  4 25  1  0
  5 26  1  0
  6 27  1  0
  6 28  1  0
  8 29  1  0
  9 30  1  0
 11 31  1  0
 12 32  1  0
 15 33  1  0
 16 34  1  0
 17 35  1  0
 19 36  1  0
M  CHG  2  13   1  20  -1
A    1
C1
A    2
C2
A    3
C3
A    4
C4
A    5
C5
A    6
C6
A    7
C7
A    8
C8
A    9
C9
A   10
C10
A   11
C11
A   12
C12
A   13
N1
A   14
O1
A   15
O2
A   16
O3
A   17
O4
A   18
O5
A   19
O6
A   20
O7
A   21
O8
M  END
