5GGZ_6TN_B_301
     RDKit          3D

 49 51  0  0  0  0  0  0  0  0999 V2000
   16.2810  -11.5000  -48.3730 C   0  0  0  0  0  0  0  0  0  0  0  0
   17.5530  -10.1720  -50.1730 C   0  0  0  0  0  0  0  0  0  0  0  0
   18.9750   -8.8910  -51.8550 C   0  0  0  0  0  0  0  0  0  0  0  0
   20.1670   -9.8250  -51.5720 C   0  0  0  0  0  0  0  0  0  0  0  0
   15.1560   -9.6990  -51.6160 C   0  0  0  0  0  0  0  0  0  0  0  0
   15.1210  -10.4300  -50.4010 C   0  0  0  0  0  0  0  0  0  0  0  0
   18.6680  -13.8290  -49.5180 C   0  0  0  0  0  0  0  0  0  0  0  0
   20.7400  -19.1510  -45.7360 C   0  0  0  0  0  0  0  0  0  0  0  0
   21.4700  -17.8120  -45.7030 C   0  0  0  0  0  0  0  0  0  0  0  0
   21.3350  -17.1560  -46.9640 O   0  0  0  0  0  0  0  0  0  0  0  0
   20.1990  -16.2840  -47.0200 C   0  0  0  0  0  0  0  0  0  0  0  0
   19.3440  -16.2180  -45.9620 N   0  0  0  0  0  0  0  0  0  0  0  0
   18.2550  -15.3920  -45.9990 C   0  0  0  0  0  0  0  0  0  0  0  0
   17.9930  -14.5770  -47.1590 C   0  0  0  0  0  0  0  0  0  0  0  0
   16.7590  -13.6470  -47.2170 C   0  0  0  0  0  0  0  0  0  0  0  0
   16.7530  -12.8450  -48.4000 N   0  0  0  0  0  0  0  0  0  0  0  0
   15.8360  -10.9990  -47.3620 O   0  0  0  0  0  0  0  0  0  0  0  0
   16.3140  -10.6690  -49.6980 C   0  0  0  0  0  0  0  0  0  0  0  0
   17.6010   -9.4580  -51.3720 C   0  0  0  0  0  0  0  0  0  0  0  0
   19.1720   -7.5540  -51.1200 C   0  0  0  0  0  0  0  0  0  0  0  0
   16.3890   -9.2020  -52.0940 C   0  0  0  0  0  0  0  0  0  0  0  0
   16.4340   -8.4620  -53.3110 O   0  0  0  0  0  0  0  0  0  0  0  0
   13.8950  -10.9610  -49.8610 O   0  0  0  0  0  0  0  0  0  0  0  0
   17.2270  -13.3900  -49.6010 C   0  0  0  0  0  0  0  0  0  0  0  0
   18.8900  -14.6700  -48.2280 C   0  0  0  0  0  0  0  0  0  0  0  0
   19.9770  -15.5220  -48.1340 N   0  0  0  0  0  0  0  0  0  0  0  0
   18.4745  -10.3482  -49.5988 H   0  0  0  0  0  0  0  0  0  0  0  0
   18.9494   -8.7783  -52.9489 H   0  0  0  0  0  0  0  0  0  0  0  0
   20.3007   -9.9298  -50.4852 H   0  0  0  0  0  0  0  0  0  0  0  0
   19.9717  -10.8130  -52.0144 H   0  0  0  0  0  0  0  0  0  0  0  0
   21.0796   -9.3991  -52.0144 H   0  0  0  0  0  0  0  0  0  0  0  0
   14.2298   -9.5204  -52.1820 H   0  0  0  0  0  0  0  0  0  0  0  0
   18.9149  -14.4397  -50.3989 H   0  0  0  0  0  0  0  0  0  0  0  0
   19.3167  -12.9411  -49.4885 H   0  0  0  0  0  0  0  0  0  0  0  0
   20.5538  -19.4926  -44.7071 H   0  0  0  0  0  0  0  0  0  0  0  0
   19.7813  -19.0331  -46.2624 H   0  0  0  0  0  0  0  0  0  0  0  0
   21.3585  -19.8929  -46.2624 H   0  0  0  0  0  0  0  0  0  0  0  0
   22.5361  -17.9825  -45.4924 H   0  0  0  0  0  0  0  0  0  0  0  0
   21.0331  -17.1796  -44.9161 H   0  0  0  0  0  0  0  0  0  0  0  0
   17.5733  -15.3490  -45.1368 H   0  0  0  0  0  0  0  0  0  0  0  0
   16.7705  -12.9852  -46.3384 H   0  0  0  0  0  0  0  0  0  0  0  0
   15.8570  -14.2765  -47.2265 H   0  0  0  0  0  0  0  0  0  0  0  0
   19.1467   -7.7255  -50.0338 H   0  0  0  0  0  0  0  0  0  0  0  0
   20.1436   -7.1211  -51.4003 H   0  0  0  0  0  0  0  0  0  0  0  0
   18.3665   -6.8593  -51.4003 H   0  0  0  0  0  0  0  0  0  0  0  0
   16.4941   -7.4741  -53.2877 H   0  0  0  0  0  0  0  0  0  0  0  0
   13.7687  -11.0157  -48.8806 H   0  0  0  0  0  0  0  0  0  0  0  0
   17.1365  -12.6301  -50.3911 H   0  0  0  0  0  0  0  0  0  0  0  0
   16.6221  -14.2823  -49.8201 H   0  0  0  0  0  0  0  0  0  0  0  0
 22 21  1  0
 21  5  2  0
 21 19  1  0
  3  4  1  0
  3 19  1  0
  3 20  1  0
  5  6  1  0
 19  2  2  0
  6 23  1  0
  6 18  2  0
  2 18  1  0
 18  1  1  0
 24  7  1  0
 24 16  1  0
  7 25  1  0
 16  1  1  0
 16 15  1  0
  1 17  2  0
 25 26  2  0
 25 14  1  0
 26 11  1  0
 15 14  1  0
 14 13  2  0
 11 10  1  0
 11 12  2  0
 10  9  1  0
 13 12  1  0
  8  9  1  0
  2 27  1  0
  3 28  1  0
  4 29  1  0
  4 30  1  0
  4 31  1  0
  5 32  1  0
  7 33  1  0
  7 34  1  0
  8 35  1  0
  8 36  1  0
  8 37  1  0
  9 38  1  0
  9 39  1  0
 13 40  1  0
 15 41  1  0
 15 42  1  0
 20 43  1  0
 20 44  1  0
 20 45  1  0
 22 46  1  0
 23 47  1  0
 24 48  1  0
 24 49  1  0
A    1
C10
A    2
C13
A    3
C15
A    4
C17
A    5
C20
A    6
C21
A    7
C24
A    8
C01
A    9
C02
A   10
O03
A   11
C04
A   12
N05
A   13
C06
A   14
C07
A   15
C08
A   16
N09
A   17
O11
A   18
C12
A   19
C14
A   20
C16
A   21
C18
A   22
O19
A   23
O22
A   24
C23
A   25
C25
A   26
N26
M  END
