5GHJ_6U4_A_201
     RDKit          3D

 47 49  0  0  0  0  0  0  0  0999 V2000
   -7.0760   -2.2470   -9.3360 P   0  0  0  0  0  0  0  0  0  0  0  0
   -6.6330   -0.8080   -9.3470 O   0  0  0  0  0  0  0  0  0  0  0  0
   -7.0660   -2.9290   -7.9820 O   0  0  0  0  0  0  0  0  0  0  0  0
   -8.3360   -2.4790  -10.1540 O   0  0  0  0  0  0  0  0  0  0  0  0
   -5.0410   -4.3130   -9.9050 P   0  0  0  0  0  0  0  0  0  0  0  0
   -5.9230   -5.4830   -9.6010 O   0  0  0  0  0  0  0  0  0  0  0  0
   -3.9160   -3.9760   -8.9640 O   0  0  0  0  0  0  0  0  0  0  0  0
   -5.9310   -2.9820  -10.2100 O   0  0  0  0  0  0  0  0  0  0  0  0
   -5.0680   -4.8410  -12.7970 P   0  0  0  0  0  0  0  0  0  0  0  0
   -6.0960   -5.9180  -12.7050 O   0  0  0  0  0  0  0  0  0  0  0  0
   -5.4110   -3.5210  -13.4310 O   0  0  0  0  0  0  0  0  0  0  0  0
   -4.3940   -4.5360  -11.3650 O   0  0  0  0  0  0  0  0  0  0  0  0
   -3.7600   -5.4020  -13.5090 O   0  0  0  0  0  0  0  0  0  0  0  0
   -3.7980   -5.8550  -14.8700 C   0  0  0  0  0  0  0  0  0  0  0  0
   -3.2640   -7.2690  -14.8820 C   0  0  0  0  0  0  0  0  0  0  0  0
   -3.5390   -7.8140  -16.1700 O   0  0  0  0  0  0  0  0  0  0  0  0
   -1.7620   -7.3120  -14.7090 C   0  0  0  0  0  0  0  0  0  0  0  0
   -1.3990   -8.5710  -14.1330 O   0  0  0  0  0  0  0  0  0  0  0  0
   -1.2720   -7.2760  -16.1500 C   0  0  0  0  0  0  0  0  0  0  0  0
   -2.3510   -8.1000  -16.8710 C   0  0  0  0  0  0  0  0  0  0  0  0
   -2.4590   -7.6810  -18.2880 N   0  0  0  0  0  0  0  0  0  0  0  0
   -2.9300   -6.5020  -18.7300 C   0  0  0  0  0  0  0  0  0  0  0  0
   -2.8310   -6.4620  -20.0840 N   0  0  0  0  0  0  0  0  0  0  0  0
   -2.3010   -7.6520  -20.4610 C   0  0  0  0  0  0  0  0  0  0  0  0
   -1.9520   -8.1850  -21.6960 C   0  0  0  0  0  0  0  0  0  0  0  0
   -2.1370   -7.4830  -22.8410 N   0  0  0  0  0  0  0  0  0  0  0  0
   -1.3810   -9.4020  -21.7060 N   0  0  0  0  0  0  0  0  0  0  0  0
   -1.2080  -10.1410  -20.5780 C   0  0  0  0  0  0  0  0  0  0  0  0
   -1.5450   -9.6550  -19.3610 N   0  0  0  0  0  0  0  0  0  0  0  0
   -2.0670   -8.4090  -19.3210 C   0  0  0  0  0  0  0  0  0  0  0  0
   -0.7500  -11.2890  -20.6680 O   0  0  0  0  0  0  0  0  0  0  0  0
   -6.5339   -0.4861   -8.4161 H   0  0  0  0  0  0  0  0  0  0  0  0
   -7.0760   -2.2439   -7.2674 H   0  0  0  0  0  0  0  0  0  0  0  0
   -4.2284   -4.0696   -8.0293 H   0  0  0  0  0  0  0  0  0  0  0  0
   -6.2837   -6.1146  -11.7530 H   0  0  0  0  0  0  0  0  0  0  0  0
   -3.1696   -5.2088  -15.5006 H   0  0  0  0  0  0  0  0  0  0  0  0
   -4.8236   -5.8201  -15.2661 H   0  0  0  0  0  0  0  0  0  0  0  0
   -3.7358   -7.8230  -14.0570 H   0  0  0  0  0  0  0  0  0  0  0  0
   -1.3580   -6.5114  -14.0720 H   0  0  0  0  0  0  0  0  0  0  0  0
   -1.4194   -8.5004  -13.1457 H   0  0  0  0  0  0  0  0  0  0  0  0
   -0.2805   -7.7423  -16.2474 H   0  0  0  0  0  0  0  0  0  0  0  0
   -1.1456   -6.2598  -16.5518 H   0  0  0  0  0  0  0  0  0  0  0  0
   -2.1252   -9.1765  -16.8818 H   0  0  0  0  0  0  0  0  0  0  0  0
   -3.3316   -5.6978  -18.0960 H   0  0  0  0  0  0  0  0  0  0  0  0
   -2.3993   -6.4879  -22.7983 H   0  0  0  0  0  0  0  0  0  0  0  0
   -2.0153   -7.9448  -23.7536 H   0  0  0  0  0  0  0  0  0  0  0  0
   -1.0615   -9.7904  -22.6049 H   0  0  0  0  0  0  0  0  0  0  0  0
 26 25  1  0
 27 25  1  0
 27 28  1  0
 25 24  2  0
 31 28  2  0
 28 29  1  0
 24 23  1  0
 24 30  1  0
 23 22  2  0
 29 30  2  0
 30 21  1  0
 22 21  1  0
 21 20  1  0
 20 16  1  0
 20 19  1  0
 16 15  1  0
 19 17  1  0
 15 14  1  0
 15 17  1  0
 14 13  1  0
 17 18  1  0
 13  9  1  0
 11  9  2  0
  9 10  1  0
  9 12  1  0
 12  5  1  0
  8  5  1  0
  8  1  1  0
  4  1  2  0
  5  6  2  0
  5  7  1  0
  2  1  1  0
  1  3  1  0
  2 32  1  0
  3 33  1  0
  7 34  1  0
 10 35  1  0
 14 36  1  0
 14 37  1  0
 15 38  1  0
 17 39  1  0
 18 40  1  0
 19 41  1  0
 19 42  1  0
 20 43  1  0
 22 44  1  0
 26 45  1  0
 26 46  1  0
 27 47  1  0
A    1
PG
A    2
O3G
A    3
O2G
A    4
O1G
A    5
PB
A    6
O1B
A    7
O2B
A    8
O3B
A    9
PA
A   10
O2A
A   11
O1A
A   12
O3A
A   13
O5'
A   14
C5'
A   15
C4'
A   16
O4'
A   17
C3'
A   18
O3'
A   19
C2'
A   20
C1'
A   21
N9
A   22
C8
A   23
N7
A   24
C5
A   25
C6
A   26
N6
A   27
N1
A   28
C2
A   29
N3
A   30
C4
A   31
O2
M  END
