5CUC_54W_A_2001
     RDKit          3D

 25 25  0  0  0  0  0  0  0  0999 V2000
   12.7650   42.2060   31.3290 C   0  0  0  0  0  0  0  0  0  0  0  0
   11.6200   42.3080   30.5560 C   0  0  0  0  0  0  0  0  0  0  0  0
   10.7180   43.3410   30.7520 C   0  0  0  0  0  0  0  0  0  0  0  0
   10.9460   44.2760   31.7350 C   0  0  0  0  0  0  0  0  0  0  0  0
   12.0800   44.1940   32.5080 C   0  0  0  0  0  0  0  0  0  0  0  0
   16.2170   39.4830   30.3040 O   0  0  0  0  0  0  0  0  0  0  0  0
   15.3480   38.7320   29.8660 C   0  0  0  0  0  0  0  0  0  0  0  0
   15.6180   37.2820   29.5910 C   0  0  0  0  0  0  0  0  0  0  0  0
   14.1220   39.1670   29.5900 N   0  0  0  0  0  0  0  0  0  0  0  0
   13.7240   40.5660   29.6890 C   0  0  0  0  0  0  0  0  0  0  0  0
   13.7390   41.0740   31.1200 C   0  0  0  0  0  0  0  0  0  0  0  0
   12.9820   43.1610   32.3070 C   0  0  0  0  0  0  0  0  0  0  0  0
   11.4242   41.5581   29.7754 H   0  0  0  0  0  0  0  0  0  0  0  0
    9.8195   43.4136   30.1216 H   0  0  0  0  0  0  0  0  0  0  0  0
   10.2225   45.0876   31.9022 H   0  0  0  0  0  0  0  0  0  0  0  0
   12.2714   44.9480   33.2857 H   0  0  0  0  0  0  0  0  0  0  0  0
   15.7188   36.7408   30.5433 H   0  0  0  0  0  0  0  0  0  0  0  0
   14.7836   36.8567   29.0140 H   0  0  0  0  0  0  0  0  0  0  0  0
   16.5496   37.1855   29.0140 H   0  0  0  0  0  0  0  0  0  0  0  0
   13.4163   38.4791   29.2904 H   0  0  0  0  0  0  0  0  0  0  0  0
   14.4192   41.1739   29.0914 H   0  0  0  0  0  0  0  0  0  0  0  0
   12.6925   40.6477   29.3157 H   0  0  0  0  0  0  0  0  0  0  0  0
   13.4711   40.2464   31.7933 H   0  0  0  0  0  0  0  0  0  0  0  0
   14.7494   41.4517   31.3354 H   0  0  0  0  0  0  0  0  0  0  0  0
   13.8837   43.0993   32.9340 H   0  0  0  0  0  0  0  0  0  0  0  0
  9 10  1  0
  9  7  1  0
  8  7  1  0
 10 11  1  0
  7  6  2  0
  2  3  1  0
  2  1  2  0
  3  4  2  0
 11  1  1  0
  1 12  1  0
  4  5  1  0
 12  5  2  0
  2 13  1  0
  3 14  1  0
  4 15  1  0
  5 16  1  0
  8 17  1  0
  8 18  1  0
  8 19  1  0
  9 20  1  0
 10 21  1  0
 10 22  1  0
 11 23  1  0
 11 24  1  0
 12 25  1  0
A    1
C4
A    2
C5
A    3
C6
A    4
C7
A    5
C8
A    6
O
A    7
C1
A    8
C
A    9
N
A   10
C2
A   11
C3
A   12
C9
M  END
