5GI8_7DP_A_302
     RDKit          3D

 27 27  0  0  0  0  0  0  0  0999 V2000
   49.5110   74.5370   15.1850 C   0  0  0  0  0  0  0  0  0  0  0  0
   54.8990   78.8220   16.7650 C   0  0  0  0  0  0  0  0  0  0  0  0
   49.2990   75.6520   14.7090 O   0  0  0  0  0  0  0  0  0  0  0  0
   50.5120   74.3850   16.2020 N   0  0  0  0  0  0  0  0  0  0  0  0
   52.6760   75.1670   17.0300 C   0  0  0  0  0  0  0  0  0  0  0  0
   51.2450   75.5520   16.6580 C   0  0  0  0  0  0  0  0  0  0  0  0
   53.4680   76.4490   17.0010 C   0  0  0  0  0  0  0  0  0  0  0  0
   53.5760   77.2620   18.1240 C   0  0  0  0  0  0  0  0  0  0  0  0
   54.0650   76.8450   15.8140 C   0  0  0  0  0  0  0  0  0  0  0  0
   54.3120   78.4350   17.9600 C   0  0  0  0  0  0  0  0  0  0  0  0
   54.7900   78.0120   15.6590 C   0  0  0  0  0  0  0  0  0  0  0  0
   48.7720   73.3160   14.7180 C   0  0  0  0  0  0  0  0  0  0  0  0
   55.5900   80.0010   16.6630 O   0  0  0  0  0  0  0  0  0  0  0  0
   54.4810   79.2810   19.0630 O   0  0  0  0  0  0  0  0  0  0  0  0
   50.7083   73.4573   16.6043 H   0  0  0  0  0  0  0  0  0  0  0  0
   52.7037   74.7225   18.0358 H   0  0  0  0  0  0  0  0  0  0  0  0
   53.0880   74.4212   16.3342 H   0  0  0  0  0  0  0  0  0  0  0  0
   51.2684   76.3028   15.8544 H   0  0  0  0  0  0  0  0  0  0  0  0
   50.7434   75.9656   17.5453 H   0  0  0  0  0  0  0  0  0  0  0  0
   53.1090   76.9959   19.0838 H   0  0  0  0  0  0  0  0  0  0  0  0
   53.9547   76.1880   14.9387 H   0  0  0  0  0  0  0  0  0  0  0  0
   55.2562   78.2792   14.6992 H   0  0  0  0  0  0  0  0  0  0  0  0
   48.4246   72.7420   15.5896 H   0  0  0  0  0  0  0  0  0  0  0  0
   47.9067   73.6209   14.1111 H   0  0  0  0  0  0  0  0  0  0  0  0
   49.4434   72.6908   14.1111 H   0  0  0  0  0  0  0  0  0  0  0  0
   55.8719   80.4819   17.4811 H   0  0  0  0  0  0  0  0  0  0  0  0
   54.4084   78.9178   19.9811 H   0  0  0  0  0  0  0  0  0  0  0  0
  3  1  2  0
 12  1  1  0
  1  4  1  0
 11  9  1  0
 11  2  2  0
  9  7  2  0
  4  6  1  0
  6  5  1  0
 13  2  1  0
  2 10  1  0
  7  5  1  0
  7  8  1  0
 10  8  2  0
 10 14  1  0
  4 15  1  0
  5 16  1  0
  5 17  1  0
  6 18  1  0
  6 19  1  0
  8 20  1  0
  9 21  1  0
 11 22  1  0
 12 23  1  0
 12 24  1  0
 12 25  1  0
 13 26  1  0
 14 27  1  0
A    1
C10
A    2
C11
A    3
O01
A    4
N02
A    5
C03
A    6
C04
A    7
C05
A    8
C06
A    9
C07
A   10
C08
A   11
C09
A   12
C12
A   13
O13
A   14
O14
M  END
