5GIC_DLC_A_501
     RDKit          3D

 91 94  0  0  0  0  0  0  0  0999 V2000
  -11.9370   -2.9410   -8.2970 O   0  0  0  0  0  0  0  0  0  0  0  0
  -12.2580   -1.9640   -7.6350 C   0  0  0  0  0  0  0  0  0  0  0  0
  -11.9360   -1.8090   -6.1790 C   0  0  0  0  0  0  0  0  0  0  0  0
  -12.8970   -2.4970   -5.3790 O   0  0  0  0  0  0  0  0  0  0  0  0
  -10.5410   -2.3260   -5.8600 C   0  0  0  0  0  0  0  0  0  0  0  0
  -12.0880   -0.3120   -5.9460 C   0  0  0  0  0  0  0  0  0  0  0  0
  -12.8290    0.2630   -7.1570 C   0  0  0  0  0  0  0  0  0  0  0  0
  -12.9260   -0.8920   -8.0480 N   0  0  0  0  0  0  0  0  0  0  0  0
  -13.7600   -0.6920   -9.2290 C   0  0  0  0  0  0  0  0  0  0  0  0
  -12.8550   -0.8970  -10.4400 C   0  0  0  0  0  0  0  0  0  0  0  0
  -12.0040    0.3400  -10.6170 C   0  0  0  0  0  0  0  0  0  0  0  0
  -10.6200    0.2330  -10.7130 C   0  0  0  0  0  0  0  0  0  0  0  0
   -9.8380    1.3730  -10.8730 C   0  0  0  0  0  0  0  0  0  0  0  0
  -10.4440    2.6220  -10.9410 C   0  0  0  0  0  0  0  0  0  0  0  0
  -11.8290    2.7280  -10.8460 C   0  0  0  0  0  0  0  0  0  0  0  0
  -12.6110    1.5890  -10.6870 C   0  0  0  0  0  0  0  0  0  0  0  0
  -14.2300    0.7230   -6.7400 C   0  0  0  0  0  0  0  0  0  0  0  0
  -14.1420    2.2030   -6.3550 C   0  0  0  0  0  0  0  0  0  0  0  0
  -13.3070    2.8860   -7.4430 C   0  0  0  0  0  0  0  0  0  0  0  0
  -15.5070    2.8690   -6.0770 C   0  0  0  0  0  0  0  0  0  0  0  0
  -15.4690    4.3400   -5.6530 C   0  0  0  0  0  0  0  0  0  0  0  0
  -14.3310    4.5790   -4.6620 C   0  0  0  0  0  0  0  0  0  0  0  0
  -16.7750    4.5290   -4.8980 C   0  0  0  0  0  0  0  0  0  0  0  0
  -16.9140    3.2630   -4.0620 C   0  0  0  0  0  0  0  0  0  0  0  0
  -16.2900    2.1770   -4.9530 C   0  0  0  0  0  0  0  0  0  0  0  0
  -15.4380    5.3610   -6.7860 C   0  0  0  0  0  0  0  0  0  0  0  0
  -15.5660    6.7910   -6.2660 C   0  0  0  0  0  0  0  0  0  0  0  0
  -16.7960    6.9920   -5.3850 C   0  0  0  0  0  0  0  0  0  0  0  0
  -16.7930    5.9310   -4.3180 C   0  0  0  0  0  0  0  0  0  0  0  0
  -16.7990    6.3950   -3.0480 C   0  0  0  0  0  0  0  0  0  0  0  0
  -16.7650    5.6700   -1.7840 C   0  0  0  0  0  0  0  0  0  0  0  0
  -16.6350    6.3560   -0.6290 C   0  0  0  0  0  0  0  0  0  0  0  0
  -16.5830    5.6720    0.5050 C   0  0  0  0  0  0  0  0  0  0  0  0
  -16.0670    4.4650    0.4940 C   0  0  0  0  0  0  0  0  0  0  0  0
  -17.0900    6.2440    1.7880 C   0  0  0  0  0  0  0  0  0  0  0  0
  -16.6290    5.4310    2.8720 O   0  0  0  0  0  0  0  0  0  0  0  0
  -16.5100    7.6410    1.9090 C   0  0  0  0  0  0  0  0  0  0  0  0
  -16.9920    8.4750    0.7300 C   0  0  0  0  0  0  0  0  0  0  0  0
  -18.4200    8.5380    0.8060 O   0  0  0  0  0  0  0  0  0  0  0  0
  -16.5560    7.8710   -0.6120 C   0  0  0  0  0  0  0  0  0  0  0  0
  -12.6938   -2.3515   -4.4211 H   0  0  0  0  0  0  0  0  0  0  0  0
  -10.4087   -2.3750   -4.7691 H   0  0  0  0  0  0  0  0  0  0  0  0
  -10.4150   -3.3305   -6.2901 H   0  0  0  0  0  0  0  0  0  0  0  0
   -9.7908   -1.6462   -6.2901 H   0  0  0  0  0  0  0  0  0  0  0  0
  -12.6674   -0.1305   -5.0288 H   0  0  0  0  0  0  0  0  0  0  0  0
  -11.1045    0.1661   -5.8274 H   0  0  0  0  0  0  0  0  0  0  0  0
  -12.3303    1.1315   -7.6120 H   0  0  0  0  0  0  0  0  0  0  0  0
  -14.5822   -1.4226   -9.2414 H   0  0  0  0  0  0  0  0  0  0  0  0
  -14.2079    0.3127   -9.2334 H   0  0  0  0  0  0  0  0  0  0  0  0
  -12.2086   -1.7719  -10.2764 H   0  0  0  0  0  0  0  0  0  0  0  0
  -13.4630   -1.0685  -11.3405 H   0  0  0  0  0  0  0  0  0  0  0  0
  -10.1422   -0.7565  -10.6622 H   0  0  0  0  0  0  0  0  0  0  0  0
   -8.7438    1.2859  -10.9454 H   0  0  0  0  0  0  0  0  0  0  0  0
   -9.8301    3.5256  -11.0697 H   0  0  0  0  0  0  0  0  0  0  0  0
  -12.3070    3.7174  -10.8970 H   0  0  0  0  0  0  0  0  0  0  0  0
  -13.7053    1.6759  -10.6169 H   0  0  0  0  0  0  0  0  0  0  0  0
  -14.9306    0.5955   -7.5784 H   0  0  0  0  0  0  0  0  0  0  0  0
  -14.5932    0.1261   -5.8905 H   0  0  0  0  0  0  0  0  0  0  0  0
  -13.6468    2.3142   -5.3791 H   0  0  0  0  0  0  0  0  0  0  0  0
  -12.5371    3.5157   -6.9732 H   0  0  0  0  0  0  0  0  0  0  0  0
  -12.8235    2.1211   -8.0685 H   0  0  0  0  0  0  0  0  0  0  0  0
  -13.9608    3.5115   -8.0685 H   0  0  0  0  0  0  0  0  0  0  0  0
  -15.9819    2.7757   -7.0648 H   0  0  0  0  0  0  0  0  0  0  0  0
  -14.7162    4.4981   -3.6348 H   0  0  0  0  0  0  0  0  0  0  0  0
  -13.5441    3.8265   -4.8188 H   0  0  0  0  0  0  0  0  0  0  0  0
  -13.9133    5.5845   -4.8188 H   0  0  0  0  0  0  0  0  0  0  0  0
  -17.7281    4.5685   -5.4457 H   0  0  0  0  0  0  0  0  0  0  0  0
  -16.8853    3.5240   -2.9938 H   0  0  0  0  0  0  0  0  0  0  0  0
  -17.8713    2.7735   -4.2943 H   0  0  0  0  0  0  0  0  0  0  0  0
  -16.0857    2.5774   -4.2943 H   0  0  0  0  0  0  0  0  0  0  0  0
  -15.9079    2.5147   -3.9783 H   0  0  0  0  0  0  0  0  0  0  0  0
  -17.3564    2.4332   -5.0375 H   0  0  0  0  0  0  0  0  0  0  0  0
  -16.1669    1.0872   -5.0375 H   0  0  0  0  0  0  0  0  0  0  0  0
  -14.4854    5.2631   -7.3272 H   0  0  0  0  0  0  0  0  0  0  0  0
  -16.2926    5.1611   -7.4492 H   0  0  0  0  0  0  0  0  0  0  0  0
  -14.6687    7.0325   -5.6773 H   0  0  0  0  0  0  0  0  0  0  0  0
  -15.6718    7.4525   -7.1385 H   0  0  0  0  0  0  0  0  0  0  0  0
  -16.7608    7.9878   -4.9191 H   0  0  0  0  0  0  0  0  0  0  0  0
  -17.7114    6.9173   -5.9904 H   0  0  0  0  0  0  0  0  0  0  0  0
  -16.8352    7.4904   -2.9541 H   0  0  0  0  0  0  0  0  0  0  0  0
  -16.8446    4.5730   -1.7715 H   0  0  0  0  0  0  0  0  0  0  0  0
  -16.0146    3.8808    1.4245 H   0  0  0  0  0  0  0  0  0  0  0  0
  -15.6871    4.0378   -0.4458 H   0  0  0  0  0  0  0  0  0  0  0  0
  -18.1893    6.2760    1.8112 H   0  0  0  0  0  0  0  0  0  0  0  0
  -16.8714    5.8585    3.7314 H   0  0  0  0  0  0  0  0  0  0  0  0
  -16.8467    8.1011    2.8497 H   0  0  0  0  0  0  0  0  0  0  0  0
  -15.4111    7.5913    1.9078 H   0  0  0  0  0  0  0  0  0  0  0  0
  -16.5475    9.4798    0.7825 H   0  0  0  0  0  0  0  0  0  0  0  0
  -18.6997    8.5503    1.7556 H   0  0  0  0  0  0  0  0  0  0  0  0
  -15.5165    8.1709   -0.8111 H   0  0  0  0  0  0  0  0  0  0  0  0
  -17.2444    8.2469   -1.3833 H   0  0  0  0  0  0  0  0  0  0  0  0
  1  2  2  0
  2  3  1  0
  2  8  1  0
  3  4  1  0
  3  5  1  0
  3  6  1  0
  6  7  1  0
  7  8  1  0
  7 17  1  0
  8  9  1  0
  9 10  1  0
 10 11  1  0
 11 12  2  0
 11 16  1  0
 12 13  1  0
 13 14  2  0
 14 15  1  0
 15 16  2  0
 17 18  1  0
 18 19  1  0
 18 20  1  0
 20 21  1  0
 20 25  1  0
 21 22  1  0
 21 23  1  0
 21 26  1  0
 23 24  1  0
 23 29  1  0
 26 27  1  0
 27 28  1  0
 28 29  1  0
 29 30  2  0
 30 31  1  0
 31 32  2  0
 32 33  1  0
 32 40  1  0
 33 34  2  0
 33 35  1  0
 35 36  1  0
 35 37  1  0
 37 38  1  0
 38 39  1  0
 38 40  1  0
  4 41  1  0
  5 42  1  0
  5 43  1  0
  5 44  1  0
  6 45  1  0
  6 46  1  0
  7 47  1  0
  9 48  1  0
  9 49  1  0
 10 50  1  0
 10 51  1  0
 12 52  1  0
 13 53  1  0
 14 54  1  0
 15 55  1  0
 16 56  1  0
 17 57  1  0
 17 58  1  0
 18 59  1  0
 19 60  1  0
 19 61  1  0
 19 62  1  0
 20 63  1  0
 22 64  1  0
 22 65  1  0
 22 66  1  0
 23 67  1  0
 24 68  1  0
 24 69  1  0
 24 70  1  0
 25 71  1  0
 25 72  1  0
 25 73  1  0
 26 74  1  0
 26 75  1  0
 27 76  1  0
 27 77  1  0
 28 78  1  0
 28 79  1  0
 30 80  1  0
 31 81  1  0
 34 82  1  0
 34 83  1  0
 35 84  1  0
 36 85  1  0
 37 86  1  0
 37 87  1  0
 38 88  1  0
 39 89  1  0
 40 90  1  0
 40 91  1  0
A    1
O3
A    2
C24
A    3
C23
A    4
O4
A    5
C37
A    6
C22
A    7
C21
A    8
N
A    9
C25
A   10
C26
A   11
C29
A   12
C34
A   13
C33
A   14
C32
A   15
C31
A   16
C30
A   17
C20
A   18
C19
A   19
C36
A   20
C9
A   21
C3
A   22
C35
A   23
C2
A   24
C7
A   25
C8
A   26
C4
A   27
C5
A   28
C6
A   29
C1
A   30
C10
A   31
C11
A   32
C12
A   33
C17
A   34
C18
A   35
C16
A   36
O1
A   37
C15
A   38
C14
A   39
O2
A   40
C13
M  END
