1W19_D1D_E_1166
     RDKit          3D

 16 16  0  0  0  0  0  0  0  0999 V2000
    8.4630  -27.9180   35.0550 S   0  0  0  0  0  0  0  0  0  0  0  0
    8.6840  -29.2450   36.1740 C   0  0  0  0  0  0  0  0  0  0  0  0
    7.7550  -30.4430   36.0420 C   0  0  0  0  0  0  0  0  0  0  0  0
    7.0440  -30.4150   37.2730 O   0  0  0  0  0  0  0  0  0  0  0  0
    6.6530  -30.6520   34.9760 C   0  0  0  0  0  0  0  0  0  0  0  0
    7.0420  -31.8240   34.2730 O   0  0  0  0  0  0  0  0  0  0  0  0
    6.2040  -29.7070   33.8650 C   0  0  0  0  0  0  0  0  0  0  0  0
    7.0250  -28.1870   33.6980 S   0  0  0  0  0  0  0  0  0  0  0  0
    9.7134  -29.6121   36.0493 H   0  0  0  0  0  0  0  0  0  0  0  0
    8.4501  -28.8188   37.1607 H   0  0  0  0  0  0  0  0  0  0  0  0
    8.4594  -31.2295   35.7334 H   0  0  0  0  0  0  0  0  0  0  0  0
    7.6865  -30.4403   38.0258 H   0  0  0  0  0  0  0  0  0  0  0  0
    5.7850  -30.5635   35.6459 H   0  0  0  0  0  0  0  0  0  0  0  0
    7.2778  -32.5344   34.9209 H   0  0  0  0  0  0  0  0  0  0  0  0
    6.3186  -30.2457   32.9128 H   0  0  0  0  0  0  0  0  0  0  0  0
    5.1754  -29.4318   34.1411 H   0  0  0  0  0  0  0  0  0  0  0  0
  1  2  1  0
  1  8  1  0
  2  3  1  0
  3  4  1  0
  3  5  1  0
  5  6  1  0
  5  7  1  0
  7  8  1  0
  2  9  1  0
  2 10  1  0
  3 11  1  0
  4 12  1  0
  5 13  1  0
  6 14  1  0
  7 15  1  0
  7 16  1  0
A    1
S1
A    2
C1
A    3
C2
A    4
O2
A    5
C3
A    6
O3
A    7
C4
A    8
S4
M  END
