5GJF_6V4_A_601
     RDKit          3D

 77 81  0  0  0  0  0  0  0  0999 V2000
  -16.6500  -50.3840  -19.2060 C   0  0  0  0  0  0  0  0  0  0  0  0
  -15.4060  -50.8540  -19.6290 C   0  0  0  0  0  0  0  0  0  0  0  0
  -14.2820  -50.6710  -18.8390 C   0  0  0  0  0  0  0  0  0  0  0  0
  -14.3770  -49.9600  -17.6110 C   0  0  0  0  0  0  0  0  0  0  0  0
  -15.6270  -49.4950  -17.2020 C   0  0  0  0  0  0  0  0  0  0  0  0
  -16.7460  -49.7000  -17.9920 C   0  0  0  0  0  0  0  0  0  0  0  0
  -17.8430  -50.6060  -20.0920 C   0  0  0  0  0  0  0  0  0  0  0  0
  -20.1290  -51.3610  -19.7740 C   0  0  0  0  0  0  0  0  0  0  0  0
  -21.2930  -51.0790  -18.8340 C   0  0  0  0  0  0  0  0  0  0  0  0
  -20.7680  -48.7550  -18.8120 C   0  0  0  0  0  0  0  0  0  0  0  0
  -17.6750  -50.9710  -21.2430 O   0  0  0  0  0  0  0  0  0  0  0  0
  -19.0750  -50.3500  -19.6050 N   0  0  0  0  0  0  0  0  0  0  0  0
  -13.0290  -51.0930  -19.2300 O   0  0  0  0  0  0  0  0  0  0  0  0
  -13.1930  -49.7860  -16.8400 N   0  0  0  0  0  0  0  0  0  0  0  0
  -21.8240  -49.7350  -19.0480 N   0  0  0  0  0  0  0  0  0  0  0  0
  -19.5950  -48.9830  -19.7520 C   0  0  0  0  0  0  0  0  0  0  0  0
  -22.9730  -49.4810  -18.1690 C   0  0  0  0  0  0  0  0  0  0  0  0
  -12.8060  -48.7460  -16.0310 C   0  0  0  0  0  0  0  0  0  0  0  0
  -11.4090  -48.8470  -15.5380 C   0  0  0  0  0  0  0  0  0  0  0  0
  -13.5270  -47.8030  -15.7060 O   0  0  0  0  0  0  0  0  0  0  0  0
   -9.1700  -48.3490  -14.4740 S   0  0  0  0  0  0  0  0  0  0  0  0
  -10.7650  -47.8510  -14.8850 C   0  0  0  0  0  0  0  0  0  0  0  0
   -9.4730  -49.8780  -15.2270 C   0  0  0  0  0  0  0  0  0  0  0  0
  -10.6760  -50.0080  -15.7290 N   0  0  0  0  0  0  0  0  0  0  0  0
   -8.4400  -50.9300  -15.2400 C   0  0  0  0  0  0  0  0  0  0  0  0
  -12.4990  -52.4120  -18.8630 C   0  0  0  0  0  0  0  0  0  0  0  0
  -13.0900  -53.5130  -19.7030 C   0  0  0  0  0  0  0  0  0  0  0  0
  -10.9860  -52.2990  -19.0020 C   0  0  0  0  0  0  0  0  0  0  0  0
   -8.8090  -52.2640  -15.3740 C   0  0  0  0  0  0  0  0  0  0  0  0
   -7.8470  -53.2610  -15.3740 C   0  0  0  0  0  0  0  0  0  0  0  0
   -6.5050  -52.9420  -15.2440 C   0  0  0  0  0  0  0  0  0  0  0  0
   -6.1200  -51.6140  -15.1120 C   0  0  0  0  0  0  0  0  0  0  0  0
   -7.0890  -50.6120  -15.1050 C   0  0  0  0  0  0  0  0  0  0  0  0
   -4.7380  -51.3480  -14.9600 N   0  0  0  0  0  0  0  0  0  0  0  0
   -4.0120  -50.3320  -15.5270 C   0  0  0  0  0  0  0  0  0  0  0  0
   -2.6560  -50.5600  -15.4890 N   0  0  0  0  0  0  0  0  0  0  0  0
   -4.5250  -49.3310  -16.0160 O   0  0  0  0  0  0  0  0  0  0  0  0
   -1.6100  -49.7420  -15.9940 C   0  0  0  0  0  0  0  0  0  0  0  0
   -1.8260  -48.6110  -16.7840 C   0  0  0  0  0  0  0  0  0  0  0  0
   -0.7500  -47.8650  -17.2400 C   0  0  0  0  0  0  0  0  0  0  0  0
    0.5410  -48.2340  -16.9190 C   0  0  0  0  0  0  0  0  0  0  0  0
    0.7620  -49.3510  -16.1360 C   0  0  0  0  0  0  0  0  0  0  0  0
   -0.3050  -50.1080  -15.6740 C   0  0  0  0  0  0  0  0  0  0  0  0
  -15.3170  -51.3727  -20.5949 H   0  0  0  0  0  0  0  0  0  0  0  0
  -15.7247  -48.9616  -16.2450 H   0  0  0  0  0  0  0  0  0  0  0  0
  -17.7228  -49.3193  -17.6591 H   0  0  0  0  0  0  0  0  0  0  0  0
  -20.4891  -51.3385  -20.8132 H   0  0  0  0  0  0  0  0  0  0  0  0
  -19.7131  -52.3517  -19.5385 H   0  0  0  0  0  0  0  0  0  0  0  0
  -22.0902  -51.8144  -19.0177 H   0  0  0  0  0  0  0  0  0  0  0  0
  -20.9326  -51.1528  -17.7974 H   0  0  0  0  0  0  0  0  0  0  0  0
  -20.4192  -48.8449  -17.7727 H   0  0  0  0  0  0  0  0  0  0  0  0
  -21.1747  -47.7496  -18.9956 H   0  0  0  0  0  0  0  0  0  0  0  0
  -12.5199  -50.5634  -16.8982 H   0  0  0  0  0  0  0  0  0  0  0  0
  -18.7964  -48.2646  -19.5151 H   0  0  0  0  0  0  0  0  0  0  0  0
  -19.9370  -48.8422  -20.7880 H   0  0  0  0  0  0  0  0  0  0  0  0
  -22.6538  -49.5516  -17.1187 H   0  0  0  0  0  0  0  0  0  0  0  0
  -23.3690  -48.4736  -18.3650 H   0  0  0  0  0  0  0  0  0  0  0  0
  -23.7567  -50.2276  -18.3650 H   0  0  0  0  0  0  0  0  0  0  0  0
  -11.1981  -46.8672  -14.6514 H   0  0  0  0  0  0  0  0  0  0  0  0
  -12.7731  -52.6882  -17.8341 H   0  0  0  0  0  0  0  0  0  0  0  0
  -13.5076  -54.2909  -19.0469 H   0  0  0  0  0  0  0  0  0  0  0  0
  -13.8884  -53.1014  -20.3379 H   0  0  0  0  0  0  0  0  0  0  0  0
  -12.3058  -53.9510  -20.3379 H   0  0  0  0  0  0  0  0  0  0  0  0
  -10.5275  -52.2648  -18.0027 H   0  0  0  0  0  0  0  0  0  0  0  0
  -10.6022  -53.1710  -19.5518 H   0  0  0  0  0  0  0  0  0  0  0  0
  -10.7359  -51.3797  -19.5518 H   0  0  0  0  0  0  0  0  0  0  0  0
   -9.8712  -52.5293  -15.4807 H   0  0  0  0  0  0  0  0  0  0  0  0
   -8.1508  -54.3131  -15.4779 H   0  0  0  0  0  0  0  0  0  0  0  0
   -5.7463  -53.7385  -15.2453 H   0  0  0  0  0  0  0  0  0  0  0  0
   -6.7852  -49.5608  -14.9920 H   0  0  0  0  0  0  0  0  0  0  0  0
   -4.2157  -51.9942  -14.3513 H   0  0  0  0  0  0  0  0  0  0  0  0
   -2.3610  -51.4368  -15.0360 H   0  0  0  0  0  0  0  0  0  0  0  0
   -2.8517  -48.3114  -17.0450 H   0  0  0  0  0  0  0  0  0  0  0  0
   -0.9259  -46.9742  -17.8610 H   0  0  0  0  0  0  0  0  0  0  0  0
    1.3915  -47.6404  -17.2855 H   0  0  0  0  0  0  0  0  0  0  0  0
    1.7908  -49.6419  -15.8773 H   0  0  0  0  0  0  0  0  0  0  0  0
   -0.1200  -50.9979  -15.0545 H   0  0  0  0  0  0  0  0  0  0  0  0
 11  7  2  0
  7 12  1  0
  7  1  1  0
  8 12  1  0
  8  9  1  0
 16 12  1  0
 16 10  1  0
 27 26  1  0
  2  1  2  0
  2  3  1  0
 13 26  1  0
 13  3  1  0
  1  6  1  0
 15  9  1  0
 15 10  1  0
 15 17  1  0
 28 26  1  0
  3  4  2  0
  6  5  2  0
  4  5  1  0
  4 14  1  0
 40 41  1  0
 40 39  2  0
 41 42  2  0
 14 18  1  0
 39 38  1  0
 42 43  1  0
 18 20  2  0
 18 19  1  0
 37 35  2  0
 38 43  2  0
 38 36  1  0
 24 19  1  0
 24 23  2  0
 19 22  2  0
 35 36  1  0
 35 34  1  0
 30 29  2  0
 30 31  1  0
 29 25  1  0
 31 32  2  0
 25 23  1  0
 25 33  2  0
 23 21  1  0
 32 33  1  0
 32 34  1  0
 22 21  1  0
  2 44  1  0
  5 45  1  0
  6 46  1  0
  8 47  1  0
  8 48  1  0
  9 49  1  0
  9 50  1  0
 10 51  1  0
 10 52  1  0
 14 53  1  0
 16 54  1  0
 16 55  1  0
 17 56  1  0
 17 57  1  0
 17 58  1  0
 22 59  1  0
 26 60  1  0
 27 61  1  0
 27 62  1  0
 27 63  1  0
 28 64  1  0
 28 65  1  0
 28 66  1  0
 29 67  1  0
 30 68  1  0
 31 69  1  0
 33 70  1  0
 34 71  1  0
 36 72  1  0
 39 73  1  0
 40 74  1  0
 41 75  1  0
 42 76  1  0
 43 77  1  0
A    1
C1
A    2
C2
A    3
C3
A    4
C4
A    5
C5
A    6
C6
A    7
C7
A    8
C12
A    9
C13
A   10
C15
A   11
O8
A   12
N9
A   13
O10
A   14
N11
A   15
N14
A   16
C16
A   17
C17
A   18
C18
A   19
C19
A   20
O20
A   21
S21
A   22
C22
A   23
C23
A   24
N24
A   25
C25
A   26
C26
A   27
C27
A   28
C28
A   29
C29
A   30
C30
A   31
C31
A   32
C32
A   33
C33
A   34
N34
A   35
C35
A   36
N36
A   37
O37
A   38
C38
A   39
C39
A   40
C40
A   41
C41
A   42
C42
A   43
C43
M  END
