5GMU_7LH_A_101
     RDKit          3D

 45 46  0  0  0  0  0  0  0  0999 V2000
    3.8850    7.7790    6.3560 C   0  0  0  0  0  0  0  0  0  0  0  0
    4.7020    8.8070    6.7980 C   0  0  0  0  0  0  0  0  0  0  0  0
    5.8530    9.1590    6.0790 O   0  0  0  0  0  0  0  0  0  0  0  0
    4.4410    9.4370    8.0060 C   0  0  0  0  0  0  0  0  0  0  0  0
    5.2990   10.4370    8.4660 O   0  0  0  0  0  0  0  0  0  0  0  0
    3.3380    9.0750    8.7630 C   0  0  0  0  0  0  0  0  0  0  0  0
    2.4950    8.0720    8.3200 C   0  0  0  0  0  0  0  0  0  0  0  0
    2.7600    7.4170    7.1270 C   0  0  0  0  0  0  0  0  0  0  0  0
    1.7420    6.3590    6.7380 C   0  0  0  0  0  0  0  0  0  0  0  0
    2.0060    5.7390    5.4010 C   0  0  0  0  0  0  0  0  0  0  0  0
    0.9270    4.7720    4.9660 C   0  0  0  0  0  0  0  0  0  0  0  0
   -0.1060    4.5450    5.5240 O   0  0  0  0  0  0  0  0  0  0  0  0
    1.2390    4.0750    3.8280 O   0  0  0  0  0  0  0  0  0  0  0  0
    0.3480    3.0580    3.4020 C   0  0  0  0  0  0  0  0  0  0  0  0
    0.4080    1.8850    4.4100 C   0  0  0  0  0  0  0  0  0  0  0  0
    1.7640    1.2320    4.4740 C   0  0  0  0  0  0  0  0  0  0  0  0
    1.6540    0.0460    5.4220 C   0  0  0  0  0  0  0  0  0  0  0  0
    0.6430   -0.8380    5.2540 O   0  0  0  0  0  0  0  0  0  0  0  0
    2.6250   -0.1330    6.3580 O   0  0  0  0  0  0  0  0  0  0  0  0
    2.6890    2.1280    5.0300 O   0  0  0  0  0  0  0  0  0  0  0  0
    2.2260    0.7250    3.0820 C   0  0  0  0  0  0  0  0  0  0  0  0
    2.2720    1.9460    2.1500 C   0  0  0  0  0  0  0  0  0  0  0  0
    2.6540    1.5640    0.8270 O   0  0  0  0  0  0  0  0  0  0  0  0
    0.9010    2.5830    2.0430 C   0  0  0  0  0  0  0  0  0  0  0  0
    1.0130    3.7080    1.2050 O   0  0  0  0  0  0  0  0  0  0  0  0
    4.1103    7.2523    5.4169 H   0  0  0  0  0  0  0  0  0  0  0  0
    6.6798    9.4119    6.5612 H   0  0  0  0  0  0  0  0  0  0  0  0
    5.4193   10.5772    9.4386 H   0  0  0  0  0  0  0  0  0  0  0  0
    3.1331    9.5852    9.7158 H   0  0  0  0  0  0  0  0  0  0  0  0
    1.6128    7.7935    8.9151 H   0  0  0  0  0  0  0  0  0  0  0  0
    0.7462    6.8258    6.7148 H   0  0  0  0  0  0  0  0  0  0  0  0
    1.8087    5.5553    7.4861 H   0  0  0  0  0  0  0  0  0  0  0  0
    2.9617    5.1966    5.4503 H   0  0  0  0  0  0  0  0  0  0  0  0
    2.0296    6.5542    4.6629 H   0  0  0  0  0  0  0  0  0  0  0  0
   -0.6913    3.4111    3.3305 H   0  0  0  0  0  0  0  0  0  0  0  0
    0.1564    2.2688    5.4097 H   0  0  0  0  0  0  0  0  0  0  0  0
   -0.3084    1.1225    4.0702 H   0  0  0  0  0  0  0  0  0  0  0  0
    2.3982   -0.0912    7.3208 H   0  0  0  0  0  0  0  0  0  0  0  0
    2.6409    2.0814    6.0177 H   0  0  0  0  0  0  0  0  0  0  0  0
    1.5133   -0.0184    2.6954 H   0  0  0  0  0  0  0  0  0  0  0  0
    3.2134    0.2447    3.1477 H   0  0  0  0  0  0  0  0  0  0  0  0
    3.0028    2.6486    2.5770 H   0  0  0  0  0  0  0  0  0  0  0  0
    3.3532    0.8648    0.8743 H   0  0  0  0  0  0  0  0  0  0  0  0
    0.2095    1.8236    1.6492 H   0  0  0  0  0  0  0  0  0  0  0  0
    1.0943    4.5249    1.7583 H   0  0  0  0  0  0  0  0  0  0  0  0
 23 22  1  0
 25 24  1  0
 24 22  1  0
 24 14  1  0
 22 21  1  0
 21 16  1  0
 14 13  1  0
 14 15  1  0
 13 11  1  0
 15 16  1  0
 16 20  1  0
 16 17  1  0
 11 10  1  0
 11 12  2  0
 18 17  2  0
 10  9  1  0
 17 19  1  0
  3  2  1  0
  1  2  2  0
  1  8  1  0
  9  8  1  0
  2  4  1  0
  8  7  2  0
  4  5  1  0
  4  6  2  0
  7  6  1  0
  1 26  1  0
  3 27  1  0
  5 28  1  0
  6 29  1  0
  7 30  1  0
  9 31  1  0
  9 32  1  0
 10 33  1  0
 10 34  1  0
 14 35  1  0
 15 36  1  0
 15 37  1  0
 19 38  1  0
 20 39  1  0
 21 40  1  0
 21 41  1  0
 22 42  1  0
 23 43  1  0
 24 44  1  0
 25 45  1  0
A    1
CAX
A    2
CAV
A    3
OAW
A    4
CAT
A    5
OAU
A    6
CAS
A    7
CAR
A    8
CAQ
A    9
CAP
A   10
CAO
A   11
CAM
A   12
OAN
A   13
OAL
A   14
CAK
A   15
CAY
A   16
CAD
A   17
CAB
A   18
OAC
A   19
OAA
A   20
OAE
A   21
CAF
A   22
CAG
A   23
OAH
A   24
CAI
A   25
OAJ
M  END
