5GMZ_6XU_A_205
     RDKit          3D

 55 58  0  0  0  0  0  0  0  0999 V2000
  -42.0410    8.4060   26.3370 C   0  0  0  0  0  0  0  0  0  0  0  0
  -43.3330    8.7670   27.1360 C   0  0  0  0  0  0  0  0  0  0  0  0
  -43.2800   10.2240   27.7500 C   0  0  0  0  0  0  0  0  0  0  0  0
  -43.5370   10.4330   29.0860 C   0  0  0  0  0  0  0  0  0  0  0  0
  -43.7660    9.3660   29.9060 N   0  0  0  0  0  0  0  0  0  0  0  0
  -43.7560    8.0790   29.4540 C   0  0  0  0  0  0  0  0  0  0  0  0
  -43.5410    7.7720   28.2120 N   0  0  0  0  0  0  0  0  0  0  0  0
  -44.0760    7.0620   30.4020 C   0  0  0  0  0  0  0  0  0  0  0  0
  -44.1820    7.2060   31.7090 N   0  0  0  0  0  0  0  0  0  0  0  0
  -44.5840    6.0390   32.3780 C   0  0  0  0  0  0  0  0  0  0  0  0
  -44.8340    4.9590   31.5900 C   0  0  0  0  0  0  0  0  0  0  0  0
  -44.5750    5.4090   29.9180 S   0  0  0  0  0  0  0  0  0  0  0  0
  -43.7720   11.7770   29.7290 C   0  0  0  0  0  0  0  0  0  0  0  0
  -44.4830   11.6470   30.9760 N   0  0  0  0  0  0  0  0  0  0  0  0
  -45.9260   11.4570   30.7550 C   0  0  0  0  0  0  0  0  0  0  0  0
  -46.4930   11.5840   32.1900 C   0  0  0  0  0  0  0  0  0  0  0  0
  -45.5180   12.6280   32.8620 C   0  0  0  0  0  0  0  0  0  0  0  0
  -44.4370   12.8750   31.8340 C   0  0  0  0  0  0  0  0  0  0  0  0
  -43.0700   13.1420   32.5700 C   0  0  0  0  0  0  0  0  0  0  0  0
  -42.9370   14.2670   33.0900 O   0  0  0  0  0  0  0  0  0  0  0  0
  -42.2490   12.2130   32.5550 O   0  0  0  0  0  0  0  0  0  0  0  0
  -47.7840   11.9470   32.1520 F   0  0  0  0  0  0  0  0  0  0  0  0
  -46.5230   10.3980   32.7480 F   0  0  0  0  0  0  0  0  0  0  0  0
  -43.1100   11.3470   26.8090 C   0  0  0  0  0  0  0  0  0  0  0  0
  -42.7930   12.4770   27.1270 O   0  0  0  0  0  0  0  0  0  0  0  0
  -43.3110   11.1400   25.4680 O   0  0  0  0  0  0  0  0  0  0  0  0
  -43.0800   12.1690   24.5200 C   0  0  0  0  0  0  0  0  0  0  0  0
  -44.5940    8.5680   26.2480 C   0  0  0  0  0  0  0  0  0  0  0  0
  -44.5490    8.3160   24.8620 C   0  0  0  0  0  0  0  0  0  0  0  0
  -45.7150    8.1170   24.1110 C   0  0  0  0  0  0  0  0  0  0  0  0
  -46.9710    8.1380   24.7420 C   0  0  0  0  0  0  0  0  0  0  0  0
  -47.0610    8.3700   26.1260 C   0  0  0  0  0  0  0  0  0  0  0  0
  -45.8740    8.5660   26.8340 C   0  0  0  0  0  0  0  0  0  0  0  0
  -48.0660    7.9430   24.0650 F   0  0  0  0  0  0  0  0  0  0  0  0
  -41.2265    8.1784   27.0404 H   0  0  0  0  0  0  0  0  0  0  0  0
  -42.2349    7.5276   25.7039 H   0  0  0  0  0  0  0  0  0  0  0  0
  -41.7515    9.2576   25.7039 H   0  0  0  0  0  0  0  0  0  0  0  0
  -43.9535    9.5392   30.9039 H   0  0  0  0  0  0  0  0  0  0  0  0
  -44.6902    6.0005   33.4722 H   0  0  0  0  0  0  0  0  0  0  0  0
  -45.1474    3.9661   31.9448 H   0  0  0  0  0  0  0  0  0  0  0  0
  -44.3627   12.4030   29.0440 H   0  0  0  0  0  0  0  0  0  0  0  0
  -42.7945   12.2378   29.9346 H   0  0  0  0  0  0  0  0  0  0  0  0
  -46.1375   10.4654   30.3284 H   0  0  0  0  0  0  0  0  0  0  0  0
  -46.3625   12.1716   30.0417 H   0  0  0  0  0  0  0  0  0  0  0  0
  -46.0517   13.5616   33.0933 H   0  0  0  0  0  0  0  0  0  0  0  0
  -45.1065   12.2558   33.8118 H   0  0  0  0  0  0  0  0  0  0  0  0
  -44.5709   13.7667   31.2040 H   0  0  0  0  0  0  0  0  0  0  0  0
  -41.9144   11.8343   33.4063 H   0  0  0  0  0  0  0  0  0  0  0  0
  -42.8684   13.1115   25.0462 H   0  0  0  0  0  0  0  0  0  0  0  0
  -42.2199   11.9001   23.8892 H   0  0  0  0  0  0  0  0  0  0  0  0
  -43.9725   12.2936   23.8892 H   0  0  0  0  0  0  0  0  0  0  0  0
  -43.5728    8.2745   24.3566 H   0  0  0  0  0  0  0  0  0  0  0  0
  -45.6475    7.9442   23.0268 H   0  0  0  0  0  0  0  0  0  0  0  0
  -48.0360    8.3962   26.6347 H   0  0  0  0  0  0  0  0  0  0  0  0
  -45.9433    8.7294   27.9196 H   0  0  0  0  0  0  0  0  0  0  0  0
 23 16  1  0
 10 11  2  0
 10  9  1  0
 17 16  1  0
 17 18  1  0
 20 19  2  0
 22 16  1  0
 16 15  1  0
 11 12  1  0
 19 21  1  0
 19 18  1  0
  9  8  2  0
 18 14  1  0
 15 14  1  0
 14 13  1  0
  8 12  1  0
  8  6  1  0
  5  6  1  0
  5  4  1  0
  6  7  2  0
 13  4  1  0
  4  3  2  0
  7  2  1  0
  3  2  1  0
  3 24  1  0
 33 32  2  0
 33 28  1  0
  2 28  1  0
  2  1  1  0
 32 31  1  0
 25 24  2  0
 24 26  1  0
 28 29  2  0
 31 34  1  0
 31 30  2  0
 26 27  1  0
 29 30  1  0
  1 35  1  0
  1 36  1  0
  1 37  1  0
  5 38  1  0
 10 39  1  0
 11 40  1  0
 13 41  1  0
 13 42  1  0
 15 43  1  0
 15 44  1  0
 17 45  1  0
 17 46  1  0
 18 47  1  0
 21 48  1  0
 27 49  1  0
 27 50  1  0
 27 51  1  0
 29 52  1  0
 30 53  1  0
 32 54  1  0
 33 55  1  0
A    1
C01
A    2
C02
A    3
C03
A    4
C04
A    5
N05
A    6
C06
A    7
N07
A    8
C08
A    9
N09
A   10
C10
A   11
C11
A   12
S12
A   13
C13
A   14
N14
A   15
C15
A   16
C16
A   17
C17
A   18
C18
A   19
C19
A   20
O20
A   21
O21
A   22
F22
A   23
F23
A   24
C24
A   25
O25
A   26
O26
A   27
C27
A   28
C28
A   29
C29
A   30
C30
A   31
C31
A   32
C32
A   33
C33
A   34
F34
M  END
