5GRN_748_A_1001
     RDKit          3D

 78 82  0  0  0  0  0  0  0  0999 V2000
  -13.3650   -0.0700  -15.1440 C   0  0  0  0  0  0  0  0  0  0  0  0
  -12.0480    0.3410  -15.2600 C   0  0  0  0  0  0  0  0  0  0  0  0
  -11.3620    0.7030  -14.1100 C   0  0  0  0  0  0  0  0  0  0  0  0
  -12.0040    0.6450  -12.8730 N   0  0  0  0  0  0  0  0  0  0  0  0
  -13.9320   -0.1030  -13.9290 N   0  0  0  0  0  0  0  0  0  0  0  0
  -13.2750    0.2420  -12.8070 C   0  0  0  0  0  0  0  0  0  0  0  0
  -13.4270   -2.0810  -10.2530 C   0  0  0  0  0  0  0  0  0  0  0  0
   -5.7890    8.4690   -5.5970 C   0  0  0  0  0  0  0  0  0  0  0  0
   -6.4010   10.7260   -5.0700 C   0  0  0  0  0  0  0  0  0  0  0  0
  -13.8240    8.9290   -7.1220 C   0  0  0  0  0  0  0  0  0  0  0  0
  -14.2390   -0.9280  -18.6250 C   0  0  0  0  0  0  0  0  0  0  0  0
  -13.5920    8.6130   -8.4510 C   0  0  0  0  0  0  0  0  0  0  0  0
  -15.5950   -1.1900  -18.5080 C   0  0  0  0  0  0  0  0  0  0  0  0
  -12.7810    9.3740   -6.3200 C   0  0  0  0  0  0  0  0  0  0  0  0
  -13.4940   -0.5560  -17.5110 C   0  0  0  0  0  0  0  0  0  0  0  0
  -12.1110    6.2950   -5.7510 C   0  0  0  0  0  0  0  0  0  0  0  0
   -9.8660    6.5310   -6.5240 C   0  0  0  0  0  0  0  0  0  0  0  0
  -12.5530   -0.7470   -8.4710 C   0  0  0  0  0  0  0  0  0  0  0  0
  -12.2340    0.4800   -7.9170 C   0  0  0  0  0  0  0  0  0  0  0  0
  -12.3360    5.2960   -6.6930 C   0  0  0  0  0  0  0  0  0  0  0  0
  -10.0940    5.5260   -7.4720 C   0  0  0  0  0  0  0  0  0  0  0  0
  -11.2750    9.1980   -8.1740 C   0  0  0  0  0  0  0  0  0  0  0  0
  -15.4640   -0.7050  -16.1520 C   0  0  0  0  0  0  0  0  0  0  0  0
  -13.0370    1.5890   -9.8830 C   0  0  0  0  0  0  0  0  0  0  0  0
   -7.7190    8.8860   -4.2330 C   0  0  0  0  0  0  0  0  0  0  0  0
   -9.0290    9.6620   -4.1020 C   0  0  0  0  0  0  0  0  0  0  0  0
  -10.7280    7.9170   -4.6620 C   0  0  0  0  0  0  0  0  0  0  0  0
  -11.5940    3.8870   -8.5010 C   0  0  0  0  0  0  0  0  0  0  0  0
  -10.4640    9.9670   -6.0490 C   0  0  0  0  0  0  0  0  0  0  0  0
  -10.8830    6.9330   -5.6600 C   0  0  0  0  0  0  0  0  0  0  0  0
  -13.1200   -0.8280   -9.7310 C   0  0  0  0  0  0  0  0  0  0  0  0
  -12.4570    1.6620   -8.6070 C   0  0  0  0  0  0  0  0  0  0  0  0
  -11.3360    4.9040   -7.5700 C   0  0  0  0  0  0  0  0  0  0  0  0
  -11.5040    9.5020   -6.8440 C   0  0  0  0  0  0  0  0  0  0  0  0
  -14.1020   -0.4440  -16.2700 C   0  0  0  0  0  0  0  0  0  0  0  0
  -13.3510    0.3400  -10.4490 C   0  0  0  0  0  0  0  0  0  0  0  0
  -12.3130    8.7470   -8.9790 N   0  0  0  0  0  0  0  0  0  0  0  0
  -16.2170   -1.0810  -17.2650 N   0  0  0  0  0  0  0  0  0  0  0  0
  -12.1280    2.7880   -7.9450 N   0  0  0  0  0  0  0  0  0  0  0  0
  -13.9330    0.1700  -11.6470 N   0  0  0  0  0  0  0  0  0  0  0  0
   -6.9100    9.3800   -5.3520 N   0  0  0  0  0  0  0  0  0  0  0  0
  -10.0780    9.1900   -5.0270 N   0  0  0  0  0  0  0  0  0  0  0  0
  -11.3160    4.0150   -9.6860 O   0  0  0  0  0  0  0  0  0  0  0  0
   -9.9280   11.0410   -6.2980 O   0  0  0  0  0  0  0  0  0  0  0  0
  -11.5561    0.3797  -16.2431 H   0  0  0  0  0  0  0  0  0  0  0  0
  -10.3151    1.0347  -14.1733 H   0  0  0  0  0  0  0  0  0  0  0  0
  -13.6005   -2.7890   -9.4292 H   0  0  0  0  0  0  0  0  0  0  0  0
  -14.3339   -2.0085  -10.8712 H   0  0  0  0  0  0  0  0  0  0  0  0
  -12.5893   -2.4360  -10.8712 H   0  0  0  0  0  0  0  0  0  0  0  0
   -5.3739    8.1316   -4.6358 H   0  0  0  0  0  0  0  0  0  0  0  0
   -6.1422    7.5987   -6.1696 H   0  0  0  0  0  0  0  0  0  0  0  0
   -5.0093    8.9927   -6.1696 H   0  0  0  0  0  0  0  0  0  0  0  0
   -6.3443   10.8760   -3.9818 H   0  0  0  0  0  0  0  0  0  0  0  0
   -5.3984   10.8382   -5.5084 H   0  0  0  0  0  0  0  0  0  0  0  0
   -7.0785   11.4735   -5.5084 H   0  0  0  0  0  0  0  0  0  0  0  0
  -14.8354    8.8273   -6.7016 H   0  0  0  0  0  0  0  0  0  0  0  0
  -13.7486   -1.0149  -19.6058 H   0  0  0  0  0  0  0  0  0  0  0  0
  -14.4169    8.2574   -9.0860 H   0  0  0  0  0  0  0  0  0  0  0  0
  -16.1786   -1.4830  -19.3931 H   0  0  0  0  0  0  0  0  0  0  0  0
  -12.9688    9.6256   -5.2658 H   0  0  0  0  0  0  0  0  0  0  0  0
  -12.4185   -0.3499  -17.6149 H   0  0  0  0  0  0  0  0  0  0  0  0
  -12.9218    6.5840   -5.0661 H   0  0  0  0  0  0  0  0  0  0  0  0
   -8.8763    7.0070   -6.4607 H   0  0  0  0  0  0  0  0  0  0  0  0
  -12.3538   -1.6682   -7.9039 H   0  0  0  0  0  0  0  0  0  0  0  0
  -11.7948    0.5187   -6.9092 H   0  0  0  0  0  0  0  0  0  0  0  0
  -13.3216    4.8101   -6.7427 H   0  0  0  0  0  0  0  0  0  0  0  0
   -9.2810    5.2237   -8.1485 H   0  0  0  0  0  0  0  0  0  0  0  0
  -10.2658    9.3140   -8.5960 H   0  0  0  0  0  0  0  0  0  0  0  0
  -15.9523   -0.6139  -15.1705 H   0  0  0  0  0  0  0  0  0  0  0  0
  -13.2469    2.5123  -10.4428 H   0  0  0  0  0  0  0  0  0  0  0  0
   -7.9485    7.8232   -4.3999 H   0  0  0  0  0  0  0  0  0  0  0  0
   -7.1437    9.0220   -3.3054 H   0  0  0  0  0  0  0  0  0  0  0  0
   -8.8294   10.7232   -4.3116 H   0  0  0  0  0  0  0  0  0  0  0  0
   -9.4008    9.5064   -3.0785 H   0  0  0  0  0  0  0  0  0  0  0  0
  -11.7329    8.1608   -4.2868 H   0  0  0  0  0  0  0  0  0  0  0  0
  -10.0392    7.4600   -3.9363 H   0  0  0  0  0  0  0  0  0  0  0  0
  -12.3001    2.8074   -6.9297 H   0  0  0  0  0  0  0  0  0  0  0  0
  -14.9437   -0.0270  -11.6729 H   0  0  0  0  0  0  0  0  0  0  0  0
 11 13  2  0
 11 15  1  0
 13 38  1  0
 15 35  2  0
 38 23  2  0
 35 23  1  0
 35  1  1  0
  2  1  2  0
  2  3  1  0
  1  5  1  0
  3  4  2  0
  5  6  2  0
  4  6  1  0
  6 40  1  0
 40 36  1  0
 36 24  2  0
 36 31  1  0
  7 31  1  0
 24 32  1  0
 31 18  2  0
 43 28  2  0
 37 12  1  0
 37 22  2  0
 32 39  1  0
 32 19  2  0
 28 39  1  0
 28 33  1  0
 18 19  1  0
 12 10  2  0
 22 34  1  0
 33 21  2  0
 33 20  1  0
 21 17  1  0
 10 14  1  0
 34 14  2  0
 34 29  1  0
 20 16  2  0
 17 30  2  0
 44 29  2  0
 29 42  1  0
 16 30  1  0
 30 27  1  0
  8 41  1  0
 41  9  1  0
 41 25  1  0
 42 27  1  0
 42 26  1  0
 25 26  1  0
  2 45  1  0
  3 46  1  0
  7 47  1  0
  7 48  1  0
  7 49  1  0
  8 50  1  0
  8 51  1  0
  8 52  1  0
  9 53  1  0
  9 54  1  0
  9 55  1  0
 10 56  1  0
 11 57  1  0
 12 58  1  0
 13 59  1  0
 14 60  1  0
 15 61  1  0
 16 62  1  0
 17 63  1  0
 18 64  1  0
 19 65  1  0
 20 66  1  0
 21 67  1  0
 22 68  1  0
 23 69  1  0
 24 70  1  0
 25 71  1  0
 25 72  1  0
 26 73  1  0
 26 74  1  0
 27 75  1  0
 27 76  1  0
 39 77  1  0
 40 78  1  0
A    1
C4
A    2
C5
A    3
C6
A    4
N1
A    5
N3
A    6
C2
A    7
CAA
A    8
CAB
A    9
CAC
A   10
CAF
A   11
CAG
A   12
CAH
A   13
CAI
A   14
CAK
A   15
CAL
A   16
CAM
A   17
CAN
A   18
CAO
A   19
CAQ
A   20
CAR
A   21
CAS
A   22
CAT
A   23
CAU
A   24
CAV
A   25
CAW
A   26
CAX
A   27
CAY
A   28
CBF
A   29
CBG
A   30
CBH
A   31
CBI
A   32
CBJ
A   33
CBK
A   34
CBL
A   35
CBM
A   36
CBO
A   37
NAZ
A   38
NBA
A   39
NBD
A   40
NBE
A   41
NBQ
A   42
NBR
A   43
OAD
A   44
OAE
M  END
