5GSO_5GI_A_201
     RDKit          3D

 57 59  0  0  0  0  0  0  0  0999 V2000
  -22.8910   -3.3800   97.0690 C   0  0  0  0  0  0  0  0  0  0  0  0
  -24.0780   -4.2880   96.9010 C   0  0  0  0  0  0  0  0  0  0  0  0
  -22.4630   -3.4310   98.4960 C   0  0  0  0  0  0  0  0  0  0  0  0
  -15.9150   -3.9060   94.5530 C   0  0  0  0  0  0  0  0  0  0  0  0
  -24.8800   -3.9300   95.6570 C   0  0  0  0  0  0  0  0  0  0  0  0
  -25.3000   -2.6630   95.4570 C   0  0  0  0  0  0  0  0  0  0  0  0
  -25.1550   -4.9290   94.7390 C   0  0  0  0  0  0  0  0  0  0  0  0
  -26.0130   -2.3680   94.3210 C   0  0  0  0  0  0  0  0  0  0  0  0
  -26.2760   -3.3710   93.4080 C   0  0  0  0  0  0  0  0  0  0  0  0
  -25.8520   -4.6270   93.6060 C   0  0  0  0  0  0  0  0  0  0  0  0
  -20.7290   -2.9850   96.0980 C   0  0  0  0  0  0  0  0  0  0  0  0
  -19.5090   -3.5170   95.3840 C   0  0  0  0  0  0  0  0  0  0  0  0
  -17.3970   -1.3430  100.0100 C   0  0  0  0  0  0  0  0  0  0  0  0
  -18.1680   -3.1080   95.6250 C   0  0  0  0  0  0  0  0  0  0  0  0
  -23.9680   -2.2360  101.5320 C   0  0  0  0  0  0  0  0  0  0  0  0
  -17.4060   -3.9150   94.7250 C   0  0  0  0  0  0  0  0  0  0  0  0
  -18.3100   -2.3650   99.3580 C   0  0  0  0  0  0  0  0  0  0  0  0
  -22.7040   -2.3940  100.7770 C   0  0  0  0  0  0  0  0  0  0  0  0
  -21.6410   -1.3250  100.9950 C   0  0  0  0  0  0  0  0  0  0  0  0
  -20.3080   -1.2370  100.1890 C   0  0  0  0  0  0  0  0  0  0  0  0
  -19.4230   -0.2220  100.8760 C   0  0  0  0  0  0  0  0  0  0  0  0
  -19.5550   -2.5110  100.1190 C   0  0  0  0  0  0  0  0  0  0  0  0
  -26.9450   -3.1190   92.3150 F   0  0  0  0  0  0  0  0  0  0  0  0
  -21.7910   -3.8600   96.3630 N   0  0  0  0  0  0  0  0  0  0  0  0
  -19.4760   -4.4470   94.4700 N   0  0  0  0  0  0  0  0  0  0  0  0
  -18.0630   -0.0900  100.3610 N   0  0  0  0  0  0  0  0  0  0  0  0
  -23.0050   -2.4850   99.3910 N   0  0  0  0  0  0  0  0  0  0  0  0
  -18.2430   -4.6610   94.0770 O   0  0  0  0  0  0  0  0  0  0  0  0
  -24.4560   -3.3100  101.9010 O   0  0  0  0  0  0  0  0  0  0  0  0
  -21.6790   -4.2580   98.8340 O   0  0  0  0  0  0  0  0  0  0  0  0
  -20.7460   -1.8260   96.4380 O   0  0  0  0  0  0  0  0  0  0  0  0
  -20.0440    0.9900  100.8180 O   0  0  0  0  0  0  0  0  0  0  0  0
  -23.1846   -2.3777   96.7237 H   0  0  0  0  0  0  0  0  0  0  0  0
  -24.7272   -4.1955   97.7842 H   0  0  0  0  0  0  0  0  0  0  0  0
  -23.7120   -5.3195   96.7918 H   0  0  0  0  0  0  0  0  0  0  0  0
  -15.4319   -3.9031   95.5412 H   0  0  0  0  0  0  0  0  0  0  0  0
  -15.6048   -4.8023   93.9959 H   0  0  0  0  0  0  0  0  0  0  0  0
  -15.6156   -3.0060   93.9959 H   0  0  0  0  0  0  0  0  0  0  0  0
  -25.0744   -1.8778   96.1936 H   0  0  0  0  0  0  0  0  0  0  0  0
  -24.8140   -5.9587   94.9218 H   0  0  0  0  0  0  0  0  0  0  0  0
  -26.3710   -1.3438   94.1399 H   0  0  0  0  0  0  0  0  0  0  0  0
  -26.0644   -5.4079   92.8609 H   0  0  0  0  0  0  0  0  0  0  0  0
  -16.9839   -1.7845  100.9289 H   0  0  0  0  0  0  0  0  0  0  0  0
  -16.6191   -1.0947   99.2729 H   0  0  0  0  0  0  0  0  0  0  0  0
  -17.8042   -2.3508   96.3351 H   0  0  0  0  0  0  0  0  0  0  0  0
  -24.4274   -1.2592  101.7436 H   0  0  0  0  0  0  0  0  0  0  0  0
  -18.5485   -2.0355   98.3360 H   0  0  0  0  0  0  0  0  0  0  0  0
  -17.7938   -3.3361   99.3364 H   0  0  0  0  0  0  0  0  0  0  0  0
  -22.2500   -3.3135  101.1750 H   0  0  0  0  0  0  0  0  0  0  0  0
  -21.3448   -1.4113  102.0508 H   0  0  0  0  0  0  0  0  0  0  0  0
  -22.1662   -0.4322  100.6248 H   0  0  0  0  0  0  0  0  0  0  0  0
  -20.5752   -0.9636   99.1576 H   0  0  0  0  0  0  0  0  0  0  0  0
  -20.1839   -3.2703   99.6311 H   0  0  0  0  0  0  0  0  0  0  0  0
  -19.2962   -2.8127  101.1447 H   0  0  0  0  0  0  0  0  0  0  0  0
  -21.7586   -4.8382   96.0421 H   0  0  0  0  0  0  0  0  0  0  0  0
  -17.6034    0.8254  100.2523 H   0  0  0  0  0  0  0  0  0  0  0  0
  -23.6751   -1.8030   99.0079 H   0  0  0  0  0  0  0  0  0  0  0  0
 23  9  1  0
  9 10  2  0
  9  8  1  0
 10  7  1  0
 28 25  1  0
 28 16  1  0
  8  6  2  0
 25 12  2  0
  4 16  1  0
 16 14  2  0
  7  5  2  0
 12 14  1  0
 12 11  1  0
  6  5  1  0
  5  2  1  0
 11 24  1  0
 11 31  2  0
 24  1  1  0
  2  1  1  0
  1  3  1  0
  3 30  2  0
  3 27  1  0
 17 13  1  0
 17 22  1  0
 27 18  1  0
 13 26  1  0
 22 20  1  0
 20 21  1  0
 20 19  1  0
 26 21  1  0
 18 19  1  0
 18 15  1  0
 32 21  2  0
 15 29  2  0
  1 33  1  0
  2 34  1  0
  2 35  1  0
  4 36  1  0
  4 37  1  0
  4 38  1  0
  6 39  1  0
  7 40  1  0
  8 41  1  0
 10 42  1  0
 13 43  1  0
 13 44  1  0
 14 45  1  0
 15 46  1  0
 17 47  1  0
 17 48  1  0
 18 49  1  0
 19 50  1  0
 19 51  1  0
 20 52  1  0
 22 53  1  0
 22 54  1  0
 24 55  1  0
 26 56  1  0
 27 57  1  0
A    1
C1
A    2
C2
A    3
C3
A    4
C4
A    5
C5
A    6
C6
A    7
C7
A    8
C8
A    9
C9
A   10
C10
A   11
C11
A   12
C12
A   13
C13
A   14
C14
A   15
C15
A   16
C16
A   17
C17
A   18
C18
A   19
C19
A   20
C20
A   21
C21
A   22
C22
A   23
F1
A   24
N1
A   25
N2
A   26
N3
A   27
N4
A   28
O1
A   29
O2
A   30
O3
A   31
O4
A   32
O5
M  END
