3AE0_GGS_A_1001
     RDKit          3D

 65 64  0  0  0  0  0  0  0  0999 V2000
   23.6790    9.3110   22.8860 C   0  0  0  0  0  0  0  0  0  0  0  0
   23.0900   10.0320   21.5110 S   0  0  0  0  0  0  0  0  0  0  0  0
   23.2970    9.7750   24.2340 C   0  0  0  0  0  0  0  0  0  0  0  0
   22.4540   10.7670   24.5140 C   0  0  0  0  0  0  0  0  0  0  0  0
   21.5420   10.6320   25.6600 C   0  0  0  0  0  0  0  0  0  0  0  0
   22.3880   12.0500   23.7320 C   0  0  0  0  0  0  0  0  0  0  0  0
   22.0820   13.1060   24.7610 C   0  0  0  0  0  0  0  0  0  0  0  0
   22.8850   14.3300   24.8910 C   0  0  0  0  0  0  0  0  0  0  0  0
   23.9150   14.5770   24.0930 C   0  0  0  0  0  0  0  0  0  0  0  0
   23.7150   15.5370   22.9500 C   0  0  0  0  0  0  0  0  0  0  0  0
   22.6010    8.4810   20.2500 P   0  0  0  0  0  0  0  0  0  0  0  0
   19.9150    7.3350   20.3330 P   0  0  0  0  0  0  0  0  0  0  0  0
   25.2130   13.9290   24.3520 C   0  0  0  0  0  0  0  0  0  0  0  0
   23.1410   16.7990   23.5390 C   0  0  0  0  0  0  0  0  0  0  0  0
   23.4270   18.1210   22.9530 C   0  0  0  0  0  0  0  0  0  0  0  0
   22.8880   19.1800   23.5410 C   0  0  0  0  0  0  0  0  0  0  0  0
   21.9050   18.9450   24.6070 C   0  0  0  0  0  0  0  0  0  0  0  0
   23.2790   20.5800   23.1270 C   0  0  0  0  0  0  0  0  0  0  0  0
   22.0180   21.3850   22.9400 C   0  0  0  0  0  0  0  0  0  0  0  0
   20.9590   21.0230   21.9740 C   0  0  0  0  0  0  0  0  0  0  0  0
   20.9290   20.0030   21.1110 C   0  0  0  0  0  0  0  0  0  0  0  0
   21.1960   20.3050   19.6610 C   0  0  0  0  0  0  0  0  0  0  0  0
   23.2120    8.7580   18.8990 O   0  0  0  0  0  0  0  0  0  0  0  0
   18.9460    8.1170   21.1820 O   0  0  0  0  0  0  0  0  0  0  0  0
   20.5700   18.6170   21.4760 C   0  0  0  0  0  0  0  0  0  0  0  0
   23.0320    7.1890   20.9020 O   0  0  0  0  0  0  0  0  0  0  0  0
   20.6530    6.2660   21.1140 O   0  0  0  0  0  0  0  0  0  0  0  0
   20.9990    8.5090   20.0560 O   0  0  0  0  0  0  0  0  0  0  0  0
   19.3850    6.9200   18.9770 O   0  0  0  0  0  0  0  0  0  0  0  0
   23.3853    8.2524   22.8293 H   0  0  0  0  0  0  0  0  0  0  0  0
   24.7472    9.5703   22.8450 H   0  0  0  0  0  0  0  0  0  0  0  0
   23.7517    9.2519   25.0882 H   0  0  0  0  0  0  0  0  0  0  0  0
   22.1140   10.7167   26.5958 H   0  0  0  0  0  0  0  0  0  0  0  0
   20.7834   11.4276   25.6207 H   0  0  0  0  0  0  0  0  0  0  0  0
   21.0465    9.6507   25.6207 H   0  0  0  0  0  0  0  0  0  0  0  0
   23.3501   12.2547   23.2396 H   0  0  0  0  0  0  0  0  0  0  0  0
   21.6322   12.0138   22.9336 H   0  0  0  0  0  0  0  0  0  0  0  0
   21.0507   13.4350   24.5655 H   0  0  0  0  0  0  0  0  0  0  0  0
   22.3106   12.5821   25.7008 H   0  0  0  0  0  0  0  0  0  0  0  0
   22.6248   15.0607   25.6710 H   0  0  0  0  0  0  0  0  0  0  0  0
   24.6772   15.7503   22.4615 H   0  0  0  0  0  0  0  0  0  0  0  0
   23.0413   15.1130   22.1909 H   0  0  0  0  0  0  0  0  0  0  0  0
   25.3729   13.8492   25.4374 H   0  0  0  0  0  0  0  0  0  0  0  0
   25.2163   12.9235   23.9060 H   0  0  0  0  0  0  0  0  0  0  0  0
   26.0187   14.5306   23.9060 H   0  0  0  0  0  0  0  0  0  0  0  0
   22.0475   16.6810   23.5202 H   0  0  0  0  0  0  0  0  0  0  0  0
   23.6478   16.8573   24.5135 H   0  0  0  0  0  0  0  0  0  0  0  0
   24.0634   18.2249   22.0618 H   0  0  0  0  0  0  0  0  0  0  0  0
   22.3916   19.0613   25.5866 H   0  0  0  0  0  0  0  0  0  0  0  0
   21.0848   19.6724   24.5163 H   0  0  0  0  0  0  0  0  0  0  0  0
   21.5025   17.9253   24.5163 H   0  0  0  0  0  0  0  0  0  0  0  0
   23.9016   21.0394   23.9089 H   0  0  0  0  0  0  0  0  0  0  0  0
   23.8549   20.5525   22.1902 H   0  0  0  0  0  0  0  0  0  0  0  0
   21.5300   21.4141   23.9254 H   0  0  0  0  0  0  0  0  0  0  0  0
   22.4147   22.3074   22.4907 H   0  0  0  0  0  0  0  0  0  0  0  0
   20.0778   21.6813   21.9643 H   0  0  0  0  0  0  0  0  0  0  0  0
   21.9229   21.1272   19.5855 H   0  0  0  0  0  0  0  0  0  0  0  0
   21.6030   19.4094   19.1688 H   0  0  0  0  0  0  0  0  0  0  0  0
   20.2573   20.5992   19.1688 H   0  0  0  0  0  0  0  0  0  0  0  0
   20.5452   18.5211   22.5715 H   0  0  0  0  0  0  0  0  0  0  0  0
   19.5793   18.3742   21.0641 H   0  0  0  0  0  0  0  0  0  0  0  0
   21.3182   17.9238   21.0641 H   0  0  0  0  0  0  0  0  0  0  0  0
   22.9987    7.2890   21.8864 H   0  0  0  0  0  0  0  0  0  0  0  0
   20.5404    6.4290   22.0840 H   0  0  0  0  0  0  0  0  0  0  0  0
   18.6112    6.3141   19.0964 H   0  0  0  0  0  0  0  0  0  0  0  0
  1  2  1  0
  1  3  1  0
  2 11  1  0
  3  4  2  0
  4  5  1  0
  4  6  1  0
  6  7  1  0
  7  8  1  0
  8  9  2  0
  9 10  1  0
  9 13  1  0
 10 14  1  0
 11 23  2  0
 11 26  1  0
 11 28  1  0
 12 24  2  0
 12 27  1  0
 12 28  1  0
 12 29  1  0
 14 15  1  0
 15 16  2  0
 16 17  1  0
 16 18  1  0
 18 19  1  0
 19 20  1  0
 20 21  2  0
 21 22  1  0
 21 25  1  0
  1 30  1  0
  1 31  1  0
  3 32  1  0
  5 33  1  0
  5 34  1  0
  5 35  1  0
  6 36  1  0
  6 37  1  0
  7 38  1  0
  7 39  1  0
  8 40  1  0
 10 41  1  0
 10 42  1  0
 13 43  1  0
 13 44  1  0
 13 45  1  0
 14 46  1  0
 14 47  1  0
 15 48  1  0
 17 49  1  0
 17 50  1  0
 17 51  1  0
 18 52  1  0
 18 53  1  0
 19 54  1  0
 19 55  1  0
 20 56  1  0
 22 57  1  0
 22 58  1  0
 22 59  1  0
 25 60  1  0
 25 61  1  0
 25 62  1  0
 26 63  1  0
 27 64  1  0
 29 65  1  0
A    1
C1
A    2
S1
A    3
C2
A    4
C3
A    5
C4
A    6
C5
A    7
C6
A    8
C7
A    9
C8
A   10
C9
A   11
PA
A   12
PB
A   13
C10
A   14
C11
A   15
C12
A   16
C13
A   17
C14
A   18
C15
A   19
C16
A   20
C17
A   21
C18
A   22
C19
A   23
O1A
A   24
O1B
A   25
C20
A   26
O2A
A   27
O2B
A   28
O3A
A   29
O3B
M  END
