5H0G_OOU_A_601
     RDKit          3D

 77 81  0  0  0  0  0  0  0  0999 V2000
    5.3380   -5.3380   -2.5520 N   0  0  0  0  0  0  0  0  0  0  0  0
    6.2980   -4.8320   -1.6890 C   0  0  0  0  0  0  0  0  0  0  0  0
    6.1780   -3.7610   -0.8730 N   0  0  0  0  0  0  0  0  0  0  0  0
    4.9400   -3.1710   -0.9740 C   0  0  0  0  0  0  0  0  0  0  0  0
    3.8380   -3.5770   -1.8050 C   0  0  0  0  0  0  0  0  0  0  0  0
    4.1330   -4.7070   -2.5920 C   0  0  0  0  0  0  0  0  0  0  0  0
    4.5540   -2.0580   -0.2670 N   0  0  0  0  0  0  0  0  0  0  0  0
    3.2290   -1.7660   -0.6410 C   0  0  0  0  0  0  0  0  0  0  0  0
    2.7620   -2.6340   -1.5860 C   0  0  0  0  0  0  0  0  0  0  0  0
    1.4190   -2.5520   -2.0770 C   0  0  0  0  0  0  0  0  0  0  0  0
    5.3920   -1.3530    0.7160 C   0  0  0  0  0  0  0  0  0  0  0  0
    3.1360   -5.1960   -3.4880 N   0  0  0  0  0  0  0  0  0  0  0  0
    5.5830    0.0740    0.2220 C   0  0  0  0  0  0  0  0  0  0  0  0
    6.3470    0.9290    1.2680 C   0  0  0  0  0  0  0  0  0  0  0  0
    5.6070    0.9320    2.6380 C   0  0  0  0  0  0  0  0  0  0  0  0
    5.4400   -0.5120    3.1010 C   0  0  0  0  0  0  0  0  0  0  0  0
    4.6920   -1.3470    2.0610 C   0  0  0  0  0  0  0  0  0  0  0  0
    6.4120    1.7010    3.6170 N   0  0  0  0  0  0  0  0  0  0  0  0
    6.7470    3.0850    3.2650 C   0  0  0  0  0  0  0  0  0  0  0  0
    0.7860   -1.4270   -2.5940 C   0  0  0  0  0  0  0  0  0  0  0  0
   -0.5420   -1.4600   -3.0300 C   0  0  0  0  0  0  0  0  0  0  0  0
   -1.3010   -2.6290   -2.9320 C   0  0  0  0  0  0  0  0  0  0  0  0
   -0.6910   -3.7620   -2.3940 C   0  0  0  0  0  0  0  0  0  0  0  0
    0.6310   -3.7090   -1.9730 C   0  0  0  0  0  0  0  0  0  0  0  0
   -2.6300   -2.6760   -3.3160 O   0  0  0  0  0  0  0  0  0  0  0  0
   -3.1040   -2.1970   -4.5030 C   0  0  0  0  0  0  0  0  0  0  0  0
   -2.3320   -2.2870   -5.6760 C   0  0  0  0  0  0  0  0  0  0  0  0
   -2.8340   -1.8120   -6.8710 C   0  0  0  0  0  0  0  0  0  0  0  0
   -4.1070   -1.2540   -6.9170 C   0  0  0  0  0  0  0  0  0  0  0  0
   -4.8780   -1.1830   -5.7660 C   0  0  0  0  0  0  0  0  0  0  0  0
   -4.3910   -1.6410   -4.5480 C   0  0  0  0  0  0  0  0  0  0  0  0
    7.3990    3.6590    4.5250 C   0  0  0  0  0  0  0  0  0  0  0  0
    6.8560    3.5500    5.6270 O   0  0  0  0  0  0  0  0  0  0  0  0
    8.6230    4.2900    4.4020 N   0  0  0  0  0  0  0  0  0  0  0  0
    5.5240    3.9810    2.8560 C   0  0  0  0  0  0  0  0  0  0  0  0
    5.9680    5.3770    2.3610 C   0  0  0  0  0  0  0  0  0  0  0  0
    6.7440    5.2790    1.0340 C   0  0  0  0  0  0  0  0  0  0  0  0
    4.7510    6.2950    2.1700 C   0  0  0  0  0  0  0  0  0  0  0  0
    9.2700    4.8400    5.5900 C   0  0  0  0  0  0  0  0  0  0  0  0
    7.2628   -5.3598   -1.6658 H   0  0  0  0  0  0  0  0  0  0  0  0
    2.6397   -0.9371   -0.2219 H   0  0  0  0  0  0  0  0  0  0  0  0
    6.3665   -1.8505    0.8295 H   0  0  0  0  0  0  0  0  0  0  0  0
    2.2732   -5.6192   -3.1172 H   0  0  0  0  0  0  0  0  0  0  0  0
    3.2791   -5.1258   -4.5056 H   0  0  0  0  0  0  0  0  0  0  0  0
    6.1574    0.0558   -0.7159 H   0  0  0  0  0  0  0  0  0  0  0  0
    4.5922    0.5234    0.0595 H   0  0  0  0  0  0  0  0  0  0  0  0
    7.3555    0.5119    1.4054 H   0  0  0  0  0  0  0  0  0  0  0  0
    6.4035    1.9638    0.8992 H   0  0  0  0  0  0  0  0  0  0  0  0
    4.6160    1.4006    2.5464 H   0  0  0  0  0  0  0  0  0  0  0  0
    4.8732   -0.5226    4.0437 H   0  0  0  0  0  0  0  0  0  0  0  0
    6.4397   -0.9486    3.2424 H   0  0  0  0  0  0  0  0  0  0  0  0
    3.6823   -0.9300    1.9324 H   0  0  0  0  0  0  0  0  0  0  0  0
    4.6550   -2.3841    2.4256 H   0  0  0  0  0  0  0  0  0  0  0  0
    5.8852    1.7245    4.5018 H   0  0  0  0  0  0  0  0  0  0  0  0
    7.3920    3.0826    2.3740 H   0  0  0  0  0  0  0  0  0  0  0  0
    1.3467   -0.4831   -2.6620 H   0  0  0  0  0  0  0  0  0  0  0  0
   -0.9956   -0.5530   -3.4561 H   0  0  0  0  0  0  0  0  0  0  0  0
   -1.2586   -4.6998   -2.3030 H   0  0  0  0  0  0  0  0  0  0  0  0
    1.0809   -4.6139   -1.5386 H   0  0  0  0  0  0  0  0  0  0  0  0
   -1.3284   -2.7359   -5.6407 H   0  0  0  0  0  0  0  0  0  0  0  0
   -2.2274   -1.8748   -7.7864 H   0  0  0  0  0  0  0  0  0  0  0  0
   -4.5033   -0.8682   -7.8679 H   0  0  0  0  0  0  0  0  0  0  0  0
   -5.8910   -0.7574   -5.8184 H   0  0  0  0  0  0  0  0  0  0  0  0
   -5.0028   -1.5690   -3.6367 H   0  0  0  0  0  0  0  0  0  0  0  0
    9.0748    4.3715    3.4800 H   0  0  0  0  0  0  0  0  0  0  0  0
    4.8677    4.1063    3.7298 H   0  0  0  0  0  0  0  0  0  0  0  0
    4.9968    3.4799    2.0308 H   0  0  0  0  0  0  0  0  0  0  0  0
    6.6315    5.8023    3.1284 H   0  0  0  0  0  0  0  0  0  0  0  0
    7.8151    5.1437    1.2447 H   0  0  0  0  0  0  0  0  0  0  0  0
    6.3730    4.4206    0.4548 H   0  0  0  0  0  0  0  0  0  0  0  0
    6.5981    6.2027    0.4548 H   0  0  0  0  0  0  0  0  0  0  0  0
    4.3576    6.5917    3.1535 H   0  0  0  0  0  0  0  0  0  0  0  0
    5.0529    7.1923    1.6099 H   0  0  0  0  0  0  0  0  0  0  0  0
    3.9711    5.7582    1.6099 H   0  0  0  0  0  0  0  0  0  0  0  0
    8.7896    4.4316    6.4914 H   0  0  0  0  0  0  0  0  0  0  0  0
   10.3356    4.5670    5.5868 H   0  0  0  0  0  0  0  0  0  0  0  0
    9.1722    5.9356    5.5868 H   0  0  0  0  0  0  0  0  0  0  0  0
 29 28  1  0
 29 30  2  0
 28 27  2  0
 30 31  1  0
 27 26  1  0
 31 26  2  0
 26 25  1  0
 12  6  1  0
 25 22  1  0
 21 22  1  0
 21 20  2  0
 22 23  2  0
 20 10  1  0
  6  1  2  0
  6  5  1  0
  1  2  1  0
 23 24  1  0
 10 24  2  0
 10  9  1  0
  5  9  1  0
  5  4  2  0
  2  3  2  0
  9  8  2  0
  4  3  1  0
  4  7  1  0
  8  7  1  0
  7 11  1  0
 13 11  1  0
 13 14  1  0
 11 17  1  0
 37 36  1  0
 14 15  1  0
 17 16  1  0
 38 36  1  0
 36 35  1  0
 15 16  1  0
 15 18  1  0
 35 19  1  0
 19 18  1  0
 19 32  1  0
 34 32  1  0
 34 39  1  0
 32 33  2  0
  2 40  1  0
  8 41  1  0
 11 42  1  0
 12 43  1  0
 12 44  1  0
 13 45  1  0
 13 46  1  0
 14 47  1  0
 14 48  1  0
 15 49  1  0
 16 50  1  0
 16 51  1  0
 17 52  1  0
 17 53  1  0
 18 54  1  0
 19 55  1  0
 20 56  1  0
 21 57  1  0
 23 58  1  0
 24 59  1  0
 27 60  1  0
 28 61  1  0
 29 62  1  0
 30 63  1  0
 31 64  1  0
 34 65  1  0
 35 66  1  0
 35 67  1  0
 36 68  1  0
 37 69  1  0
 37 70  1  0
 37 71  1  0
 38 72  1  0
 38 73  1  0
 38 74  1  0
 39 75  1  0
 39 76  1  0
 39 77  1  0
A    1
N01
A    2
C01
A    3
N02
A    4
C02
A    5
C03
A    6
C04
A    7
N03
A    8
C05
A    9
C06
A   10
C07
A   11
C08
A   12
N04
A   13
C09
A   14
C10
A   15
C11
A   16
C12
A   17
C13
A   18
N05
A   19
C14
A   20
C15
A   21
C16
A   22
C17
A   23
C18
A   24
C19
A   25
O01
A   26
C20
A   27
C21
A   28
C22
A   29
C23
A   30
C24
A   31
C25
A   32
C26
A   33
O02
A   34
N06
A   35
C27
A   36
C28
A   37
C29
A   38
C30
A   39
C31
M  END
