5H13_LQA_A_503
     RDKit          3D

 55 59  0  0  0  0  0  0  0  0999 V2000
   30.6890   13.1100   10.2880 C   0  0  0  0  0  0  0  0  0  0  0  0
   28.2040   11.9430    9.8100 C   0  0  0  0  0  0  0  0  0  0  0  0
   25.6760   12.1950    9.3640 C   0  0  0  0  0  0  0  0  0  0  0  0
   29.2240    9.8770    8.9870 C   0  0  0  0  0  0  0  0  0  0  0  0
   24.4680   11.5950    9.0140 C   0  0  0  0  0  0  0  0  0  0  0  0
   24.3700   10.2450    8.7860 C   0  0  0  0  0  0  0  0  0  0  0  0
   29.8130   17.3920   13.0540 C   0  0  0  0  0  0  0  0  0  0  0  0
   25.4790    9.4000    8.9140 C   0  0  0  0  0  0  0  0  0  0  0  0
   30.3530   15.0890   12.5990 C   0  0  0  0  0  0  0  0  0  0  0  0
   30.5140   16.2270   13.4020 C   0  0  0  0  0  0  0  0  0  0  0  0
   27.9480    9.1140    9.4150 C   0  0  0  0  0  0  0  0  0  0  0  0
   22.4450   11.1610    8.3260 C   0  0  0  0  0  0  0  0  0  0  0  0
   28.9360   16.2840   11.0220 C   0  0  0  0  0  0  0  0  0  0  0  0
   29.0300   17.4250   11.8620 C   0  0  0  0  0  0  0  0  0  0  0  0
   29.1540   19.5980   14.1760 C   0  0  0  0  0  0  0  0  0  0  0  0
   32.2830   15.2160   14.9030 C   0  0  0  0  0  0  0  0  0  0  0  0
   29.3140   11.2590    9.4940 N   0  0  0  0  0  0  0  0  0  0  0  0
   30.5300   11.7910    9.6330 C   0  0  0  0  0  0  0  0  0  0  0  0
   29.5860   13.8090   10.6200 C   0  0  0  0  0  0  0  0  0  0  0  0
   28.2850   13.1800   10.3440 C   0  0  0  0  0  0  0  0  0  0  0  0
   26.8190   11.3780    9.5160 C   0  0  0  0  0  0  0  0  0  0  0  0
   29.6330   15.1150   11.3920 C   0  0  0  0  0  0  0  0  0  0  0  0
   26.7120    9.9960    9.2320 C   0  0  0  0  0  0  0  0  0  0  0  0
   32.0210   13.6250   10.4950 C   0  0  0  0  0  0  0  0  0  0  0  0
   33.0900   14.0380   10.6350 N   0  0  0  0  0  0  0  0  0  0  0  0
   31.6180   11.2300    9.2660 N   0  0  0  0  0  0  0  0  0  0  0  0
   23.2600   12.2490    8.8840 O   0  0  0  0  0  0  0  0  0  0  0  0
   23.0770    9.8530    8.4960 O   0  0  0  0  0  0  0  0  0  0  0  0
   30.0130   18.4670   13.9370 O   0  0  0  0  0  0  0  0  0  0  0  0
   31.3060   16.2260   14.5720 O   0  0  0  0  0  0  0  0  0  0  0  0
   28.0670   19.2180   15.2110 C   0  0  0  0  0  0  0  0  0  0  0  0
   30.0850   20.6610   14.8160 C   0  0  0  0  0  0  0  0  0  0  0  0
   25.7386   13.2823    9.5188 H   0  0  0  0  0  0  0  0  0  0  0  0
   30.0971    9.3189    9.3561 H   0  0  0  0  0  0  0  0  0  0  0  0
   29.1896    9.9498    7.8900 H   0  0  0  0  0  0  0  0  0  0  0  0
   25.3892    8.3130    8.7714 H   0  0  0  0  0  0  0  0  0  0  0  0
   30.8066   14.1415   12.9254 H   0  0  0  0  0  0  0  0  0  0  0  0
   27.8424    8.2097    8.7977 H   0  0  0  0  0  0  0  0  0  0  0  0
   28.0360    8.8393   10.4765 H   0  0  0  0  0  0  0  0  0  0  0  0
   22.2960   11.3453    7.2518 H   0  0  0  0  0  0  0  0  0  0  0  0
   21.4872   11.1456    8.8667 H   0  0  0  0  0  0  0  0  0  0  0  0
   28.3327   16.3112   10.1026 H   0  0  0  0  0  0  0  0  0  0  0  0
   28.4925   18.3455   11.5903 H   0  0  0  0  0  0  0  0  0  0  0  0
   28.6577   19.9447   13.2576 H   0  0  0  0  0  0  0  0  0  0  0  0
   32.3658   15.1304   15.9965 H   0  0  0  0  0  0  0  0  0  0  0  0
   31.9683   14.2496   14.4823 H   0  0  0  0  0  0  0  0  0  0  0  0
   33.2593   15.4985   14.4823 H   0  0  0  0  0  0  0  0  0  0  0  0
   27.3604   13.7284   10.5773 H   0  0  0  0  0  0  0  0  0  0  0  0
   32.5184   11.7092    9.4094 H   0  0  0  0  0  0  0  0  0  0  0  0
   28.4640   19.3568   16.2274 H   0  0  0  0  0  0  0  0  0  0  0  0
   27.1860   19.8614   15.0705 H   0  0  0  0  0  0  0  0  0  0  0  0
   27.7787   18.1658   15.0705 H   0  0  0  0  0  0  0  0  0  0  0  0
   30.0231   20.5904   15.9120 H   0  0  0  0  0  0  0  0  0  0  0  0
   31.1217   20.4815   14.4949 H   0  0  0  0  0  0  0  0  0  0  0  0
   29.7704   21.6650   14.4949 H   0  0  0  0  0  0  0  0  0  0  0  0
 12 28  1  0
 12 27  1  0
 28  6  1  0
  6  8  2  0
  6  5  1  0
 27  5  1  0
  8 23  1  0
  4 11  1  0
  4 17  1  0
  5  3  2  0
 23 11  1  0
 23 21  2  0
 26 18  2  3
  3 21  1  0
 17 18  1  0
 17  2  1  0
 21  2  1  0
 18  1  1  0
  2 20  2  0
  1 24  1  0
  1 19  2  0
 20 19  1  0
 24 25  3  0
 19 22  1  0
 13 22  2  0
 13 14  1  0
 22  9  1  0
 14  7  2  0
  9 10  2  0
  7 10  1  0
  7 29  1  0
 10 30  1  0
 29 15  1  0
 15 32  1  0
 15 31  1  0
 30 16  1  0
  3 33  1  0
  4 34  1  0
  4 35  1  0
  8 36  1  0
  9 37  1  0
 11 38  1  0
 11 39  1  0
 12 40  1  0
 12 41  1  0
 13 42  1  0
 14 43  1  0
 15 44  1  0
 16 45  1  0
 16 46  1  0
 16 47  1  0
 20 48  1  0
 26 49  1  0
 31 50  1  0
 31 51  1  0
 31 52  1  0
 32 53  1  0
 32 54  1  0
 32 55  1  0
A    1
C1
A    2
C2
A    3
C11
A    4
C12
A    5
C13
A    6
C14
A    7
C17
A    8
C18
A    9
C19
A   10
C20
A   11
C24
A   12
C25
A   13
C26
A   14
C27
A   15
C29
A   16
C30
A   17
N3
A   18
C4
A   19
C5
A   20
C6
A   21
C7
A   22
C8
A   23
C9
A   24
C10
A   25
N15
A   26
N16
A   27
O21
A   28
O22
A   29
O23
A   30
O28
A   31
C31
A   32
C32
M  END
