5H17_LQE_A_501
     RDKit          3D

 55 58  0  0  0  0  0  0  0  0999 V2000
    3.0990   13.4110   10.6240 C   0  0  0  0  0  0  0  0  0  0  0  0
    1.8020   13.2500   11.1740 C   0  0  0  0  0  0  0  0  0  0  0  0
    4.3120   13.6300   11.5540 C   0  0  0  0  0  0  0  0  0  0  0  0
    0.8840   12.9230    8.9370 C   0  0  0  0  0  0  0  0  0  0  0  0
    5.2090   13.9580   13.9480 C   0  0  0  0  0  0  0  0  0  0  0  0
    4.9350   14.1480    7.4820 C   0  0  0  0  0  0  0  0  0  0  0  0
    4.8670   14.6860   15.2840 C   0  0  0  0  0  0  0  0  0  0  0  0
    3.5930   14.0660   15.8890 C   0  0  0  0  0  0  0  0  0  0  0  0
    1.1380   14.1800   15.6170 C   0  0  0  0  0  0  0  0  0  0  0  0
    6.0830   14.8850   16.2250 C   0  0  0  0  0  0  0  0  0  0  0  0
    6.3340   16.4020   16.0790 C   0  0  0  0  0  0  0  0  0  0  0  0
    7.2080   16.8560   15.0800 C   0  0  0  0  0  0  0  0  0  0  0  0
    5.5420   17.3420   16.7750 C   0  0  0  0  0  0  0  0  0  0  0  0
    7.3950   18.2290   14.8300 C   0  0  0  0  0  0  0  0  0  0  0  0
    5.6700   18.7140   16.5040 C   0  0  0  0  0  0  0  0  0  0  0  0
    6.6180   19.1600   15.5640 C   0  0  0  0  0  0  0  0  0  0  0  0
    9.2970   17.7690   13.2140 C   0  0  0  0  0  0  0  0  0  0  0  0
    3.2920   13.3120    9.2190 C   0  0  0  0  0  0  0  0  0  0  0  0
    1.4940   13.3760   12.6760 C   0  0  0  0  0  0  0  0  0  0  0  0
    0.7020   13.0230   10.3250 C   0  0  0  0  0  0  0  0  0  0  0  0
    3.9880   14.1460   12.9880 C   0  0  0  0  0  0  0  0  0  0  0  0
    2.1730   13.0450    8.3920 C   0  0  0  0  0  0  0  0  0  0  0  0
    4.5890   13.4210    8.6750 O   0  0  0  0  0  0  0  0  0  0  0  0
    2.7150   13.5000   13.6460 C   0  0  0  0  0  0  0  0  0  0  0  0
    2.4650   14.2430   14.9370 N   0  0  0  0  0  0  0  0  0  0  0  0
    8.3370   18.6340   13.8570 O   0  0  0  0  0  0  0  0  0  0  0  0
    4.8383   12.6691   11.6529 H   0  0  0  0  0  0  0  0  0  0  0  0
    4.9093   14.4234   11.0809 H   0  0  0  0  0  0  0  0  0  0  0  0
    0.0203   12.7497    8.2782 H   0  0  0  0  0  0  0  0  0  0  0  0
    5.3786   12.8875   14.1357 H   0  0  0  0  0  0  0  0  0  0  0  0
    6.1231   14.3755   13.5007 H   0  0  0  0  0  0  0  0  0  0  0  0
    5.3926   15.1094    7.7582 H   0  0  0  0  0  0  0  0  0  0  0  0
    5.6494   13.5591    6.8880 H   0  0  0  0  0  0  0  0  0  0  0  0
    4.0275   14.3311    6.8880 H   0  0  0  0  0  0  0  0  0  0  0  0
    4.6162   15.7376   15.0811 H   0  0  0  0  0  0  0  0  0  0  0  0
    3.3551   14.5671   16.8389 H   0  0  0  0  0  0  0  0  0  0  0  0
    3.7555   12.9941   16.0750 H   0  0  0  0  0  0  0  0  0  0  0  0
    1.2840   14.1869   16.7072 H   0  0  0  0  0  0  0  0  0  0  0  0
    0.5334   15.0505   15.3225 H   0  0  0  0  0  0  0  0  0  0  0  0
    0.6186   13.2562   15.3225 H   0  0  0  0  0  0  0  0  0  0  0  0
    5.8373   14.6156   17.2628 H   0  0  0  0  0  0  0  0  0  0  0  0
    6.9523   14.2587   15.9761 H   0  0  0  0  0  0  0  0  0  0  0  0
    7.7611   16.1209   14.4769 H   0  0  0  0  0  0  0  0  0  0  0  0
    4.8221   16.9980   17.5323 H   0  0  0  0  0  0  0  0  0  0  0  0
    5.0295   19.4400   17.0262 H   0  0  0  0  0  0  0  0  0  0  0  0
    6.7568   20.2385   15.3978 H   0  0  0  0  0  0  0  0  0  0  0  0
    9.8841   17.2400   13.9791 H   0  0  0  0  0  0  0  0  0  0  0  0
    8.7680   17.0367   12.5864 H   0  0  0  0  0  0  0  0  0  0  0  0
    9.9705   18.3711   12.5864 H   0  0  0  0  0  0  0  0  0  0  0  0
    0.8702   14.2717   12.8123 H   0  0  0  0  0  0  0  0  0  0  0  0
    1.0100   12.4263   12.9478 H   0  0  0  0  0  0  0  0  0  0  0  0
   -0.3067   12.9234   10.7524 H   0  0  0  0  0  0  0  0  0  0  0  0
    3.7668   15.2146   12.8494 H   0  0  0  0  0  0  0  0  0  0  0  0
    2.3157   12.9316    7.3072 H   0  0  0  0  0  0  0  0  0  0  0  0
    2.8902   12.4402   13.8827 H   0  0  0  0  0  0  0  0  0  0  0  0
  6 23  1  0
 22  4  2  0
 22 18  1  0
 23 18  1  0
  4 20  1  0
 18  1  2  0
 20  2  2  0
  1  2  1  0
  1  3  1  0
  2 19  1  0
  3 21  1  0
 19 24  1  0
 21 24  1  0
 21  5  1  0
 17 26  1  0
 24 25  1  0
 26 14  1  0
  5  7  1  0
 14 12  2  0
 14 16  1  0
 25  9  1  0
 25  8  1  0
 12 11  1  0
  7  8  1  0
  7 10  1  0
 16 15  2  0
 11 10  1  0
 11 13  2  0
 15 13  1  0
  3 27  1  0
  3 28  1  0
  4 29  1  0
  5 30  1  0
  5 31  1  0
  6 32  1  0
  6 33  1  0
  6 34  1  0
  7 35  1  0
  8 36  1  0
  8 37  1  0
  9 38  1  0
  9 39  1  0
  9 40  1  0
 10 41  1  0
 10 42  1  0
 12 43  1  0
 13 44  1  0
 15 45  1  0
 16 46  1  0
 17 47  1  0
 17 48  1  0
 17 49  1  0
 19 50  1  0
 19 51  1  0
 20 52  1  0
 21 53  1  0
 22 54  1  0
 24 55  1  0
A    1
C1
A    2
C2
A    3
C3
A    4
C11
A    5
C12
A    6
C13
A    7
C15
A    8
C16
A    9
C17
A   10
C18
A   11
C19
A   12
C20
A   13
C21
A   14
C22
A   15
C23
A   16
C24
A   17
C26
A   18
C4
A   19
C5
A   20
C6
A   21
C7
A   22
C8
A   23
O9
A   24
C10
A   25
N14
A   26
O25
M  END
