5H19_LQF_A_501
     RDKit          3D

 49 53  0  0  0  0  0  0  0  0999 V2000
    4.8710   13.1910   11.7510 C   0  0  0  0  0  0  0  0  0  0  0  0
    5.8660   14.0060   14.3470 C   0  0  0  0  0  0  0  0  0  0  0  0
    7.8690   14.8510   13.0740 C   0  0  0  0  0  0  0  0  0  0  0  0
    4.2150   12.8160   10.4330 C   0  0  0  0  0  0  0  0  0  0  0  0
    6.8280   14.1720   10.5620 C   0  0  0  0  0  0  0  0  0  0  0  0
    6.9680   16.6330   16.1650 C   0  0  0  0  0  0  0  0  0  0  0  0
    6.1580   17.1450   17.0880 C   0  0  0  0  0  0  0  0  0  0  0  0
    6.9800   18.6610   15.7070 C   0  0  0  0  0  0  0  0  0  0  0  0
    5.9400   14.1560    9.2910 C   0  0  0  0  0  0  0  0  0  0  0  0
    6.1540   18.5710   16.7570 C   0  0  0  0  0  0  0  0  0  0  0  0
    7.3580   15.1720   16.0540 C   0  0  0  0  0  0  0  0  0  0  0  0
    4.4550   12.6560    7.9700 C   0  0  0  0  0  0  0  0  0  0  0  0
    5.4500   12.2310    6.8730 C   0  0  0  0  0  0  0  0  0  0  0  0
    5.8980   13.1610    5.9160 C   0  0  0  0  0  0  0  0  0  0  0  0
    5.9250   10.9020    6.8370 C   0  0  0  0  0  0  0  0  0  0  0  0
    6.8490   10.5100    5.8530 C   0  0  0  0  0  0  0  0  0  0  0  0
    6.8270   12.7800    4.9370 C   0  0  0  0  0  0  0  0  0  0  0  0
    7.2940   11.4550    4.9070 C   0  0  0  0  0  0  0  0  0  0  0  0
    4.6870   13.3770   14.1690 N   0  0  0  0  0  0  0  0  0  0  0  0
    4.1980   12.9390   13.0340 C   0  0  0  0  0  0  0  0  0  0  0  0
    6.5860   14.2020   13.1860 C   0  0  0  0  0  0  0  0  0  0  0  0
    6.0510   13.8370   11.8310 C   0  0  0  0  0  0  0  0  0  0  0  0
    3.0610   12.3450   13.1170 N   0  0  0  0  0  0  0  0  0  0  0  0
    2.7670   12.3840   14.5150 N   0  0  0  0  0  0  0  0  0  0  0  0
    6.2460   14.3210   15.5940 N   0  0  0  0  0  0  0  0  0  0  0  0
    3.7690   12.9910   15.0180 C   0  0  0  0  0  0  0  0  0  0  0  0
    5.1520   12.8940    9.2640 N   0  0  0  0  0  0  0  0  0  0  0  0
    8.8850   15.3750   12.9380 N   0  0  0  0  0  0  0  0  0  0  0  0
    7.5410   17.5050   15.3030 O   0  0  0  0  0  0  0  0  0  0  0  0
    3.3739   13.5018   10.2534 H   0  0  0  0  0  0  0  0  0  0  0  0
    3.8842   11.7704   10.5180 H   0  0  0  0  0  0  0  0  0  0  0  0
    7.6330   13.4328   10.4375 H   0  0  0  0  0  0  0  0  0  0  0  0
    7.2241   15.1919   10.6761 H   0  0  0  0  0  0  0  0  0  0  0  0
    5.6243   16.6261   17.8979 H   0  0  0  0  0  0  0  0  0  0  0  0
    7.1873   19.6182   15.2062 H   0  0  0  0  0  0  0  0  0  0  0  0
    6.5769   14.2119    8.3959 H   0  0  0  0  0  0  0  0  0  0  0  0
    5.2579   15.0188    9.3044 H   0  0  0  0  0  0  0  0  0  0  0  0
    5.6008   19.3807   17.2553 H   0  0  0  0  0  0  0  0  0  0  0  0
    7.6859   14.8189   17.0429 H   0  0  0  0  0  0  0  0  0  0  0  0
    8.1637   15.0984   15.3087 H   0  0  0  0  0  0  0  0  0  0  0  0
    3.9507   13.5825    7.6580 H   0  0  0  0  0  0  0  0  0  0  0  0
    3.7241   11.8461    8.1110 H   0  0  0  0  0  0  0  0  0  0  0  0
    5.5171   14.1928    5.9362 H   0  0  0  0  0  0  0  0  0  0  0  0
    5.5714   10.1721    7.5802 H   0  0  0  0  0  0  0  0  0  0  0  0
    7.2212    9.4754    5.8216 H   0  0  0  0  0  0  0  0  0  0  0  0
    7.1870   13.5120    4.1990 H   0  0  0  0  0  0  0  0  0  0  0  0
    8.0164   11.1514    4.1350 H   0  0  0  0  0  0  0  0  0  0  0  0
    5.6745   13.9055   16.3434 H   0  0  0  0  0  0  0  0  0  0  0  0
    3.8564   13.1786   16.0984 H   0  0  0  0  0  0  0  0  0  0  0  0
 18 17  1  0
 18 16  2  0
 17 14  2  0
 16 15  1  0
 14 13  1  0
 15 13  2  0
 13 12  1  0
 12 27  1  0
 27  9  1  0
 27  4  1  0
  9  5  1  0
  4  1  1  0
  5 22  1  0
  1 22  2  0
  1 20  1  0
 22 21  1  0
 28  3  3  0
 20 23  2  0
 20 19  1  0
  3 21  1  0
 23 24  1  0
 21  2  2  0
 19  2  1  0
 19 26  1  0
  2 25  1  0
 24 26  2  0
 29  8  1  0
 29  6  1  0
 25 11  1  0
  8 10  2  0
 11  6  1  0
  6  7  2  0
 10  7  1  0
  4 30  1  0
  4 31  1  0
  5 32  1  0
  5 33  1  0
  7 34  1  0
  8 35  1  0
  9 36  1  0
  9 37  1  0
 10 38  1  0
 11 39  1  0
 11 40  1  0
 12 41  1  0
 12 42  1  0
 14 43  1  0
 15 44  1  0
 16 45  1  0
 17 46  1  0
 18 47  1  0
 25 48  1  0
 26 49  1  0
A    1
C2
A    2
C3
A    3
C11
A    4
C13
A    5
C15
A    6
C16
A    7
C18
A    8
C19
A    9
C20
A   10
C21
A   11
C22
A   12
C23
A   13
C24
A   14
C25
A   15
C26
A   16
C27
A   17
C28
A   18
C29
A   19
N1
A   20
C4
A   21
C5
A   22
C6
A   23
N7
A   24
N8
A   25
N9
A   26
C10
A   27
N12
A   28
N14
A   29
O17
M  END
