5H2Z_7GF_A_407
     RDKit          3D

 33 34  0  0  0  0  0  0  0  0999 V2000
  -11.2990   32.9830   -3.6400 C   0  0  0  0  0  0  0  0  0  0  0  0
  -10.7430   33.9690   -3.2390 N   0  0  0  0  0  0  0  0  0  0  0  0
  -12.7810   32.1870   -5.2110 C   0  0  0  0  0  0  0  0  0  0  0  0
  -11.9090   31.9190   -4.0690 C   0  0  0  0  0  0  0  0  0  0  0  0
  -13.3300   31.2520   -5.7800 O   0  0  0  0  0  0  0  0  0  0  0  0
  -12.7640   33.4520   -5.6910 O   0  0  0  0  0  0  0  0  0  0  0  0
  -13.6930   33.7060   -6.8050 C   0  0  0  0  0  0  0  0  0  0  0  0
  -11.9290   30.7340   -3.5000 C   0  0  0  0  0  0  0  0  0  0  0  0
  -11.1750   30.3350   -2.4620 N   0  0  0  0  0  0  0  0  0  0  0  0
  -11.3580   29.0590   -2.0310 C   0  0  0  0  0  0  0  0  0  0  0  0
  -12.5260   28.2960   -2.7280 C   0  0  0  0  0  0  0  0  0  0  0  0
  -12.8760   29.3360   -4.0440 S   0  0  0  0  0  0  0  0  0  0  0  0
  -10.0890   31.0200   -1.8180 C   0  0  0  0  0  0  0  0  0  0  0  0
  -10.1310   31.3300   -0.4560 C   0  0  0  0  0  0  0  0  0  0  0  0
   -9.0290   31.9350    0.2110 C   0  0  0  0  0  0  0  0  0  0  0  0
   -7.9640   32.1330   -0.5900 C   0  0  0  0  0  0  0  0  0  0  0  0
   -7.7770   31.8490   -1.8640 C   0  0  0  0  0  0  0  0  0  0  0  0
   -8.8830   31.2430   -2.5270 C   0  0  0  0  0  0  0  0  0  0  0  0
   -6.3480   32.7500    0.3490 Br  0  0  0  0  0  0  0  0  0  0  0  0
  -10.6180   28.5060   -1.1060 O   0  0  0  0  0  0  0  0  0  0  0  0
  -10.4999   32.3570   -3.2162 H   0  0  0  0  0  0  0  0  0  0  0  0
  -11.6308   33.5332   -4.5329 H   0  0  0  0  0  0  0  0  0  0  0  0
  -10.7433   33.9684   -2.2090 H   0  0  0  0  0  0  0  0  0  0  0  0
   -9.7719   33.9790   -3.5820 H   0  0  0  0  0  0  0  0  0  0  0  0
  -14.6811   33.9762   -6.4041 H   0  0  0  0  0  0  0  0  0  0  0  0
  -13.3091   34.5321   -7.4215 H   0  0  0  0  0  0  0  0  0  0  0  0
  -13.7828   32.7994   -7.4215 H   0  0  0  0  0  0  0  0  0  0  0  0
  -13.3924   28.1894   -2.0586 H   0  0  0  0  0  0  0  0  0  0  0  0
  -12.2757   27.2666   -3.0241 H   0  0  0  0  0  0  0  0  0  0  0  0
  -11.0415   31.0999    0.1167 H   0  0  0  0  0  0  0  0  0  0  0  0
   -9.0452   32.2134    1.2751 H   0  0  0  0  0  0  0  0  0  0  0  0
   -6.8302   32.0655   -2.3805 H   0  0  0  0  0  0  0  0  0  0  0  0
   -8.8008   30.9498   -3.5840 H   0  0  0  0  0  0  0  0  0  0  0  0
  7  6  1  0
  5  3  2  0
  6  3  1  0
  3  4  1  0
  4  1  1  0
  4  8  2  0
 12  8  1  0
 12 11  1  0
  1  2  1  0
  8  9  1  0
 11 10  1  0
 14 15  2  0
 14 13  1  0
  9 10  1  0
  9 13  1  0
 10 20  2  0
 15 16  1  0
 13 18  2  0
 16 17  2  0
 16 19  1  0
 18 17  1  0
  1 21  1  0
  1 22  1  0
  2 23  1  0
  2 24  1  0
  7 25  1  0
  7 26  1  0
  7 27  1  0
 11 28  1  0
 11 29  1  0
 14 30  1  0
 15 31  1  0
 17 32  1  0
 18 33  1  0
A    1
C2
A    2
N3
A    3
C4
A    4
C1
A    5
O5
A    6
O6
A    7
C7
A    8
C8
A    9
N9
A   10
C10
A   11
C11
A   12
S12
A   13
C13
A   14
C14
A   15
C15
A   16
C16
A   17
C17
A   18
C18
A   19
BR
A   20
O20
M  END
