5H4J_FKM_A_201
     RDKit          3D

 60 62  0  0  0  0  0  0  0  0999 V2000
    4.6070    3.9200   27.0360 O   0  0  0  0  0  0  0  0  0  0  0  0
    4.9940    3.8410   25.6590 S   0  0  0  0  0  0  0  0  0  0  0  0
    4.3160    4.7280   24.7460 O   0  0  0  0  0  0  0  0  0  0  0  0
    6.6560    4.2880   25.7110 C   0  0  0  0  0  0  0  0  0  0  0  0
    7.5220    3.2950   26.5630 C   0  0  0  0  0  0  0  0  0  0  0  0
    9.0110    3.4910   26.2620 C   0  0  0  0  0  0  0  0  0  0  0  0
    9.4200    4.8490   26.5000 O   0  0  0  0  0  0  0  0  0  0  0  0
   10.7460    5.1100   26.1800 C   0  0  0  0  0  0  0  0  0  0  0  0
   10.8460    5.1910   24.7000 N   0  0  0  0  0  0  0  0  0  0  0  0
   11.5740    4.1950   24.0320 C   0  0  0  0  0  0  0  0  0  0  0  0
   12.1340    3.2710   24.6790 O   0  0  0  0  0  0  0  0  0  0  0  0
   11.7160    4.2580   22.7050 N   0  0  0  0  0  0  0  0  0  0  0  0
   10.2920    6.2060   23.9850 C   0  0  0  0  0  0  0  0  0  0  0  0
   10.4140    6.2640   22.6020 C   0  0  0  0  0  0  0  0  0  0  0  0
   11.1260    5.2400   21.9600 C   0  0  0  0  0  0  0  0  0  0  0  0
   11.2130    5.2110   20.7570 O   0  0  0  0  0  0  0  0  0  0  0  0
    4.8280    2.3770   25.0960 N   0  0  0  0  0  0  0  0  0  0  0  0
    4.8870    1.9950   23.6770 C   0  0  0  0  0  0  0  0  0  0  0  0
    4.1780    0.6760   23.4310 C   0  0  0  0  0  0  0  0  0  0  0  0
    6.3050    1.9860   23.2020 C   0  0  0  0  0  0  0  0  0  0  0  0
    6.7690    2.9590   22.3010 C   0  0  0  0  0  0  0  0  0  0  0  0
    8.0910    2.9440   21.9050 C   0  0  0  0  0  0  0  0  0  0  0  0
    9.0470    2.0570   22.4090 C   0  0  0  0  0  0  0  0  0  0  0  0
    8.5950    1.0610   23.2920 C   0  0  0  0  0  0  0  0  0  0  0  0
    7.2490    1.0400   23.6900 C   0  0  0  0  0  0  0  0  0  0  0  0
    9.5250    0.1680   23.7600 O   0  0  0  0  0  0  0  0  0  0  0  0
    9.1230   -0.8810   24.6410 C   0  0  0  0  0  0  0  0  0  0  0  0
   10.2410   -1.9170   24.6580 C   0  0  0  0  0  0  0  0  0  0  0  0
   10.3660   -2.3940   26.0940 C   0  0  0  0  0  0  0  0  0  0  0  0
    9.7750   -1.3260   27.0160 C   0  0  0  0  0  0  0  0  0  0  0  0
    9.0540   -0.3700   26.0780 C   0  0  0  0  0  0  0  0  0  0  0  0
    7.0484    4.3052   24.6835 H   0  0  0  0  0  0  0  0  0  0  0  0
    6.7199    5.2778   26.1866 H   0  0  0  0  0  0  0  0  0  0  0  0
    7.3408    3.4814   27.6318 H   0  0  0  0  0  0  0  0  0  0  0  0
    7.2388    2.2637   26.3056 H   0  0  0  0  0  0  0  0  0  0  0  0
    9.1991    3.2401   25.2076 H   0  0  0  0  0  0  0  0  0  0  0  0
    9.5885    2.8336   26.9286 H   0  0  0  0  0  0  0  0  0  0  0  0
   11.3884    4.2997   26.5551 H   0  0  0  0  0  0  0  0  0  0  0  0
   11.0750    6.0532   26.6405 H   0  0  0  0  0  0  0  0  0  0  0  0
   12.2873    3.5451   22.2293 H   0  0  0  0  0  0  0  0  0  0  0  0
    9.7366    6.9963   24.5113 H   0  0  0  0  0  0  0  0  0  0  0  0
    9.9657    7.0882   22.0278 H   0  0  0  0  0  0  0  0  0  0  0  0
    3.9038    2.0624   25.4243 H   0  0  0  0  0  0  0  0  0  0  0  0
    4.3476    2.7479   23.0835 H   0  0  0  0  0  0  0  0  0  0  0  0
    3.9271    0.2092   24.3949 H   0  0  0  0  0  0  0  0  0  0  0  0
    3.2554    0.8566   22.8599 H   0  0  0  0  0  0  0  0  0  0  0  0
    4.8376    0.0061   22.8599 H   0  0  0  0  0  0  0  0  0  0  0  0
    6.0835    3.7273   21.9139 H   0  0  0  0  0  0  0  0  0  0  0  0
    8.4119    3.6739   21.1472 H   0  0  0  0  0  0  0  0  0  0  0  0
   10.1073    2.1352   22.1267 H   0  0  0  0  0  0  0  0  0  0  0  0
    6.9143    0.2695   24.4001 H   0  0  0  0  0  0  0  0  0  0  0  0
    8.1511   -1.2716   24.3050 H   0  0  0  0  0  0  0  0  0  0  0  0
    9.9877   -2.7601   23.9984 H   0  0  0  0  0  0  0  0  0  0  0  0
   11.1872   -1.4866   24.2984 H   0  0  0  0  0  0  0  0  0  0  0  0
    9.8158   -3.3382   26.2201 H   0  0  0  0  0  0  0  0  0  0  0  0
   11.4241   -2.5622   26.3434 H   0  0  0  0  0  0  0  0  0  0  0  0
   10.5713   -0.8038   27.5667 H   0  0  0  0  0  0  0  0  0  0  0  0
    9.1033   -1.7536   27.7749 H   0  0  0  0  0  0  0  0  0  0  0  0
    9.5298    0.6202   26.1338 H   0  0  0  0  0  0  0  0  0  0  0  0
    7.9990   -0.3001   26.3816 H   0  0  0  0  0  0  0  0  0  0  0  0
 16 15  2  0
 22 21  2  0
 22 23  1  0
 15 14  1  0
 15 12  1  0
 21 20  1  0
 23 24  2  0
 14 13  2  0
 12 10  1  0
 20 18  1  0
 20 25  2  0
 24 25  1  0
 24 26  1  0
 19 18  1  0
 18 17  1  0
 26 27  1  0
 13  9  1  0
 10 11  2  0
 10  9  1  0
 27 28  1  0
 27 31  1  0
 28 29  1  0
  9  8  1  0
  3  2  2  0
 17  2  1  0
  2  4  1  0
  2  1  2  0
  4  5  1  0
 31 30  1  0
 29 30  1  0
  8  7  1  0
  6  7  1  0
  6  5  1  0
  4 32  1  0
  4 33  1  0
  5 34  1  0
  5 35  1  0
  6 36  1  0
  6 37  1  0
  8 38  1  0
  8 39  1  0
 12 40  1  0
 13 41  1  0
 14 42  1  0
 17 43  1  0
 18 44  1  0
 19 45  1  0
 19 46  1  0
 19 47  1  0
 21 48  1  0
 22 49  1  0
 23 50  1  0
 25 51  1  0
 27 52  1  0
 28 53  1  0
 28 54  1  0
 29 55  1  0
 29 56  1  0
 30 57  1  0
 30 58  1  0
 31 59  1  0
 31 60  1  0
A    1
O16
A    2
S14
A    3
O15
A    4
C13
A    5
C12
A    6
C11
A    7
O10
A    8
C9
A    9
N4
A   10
C3
A   11
O8
A   12
N2
A   13
C5
A   14
C6
A   15
C1
A   16
O7
A   17
N17
A   18
C18
A   19
C19
A   20
C20
A   21
C25
A   22
C24
A   23
C23
A   24
C22
A   25
C21
A   26
O26
A   27
C27
A   28
C31
A   29
C30
A   30
C29
A   31
C28
M  END
