5H7O_7Q7_B_504
     RDKit          3D

 50 54  0  0  0  0  0  0  0  0999 V2000
  -12.8280   66.9620  -41.0150 C   0  0  0  0  0  0  0  0  0  0  0  0
  -13.7120   66.1200  -40.2580 O   0  0  0  0  0  0  0  0  0  0  0  0
  -14.9500   66.6550  -40.1070 C   0  0  0  0  0  0  0  0  0  0  0  0
  -15.7650   66.9900  -41.1860 C   0  0  0  0  0  0  0  0  0  0  0  0
  -15.3940   66.8670  -38.8080 C   0  0  0  0  0  0  0  0  0  0  0  0
  -14.5890   66.5270  -37.7640 O   0  0  0  0  0  0  0  0  0  0  0  0
  -14.9190   65.2100  -37.3100 C   0  0  0  0  0  0  0  0  0  0  0  0
  -16.6540   67.4000  -38.5590 C   0  0  0  0  0  0  0  0  0  0  0  0
  -16.9940   67.5760  -37.2440 O   0  0  0  0  0  0  0  0  0  0  0  0
  -18.2960   67.2130  -36.8380 C   0  0  0  0  0  0  0  0  0  0  0  0
  -17.4690   67.7420  -39.6410 C   0  0  0  0  0  0  0  0  0  0  0  0
  -17.0410   67.5390  -40.9650 C   0  0  0  0  0  0  0  0  0  0  0  0
  -17.9020   67.9020  -42.0100 C   0  0  0  0  0  0  0  0  0  0  0  0
  -18.7090   68.9550  -41.7930 N   0  0  0  0  0  0  0  0  0  0  0  0
  -19.6130   69.3910  -42.7670 C   0  0  0  0  0  0  0  0  0  0  0  0
  -19.6400   68.7070  -43.9710 C   0  0  0  0  0  0  0  0  0  0  0  0
  -18.8200   67.6670  -44.1560 C   0  0  0  0  0  0  0  0  0  0  0  0
  -18.6770   66.8700  -45.2110 N   0  0  0  0  0  0  0  0  0  0  0  0
  -17.9660   67.2600  -43.1940 C   0  0  0  0  0  0  0  0  0  0  0  0
  -17.2990   66.2150  -43.6820 N   0  0  0  0  0  0  0  0  0  0  0  0
  -17.7270   65.9830  -44.9180 C   0  0  0  0  0  0  0  0  0  0  0  0
  -17.2750   64.9870  -45.7030 C   0  0  0  0  0  0  0  0  0  0  0  0
  -17.1900   65.0810  -47.0620 C   0  0  0  0  0  0  0  0  0  0  0  0
  -17.4770   66.0450  -47.9540 C   0  0  0  0  0  0  0  0  0  0  0  0
  -17.2050   65.6190  -49.1810 C   0  0  0  0  0  0  0  0  0  0  0  0
  -16.7450   64.3800  -49.0780 N   0  0  0  0  0  0  0  0  0  0  0  0
  -16.7300   64.0430  -47.7880 C   0  0  0  0  0  0  0  0  0  0  0  0
  -16.3470   62.9000  -47.2100 C   0  0  0  0  0  0  0  0  0  0  0  0
  -16.4080   62.7320  -45.8310 C   0  0  0  0  0  0  0  0  0  0  0  0
  -16.8790   63.7910  -45.0700 C   0  0  0  0  0  0  0  0  0  0  0  0
  -12.2066   67.5539  -40.3268 H   0  0  0  0  0  0  0  0  0  0  0  0
  -12.1808   66.3381  -41.6489 H   0  0  0  0  0  0  0  0  0  0  0  0
  -13.4197   67.6388  -41.6489 H   0  0  0  0  0  0  0  0  0  0  0  0
  -15.4096   66.8247  -42.2138 H   0  0  0  0  0  0  0  0  0  0  0  0
  -14.9236   65.1917  -36.2102 H   0  0  0  0  0  0  0  0  0  0  0  0
  -15.9147   64.9315  -37.6855 H   0  0  0  0  0  0  0  0  0  0  0  0
  -14.1723   64.4949  -37.6855 H   0  0  0  0  0  0  0  0  0  0  0  0
  -18.3469   67.1988  -35.7393 H   0  0  0  0  0  0  0  0  0  0  0  0
  -19.0192   67.9438  -37.2291 H   0  0  0  0  0  0  0  0  0  0  0  0
  -18.5368   66.2135  -37.2291 H   0  0  0  0  0  0  0  0  0  0  0  0
  -18.4618   68.1772  -39.4541 H   0  0  0  0  0  0  0  0  0  0  0  0
  -20.2790   70.2469  -42.5833 H   0  0  0  0  0  0  0  0  0  0  0  0
  -20.3307   69.0169  -44.7690 H   0  0  0  0  0  0  0  0  0  0  0  0
  -19.2045   66.9279  -46.0937 H   0  0  0  0  0  0  0  0  0  0  0  0
  -17.8775   67.0385  -47.7041 H   0  0  0  0  0  0  0  0  0  0  0  0
  -17.3370   66.1892  -50.1124 H   0  0  0  0  0  0  0  0  0  0  0  0
  -16.4495   63.7798  -49.8612 H   0  0  0  0  0  0  0  0  0  0  0  0
  -15.9763   62.0762  -47.8376 H   0  0  0  0  0  0  0  0  0  0  0  0
  -16.0928   61.7896  -45.3592 H   0  0  0  0  0  0  0  0  0  0  0  0
  -16.9435   63.6984  -43.9758 H   0  0  0  0  0  0  0  0  0  0  0  0
 25 26  1  0
 25 24  2  0
 26 27  1  0
 24 23  1  0
 27 28  1  0
 27 23  2  0
 28 29  2  0
 23 22  1  0
 29 30  1  0
 22 30  2  0
 22 21  1  0
 18 21  1  0
 18 17  1  0
 21 20  2  0
 17 16  2  0
 17 19  1  0
 16 15  1  0
 20 19  1  0
 19 13  2  0
 15 14  2  0
 13 14  1  0
 13 12  1  0
  4 12  1  0
  4  3  2  0
  1  2  1  0
 12 11  2  0
  2  3  1  0
  3  5  1  0
 11  8  1  0
  5  8  2  0
  5  6  1  0
  8  9  1  0
  6  7  1  0
  9 10  1  0
  1 31  1  0
  1 32  1  0
  1 33  1  0
  4 34  1  0
  7 35  1  0
  7 36  1  0
  7 37  1  0
 10 38  1  0
 10 39  1  0
 10 40  1  0
 11 41  1  0
 15 42  1  0
 16 43  1  0
 18 44  1  0
 24 45  1  0
 25 46  1  0
 26 47  1  0
 28 48  1  0
 29 49  1  0
 30 50  1  0
A    1
CAZ
A    2
OAY
A    3
CAB
A    4
CAA
A    5
CAC
A    6
OBA
A    7
CBB
A    8
CAD
A    9
OBC
A   10
CBD
A   11
CAE
A   12
CAF
A   13
CAG
A   14
NAH
A   15
CAI
A   16
CAJ
A   17
CAK
A   18
NAM
A   19
CAL
A   20
NAO
A   21
CAN
A   22
CAP
A   23
CAU
A   24
CAX
A   25
CAW
A   26
NAV
A   27
CAT
A   28
CAS
A   29
CAR
A   30
CAQ
M  END
