5H85_5XS_A_1201
     RDKit          3D

 33 35  0  0  0  0  0  0  0  0999 V2000
  -15.6670   -9.4480   23.4910 C   0  0  0  0  0  0  0  0  0  0  0  0
  -14.8690  -10.1680   24.4920 N   0  0  0  0  0  0  0  0  0  0  0  0
  -13.7360   -9.5700   25.2450 C   0  0  0  0  0  0  0  0  0  0  0  0
  -12.4550   -9.3560   27.1580 C   0  0  0  0  0  0  0  0  0  0  0  0
  -11.6730   -8.2770   25.1980 C   0  0  0  0  0  0  0  0  0  0  0  0
  -12.7560   -8.7710   24.5160 C   0  0  0  0  0  0  0  0  0  0  0  0
  -17.6070   -9.6770   21.8830 C   0  0  0  0  0  0  0  0  0  0  0  0
  -20.3000   -7.8630   19.1440 C   0  0  0  0  0  0  0  0  0  0  0  0
  -19.4680   -8.3380   20.2000 O   0  0  0  0  0  0  0  0  0  0  0  0
  -19.4730   -9.7860   20.2760 C   0  0  0  0  0  0  0  0  0  0  0  0
  -20.2620  -10.4310   19.6310 O   0  0  0  0  0  0  0  0  0  0  0  0
  -18.4880  -10.4640   21.1770 C   0  0  0  0  0  0  0  0  0  0  0  0
  -18.4780  -11.8480   21.3080 C   0  0  0  0  0  0  0  0  0  0  0  0
  -17.5560  -12.4560   22.1490 C   0  0  0  0  0  0  0  0  0  0  0  0
  -16.6660  -11.6740   22.8500 C   0  0  0  0  0  0  0  0  0  0  0  0
  -16.7000  -10.2810   22.7370 C   0  0  0  0  0  0  0  0  0  0  0  0
  -15.4980   -8.3060   23.2650 O   0  0  0  0  0  0  0  0  0  0  0  0
  -13.5280   -9.8520   26.5380 N   0  0  0  0  0  0  0  0  0  0  0  0
  -11.5410   -8.5850   26.5260 N   0  0  0  0  0  0  0  0  0  0  0  0
  -10.9400   -7.5580   24.3200 N   0  0  0  0  0  0  0  0  0  0  0  0
  -11.5330   -7.5950   23.1430 C   0  0  0  0  0  0  0  0  0  0  0  0
  -12.6460   -8.3310   23.2470 N   0  0  0  0  0  0  0  0  0  0  0  0
  -15.1102  -11.1507   24.6845 H   0  0  0  0  0  0  0  0  0  0  0  0
  -12.3084   -9.5831   28.2243 H   0  0  0  0  0  0  0  0  0  0  0  0
  -17.6232   -8.5829   21.7703 H   0  0  0  0  0  0  0  0  0  0  0  0
  -21.1810   -7.3600   19.5693 H   0  0  0  0  0  0  0  0  0  0  0  0
  -19.7351   -7.1513   18.5240 H   0  0  0  0  0  0  0  0  0  0  0  0
  -20.6257   -8.7112   18.5240 H   0  0  0  0  0  0  0  0  0  0  0  0
  -19.1992  -12.4600   20.7464 H   0  0  0  0  0  0  0  0  0  0  0  0
  -17.5368  -13.5508   22.2541 H   0  0  0  0  0  0  0  0  0  0  0  0
  -15.9212  -12.1496   23.5051 H   0  0  0  0  0  0  0  0  0  0  0  0
  -11.1728   -7.1027   22.2276 H   0  0  0  0  0  0  0  0  0  0  0  0
  -13.3087   -8.5284   22.4836 H   0  0  0  0  0  0  0  0  0  0  0  0
  8  9  1  0
 11 10  2  0
  9 10  1  0
 10 12  1  0
 12 13  1  0
 12  7  2  0
 13 14  2  0
  7 16  1  0
 14 15  1  0
 16 15  2  0
 16  1  1  0
 21 22  1  0
 21 20  2  0
 22  6  1  0
 17  1  2  0
  1  2  1  0
 20  5  1  0
  2  3  1  0
  6  5  2  0
  6  3  1  0
  5 19  1  0
  3 18  2  0
 19  4  2  0
 18  4  1  0
  2 23  1  0
  4 24  1  0
  7 25  1  0
  8 26  1  0
  8 27  1  0
  8 28  1  0
 13 29  1  0
 14 30  1  0
 15 31  1  0
 21 32  1  0
 22 33  1  0
A    1
C10
A    2
N12
A    3
C13
A    4
C15
A    5
C17
A    6
C21
A    7
C22
A    8
C01
A    9
O02
A   10
C03
A   11
O04
A   12
C05
A   13
C06
A   14
C07
A   15
C08
A   16
C09
A   17
O11
A   18
N14
A   19
N16
A   20
N18
A   21
C19
A   22
N20
M  END
