5H8X_5XT_A_305
     RDKit          3D

 39 41  0  0  0  0  0  0  0  0999 V2000
  -10.6220   -7.3080   17.0410 C   0  0  0  0  0  0  0  0  0  0  0  0
   -9.6280   -7.1300   16.0740 C   0  0  0  0  0  0  0  0  0  0  0  0
   -9.6890   -6.1250   15.0740 O   0  0  0  0  0  0  0  0  0  0  0  0
   -8.5260   -7.9630   16.0460 C   0  0  0  0  0  0  0  0  0  0  0  0
   -7.5250   -7.7440   15.0530 O   0  0  0  0  0  0  0  0  0  0  0  0
   -8.4210   -8.9810   17.0050 C   0  0  0  0  0  0  0  0  0  0  0  0
   -9.4060   -9.1480   17.9810 C   0  0  0  0  0  0  0  0  0  0  0  0
  -10.5050   -8.3210   18.0000 C   0  0  0  0  0  0  0  0  0  0  0  0
  -11.5380   -8.4820   18.9960 N   0  0  0  0  0  0  0  0  0  0  0  0
  -11.1960   -8.2000   20.6070 S   0  0  0  0  0  0  0  0  0  0  0  0
  -10.1960   -7.0750   20.7500 O   0  0  0  0  0  0  0  0  0  0  0  0
  -12.4410   -7.7950   21.3450 O   0  0  0  0  0  0  0  0  0  0  0  0
  -10.5350   -9.7310   21.3180 C   0  0  0  0  0  0  0  0  0  0  0  0
  -11.2770  -10.9050   21.2300 C   0  0  0  0  0  0  0  0  0  0  0  0
  -10.7870  -12.0960   21.7760 C   0  0  0  0  0  0  0  0  0  0  0  0
   -9.2990   -9.7530   21.9540 C   0  0  0  0  0  0  0  0  0  0  0  0
   -8.8070  -10.9510   22.5030 C   0  0  0  0  0  0  0  0  0  0  0  0
   -9.5450  -12.1270   22.4020 C   0  0  0  0  0  0  0  0  0  0  0  0
   -9.0360  -13.4480   23.0250 C   0  0  0  0  0  0  0  0  0  0  0  0
   -9.9350  -14.4900   23.3080 C   0  0  0  0  0  0  0  0  0  0  0  0
   -9.5230  -15.6870   23.9120 C   0  0  0  0  0  0  0  0  0  0  0  0
   -8.1780  -15.8610   24.2130 C   0  0  0  0  0  0  0  0  0  0  0  0
   -7.2730  -14.8280   23.9310 C   0  0  0  0  0  0  0  0  0  0  0  0
   -7.6960  -13.6280   23.3470 C   0  0  0  0  0  0  0  0  0  0  0  0
  -11.5017   -6.6477   17.0483 H   0  0  0  0  0  0  0  0  0  0  0  0
   -9.7469   -5.1714   15.3335 H   0  0  0  0  0  0  0  0  0  0  0  0
   -6.5949   -7.5405   15.3242 H   0  0  0  0  0  0  0  0  0  0  0  0
   -7.5526   -9.6559   16.9883 H   0  0  0  0  0  0  0  0  0  0  0  0
   -9.3028   -9.9418   18.7354 H   0  0  0  0  0  0  0  0  0  0  0  0
  -12.4855   -8.7706   18.7134 H   0  0  0  0  0  0  0  0  0  0  0  0
  -12.2555  -10.8964   20.7276 H   0  0  0  0  0  0  0  0  0  0  0  0
  -11.3881  -13.0148   21.7099 H   0  0  0  0  0  0  0  0  0  0  0  0
   -8.7040   -8.8308   22.0281 H   0  0  0  0  0  0  0  0  0  0  0  0
   -7.8335  -10.9586   23.0151 H   0  0  0  0  0  0  0  0  0  0  0  0
  -10.9961  -14.3630   23.0475 H   0  0  0  0  0  0  0  0  0  0  0  0
  -10.2537  -16.4759   24.1438 H   0  0  0  0  0  0  0  0  0  0  0  0
   -7.8269  -16.7991   24.6677 H   0  0  0  0  0  0  0  0  0  0  0  0
   -6.2086  -14.9632   24.1736 H   0  0  0  0  0  0  0  0  0  0  0  0
   -6.9686  -12.8284   23.1432 H   0  0  0  0  0  0  0  0  0  0  0  0
  5  4  1  0
  3  2  1  0
  4  2  1  0
  4  6  2  0
  2  1  2  0
  6  7  1  0
  1  8  1  0
  7  8  2  0
  8  9  1  0
  9 10  1  0
 11 10  2  0
 10 13  1  0
 10 12  2  0
 14 13  2  0
 14 15  1  0
 13 16  1  0
 15 18  2  0
 16 17  2  0
 18 17  1  0
 18 19  1  0
 19 24  1  0
 19 20  2  0
 24 23  2  0
 20 21  1  0
 23 22  1  0
 21 22  2  0
  1 25  1  0
  3 26  1  0
  5 27  1  0
  6 28  1  0
  7 29  1  0
  9 30  1  0
 14 31  1  0
 15 32  1  0
 16 33  1  0
 17 34  1  0
 20 35  1  0
 21 36  1  0
 22 37  1  0
 23 38  1  0
 24 39  1  0
A    1
CAG
A    2
CAW
A    3
OAD
A    4
CAR
A    5
OAA
A    6
CAE
A    7
CAF
A    8
CAS
A    9
NAQ
A   10
SAX
A   11
OAB
A   12
OAC
A   13
CAV
A   14
CAP
A   15
CAN
A   16
CAO
A   17
CAM
A   18
CAU
A   19
CAT
A   20
CAK
A   21
CAI
A   22
CAH
A   23
CAJ
A   24
CAL
M  END
