5HA1_RNE_A_201
     RDKit          3D

 52 52  0  0  0  0  0  0  0  0999 V2000
   -1.5940   -1.5710    4.2440 N   0  0  0  0  0  0  0  0  0  0  0  0
   -1.8450   -0.3290    5.0500 C   0  0  0  0  0  0  0  0  0  0  0  0
   -1.3160   -0.6320    6.4630 C   0  0  0  0  0  0  0  0  0  0  0  0
   -0.4530    0.0690    7.2200 C   0  0  0  0  0  0  0  0  0  0  0  0
   -0.0770   -0.6490    8.5350 C   0  0  0  0  0  0  0  0  0  0  0  0
    1.1170   -0.4290    9.1560 C   0  0  0  0  0  0  0  0  0  0  0  0
    1.4340   -1.3080   10.3650 C   0  0  0  0  0  0  0  0  0  0  0  0
    2.5370   -1.1770   11.1360 C   0  0  0  0  0  0  0  0  0  0  0  0
    2.6450   -2.1980   12.2590 C   0  0  0  0  0  0  0  0  0  0  0  0
    3.6720   -2.1920   13.1250 C   0  0  0  0  0  0  0  0  0  0  0  0
    3.7690   -3.1930   14.3210 C   0  0  0  0  0  0  0  0  0  0  0  0
    4.5160   -2.8110   15.3630 C   0  0  0  0  0  0  0  0  0  0  0  0
    4.6360   -3.5930   16.6770 C   0  0  0  0  0  0  0  0  0  0  0  0
    3.6390   -4.7410   16.7250 C   0  0  0  0  0  0  0  0  0  0  0  0
    3.5040   -5.4430   15.4190 C   0  0  0  0  0  0  0  0  0  0  0  0
    2.9760   -4.5260   14.3440 C   0  0  0  0  0  0  0  0  0  0  0  0
    3.1080   -5.3060   13.0420 C   0  0  0  0  0  0  0  0  0  0  0  0
    1.4880   -4.2930   14.6100 C   0  0  0  0  0  0  0  0  0  0  0  0
    5.3300   -1.5290   15.3380 C   0  0  0  0  0  0  0  0  0  0  0  0
    3.5410   -0.0450   10.9930 C   0  0  0  0  0  0  0  0  0  0  0  0
    0.2510    1.3660    6.8100 C   0  0  0  0  0  0  0  0  0  0  0  0
   -1.4334   -2.3658    4.8791 H   0  0  0  0  0  0  0  0  0  0  0  0
   -2.4126   -1.7661    3.6500 H   0  0  0  0  0  0  0  0  0  0  0  0
   -1.3065    0.5256    4.6145 H   0  0  0  0  0  0  0  0  0  0  0  0
   -2.9128   -0.0653    5.0654 H   0  0  0  0  0  0  0  0  0  0  0  0
   -1.6993   -1.5561    6.9204 H   0  0  0  0  0  0  0  0  0  0  0  0
   -0.7910   -1.3562    8.9822 H   0  0  0  0  0  0  0  0  0  0  0  0
    1.8172    0.3429    8.8040 H   0  0  0  0  0  0  0  0  0  0  0  0
    0.7169   -2.1004   10.6255 H   0  0  0  0  0  0  0  0  0  0  0  0
    1.8607   -2.9620   12.3646 H   0  0  0  0  0  0  0  0  0  0  0  0
    4.4758   -1.4539   12.9868 H   0  0  0  0  0  0  0  0  0  0  0  0
    5.6550   -3.9985   16.7618 H   0  0  0  0  0  0  0  0  0  0  0  0
    4.4211   -2.9089   17.5112 H   0  0  0  0  0  0  0  0  0  0  0  0
    2.6555   -4.3406   17.0121 H   0  0  0  0  0  0  0  0  0  0  0  0
    4.0113   -5.4726   17.4573 H   0  0  0  0  0  0  0  0  0  0  0  0
    2.8103   -6.2882   15.5388 H   0  0  0  0  0  0  0  0  0  0  0  0
    4.5013   -5.7915   15.1126 H   0  0  0  0  0  0  0  0  0  0  0  0
    3.2877   -6.3676   13.2672 H   0  0  0  0  0  0  0  0  0  0  0  0
    2.1803   -5.2066   12.4594 H   0  0  0  0  0  0  0  0  0  0  0  0
    3.9514   -4.9069   12.4594 H   0  0  0  0  0  0  0  0  0  0  0  0
    1.3095   -4.2650   15.6951 H   0  0  0  0  0  0  0  0  0  0  0  0
    1.1811   -3.3359   14.1631 H   0  0  0  0  0  0  0  0  0  0  0  0
    0.9032   -5.1105   14.1631 H   0  0  0  0  0  0  0  0  0  0  0  0
    5.5357   -1.2051   16.3689 H   0  0  0  0  0  0  0  0  0  0  0  0
    6.2802   -1.7081   14.8135 H   0  0  0  0  0  0  0  0  0  0  0  0
    4.7637   -0.7453   14.8135 H   0  0  0  0  0  0  0  0  0  0  0  0
    3.8480    0.3011   11.9910 H   0  0  0  0  0  0  0  0  0  0  0  0
    4.4228   -0.4044   10.4423 H   0  0  0  0  0  0  0  0  0  0  0  0
    3.0789    0.7876   10.4423 H   0  0  0  0  0  0  0  0  0  0  0  0
    0.5520    1.9205    7.7111 H   0  0  0  0  0  0  0  0  0  0  0  0
    1.1427    1.1260    6.2122 H   0  0  0  0  0  0  0  0  0  0  0  0
   -0.4360    1.9830    6.2122 H   0  0  0  0  0  0  0  0  0  0  0  0
  1  2  1  0
  2  3  1  0
  3  4  2  0
 21  4  1  0
  4  5  1  0
  5  6  2  0
  6  7  1  0
  7  8  2  0
 20  8  1  0
  8  9  1  0
  9 10  2  0
 17 16  1  0
 10 11  1  0
 11 16  1  0
 11 12  2  0
 16 18  1  0
 16 15  1  0
 19 12  1  0
 12 13  1  0
 15 14  1  0
 13 14  1  0
  1 22  1  0
  1 23  1  0
  2 24  1  0
  2 25  1  0
  3 26  1  0
  5 27  1  0
  6 28  1  0
  7 29  1  0
  9 30  1  0
 10 31  1  0
 13 32  1  0
 13 33  1  0
 14 34  1  0
 14 35  1  0
 15 36  1  0
 15 37  1  0
 17 38  1  0
 17 39  1  0
 17 40  1  0
 18 41  1  0
 18 42  1  0
 18 43  1  0
 19 44  1  0
 19 45  1  0
 19 46  1  0
 20 47  1  0
 20 48  1  0
 20 49  1  0
 21 50  1  0
 21 51  1  0
 21 52  1  0
A    1
NAA
A    2
CAB
A    3
CAC
A    4
CAD
A    5
CAG
A    6
CAF
A    7
CAE
A    8
CAH
A    9
CAI
A   10
CAJ
A   11
CAK
A   12
CAL
A   13
CAM
A   14
CAN
A   15
CAO
A   16
CAP
A   17
CAQ
A   18
CAR
A   19
CAS
A   20
CAT
A   21
CAU
M  END
