5HBH_5Y7_A_401
     RDKit          3D

 64 68  0  0  0  0  0  0  0  0999 V2000
    3.6550   18.3150   15.8440 C   0  0  0  0  0  0  0  0  0  0  0  0
    4.3030   17.4620   13.7590 C   0  0  0  0  0  0  0  0  0  0  0  0
    4.8240   16.2780   12.9370 C   0  0  0  0  0  0  0  0  0  0  0  0
    2.7200   15.8870   11.6490 C   0  0  0  0  0  0  0  0  0  0  0  0
    1.9910   14.6430   11.0790 C   0  0  0  0  0  0  0  0  0  0  0  0
    3.2190   13.8080   10.6250 C   0  0  0  0  0  0  0  0  0  0  0  0
    6.1830   13.2630   10.1180 C   0  0  0  0  0  0  0  0  0  0  0  0
    6.9190   10.8780   10.3640 C   0  0  0  0  0  0  0  0  0  0  0  0
    7.8750   10.2500   11.2080 C   0  0  0  0  0  0  0  0  0  0  0  0
    8.6030    9.1700   10.7140 C   0  0  0  0  0  0  0  0  0  0  0  0
    6.7450   10.3230    9.0510 C   0  0  0  0  0  0  0  0  0  0  0  0
    4.3810   10.7150    8.1370 C   0  0  0  0  0  0  0  0  0  0  0  0
    3.5430   11.3530    7.2200 C   0  0  0  0  0  0  0  0  0  0  0  0
    0.6690   13.0730    5.4960 O   0  0  0  0  0  0  0  0  0  0  0  0
    3.3600   13.3520    4.0580 C   0  0  0  0  0  0  0  0  0  0  0  0
    4.0730   12.2090    6.2710 C   0  0  0  0  0  0  0  0  0  0  0  0
    5.4620   12.4360    6.2590 C   0  0  0  0  0  0  0  0  0  0  0  0
    6.2940   11.8070    7.1490 C   0  0  0  0  0  0  0  0  0  0  0  0
    3.8890   17.1300   15.0770 O   0  0  0  0  0  0  0  0  0  0  0  0
    3.8270   15.3030   12.4350 N   0  0  0  0  0  0  0  0  0  0  0  0
    4.3360   14.1470   11.6490 C   0  0  0  0  0  0  0  0  0  0  0  0
    5.6720   14.4320   10.9560 C   0  0  0  0  0  0  0  0  0  0  0  0
    6.1190   11.9640   10.7930 N   0  0  0  0  0  0  0  0  0  0  0  0
    5.1340   11.7230   11.8710 C   0  0  0  0  0  0  0  0  0  0  0  0
    4.6040   12.9740   12.5850 C   0  0  0  0  0  0  0  0  0  0  0  0
    8.2130   10.7690   12.8440 Cl  0  0  0  0  0  0  0  0  0  0  0  0
    8.4190    8.7050    9.4850 N   0  0  0  0  0  0  0  0  0  0  0  0
    7.5380    9.2450    8.6520 C   0  0  0  0  0  0  0  0  0  0  0  0
    5.7710   10.9260    8.1000 C   0  0  0  0  0  0  0  0  0  0  0  0
    2.0290   11.2730    7.0380 C   0  0  0  0  0  0  0  0  0  0  0  0
    1.7990   12.9420    6.3490 S   0  0  0  0  0  0  0  0  0  0  0  0
    2.1430   13.9290    7.3140 O   0  0  0  0  0  0  0  0  0  0  0  0
    3.1580   12.8390    5.4170 N   0  0  0  0  0  0  0  0  0  0  0  0
    3.7027   18.0733   16.9160 H   0  0  0  0  0  0  0  0  0  0  0  0
    4.4223   19.0654   15.6028 H   0  0  0  0  0  0  0  0  0  0  0  0
    2.6601   18.7174   15.6028 H   0  0  0  0  0  0  0  0  0  0  0  0
    5.1060   18.2104   13.8298 H   0  0  0  0  0  0  0  0  0  0  0  0
    3.4101   17.8357   13.2364 H   0  0  0  0  0  0  0  0  0  0  0  0
    5.3512   16.6896   12.0637 H   0  0  0  0  0  0  0  0  0  0  0  0
    5.4498   15.7044   13.6366 H   0  0  0  0  0  0  0  0  0  0  0  0
    3.1052   16.5235   10.8387 H   0  0  0  0  0  0  0  0  0  0  0  0
    2.0622   16.5342   12.2476 H   0  0  0  0  0  0  0  0  0  0  0  0
    1.4041   14.1227   11.8503 H   0  0  0  0  0  0  0  0  0  0  0  0
    1.2529   14.8544   10.2912 H   0  0  0  0  0  0  0  0  0  0  0  0
    2.9859   12.7332   10.6487 H   0  0  0  0  0  0  0  0  0  0  0  0
    3.5194   14.0423    9.5931 H   0  0  0  0  0  0  0  0  0  0  0  0
    5.5773   13.2053    9.2016 H   0  0  0  0  0  0  0  0  0  0  0  0
    7.2460   13.4611    9.9160 H   0  0  0  0  0  0  0  0  0  0  0  0
    9.3515    8.6891   11.3610 H   0  0  0  0  0  0  0  0  0  0  0  0
    3.9508   10.0425    8.8938 H   0  0  0  0  0  0  0  0  0  0  0  0
    3.7626   14.3744    4.1081 H   0  0  0  0  0  0  0  0  0  0  0  0
    4.0701   12.7041    3.5233 H   0  0  0  0  0  0  0  0  0  0  0  0
    2.3988   13.3622    3.5233 H   0  0  0  0  0  0  0  0  0  0  0  0
    5.8884   13.1316    5.5212 H   0  0  0  0  0  0  0  0  0  0  0  0
    7.3770   11.9963    7.1145 H   0  0  0  0  0  0  0  0  0  0  0  0
    6.4222   14.6624   11.7268 H   0  0  0  0  0  0  0  0  0  0  0  0
    5.5077   15.2757   10.2695 H   0  0  0  0  0  0  0  0  0  0  0  0
    4.2745   11.1962   11.4309 H   0  0  0  0  0  0  0  0  0  0  0  0
    5.6682   11.1449   12.6394 H   0  0  0  0  0  0  0  0  0  0  0  0
    5.3477   13.2887   13.3319 H   0  0  0  0  0  0  0  0  0  0  0  0
    3.6410   12.7001   13.0407 H   0  0  0  0  0  0  0  0  0  0  0  0
    7.4312    8.8386    7.6354 H   0  0  0  0  0  0  0  0  0  0  0  0
    1.7311   10.4823    6.3336 H   0  0  0  0  0  0  0  0  0  0  0  0
    1.4384   11.0240    7.9320 H   0  0  0  0  0  0  0  0  0  0  0  0
  1 19  1  0
  2  3  1  0
  2 19  1  0
  3 20  1  0
  4  5  1  0
  4 20  1  0
  5  6  1  0
  6 21  1  0
  7 22  1  0
  7 23  1  0
  8  9  2  0
  8 11  1  0
  8 23  1  0
  9 10  1  0
  9 26  1  0
 10 27  2  0
 11 28  2  0
 11 29  1  0
 12 13  2  0
 12 29  1  0
 13 16  1  0
 13 30  1  0
 14 31  2  0
 15 33  1  0
 16 17  2  0
 16 33  1  0
 17 18  1  0
 18 29  2  0
 20 21  1  0
 21 22  1  0
 21 25  1  0
 23 24  1  0
 24 25  1  0
 27 28  1  0
 30 31  1  0
 31 32  2  0
 31 33  1  0
  1 34  1  0
  1 35  1  0
  1 36  1  0
  2 37  1  0
  2 38  1  0
  3 39  1  0
  3 40  1  0
  4 41  1  0
  4 42  1  0
  5 43  1  0
  5 44  1  0
  6 45  1  0
  6 46  1  0
  7 47  1  0
  7 48  1  0
 10 49  1  0
 12 50  1  0
 15 51  1  0
 15 52  1  0
 15 53  1  0
 17 54  1  0
 18 55  1  0
 22 56  1  0
 22 57  1  0
 24 58  1  0
 24 59  1  0
 25 60  1  0
 25 61  1  0
 28 62  1  0
 30 63  1  0
 30 64  1  0
A    1
C1
A    2
C3
A    3
C4
A    4
C6
A    5
C7
A    6
C8
A    7
C11
A    8
C15
A    9
C16
A   10
C18
A   11
C21
A   12
C23
A   13
C24
A   14
O28
A   15
C30
A   16
C31
A   17
C32
A   18
C33
A   19
O2
A   20
N5
A   21
C9
A   22
C10
A   23
N12
A   24
C13
A   25
C14
A   26
CL
A   27
N19
A   28
C20
A   29
C22
A   30
C25
A   31
S26
A   32
O27
A   33
N29
M  END
