5HCT_61P_A_406
     RDKit          3D

 44 46  0  0  0  0  0  0  0  0999 V2000
   24.4970   12.6640   57.6270 C   0  0  0  0  0  0  0  0  0  0  0  0
   24.4290   11.4510   56.8070 C   0  0  0  0  0  0  0  0  0  0  0  0
   23.6390   11.4190   55.6610 C   0  0  0  0  0  0  0  0  0  0  0  0
   23.5970   10.2880   54.8650 C   0  0  0  0  0  0  0  0  0  0  0  0
   24.3340    9.1690   55.2080 C   0  0  0  0  0  0  0  0  0  0  0  0
   26.5970    7.8910   57.7630 N   0  0  0  0  0  0  0  0  0  0  0  0
   28.0180    7.2260   60.0080 O   0  0  0  0  0  0  0  0  0  0  0  0
   27.9400    6.4400   59.0640 C   0  0  0  0  0  0  0  0  0  0  0  0
   28.6370    5.0820   59.1200 C   0  0  0  0  0  0  0  0  0  0  0  0
   28.1700    4.2750   60.3390 C   0  0  0  0  0  0  0  0  0  0  0  0
   26.6830    4.0600   60.4180 C   0  0  0  0  0  0  0  0  0  0  0  0
   25.9700    2.8230   60.2340 C   0  0  0  0  0  0  0  0  0  0  0  0
   26.3470    1.5200   59.9240 C   0  0  0  0  0  0  0  0  0  0  0  0
   25.3830    0.5260   59.8280 C   0  0  0  0  0  0  0  0  0  0  0  0
   24.0400    0.8150   60.0340 C   0  0  0  0  0  0  0  0  0  0  0  0
   23.6350    2.1040   60.3420 C   0  0  0  0  0  0  0  0  0  0  0  0
   24.6060    3.0970   60.4430 C   0  0  0  0  0  0  0  0  0  0  0  0
   24.4930    4.4340   60.7360 N   0  0  0  0  0  0  0  0  0  0  0  0
   25.7400    5.0010   60.7180 C   0  0  0  0  0  0  0  0  0  0  0  0
   30.1140    5.3140   59.1390 N   0  0  0  0  0  0  0  0  0  0  0  0
   27.2470    6.6860   57.9310 N   0  0  0  0  0  0  0  0  0  0  0  0
   25.8780    7.9610   56.7090 C   0  0  0  0  0  0  0  0  0  0  0  0
   25.1220    9.1610   56.3570 C   0  0  0  0  0  0  0  0  0  0  0  0
   25.1680   10.3130   57.1480 C   0  0  0  0  0  0  0  0  0  0  0  0
   24.4815   12.3882   58.6917 H   0  0  0  0  0  0  0  0  0  0  0  0
   25.4270   13.2068   57.4023 H   0  0  0  0  0  0  0  0  0  0  0  0
   23.6335   13.3074   57.4023 H   0  0  0  0  0  0  0  0  0  0  0  0
   23.0425   12.3013   55.3858 H   0  0  0  0  0  0  0  0  0  0  0  0
   22.9759   10.2788   53.9572 H   0  0  0  0  0  0  0  0  0  0  0  0
   24.2976    8.2759   54.5669 H   0  0  0  0  0  0  0  0  0  0  0  0
   28.3756    4.4855   58.2335 H   0  0  0  0  0  0  0  0  0  0  0  0
   28.6574    3.2895   60.3048 H   0  0  0  0  0  0  0  0  0  0  0  0
   28.4465    4.8638   61.2261 H   0  0  0  0  0  0  0  0  0  0  0  0
   27.4068    1.2782   59.7554 H   0  0  0  0  0  0  0  0  0  0  0  0
   25.6862   -0.5033   59.5858 H   0  0  0  0  0  0  0  0  0  0  0  0
   23.2912    0.0134   59.9519 H   0  0  0  0  0  0  0  0  0  0  0  0
   22.5721    2.3371   60.5028 H   0  0  0  0  0  0  0  0  0  0  0  0
   23.6130    4.9302   60.9368 H   0  0  0  0  0  0  0  0  0  0  0  0
   25.9513    6.0621   60.9167 H   0  0  0  0  0  0  0  0  0  0  0  0
   30.4410    5.3654   60.1144 H   0  0  0  0  0  0  0  0  0  0  0  0
   30.5897    4.5374   58.6579 H   0  0  0  0  0  0  0  0  0  0  0  0
   27.2038    5.9717   57.1902 H   0  0  0  0  0  0  0  0  0  0  0  0
   25.8263    7.0870   56.0431 H   0  0  0  0  0  0  0  0  0  0  0  0
   25.7946   10.3248   58.0520 H   0  0  0  0  0  0  0  0  0  0  0  0
  4  5  2  0
  4  3  1  0
  5 23  1  0
  3  2  2  0
 23 22  1  0
 23 24  2  0
 22  6  2  0
  2 24  1  0
  2  1  1  0
  6 21  1  0
 21  8  1  0
  8  9  1  0
  8  7  2  0
  9 20  1  0
  9 10  1  0
 14 13  2  0
 14 15  1  0
 13 12  1  0
 15 16  2  0
 12 11  1  0
 12 17  2  0
 10 11  1  0
 16 17  1  0
 11 19  2  0
 17 18  1  0
 19 18  1  0
  1 25  1  0
  1 26  1  0
  1 27  1  0
  3 28  1  0
  4 29  1  0
  5 30  1  0
  9 31  1  0
 10 32  1  0
 10 33  1  0
 13 34  1  0
 14 35  1  0
 15 36  1  0
 16 37  1  0
 18 38  1  0
 19 39  1  0
 20 40  1  0
 20 41  1  0
 21 42  1  0
 22 43  1  0
 24 44  1  0
A    1
C11
A    2
C12
A    3
C13
A    4
C14
A    5
C15
A    6
N4
A    7
O1
A    8
C18
A    9
C19
A   10
C20
A   11
C21
A   12
C28
A   13
C27
A   14
C26
A   15
C25
A   16
C24
A   17
C23
A   18
N7
A   19
C22
A   20
N6
A   21
N5
A   22
C17
A   23
C16
A   24
C29
M  END
