5HCX_60B_A_1102
     RDKit          3D

 53 57  0  0  0  0  0  0  0  0999 V2000
  -53.3340    1.0580  -19.5370 C   0  0  0  0  0  0  0  0  0  0  0  0
  -54.3070    2.0600  -19.6960 C   0  0  0  0  0  0  0  0  0  0  0  0
  -51.4750   -1.6240  -21.1820 C   0  0  0  0  0  0  0  0  0  0  0  0
  -54.6520    1.4550  -21.9500 C   0  0  0  0  0  0  0  0  0  0  0  0
  -53.6680    0.4790  -21.8780 C   0  0  0  0  0  0  0  0  0  0  0  0
  -53.0150    0.2490  -20.6610 C   0  0  0  0  0  0  0  0  0  0  0  0
  -49.9810   -1.4350  -21.4550 C   0  0  0  0  0  0  0  0  0  0  0  0
  -51.9120   -3.0530  -20.8770 C   0  0  0  0  0  0  0  0  0  0  0  0
  -52.5440    0.6250  -18.5120 N   0  0  0  0  0  0  0  0  0  0  0  0
  -50.8180   -1.0520  -17.9800 C   0  0  0  0  0  0  0  0  0  0  0  0
  -51.8010   -0.3760  -18.9090 C   0  0  0  0  0  0  0  0  0  0  0  0
  -54.9210    2.2060  -20.8680 N   0  0  0  0  0  0  0  0  0  0  0  0
  -52.0460   -0.6410  -20.2460 N   0  0  0  0  0  0  0  0  0  0  0  0
  -55.3420    1.7340  -23.1430 N   0  0  0  0  0  0  0  0  0  0  0  0
  -55.4550    0.9650  -24.2940 C   0  0  0  0  0  0  0  0  0  0  0  0
  -56.6500    1.0610  -25.0270 C   0  0  0  0  0  0  0  0  0  0  0  0
  -56.7820    0.2950  -26.1820 C   0  0  0  0  0  0  0  0  0  0  0  0
  -55.7790   -0.4930  -26.5650 N   0  0  0  0  0  0  0  0  0  0  0  0
  -54.6320   -0.5480  -25.8790 C   0  0  0  0  0  0  0  0  0  0  0  0
  -54.4740    0.1640  -24.7510 N   0  0  0  0  0  0  0  0  0  0  0  0
  -53.5790   -1.4900  -26.3440 C   0  0  0  0  0  0  0  0  0  0  0  0
  -53.3940   -1.9880  -27.6510 C   0  0  0  0  0  0  0  0  0  0  0  0
  -52.4220   -2.8550  -27.6350 N   0  0  0  0  0  0  0  0  0  0  0  0
  -51.9550   -2.9700  -26.3200 N   0  0  0  0  0  0  0  0  0  0  0  0
  -52.6850   -2.1390  -25.5470 C   0  0  0  0  0  0  0  0  0  0  0  0
  -50.7280   -3.9740  -25.7780 S   0  0  0  0  0  0  0  0  0  0  0  0
  -50.0300   -4.3390  -26.9680 O   0  0  0  0  0  0  0  0  0  0  0  0
  -50.1040   -3.2150  -24.7420 O   0  0  0  0  0  0  0  0  0  0  0  0
  -51.5470   -5.4380  -25.0640 C   0  0  0  0  0  0  0  0  0  0  0  0
  -50.6920   -6.6970  -24.8930 C   0  0  0  0  0  0  0  0  0  0  0  0
  -51.1270   -5.8960  -23.6670 C   0  0  0  0  0  0  0  0  0  0  0  0
  -54.5603    2.7215  -18.8544 H   0  0  0  0  0  0  0  0  0  0  0  0
  -51.9251   -1.4064  -22.1618 H   0  0  0  0  0  0  0  0  0  0  0  0
  -53.4034   -0.1088  -22.7693 H   0  0  0  0  0  0  0  0  0  0  0  0
  -49.4395   -1.3665  -20.4999 H   0  0  0  0  0  0  0  0  0  0  0  0
  -49.6021   -2.2924  -22.0306 H   0  0  0  0  0  0  0  0  0  0  0  0
  -49.8276   -0.5103  -22.0306 H   0  0  0  0  0  0  0  0  0  0  0  0
  -51.9564   -3.1982  -19.7875 H   0  0  0  0  0  0  0  0  0  0  0  0
  -52.9063   -3.2331  -21.3117 H   0  0  0  0  0  0  0  0  0  0  0  0
  -51.1885   -3.7584  -21.3117 H   0  0  0  0  0  0  0  0  0  0  0  0
  -51.1046   -0.8549  -16.9365 H   0  0  0  0  0  0  0  0  0  0  0  0
  -50.8260   -2.1365  -18.1639 H   0  0  0  0  0  0  0  0  0  0  0  0
  -49.8082   -0.6564  -18.1639 H   0  0  0  0  0  0  0  0  0  0  0  0
  -55.8343    2.6384  -23.1667 H   0  0  0  0  0  0  0  0  0  0  0  0
  -57.4618    1.7255  -24.6961 H   0  0  0  0  0  0  0  0  0  0  0  0
  -57.7080    0.3403  -26.7740 H   0  0  0  0  0  0  0  0  0  0  0  0
  -53.9748   -1.6928  -28.5373 H   0  0  0  0  0  0  0  0  0  0  0  0
  -52.5768   -2.0082  -24.4602 H   0  0  0  0  0  0  0  0  0  0  0  0
  -52.5095   -5.1988  -25.5397 H   0  0  0  0  0  0  0  0  0  0  0  0
  -51.1280   -7.6884  -25.0854 H   0  0  0  0  0  0  0  0  0  0  0  0
  -49.7281   -7.0432  -25.2942 H   0  0  0  0  0  0  0  0  0  0  0  0
  -50.3856   -5.3158  -23.0981 H   0  0  0  0  0  0  0  0  0  0  0  0
  -51.6594   -6.1316  -22.7337 H   0  0  0  0  0  0  0  0  0  0  0  0
 22 23  2  0
 22 21  1  0
 23 24  1  0
 27 26  2  0
 18 17  1  0
 18 19  2  0
 21 19  1  0
 21 25  2  0
 24 26  1  0
 24 25  1  0
 17 16  2  0
 19 20  1  0
 26 29  1  0
 26 28  2  0
 29 30  1  0
 29 31  1  0
 16 15  1  0
 30 31  1  0
 20 15  2  0
 15 14  1  0
 14  4  1  0
  4  5  2  0
  4 12  1  0
  5  6  1  0
  7  3  1  0
  3  8  1  0
  3 13  1  0
 12  2  2  0
  6 13  1  0
  6  1  2  0
 13 11  1  0
  2  1  1  0
  1  9  1  0
 11  9  2  0
 11 10  1  0
  2 32  1  0
  3 33  1  0
  5 34  1  0
  7 35  1  0
  7 36  1  0
  7 37  1  0
  8 38  1  0
  8 39  1  0
  8 40  1  0
 10 41  1  0
 10 42  1  0
 10 43  1  0
 14 44  1  0
 16 45  1  0
 17 46  1  0
 22 47  1  0
 25 48  1  0
 29 49  1  0
 30 50  1  0
 30 51  1  0
 31 52  1  0
 31 53  1  0
A    1
C4
A    2
C5
A    3
C11
A    4
C7
A    5
C8
A    6
C9
A    7
C12
A    8
C13
A    9
N3
A   10
C1
A   11
C2
A   12
N6
A   13
N10
A   14
N14
A   15
C15
A   16
C16
A   17
C17
A   18
N18
A   19
C19
A   20
N20
A   21
C21
A   22
C22
A   23
N23
A   24
N24
A   25
C25
A   26
S26
A   27
O27
A   28
O28
A   29
C29
A   30
C30
A   31
C31
M  END
