5HCZ_60E_A_1102
     RDKit          3D

 72 77  0  0  0  0  0  0  0  0999 V2000
  -49.3060   -1.1470  -21.2120 C   0  0  0  0  0  0  0  0  0  0  0  0
  -52.6400    0.2020  -20.7830 C   0  0  0  0  0  0  0  0  0  0  0  0
  -53.0360    0.9210  -19.6140 C   0  0  0  0  0  0  0  0  0  0  0  0
  -53.3690    0.4170  -21.9640 C   0  0  0  0  0  0  0  0  0  0  0  0
  -54.4360    1.3180  -21.9650 C   0  0  0  0  0  0  0  0  0  0  0  0
  -54.1250    1.8050  -19.6980 C   0  0  0  0  0  0  0  0  0  0  0  0
  -52.1370    0.4900  -18.5340 C   0  0  0  0  0  0  0  0  0  0  0  0
  -50.7950   -1.4710  -21.3130 C   0  0  0  0  0  0  0  0  0  0  0  0
  -52.2460   -3.4800  -21.5630 C   0  0  0  0  0  0  0  0  0  0  0  0
  -50.9850   -2.9320  -20.9060 C   0  0  0  0  0  0  0  0  0  0  0  0
  -51.5620   -0.5710  -20.4300 N   0  0  0  0  0  0  0  0  0  0  0  0
  -54.7750    1.9600  -20.8380 N   0  0  0  0  0  0  0  0  0  0  0  0
  -51.2730   -0.3310  -19.0780 N   0  0  0  0  0  0  0  0  0  0  0  0
  -51.9790    1.1000  -17.2810 N   0  0  0  0  0  0  0  0  0  0  0  0
  -51.4270    0.3130  -16.1710 C   0  0  0  0  0  0  0  0  0  0  0  0
  -51.9430    1.5190  -15.3580 C   0  0  0  0  0  0  0  0  0  0  0  0
  -53.1020    1.3730  -16.3760 C   0  0  0  0  0  0  0  0  0  0  0  0
  -52.2540    1.2880  -13.8700 C   0  0  0  0  0  0  0  0  0  0  0  0
  -50.9590    0.9390  -13.1230 C   0  0  0  0  0  0  0  0  0  0  0  0
  -52.7980    2.5900  -13.2640 C   0  0  0  0  0  0  0  0  0  0  0  0
  -53.2070    0.2170  -13.7100 O   0  0  0  0  0  0  0  0  0  0  0  0
  -55.1730    1.6330  -23.1220 N   0  0  0  0  0  0  0  0  0  0  0  0
  -55.3400    0.8720  -24.2710 C   0  0  0  0  0  0  0  0  0  0  0  0
  -56.5450    0.9900  -24.9860 C   0  0  0  0  0  0  0  0  0  0  0  0
  -56.6990    0.2230  -26.1330 C   0  0  0  0  0  0  0  0  0  0  0  0
  -55.7280   -0.6130  -26.5070 N   0  0  0  0  0  0  0  0  0  0  0  0
  -54.5840   -0.6990  -25.8210 C   0  0  0  0  0  0  0  0  0  0  0  0
  -54.3920    0.0390  -24.7240 N   0  0  0  0  0  0  0  0  0  0  0  0
  -53.5310   -1.6560  -26.2550 C   0  0  0  0  0  0  0  0  0  0  0  0
  -53.4010   -2.2590  -27.5220 C   0  0  0  0  0  0  0  0  0  0  0  0
  -52.3820   -3.0700  -27.4800 N   0  0  0  0  0  0  0  0  0  0  0  0
  -51.8240   -3.0410  -26.1910 N   0  0  0  0  0  0  0  0  0  0  0  0
  -52.5540   -2.1790  -25.4570 C   0  0  0  0  0  0  0  0  0  0  0  0
  -50.5190   -3.9430  -25.6450 S   0  0  0  0  0  0  0  0  0  0  0  0
  -49.8540   -3.1070  -24.7010 O   0  0  0  0  0  0  0  0  0  0  0  0
  -49.8710   -4.3530  -26.8470 O   0  0  0  0  0  0  0  0  0  0  0  0
  -51.2710   -5.3730  -24.7900 C   0  0  0  0  0  0  0  0  0  0  0  0
  -50.6370   -6.7560  -24.9760 C   0  0  0  0  0  0  0  0  0  0  0  0
  -50.4810   -6.0220  -23.6480 C   0  0  0  0  0  0  0  0  0  0  0  0
  -49.0155   -1.0838  -20.1529 H   0  0  0  0  0  0  0  0  0  0  0  0
  -48.7240   -1.9395  -21.7052 H   0  0  0  0  0  0  0  0  0  0  0  0
  -49.1060   -0.1843  -21.7052 H   0  0  0  0  0  0  0  0  0  0  0  0
  -53.1006   -0.1221  -22.8845 H   0  0  0  0  0  0  0  0  0  0  0  0
  -54.4385    2.3717  -18.8089 H   0  0  0  0  0  0  0  0  0  0  0  0
  -51.1602   -1.3233  -22.3400 H   0  0  0  0  0  0  0  0  0  0  0  0
  -52.9595   -3.7901  -20.7853 H   0  0  0  0  0  0  0  0  0  0  0  0
  -52.7023   -2.6990  -22.1890 H   0  0  0  0  0  0  0  0  0  0  0  0
  -51.9864   -4.3465  -22.1890 H   0  0  0  0  0  0  0  0  0  0  0  0
  -51.0822   -2.9987  -19.8123 H   0  0  0  0  0  0  0  0  0  0  0  0
  -50.1149   -3.5207  -21.2322 H   0  0  0  0  0  0  0  0  0  0  0  0
  -51.9218   -0.6489  -15.9709 H   0  0  0  0  0  0  0  0  0  0  0  0
  -50.4001   -0.0791  -16.1292 H   0  0  0  0  0  0  0  0  0  0  0  0
  -51.3858    2.4471  -15.1625 H   0  0  0  0  0  0  0  0  0  0  0  0
  -53.6775    2.2869  -16.5848 H   0  0  0  0  0  0  0  0  0  0  0  0
  -53.9771    0.7197  -16.2440 H   0  0  0  0  0  0  0  0  0  0  0  0
  -51.1370    0.9870  -12.0385 H   0  0  0  0  0  0  0  0  0  0  0  0
  -50.6398   -0.0772  -13.3976 H   0  0  0  0  0  0  0  0  0  0  0  0
  -50.1724    1.6572  -13.3976 H   0  0  0  0  0  0  0  0  0  0  0  0
  -52.7701    2.5233  -12.1664 H   0  0  0  0  0  0  0  0  0  0  0  0
  -52.1781    3.4359  -13.5958 H   0  0  0  0  0  0  0  0  0  0  0  0
  -53.8355    2.7434  -13.5958 H   0  0  0  0  0  0  0  0  0  0  0  0
  -53.3562    0.0493  -12.7458 H   0  0  0  0  0  0  0  0  0  0  0  0
  -55.6500    2.5459  -23.1153 H   0  0  0  0  0  0  0  0  0  0  0  0
  -57.3412    1.6691  -24.6470 H   0  0  0  0  0  0  0  0  0  0  0  0
  -57.6183    0.3040  -26.7316 H   0  0  0  0  0  0  0  0  0  0  0  0
  -54.0467   -2.0769  -28.3938 H   0  0  0  0  0  0  0  0  0  0  0  0
  -52.3910   -1.9377  -24.3963 H   0  0  0  0  0  0  0  0  0  0  0  0
  -52.2845   -4.9621  -24.9079 H   0  0  0  0  0  0  0  0  0  0  0  0
  -51.2757   -7.6494  -25.0384 H   0  0  0  0  0  0  0  0  0  0  0  0
  -49.9426   -7.2007  -25.7041 H   0  0  0  0  0  0  0  0  0  0  0  0
  -51.0073   -6.3865  -22.7535 H   0  0  0  0  0  0  0  0  0  0  0  0
  -49.6278   -5.7191  -23.0233 H   0  0  0  0  0  0  0  0  0  0  0  0
 30 31  2  0
 30 29  1  0
 31 32  1  0
 36 34  2  0
 26 25  1  0
 26 27  2  0
 29 27  1  0
 29 33  2  0
 32 34  1  0
 32 33  1  0
 25 24  2  0
 27 28  1  0
 34 37  1  0
 34 35  2  0
 24 23  1  0
 38 37  1  0
 38 39  1  0
 37 39  1  0
 28 23  2  0
 23 22  1  0
 22  5  1  0
  5  4  2  0
  5 12  1  0
  4  2  1  0
  9 10  1  0
  8  1  1  0
  8 10  1  0
  8 11  1  0
 12  6  2  0
  2 11  1  0
  2  3  2  0
 11 13  1  0
  6  3  1  0
  3  7  1  0
 13  7  2  0
  7 14  1  0
 14 17  1  0
 14 15  1  0
 17 16  1  0
 15 16  1  0
 16 18  1  0
 18 21  1  0
 18 20  1  0
 18 19  1  0
  1 40  1  0
  1 41  1  0
  1 42  1  0
  4 43  1  0
  6 44  1  0
  8 45  1  0
  9 46  1  0
  9 47  1  0
  9 48  1  0
 10 49  1  0
 10 50  1  0
 15 51  1  0
 15 52  1  0
 16 53  1  0
 17 54  1  0
 17 55  1  0
 19 56  1  0
 19 57  1  0
 19 58  1  0
 20 59  1  0
 20 60  1  0
 20 61  1  0
 21 62  1  0
 22 63  1  0
 24 64  1  0
 25 65  1  0
 30 66  1  0
 33 67  1  0
 37 68  1  0
 38 69  1  0
 38 70  1  0
 39 71  1  0
 39 72  1  0
A    1
C4
A    2
C6
A    3
C11
A    4
C7
A    5
C8
A    6
C10
A    7
C12
A    8
C3
A    9
C1
A   10
C2
A   11
N5
A   12
N9
A   13
N13
A   14
N14
A   15
C15
A   16
C16
A   17
C17
A   18
C18
A   19
C19
A   20
C20
A   21
O21
A   22
N22
A   23
C23
A   24
C24
A   25
C25
A   26
N26
A   27
C27
A   28
N28
A   29
C29
A   30
C30
A   31
N31
A   32
N32
A   33
C33
A   34
S34
A   35
O35
A   36
O36
A   37
C37
A   38
C38
A   39
C39
M  END
