5HDU_60W_A_502
     RDKit          3D

 54 58  0  0  0  0  0  0  0  0999 V2000
   25.3180   10.9940   19.9840 C   0  0  0  0  0  0  0  0  0  0  0  0
   24.3830   10.5210   21.0050 C   0  0  0  0  0  0  0  0  0  0  0  0
   23.0900   10.7310   20.6410 C   0  0  0  0  0  0  0  0  0  0  0  0
   21.8610   10.3830   21.4480 C   0  0  0  0  0  0  0  0  0  0  0  0
   22.5180   10.0450   23.8010 C   0  0  0  0  0  0  0  0  0  0  0  0
   23.0270   11.9810   25.2520 C   0  0  0  0  0  0  0  0  0  0  0  0
   21.1020   11.6450   21.9660 C   0  0  0  0  0  0  0  0  0  0  0  0
   18.3670    9.5800   20.8250 C   0  0  0  0  0  0  0  0  0  0  0  0
   17.2890    8.3340   19.2600 C   0  0  0  0  0  0  0  0  0  0  0  0
   18.5470    7.4290   17.4640 C   0  0  0  0  0  0  0  0  0  0  0  0
   16.0730    8.6070   19.8660 C   0  0  0  0  0  0  0  0  0  0  0  0
   16.1110    9.4260   20.9940 C   0  0  0  0  0  0  0  0  0  0  0  0
   26.7970   11.0140   20.1660 C   0  0  0  0  0  0  0  0  0  0  0  0
   27.3620   10.4030   21.2830 C   0  0  0  0  0  0  0  0  0  0  0  0
   28.9820   11.8480   19.5400 C   0  0  0  0  0  0  0  0  0  0  0  0
   27.6220   11.7310   19.2890 C   0  0  0  0  0  0  0  0  0  0  0  0
   29.2810    9.9540   22.7330 C   0  0  0  0  0  0  0  0  0  0  0  0
   29.6930    9.4720   23.6800 N   0  0  0  0  0  0  0  0  0  0  0  0
   28.7250   10.5350   21.5400 C   0  0  0  0  0  0  0  0  0  0  0  0
   29.5390   11.2590   20.6640 C   0  0  0  0  0  0  0  0  0  0  0  0
   24.6440   11.5190   18.8990 C   0  0  0  0  0  0  0  0  0  0  0  0
   22.9510   11.4890   19.0950 S   0  0  0  0  0  0  0  0  0  0  0  0
   20.7630    9.7730   20.5600 C   0  0  0  0  0  0  0  0  0  0  0  0
   19.5510    9.9960   21.3460 N   0  0  0  0  0  0  0  0  0  0  0  0
   19.6900   11.1180   22.2770 C   0  0  0  0  0  0  0  0  0  0  0  0
   21.7460   12.2530   23.1970 C   0  0  0  0  0  0  0  0  0  0  0  0
   21.5780   13.4280   23.4730 O   0  0  0  0  0  0  0  0  0  0  0  0
   22.4680   11.4080   24.0180 N   0  0  0  0  0  0  0  0  0  0  0  0
   22.8990    9.2960   24.7780 N   0  0  0  0  0  0  0  0  0  0  0  0
   22.1490    9.5290   22.6210 N   0  0  0  0  0  0  0  0  0  0  0  0
   17.2560    9.9210   21.4880 N   0  0  0  0  0  0  0  0  0  0  0  0
   14.9320    8.1050   19.3510 F   0  0  0  0  0  0  0  0  0  0  0  0
   18.4300    8.8080   19.7260 N   0  0  0  0  0  0  0  0  0  0  0  0
   17.2970    7.5760   18.1500 O   0  0  0  0  0  0  0  0  0  0  0  0
   24.6889   10.0524   21.9520 H   0  0  0  0  0  0  0  0  0  0  0  0
   22.5588   11.5011   26.1240 H   0  0  0  0  0  0  0  0  0  0  0  0
   24.1130   11.8080   25.2774 H   0  0  0  0  0  0  0  0  0  0  0  0
   22.8272   13.0624   25.2774 H   0  0  0  0  0  0  0  0  0  0  0  0
   21.1093   12.4588   21.2259 H   0  0  0  0  0  0  0  0  0  0  0  0
   19.3597    7.3334   18.1991 H   0  0  0  0  0  0  0  0  0  0  0  0
   18.5154    6.5284   16.8332 H   0  0  0  0  0  0  0  0  0  0  0  0
   18.7252    8.3124   16.8332 H   0  0  0  0  0  0  0  0  0  0  0  0
   15.1658    9.6758   21.4982 H   0  0  0  0  0  0  0  0  0  0  0  0
   26.7301    9.8144   21.9644 H   0  0  0  0  0  0  0  0  0  0  0  0
   29.6208   12.4109   18.8435 H   0  0  0  0  0  0  0  0  0  0  0  0
   27.1887   12.2043   18.3956 H   0  0  0  0  0  0  0  0  0  0  0  0
   30.6156   11.3606   20.8657 H   0  0  0  0  0  0  0  0  0  0  0  0
   25.1461   11.9144   18.0037 H   0  0  0  0  0  0  0  0  0  0  0  0
   20.9370    8.6993   20.3958 H   0  0  0  0  0  0  0  0  0  0  0  0
   20.7185   10.2174   19.5548 H   0  0  0  0  0  0  0  0  0  0  0  0
   18.9284   11.8883   22.0859 H   0  0  0  0  0  0  0  0  0  0  0  0
   19.5544   10.8300   23.3299 H   0  0  0  0  0  0  0  0  0  0  0  0
   23.1772    9.7205   25.6743 H   0  0  0  0  0  0  0  0  0  0  0  0
   22.0633    8.5068   22.5277 H   0  0  0  0  0  0  0  0  0  0  0  0
 10 34  1  0
 34  9  1  0
 21 22  1  0
 21  1  2  0
 22  3  1  0
  9 33  2  0
  9 11  1  0
 16 15  2  0
 16 13  1  0
 32 11  1  0
 15 20  1  0
 33  8  1  0
 11 12  2  0
  1 13  1  0
  1  2  1  0
 13 14  2  0
 23 24  1  0
 23  4  1  0
  3  2  2  0
  3  4  1  0
 20 19  2  0
  8 24  1  0
  8 31  2  0
 12 31  1  0
 14 19  1  0
 24 25  1  0
  4  7  1  0
  4 30  1  0
 19 17  1  0
  7 25  1  0
  7 26  1  0
 30  5  1  0
 17 18  3  0
 26 27  2  0
 26 28  1  0
  5 28  1  0
  5 29  2  3
 28  6  1  0
  2 35  1  0
  6 36  1  0
  6 37  1  0
  6 38  1  0
  7 39  1  0
 10 40  1  0
 10 41  1  0
 10 42  1  0
 12 43  1  0
 14 44  1  0
 15 45  1  0
 16 46  1  0
 20 47  1  0
 21 48  1  0
 23 49  1  0
 23 50  1  0
 25 51  1  0
 25 52  1  0
 29 53  1  0
 30 54  1  0
A    1
C1
A    2
C2
A    3
C3
A    4
C4
A    5
C5
A    6
C6
A    7
C8
A    8
C11
A    9
C12
A   10
C13
A   11
C14
A   12
C15
A   13
C16
A   14
C17
A   15
C20
A   16
C21
A   17
C22
A   18
N6
A   19
C18
A   20
C19
A   21
C
A   22
S
A   23
C10
A   24
N3
A   25
C9
A   26
C7
A   27
O
A   28
N2
A   29
N1
A   30
N
A   31
N5
A   32
F
A   33
N4
A   34
O1
M  END
