5HEX_604_A_1001
     RDKit          3D

 54 56  0  0  0  0  0  0  0  0999 V2000
   31.4480   -4.1500  -65.6180 C   0  0  0  0  0  0  0  0  0  0  0  0
   31.5420   -3.0050  -64.8510 C   0  0  0  0  0  0  0  0  0  0  0  0
   32.5930   -4.7780  -66.0400 C   0  0  0  0  0  0  0  0  0  0  0  0
   33.9180   -3.1030  -64.9360 C   0  0  0  0  0  0  0  0  0  0  0  0
   33.6680    5.9620  -57.1000 C   0  0  0  0  0  0  0  0  0  0  0  0
   32.7650   -2.4820  -64.5170 C   0  0  0  0  0  0  0  0  0  0  0  0
   34.2580    7.1740  -56.6870 C   0  0  0  0  0  0  0  0  0  0  0  0
   33.8240   -4.2540  -65.6940 C   0  0  0  0  0  0  0  0  0  0  0  0
   34.7710    7.8040  -57.7890 C   0  0  0  0  0  0  0  0  0  0  0  0
   33.8570    5.9180  -58.4620 C   0  0  0  0  0  0  0  0  0  0  0  0
   32.8240   -1.2630  -63.7010 C   0  0  0  0  0  0  0  0  0  0  0  0
   34.2960    7.6700  -55.2570 C   0  0  0  0  0  0  0  0  0  0  0  0
   34.2620    0.5920  -62.9480 C   0  0  0  0  0  0  0  0  0  0  0  0
   35.4470    1.3580  -63.4970 C   0  0  0  0  0  0  0  0  0  0  0  0
   35.4990    2.6980  -62.7960 C   0  0  0  0  0  0  0  0  0  0  0  0
   35.7180    2.4380  -61.3250 C   0  0  0  0  0  0  0  0  0  0  0  0
   34.4600    0.4030  -61.4630 C   0  0  0  0  0  0  0  0  0  0  0  0
   35.4850    9.0730  -57.9450 C   0  0  0  0  0  0  0  0  0  0  0  0
   35.7770    3.7080  -60.4950 C   0  0  0  0  0  0  0  0  0  0  0  0
   34.0600   -0.6570  -63.6450 N   0  0  0  0  0  0  0  0  0  0  0  0
   34.6110    4.5690  -60.7660 N   0  0  0  0  0  0  0  0  0  0  0  0
   34.7110    8.8530  -55.0920 O   0  0  0  0  0  0  0  0  0  0  0  0
   31.8220   -0.8920  -63.1150 O   0  0  0  0  0  0  0  0  0  0  0  0
   33.8950    6.8060  -54.4280 O   0  0  0  0  0  0  0  0  0  0  0  0
   33.1760    3.5180  -58.7810 O   0  0  0  0  0  0  0  0  0  0  0  0
   32.1930    5.3290  -60.1640 O   0  0  0  0  0  0  0  0  0  0  0  0
   34.5270    7.0310  -58.8860 O   0  0  0  0  0  0  0  0  0  0  0  0
   34.6550    1.6550  -60.8130 O   0  0  0  0  0  0  0  0  0  0  0  0
   35.3190    1.5200  -64.9050 O   0  0  0  0  0  0  0  0  0  0  0  0
   36.6120    3.4100  -63.2990 O   0  0  0  0  0  0  0  0  0  0  0  0
   35.5110   -0.4990  -61.1620 O   0  0  0  0  0  0  0  0  0  0  0  0
   33.3610    4.7070  -59.5870 S   0  0  0  0  0  0  0  0  0  0  0  0
   35.4060   -5.1490  -66.2810 Br  0  0  0  0  0  0  0  0  0  0  0  0
   30.4620   -4.5557  -65.8887 H   0  0  0  0  0  0  0  0  0  0  0  0
   30.6248   -2.5067  -64.5039 H   0  0  0  0  0  0  0  0  0  0  0  0
   32.5313   -5.6918  -66.6492 H   0  0  0  0  0  0  0  0  0  0  0  0
   34.9020   -2.6888  -64.6712 H   0  0  0  0  0  0  0  0  0  0  0  0
   33.1654    5.2136  -56.4697 H   0  0  0  0  0  0  0  0  0  0  0  0
   33.3398    1.1686  -63.1128 H   0  0  0  0  0  0  0  0  0  0  0  0
   36.3818    0.8077  -63.3146 H   0  0  0  0  0  0  0  0  0  0  0  0
   34.5729    3.2695  -62.9561 H   0  0  0  0  0  0  0  0  0  0  0  0
   36.6869    1.9227  -61.2503 H   0  0  0  0  0  0  0  0  0  0  0  0
   33.5368   -0.0515  -61.0743 H   0  0  0  0  0  0  0  0  0  0  0  0
   35.7179    9.4870  -56.9529 H   0  0  0  0  0  0  0  0  0  0  0  0
   36.4194    8.9022  -58.4997 H   0  0  0  0  0  0  0  0  0  0  0  0
   34.8539    9.7830  -58.4997 H   0  0  0  0  0  0  0  0  0  0  0  0
   35.7869    3.4407  -59.4280 H   0  0  0  0  0  0  0  0  0  0  0  0
   36.6905    4.2597  -60.7617 H   0  0  0  0  0  0  0  0  0  0  0  0
   34.8606   -1.1061  -64.1121 H   0  0  0  0  0  0  0  0  0  0  0  0
   34.9728    5.5192  -60.9308 H   0  0  0  0  0  0  0  0  0  0  0  0
   33.9748    6.9779  -53.4563 H   0  0  0  0  0  0  0  0  0  0  0  0
   34.7168    2.2822  -65.0961 H   0  0  0  0  0  0  0  0  0  0  0  0
   37.1515    3.7551  -62.5441 H   0  0  0  0  0  0  0  0  0  0  0  0
   35.6053   -0.5799  -60.1798 H   0  0  0  0  0  0  0  0  0  0  0  0
 33  8  1  0
  3  8  1  0
  3  1  2  0
  8  4  2  0
  1  2  1  0
  4  6  1  0
 29 14  1  0
  2  6  2  0
  6 11  1  0
 11 20  1  0
 11 23  2  0
 20 13  1  0
 14 13  1  0
 14 15  1  0
 30 15  1  0
 13 17  1  0
 15 16  1  0
 17 31  1  0
 17 28  1  0
 16 28  1  0
 16 19  1  0
 21 19  1  0
 21 32  1  0
 26 32  2  0
 32 25  2  0
 32 10  1  0
 27 10  1  0
 27  9  1  0
 10  5  2  0
 18  9  1  0
  9  7  2  0
  5  7  1  0
  7 12  1  0
 12 22  2  0
 12 24  1  0
  1 34  1  0
  2 35  1  0
  3 36  1  0
  4 37  1  0
  5 38  1  0
 13 39  1  0
 14 40  1  0
 15 41  1  0
 16 42  1  0
 17 43  1  0
 18 44  1  0
 18 45  1  0
 18 46  1  0
 19 47  1  0
 19 48  1  0
 20 49  1  0
 21 50  1  0
 24 51  1  0
 29 52  1  0
 30 53  1  0
 31 54  1  0
A    1
C1
A    2
C2
A    3
C3
A    4
C4
A    5
C5
A    6
C6
A    7
C7
A    8
C8
A    9
C9
A   10
C10
A   11
C11
A   12
C12
A   13
C13
A   14
C14
A   15
C15
A   16
C16
A   17
C17
A   18
C18
A   19
C19
A   20
N20
A   21
N21
A   22
O22
A   23
O23
A   24
O24
A   25
O25
A   26
O26
A   27
O27
A   28
O28
A   29
O29
A   30
O30
A   31
O31
A   32
S32
A   33
BR
M  END
