5HG1_62C_A_1001
     RDKit          3D

 41 42  0  0  0  0  0  0  0  0999 V2000
   66.4630  -49.3970  -72.1390 C   0  0  0  0  0  0  0  0  0  0  0  0
   65.9480  -49.4130  -70.6980 C   0  0  0  0  0  0  0  0  0  0  0  0
   65.9670  -50.7830  -70.0660 C   0  0  0  0  0  0  0  0  0  0  0  0
   68.0660  -44.8230  -71.5150 C   0  0  0  0  0  0  0  0  0  0  0  0
   67.9720  -43.4670  -72.0480 C   0  0  0  0  0  0  0  0  0  0  0  0
   67.8730  -40.8180  -73.2170 C   0  0  0  0  0  0  0  0  0  0  0  0
   68.5890  -38.5430  -73.1250 C   0  0  0  0  0  0  0  0  0  0  0  0
   69.1110  -40.0360  -71.3160 C   0  0  0  0  0  0  0  0  0  0  0  0
   69.9870  -37.5220  -71.0520 Cl  0  0  0  0  0  0  0  0  0  0  0  0
   69.1710  -38.7810  -71.8910 C   0  0  0  0  0  0  0  0  0  0  0  0
   68.6550  -36.9670  -73.8440 Cl  0  0  0  0  0  0  0  0  0  0  0  0
   67.9410  -39.5640  -73.7940 C   0  0  0  0  0  0  0  0  0  0  0  0
   68.4280  -41.0650  -71.9600 C   0  0  0  0  0  0  0  0  0  0  0  0
   68.4170  -42.4130  -71.3900 C   0  0  0  0  0  0  0  0  0  0  0  0
   68.9180  -45.1680  -70.6790 O   0  0  0  0  0  0  0  0  0  0  0  0
   67.2410  -45.7000  -72.0820 N   0  0  0  0  0  0  0  0  0  0  0  0
   67.3010  -47.0860  -71.6650 C   0  0  0  0  0  0  0  0  0  0  0  0
   66.7460  -47.2520  -70.2560 C   0  0  0  0  0  0  0  0  0  0  0  0
   65.4550  -46.7430  -70.2210 O   0  0  0  0  0  0  0  0  0  0  0  0
   66.5430  -47.9690  -72.6500 C   0  0  0  0  0  0  0  0  0  0  0  0
   67.2350  -47.9370  -73.8840 O   0  0  0  0  0  0  0  0  0  0  0  0
   65.6130  -50.1570  -72.9880 O   0  0  0  0  0  0  0  0  0  0  0  0
   66.7980  -48.5900  -69.8930 O   0  0  0  0  0  0  0  0  0  0  0  0
   67.2750  -51.3250  -70.1160 O   0  0  0  0  0  0  0  0  0  0  0  0
   67.4668  -49.8468  -72.1480 H   0  0  0  0  0  0  0  0  0  0  0  0
   64.9080  -49.0575  -70.7419 H   0  0  0  0  0  0  0  0  0  0  0  0
   65.6459  -50.7040  -69.0169 H   0  0  0  0  0  0  0  0  0  0  0  0
   65.2826  -51.4435  -70.6186 H   0  0  0  0  0  0  0  0  0  0  0  0
   67.5125  -43.3181  -73.0363 H   0  0  0  0  0  0  0  0  0  0  0  0
   67.3731  -41.6354  -73.7574 H   0  0  0  0  0  0  0  0  0  0  0  0
   69.6026  -40.2224  -70.3498 H   0  0  0  0  0  0  0  0  0  0  0  0
   67.4833  -39.3802  -74.7772 H   0  0  0  0  0  0  0  0  0  0  0  0
   68.7967  -42.5540  -70.3673 H   0  0  0  0  0  0  0  0  0  0  0  0
   66.5717  -45.3986  -72.8045 H   0  0  0  0  0  0  0  0  0  0  0  0
   68.3553  -47.3997  -71.6544 H   0  0  0  0  0  0  0  0  0  0  0  0
   67.3501  -46.6930  -69.5263 H   0  0  0  0  0  0  0  0  0  0  0  0
   65.1700  -46.6306  -69.2796 H   0  0  0  0  0  0  0  0  0  0  0  0
   65.5152  -47.5964  -72.7717 H   0  0  0  0  0  0  0  0  0  0  0  0
   68.2094  -47.8919  -73.7148 H   0  0  0  0  0  0  0  0  0  0  0  0
   65.0001  -50.7050  -72.4364 H   0  0  0  0  0  0  0  0  0  0  0  0
   67.6101  -51.4639  -69.1948 H   0  0  0  0  0  0  0  0  0  0  0  0
 21 20  1  0
 11  7  1  0
 12  6  2  0
 12  7  1  0
  6 13  1  0
  7 10  2  0
 22  1  1  0
 20  1  1  0
 20 17  1  0
  1  2  1  0
 16 17  1  0
 16  4  1  0
  5  4  1  0
  5 14  2  0
 13 14  1  0
 13  8  2  0
 10  8  1  0
 10  9  1  0
 17 18  1  0
  4 15  2  0
  2  3  1  0
  2 23  1  0
 18 19  1  0
 18 23  1  0
 24  3  1  0
  1 25  1  0
  2 26  1  0
  3 27  1  0
  3 28  1  0
  5 29  1  0
  6 30  1  0
  8 31  1  0
 12 32  1  0
 14 33  1  0
 16 34  1  0
 17 35  1  0
 18 36  1  0
 19 37  1  0
 20 38  1  0
 21 39  1  0
 22 40  1  0
 24 41  1  0
A    1
C4
A    2
C5
A    3
C6
A    4
C8
A    5
C10
A    6
C13
A    7
C15
A    8
C17
A    9
CL1
A   10
C16
A   11
CL2
A   12
C14
A   13
C12
A   14
C11
A   15
O9
A   16
N7
A   17
C2
A   18
C1
A   19
O1
A   20
C3
A   21
O3
A   22
O4
A   23
O5
A   24
O6
M  END
