5HI5_63Q_B_4000
     RDKit          3D

 77 81  0  0  0  0  0  0  0  0999 V2000
   72.4260  -45.6470  -44.5450 C   0  0  0  0  0  0  0  0  0  0  0  0
   72.5360  -47.9660  -47.1250 C   0  0  0  0  0  0  0  0  0  0  0  0
   82.0680  -40.0740  -46.6840 N   0  0  0  0  0  0  0  0  0  0  0  0
   80.4510  -39.4600  -44.9150 C   0  0  0  0  0  0  0  0  0  0  0  0
   78.6800  -44.9020  -44.4300 N   0  0  0  0  0  0  0  0  0  0  0  0
   78.6450  -42.7350  -45.6400 C   0  0  0  0  0  0  0  0  0  0  0  0
   79.0860  -41.4130  -45.7310 C   0  0  0  0  0  0  0  0  0  0  0  0
   79.9450  -43.0180  -43.6330 C   0  0  0  0  0  0  0  0  0  0  0  0
   78.7920  -48.0860  -45.2470 C   0  0  0  0  0  0  0  0  0  0  0  0
   83.0380  -45.5740  -46.1090 C   0  0  0  0  0  0  0  0  0  0  0  0
   84.4020  -45.8130  -46.3390 C   0  0  0  0  0  0  0  0  0  0  0  0
   79.0750  -43.5530  -44.5920 C   0  0  0  0  0  0  0  0  0  0  0  0
   71.8780  -47.0730  -46.3900 N   0  0  0  0  0  0  0  0  0  0  0  0
   82.0020  -47.7510  -43.1640 C   0  0  0  0  0  0  0  0  0  0  0  0
   82.2520  -46.4550  -45.2170 C   0  0  0  0  0  0  0  0  0  0  0  0
   80.7250  -48.1650  -43.5520 C   0  0  0  0  0  0  0  0  0  0  0  0
   82.4730  -42.5960  -48.4640 C   0  0  0  0  0  0  0  0  0  0  0  0
   82.1600  -36.0030  -47.2240 C   0  0  0  0  0  0  0  0  0  0  0  0
   81.8800  -37.3690  -46.8490 N   0  0  0  0  0  0  0  0  0  0  0  0
   82.2700  -37.8950  -45.6280 C   0  0  0  0  0  0  0  0  0  0  0  0
   82.7510  -37.2290  -44.7110 O   0  0  0  0  0  0  0  0  0  0  0  0
   81.8970  -39.3640  -45.4220 C   0  0  0  0  0  0  0  0  0  0  0  0
   79.9620  -40.8800  -44.7780 C   0  0  0  0  0  0  0  0  0  0  0  0
   80.3880  -41.6960  -43.7270 C   0  0  0  0  0  0  0  0  0  0  0  0
   77.9690  -45.6790  -45.3410 C   0  0  0  0  0  0  0  0  0  0  0  0
   77.6110  -45.3470  -46.4680 O   0  0  0  0  0  0  0  0  0  0  0  0
   77.7070  -47.0920  -44.8050 C   0  0  0  0  0  0  0  0  0  0  0  0
   80.1850  -47.7360  -44.7700 C   0  0  0  0  0  0  0  0  0  0  0  0
   80.9690  -46.8930  -45.5860 C   0  0  0  0  0  0  0  0  0  0  0  0
   82.7520  -46.9040  -43.9870 C   0  0  0  0  0  0  0  0  0  0  0  0
   79.8570  -49.2120  -42.4860 Cl  0  0  0  0  0  0  0  0  0  0  0  0
   85.1390  -45.0240  -47.2220 C   0  0  0  0  0  0  0  0  0  0  0  0
   84.5250  -43.9780  -47.9050 C   0  0  0  0  0  0  0  0  0  0  0  0
   83.1710  -43.6950  -47.6950 C   0  0  0  0  0  0  0  0  0  0  0  0
   82.4430  -44.4990  -46.8000 C   0  0  0  0  0  0  0  0  0  0  0  0
   83.2000  -41.2500  -48.4600 C   0  0  0  0  0  0  0  0  0  0  0  0
   83.2700  -40.6430  -47.0730 C   0  0  0  0  0  0  0  0  0  0  0  0
   84.2950  -40.6860  -46.3970 O   0  0  0  0  0  0  0  0  0  0  0  0
   76.4100  -47.4720  -45.3640 N   0  0  0  0  0  0  0  0  0  0  0  0
   75.2120  -47.0010  -44.8280 C   0  0  0  0  0  0  0  0  0  0  0  0
   75.1680  -46.3710  -43.7730 O   0  0  0  0  0  0  0  0  0  0  0  0
   74.0330  -47.2700  -45.6380 C   0  0  0  0  0  0  0  0  0  0  0  0
   73.8630  -48.1390  -46.7010 C   0  0  0  0  0  0  0  0  0  0  0  0
   72.7980  -46.6680  -45.4940 N   0  0  0  0  0  0  0  0  0  0  0  0
   72.5650  -46.0285  -43.5227 H   0  0  0  0  0  0  0  0  0  0  0  0
   73.0586  -44.7596  -44.6944 H   0  0  0  0  0  0  0  0  0  0  0  0
   71.3708  -45.3745  -44.6944 H   0  0  0  0  0  0  0  0  0  0  0  0
   72.0895  -48.5086  -47.9713 H   0  0  0  0  0  0  0  0  0  0  0  0
   81.2582  -40.1563  -47.3152 H   0  0  0  0  0  0  0  0  0  0  0  0
   80.3930  -38.9738  -43.9300 H   0  0  0  0  0  0  0  0  0  0  0  0
   79.8103  -38.9643  -45.6592 H   0  0  0  0  0  0  0  0  0  0  0  0
   78.9464  -45.3571  -43.5452 H   0  0  0  0  0  0  0  0  0  0  0  0
   77.9551  -43.1346  -46.3978 H   0  0  0  0  0  0  0  0  0  0  0  0
   78.7403  -40.7819  -46.5630 H   0  0  0  0  0  0  0  0  0  0  0  0
   80.2835  -43.6462  -42.7959 H   0  0  0  0  0  0  0  0  0  0  0  0
   78.5315  -49.0792  -44.8523 H   0  0  0  0  0  0  0  0  0  0  0  0
   78.8178  -48.0578  -46.3463 H   0  0  0  0  0  0  0  0  0  0  0  0
   84.9001  -46.6400  -45.8117 H   0  0  0  0  0  0  0  0  0  0  0  0
   82.4200  -48.0931  -42.2058 H   0  0  0  0  0  0  0  0  0  0  0  0
   81.4767  -42.4483  -48.0218 H   0  0  0  0  0  0  0  0  0  0  0  0
   82.4373  -42.9260  -49.5127 H   0  0  0  0  0  0  0  0  0  0  0  0
   82.2852  -35.3923  -46.3177 H   0  0  0  0  0  0  0  0  0  0  0  0
   83.0839  -35.9684  -47.8200 H   0  0  0  0  0  0  0  0  0  0  0  0
   81.3242  -35.6077  -47.8200 H   0  0  0  0  0  0  0  0  0  0  0  0
   81.3731  -37.9729  -47.5118 H   0  0  0  0  0  0  0  0  0  0  0  0
   82.5507  -39.8266  -44.6678 H   0  0  0  0  0  0  0  0  0  0  0  0
   81.0766  -41.2952  -42.9686 H   0  0  0  0  0  0  0  0  0  0  0  0
   77.7176  -47.1076  -43.7052 H   0  0  0  0  0  0  0  0  0  0  0  0
   80.5582  -46.5648  -46.5522 H   0  0  0  0  0  0  0  0  0  0  0  0
   83.7533  -46.5843  -43.6626 H   0  0  0  0  0  0  0  0  0  0  0  0
   86.2083  -45.2289  -47.3791 H   0  0  0  0  0  0  0  0  0  0  0  0
   85.1074  -43.3707  -48.6136 H   0  0  0  0  0  0  0  0  0  0  0  0
   81.3773  -44.2826  -46.6341 H   0  0  0  0  0  0  0  0  0  0  0  0
   84.2237  -41.3989  -48.8339 H   0  0  0  0  0  0  0  0  0  0  0  0
   82.6361  -40.5589  -49.1037 H   0  0  0  0  0  0  0  0  0  0  0  0
   76.3807  -48.1050  -46.1760 H   0  0  0  0  0  0  0  0  0  0  0  0
   74.6121  -48.8234  -47.1258 H   0  0  0  0  0  0  0  0  0  0  0  0
 17 36  1  0
 17 34  1  0
 36 37  1  0
 33 34  2  0
 33 32  1  0
 34 35  1  0
 18 19  1  0
 32 11  2  0
  2 43  1  0
  2 13  2  0
 37  3  1  0
 37 38  2  0
 19 20  1  0
 35 10  2  0
 43 42  2  0
  3 22  1  0
 26 25  2  0
 13 44  1  0
 11 10  1  0
 10 15  1  0
  7  6  2  0
  7 23  1  0
  6 12  1  0
 42 44  1  0
 42 40  1  0
 20 22  1  0
 20 21  2  0
 29 15  1  0
 29 28  2  0
 44  1  1  0
 22  4  1  0
 39 40  1  0
 39 27  1  0
 25 27  1  0
 25  5  1  0
  9 27  1  0
  9 28  1  0
 15 30  2  0
  4 23  1  0
 40 41  2  0
 23 24  2  0
 28 16  1  0
 12  5  1  0
 12  8  2  0
 30 14  1  0
 24  8  1  0
 16 14  2  0
 16 31  1  0
  1 45  1  0
  1 46  1  0
  1 47  1  0
  2 48  1  0
  3 49  1  0
  4 50  1  0
  4 51  1  0
  5 52  1  0
  6 53  1  0
  7 54  1  0
  8 55  1  0
  9 56  1  0
  9 57  1  0
 11 58  1  0
 14 59  1  0
 17 60  1  0
 17 61  1  0
 18 62  1  0
 18 63  1  0
 18 64  1  0
 19 65  1  0
 22 66  1  0
 24 67  1  0
 27 68  1  0
 29 69  1  0
 30 70  1  0
 32 71  1  0
 33 72  1  0
 35 73  1  0
 36 74  1  0
 36 75  1  0
 39 76  1  0
 43 77  1  0
A    1
C33
A    2
C32
A    3
N3
A    4
C4
A    5
N2
A    6
C7
A    7
C6
A    8
C9
A    9
C13
A   10
C20
A   11
C21
A   12
C8
A   13
N5
A   14
C18
A   15
C16
A   16
C19
A   17
C26
A   18
C1
A   19
N1
A   20
C2
A   21
O1
A   22
C3
A   23
C5
A   24
C10
A   25
C11
A   26
O2
A   27
C12
A   28
C14
A   29
C15
A   30
C17
A   31
CL1
A   32
C22
A   33
C23
A   34
C24
A   35
C25
A   36
C27
A   37
C28
A   38
O3
A   39
N4
A   40
C29
A   41
O4
A   42
C30
A   43
C31
A   44
N6
M  END
