5HIC_63N_A_1102
     RDKit          3D

 50 54  0  0  0  0  0  0  0  0999 V2000
  -55.2830    1.0110  -24.3410 C   0  0  0  0  0  0  0  0  0  0  0  0
  -51.3630   -0.3170  -19.1720 C   0  0  0  0  0  0  0  0  0  0  0  0
  -52.9920    1.0180  -19.6940 C   0  0  0  0  0  0  0  0  0  0  0  0
  -52.6360    0.2990  -20.8650 C   0  0  0  0  0  0  0  0  0  0  0  0
  -53.3320    0.5580  -22.0470 C   0  0  0  0  0  0  0  0  0  0  0  0
  -54.3950    1.4640  -22.0370 C   0  0  0  0  0  0  0  0  0  0  0  0
  -54.0280    1.9600  -19.7840 C   0  0  0  0  0  0  0  0  0  0  0  0
  -51.5800   -2.8630  -21.2960 C   0  0  0  0  0  0  0  0  0  0  0  0
  -49.4130   -1.5770  -21.1820 C   0  0  0  0  0  0  0  0  0  0  0  0
  -50.9250   -1.4840  -21.4130 C   0  0  0  0  0  0  0  0  0  0  0  0
  -51.5960   -0.5310  -20.5080 N   0  0  0  0  0  0  0  0  0  0  0  0
  -52.1650    0.5950  -18.7020 N   0  0  0  0  0  0  0  0  0  0  0  0
  -54.6880    2.1380  -20.9220 N   0  0  0  0  0  0  0  0  0  0  0  0
  -55.1130    1.7870  -23.1980 N   0  0  0  0  0  0  0  0  0  0  0  0
  -56.5040    1.1070  -25.0280 C   0  0  0  0  0  0  0  0  0  0  0  0
  -56.6740    0.3330  -26.1680 C   0  0  0  0  0  0  0  0  0  0  0  0
  -55.6990   -0.4810  -26.5690 N   0  0  0  0  0  0  0  0  0  0  0  0
  -54.5390   -0.5530  -25.9110 C   0  0  0  0  0  0  0  0  0  0  0  0
  -54.3280    0.1920  -24.8200 N   0  0  0  0  0  0  0  0  0  0  0  0
  -53.4990   -1.5120  -26.3680 C   0  0  0  0  0  0  0  0  0  0  0  0
  -53.3550   -2.1000  -27.6450 C   0  0  0  0  0  0  0  0  0  0  0  0
  -52.3440   -2.9280  -27.6020 N   0  0  0  0  0  0  0  0  0  0  0  0
  -51.8170   -2.9260  -26.2990 N   0  0  0  0  0  0  0  0  0  0  0  0
  -52.5450   -2.0640  -25.5640 C   0  0  0  0  0  0  0  0  0  0  0  0
  -50.5290   -3.8290  -25.7250 S   0  0  0  0  0  0  0  0  0  0  0  0
  -49.8410   -4.2020  -26.9150 O   0  0  0  0  0  0  0  0  0  0  0  0
  -49.9190   -2.9990  -24.7380 O   0  0  0  0  0  0  0  0  0  0  0  0
  -51.2780   -5.2920  -24.9380 C   0  0  0  0  0  0  0  0  0  0  0  0
  -50.4540   -6.5840  -24.8980 C   0  0  0  0  0  0  0  0  0  0  0  0
  -50.6890   -5.7870  -23.6140 C   0  0  0  0  0  0  0  0  0  0  0  0
  -50.6017   -0.8447  -18.5787 H   0  0  0  0  0  0  0  0  0  0  0  0
  -53.0451    0.0517  -22.9805 H   0  0  0  0  0  0  0  0  0  0  0  0
  -54.2966    2.5583  -18.9009 H   0  0  0  0  0  0  0  0  0  0  0  0
  -51.7029   -3.1216  -20.2339 H   0  0  0  0  0  0  0  0  0  0  0  0
  -52.5651   -2.8437  -21.7850 H   0  0  0  0  0  0  0  0  0  0  0  0
  -50.9426   -3.6144  -21.7850 H   0  0  0  0  0  0  0  0  0  0  0  0
  -49.2073   -1.5897  -20.1015 H   0  0  0  0  0  0  0  0  0  0  0  0
  -49.0283   -2.5005  -21.6393 H   0  0  0  0  0  0  0  0  0  0  0  0
  -48.9180   -0.7076  -21.6393 H   0  0  0  0  0  0  0  0  0  0  0  0
  -51.0518   -1.1000  -22.4360 H   0  0  0  0  0  0  0  0  0  0  0  0
  -55.5697    2.7102  -23.2056 H   0  0  0  0  0  0  0  0  0  0  0  0
  -57.3022    1.7757  -24.6734 H   0  0  0  0  0  0  0  0  0  0  0  0
  -57.6123    0.3919  -26.7391 H   0  0  0  0  0  0  0  0  0  0  0  0
  -53.9848   -1.8962  -28.5235 H   0  0  0  0  0  0  0  0  0  0  0  0
  -52.3959   -1.8426  -24.4969 H   0  0  0  0  0  0  0  0  0  0  0  0
  -52.2852   -5.0176  -25.2847 H   0  0  0  0  0  0  0  0  0  0  0  0
  -50.9484   -7.5563  -25.0401 H   0  0  0  0  0  0  0  0  0  0  0  0
  -49.5667   -6.9574  -25.4303 H   0  0  0  0  0  0  0  0  0  0  0  0
  -49.8564   -5.2423  -23.1450 H   0  0  0  0  0  0  0  0  0  0  0  0
  -51.0983   -6.0184  -22.6196 H   0  0  0  0  0  0  0  0  0  0  0  0
 21 22  2  0
 21 20  1  0
 22 23  1  0
 26 25  2  0
 17 16  1  0
 17 18  2  0
 20 18  1  0
 20 24  2  0
 23 25  1  0
 23 24  1  0
 16 15  2  0
 18 19  1  0
 25 28  1  0
 25 27  2  0
 15  1  1  0
 28 29  1  0
 28 30  1  0
 29 30  1  0
 19  1  2  0
  1 14  1  0
 14  6  1  0
  5  6  1  0
  5  4  2  0
  6 13  2  0
 10  8  1  0
 10  9  1  0
 10 11  1  0
 13  7  1  0
  4 11  1  0
  4  3  1  0
 11  2  1  0
  7  3  2  0
  3 12  1  0
  2 12  2  0
  2 31  1  0
  5 32  1  0
  7 33  1  0
  8 34  1  0
  8 35  1  0
  8 36  1  0
  9 37  1  0
  9 38  1  0
  9 39  1  0
 10 40  1  0
 14 41  1  0
 15 42  1  0
 16 43  1  0
 21 44  1  0
 24 45  1  0
 28 46  1  0
 29 47  1  0
 29 48  1  0
 30 49  1  0
 30 50  1  0
A    1
C14
A    2
C5
A    3
C7
A    4
C8
A    5
C9
A    6
C10
A    7
C12
A    8
C3
A    9
C1
A   10
C2
A   11
N4
A   12
N6
A   13
N11
A   14
N13
A   15
C15
A   16
C16
A   17
N17
A   18
C18
A   19
N19
A   20
C20
A   21
C21
A   22
N22
A   23
N23
A   24
C24
A   25
S25
A   26
O26
A   27
O27
A   28
C28
A   29
C29
A   30
C30
M  END
