4XV2_P06_A_801
     RDKit          3D

 55 58  0  0  0  0  0  0  0  0999 V2000
    4.8550   -1.3790  -18.6890 C   0  0  0  0  0  0  0  0  0  0  0  0
    3.1310   -2.1840  -20.0210 C   0  0  0  0  0  0  0  0  0  0  0  0
    4.4530   -1.9240  -19.8650 N   0  0  0  0  0  0  0  0  0  0  0  0
    2.2080   -1.9280  -19.0200 C   0  0  0  0  0  0  0  0  0  0  0  0
    4.0120   -1.0880  -17.6720 N   0  0  0  0  0  0  0  0  0  0  0  0
    2.7080   -1.3710  -17.8650 C   0  0  0  0  0  0  0  0  0  0  0  0
    6.2010   -1.0990  -18.5190 N   0  0  0  0  0  0  0  0  0  0  0  0
    2.7720   -2.7900  -21.3100 C   0  0  0  0  0  0  0  0  0  0  0  0
    4.0380   -3.4200  -22.2970 S   0  0  0  0  0  0  0  0  0  0  0  0
    2.9150   -3.9280  -23.4950 C   0  0  0  0  0  0  0  0  0  0  0  0
    1.6650   -3.6530  -23.1940 N   0  0  0  0  0  0  0  0  0  0  0  0
    1.5710   -3.0200  -21.9700 C   0  0  0  0  0  0  0  0  0  0  0  0
    3.3580   -4.6250  -24.7820 C   0  0  0  0  0  0  0  0  0  0  0  0
    3.1110   -3.7120  -25.9970 C   0  0  0  0  0  0  0  0  0  0  0  0
    2.5340   -5.9160  -24.9760 C   0  0  0  0  0  0  0  0  0  0  0  0
    4.8410   -5.0350  -24.7300 C   0  0  0  0  0  0  0  0  0  0  0  0
    0.2370   -2.6530  -21.5300 C   0  0  0  0  0  0  0  0  0  0  0  0
   -2.0300   -3.3300  -20.9750 C   0  0  0  0  0  0  0  0  0  0  0  0
   -0.7350   -3.6430  -21.3750 C   0  0  0  0  0  0  0  0  0  0  0  0
   -2.3790   -2.0010  -20.7250 C   0  0  0  0  0  0  0  0  0  0  0  0
   -0.1220   -1.3180  -21.2870 C   0  0  0  0  0  0  0  0  0  0  0  0
   -1.4200   -1.0000  -20.8840 C   0  0  0  0  0  0  0  0  0  0  0  0
   -0.4330   -4.9270  -21.6070 F   0  0  0  0  0  0  0  0  0  0  0  0
   -2.9390   -4.4300  -20.8410 N   0  0  0  0  0  0  0  0  0  0  0  0
   -4.6350   -4.2090  -20.9450 S   0  0  0  0  0  0  0  0  0  0  0  0
   -5.0650   -3.7710  -19.2800 C   0  0  0  0  0  0  0  0  0  0  0  0
   -5.9130   -2.2500  -17.6010 C   0  0  0  0  0  0  0  0  0  0  0  0
   -5.5840   -2.5250  -18.9280 C   0  0  0  0  0  0  0  0  0  0  0  0
   -5.7210   -3.2200  -16.6140 C   0  0  0  0  0  0  0  0  0  0  0  0
   -4.8790   -4.7330  -18.2890 C   0  0  0  0  0  0  0  0  0  0  0  0
   -5.2020   -4.4680  -16.9600 C   0  0  0  0  0  0  0  0  0  0  0  0
   -4.3800   -5.9350  -18.6060 F   0  0  0  0  0  0  0  0  0  0  0  0
   -5.7860   -1.5650  -19.8360 F   0  0  0  0  0  0  0  0  0  0  0  0
   -4.9590   -3.1260  -21.8520 O   0  0  0  0  0  0  0  0  0  0  0  0
   -5.2660   -5.4970  -21.1630 O   0  0  0  0  0  0  0  0  0  0  0  0
    1.1388   -2.1564  -19.1412 H   0  0  0  0  0  0  0  0  0  0  0  0
    2.0027   -1.1435  -17.0521 H   0  0  0  0  0  0  0  0  0  0  0  0
    6.5942   -1.0172  -17.5705 H   0  0  0  0  0  0  0  0  0  0  0  0
    6.8086   -0.9726  -19.3411 H   0  0  0  0  0  0  0  0  0  0  0  0
    2.8385   -2.7046  -25.6493 H   0  0  0  0  0  0  0  0  0  0  0  0
    4.0260   -3.6550  -26.6049 H   0  0  0  0  0  0  0  0  0  0  0  0
    2.2921   -4.1241  -26.6049 H   0  0  0  0  0  0  0  0  0  0  0  0
    2.2682   -6.3325  -23.9932 H   0  0  0  0  0  0  0  0  0  0  0  0
    1.6163   -5.6845  -25.5365 H   0  0  0  0  0  0  0  0  0  0  0  0
    3.1304   -6.6509  -25.5365 H   0  0  0  0  0  0  0  0  0  0  0  0
    5.1604   -5.1233  -23.6811 H   0  0  0  0  0  0  0  0  0  0  0  0
    4.9718   -6.0030  -25.2359 H   0  0  0  0  0  0  0  0  0  0  0  0
    5.4504   -4.2716  -25.2359 H   0  0  0  0  0  0  0  0  0  0  0  0
   -3.4003   -1.7458  -20.4058 H   0  0  0  0  0  0  0  0  0  0  0  0
    0.6229   -0.5188  -21.4147 H   0  0  0  0  0  0  0  0  0  0  0  0
   -1.6892    0.0488  -20.6901 H   0  0  0  0  0  0  0  0  0  0  0  0
   -2.5640   -5.3754  -20.6784 H   0  0  0  0  0  0  0  0  0  0  0  0
   -6.3249   -1.2665  -17.3306 H   0  0  0  0  0  0  0  0  0  0  0  0
   -5.9782   -3.0004  -15.5673 H   0  0  0  0  0  0  0  0  0  0  0  0
   -5.0489   -5.2373  -16.1888 H   0  0  0  0  0  0  0  0  0  0  0  0
 29 31  1  0
 29 27  2  0
 31 30  2  0
 27 28  1  0
 30 32  1  0
 30 26  1  0
 28 26  2  0
 28 33  1  0
 26 25  1  0
  6  5  1  0
  6  4  2  0
  5  1  2  0
  4  2  1  0
 25 35  2  0
 25 24  1  0
 25 34  2  0
 20 22  2  0
 20 18  1  0
  1  7  1  0
  1  3  1  0
 24 18  1  0
 22 21  1  0
 18 19  2  0
  2  3  2  0
  2  8  1  0
 21 17  2  0
 19 17  1  0
 19 23  1  0
 17 12  1  0
  8 12  2  0
  8  9  1  0
 12 11  1  0
  9 10  1  0
 11 10  2  0
 10 13  1  0
 13 16  1  0
 13 14  1  0
 13 15  1  0
  4 36  1  0
  6 37  1  0
  7 38  1  0
  7 39  1  0
 14 40  1  0
 14 41  1  0
 14 42  1  0
 15 43  1  0
 15 44  1  0
 15 45  1  0
 16 46  1  0
 16 47  1  0
 16 48  1  0
 20 49  1  0
 21 50  1  0
 22 51  1  0
 24 52  1  0
 27 53  1  0
 29 54  1  0
 31 55  1  0
A    1
C1
A    2
C2
A    3
N3
A    4
C4
A    5
N6
A    6
C7
A    7
N9
A    8
C12
A    9
S13
A   10
C14
A   11
N15
A   12
C16
A   13
C17
A   14
C18
A   15
C22
A   16
C26
A   17
C30
A   18
C31
A   19
C32
A   20
C33
A   21
C35
A   22
C37
A   23
F39
A   24
N40
A   25
S42
A   26
C43
A   27
C44
A   28
C46
A   29
C47
A   30
C49
A   31
C50
A   32
F52
A   33
F53
A   34
O54
A   35
O55
M  END
