5HJP_668_B_501
     RDKit          3D

 70 72  0  0  0  0  0  0  0  0999 V2000
   -4.3180  -11.5730   14.5280 F   0  0  0  0  0  0  0  0  0  0  0  0
   -4.0290  -10.4820   15.2320 C   0  0  0  0  0  0  0  0  0  0  0  0
   -3.2050   -9.7470   14.4890 F   0  0  0  0  0  0  0  0  0  0  0  0
   -3.3340  -10.8800   16.2820 F   0  0  0  0  0  0  0  0  0  0  0  0
   -5.2910   -9.7060   15.6380 C   0  0  0  0  0  0  0  0  0  0  0  0
   -6.0100   -9.6080   14.4110 O   0  0  0  0  0  0  0  0  0  0  0  0
   -6.2450  -10.3680   16.6620 C   0  0  0  0  0  0  0  0  0  0  0  0
   -6.6310  -11.7950   16.2600 C   0  0  0  0  0  0  0  0  0  0  0  0
   -7.5040   -9.5400   16.8880 C   0  0  0  0  0  0  0  0  0  0  0  0
   -4.7990   -8.3240   16.1220 C   0  0  0  0  0  0  0  0  0  0  0  0
   -5.0590   -7.4550   15.3090 O   0  0  0  0  0  0  0  0  0  0  0  0
   -4.1730   -8.0190   17.2840 N   0  0  0  0  0  0  0  0  0  0  0  0
   -3.6860   -6.6600   17.5500 C   0  0  0  0  0  0  0  0  0  0  0  0
   -4.3500   -6.0710   18.7930 C   0  0  0  0  0  0  0  0  0  0  0  0
   -4.2740   -6.9690   20.0370 C   0  0  0  0  0  0  0  0  0  0  0  0
   -4.5970   -8.4250   19.6730 C   0  0  0  0  0  0  0  0  0  0  0  0
   -3.8430   -8.8750   18.4310 C   0  0  0  0  0  0  0  0  0  0  0  0
   -5.1790   -6.4360   21.1840 C   0  0  0  0  0  0  0  0  0  0  0  0
   -5.6250   -7.5160   22.1690 C   0  0  0  0  0  0  0  0  0  0  0  0
   -6.7940   -6.9840   22.9900 C   0  0  0  0  0  0  0  0  0  0  0  0
   -6.6360   -5.5230   23.3920 N   0  0  0  0  0  0  0  0  0  0  0  0
   -5.6540   -4.5570   22.7500 C   0  0  0  0  0  0  0  0  0  0  0  0
   -4.5600   -5.2670   21.9470 C   0  0  0  0  0  0  0  0  0  0  0  0
   -7.1480   -5.0640   24.7020 C   0  0  0  0  0  0  0  0  0  0  0  0
   -8.2300   -5.7210   25.2650 C   0  0  0  0  0  0  0  0  0  0  0  0
   -8.6690   -5.3450   26.5170 C   0  0  0  0  0  0  0  0  0  0  0  0
  -10.1090   -6.0940   27.1120 Cl  0  0  0  0  0  0  0  0  0  0  0  0
   -8.0340   -4.3350   27.2440 C   0  0  0  0  0  0  0  0  0  0  0  0
   -6.9480   -3.6820   26.6480 C   0  0  0  0  0  0  0  0  0  0  0  0
   -6.5100   -4.0280   25.3790 C   0  0  0  0  0  0  0  0  0  0  0  0
   -8.5180   -3.9170   28.6100 C   0  0  0  0  0  0  0  0  0  0  0  0
   -8.0280   -4.4490   29.5960 O   0  0  0  0  0  0  0  0  0  0  0  0
   -9.4900   -2.9930   28.6920 N   0  0  0  0  0  0  0  0  0  0  0  0
  -10.0700   -2.5460   29.9590 C   0  0  0  0  0  0  0  0  0  0  0  0
  -10.0800   -2.3590   27.5110 C   0  0  0  0  0  0  0  0  0  0  0  0
   -6.9725   -9.4768   14.6021 H   0  0  0  0  0  0  0  0  0  0  0  0
   -5.6825  -10.4161   17.6061 H   0  0  0  0  0  0  0  0  0  0  0  0
   -6.7944  -12.3992   17.1645 H   0  0  0  0  0  0  0  0  0  0  0  0
   -7.5548  -11.7707   15.6634 H   0  0  0  0  0  0  0  0  0  0  0  0
   -5.8209  -12.2397   15.6634 H   0  0  0  0  0  0  0  0  0  0  0  0
   -7.6784   -9.4253   17.9680 H   0  0  0  0  0  0  0  0  0  0  0  0
   -7.3777   -8.5481   16.4296 H   0  0  0  0  0  0  0  0  0  0  0  0
   -8.3647  -10.0489   16.4296 H   0  0  0  0  0  0  0  0  0  0  0  0
   -2.5975   -6.6925   17.7055 H   0  0  0  0  0  0  0  0  0  0  0  0
   -3.9347   -6.0248   16.6871 H   0  0  0  0  0  0  0  0  0  0  0  0
   -3.8568   -5.1160   19.0270 H   0  0  0  0  0  0  0  0  0  0  0  0
   -5.4174   -5.9542   18.5540 H   0  0  0  0  0  0  0  0  0  0  0  0
   -3.2418   -6.9431   20.4164 H   0  0  0  0  0  0  0  0  0  0  0  0
   -5.6773   -8.5145   19.4861 H   0  0  0  0  0  0  0  0  0  0  0  0
   -4.2878   -9.0650   20.5125 H   0  0  0  0  0  0  0  0  0  0  0  0
   -4.1194   -9.9138   18.1975 H   0  0  0  0  0  0  0  0  0  0  0  0
   -2.7631   -8.8020   18.6273 H   0  0  0  0  0  0  0  0  0  0  0  0
   -6.0746   -6.0704   20.6603 H   0  0  0  0  0  0  0  0  0  0  0  0
   -5.9404   -8.4128   21.6156 H   0  0  0  0  0  0  0  0  0  0  0  0
   -4.7908   -7.7793   22.8359 H   0  0  0  0  0  0  0  0  0  0  0  0
   -7.7129   -7.0841   22.3937 H   0  0  0  0  0  0  0  0  0  0  0  0
   -6.8340   -7.5735   23.9178 H   0  0  0  0  0  0  0  0  0  0  0  0
   -5.1774   -3.9619   23.5430 H   0  0  0  0  0  0  0  0  0  0  0  0
   -6.2210   -3.9257   22.0500 H   0  0  0  0  0  0  0  0  0  0  0  0
   -3.7856   -5.6429   22.6319 H   0  0  0  0  0  0  0  0  0  0  0  0
   -4.1041   -4.5611   21.2372 H   0  0  0  0  0  0  0  0  0  0  0  0
   -8.7331   -6.5331   24.7197 H   0  0  0  0  0  0  0  0  0  0  0  0
   -6.4330   -2.8798   27.1968 H   0  0  0  0  0  0  0  0  0  0  0  0
   -5.6701   -3.4915   24.9134 H   0  0  0  0  0  0  0  0  0  0  0  0
   -9.5041   -2.9821   30.7954 H   0  0  0  0  0  0  0  0  0  0  0  0
  -10.0227   -1.4485   30.0170 H   0  0  0  0  0  0  0  0  0  0  0  0
  -11.1192   -2.8713   30.0170 H   0  0  0  0  0  0  0  0  0  0  0  0
  -10.7975   -1.5880   27.8286 H   0  0  0  0  0  0  0  0  0  0  0  0
   -9.2854   -1.8945   26.9087 H   0  0  0  0  0  0  0  0  0  0  0  0
  -10.6003   -3.1182   26.9087 H   0  0  0  0  0  0  0  0  0  0  0  0
  6  5  1  0
  3  2  1  0
  1  2  1  0
  2  5  1  0
  2  4  1  0
 11 10  2  0
  5 10  1  0
  5  7  1  0
 10 12  1  0
  8  7  1  0
  7  9  1  0
 12 13  1  0
 12 17  1  0
 13 14  1  0
 17 16  1  0
 14 15  1  0
 16 15  1  0
 15 18  1  0
 18 23  1  0
 18 19  1  0
 23 22  1  0
 19 20  1  0
 22 21  1  0
 20 21  1  0
 21 24  1  0
 24 25  2  0
 24 30  1  0
 25 26  1  0
 30 29  2  0
 26 27  1  0
 26 28  2  0
 29 28  1  0
 28 31  1  0
 35 33  1  0
 31 33  1  0
 31 32  2  0
 33 34  1  0
  6 36  1  0
  7 37  1  0
  8 38  1  0
  8 39  1  0
  8 40  1  0
  9 41  1  0
  9 42  1  0
  9 43  1  0
 13 44  1  0
 13 45  1  0
 14 46  1  0
 14 47  1  0
 15 48  1  0
 16 49  1  0
 16 50  1  0
 17 51  1  0
 17 52  1  0
 18 53  1  0
 19 54  1  0
 19 55  1  0
 20 56  1  0
 20 57  1  0
 22 58  1  0
 22 59  1  0
 23 60  1  0
 23 61  1  0
 25 62  1  0
 29 63  1  0
 30 64  1  0
 34 65  1  0
 34 66  1  0
 34 67  1  0
 35 68  1  0
 35 69  1  0
 35 70  1  0
A    1
F2
A    2
C24
A    3
F
A    4
F1
A    5
C3
A    6
O
A    7
C1
A    8
C2
A    9
C
A   10
C4
A   11
O1
A   12
N
A   13
C9
A   14
C8
A   15
C7
A   16
C6
A   17
C5
A   18
C10
A   19
C14
A   20
C13
A   21
N1
A   22
C12
A   23
C11
A   24
C15
A   25
C23
A   26
C22
A   27
CL
A   28
C18
A   29
C17
A   30
C16
A   31
C19
A   32
O2
A   33
N2
A   34
C21
A   35
C20
M  END
