5HKI_6ZJ_B_201
     RDKit          3D

 37 40  0  0  0  0  0  0  0  0999 V2000
   15.4450   17.2490   26.0530 O   0  0  0  0  0  0  0  0  0  0  0  0
   13.8750   18.0920   27.8250 O   0  0  0  0  0  0  0  0  0  0  0  0
   14.4050   16.9520   27.0690 C   0  0  0  0  0  0  0  0  0  0  0  0
   15.6710   13.2550   26.7830 O   0  0  0  0  0  0  0  0  0  0  0  0
   17.8330   17.2420   27.3860 O   0  0  0  0  0  0  0  0  0  0  0  0
   13.7720   13.8990   25.2200 C   0  0  0  0  0  0  0  0  0  0  0  0
   15.1880   13.4840   24.5440 C   0  0  0  0  0  0  0  0  0  0  0  0
   16.5740   13.7550   24.9160 O   0  0  0  0  0  0  0  0  0  0  0  0
   16.8300   15.5760   26.2250 Fe  0  0  0  0  0  6  0  0  0  0  0  0
   15.9760   14.7560   28.1690 O   0  0  0  0  0  0  0  0  0  0  0  0
   14.8360   13.9730   27.6730 C   0  0  0  0  0  0  0  0  0  0  0  0
   12.1820   13.7270   27.0920 O   0  0  0  0  0  0  0  0  0  0  0  0
   13.2540   15.8490   27.0810 C   0  0  0  0  0  0  0  0  0  0  0  0
   18.8180   17.8050   26.4350 C   0  0  0  0  0  0  0  0  0  0  0  0
   21.1940   17.7090   25.2670 O   0  0  0  0  0  0  0  0  0  0  0  0
   19.4450   16.1620   24.2980 C   0  0  0  0  0  0  0  0  0  0  0  0
   17.9540   15.9870   23.6240 C   0  0  0  0  0  0  0  0  0  0  0  0
   16.6230   16.3490   24.1400 O   0  0  0  0  0  0  0  0  0  0  0  0
   17.8150   14.7070   22.8840 O   0  0  0  0  0  0  0  0  0  0  0  0
   20.4130   15.8870   26.6720 C   0  0  0  0  0  0  0  0  0  0  0  0
   19.4400   14.7040   27.0670 C   0  0  0  0  0  0  0  0  0  0  0  0
   18.4520   14.0740   26.2740 O   0  0  0  0  0  0  0  0  0  0  0  0
   19.9740   13.9440   28.2460 O   0  0  0  0  0  0  0  0  0  0  0  0
   18.1970   18.9750   25.6960 O   0  0  0  0  0  0  0  0  0  0  0  0
   15.1370   13.1630   23.0950 O   0  0  0  0  0  0  0  0  0  0  0  0
   19.9730   16.9770   25.6130 C   0  0  0  0  0  0  0  0  0  0  0  0
   13.5080   14.2990   26.7730 C   0  0  0  0  0  0  0  0  0  0  0  0
   13.4258   14.7679   24.6411 H   0  0  0  0  0  0  0  0  0  0  0  0
   13.2750   12.9178   25.2040 H   0  0  0  0  0  0  0  0  0  0  0  0
   12.0710   13.6791   28.0746 H   0  0  0  0  0  0  0  0  0  0  0  0
   12.8133   15.8863   28.0882 H   0  0  0  0  0  0  0  0  0  0  0  0
   12.6642   16.1471   26.2017 H   0  0  0  0  0  0  0  0  0  0  0  0
   21.6581   17.9872   26.0960 H   0  0  0  0  0  0  0  0  0  0  0  0
   19.7599   15.1266   24.4951 H   0  0  0  0  0  0  0  0  0  0  0  0
   19.8300   16.8742   23.5534 H   0  0  0  0  0  0  0  0  0  0  0  0
   20.6434   16.4277   27.6018 H   0  0  0  0  0  0  0  0  0  0  0  0
   21.2357   15.3665   26.1599 H   0  0  0  0  0  0  0  0  0  0  0  0
  1  3  1  0
  1  9  1  0
  2  3  2  0
  3 13  1  0
  4 11  2  0
  5  9  1  0
  5 14  1  0
  6  7  1  0
  6 27  1  0
  7  8  1  0
  7 25  2  0
  8  9  1  0
  9 10  1  0
  9 18  1  0
  9 22  1  0
 10 11  1  0
 12 27  1  0
 13 27  1  0
 14 24  2  0
 15 26  1  0
 16 17  1  0
 16 26  1  0
 17 18  1  0
 17 19  2  0
 20 21  1  0
 20 26  1  0
 21 22  1  0
 21 23  2  0
 14 26  1  0
 11 27  1  0
  6 28  1  0
  6 29  1  0
 12 30  1  0
 13 31  1  0
 13 32  1  0
 15 33  1  0
 16 34  1  0
 16 35  1  0
 20 36  1  0
 20 37  1  0
A    1
O11
A    2
O12
A    3
C10
A    4
O13
A    5
O14
A    6
C01
A    7
C02
A    8
O03
A    9
FE
A   10
O05
A   11
C06
A   12
O08
A   13
C09
A   14
C15
A   15
O17
A   16
C18
A   17
C19
A   18
O20
A   19
O21
A   20
C22
A   21
C23
A   22
O24
A   23
O25
A   24
O26
A   25
O27
A   26
C1
A   27
C2
M  END
