5HKO_62W_A_425
     RDKit          3D

 26 25  0  0  0  0  0  0  0  0999 V2000
   -7.8010  -23.1390    7.3960 O   0  0  0  0  0  0  0  0  0  0  0  0
   -6.9940  -24.2670    7.0740 C   0  0  0  0  0  0  0  0  0  0  0  0
   -5.7980  -23.8270    6.2620 C   0  0  0  0  0  0  0  0  0  0  0  0
   -4.9940  -22.9250    7.0390 O   0  0  0  0  0  0  0  0  0  0  0  0
   -6.1790  -23.1120    4.9190 C   0  0  0  0  0  0  0  0  0  0  0  0
   -6.8620  -24.0540    4.0600 O   0  0  0  0  0  0  0  0  0  0  0  0
   -5.0030  -22.4810    4.1940 C   0  0  0  0  0  0  0  0  0  0  0  0
   -3.9630  -23.4560    3.9000 O   0  0  0  0  0  0  0  0  0  0  0  0
   -5.3640  -21.8520    2.8650 C   0  0  0  0  0  0  0  0  0  0  0  0
   -4.2090  -21.1280    2.4240 O   0  0  0  0  0  0  0  0  0  0  0  0
   -6.5480  -20.9080    2.9530 C   0  0  0  0  0  0  0  0  0  0  0  0
   -6.9500  -20.3720    1.6640 O   0  0  0  0  0  0  0  0  0  0  0  0
   -7.8652  -23.0492    8.3798 H   0  0  0  0  0  0  0  0  0  0  0  0
   -7.5875  -24.9855    6.4897 H   0  0  0  0  0  0  0  0  0  0  0  0
   -6.6466  -24.7417    8.0035 H   0  0  0  0  0  0  0  0  0  0  0  0
   -5.2484  -24.7445    6.0050 H   0  0  0  0  0  0  0  0  0  0  0  0
   -5.1452  -23.0947    8.0026 H   0  0  0  0  0  0  0  0  0  0  0  0
   -6.8403  -22.2726    5.1799 H   0  0  0  0  0  0  0  0  0  0  0  0
   -7.3433  -24.7177    4.6149 H   0  0  0  0  0  0  0  0  0  0  0  0
   -4.6573  -21.7046    4.8923 H   0  0  0  0  0  0  0  0  0  0  0  0
   -3.5897  -23.8060    4.7475 H   0  0  0  0  0  0  0  0  0  0  0  0
   -5.6587  -22.6469    2.1641 H   0  0  0  0  0  0  0  0  0  0  0  0
   -3.6995  -20.8087    3.2105 H   0  0  0  0  0  0  0  0  0  0  0  0
   -6.2781  -20.0693    3.6115 H   0  0  0  0  0  0  0  0  0  0  0  0
   -7.3977  -21.4854    3.3461 H   0  0  0  0  0  0  0  0  0  0  0  0
   -7.5382  -19.5877    1.8017 H   0  0  0  0  0  0  0  0  0  0  0  0
 12 11  1  0
 10  9  1  0
  9 11  1  0
  9  7  1  0
  8  7  1  0
  6  5  1  0
  7  5  1  0
  5  3  1  0
  3  4  1  0
  3  2  1  0
  2  1  1  0
  1 13  1  0
  2 14  1  0
  2 15  1  0
  3 16  1  0
  4 17  1  0
  5 18  1  0
  6 19  1  0
  7 20  1  0
  8 21  1  0
  9 22  1  0
 10 23  1  0
 11 24  1  0
 11 25  1  0
 12 26  1  0
A    1
OAA
A    2
CAG
A    3
CAI
A    4
OAC
A    5
CAK
A    6
OAE
A    7
CAL
A    8
OAF
A    9
CAJ
A   10
OAD
A   11
CAH
A   12
OAB
M  END
