5HL1_63J_A_601
     RDKit          3D

 64 67  0  0  0  0  0  0  0  0999 V2000
  -27.0650  -41.2230    0.1360 C   0  0  0  0  0  0  0  0  0  0  0  0
  -24.4680  -38.8250    1.4200 C   0  0  0  0  0  0  0  0  0  0  0  0
  -23.8710  -39.8060   -0.8500 C   0  0  0  0  0  0  0  0  0  0  0  0
  -17.8580  -46.0490    3.0730 C   0  0  0  0  0  0  0  0  0  0  0  0
  -17.2600  -45.2410    2.1230 C   0  0  0  0  0  0  0  0  0  0  0  0
  -16.4910  -44.1930    2.5540 C   0  0  0  0  0  0  0  0  0  0  0  0
  -13.8560  -41.1060    4.3900 C   0  0  0  0  0  0  0  0  0  0  0  0
  -13.2120  -39.0850    2.9950 C   0  0  0  0  0  0  0  0  0  0  0  0
  -20.0490  -46.5110    2.3280 C   0  0  0  0  0  0  0  0  0  0  0  0
  -21.2390  -47.4190    2.2050 C   0  0  0  0  0  0  0  0  0  0  0  0
  -22.4660  -46.6650    2.6870 C   0  0  0  0  0  0  0  0  0  0  0  0
  -23.1230  -45.7690    1.6370 C   0  0  0  0  0  0  0  0  0  0  0  0
  -23.1200  -45.8830    0.2900 N   0  0  0  0  0  0  0  0  0  0  0  0
  -23.8130  -44.9070   -0.3740 N   0  0  0  0  0  0  0  0  0  0  0  0
  -24.4480  -43.9390    0.2730 C   0  0  0  0  0  0  0  0  0  0  0  0
  -25.2060  -42.8570   -0.2550 N   0  0  0  0  0  0  0  0  0  0  0  0
  -26.3380  -42.4590    0.4690 C   0  0  0  0  0  0  0  0  0  0  0  0
  -25.8840  -40.3260    0.5640 C   0  0  0  0  0  0  0  0  0  0  0  0
  -25.7260  -39.4680    1.6670 C   0  0  0  0  0  0  0  0  0  0  0  0
  -23.5690  -39.0670    0.3100 C   0  0  0  0  0  0  0  0  0  0  0  0
  -24.9400  -40.4930   -0.5420 N   0  0  0  0  0  0  0  0  0  0  0  0
  -26.5270  -43.0250    1.4980 O   0  0  0  0  0  0  0  0  0  0  0  0
  -24.0690  -44.3530    1.9320 S   0  0  0  0  0  0  0  0  0  0  0  0
  -18.7220  -47.1850    2.5920 C   0  0  0  0  0  0  0  0  0  0  0  0
  -16.3450  -43.9960    3.9210 C   0  0  0  0  0  0  0  0  0  0  0  0
  -15.5970  -42.8890    4.3720 N   0  0  0  0  0  0  0  0  0  0  0  0
  -14.4580  -42.3400    3.7260 C   0  0  0  0  0  0  0  0  0  0  0  0
  -12.8580  -40.2840    3.5940 C   0  0  0  0  0  0  0  0  0  0  0  0
  -12.2620  -38.3570    2.2850 C   0  0  0  0  0  0  0  0  0  0  0  0
  -10.9500  -38.8140    2.1790 C   0  0  0  0  0  0  0  0  0  0  0  0
  -10.5840  -40.0180    2.7870 C   0  0  0  0  0  0  0  0  0  0  0  0
  -11.5500  -40.7210    3.4990 C   0  0  0  0  0  0  0  0  0  0  0  0
   -9.2520  -40.5180    2.7010 O   0  0  0  0  0  0  0  0  0  0  0  0
   -8.9830  -41.9250    2.6230 C   0  0  0  0  0  0  0  0  0  0  0  0
  -10.0550  -42.7090    2.4180 F   0  0  0  0  0  0  0  0  0  0  0  0
   -8.3690  -42.3510    3.7460 F   0  0  0  0  0  0  0  0  0  0  0  0
   -8.1600  -42.1380    1.5840 F   0  0  0  0  0  0  0  0  0  0  0  0
  -13.9900  -42.8460    2.7240 O   0  0  0  0  0  0  0  0  0  0  0  0
  -16.9770  -44.7770    4.8130 N   0  0  0  0  0  0  0  0  0  0  0  0
  -17.7240  -45.8030    4.3820 N   0  0  0  0  0  0  0  0  0  0  0  0
  -27.9718  -41.0716    0.7400 H   0  0  0  0  0  0  0  0  0  0  0  0
  -27.4825  -41.1069   -0.8751 H   0  0  0  0  0  0  0  0  0  0  0  0
  -24.1519  -38.0669    2.1517 H   0  0  0  0  0  0  0  0  0  0  0  0
  -23.3268  -39.8054   -1.8059 H   0  0  0  0  0  0  0  0  0  0  0  0
  -17.3985  -45.4351    1.0492 H   0  0  0  0  0  0  0  0  0  0  0  0
  -15.9999  -43.5223    1.8336 H   0  0  0  0  0  0  0  0  0  0  0  0
  -14.6890  -40.4395    4.6580 H   0  0  0  0  0  0  0  0  0  0  0  0
  -13.2732  -41.5045    5.2335 H   0  0  0  0  0  0  0  0  0  0  0  0
  -14.2424  -38.7096    3.0808 H   0  0  0  0  0  0  0  0  0  0  0  0
  -19.9582  -45.9470    1.3880 H   0  0  0  0  0  0  0  0  0  0  0  0
  -20.2442  -45.8868    3.2124 H   0  0  0  0  0  0  0  0  0  0  0  0
  -21.3736  -47.7155    1.1543 H   0  0  0  0  0  0  0  0  0  0  0  0
  -21.0887  -48.3249    2.8106 H   0  0  0  0  0  0  0  0  0  0  0  0
  -22.1674  -46.0336    3.5368 H   0  0  0  0  0  0  0  0  0  0  0  0
  -23.2126  -47.4277    2.9533 H   0  0  0  0  0  0  0  0  0  0  0  0
  -24.9348  -42.3870   -1.1305 H   0  0  0  0  0  0  0  0  0  0  0  0
  -26.4070  -39.3239    2.5188 H   0  0  0  0  0  0  0  0  0  0  0  0
  -22.5599  -38.6347    0.3796 H   0  0  0  0  0  0  0  0  0  0  0  0
  -18.8196  -47.9625    3.3640 H   0  0  0  0  0  0  0  0  0  0  0  0
  -18.3126  -47.6991    1.7099 H   0  0  0  0  0  0  0  0  0  0  0  0
  -15.9037  -42.4394    5.2465 H   0  0  0  0  0  0  0  0  0  0  0  0
  -12.5498  -37.4112    1.8026 H   0  0  0  0  0  0  0  0  0  0  0  0
  -10.2052  -38.2295    1.6190 H   0  0  0  0  0  0  0  0  0  0  0  0
  -11.2637  -41.6557    4.0033 H   0  0  0  0  0  0  0  0  0  0  0  0
 14 13  1  0
 14 15  2  0
  1 18  1  0
  1 17  1  0
 16 15  1  0
 16 17  1  0
 13 12  2  0
 19 18  1  0
 19  2  2  0
 15 23  1  0
 18 21  2  0
 17 22  2  0
 37 34  1  0
  2 20  1  0
 21  3  1  0
 36 34  1  0
 35 34  1  0
 20  3  2  0
 34 33  1  0
 12 23  1  0
 12 11  1  0
  9 10  1  0
  9 24  1  0
 10 11  1  0
  5  6  2  0
  5  4  1  0
 24  4  1  0
  6 25  1  0
  4 40  2  0
 33 31  1  0
 38 27  2  0
 32 31  2  0
 32 28  1  0
 31 30  1  0
 25 26  1  0
 25 39  2  0
 40 39  1  0
 27 26  1  0
 27  7  1  0
  7 28  1  0
 28  8  2  0
 30 29  2  0
  8 29  1  0
  1 41  1  0
  1 42  1  0
  2 43  1  0
  3 44  1  0
  5 45  1  0
  6 46  1  0
  7 47  1  0
  7 48  1  0
  8 49  1  0
  9 50  1  0
  9 51  1  0
 10 52  1  0
 10 53  1  0
 11 54  1  0
 11 55  1  0
 16 56  1  0
 19 57  1  0
 20 58  1  0
 24 59  1  0
 24 60  1  0
 26 61  1  0
 29 62  1  0
 30 63  1  0
 32 64  1  0
A    1
C10
A    2
C13
A    3
C15
A    4
C20
A    5
C21
A    6
C22
A    7
C26
A    8
C28
A    9
C01
A   10
C02
A   11
C03
A   12
C04
A   13
N05
A   14
N06
A   15
C07
A   16
N08
A   17
C09
A   18
C11
A   19
C12
A   20
C14
A   21
N16
A   22
O17
A   23
S18
A   24
C19
A   25
C23
A   26
N24
A   27
C25
A   28
C27
A   29
C29
A   30
C30
A   31
C31
A   32
C32
A   33
O33
A   34
C34
A   35
F35
A   36
F36
A   37
F37
A   38
O38
A   39
N39
A   40
N40
M  END
