5HLS_62G_A_201
     RDKit          3D

 42 45  0  0  0  0  0  0  0  0999 V2000
   13.5790   -4.7020    0.2170 N   0  0  0  0  0  0  0  0  0  0  0  0
   12.6650   -6.4690   -0.7650 C   0  0  0  0  0  0  0  0  0  0  0  0
   11.6480   -5.8700   -0.0590 C   0  0  0  0  0  0  0  0  0  0  0  0
   10.2800   -6.3660   -0.1930 C   0  0  0  0  0  0  0  0  0  0  0  0
    9.4290   -6.4100    0.9090 C   0  0  0  0  0  0  0  0  0  0  0  0
    7.7350   -7.4700   -0.4160 C   0  0  0  0  0  0  0  0  0  0  0  0
   10.6430   -6.8570   -2.6350 C   0  0  0  0  0  0  0  0  0  0  0  0
   12.6420   -7.6320   -1.6510 C   0  0  0  0  0  0  0  0  0  0  0  0
   14.0390   -8.0520   -2.0740 C   0  0  0  0  0  0  0  0  0  0  0  0
    9.8900   -6.4170   -3.8220 C   0  0  0  0  0  0  0  0  0  0  0  0
    8.7640   -5.6530   -3.6200 C   0  0  0  0  0  0  0  0  0  0  0  0
    8.4650   -5.5350   -5.9820 C   0  0  0  0  0  0  0  0  0  0  0  0
    9.6050   -6.3010   -6.1880 C   0  0  0  0  0  0  0  0  0  0  0  0
    8.1700   -6.9610    0.7930 C   0  0  0  0  0  0  0  0  0  0  0  0
    8.5680   -7.4230   -1.5250 C   0  0  0  0  0  0  0  0  0  0  0  0
   10.3220   -6.7540   -5.0890 C   0  0  0  0  0  0  0  0  0  0  0  0
    8.0440   -5.2180   -4.7120 C   0  0  0  0  0  0  0  0  0  0  0  0
    9.8440   -6.9140   -1.3910 C   0  0  0  0  0  0  0  0  0  0  0  0
   12.2810   -4.7620    0.5620 C   0  0  0  0  0  0  0  0  0  0  0  0
   13.8900   -9.0470   -3.1850 C   0  0  0  0  0  0  0  0  0  0  0  0
   11.7170   -3.7000    1.4180 C   0  0  0  0  0  0  0  0  0  0  0  0
   11.8910   -7.1650   -2.8100 N   0  0  0  0  0  0  0  0  0  0  0  0
   14.9830   -9.1000   -3.9920 N   0  0  0  0  0  0  0  0  0  0  0  0
   12.9140   -9.7630   -3.3360 O   0  0  0  0  0  0  0  0  0  0  0  0
   13.8290   -5.8090   -0.5840 O   0  0  0  0  0  0  0  0  0  0  0  0
    7.5230   -4.9520   -7.3080 Cl  0  0  0  0  0  0  0  0  0  0  0  0
    9.7624   -6.0038    1.8753 H   0  0  0  0  0  0  0  0  0  0  0  0
    6.7309   -7.9114   -0.4991 H   0  0  0  0  0  0  0  0  0  0  0  0
   12.2010   -8.5123   -1.1605 H   0  0  0  0  0  0  0  0  0  0  0  0
   14.5666   -8.5120   -1.2254 H   0  0  0  0  0  0  0  0  0  0  0  0
   14.6223   -7.1812   -2.4078 H   0  0  0  0  0  0  0  0  0  0  0  0
    8.4425   -5.3927   -2.6007 H   0  0  0  0  0  0  0  0  0  0  0  0
    9.9354   -6.5455   -7.2083 H   0  0  0  0  0  0  0  0  0  0  0  0
    7.5067   -6.9956    1.6699 H   0  0  0  0  0  0  0  0  0  0  0  0
    8.2150   -7.7877   -2.5009 H   0  0  0  0  0  0  0  0  0  0  0  0
   11.2213   -7.3725   -5.2258 H   0  0  0  0  0  0  0  0  0  0  0  0
    7.1335   -4.6179   -4.5676 H   0  0  0  0  0  0  0  0  0  0  0  0
   11.8590   -3.9674    2.4755 H   0  0  0  0  0  0  0  0  0  0  0  0
   12.2291   -2.7493    1.2082 H   0  0  0  0  0  0  0  0  0  0  0  0
   10.6426   -3.5919    1.2082 H   0  0  0  0  0  0  0  0  0  0  0  0
   15.9258   -9.1457   -3.5798 H   0  0  0  0  0  0  0  0  0  0  0  0
   14.8682   -9.0944   -5.0156 H   0  0  0  0  0  0  0  0  0  0  0  0
 26 12  1  0
 13 12  2  0
 13 16  1  0
 12 17  1  0
 16 10  2  0
 17 11  2  0
 23 20  1  0
 10 11  1  0
 10  7  1  0
 24 20  2  0
 20  9  1  0
 22  7  2  0
 22  8  1  0
  7 18  1  0
  9  8  1  0
  8  2  1  0
 15 18  1  0
 15  6  2  0
 18  4  2  0
  2 25  1  0
  2  3  2  0
 25  1  1  0
  6 14  1  0
  4  3  1  0
  4  5  1  0
  3 19  1  0
  1 19  2  0
 19 21  1  0
 14  5  2  0
  5 27  1  0
  6 28  1  0
  8 29  1  0
  9 30  1  0
  9 31  1  0
 11 32  1  0
 13 33  1  0
 14 34  1  0
 15 35  1  0
 16 36  1  0
 17 37  1  0
 21 38  1  0
 21 39  1  0
 21 40  1  0
 23 41  1  0
 23 42  1  0
A    1
N3
A    2
C5
A    3
C6
A    4
C7
A    5
C8
A    6
C10
A    7
C13
A    8
C15
A    9
C17
A   10
C21
A   11
C22
A   12
C24
A   13
C26
A   14
C9
A   15
C11
A   16
C27
A   17
C23
A   18
C12
A   19
C2
A   20
C18
A   21
C1
A   22
N14
A   23
N19
A   24
O20
A   25
O4
A   26
CL25
M  END
