5HLW_62E_A_1402
     RDKit          3D

 66 71  0  0  0  0  0  0  0  0999 V2000
   19.7790  -11.8040   57.7940 C   0  0  0  0  0  0  0  0  0  0  0  0
   20.3400  -12.3550   58.9500 C   0  0  0  0  0  0  0  0  0  0  0  0
   21.6230  -11.9510   59.4210 C   0  0  0  0  0  0  0  0  0  0  0  0
   21.0920  -13.3760   61.0500 C   0  0  0  0  0  0  0  0  0  0  0  0
   19.0030   -8.7130   56.5180 C   0  0  0  0  0  0  0  0  0  0  0  0
   17.5170   -7.5020   57.7190 C   0  0  0  0  0  0  0  0  0  0  0  0
   13.4350  -12.5280   58.7860 C   0  0  0  0  0  0  0  0  0  0  0  0
   22.3860  -10.9820   58.7420 C   0  0  0  0  0  0  0  0  0  0  0  0
   21.8200  -10.4110   57.5750 C   0  0  0  0  0  0  0  0  0  0  0  0
   13.9460  -11.1840   58.9150 C   0  0  0  0  0  0  0  0  0  0  0  0
   14.3050  -13.3470   58.1230 C   0  0  0  0  0  0  0  0  0  0  0  0
   20.5200  -10.8170   57.1220 C   0  0  0  0  0  0  0  0  0  0  0  0
   15.1870  -11.0320   58.3270 C   0  0  0  0  0  0  0  0  0  0  0  0
   16.3180   -7.3460   58.5360 C   0  0  0  0  0  0  0  0  0  0  0  0
   15.5590   -8.4820   58.7880 C   0  0  0  0  0  0  0  0  0  0  0  0
   15.9830   -9.7870   58.2190 C   0  0  0  0  0  0  0  0  0  0  0  0
   20.2010  -15.0240   62.7940 C   0  0  0  0  0  0  0  0  0  0  0  0
   18.6400  -17.0810   67.9070 C   0  0  0  0  0  0  0  0  0  0  0  0
   17.1520  -17.8860   65.9790 C   0  0  0  0  0  0  0  0  0  0  0  0
   17.5960  -17.4870   68.9910 C   0  0  0  0  0  0  0  0  0  0  0  0
   16.4540  -18.7810   67.0640 C   0  0  0  0  0  0  0  0  0  0  0  0
   17.9070  -16.6690   66.6160 C   0  0  0  0  0  0  0  0  0  0  0  0
   16.0590  -19.9050   70.2260 C   0  0  0  0  0  0  0  0  0  0  0  0
   18.7620  -15.7970   65.6670 C   0  0  0  0  0  0  0  0  0  0  0  0
   19.7830  -16.5470   64.7850 C   0  0  0  0  0  0  0  0  0  0  0  0
   15.4070  -18.7460   69.4210 C   0  0  0  0  0  0  0  0  0  0  0  0
   22.0320  -12.5610   60.6240 N   0  0  0  0  0  0  0  0  0  0  0  0
   18.4940   -6.6780   57.2420 N   0  0  0  0  0  0  0  0  0  0  0  0
   19.3610   -7.3980   56.5420 N   0  0  0  0  0  0  0  0  0  0  0  0
   17.1090   -9.9330   57.4800 N   0  0  0  0  0  0  0  0  0  0  0  0
   17.8350   -8.8300   57.2510 N   0  0  0  0  0  0  0  0  0  0  0  0
   21.1560  -14.1140   62.2260 N   0  0  0  0  0  0  0  0  0  0  0  0
   20.6230  -15.5670   64.0310 N   0  0  0  0  0  0  0  0  0  0  0  0
   16.3050  -18.0490   68.3960 N   0  0  0  0  0  0  0  0  0  0  0  0
   19.1290  -15.2950   62.2760 O   0  0  0  0  0  0  0  0  0  0  0  0
   15.7380  -12.5420   57.6370 S   0  0  0  0  0  0  0  0  0  0  0  0
   19.6320  -13.4960   60.0200 S   0  0  0  0  0  0  0  0  0  0  0  0
   19.7940  -10.0230   55.7270 S   0  0  0  0  0  0  0  0  0  0  0  0
   18.7956  -12.1304   57.4248 H   0  0  0  0  0  0  0  0  0  0  0  0
   12.4596  -12.8545   59.1758 H   0  0  0  0  0  0  0  0  0  0  0  0
   23.3806  -10.6805   59.1025 H   0  0  0  0  0  0  0  0  0  0  0  0
   22.3813   -9.6508   57.0120 H   0  0  0  0  0  0  0  0  0  0  0  0
   13.4074  -10.3715   59.4246 H   0  0  0  0  0  0  0  0  0  0  0  0
   14.1067  -14.4102   57.9225 H   0  0  0  0  0  0  0  0  0  0  0  0
   16.0258   -6.3646   58.9377 H   0  0  0  0  0  0  0  0  0  0  0  0
   14.6505   -8.4156   59.4045 H   0  0  0  0  0  0  0  0  0  0  0  0
   19.3010  -17.9347   67.6967 H   0  0  0  0  0  0  0  0  0  0  0  0
   19.2392  -16.2347   68.2741 H   0  0  0  0  0  0  0  0  0  0  0  0
   16.3864  -17.5056   65.2868 H   0  0  0  0  0  0  0  0  0  0  0  0
   17.8924  -18.5065   65.4530 H   0  0  0  0  0  0  0  0  0  0  0  0
   18.0450  -18.2528   69.6407 H   0  0  0  0  0  0  0  0  0  0  0  0
   17.3318  -16.5774   69.5504 H   0  0  0  0  0  0  0  0  0  0  0  0
   15.4554  -19.0660   66.7012 H   0  0  0  0  0  0  0  0  0  0  0  0
   17.0833  -19.6677   67.2308 H   0  0  0  0  0  0  0  0  0  0  0  0
   17.1050  -15.9651   66.8830 H   0  0  0  0  0  0  0  0  0  0  0  0
   15.9495  -19.7103   71.3031 H   0  0  0  0  0  0  0  0  0  0  0  0
   15.5617  -20.8528   69.9723 H   0  0  0  0  0  0  0  0  0  0  0  0
   17.1272  -19.9721   69.9723 H   0  0  0  0  0  0  0  0  0  0  0  0
   19.3179  -15.0757   66.2840 H   0  0  0  0  0  0  0  0  0  0  0  0
   18.0485  -15.3392   64.9660 H   0  0  0  0  0  0  0  0  0  0  0  0
   19.2459  -17.1906   64.0727 H   0  0  0  0  0  0  0  0  0  0  0  0
   20.4321  -17.1615   65.4262 H   0  0  0  0  0  0  0  0  0  0  0  0
   15.0667  -17.9869   70.1407 H   0  0  0  0  0  0  0  0  0  0  0  0
   14.5982  -19.2102   68.8376 H   0  0  0  0  0  0  0  0  0  0  0  0
   22.0196  -13.9894   62.7734 H   0  0  0  0  0  0  0  0  0  0  0  0
   21.5318  -15.2797   64.4215 H   0  0  0  0  0  0  0  0  0  0  0  0
 38  5  1  0
 38 12  1  0
  5 29  2  0
  5 31  1  0
 29 28  1  0
 12  9  1  0
 12  1  2  0
 28  6  2  0
 31 30  1  0
 31  6  1  0
 30 16  2  0
  9  8  2  0
 36 11  1  0
 36 13  1  0
  6 14  1  0
  1  2  1  0
 11  7  2  0
 16 13  1  0
 16 15  1  0
 13 10  2  0
 14 15  2  0
  8  3  1  0
  7 10  1  0
  2  3  2  0
  2 37  1  0
  3 27  1  0
 37  4  1  0
 27  4  2  0
  4 32  1  0
 32 17  1  0
 35 17  2  0
 17 33  1  0
 33 25  1  0
 25 24  1  0
 24 22  1  0
 19 22  1  0
 19 21  1  0
 22 18  1  0
 21 34  1  0
 18 20  1  0
 34 20  1  0
 34 26  1  0
 26 23  1  0
  1 39  1  0
  7 40  1  0
  8 41  1  0
  9 42  1  0
 10 43  1  0
 11 44  1  0
 14 45  1  0
 15 46  1  0
 18 47  1  0
 18 48  1  0
 19 49  1  0
 19 50  1  0
 20 51  1  0
 20 52  1  0
 21 53  1  0
 21 54  1  0
 22 55  1  0
 23 56  1  0
 23 57  1  0
 23 58  1  0
 24 59  1  0
 24 60  1  0
 25 61  1  0
 25 62  1  0
 26 63  1  0
 26 64  1  0
 32 65  1  0
 33 66  1  0
A    1
C4
A    2
C5
A    3
C6
A    4
C8
A    5
C11
A    6
C15
A    7
C26
A    8
C3
A    9
C2
A   10
C25
A   11
C27
A   12
C1
A   13
C20
A   14
C16
A   15
C17
A   16
C18
A   17
C22
A   18
C32
A   19
C36
A   20
C33
A   21
C35
A   22
C31
A   23
C38
A   24
C30
A   25
C29
A   26
C37
A   27
N7
A   28
N13
A   29
N12
A   30
N19
A   31
N14
A   32
N21
A   33
N23
A   34
N34
A   35
O24
A   36
S28
A   37
S9
A   38
S10
M  END
