5HMH_62R_A_201
     RDKit          3D

 90 94  0  0  0  0  0  0  0  0999 V2000
  -16.5730    5.5420   21.0740 C   0  0  0  0  0  0  0  0  0  0  0  0
  -17.3740    5.8590   22.2190 C   0  0  0  0  0  0  0  0  0  0  0  0
  -18.1710    4.8700   22.7960 C   0  0  0  0  0  0  0  0  0  0  0  0
  -18.2020    3.5620   22.2810 C   0  0  0  0  0  0  0  0  0  0  0  0
  -17.3890    3.2340   21.1740 C   0  0  0  0  0  0  0  0  0  0  0  0
  -15.7230    7.8300   20.7510 C   0  0  0  0  0  0  0  0  0  0  0  0
  -12.5370    7.9150   21.0440 C   0  0  0  0  0  0  0  0  0  0  0  0
  -14.1900    3.8860   19.9350 C   0  0  0  0  0  0  0  0  0  0  0  0
  -13.2480    3.7910   18.7290 C   0  0  0  0  0  0  0  0  0  0  0  0
  -12.6300    1.5750   17.7740 C   0  0  0  0  0  0  0  0  0  0  0  0
  -12.9440    0.2210   17.0830 C   0  0  0  0  0  0  0  0  0  0  0  0
  -12.4610   -1.9790   15.1100 C   0  0  0  0  0  0  0  0  0  0  0  0
  -14.6820   -1.0610   14.1910 C   0  0  0  0  0  0  0  0  0  0  0  0
  -15.6970   -4.5520   12.8960 C   0  0  0  0  0  0  0  0  0  0  0  0
  -12.3650    1.6850   13.3220 C   0  0  0  0  0  0  0  0  0  0  0  0
  -17.8150   -0.5610   21.7640 F   0  0  0  0  0  0  0  0  0  0  0  0
  -17.0050   -1.5270   21.4180 C   0  0  0  0  0  0  0  0  0  0  0  0
  -17.7550   -2.3560   20.7440 F   0  0  0  0  0  0  0  0  0  0  0  0
  -16.7290   -2.1990   22.5170 F   0  0  0  0  0  0  0  0  0  0  0  0
  -15.8120   -1.0350   20.6870 C   0  0  0  0  0  0  0  0  0  0  0  0
  -14.3940   -0.5410   21.4650 S   0  0  0  0  0  0  0  0  0  0  0  0
  -13.6860   -0.2060   19.9670 C   0  0  0  0  0  0  0  0  0  0  0  0
  -15.7970   -0.9650   19.3230 C   0  0  0  0  0  0  0  0  0  0  0  0
  -14.5340   -0.4780   18.8900 C   0  0  0  0  0  0  0  0  0  0  0  0
  -14.2200   -0.2980   17.5590 O   0  0  0  0  0  0  0  0  0  0  0  0
  -11.7760   -0.8110   17.2570 C   0  0  0  0  0  0  0  0  0  0  0  0
  -12.0860   -2.1610   16.6010 C   0  0  0  0  0  0  0  0  0  0  0  0
  -13.4740   -0.8750   14.8910 N   0  0  0  0  0  0  0  0  0  0  0  0
  -14.8210   -2.3240   13.3940 C   0  0  0  0  0  0  0  0  0  0  0  0
  -15.6390   -3.4240   13.7400 C   0  0  0  0  0  0  0  0  0  0  0  0
  -16.4510   -3.3910   15.0350 C   0  0  0  0  0  0  0  0  0  0  0  0
  -15.6810   -3.1530   16.0780 F   0  0  0  0  0  0  0  0  0  0  0  0
  -17.3830   -2.4360   15.0880 F   0  0  0  0  0  0  0  0  0  0  0  0
  -17.0870   -4.5230   15.3490 F   0  0  0  0  0  0  0  0  0  0  0  0
  -14.9190   -4.5200   11.7230 C   0  0  0  0  0  0  0  0  0  0  0  0
  -14.1140   -3.4730   11.3540 N   0  0  0  0  0  0  0  0  0  0  0  0
  -14.0690   -2.3960   12.1780 C   0  0  0  0  0  0  0  0  0  0  0  0
  -15.5940   -0.2400   14.2240 O   0  0  0  0  0  0  0  0  0  0  0  0
  -13.2020    0.4370   15.5290 C   0  0  0  0  0  0  0  0  0  0  0  0
  -12.0470    1.2090   14.7650 C   0  0  0  0  0  0  0  0  0  0  0  0
  -13.6490    2.5460   13.2380 C   0  0  0  0  0  0  0  0  0  0  0  0
  -11.4930    1.7880   18.2000 O   0  0  0  0  0  0  0  0  0  0  0  0
  -13.6290    2.5810   17.9440 N   0  0  0  0  0  0  0  0  0  0  0  0
  -15.0370    2.6330   17.3910 C   0  0  0  0  0  0  0  0  0  0  0  0
  -16.0370    2.8670   18.5520 C   0  0  0  0  0  0  0  0  0  0  0  0
  -15.6520    3.9740   19.4630 N   0  0  0  0  0  0  0  0  0  0  0  0
  -16.5580    4.2190   20.5620 C   0  0  0  0  0  0  0  0  0  0  0  0
  -15.8350    6.4690   20.3640 O   0  0  0  0  0  0  0  0  0  0  0  0
  -14.7050    8.5700   19.8510 C   0  0  0  0  0  0  0  0  0  0  0  0
  -13.3180    7.8730   19.7420 C   0  0  0  0  0  0  0  0  0  0  0  0
  -12.7010    7.1620   21.9920 O   0  0  0  0  0  0  0  0  0  0  0  0
  -11.5530    8.8260   21.2170 O   0  0  0  0  0  0  0  0  0  0  0  0
  -17.3606    6.8751   22.6401 H   0  0  0  0  0  0  0  0  0  0  0  0
  -18.7880    5.1186   23.6721 H   0  0  0  0  0  0  0  0  0  0  0  0
  -18.8534    2.8014   22.7361 H   0  0  0  0  0  0  0  0  0  0  0  0
  -17.3965    2.2074   20.7791 H   0  0  0  0  0  0  0  0  0  0  0  0
  -15.3857    7.8819   21.7967 H   0  0  0  0  0  0  0  0  0  0  0  0
  -16.7064    8.3112   20.6441 H   0  0  0  0  0  0  0  0  0  0  0  0
  -14.0648    2.9929   20.5648 H   0  0  0  0  0  0  0  0  0  0  0  0
  -13.9443    4.7901   20.5114 H   0  0  0  0  0  0  0  0  0  0  0  0
  -12.2074    3.7005   19.0738 H   0  0  0  0  0  0  0  0  0  0  0  0
  -13.3308    4.6938   18.1060 H   0  0  0  0  0  0  0  0  0  0  0  0
  -12.8836   -2.9232   14.7360 H   0  0  0  0  0  0  0  0  0  0  0  0
  -11.5446   -1.7000   14.5693 H   0  0  0  0  0  0  0  0  0  0  0  0
  -16.3242   -5.4211   13.1438 H   0  0  0  0  0  0  0  0  0  0  0  0
  -12.4938    0.8001   12.6814 H   0  0  0  0  0  0  0  0  0  0  0  0
  -11.5253    2.3134   12.9903 H   0  0  0  0  0  0  0  0  0  0  0  0
  -12.6644    0.1853   19.8519 H   0  0  0  0  0  0  0  0  0  0  0  0
  -16.6320   -1.2422   18.6628 H   0  0  0  0  0  0  0  0  0  0  0  0
  -11.6039   -0.9717   18.3315 H   0  0  0  0  0  0  0  0  0  0  0  0
  -10.8851   -0.3953   16.7636 H   0  0  0  0  0  0  0  0  0  0  0  0
  -12.9279   -2.6328   17.1289 H   0  0  0  0  0  0  0  0  0  0  0  0
  -11.1893   -2.7951   16.6624 H   0  0  0  0  0  0  0  0  0  0  0  0
  -14.9597   -5.3946   11.0571 H   0  0  0  0  0  0  0  0  0  0  0  0
  -13.4297   -1.5449   11.9008 H   0  0  0  0  0  0  0  0  0  0  0  0
  -14.0782    1.0971   15.4478 H   0  0  0  0  0  0  0  0  0  0  0  0
  -11.1766    0.5386   14.7110 H   0  0  0  0  0  0  0  0  0  0  0  0
  -11.8814    2.1295   15.3440 H   0  0  0  0  0  0  0  0  0  0  0  0
  -13.9998    2.7812   14.2537 H   0  0  0  0  0  0  0  0  0  0  0  0
  -13.4295    3.4802   12.7003 H   0  0  0  0  0  0  0  0  0  0  0  0
  -14.4299    1.9883   12.7003 H   0  0  0  0  0  0  0  0  0  0  0  0
  -15.1166    3.4567   16.6663 H   0  0  0  0  0  0  0  0  0  0  0  0
  -15.2708    1.6819   16.8903 H   0  0  0  0  0  0  0  0  0  0  0  0
  -17.0212    3.1005   18.1197 H   0  0  0  0  0  0  0  0  0  0  0  0
  -16.0481    1.9467   19.1544 H   0  0  0  0  0  0  0  0  0  0  0  0
  -14.5518    9.5787   20.2621 H   0  0  0  0  0  0  0  0  0  0  0  0
  -15.1317    8.5805   18.8372 H   0  0  0  0  0  0  0  0  0  0  0  0
  -13.4738    6.8215   19.4588 H   0  0  0  0  0  0  0  0  0  0  0  0
  -12.7321    8.4155   18.9854 H   0  0  0  0  0  0  0  0  0  0  0  0
  -12.6259    7.5069   22.9169 H   0  0  0  0  0  0  0  0  0  0  0  0
 36 35  1  0
 36 37  2  0
 35 14  2  0
 37 29  1  0
 14 30  1  0
 41 15  1  0
 15 40  1  0
 29 30  2  0
 29 13  1  0
 30 31  1  0
 13 38  2  0
 13 28  1  0
 40 39  1  0
 28 12  1  0
 28 39  1  0
 31 33  1  0
 31 34  1  0
 31 32  1  0
 12 27  1  0
 39 11  1  0
 27 26  1  0
 11 26  1  0
 11 25  1  0
 11 10  1  0
 44 43  1  0
 44 45  1  0
 25 24  1  0
 10 43  1  0
 10 42  2  0
 43  9  1  0
 45 46  1  0
  9  8  1  0
 24 23  1  0
 24 22  2  0
 23 20  2  0
 46  8  1  0
 46 47  1  0
 50 49  1  0
 50  7  1  0
 49  6  1  0
 22 21  1  0
 48  6  1  0
 48  1  1  0
 47  1  2  0
 47  5  1  0
 20 17  1  0
 20 21  1  0
 18 17  1  0
  7 52  2  0
  7 51  1  0
  1  2  1  0
  5  4  2  0
 17 16  1  0
 17 19  1  0
  2  3  2  0
  4  3  1  0
  2 53  1  0
  3 54  1  0
  4 55  1  0
  5 56  1  0
  6 57  1  0
  6 58  1  0
  8 59  1  0
  8 60  1  0
  9 61  1  0
  9 62  1  0
 12 63  1  0
 12 64  1  0
 14 65  1  0
 15 66  1  0
 15 67  1  0
 22 68  1  0
 23 69  1  0
 26 70  1  0
 26 71  1  0
 27 72  1  0
 27 73  1  0
 35 74  1  0
 37 75  1  0
 39 76  1  0
 40 77  1  0
 40 78  1  0
 41 79  1  0
 41 80  1  0
 41 81  1  0
 44 82  1  0
 44 83  1  0
 45 84  1  0
 45 85  1  0
 49 86  1  0
 49 87  1  0
 50 88  1  0
 50 89  1  0
 51 90  1  0
A    1
C1
A    2
C2
A    3
C3
A    4
C4
A    5
C5
A    6
C6
A    7
C9
A    8
C10
A    9
C11
A   10
C12
A   11
C13
A   12
C15
A   13
C18
A   14
C22
A   15
C26
A   16
F5
A   17
C32
A   18
F3
A   19
F4
A   20
C30
A   21
S
A   22
C29
A   23
C31
A   24
C28
A   25
O5
A   26
C17
A   27
C16
A   28
N2
A   29
C19
A   30
C23
A   31
C24
A   32
F2
A   33
F1
A   34
F
A   35
C21
A   36
N3
A   37
C20
A   38
O4
A   39
C14
A   40
C25
A   41
C27
A   42
O3
A   43
N1
A   44
C33
A   45
C34
A   46
N
A   47
C
A   48
O
A   49
C7
A   50
C8
A   51
O1
A   52
O2
M  END
