5HMW_LNW_A_1003
     RDKit          3D

 34 35  0  0  0  0  0  0  0  0999 V2000
   17.6850   66.2980   12.4690 C   0  0  0  0  0  0  0  0  0  0  0  0
   17.9620   64.8960   11.9600 C   0  0  0  0  0  0  0  0  0  0  0  0
   17.8850   63.8240   12.8590 C   0  0  0  0  0  0  0  0  0  0  0  0
   20.0420   66.6340   12.8500 O   0  0  0  0  0  0  0  0  0  0  0  0
   20.3960   61.0330   13.5540 O   0  0  0  0  0  0  0  0  0  0  0  0
   19.2640   61.2570   15.3850 O   0  0  0  0  0  0  0  0  0  0  0  0
   18.0740   63.3890    6.3600 C   0  0  0  0  0  0  0  0  0  0  0  0
   18.9770   62.3950    5.9720 C   0  0  0  0  0  0  0  0  0  0  0  0
   19.7010   61.7060    6.9510 C   0  0  0  0  0  0  0  0  0  0  0  0
   19.5400   62.0260    8.2990 C   0  0  0  0  0  0  0  0  0  0  0  0
   18.2180   64.6620   10.5990 C   0  0  0  0  0  0  0  0  0  0  0  0
   19.3190   61.2020   14.1480 C   0  0  0  0  0  0  0  0  0  0  0  0
   18.0370   61.3560   13.3620 C   0  0  0  0  0  0  0  0  0  0  0  0
   18.1090   62.5250   12.4090 C   0  0  0  0  0  0  0  0  0  0  0  0
   18.3380   62.2930   11.0470 C   0  0  0  0  0  0  0  0  0  0  0  0
   18.4320   63.3540   10.1370 C   0  0  0  0  0  0  0  0  0  0  0  0
   18.9250   67.1540   12.6710 C   0  0  0  0  0  0  0  0  0  0  0  0
   18.7840   68.3940   12.6820 O   0  0  0  0  0  0  0  0  0  0  0  0
   18.6590   63.0460    8.6900 C   0  0  0  0  0  0  0  0  0  0  0  0
   17.9100   63.7070    7.7100 C   0  0  0  0  0  0  0  0  0  0  0  0
   17.0331   66.8045   11.7420 H   0  0  0  0  0  0  0  0  0  0  0  0
   17.2199   66.1841   13.4593 H   0  0  0  0  0  0  0  0  0  0  0  0
   17.6483   64.0078   13.9174 H   0  0  0  0  0  0  0  0  0  0  0  0
   20.3743   66.4793   13.7696 H   0  0  0  0  0  0  0  0  0  0  0  0
   19.8471   60.6739   15.9328 H   0  0  0  0  0  0  0  0  0  0  0  0
   17.4890   63.9240    5.5974 H   0  0  0  0  0  0  0  0  0  0  0  0
   19.1170   62.1568    4.9073 H   0  0  0  0  0  0  0  0  0  0  0  0
   20.3997   60.9091    6.6566 H   0  0  0  0  0  0  0  0  0  0  0  0
   20.1084   61.4742    9.0621 H   0  0  0  0  0  0  0  0  0  0  0  0
   18.2509   65.5055    9.8937 H   0  0  0  0  0  0  0  0  0  0  0  0
   17.2050   61.5173   14.0633 H   0  0  0  0  0  0  0  0  0  0  0  0
   17.8811   60.4400   12.7733 H   0  0  0  0  0  0  0  0  0  0  0  0
   18.4459   61.2597   10.6854 H   0  0  0  0  0  0  0  0  0  0  0  0
   17.1873   64.4821    8.0049 H   0  0  0  0  0  0  0  0  0  0  0  0
  8  7  2  0
  8  9  1  0
  7 20  1  0
  9 10  2  0
 20 19  2  0
 10 19  1  0
 19 16  1  0
 16 11  1  0
 16 15  2  0
 11  2  2  0
 15 14  1  0
  2  1  1  0
  2  3  1  0
 14  3  2  0
 14 13  1  0
  1 17  1  0
 17 18  2  0
 17  4  1  0
 13 12  1  0
  5 12  2  0
 12  6  1  0
  1 21  1  0
  1 22  1  0
  3 23  1  0
  4 24  1  0
  6 25  1  0
  7 26  1  0
  8 27  1  0
  9 28  1  0
 10 29  1  0
 11 30  1  0
 13 31  1  0
 13 32  1  0
 15 33  1  0
 20 34  1  0
A    1
C1
A    2
C2
A    3
C3
A    4
O1
A    5
O2
A    6
O3
A    7
C11
A    8
C12
A    9
C13
A   10
C14
A   11
C15
A   12
C6
A   13
C5
A   14
C4
A   15
C7
A   16
C8
A   17
C
A   18
O
A   19
C9
A   20
C10
M  END
