5HPB_63W_A_202
     RDKit          3D

 34 36  0  0  0  0  0  0  0  0999 V2000
   28.7800   12.9920   -2.0400 C   0  0  0  0  0  0  0  0  0  0  0  0
   27.9660   12.8620   -0.9580 C   0  0  0  0  0  0  0  0  0  0  0  0
   26.6380   12.5260   -1.2120 C   0  0  0  0  0  0  0  0  0  0  0  0
   26.2230   12.3320   -2.4330 N   0  0  0  0  0  0  0  0  0  0  0  0
   28.3280   12.7990   -3.3050 N   0  0  0  0  0  0  0  0  0  0  0  0
   28.0110   13.1040    1.5570 C   0  0  0  0  0  0  0  0  0  0  0  0
   28.6230   13.1050    0.1920 C   0  0  0  0  0  0  0  0  0  0  0  0
   25.7590   12.4170   -0.1930 N   0  0  0  0  0  0  0  0  0  0  0  0
   27.0300   12.4820   -3.4880 C   0  0  0  0  0  0  0  0  0  0  0  0
   26.5970   12.2520   -4.7140 N   0  0  0  0  0  0  0  0  0  0  0  0
   30.4200   13.4230   -1.5510 S   0  0  0  0  0  0  0  0  0  0  0  0
   29.9430   13.4260    0.0950 C   0  0  0  0  0  0  0  0  0  0  0  0
   31.0390   13.8010    1.7230 S   0  0  0  0  0  0  0  0  0  0  0  0
   31.4500   15.4310    1.5500 C   0  0  0  0  0  0  0  0  0  0  0  0
   30.4580   16.3330    1.1510 C   0  0  0  0  0  0  0  0  0  0  0  0
   30.7670   17.6700    0.9590 C   0  0  0  0  0  0  0  0  0  0  0  0
   32.0760   18.1510    1.1820 C   0  0  0  0  0  0  0  0  0  0  0  0
   32.4160   19.5400    0.9720 C   0  0  0  0  0  0  0  0  0  0  0  0
   31.5720   20.2170   -0.1170 F   0  0  0  0  0  0  0  0  0  0  0  0
   32.2740   20.1860    1.9510 F   0  0  0  0  0  0  0  0  0  0  0  0
   33.6780   19.6120    0.6150 F   0  0  0  0  0  0  0  0  0  0  0  0
   33.0370   17.2230    1.6030 C   0  0  0  0  0  0  0  0  0  0  0  0
   32.7670   15.8570    1.8180 C   0  0  0  0  0  0  0  0  0  0  0  0
   28.8073   13.1053    2.3159 H   0  0  0  0  0  0  0  0  0  0  0  0
   27.3864   14.0011    1.6794 H   0  0  0  0  0  0  0  0  0  0  0  0
   27.3893   12.2048    1.6794 H   0  0  0  0  0  0  0  0  0  0  0  0
   26.0918   12.4583    0.7809 H   0  0  0  0  0  0  0  0  0  0  0  0
   24.7556   12.2926   -0.3895 H   0  0  0  0  0  0  0  0  0  0  0  0
   25.6967   11.7738   -4.8610 H   0  0  0  0  0  0  0  0  0  0  0  0
   27.1596   12.5508   -5.5234 H   0  0  0  0  0  0  0  0  0  0  0  0
   29.4290   15.9796    0.9891 H   0  0  0  0  0  0  0  0  0  0  0  0
   29.9821   18.3662    0.6284 H   0  0  0  0  0  0  0  0  0  0  0  0
   34.0624   17.5817    1.7759 H   0  0  0  0  0  0  0  0  0  0  0  0
   33.5408   15.1615    2.1751 H   0  0  0  0  0  0  0  0  0  0  0  0
 10  9  1  0
  9  5  2  0
  9  4  1  0
  5  1  1  0
  4  3  2  0
  1 11  1  0
  1  2  2  0
 11 12  1  0
  3  2  1  0
  3  8  1  0
  2  7  1  0
 19 18  1  0
 12  7  2  0
 12 13  1  0
  7  6  1  0
 21 18  1  0
 16 15  2  0
 16 17  1  0
 18 17  1  0
 18 20  1  0
 15 14  1  0
 17 22  2  0
 14 13  1  0
 14 23  2  0
 22 23  1  0
  6 24  1  0
  6 25  1  0
  6 26  1  0
  8 27  1  0
  8 28  1  0
 10 29  1  0
 10 30  1  0
 15 31  1  0
 16 32  1  0
 22 33  1  0
 23 34  1  0
A    1
C4
A    2
C5
A    3
C6
A    4
N1
A    5
N3
A    6
CAA
A    7
CAR
A    8
NAC
A    9
C2
A   10
NAB
A   11
SAN
A   12
CAT
A   13
SAM
A   14
CAP
A   15
CAG
A   16
CAI
A   17
CAS
A   18
CAW
A   19
FAE
A   20
FAF
A   21
FAD
A   22
CAJ
A   23
CAH
M  END
