5HQZ_64J_A_202
     RDKit          3D

 35 37  0  0  0  0  0  0  0  0999 V2000
   16.8380    5.8250    1.9660 C   0  0  0  0  0  0  0  0  0  0  0  0
   17.3340    6.5630    0.8550 C   0  0  0  0  0  0  0  0  0  0  0  0
   18.2900    7.4810    1.1280 C   0  0  0  0  0  0  0  0  0  0  0  0
   18.7010    7.7530    2.4130 N   0  0  0  0  0  0  0  0  0  0  0  0
   17.1790    6.0280    3.2360 N   0  0  0  0  0  0  0  0  0  0  0  0
    7.3270    6.4480    0.4630 F   0  0  0  0  0  0  0  0  0  0  0  0
    8.4700    5.9350    0.4330 C   0  0  0  0  0  0  0  0  0  0  0  0
    8.3540    4.3160    0.4400 F   0  0  0  0  0  0  0  0  0  0  0  0
    9.2410    6.4920    1.7170 F   0  0  0  0  0  0  0  0  0  0  0  0
    9.0910    6.3690   -0.8660 O   0  0  0  0  0  0  0  0  0  0  0  0
   10.3750    5.9940   -1.0280 C   0  0  0  0  0  0  0  0  0  0  0  0
   11.4540    6.8240   -0.7520 C   0  0  0  0  0  0  0  0  0  0  0  0
   12.7940    6.4100   -0.9460 C   0  0  0  0  0  0  0  0  0  0  0  0
   10.6160    4.7040   -1.4540 C   0  0  0  0  0  0  0  0  0  0  0  0
   11.9050    4.2840   -1.6330 C   0  0  0  0  0  0  0  0  0  0  0  0
   13.0140    5.0860   -1.3310 C   0  0  0  0  0  0  0  0  0  0  0  0
   14.6860    4.2920   -1.5320 S   0  0  0  0  0  0  0  0  0  0  0  0
   15.7820    5.1530   -0.1360 C   0  0  0  0  0  0  0  0  0  0  0  0
   15.5970    4.6770    1.5280 S   0  0  0  0  0  0  0  0  0  0  0  0
   18.0940    7.0360    3.3990 C   0  0  0  0  0  0  0  0  0  0  0  0
   18.4950    7.2720    4.6540 N   0  0  0  0  0  0  0  0  0  0  0  0
   18.9080    8.2250    0.1250 N   0  0  0  0  0  0  0  0  0  0  0  0
   16.7630    6.1390   -0.3310 C   0  0  0  0  0  0  0  0  0  0  0  0
   16.9570    6.6740   -1.7280 C   0  0  0  0  0  0  0  0  0  0  0  0
   11.2609    7.8372   -0.3698 H   0  0  0  0  0  0  0  0  0  0  0  0
   13.6322    7.1069   -0.7986 H   0  0  0  0  0  0  0  0  0  0  0  0
    9.7777    4.0187   -1.6481 H   0  0  0  0  0  0  0  0  0  0  0  0
   12.0789    3.2734   -2.0311 H   0  0  0  0  0  0  0  0  0  0  0  0
   17.9285    6.9386    5.4470 H   0  0  0  0  0  0  0  0  0  0  0  0
   19.3701    7.7870    4.8268 H   0  0  0  0  0  0  0  0  0  0  0  0
   19.5467    8.9939    0.3735 H   0  0  0  0  0  0  0  0  0  0  0  0
   18.7261    8.0061   -0.8649 H   0  0  0  0  0  0  0  0  0  0  0  0
   17.3316    7.7070   -1.6763 H   0  0  0  0  0  0  0  0  0  0  0  0
   17.6848    6.0464   -2.2632 H   0  0  0  0  0  0  0  0  0  0  0  0
   15.9961    6.6588   -2.2632 H   0  0  0  0  0  0  0  0  0  0  0  0
 24 23  1  0
 15 14  1  0
 15 16  2  0
 17 16  1  0
 17 18  1  0
 14 11  2  0
 16 13  1  0
 11 10  1  0
 11 12  1  0
 13 12  2  0
 10  7  1  0
 23 18  2  0
 23  2  1  0
 18 19  1  0
 22  3  1  0
  7  8  1  0
  7  6  1  0
  7  9  1  0
  2  3  2  0
  2  1  1  0
  3  4  1  0
 19  1  1  0
  1  5  2  0
  4 20  2  0
  5 20  1  0
 20 21  1  0
 12 25  1  0
 13 26  1  0
 14 27  1  0
 15 28  1  0
 21 29  1  0
 21 30  1  0
 22 31  1  0
 22 32  1  0
 24 33  1  0
 24 34  1  0
 24 35  1  0
A    1
C4
A    2
C5
A    3
C6
A    4
N1
A    5
N3
A    6
FAD
A    7
CAX
A    8
FAE
A    9
FAF
A   10
OAM
A   11
CAQ
A   12
CAH
A   13
CAJ
A   14
CAG
A   15
CAI
A   16
CAR
A   17
SAN
A   18
CAU
A   19
SAO
A   20
C2
A   21
NAB
A   22
NAC
A   23
CAT
A   24
CAA
M  END
