5HRV_64C_A_801
     RDKit          3D

 26 28  0  0  0  0  0  0  0  0999 V2000
   21.4280   30.0940   10.5560 C   0  0  0  0  0  0  0  0  0  0  0  0
   20.8430   28.8380   10.4850 C   0  0  0  0  0  0  0  0  0  0  0  0
   21.3180   27.6860   11.2210 C   0  0  0  0  0  0  0  0  0  0  0  0
   20.6860   26.4330   11.1300 C   0  0  0  0  0  0  0  0  0  0  0  0
   19.5530   26.2850   10.3100 C   0  0  0  0  0  0  0  0  0  0  0  0
   19.0590   27.3700    9.5920 C   0  0  0  0  0  0  0  0  0  0  0  0
   19.6730   28.6500    9.7020 C   0  0  0  0  0  0  0  0  0  0  0  0
   19.1820   29.7790    8.9630 C   0  0  0  0  0  0  0  0  0  0  0  0
   18.1780   29.7380    8.2710 O   0  0  0  0  0  0  0  0  0  0  0  0
   19.7850   30.9890    9.0300 O   0  0  0  0  0  0  0  0  0  0  0  0
   20.8660   31.1350    9.8140 C   0  0  0  0  0  0  0  0  0  0  0  0
   21.5610   32.2270    9.9520 N   0  0  0  0  0  0  0  0  0  0  0  0
   22.6260   31.9660   10.8290 N   0  0  0  0  0  0  0  0  0  0  0  0
   22.5430   30.6710   11.1530 C   0  0  0  0  0  0  0  0  0  0  0  0
   23.5630   30.0540   12.1410 C   0  0  0  0  0  0  0  0  0  0  0  0
   24.4820   31.1600   12.6350 C   0  0  0  0  0  0  0  0  0  0  0  0
   22.1992   27.7936   11.8706 H   0  0  0  0  0  0  0  0  0  0  0  0
   21.0753   25.5742   11.6965 H   0  0  0  0  0  0  0  0  0  0  0  0
   19.0549   25.3070   10.2358 H   0  0  0  0  0  0  0  0  0  0  0  0
   18.1873   27.2377    8.9343 H   0  0  0  0  0  0  0  0  0  0  0  0
   21.3633   33.1289    9.4956 H   0  0  0  0  0  0  0  0  0  0  0  0
   23.0306   29.6053   12.9926 H   0  0  0  0  0  0  0  0  0  0  0  0
   24.1500   29.2712   11.6384 H   0  0  0  0  0  0  0  0  0  0  0  0
   24.4883   31.1676   13.7350 H   0  0  0  0  0  0  0  0  0  0  0  0
   25.5021   30.9823   12.2637 H   0  0  0  0  0  0  0  0  0  0  0  0
   24.1205   32.1303   12.2637 H   0  0  0  0  0  0  0  0  0  0  0  0
  9  8  2  0
  8 10  1  0
  8  7  1  0
 10 11  1  0
  6  7  2  0
  6  5  1  0
  7  2  1  0
 11 12  1  0
 11  1  2  0
 12 13  1  0
  5  4  2  0
  2  1  1  0
  2  3  2  0
  1 14  1  0
 13 14  2  0
  4  3  1  0
 14 15  1  0
 15 16  1  0
  3 17  1  0
  4 18  1  0
  5 19  1  0
  6 20  1  0
 12 21  1  0
 15 22  1  0
 15 23  1  0
 16 24  1  0
 16 25  1  0
 16 26  1  0
A    1
CAG
A    2
CAD
A    3
CAC
A    4
CAB
A    5
CAA
A    6
CAF
A    7
CAE
A    8
CAJ
A    9
OAK
A   10
OAI
A   11
CAH
A   12
NAN
A   13
NAM
A   14
CAL
A   15
CAO
A   16
CAP
M  END
