5HS3_KI3_A_401
     RDKit          3D

 32 34  0  0  0  0  0  0  0  0999 V2000
   37.4260   45.1190   29.9780 O   0  0  0  0  0  0  0  0  0  0  0  0
   37.9010   44.3920   28.8730 C   0  0  0  0  0  0  0  0  0  0  0  0
   37.5900   44.7940   27.5830 C   0  0  0  0  0  0  0  0  0  0  0  0
   38.0590   44.0810   26.4990 C   0  0  0  0  0  0  0  0  0  0  0  0
   37.6630   44.5960   25.1300 C   0  0  0  0  0  0  0  0  0  0  0  0
   38.8720   42.9260   26.7410 C   0  0  0  0  0  0  0  0  0  0  0  0
   39.1440   42.5820   28.0440 C   0  0  0  0  0  0  0  0  0  0  0  0
   38.6610   43.3060   29.0830 N   0  0  0  0  0  0  0  0  0  0  0  0
   40.1240   41.1590   27.9790 S   0  0  0  0  0  0  0  0  0  0  0  0
   40.1890   41.0110   26.2740 C   0  0  0  0  0  0  0  0  0  0  0  0
   39.4520   42.0540   25.7700 C   0  0  0  0  0  0  0  0  0  0  0  0
   39.3230   42.1990   24.3700 N   0  0  0  0  0  0  0  0  0  0  0  0
   40.9170   39.9480   25.4950 C   0  0  0  0  0  0  0  0  0  0  0  0
   40.9610   39.9970   24.2910 O   0  0  0  0  0  0  0  0  0  0  0  0
   41.5910   38.8120   26.2130 C   0  0  0  0  0  0  0  0  0  0  0  0
   42.2600   39.0020   27.4140 C   0  0  0  0  0  0  0  0  0  0  0  0
   42.8620   37.9390   28.0470 C   0  0  0  0  0  0  0  0  0  0  0  0
   42.8000   36.6850   27.4790 C   0  0  0  0  0  0  0  0  0  0  0  0
   42.1330   36.4920   26.2810 C   0  0  0  0  0  0  0  0  0  0  0  0
   41.5260   37.5570   25.6480 C   0  0  0  0  0  0  0  0  0  0  0  0
   37.6274   44.8107   30.8970 H   0  0  0  0  0  0  0  0  0  0  0  0
   36.9662   45.6858   27.4231 H   0  0  0  0  0  0  0  0  0  0  0  0
   36.9961   45.4634   25.2434 H   0  0  0  0  0  0  0  0  0  0  0  0
   38.5647   44.8967   24.5764 H   0  0  0  0  0  0  0  0  0  0  0  0
   37.1407   43.8018   24.5764 H   0  0  0  0  0  0  0  0  0  0  0  0
   38.6887   42.9120   23.9824 H   0  0  0  0  0  0  0  0  0  0  0  0
   39.8633   41.5917   23.7374 H   0  0  0  0  0  0  0  0  0  0  0  0
   42.3091   40.0057   27.8613 H   0  0  0  0  0  0  0  0  0  0  0  0
   43.3895   38.0892   29.0005 H   0  0  0  0  0  0  0  0  0  0  0  0
   43.2829   35.8330   27.9799 H   0  0  0  0  0  0  0  0  0  0  0  0
   42.0870   35.4882   25.8334 H   0  0  0  0  0  0  0  0  0  0  0  0
   40.9932   37.4051   24.6977 H   0  0  0  0  0  0  0  0  0  0  0  0
 14 13  2  0
 12 11  1  0
  5  4  1  0
 13 15  1  0
 13 10  1  0
 20 15  1  0
 20 19  2  0
 11 10  2  0
 11  6  1  0
 15 16  2  0
 10  9  1  0
 19 18  1  0
  4  6  2  0
  4  3  1  0
  6  7  1  0
 16 17  1  0
 18 17  2  0
  3  2  2  0
  9  7  1  0
  7  8  2  0
  2  8  1  0
  2  1  1  0
  1 21  1  0
  3 22  1  0
  5 23  1  0
  5 24  1  0
  5 25  1  0
 12 26  1  0
 12 27  1  0
 16 28  1  0
 17 29  1  0
 18 30  1  0
 19 31  1  0
 20 32  1  0
A    1
O01
A    2
C02
A    3
C03
A    4
C04
A    5
C05
A    6
C06
A    7
C07
A    8
N08
A    9
S09
A   10
C10
A   11
C11
A   12
N12
A   13
C13
A   14
O14
A   15
C15
A   16
C16
A   17
C17
A   18
C18
A   19
C19
A   20
C20
M  END
