3HM1_J3Z_A_2
     RDKit          3D

 42 45  0  0  0  0  0  0  0  0999 V2000
    5.6330    3.5170   -6.4850 C   0  0  0  0  0  0  0  0  0  0  0  0
    3.3130    2.5280   -6.9890 C   0  0  0  0  0  0  0  0  0  0  0  0
    3.1750    2.2730   -5.4990 C   0  0  0  0  0  0  0  0  0  0  0  0
    3.6460    0.8720   -5.1320 C   0  0  0  0  0  0  0  0  0  0  0  0
    0.7660    2.1360   -5.3840 O   0  0  0  0  0  0  0  0  0  0  0  0
   11.0910    3.2900   -7.9400 O   0  0  0  0  0  0  0  0  0  0  0  0
    1.8230    2.5020   -4.8840 C   0  0  0  0  0  0  0  0  0  0  0  0
    1.9170    3.1430   -3.5150 C   0  0  0  0  0  0  0  0  0  0  0  0
    3.4070    3.4450   -3.3650 C   0  0  0  0  0  0  0  0  0  0  0  0
    3.9450    3.3700   -4.7970 C   0  0  0  0  0  0  0  0  0  0  0  0
    5.4330    3.1930   -5.0130 C   0  0  0  0  0  0  0  0  0  0  0  0
    4.7960    2.5750   -7.3630 C   0  0  0  0  0  0  0  0  0  0  0  0
    6.2600    4.1030   -4.1180 C   0  0  0  0  0  0  0  0  0  0  0  0
    7.7500    4.1510   -4.4810 C   0  0  0  0  0  0  0  0  0  0  0  0
    8.0690    3.7610   -5.9190 C   0  0  0  0  0  0  0  0  0  0  0  0
    7.0780    3.4630   -6.8520 C   0  0  0  0  0  0  0  0  0  0  0  0
    9.4180    3.6910   -6.2960 C   0  0  0  0  0  0  0  0  0  0  0  0
    9.7710    3.3470   -7.5890 C   0  0  0  0  0  0  0  0  0  0  0  0
    8.7730    3.0520   -8.5280 C   0  0  0  0  0  0  0  0  0  0  0  0
    7.4300    3.1080   -8.1580 C   0  0  0  0  0  0  0  0  0  0  0  0
    5.2849    4.5450   -6.6643 H   0  0  0  0  0  0  0  0  0  0  0  0
    2.8196    1.7184   -7.5468 H   0  0  0  0  0  0  0  0  0  0  0  0
    2.8403    3.4885   -7.2420 H   0  0  0  0  0  0  0  0  0  0  0  0
    3.6798    0.7716   -4.0371 H   0  0  0  0  0  0  0  0  0  0  0  0
    2.9479    0.1300   -5.5469 H   0  0  0  0  0  0  0  0  0  0  0  0
    4.6505    0.7024   -5.5469 H   0  0  0  0  0  0  0  0  0  0  0  0
   11.7889    3.2599   -7.2385 H   0  0  0  0  0  0  0  0  0  0  0  0
    1.5754    2.4501   -2.7320 H   0  0  0  0  0  0  0  0  0  0  0  0
    1.2860    4.0386   -3.4167 H   0  0  0  0  0  0  0  0  0  0  0  0
    3.5621    4.4480   -2.9409 H   0  0  0  0  0  0  0  0  0  0  0  0
    3.9147    2.7458   -2.6843 H   0  0  0  0  0  0  0  0  0  0  0  0
    3.7894    4.3761   -5.2136 H   0  0  0  0  0  0  0  0  0  0  0  0
    5.7692    2.1782   -4.7539 H   0  0  0  0  0  0  0  0  0  0  0  0
    5.2081    1.5593   -7.2709 H   0  0  0  0  0  0  0  0  0  0  0  0
    4.8526    2.9640   -8.3903 H   0  0  0  0  0  0  0  0  0  0  0  0
    5.8533    5.1224   -4.1914 H   0  0  0  0  0  0  0  0  0  0  0  0
    6.1942    3.6923   -3.0997 H   0  0  0  0  0  0  0  0  0  0  0  0
    8.1095    5.1775   -4.3168 H   0  0  0  0  0  0  0  0  0  0  0  0
    8.2494    3.4092   -3.8404 H   0  0  0  0  0  0  0  0  0  0  0  0
   10.2025    3.9115   -5.5572 H   0  0  0  0  0  0  0  0  0  0  0  0
    9.0493    2.7764   -9.5564 H   0  0  0  0  0  0  0  0  0  0  0  0
    6.6468    2.8728   -8.8938 H   0  0  0  0  0  0  0  0  0  0  0  0
  8  9  1  0
  8  7  1  0
  5  7  2  0
  9 10  1  0
  7  3  1  0
  4  3  1  0
  3 10  1  0
  3  2  1  0
 10 11  1  0
 13 11  1  0
 13 14  1  0
 11  1  1  0
  2 12  1  0
 14 15  1  0
  1 12  1  0
  1 16  1  0
 15 16  2  0
 15 17  1  0
 16 20  1  0
 17 18  2  0
 20 19  2  0
 18 19  1  0
 18  6  1  0
  1 21  1  0
  2 22  1  0
  2 23  1  0
  4 24  1  0
  4 25  1  0
  4 26  1  0
  6 27  1  0
  8 28  1  0
  8 29  1  0
  9 30  1  0
  9 31  1  0
 10 32  1  0
 11 33  1  0
 12 34  1  0
 12 35  1  0
 13 36  1  0
 13 37  1  0
 14 38  1  0
 14 39  1  0
 17 40  1  0
 19 41  1  0
 20 42  1  0
A    1
C2
A    2
C4
A    3
C5
A    4
C6
A    5
O1
A    6
O3
A    7
C7
A    8
C8
A    9
C9
A   10
C10
A   11
C12
A   12
C3
A   13
C14
A   14
C15
A   15
C16
A   16
C21
A   17
C17
A   18
C18
A   19
C19
A   20
C20
M  END
