5HTZ_66J_A_501
     RDKit          3D

 43 45  0  0  0  0  0  0  0  0999 V2000
   26.4160   10.7780   19.8250 C   0  0  0  0  0  0  0  0  0  0  0  0
   22.2270    9.8980   23.7700 C   0  0  0  0  0  0  0  0  0  0  0  0
   20.4220    9.5370   20.5590 C   0  0  0  0  0  0  0  0  0  0  0  0
   23.2590   11.8860   24.9900 C   0  0  0  0  0  0  0  0  0  0  0  0
   24.0990   11.7140   19.2150 C   0  0  0  0  0  0  0  0  0  0  0  0
   24.9770   10.9010   19.9030 C   0  0  0  0  0  0  0  0  0  0  0  0
   29.2180    9.5310   21.8840 C   0  0  0  0  0  0  0  0  0  0  0  0
   22.7410   11.6280   19.6310 C   0  0  0  0  0  0  0  0  0  0  0  0
   30.5380    8.3470   23.8640 C   0  0  0  0  0  0  0  0  0  0  0  0
   21.3430   10.3480   21.4520 C   0  0  0  0  0  0  0  0  0  0  0  0
   27.1300   10.1830   20.8450 C   0  0  0  0  0  0  0  0  0  0  0  0
   29.1480   10.7410   19.7480 C   0  0  0  0  0  0  0  0  0  0  0  0
   27.1540   11.3290   18.7930 C   0  0  0  0  0  0  0  0  0  0  0  0
   22.5740   10.7430   20.6860 C   0  0  0  0  0  0  0  0  0  0  0  0
   20.5420   11.5340   21.9520 C   0  0  0  0  0  0  0  0  0  0  0  0
   28.5050   10.1420   20.8110 C   0  0  0  0  0  0  0  0  0  0  0  0
   28.4940   11.3330   18.7320 N   0  0  0  0  0  0  0  0  0  0  0  0
   21.4840   12.5120   23.0880 S   0  0  0  0  0  0  0  0  0  0  0  0
   22.3660   11.3100   23.9600 N   0  0  0  0  0  0  0  0  0  0  0  0
   21.5710    9.5070   22.6230 N   0  0  0  0  0  0  0  0  0  0  0  0
   22.7110    9.0740   24.6390 N   0  0  0  0  0  0  0  0  0  0  0  0
   20.5560   13.1420   24.0110 O   0  0  0  0  0  0  0  0  0  0  0  0
   22.4530   13.3010   22.3580 O   0  0  0  0  0  0  0  0  0  0  0  0
   24.0960   10.0520   21.1010 S   0  0  0  0  0  0  0  0  0  0  0  0
   21.4950   12.5720   18.9050 Cl  0  0  0  0  0  0  0  0  0  0  0  0
   29.7990    9.0050   22.7940 C   0  0  0  0  0  0  0  0  0  0  0  0
   19.7415    8.9378   21.1818 H   0  0  0  0  0  0  0  0  0  0  0  0
   19.8349   10.2168   19.9240 H   0  0  0  0  0  0  0  0  0  0  0  0
   21.0220    8.8686   19.9240 H   0  0  0  0  0  0  0  0  0  0  0  0
   22.8737   11.6375   25.9899 H   0  0  0  0  0  0  0  0  0  0  0  0
   24.2704   11.4696   24.8729 H   0  0  0  0  0  0  0  0  0  0  0  0
   23.2967   12.9791   24.8729 H   0  0  0  0  0  0  0  0  0  0  0  0
   24.4257   12.3806   18.4033 H   0  0  0  0  0  0  0  0  0  0  0  0
   30.1553    8.6878   24.8373 H   0  0  0  0  0  0  0  0  0  0  0  0
   30.4110    7.2575   23.7811 H   0  0  0  0  0  0  0  0  0  0  0  0
   31.6055    8.5991   23.7811 H   0  0  0  0  0  0  0  0  0  0  0  0
   26.5937    9.7363   21.6952 H   0  0  0  0  0  0  0  0  0  0  0  0
   30.2478   10.7345   19.7299 H   0  0  0  0  0  0  0  0  0  0  0  0
   26.6032   11.7969   17.9638 H   0  0  0  0  0  0  0  0  0  0  0  0
   20.2537   12.1592   21.0941 H   0  0  0  0  0  0  0  0  0  0  0  0
   19.6508   11.1562   22.4745 H   0  0  0  0  0  0  0  0  0  0  0  0
   21.2121    8.5421   22.5892 H   0  0  0  0  0  0  0  0  0  0  0  0
   23.1911    9.4323   25.4769 H   0  0  0  0  0  0  0  0  0  0  0  0
 17 13  2  0
 17 12  1  0
 13  1  1  0
 25  8  1  0
  5  8  1  0
  5  6  2  0
  8 14  2  0
 12 16  2  0
  1  6  1  0
  1 11  2  0
  6 24  1  0
  3 10  1  0
 14 24  1  0
 14 10  1  0
 16 11  1  0
 16  7  1  0
 10 15  1  0
 10 20  1  0
  7 26  3  0
 15 18  1  0
 23 18  2  0
 20  2  1  0
 26  9  1  0
 18 19  1  0
 18 22  2  0
  2 19  1  0
  2 21  2  3
 19  4  1  0
  3 27  1  0
  3 28  1  0
  3 29  1  0
  4 30  1  0
  4 31  1  0
  4 32  1  0
  5 33  1  0
  9 34  1  0
  9 35  1  0
  9 36  1  0
 11 37  1  0
 12 38  1  0
 13 39  1  0
 15 40  1  0
 15 41  1  0
 20 42  1  0
 21 43  1  0
A    1
C1
A    2
C11
A    3
C14
A    4
C17
A    5
C21
A    6
C20
A    7
C24
A    8
C22
A    9
C26
A   10
C13
A   11
C2
A   12
C4
A   13
C6
A   14
C7
A   15
C8
A   16
C3
A   17
N5
A   18
S9
A   19
N10
A   20
N12
A   21
N15
A   22
O16
A   23
O18
A   24
S19
A   25
CL23
A   26
C25
M  END
