5HUI_65N_A_202
     RDKit          3D

 38 40  0  0  0  0  0  0  0  0999 V2000
   17.2150    6.6620    2.2800 C   0  0  0  0  0  0  0  0  0  0  0  0
   17.8080    7.2670    1.2020 C   0  0  0  0  0  0  0  0  0  0  0  0
   18.8550    8.2270    1.4240 C   0  0  0  0  0  0  0  0  0  0  0  0
   19.2430    8.4350    2.7160 N   0  0  0  0  0  0  0  0  0  0  0  0
   17.6580    6.9040    3.5170 N   0  0  0  0  0  0  0  0  0  0  0  0
    8.0070    5.6790   -1.0010 F   0  0  0  0  0  0  0  0  0  0  0  0
    9.3110    5.9030   -0.6870 C   0  0  0  0  0  0  0  0  0  0  0  0
    9.6060    5.1700    0.4240 F   0  0  0  0  0  0  0  0  0  0  0  0
    9.5640    7.2450   -0.5950 F   0  0  0  0  0  0  0  0  0  0  0  0
   10.1110    5.4020   -1.6960 O   0  0  0  0  0  0  0  0  0  0  0  0
   11.5090    5.6050   -1.5910 C   0  0  0  0  0  0  0  0  0  0  0  0
   12.3330    4.6700   -1.9800 C   0  0  0  0  0  0  0  0  0  0  0  0
   13.7210    4.8550   -1.9910 C   0  0  0  0  0  0  0  0  0  0  0  0
   12.0460    6.8050   -1.2350 C   0  0  0  0  0  0  0  0  0  0  0  0
   13.4000    7.0660   -1.1500 C   0  0  0  0  0  0  0  0  0  0  0  0
   14.3420    6.0740   -1.5700 C   0  0  0  0  0  0  0  0  0  0  0  0
   15.7540    6.0390   -1.4520 N   0  0  0  0  0  0  0  0  0  0  0  0
   16.6750    5.1950   -2.2240 C   0  0  0  0  0  0  0  0  0  0  0  0
   16.2580    6.2570   -0.2130 C   0  0  0  0  0  0  0  0  0  0  0  0
   17.2850    7.0940   -0.0570 N   0  0  0  0  0  0  0  0  0  0  0  0
   19.4300    8.8140    0.4110 N   0  0  0  0  0  0  0  0  0  0  0  0
   18.6430    7.8330    3.7270 C   0  0  0  0  0  0  0  0  0  0  0  0
   19.0310    8.0740    4.9600 N   0  0  0  0  0  0  0  0  0  0  0  0
   16.1620    5.7590    2.1520 C   0  0  0  0  0  0  0  0  0  0  0  0
   15.7080    5.5680    0.8510 C   0  0  0  0  0  0  0  0  0  0  0  0
   11.9230    3.7042   -2.3103 H   0  0  0  0  0  0  0  0  0  0  0  0
   14.3604    4.0296   -2.3374 H   0  0  0  0  0  0  0  0  0  0  0  0
   11.3520    7.6250   -0.9982 H   0  0  0  0  0  0  0  0  0  0  0  0
   13.7526    8.0326   -0.7610 H   0  0  0  0  0  0  0  0  0  0  0  0
   17.3069    4.6159   -1.5345 H   0  0  0  0  0  0  0  0  0  0  0  0
   16.0972    4.5063   -2.8579 H   0  0  0  0  0  0  0  0  0  0  0  0
   17.3108    5.8306   -2.8579 H   0  0  0  0  0  0  0  0  0  0  0  0
   20.1418    9.5406    0.5730 H   0  0  0  0  0  0  0  0  0  0  0  0
   19.1723    8.5509   -0.5509 H   0  0  0  0  0  0  0  0  0  0  0  0
   18.4724    7.7270    5.7528 H   0  0  0  0  0  0  0  0  0  0  0  0
   19.8935    8.6097    5.1331 H   0  0  0  0  0  0  0  0  0  0  0  0
   15.7227    5.2365    3.0145 H   0  0  0  0  0  0  0  0  0  0  0  0
   14.8932    4.8527    0.6652 H   0  0  0  0  0  0  0  0  0  0  0  0
 18 17  1  0
 13 12  1  0
 13 16  2  0
 12 11  2  0
 10 11  1  0
 10  7  1  0
 11 14  1  0
 16 17  1  0
 16 15  1  0
 17 19  1  0
 14 15  2  0
  6  7  1  0
  7  9  1  0
  7  8  1  0
 19 20  2  0
 19 25  1  0
 20  2  1  0
 21  3  1  0
 25 24  2  0
  2  3  2  0
  2  1  1  0
  3  4  1  0
 24  1  1  0
  1  5  2  0
  4 22  2  0
  5 22  1  0
 22 23  1  0
 12 26  1  0
 13 27  1  0
 14 28  1  0
 15 29  1  0
 18 30  1  0
 18 31  1  0
 18 32  1  0
 21 33  1  0
 21 34  1  0
 23 35  1  0
 23 36  1  0
 24 37  1  0
 25 38  1  0
A    1
C4
A    2
C5
A    3
C6
A    4
N1
A    5
N3
A    6
FAD
A    7
CAY
A    8
FAE
A    9
FAF
A   10
OAP
A   11
CAS
A   12
CAH
A   13
CAJ
A   14
CAG
A   15
CAI
A   16
CAT
A   17
NAX
A   18
CAA
A   19
CAU
A   20
NAO
A   21
NAC
A   22
C2
A   23
NAB
A   24
CAL
A   25
CAK
M  END
