5HVE_65Q_A_201
     RDKit          3D

 35 37  0  0  0  0  0  0  0  0999 V2000
   -3.0180   17.5250   23.7320 C   0  0  0  0  0  0  0  0  0  0  0  0
   -2.6760   18.2300   24.8920 C   0  0  0  0  0  0  0  0  0  0  0  0
   -2.5100   19.6100   24.7010 C   0  0  0  0  0  0  0  0  0  0  0  0
   -2.6270   20.1750   23.4800 N   0  0  0  0  0  0  0  0  0  0  0  0
   -3.2550   18.0630   22.5520 N   0  0  0  0  0  0  0  0  0  0  0  0
   -8.6080   16.2800   28.2890 F   0  0  0  0  0  0  0  0  0  0  0  0
   -7.6540   17.0000   28.7060 C   0  0  0  0  0  0  0  0  0  0  0  0
   -8.1280   17.8450   29.6530 F   0  0  0  0  0  0  0  0  0  0  0  0
   -7.1630   17.7050   27.6660 F   0  0  0  0  0  0  0  0  0  0  0  0
   -6.6450   16.2500   29.3320 O   0  0  0  0  0  0  0  0  0  0  0  0
   -6.0110   15.1690   28.7740 C   0  0  0  0  0  0  0  0  0  0  0  0
   -4.8220   15.4120   28.1070 C   0  0  0  0  0  0  0  0  0  0  0  0
   -6.4570   13.8260   28.8930 C   0  0  0  0  0  0  0  0  0  0  0  0
   -5.7160   12.7830   28.3750 C   0  0  0  0  0  0  0  0  0  0  0  0
   -4.4870   13.0350   27.7090 C   0  0  0  0  0  0  0  0  0  0  0  0
   -4.0630   14.3920   27.5380 C   0  0  0  0  0  0  0  0  0  0  0  0
   -2.5720   14.6420   26.7360 S   0  0  0  0  0  0  0  0  0  0  0  0
   -2.7740   16.1320   25.7360 C   0  0  0  0  0  0  0  0  0  0  0  0
   -3.3580   15.8630   24.1150 S   0  0  0  0  0  0  0  0  0  0  0  0
   -2.9530   19.3770   22.4500 C   0  0  0  0  0  0  0  0  0  0  0  0
   -3.0660   19.9680   21.2340 N   0  0  0  0  0  0  0  0  0  0  0  0
   -2.1880   20.4680   25.7030 N   0  0  0  0  0  0  0  0  0  0  0  0
   -2.4980   17.4460   26.0120 C   0  0  0  0  0  0  0  0  0  0  0  0
   -2.0460   17.9070   27.4250 C   0  0  0  0  0  0  0  0  0  0  0  0
   -4.4637   16.4487   28.0234 H   0  0  0  0  0  0  0  0  0  0  0  0
   -7.4069   13.6138   29.4055 H   0  0  0  0  0  0  0  0  0  0  0  0
   -6.0796   11.7500   28.4786 H   0  0  0  0  0  0  0  0  0  0  0  0
   -3.8729   12.2039   27.3319 H   0  0  0  0  0  0  0  0  0  0  0  0
   -3.2590   20.9776   21.1680 H   0  0  0  0  0  0  0  0  0  0  0  0
   -2.9588   19.4071   20.3768 H   0  0  0  0  0  0  0  0  0  0  0  0
   -2.2972   20.1772   26.6850 H   0  0  0  0  0  0  0  0  0  0  0  0
   -1.8346   21.4097   25.4810 H   0  0  0  0  0  0  0  0  0  0  0  0
   -2.5997   17.3423   28.1895 H   0  0  0  0  0  0  0  0  0  0  0  0
   -0.9678   17.7238   27.5430 H   0  0  0  0  0  0  0  0  0  0  0  0
   -2.2504   18.9814   27.5430 H   0  0  0  0  0  0  0  0  0  0  0  0
 21 20  1  0
 20  5  2  0
 20  4  1  0
  5  1  1  0
  4  3  2  0
  1 19  1  0
  1  2  2  0
 19 18  1  0
  3  2  1  0
  3 22  1  0
  2 23  1  0
 18 23  2  0
 18 17  1  0
 23 24  1  0
 17 16  1  0
 16 15  2  0
 16 12  1  0
  9  7  1  0
 15 14  1  0
 12 11  2  0
  6  7  1  0
 14 13  2  0
  7 10  1  0
  7  8  1  0
 11 13  1  0
 11 10  1  0
 12 25  1  0
 13 26  1  0
 14 27  1  0
 15 28  1  0
 21 29  1  0
 21 30  1  0
 22 31  1  0
 22 32  1  0
 24 33  1  0
 24 34  1  0
 24 35  1  0
A    1
C4
A    2
C5
A    3
C6
A    4
N1
A    5
N3
A    6
FAD
A    7
CAX
A    8
FAE
A    9
FAF
A   10
OAM
A   11
CAQ
A   12
CAJ
A   13
CAH
A   14
CAG
A   15
CAI
A   16
CAR
A   17
SAN
A   18
CAU
A   19
SAO
A   20
C2
A   21
NAB
A   22
NAC
A   23
CAT
A   24
CAA
M  END
