5HVY_66X_A_501
     RDKit          3D

 62 65  0  0  0  0  0  0  0  0999 V2000
   -4.9610  -24.5050  151.8690 C   0  0  0  0  0  0  0  0  0  0  0  0
   -8.3280  -25.8540  149.6010 C   0  0  0  0  0  0  0  0  0  0  0  0
   -7.2150  -25.5410  150.3750 C   0  0  0  0  0  0  0  0  0  0  0  0
   -2.6940  -24.6180  151.1200 C   0  0  0  0  0  0  0  0  0  0  0  0
   -6.0110  -25.2410  149.7370 C   0  0  0  0  0  0  0  0  0  0  0  0
   -3.5300  -24.8550  149.8750 C   0  0  0  0  0  0  0  0  0  0  0  0
   -3.6080  -23.8460  152.0560 C   0  0  0  0  0  0  0  0  0  0  0  0
   -6.9610  -25.5800  146.3040 N   0  0  0  0  0  0  0  0  0  0  0  0
   -7.0590  -25.5710  147.6580 C   0  0  0  0  0  0  0  0  0  0  0  0
   -5.7040  -25.2630  145.6170 C   0  0  0  0  0  0  0  0  0  0  0  0
   -8.2290  -25.8670  148.2620 N   0  0  0  0  0  0  0  0  0  0  0  0
   -5.9690  -25.2640  148.3940 N   0  0  0  0  0  0  0  0  0  0  0  0
   -4.8650  -24.8860  150.4660 N   0  0  0  0  0  0  0  0  0  0  0  0
   -3.0140  -23.9410  153.4010 N   0  0  0  0  0  0  0  0  0  0  0  0
   -3.3770  -23.0780  154.3490 C   0  0  0  0  0  0  0  0  0  0  0  0
   -4.2610  -22.2630  154.1090 O   0  0  0  0  0  0  0  0  0  0  0  0
   -2.8090  -23.1620  155.5650 N   0  0  0  0  0  0  0  0  0  0  0  0
   -3.1120  -22.2340  156.5780 C   0  0  0  0  0  0  0  0  0  0  0  0
   -1.9900  -21.7990  157.2720 C   0  0  0  0  0  0  0  0  0  0  0  0
   -2.0760  -20.8380  158.2740 C   0  0  0  0  0  0  0  0  0  0  0  0
   -3.3160  -20.2740  158.5940 C   0  0  0  0  0  0  0  0  0  0  0  0
   -3.4370  -19.2210  159.6900 C   0  0  0  0  0  0  0  0  0  0  0  0
   -2.2420  -19.1290  160.5200 N   0  0  0  0  0  0  0  0  0  0  0  0
   -2.1280  -17.7880  161.1280 C   0  0  0  0  0  0  0  0  0  0  0  0
   -0.9350  -17.7620  162.0810 C   0  0  0  0  0  0  0  0  0  0  0  0
   -1.0750  -18.8000  163.0530 O   0  0  0  0  0  0  0  0  0  0  0  0
   -1.0910  -20.0620  162.3880 C   0  0  0  0  0  0  0  0  0  0  0  0
   -2.3570  -20.1510  161.5590 C   0  0  0  0  0  0  0  0  0  0  0  0
   -4.4430  -20.6860  157.8910 C   0  0  0  0  0  0  0  0  0  0  0  0
   -4.3500  -21.6470  156.8720 C   0  0  0  0  0  0  0  0  0  0  0  0
   -5.7540  -20.0580  158.2320 C   0  0  0  0  0  0  0  0  0  0  0  0
   -6.6730  -20.5280  157.4230 F   0  0  0  0  0  0  0  0  0  0  0  0
   -5.6160  -18.7500  158.0580 F   0  0  0  0  0  0  0  0  0  0  0  0
   -6.1310  -20.3320  159.4690 F   0  0  0  0  0  0  0  0  0  0  0  0
   -5.7865  -23.7996  152.0449 H   0  0  0  0  0  0  0  0  0  0  0  0
   -5.1723  -25.3337  152.5608 H   0  0  0  0  0  0  0  0  0  0  0  0
   -9.2871  -26.0903  150.0850 H   0  0  0  0  0  0  0  0  0  0  0  0
   -7.2832  -25.5302  151.4728 H   0  0  0  0  0  0  0  0  0  0  0  0
   -2.3928  -25.5741  151.5729 H   0  0  0  0  0  0  0  0  0  0  0  0
   -1.7651  -24.0713  150.9001 H   0  0  0  0  0  0  0  0  0  0  0  0
   -3.2768  -25.8088  149.3891 H   0  0  0  0  0  0  0  0  0  0  0  0
   -3.3942  -24.1094  149.0777 H   0  0  0  0  0  0  0  0  0  0  0  0
   -3.7285  -22.7685  151.8705 H   0  0  0  0  0  0  0  0  0  0  0  0
   -7.7922  -25.8159  145.7434 H   0  0  0  0  0  0  0  0  0  0  0  0
   -4.9190  -25.0650  146.3617 H   0  0  0  0  0  0  0  0  0  0  0  0
   -5.4057  -26.1140  144.9871 H   0  0  0  0  0  0  0  0  0  0  0  0
   -5.8449  -24.3723  144.9871 H   0  0  0  0  0  0  0  0  0  0  0  0
   -2.3196  -24.6730  153.6080 H   0  0  0  0  0  0  0  0  0  0  0  0
   -2.1393  -23.9203  155.7584 H   0  0  0  0  0  0  0  0  0  0  0  0
   -1.0074  -22.2259  157.0225 H   0  0  0  0  0  0  0  0  0  0  0  0
   -1.1711  -20.5221  158.8137 H   0  0  0  0  0  0  0  0  0  0  0  0
   -3.6141  -18.2427  159.2193 H   0  0  0  0  0  0  0  0  0  0  0  0
   -4.2714  -19.5170  160.3428 H   0  0  0  0  0  0  0  0  0  0  0  0
   -1.9820  -17.0377  160.3369 H   0  0  0  0  0  0  0  0  0  0  0  0
   -3.0481  -17.5582  161.6853 H   0  0  0  0  0  0  0  0  0  0  0  0
   -0.0074  -17.9174  161.5106 H   0  0  0  0  0  0  0  0  0  0  0  0
   -0.8955  -16.7878  162.5902 H   0  0  0  0  0  0  0  0  0  0  0  0
   -1.0756  -20.8733  163.1307 H   0  0  0  0  0  0  0  0  0  0  0  0
   -0.2076  -20.1584  161.7397 H   0  0  0  0  0  0  0  0  0  0  0  0
   -3.2382  -19.9567  162.1880 H   0  0  0  0  0  0  0  0  0  0  0  0
   -2.4779  -21.1530  161.1215 H   0  0  0  0  0  0  0  0  0  0  0  0
   -5.2468  -21.9386  156.3056 H   0  0  0  0  0  0  0  0  0  0  0  0
 10  8  1  0
  8  9  1  0
  9 11  1  0
  9 12  2  0
 11  2  2  0
 12  5  1  0
  2  3  1  0
  5  3  2  0
  5 13  1  0
  6 13  1  0
  6  4  1  0
 13  1  1  0
  4  7  1  0
  1  7  1  0
  7 14  1  0
 14 15  1  0
 16 15  2  0
 15 17  1  0
 17 18  1  0
 18 30  1  0
 18 19  2  0
 30 29  2  0
 19 20  1  0
 32 31  1  0
 29 31  1  0
 29 21  1  0
 33 31  1  0
 31 34  1  0
 20 21  2  0
 21 22  1  0
 22 23  1  0
 23 24  1  0
 23 28  1  0
 24 25  1  0
 28 27  1  0
 25 26  1  0
 27 26  1  0
  1 35  1  0
  1 36  1  0
  2 37  1  0
  3 38  1  0
  4 39  1  0
  4 40  1  0
  6 41  1  0
  6 42  1  0
  7 43  1  0
  8 44  1  0
 10 45  1  0
 10 46  1  0
 10 47  1  0
 14 48  1  0
 17 49  1  0
 19 50  1  0
 20 51  1  0
 22 52  1  0
 22 53  1  0
 24 54  1  0
 24 55  1  0
 25 56  1  0
 25 57  1  0
 27 58  1  0
 27 59  1  0
 28 60  1  0
 28 61  1  0
 30 62  1  0
A    1
C14
A    2
C5
A    3
C6
A    4
C11
A    5
C7
A    6
C10
A    7
C12
A    8
N2
A    9
C3
A   10
C1
A   11
N4
A   12
N8
A   13
N9
A   14
N15
A   15
C16
A   16
O17
A   17
N18
A   18
C19
A   19
C20
A   20
C21
A   21
C22
A   22
C23
A   23
N24
A   24
C25
A   25
C26
A   26
O27
A   27
C28
A   28
C29
A   29
C30
A   30
C31
A   31
C32
A   32
F33
A   33
F34
A   34
F35
M  END
