1IX1_MHA_A_401
     RDKit          3D

 23 22  0  0  0  0  0  0  0  0999 V2000
   62.5040   96.3450   11.8690 N   0  0  0  0  0  0  0  0  0  0  0  0
   61.3520   95.6670   11.1760 C   0  0  0  0  0  0  0  0  0  0  0  0
   59.9460   95.9900   11.7220 C   0  0  0  0  0  0  0  0  0  0  0  0
   59.3930   97.0640   11.4620 O   0  0  0  0  0  0  0  0  0  0  0  0
   59.3330   95.0530   12.4060 O   0  0  0  0  0  0  0  0  0  0  0  0
   63.4190   97.0710   10.9360 C   0  0  0  0  0  0  0  0  0  0  0  0
   63.1960   97.2820    9.4420 C   0  0  0  0  0  0  0  0  0  0  0  0
   64.1630   97.3640    8.6720 O   0  0  0  0  0  0  0  0  0  0  0  0
   61.9760   97.5760    9.0550 O   0  0  0  0  0  0  0  0  0  0  0  0
   62.3220   97.0400   13.1870 C   0  0  0  0  0  0  0  0  0  0  0  0
   62.3150   98.5660   13.3910 C   0  0  0  0  0  0  0  0  0  0  0  0
   61.9020   99.3360   12.5100 O   0  0  0  0  0  0  0  0  0  0  0  0
   62.7770   99.0100   14.5400 N   0  0  0  0  0  0  0  0  0  0  0  0
   61.3768   95.9616   10.1165 H   0  0  0  0  0  0  0  0  0  0  0  0
   61.4957   94.5902   11.3489 H   0  0  0  0  0  0  0  0  0  0  0  0
   59.0889   97.6546   12.1960 H   0  0  0  0  0  0  0  0  0  0  0  0
   63.5174   98.0821   11.3580 H   0  0  0  0  0  0  0  0  0  0  0  0
   64.2546   96.3565   10.9007 H   0  0  0  0  0  0  0  0  0  0  0  0
   65.0804   97.4418    9.0360 H   0  0  0  0  0  0  0  0  0  0  0  0
   61.3529   96.6891   13.5713 H   0  0  0  0  0  0  0  0  0  0  0  0
   63.2710   96.7803   13.6789 H   0  0  0  0  0  0  0  0  0  0  0  0
   62.3961   98.6440   15.4242 H   0  0  0  0  0  0  0  0  0  0  0  0
   63.5196   99.7236   14.5553 H   0  0  0  0  0  0  0  0  0  0  0  0
  1  2  1  0
  1  6  1  0
  1 10  1  0
  2  3  1  0
  3  4  1  0
  3  5  2  0
  6  7  1  0
  7  8  1  0
  7  9  2  0
 10 11  1  0
 11 12  2  0
 11 13  1  0
  2 14  1  0
  2 15  1  0
  4 16  1  0
  6 17  1  0
  6 18  1  0
  8 19  1  0
 10 20  1  0
 10 21  1  0
 13 22  1  0
 13 23  1  0
A    1
N1
A    2
C1
A    3
C2
A    4
O1
A    5
O2
A    6
C3
A    7
C4
A    8
O3
A    9
O4
A   10
C5
A   11
C6
A   12
O5
A   13
N2
M  END
