1EVY_MYS_A_500
     RDKit          3D

 47 46  0  0  0  0  0  0  0  0999 V2000
   40.8950   63.0400   -7.1510 C   0  0  0  0  0  0  0  0  0  0  0  0
   40.3660   61.8800   -6.3250 C   0  0  0  0  0  0  0  0  0  0  0  0
   40.4630   60.5530   -7.0710 C   0  0  0  0  0  0  0  0  0  0  0  0
   39.8310   59.5760   -6.1000 C   0  0  0  0  0  0  0  0  0  0  0  0
   39.9220   58.2150   -6.7930 C   0  0  0  0  0  0  0  0  0  0  0  0
   39.3980   56.8710   -6.2890 C   0  0  0  0  0  0  0  0  0  0  0  0
   37.9020   56.7760   -5.9950 C   0  0  0  0  0  0  0  0  0  0  0  0
   37.6880   55.4130   -5.3530 C   0  0  0  0  0  0  0  0  0  0  0  0
   36.3210   54.8610   -5.0110 C   0  0  0  0  0  0  0  0  0  0  0  0
   35.6530   55.9150   -4.1450 C   0  0  0  0  0  0  0  0  0  0  0  0
   34.3960   55.1460   -3.7520 C   0  0  0  0  0  0  0  0  0  0  0  0
   33.5770   56.1560   -2.9700 C   0  0  0  0  0  0  0  0  0  0  0  0
   34.0620   56.9640   -1.7800 C   0  0  0  0  0  0  0  0  0  0  0  0
   32.9770   57.8980   -1.2740 C   0  0  0  0  0  0  0  0  0  0  0  0
   32.3990   59.0320   -2.1160 C   0  0  0  0  0  0  0  0  0  0  0  0
   41.2567   63.8331   -6.4800 H   0  0  0  0  0  0  0  0  0  0  0  0
   41.7229   62.6908   -7.7856 H   0  0  0  0  0  0  0  0  0  0  0  0
   40.0885   63.4361   -7.7856 H   0  0  0  0  0  0  0  0  0  0  0  0
   40.9524   61.8089   -5.3970 H   0  0  0  0  0  0  0  0  0  0  0  0
   39.3040   62.0722   -6.1124 H   0  0  0  0  0  0  0  0  0  0  0  0
   39.9039   60.5887   -8.0176 H   0  0  0  0  0  0  0  0  0  0  0  0
   41.4923   60.2848   -7.3512 H   0  0  0  0  0  0  0  0  0  0  0  0
   40.3839   59.5635   -5.1491 H   0  0  0  0  0  0  0  0  0  0  0  0
   38.7931   59.8476   -5.8570 H   0  0  0  0  0  0  0  0  0  0  0  0
   39.4262   58.3620   -7.7639 H   0  0  0  0  0  0  0  0  0  0  0  0
   40.9996   58.0336   -6.6669 H   0  0  0  0  0  0  0  0  0  0  0  0
   39.6348   56.1152   -7.0523 H   0  0  0  0  0  0  0  0  0  0  0  0
   39.8903   56.7187   -5.3172 H   0  0  0  0  0  0  0  0  0  0  0  0
   37.5963   57.5761   -5.3048 H   0  0  0  0  0  0  0  0  0  0  0  0
   37.3028   56.8894   -6.9105 H   0  0  0  0  0  0  0  0  0  0  0  0
   38.1459   54.6826   -6.0363 H   0  0  0  0  0  0  0  0  0  0  0  0
   38.1126   55.5761   -4.3515 H   0  0  0  0  0  0  0  0  0  0  0  0
   35.7363   54.6914   -5.9272 H   0  0  0  0  0  0  0  0  0  0  0  0
   36.3936   53.8954   -4.4892 H   0  0  0  0  0  0  0  0  0  0  0  0
   36.2655   56.1775   -3.2698 H   0  0  0  0  0  0  0  0  0  0  0  0
   35.4787   56.8851   -4.6334 H   0  0  0  0  0  0  0  0  0  0  0  0
   33.8499   54.8070   -4.6447 H   0  0  0  0  0  0  0  0  0  0  0  0
   34.6189   54.2399   -3.1696 H   0  0  0  0  0  0  0  0  0  0  0  0
   33.2517   56.9005   -3.7115 H   0  0  0  0  0  0  0  0  0  0  0  0
   32.8740   55.4780   -2.4640 H   0  0  0  0  0  0  0  0  0  0  0  0
   34.3491   56.2756   -0.9715 H   0  0  0  0  0  0  0  0  0  0  0  0
   34.9240   57.5694   -2.0970 H   0  0  0  0  0  0  0  0  0  0  0  0
   32.1255   57.2559   -1.0045 H   0  0  0  0  0  0  0  0  0  0  0  0
   33.5129   58.4553   -0.4915 H   0  0  0  0  0  0  0  0  0  0  0  0
   32.0003   59.8142   -1.4533 H   0  0  0  0  0  0  0  0  0  0  0  0
   33.1902   59.4574   -2.7508 H   0  0  0  0  0  0  0  0  0  0  0  0
   31.5899   58.6417   -2.7508 H   0  0  0  0  0  0  0  0  0  0  0  0
  1  2  1  0
  2  3  1  0
  3  4  1  0
  4  5  1  0
  5  6  1  0
  6  7  1  0
  7  8  1  0
  8  9  1  0
  9 10  1  0
 10 11  1  0
 11 12  1  0
 12 13  1  0
 13 14  1  0
 14 15  1  0
  1 16  1  0
  1 17  1  0
  1 18  1  0
  2 19  1  0
  2 20  1  0
  3 21  1  0
  3 22  1  0
  4 23  1  0
  4 24  1  0
  5 25  1  0
  5 26  1  0
  6 27  1  0
  6 28  1  0
  7 29  1  0
  7 30  1  0
  8 31  1  0
  8 32  1  0
  9 33  1  0
  9 34  1  0
 10 35  1  0
 10 36  1  0
 11 37  1  0
 11 38  1  0
 12 39  1  0
 12 40  1  0
 13 41  1  0
 13 42  1  0
 14 43  1  0
 14 44  1  0
 15 45  1  0
 15 46  1  0
 15 47  1  0
A    1
C1
A    2
C2
A    3
C3
A    4
C4
A    5
C5
A    6
C6
A    7
C7
A    8
C8
A    9
C9
A   10
C10
A   11
C11
A   12
C12
A   13
C13
A   14
C14
A   15
C15
M  END
