5HX8_66P_A_1201
     RDKit          3D

 45 48  0  0  0  0  0  0  0  0999 V2000
    5.8710   57.8390    0.5870 C   0  0  0  0  0  0  0  0  0  0  0  0
    4.6340   58.0020    1.2590 C   0  0  0  0  0  0  0  0  0  0  0  0
    8.4970   57.7730   -0.9650 N   0  0  0  0  0  0  0  0  0  0  0  0
    5.9620   55.3520    1.1100 C   0  0  0  0  0  0  0  0  0  0  0  0
    7.9730   55.0640    2.6150 C   0  0  0  0  0  0  0  0  0  0  0  0
    7.9350   53.9570    0.3330 C   0  0  0  0  0  0  0  0  0  0  0  0
    6.4100   54.1520    0.2850 C   0  0  0  0  0  0  0  0  0  0  0  0
    7.8260   58.8970   -0.7750 C   0  0  0  0  0  0  0  0  0  0  0  0
    9.5440   59.5100   -2.0120 C   0  0  0  0  0  0  0  0  0  0  0  0
    9.5900   58.1420   -1.7540 C   0  0  0  0  0  0  0  0  0  0  0  0
   11.6400   58.0120   -2.9930 C   0  0  0  0  0  0  0  0  0  0  0  0
    6.3580   61.3430   -0.3110 O   0  0  0  0  0  0  0  0  0  0  0  0
    5.8920   60.2910    0.1160 C   0  0  0  0  0  0  0  0  0  0  0  0
    6.5180   58.9880    0.0010 C   0  0  0  0  0  0  0  0  0  0  0  0
    6.4500   56.5940    0.5110 N   0  0  0  0  0  0  0  0  0  0  0  0
    8.4170   53.8610    1.7800 C   0  0  0  0  0  0  0  0  0  0  0  0
    9.9060   53.7380    1.8120 N   0  0  0  0  0  0  0  0  0  0  0  0
    6.4540   55.2310    2.5480 C   0  0  0  0  0  0  0  0  0  0  0  0
    4.0700   59.2240    1.3380 C   0  0  0  0  0  0  0  0  0  0  0  0
    4.6700   60.3150    0.7960 N   0  0  0  0  0  0  0  0  0  0  0  0
   10.6410   57.3730   -2.2570 C   0  0  0  0  0  0  0  0  0  0  0  0
   11.5870   59.3890   -3.2350 C   0  0  0  0  0  0  0  0  0  0  0  0
   10.5290   60.1560   -2.7560 C   0  0  0  0  0  0  0  0  0  0  0  0
    8.4100   59.9700   -1.3740 N   0  0  0  0  0  0  0  0  0  0  0  0
    4.1354   57.1339    1.7149 H   0  0  0  0  0  0  0  0  0  0  0  0
    4.8622   55.3727    1.1191 H   0  0  0  0  0  0  0  0  0  0  0  0
    8.2744   54.9094    3.6615 H   0  0  0  0  0  0  0  0  0  0  0  0
    8.4488   55.9709    2.2135 H   0  0  0  0  0  0  0  0  0  0  0  0
    8.1984   53.0306   -0.1985 H   0  0  0  0  0  0  0  0  0  0  0  0
    8.4193   54.8203   -0.1468 H   0  0  0  0  0  0  0  0  0  0  0  0
    6.1043   54.3057   -0.7604 H   0  0  0  0  0  0  0  0  0  0  0  0
    5.9389   53.2530    0.7092 H   0  0  0  0  0  0  0  0  0  0  0  0
   12.4815   57.4243   -3.3887 H   0  0  0  0  0  0  0  0  0  0  0  0
    7.3253   56.5288   -0.0280 H   0  0  0  0  0  0  0  0  0  0  0  0
    7.9600   52.9644    2.2241 H   0  0  0  0  0  0  0  0  0  0  0  0
   10.2274   53.7115    2.7902 H   0  0  0  0  0  0  0  0  0  0  0  0
   10.1892   52.8707    1.3339 H   0  0  0  0  0  0  0  0  0  0  0  0
    6.1708   56.1399    3.0992 H   0  0  0  0  0  0  0  0  0  0  0  0
    5.9913   54.3385    2.9944 H   0  0  0  0  0  0  0  0  0  0  0  0
    3.1043   59.3396    1.8519 H   0  0  0  0  0  0  0  0  0  0  0  0
    4.1924   61.2225    0.8923 H   0  0  0  0  0  0  0  0  0  0  0  0
   10.6809   56.2885   -2.0774 H   0  0  0  0  0  0  0  0  0  0  0  0
   12.3909   59.8711   -3.8106 H   0  0  0  0  0  0  0  0  0  0  0  0
   10.4724   61.2358   -2.9580 H   0  0  0  0  0  0  0  0  0  0  0  0
    8.0700   60.9421   -1.3549 H   0  0  0  0  0  0  0  0  0  0  0  0
 22 11  2  0
 22 23  1  0
 11 21  1  0
 23  9  2  0
 21 10  2  0
  9 10  1  0
  9 24  1  0
 10  3  1  0
 24  8  1  0
  3  8  2  0
  8 14  1  0
 12 13  2  0
 14 13  1  0
 14  1  2  0
 13 20  1  0
  7  6  1  0
  7  4  1  0
  6 16  1  0
 15  1  1  0
 15  4  1  0
  1  2  1  0
 20 19  1  0
  4 18  1  0
  2 19  2  0
 16 17  1  0
 16  5  1  0
 18  5  1  0
  2 25  1  0
  4 26  1  0
  5 27  1  0
  5 28  1  0
  6 29  1  0
  6 30  1  0
  7 31  1  0
  7 32  1  0
 11 33  1  0
 15 34  1  0
 16 35  1  0
 17 36  1  0
 17 37  1  0
 18 38  1  0
 18 39  1  0
 19 40  1  0
 20 41  1  0
 21 42  1  0
 22 43  1  0
 23 44  1  0
 24 45  1  0
A    1
C2
A    2
C3
A    3
N4
A    4
C5
A    5
C7
A    6
C9
A    7
C10
A    8
C11
A    9
C12
A   10
C13
A   11
C15
A   12
O
A   13
C
A   14
C1
A   15
N1
A   16
C8
A   17
N2
A   18
C6
A   19
C4
A   20
N
A   21
C14
A   22
C16
A   23
C17
A   24
N3
M  END
