1E90_MYC_A_2095
     RDKit          3D

 33 35  0  0  0  0  0  0  0  0999 V2000
   26.5880   60.1840   21.2180 C   0  0  0  0  0  0  0  0  0  0  0  0
   25.8770   61.1090   20.4650 C   0  0  0  0  0  0  0  0  0  0  0  0
   24.4980   61.4460   20.7680 C   0  0  0  0  0  0  0  0  0  0  0  0
   23.8800   60.7170   21.8320 C   0  0  0  0  0  0  0  0  0  0  0  0
   24.5870   59.7830   22.5980 C   0  0  0  0  0  0  0  0  0  0  0  0
   25.9110   59.4950   22.2940 C   0  0  0  0  0  0  0  0  0  0  0  0
   23.6880   62.4090   20.0100 C   0  0  0  0  0  0  0  0  0  0  0  0
   22.2900   62.5850   20.4380 C   0  0  0  0  0  0  0  0  0  0  0  0
   21.7820   61.8590   21.5250 C   0  0  0  0  0  0  0  0  0  0  0  0
   20.3860   61.8910   22.1040 C   0  0  0  0  0  0  0  0  0  0  0  0
   20.0210   60.9170   23.0710 C   0  0  0  0  0  0  0  0  0  0  0  0
   18.7180   60.9260   23.6520 C   0  0  0  0  0  0  0  0  0  0  0  0
   17.7620   61.8910   23.2580 C   0  0  0  0  0  0  0  0  0  0  0  0
   18.1440   62.8570   22.3050 C   0  0  0  0  0  0  0  0  0  0  0  0
   19.4240   62.8660   21.7200 C   0  0  0  0  0  0  0  0  0  0  0  0
   22.5740   60.9490   22.1830 O   0  0  0  0  0  0  0  0  0  0  0  0
   24.1410   63.0750   19.0510 O   0  0  0  0  0  0  0  0  0  0  0  0
   17.2850   63.8120   21.8850 O   0  0  0  0  0  0  0  0  0  0  0  0
   16.5400   61.8460   23.8480 O   0  0  0  0  0  0  0  0  0  0  0  0
   18.3280   60.0060   24.5800 O   0  0  0  0  0  0  0  0  0  0  0  0
   21.5620   63.4990   19.7470 O   0  0  0  0  0  0  0  0  0  0  0  0
   26.6620   58.6100   22.9590 O   0  0  0  0  0  0  0  0  0  0  0  0
   26.5190   61.7740   19.4380 O   0  0  0  0  0  0  0  0  0  0  0  0
   27.6466   59.9792   21.0000 H   0  0  0  0  0  0  0  0  0  0  0  0
   24.0938   59.2770   23.4410 H   0  0  0  0  0  0  0  0  0  0  0  0
   20.7485   60.1498   23.3744 H   0  0  0  0  0  0  0  0  0  0  0  0
   19.6802   63.6258   20.9670 H   0  0  0  0  0  0  0  0  0  0  0  0
   16.7922   64.3599   22.5461 H   0  0  0  0  0  0  0  0  0  0  0  0
   16.4668   61.8433   24.8353 H   0  0  0  0  0  0  0  0  0  0  0  0
   18.4141   60.2092   25.5451 H   0  0  0  0  0  0  0  0  0  0  0  0
   21.0246   64.1736   20.2330 H   0  0  0  0  0  0  0  0  0  0  0  0
   26.6641   58.6075   23.9490 H   0  0  0  0  0  0  0  0  0  0  0  0
   27.1916   62.4707   19.6436 H   0  0  0  0  0  0  0  0  0  0  0  0
  1  2  2  0
  1  6  1  0
  2  3  1  0
  2 23  1  0
  3  4  2  0
  3  7  1  0
  4  5  1  0
  4 16  1  0
  5  6  2  0
  6 22  1  0
  7  8  1  0
  7 17  2  0
  8  9  2  0
  8 21  1  0
  9 10  1  0
  9 16  1  0
 10 11  2  0
 10 15  1  0
 11 12  1  0
 12 13  2  0
 12 20  1  0
 13 14  1  0
 13 19  1  0
 14 15  2  0
 14 18  1  0
  1 24  1  0
  5 25  1  0
 11 26  1  0
 15 27  1  0
 18 28  1  0
 19 29  1  0
 20 30  1  0
 21 31  1  0
 22 32  1  0
 23 33  1  0
A    1
C1
A    2
C2
A    3
C3
A    4
C4
A    5
C5
A    6
C6
A    7
C9
A    8
C10
A    9
C11
A   10
C14
A   11
C15
A   12
C16
A   13
C17
A   14
C18
A   15
C19
A   16
O12
A   17
O13
A   18
O23
A   19
O24
A   20
O25
A   21
O27
A   22
O29
A   23
O30
M  END
