1E12_OLC_A_701
     RDKit          3D

 66 65  0  0  0  0  0  0  0  0999 V2000
   24.9790   24.3230   80.4710 C   0  0  0  0  0  0  0  0  0  0  0  0
   23.9800   28.5830   71.9020 C   0  0  0  0  0  0  0  0  0  0  0  0
   24.3860   28.3900   70.6350 C   0  0  0  0  0  0  0  0  0  0  0  0
   24.4970   24.4480   79.0230 C   0  0  0  0  0  0  0  0  0  0  0  0
   23.3350   27.5760   72.8290 C   0  0  0  0  0  0  0  0  0  0  0  0
   24.3120   27.1180   69.7920 C   0  0  0  0  0  0  0  0  0  0  0  0
   23.6090   19.9140   61.3130 C   0  0  0  0  0  0  0  0  0  0  0  0
   23.9670   25.8360   78.6490 C   0  0  0  0  0  0  0  0  0  0  0  0
   23.2210   28.0830   74.2570 C   0  0  0  0  0  0  0  0  0  0  0  0
   24.8080   27.4060   68.3860 C   0  0  0  0  0  0  0  0  0  0  0  0
   23.3890   25.7580   77.2570 C   0  0  0  0  0  0  0  0  0  0  0  0
   22.9550   26.8650   75.1300 C   0  0  0  0  0  0  0  0  0  0  0  0
   24.6010   26.2250   67.4580 C   0  0  0  0  0  0  0  0  0  0  0  0
   23.2380   27.1170   76.5960 C   0  0  0  0  0  0  0  0  0  0  0  0
   25.0660   26.5660   66.0510 C   0  0  0  0  0  0  0  0  0  0  0  0
   24.7550   25.4270   65.0860 C   0  0  0  0  0  0  0  0  0  0  0  0
   25.1030   25.7830   63.6350 C   0  0  0  0  0  0  0  0  0  0  0  0
   25.0960   24.5480   62.7210 C   0  0  0  0  0  0  0  0  0  0  0  0
   22.9800   21.8330   62.8150 C   0  0  0  0  0  0  0  0  0  0  0  0
   23.7510   24.0210   62.2220 C   0  0  0  0  0  0  0  0  0  0  0  0
   23.3560   20.3470   62.7610 C   0  0  0  0  0  0  0  0  0  0  0  0
   24.0010   18.5530   61.2500 O   0  0  0  0  0  0  0  0  0  0  0  0
   24.5210   20.1020   63.5560 O   0  0  0  0  0  0  0  0  0  0  0  0
   23.8230   22.6180   61.9860 O   0  0  0  0  0  0  0  0  0  0  0  0
   24.1451   24.5393   81.1550 H   0  0  0  0  0  0  0  0  0  0  0  0
   25.3436   23.3006   80.6491 H   0  0  0  0  0  0  0  0  0  0  0  0
   25.7945   25.0394   80.6491 H   0  0  0  0  0  0  0  0  0  0  0  0
   24.1349   29.5915   72.3130 H   0  0  0  0  0  0  0  0  0  0  0  0
   24.8311   29.2651   70.1389 H   0  0  0  0  0  0  0  0  0  0  0  0
   25.3408   24.2115   78.3581 H   0  0  0  0  0  0  0  0  0  0  0  0
   23.6541   23.7501   78.9118 H   0  0  0  0  0  0  0  0  0  0  0  0
   22.3260   27.3487   72.4546 H   0  0  0  0  0  0  0  0  0  0  0  0
   23.9742   26.6809   72.8441 H   0  0  0  0  0  0  0  0  0  0  0  0
   24.9404   26.3394   70.2491 H   0  0  0  0  0  0  0  0  0  0  0  0
   23.2690   26.7715   69.7464 H   0  0  0  0  0  0  0  0  0  0  0  0
   22.6857   20.0496   60.7306 H   0  0  0  0  0  0  0  0  0  0  0  0
   24.4201   20.5314   60.8996 H   0  0  0  0  0  0  0  0  0  0  0  0
   23.1855   26.1409   79.3606 H   0  0  0  0  0  0  0  0  0  0  0  0
   24.7800   26.5762   78.6830 H   0  0  0  0  0  0  0  0  0  0  0  0
   24.1580   28.5717   74.5624 H   0  0  0  0  0  0  0  0  0  0  0  0
   22.4133   28.8237   74.3521 H   0  0  0  0  0  0  0  0  0  0  0  0
   24.2600   28.2720   67.9864 H   0  0  0  0  0  0  0  0  0  0  0  0
   25.8876   27.6096   68.4414 H   0  0  0  0  0  0  0  0  0  0  0  0
   24.0537   25.1391   76.6364 H   0  0  0  0  0  0  0  0  0  0  0  0
   22.3825   25.3228   77.3444 H   0  0  0  0  0  0  0  0  0  0  0  0
   21.8985   26.5789   75.0207 H   0  0  0  0  0  0  0  0  0  0  0  0
   23.6325   26.0654   74.7959 H   0  0  0  0  0  0  0  0  0  0  0  0
   25.1773   25.3657   67.8315 H   0  0  0  0  0  0  0  0  0  0  0  0
   23.5293   25.9788   67.4288 H   0  0  0  0  0  0  0  0  0  0  0  0
   22.4033   27.6690   77.0528 H   0  0  0  0  0  0  0  0  0  0  0  0
   24.1495   27.7196   76.7228 H   0  0  0  0  0  0  0  0  0  0  0  0
   24.5506   27.4767   65.7118 H   0  0  0  0  0  0  0  0  0  0  0  0
   26.1542   26.7254   66.0687 H   0  0  0  0  0  0  0  0  0  0  0  0
   25.3377   24.5425   65.3829 H   0  0  0  0  0  0  0  0  0  0  0  0
   23.6739   25.2301   65.1345 H   0  0  0  0  0  0  0  0  0  0  0  0
   24.3641   26.5064   63.2600 H   0  0  0  0  0  0  0  0  0  0  0  0
   26.1176   26.2079   63.6237 H   0  0  0  0  0  0  0  0  0  0  0  0
   25.6973   24.7964   61.8340 H   0  0  0  0  0  0  0  0  0  0  0  0
   25.4846   23.7388   63.3567 H   0  0  0  0  0  0  0  0  0  0  0  0
   21.9395   21.9499   62.4780 H   0  0  0  0  0  0  0  0  0  0  0  0
   23.0997   22.1796   63.8521 H   0  0  0  0  0  0  0  0  0  0  0  0
   22.9795   24.2217   62.9799 H   0  0  0  0  0  0  0  0  0  0  0  0
   23.4968   24.5283   61.2797 H   0  0  0  0  0  0  0  0  0  0  0  0
   22.5187   19.7592   63.1654 H   0  0  0  0  0  0  0  0  0  0  0  0
   24.1037   18.1964   62.1678 H   0  0  0  0  0  0  0  0  0  0  0  0
   24.2823   20.1522   64.5155 H   0  0  0  0  0  0  0  0  0  0  0  0
  1  4  1  0
  2  3  2  0
  2  5  1  0
  3  6  1  0
  4  8  1  0
  5  9  1  0
  6 10  1  0
  7 21  1  0
  7 22  1  0
  8 11  1  0
  9 12  1  0
 10 13  1  0
 11 14  1  0
 12 14  1  0
 13 15  1  0
 15 16  1  0
 16 17  1  0
 17 18  1  0
 18 20  1  0
 19 21  1  0
 19 24  1  0
 20 24  1  0
 21 23  1  0
  1 25  1  0
  1 26  1  0
  1 27  1  0
  2 28  1  0
  3 29  1  0
  4 30  1  0
  4 31  1  0
  5 32  1  0
  5 33  1  0
  6 34  1  0
  6 35  1  0
  7 36  1  0
  7 37  1  0
  8 38  1  0
  8 39  1  0
  9 40  1  0
  9 41  1  0
 10 42  1  0
 10 43  1  0
 11 44  1  0
 11 45  1  0
 12 46  1  0
 12 47  1  0
 13 48  1  0
 13 49  1  0
 14 50  1  0
 14 51  1  0
 15 52  1  0
 15 53  1  0
 16 54  1  0
 16 55  1  0
 17 56  1  0
 17 57  1  0
 18 58  1  0
 18 59  1  0
 19 60  1  0
 19 61  1  0
 20 62  1  0
 20 63  1  0
 21 64  1  0
 22 65  1  0
 23 66  1  0
A    1
C18
A    2
C10
A    3
C9
A    4
C17
A    5
C11
A    6
C8
A    7
C24
A    8
C16
A    9
C12
A   10
C7
A   11
C15
A   12
C13
A   13
C6
A   14
C14
A   15
C5
A   16
C4
A   17
C3
A   18
C2
A   19
C21
A   20
C1
A   21
C22
A   22
O25
A   23
O23
A   24
O20
M  END
