3ZGS_WDL_A_1366
     RDKit          3D

 12 12  0  0  0  0  0  0  0  0999 V2000
  -38.7740   10.3550   -9.4880 N   0  0  0  0  0  0  0  0  0  0  0  0
  -38.1880   10.9160   -8.4280 C   0  0  0  0  0  0  0  0  0  0  0  0
  -38.5960   12.1890   -8.1060 O   0  0  0  0  0  0  0  0  0  0  0  0
  -37.2470   10.3620   -7.6580 N   0  0  0  0  0  0  0  0  0  0  0  0
  -36.9140    9.1260   -8.0480 C   0  0  0  0  0  0  0  0  0  0  0  0
  -37.4040    8.4370   -9.0790 N   0  0  0  0  0  0  0  0  0  0  0  0
  -35.9580    8.4870   -7.3170 O   0  0  0  0  0  0  0  0  0  0  0  0
  -38.3320    9.1220   -9.7540 C   0  0  0  0  0  0  0  0  0  0  0  0
  -38.9050    8.4950  -10.8360 O   0  0  0  0  0  0  0  0  0  0  0  0
  -38.6816   12.4561   -7.1566 H   0  0  0  0  0  0  0  0  0  0  0  0
  -35.9931    8.5105   -6.3279 H   0  0  0  0  0  0  0  0  0  0  0  0
  -39.5661    7.7716  -10.6960 H   0  0  0  0  0  0  0  0  0  0  0  0
  3  2  1  0
  2  1  2  0
  2  4  1  0
  5  7  1  0
  5  6  1  0
  5  4  2  0
  6  8  2  0
  8  9  1  0
  8  1  1  0
  3 10  1  0
  7 11  1  0
  9 12  1  0
A    1
NAE
A    2
CAH
A    3
OAB
A    4
N6
A    5
CAI
A    6
NAF
A    7
OAC
A    8
CAG
A    9
OAA
M  END
