5HZ5_65X_A_203
     RDKit          3D

 47 51  0  0  0  0  0  0  0  0999 V2000
  -13.3280    7.3030   -9.8340 C   0  0  0  0  0  0  0  0  0  0  0  0
  -12.3290    8.2410  -10.4290 C   0  0  0  0  0  0  0  0  0  0  0  0
  -10.0650    9.0630  -10.5940 C   0  0  0  0  0  0  0  0  0  0  0  0
  -11.7820   10.0700  -11.9070 C   0  0  0  0  0  0  0  0  0  0  0  0
  -12.7120    9.1990  -11.3650 C   0  0  0  0  0  0  0  0  0  0  0  0
  -13.7520    8.8370   -7.9710 C   0  0  0  0  0  0  0  0  0  0  0  0
  -14.9230    6.6820   -5.7080 C   0  0  0  0  0  0  0  0  0  0  0  0
  -15.2940    7.7310   -4.6920 C   0  0  0  0  0  0  0  0  0  0  0  0
  -16.8000    7.8570   -4.5720 C   0  0  0  0  0  0  0  0  0  0  0  0
  -17.4370    8.0850   -5.9240 C   0  0  0  0  0  0  0  0  0  0  0  0
  -17.0110    7.0230   -6.9010 C   0  0  0  0  0  0  0  0  0  0  0  0
  -13.3300    4.4410  -12.2200 C   0  0  0  0  0  0  0  0  0  0  0  0
  -14.2570    3.5980  -11.6400 C   0  0  0  0  0  0  0  0  0  0  0  0
  -14.8720    3.9660  -10.4830 C   0  0  0  0  0  0  0  0  0  0  0  0
  -14.5700    5.1990   -9.8630 C   0  0  0  0  0  0  0  0  0  0  0  0
  -13.6170    6.0560  -10.4730 C   0  0  0  0  0  0  0  0  0  0  0  0
  -12.9990    5.6430  -11.6710 C   0  0  0  0  0  0  0  0  0  0  0  0
  -15.2190    5.5160   -8.7010 N   0  0  0  0  0  0  0  0  0  0  0  0
  -14.9200    6.6650   -8.1490 C   0  0  0  0  0  0  0  0  0  0  0  0
  -13.9860    7.5960   -8.6610 C   0  0  0  0  0  0  0  0  0  0  0  0
  -10.9900    8.1910  -10.0460 C   0  0  0  0  0  0  0  0  0  0  0  0
  -10.4610   10.0020  -11.5220 C   0  0  0  0  0  0  0  0  0  0  0  0
  -15.5520    6.9740   -6.9970 N   0  0  0  0  0  0  0  0  0  0  0  0
  -12.5630    3.9520  -13.7020 Cl  0  0  0  0  0  0  0  0  0  0  0  0
  -14.6180    9.8540   -7.9250 N   0  0  0  0  0  0  0  0  0  0  0  0
  -14.0870   10.8470   -7.1840 N   0  0  0  0  0  0  0  0  0  0  0  0
  -12.9260   10.4280   -6.7950 N   0  0  0  0  0  0  0  0  0  0  0  0
  -12.6860    9.1740   -7.2620 N   0  0  0  0  0  0  0  0  0  0  0  0
   -9.0100    9.0063  -10.2877 H   0  0  0  0  0  0  0  0  0  0  0  0
  -12.0991   10.8189  -12.6476 H   0  0  0  0  0  0  0  0  0  0  0  0
  -13.7648    9.2643  -11.6770 H   0  0  0  0  0  0  0  0  0  0  0  0
  -15.2633    5.6979   -5.3535 H   0  0  0  0  0  0  0  0  0  0  0  0
  -13.8305    6.6809   -5.8366 H   0  0  0  0  0  0  0  0  0  0  0  0
  -14.8768    7.4490   -3.7140 H   0  0  0  0  0  0  0  0  0  0  0  0
  -14.8847    8.6982   -5.0190 H   0  0  0  0  0  0  0  0  0  0  0  0
  -17.0381    8.7064   -3.9149 H   0  0  0  0  0  0  0  0  0  0  0  0
  -17.1964    6.9205   -4.1527 H   0  0  0  0  0  0  0  0  0  0  0  0
  -17.1304    9.0701   -6.3056 H   0  0  0  0  0  0  0  0  0  0  0  0
  -18.5303    8.0418   -5.8106 H   0  0  0  0  0  0  0  0  0  0  0  0
  -17.4319    7.2516   -7.8912 H   0  0  0  0  0  0  0  0  0  0  0  0
  -17.3785    6.0473   -6.5502 H   0  0  0  0  0  0  0  0  0  0  0  0
  -14.4974    2.6334  -12.1109 H   0  0  0  0  0  0  0  0  0  0  0  0
  -15.6135    3.2950  -10.0249 H   0  0  0  0  0  0  0  0  0  0  0  0
  -12.2537    6.2878  -12.1597 H   0  0  0  0  0  0  0  0  0  0  0  0
  -10.6646    7.4507   -9.3003 H   0  0  0  0  0  0  0  0  0  0  0  0
   -9.7243   10.6952  -11.9540 H   0  0  0  0  0  0  0  0  0  0  0  0
  -15.5410    9.8755   -8.3815 H   0  0  0  0  0  0  0  0  0  0  0  0
 24 12  1  0
 12 17  2  0
 12 13  1  0
  4 22  1  0
  4  5  2  0
 17 16  1  0
 13 14  2  0
 22  3  2  0
  5  2  1  0
  3 21  1  0
 14 15  1  0
 16 15  2  0
 16  1  1  0
  2 21  2  0
  2  1  1  0
 15 18  1  0
  1 20  2  0
 18 19  2  0
 20 19  1  0
 20  6  1  0
 19 23  1  0
  6 25  1  0
  6 28  2  0
 25 26  1  0
 28 27  1  0
 26 27  2  0
 23 11  1  0
 23  7  1  0
 11 10  1  0
 10  9  1  0
  7  8  1  0
  8  9  1  0
  3 29  1  0
  4 30  1  0
  5 31  1  0
  7 32  1  0
  7 33  1  0
  8 34  1  0
  8 35  1  0
  9 36  1  0
  9 37  1  0
 10 38  1  0
 10 39  1  0
 11 40  1  0
 11 41  1  0
 13 42  1  0
 14 43  1  0
 17 44  1  0
 21 45  1  0
 22 46  1  0
 25 47  1  0
A    1
C10
A    2
C11
A    3
C13
A    4
C15
A    5
C16
A    6
C17
A    7
C20
A    8
C21
A    9
C22
A   10
C23
A   11
C24
A   12
C1
A   13
C2
A   14
C3
A   15
C4
A   16
C5
A   17
C6
A   18
N7
A   19
C8
A   20
C9
A   21
C12
A   22
C14
A   23
N18
A   24
CL
A   25
N25
A   26
N26
A   27
N27
A   28
N28
M  END
