5HZ8_65Z_A_200
     RDKit          3D

 45 48  0  0  0  0  0  0  0  0999 V2000
    6.2980   -8.5760  -17.5050 N   0  0  0  0  0  0  0  0  0  0  0  0
    7.6780   -8.9840  -17.8660 C   0  0  0  0  0  0  0  0  0  0  0  0
    8.4900   -9.1710  -16.6120 C   0  0  0  0  0  0  0  0  0  0  0  0
    7.8700  -10.0360  -15.6110 C   0  0  0  0  0  0  0  0  0  0  0  0
    6.4250   -9.7810  -15.4280 C   0  0  0  0  0  0  0  0  0  0  0  0
    5.7020   -9.6450  -16.7040 C   0  0  0  0  0  0  0  0  0  0  0  0
    3.9210   -6.8120  -23.1130 C   0  0  0  0  0  0  0  0  0  0  0  0
    5.1780   -7.4530  -23.2640 C   0  0  0  0  0  0  0  0  0  0  0  0
    5.8280   -7.9090  -22.1470 C   0  0  0  0  0  0  0  0  0  0  0  0
    3.3750   -6.6080  -21.8840 C   0  0  0  0  0  0  0  0  0  0  0  0
    4.0540   -7.0500  -20.7210 C   0  0  0  0  0  0  0  0  0  0  0  0
    5.3160   -7.6990  -20.8600 C   0  0  0  0  0  0  0  0  0  0  0  0
    6.0080   -8.2150  -19.8110 N   0  0  0  0  0  0  0  0  0  0  0  0
    5.5470   -8.0660  -18.5870 C   0  0  0  0  0  0  0  0  0  0  0  0
    4.2740   -7.4070  -18.3340 C   0  0  0  0  0  0  0  0  0  0  0  0
    3.5710   -6.8860  -19.4100 C   0  0  0  0  0  0  0  0  0  0  0  0
    7.3120   -8.7500  -22.3470 Cl  0  0  0  0  0  0  0  0  0  0  0  0
    3.0800   -6.3250  -24.5320 Cl  0  0  0  0  0  0  0  0  0  0  0  0
    3.8850   -7.1120  -16.9570 C   0  0  0  0  0  0  0  0  0  0  0  0
    2.9850   -7.8780  -16.3600 O   0  0  0  0  0  0  0  0  0  0  0  0
    4.2710   -6.1010  -16.4180 O   0  0  0  0  0  0  0  0  0  0  0  0
    2.3310   -6.1250  -19.1790 C   0  0  0  0  0  0  0  0  0  0  0  0
    2.3290   -4.7350  -19.4360 C   0  0  0  0  0  0  0  0  0  0  0  0
    0.0250   -4.5700  -18.6990 C   0  0  0  0  0  0  0  0  0  0  0  0
   -0.0040   -5.9510  -18.4490 C   0  0  0  0  0  0  0  0  0  0  0  0
    1.1840   -3.9810  -19.2260 C   0  0  0  0  0  0  0  0  0  0  0  0
    1.1730   -6.7140  -18.6500 C   0  0  0  0  0  0  0  0  0  0  0  0
    7.6460   -9.9299  -18.4266 H   0  0  0  0  0  0  0  0  0  0  0  0
    8.1399   -8.2041  -18.4892 H   0  0  0  0  0  0  0  0  0  0  0  0
    9.4588   -9.6100  -16.8925 H   0  0  0  0  0  0  0  0  0  0  0  0
    8.5851   -8.1771  -16.1503 H   0  0  0  0  0  0  0  0  0  0  0  0
    8.0025  -11.0821  -15.9241 H   0  0  0  0  0  0  0  0  0  0  0  0
    8.3613   -9.8241  -14.6499 H   0  0  0  0  0  0  0  0  0  0  0  0
    6.3025   -8.8507  -14.8540 H   0  0  0  0  0  0  0  0  0  0  0  0
    6.0010  -10.6469  -14.8984 H   0  0  0  0  0  0  0  0  0  0  0  0
    4.6479   -9.4042  -16.5016 H   0  0  0  0  0  0  0  0  0  0  0  0
    5.7682  -10.5922  -17.2593 H   0  0  0  0  0  0  0  0  0  0  0  0
    5.6234   -7.5818  -24.2615 H   0  0  0  0  0  0  0  0  0  0  0  0
    2.4042   -6.0988  -21.7925 H   0  0  0  0  0  0  0  0  0  0  0  0
    2.9429   -7.9138  -15.3715 H   0  0  0  0  0  0  0  0  0  0  0  0
    3.2431   -4.2473  -19.8056 H   0  0  0  0  0  0  0  0  0  0  0  0
   -0.8585   -3.9515  -18.4823 H   0  0  0  0  0  0  0  0  0  0  0  0
   -0.9288   -6.4348  -18.1014 H   0  0  0  0  0  0  0  0  0  0  0  0
    1.1847   -2.9096  -19.4754 H   0  0  0  0  0  0  0  0  0  0  0  0
    1.1787   -7.7823  -18.3878 H   0  0  0  0  0  0  0  0  0  0  0  0
 18  7  1  0
  8  7  2  0
  8  9  1  0
  7 10  1  0
 17  9  1  0
  9 12  2  0
 10 11  2  0
 12 11  1  0
 12 13  1  0
 11 16  1  0
 13 14  2  0
 23 26  2  0
 23 22  1  0
 16 22  1  0
 16 15  2  0
 26 24  1  0
 22 27  2  0
 24 25  2  0
 27 25  1  0
 14 15  1  0
 14  1  1  0
 15 19  1  0
  2  1  1  0
  2  3  1  0
  1  6  1  0
 19 21  2  0
 19 20  1  0
  6  5  1  0
  3  4  1  0
  4  5  1  0
  2 28  1  0
  2 29  1  0
  3 30  1  0
  3 31  1  0
  4 32  1  0
  4 33  1  0
  5 34  1  0
  5 35  1  0
  6 36  1  0
  6 37  1  0
  8 38  1  0
 10 39  1  0
 20 40  1  0
 23 41  1  0
 24 42  1  0
 25 43  1  0
 26 44  1  0
 27 45  1  0
A    1
N1
A    2
C2
A    3
C3
A    4
C4
A    5
C5
A    6
C6
A    7
C7
A    8
C8
A    9
C9
A   10
C10
A   11
C11
A   12
C12
A   13
N13
A   14
C14
A   15
C15
A   16
C16
A   17
CL1
A   18
CL2
A   19
C19
A   20
O20
A   21
O21
A   22
C22
A   23
C23
A   24
C24
A   25
C25
A   26
C26
A   27
C27
M  END
