3EOS_PK2_A_400
     RDKit          3D

 54 57  0  0  0  0  0  0  0  0999 V2000
   18.1690   17.3800   22.8140 C   0  0  0  0  0  0  0  0  0  0  0  0
   19.2470   17.7530   23.2210 O   0  0  0  0  0  0  0  0  0  0  0  0
   17.1440   17.0090   23.5930 N   0  0  0  0  0  0  0  0  0  0  0  0
   15.9580   16.6240   23.0610 C   0  0  0  0  0  0  0  0  0  0  0  0
   14.9770   16.3890   23.9720 N   0  0  0  0  0  0  0  0  0  0  0  0
   15.8200   16.4880   21.7920 N   0  0  0  0  0  0  0  0  0  0  0  0
   16.7510   16.8250   20.8690 C   0  0  0  0  0  0  0  0  0  0  0  0
   16.4890   16.6880   19.4910 C   0  0  0  0  0  0  0  0  0  0  0  0
   15.1720   16.2230   18.8750 C   0  0  0  0  0  0  0  0  0  0  0  0
   15.3450   14.8200   18.2040 C   0  0  0  0  0  0  0  0  0  0  0  0
   14.2740   14.6820   17.1460 N   0  0  0  0  0  0  0  0  0  0  0  0
   12.9590   14.4180   17.8070 C   0  0  0  0  0  0  0  0  0  0  0  0
   11.7670   14.5320   16.8130 C   0  0  0  0  0  0  0  0  0  0  0  0
   11.8790   15.8710   16.0240 C   0  0  0  0  0  0  0  0  0  0  0  0
   10.7470   15.9060   14.9540 C   0  0  0  0  0  0  0  0  0  0  0  0
    9.3620   15.8220   15.6440 C   0  0  0  0  0  0  0  0  0  0  0  0
    9.2400   14.5530   16.5260 C   0  0  0  0  0  0  0  0  0  0  0  0
   10.3950   14.5280   17.5720 C   0  0  0  0  0  0  0  0  0  0  0  0
   17.5240   17.1240   18.6530 C   0  0  0  0  0  0  0  0  0  0  0  0
   17.5590   17.2670   17.3110 N   0  0  0  0  0  0  0  0  0  0  0  0
   18.6800   17.7430   16.9420 C   0  0  0  0  0  0  0  0  0  0  0  0
   19.0220   18.0980   15.6900 N   0  0  0  0  0  0  0  0  0  0  0  0
   18.1860   17.9390   14.5130 C   0  0  0  0  0  0  0  0  0  0  0  0
   19.5060   17.9810   17.9980 N   0  0  0  0  0  0  0  0  0  0  0  0
   18.7170   17.6220   19.1040 C   0  0  0  0  0  0  0  0  0  0  0  0
   19.0560   17.6670   20.4660 C   0  0  0  0  0  0  0  0  0  0  0  0
   18.0140   17.2480   21.3130 C   0  0  0  0  0  0  0  0  0  0  0  0
   17.2594   17.0164   24.6165 H   0  0  0  0  0  0  0  0  0  0  0  0
   15.1867   16.4392   24.9792 H   0  0  0  0  0  0  0  0  0  0  0  0
   14.0239   16.1607   23.6552 H   0  0  0  0  0  0  0  0  0  0  0  0
   14.4078   16.1553   19.6633 H   0  0  0  0  0  0  0  0  0  0  0  0
   14.8629   16.9482   18.1078 H   0  0  0  0  0  0  0  0  0  0  0  0
   16.3403   14.7459   17.7416 H   0  0  0  0  0  0  0  0  0  0  0  0
   15.2520   14.0201   18.9534 H   0  0  0  0  0  0  0  0  0  0  0  0
   14.2158   15.5531   16.5994 H   0  0  0  0  0  0  0  0  0  0  0  0
   12.9724   13.4022   18.2288 H   0  0  0  0  0  0  0  0  0  0  0  0
   12.8176   15.1760   18.5915 H   0  0  0  0  0  0  0  0  0  0  0  0
   11.8080   13.6681   16.1333 H   0  0  0  0  0  0  0  0  0  0  0  0
   11.7645   16.7198   16.7142 H   0  0  0  0  0  0  0  0  0  0  0  0
   12.8626   15.9420   15.5368 H   0  0  0  0  0  0  0  0  0  0  0  0
   10.8136   16.8444   14.3840 H   0  0  0  0  0  0  0  0  0  0  0  0
   10.8649   15.0480   14.2758 H   0  0  0  0  0  0  0  0  0  0  0  0
    9.2239   16.7111   16.2767 H   0  0  0  0  0  0  0  0  0  0  0  0
    8.5902   15.7728   14.8617 H   0  0  0  0  0  0  0  0  0  0  0  0
    8.2726   14.5631   17.0495 H   0  0  0  0  0  0  0  0  0  0  0  0
    9.3057   13.6586   15.8890 H   0  0  0  0  0  0  0  0  0  0  0  0
   10.3161   13.6198   18.1877 H   0  0  0  0  0  0  0  0  0  0  0  0
   10.3269   15.4114   18.2239 H   0  0  0  0  0  0  0  0  0  0  0  0
   19.9532   18.5170   15.5552 H   0  0  0  0  0  0  0  0  0  0  0  0
   17.1493   17.7418   14.8235 H   0  0  0  0  0  0  0  0  0  0  0  0
   18.2200   18.8597   13.9120 H   0  0  0  0  0  0  0  0  0  0  0  0
   18.5556   17.0950   13.9120 H   0  0  0  0  0  0  0  0  0  0  0  0
   20.4725   18.3370   17.9885 H   0  0  0  0  0  0  0  0  0  0  0  0
   20.0387   17.9971   20.8340 H   0  0  0  0  0  0  0  0  0  0  0  0
  1  2  2  0
  1  3  1  0
  1 27  1  0
  3  4  1  0
  4  5  1  0
  4  6  2  0
  6  7  1  0
  7  8  1  0
  7 27  2  0
  8  9  1  0
  8 19  2  0
  9 10  1  0
 10 11  1  0
 11 12  1  0
 12 13  1  0
 13 14  1  0
 13 18  1  0
 14 15  1  0
 15 16  1  0
 16 17  1  0
 17 18  1  0
 19 20  1  0
 19 25  1  0
 20 21  2  0
 21 22  1  0
 21 24  1  0
 22 23  1  0
 24 25  1  0
 25 26  2  0
 26 27  1  0
  3 28  1  0
  5 29  1  0
  5 30  1  0
  9 31  1  0
  9 32  1  0
 10 33  1  0
 10 34  1  0
 11 35  1  0
 12 36  1  0
 12 37  1  0
 13 38  1  0
 14 39  1  0
 14 40  1  0
 15 41  1  0
 15 42  1  0
 16 43  1  0
 16 44  1  0
 17 45  1  0
 17 46  1  0
 18 47  1  0
 18 48  1  0
 22 49  1  0
 23 50  1  0
 23 51  1  0
 23 52  1  0
 24 53  1  0
 26 54  1  0
A    1
C2
A    2
O14
A    3
N3
A    4
C4
A    5
N15
A    6
N5
A    7
C6
A    8
C10
A    9
C18
A   10
C19
A   11
N20
A   12
C21
A   13
C22
A   14
C27
A   15
C26
A   16
C25
A   17
C24
A   18
C23
A   19
C9
A   20
N11
A   21
C12
A   22
N16
A   23
C17
A   24
N13
A   25
C8
A   26
C7
A   27
C1
M  END
