4KWO_1UD_A_401
     RDKit          3D

 53 56  0  0  0  0  0  0  0  0999 V2000
  102.1060   16.4500   22.1660 C   0  0  0  0  0  0  0  0  0  0  0  0
  103.0940   16.8390   21.2570 C   0  0  0  0  0  0  0  0  0  0  0  0
  102.7060   16.8710   19.9220 C   0  0  0  0  0  0  0  0  0  0  0  0
  101.4350   16.5410   19.4810 C   0  0  0  0  0  0  0  0  0  0  0  0
  100.4420   16.1280   20.3980 C   0  0  0  0  0  0  0  0  0  0  0  0
   99.0460   15.8100   19.9190 C   0  0  0  0  0  0  0  0  0  0  0  0
   98.8050   14.3840   19.4480 C   0  0  0  0  0  0  0  0  0  0  0  0
  100.8030   16.0960   21.7690 C   0  0  0  0  0  0  0  0  0  0  0  0
   99.8460   15.6990   22.7240 N   0  0  0  0  0  0  0  0  0  0  0  0
  100.1660   15.7060   23.9840 C   0  0  0  0  0  0  0  0  0  0  0  0
   99.2800   15.3430   24.9350 N   0  0  0  0  0  0  0  0  0  0  0  0
  101.4080   16.0640   24.4260 N   0  0  0  0  0  0  0  0  0  0  0  0
  102.4340   16.4370   23.6020 C   0  0  0  0  0  0  0  0  0  0  0  0
  103.5460   16.7510   24.0340 O   0  0  0  0  0  0  0  0  0  0  0  0
  103.3890   17.2030   18.7820 N   0  0  0  0  0  0  0  0  0  0  0  0
  101.3480   16.6860   18.1170 N   0  0  0  0  0  0  0  0  0  0  0  0
  102.5350   17.0780   17.7170 C   0  0  0  0  0  0  0  0  0  0  0  0
  102.9390   17.3490   16.4630 N   0  0  0  0  0  0  0  0  0  0  0  0
  101.9480   17.4770   15.4140 C   0  0  0  0  0  0  0  0  0  0  0  0
   95.8960   14.6790   17.3210 C   0  0  0  0  0  0  0  0  0  0  0  0
   95.9310   14.9850   15.9310 O   0  0  0  0  0  0  0  0  0  0  0  0
   95.4890   16.3110   15.6650 C   0  0  0  0  0  0  0  0  0  0  0  0
   97.1360   15.1000   17.8920 O   0  0  0  0  0  0  0  0  0  0  0  0
   97.3440   14.2540   19.0240 C   0  0  0  0  0  0  0  0  0  0  0  0
   96.8910   12.8670   18.5940 C   0  0  0  0  0  0  0  0  0  0  0  0
   96.3450   12.2370   19.7510 O   0  0  0  0  0  0  0  0  0  0  0  0
   96.4160   10.8150   19.7570 C   0  0  0  0  0  0  0  0  0  0  0  0
   95.8230   13.1710   17.5410 C   0  0  0  0  0  0  0  0  0  0  0  0
   94.5320   12.8450   18.0550 O   0  0  0  0  0  0  0  0  0  0  0  0
  104.1128   17.1028   21.5770 H   0  0  0  0  0  0  0  0  0  0  0  0
   98.8178   16.4835   19.0797 H   0  0  0  0  0  0  0  0  0  0  0  0
   98.3966   15.9432   20.7968 H   0  0  0  0  0  0  0  0  0  0  0  0
   99.0174   13.6817   20.2675 H   0  0  0  0  0  0  0  0  0  0  0  0
   99.4656   14.1505   18.6000 H   0  0  0  0  0  0  0  0  0  0  0  0
   99.5236   15.4428   25.9308 H   0  0  0  0  0  0  0  0  0  0  0  0
   98.3602   14.9662   24.6650 H   0  0  0  0  0  0  0  0  0  0  0  0
  101.5824   16.0523   25.4411 H   0  0  0  0  0  0  0  0  0  0  0  0
  104.3752   17.4963   18.7333 H   0  0  0  0  0  0  0  0  0  0  0  0
  103.9404   17.4641   16.2512 H   0  0  0  0  0  0  0  0  0  0  0  0
  100.9524   17.6056   15.8638 H   0  0  0  0  0  0  0  0  0  0  0  0
  102.1846   18.3520   14.7909 H   0  0  0  0  0  0  0  0  0  0  0  0
  101.9545   16.5706   14.7909 H   0  0  0  0  0  0  0  0  0  0  0  0
   95.0218   15.1745   17.7685 H   0  0  0  0  0  0  0  0  0  0  0  0
   95.3138   16.8367   16.6153 H   0  0  0  0  0  0  0  0  0  0  0  0
   96.2578   16.8448   15.0870 H   0  0  0  0  0  0  0  0  0  0  0  0
   94.5537   16.2767   15.0870 H   0  0  0  0  0  0  0  0  0  0  0  0
   96.7659   14.5179   19.9219 H   0  0  0  0  0  0  0  0  0  0  0  0
   97.6692   12.2024   18.1906 H   0  0  0  0  0  0  0  0  0  0  0  0
   96.4341   10.4532   20.7956 H   0  0  0  0  0  0  0  0  0  0  0  0
   95.5374   10.4018   19.2400 H   0  0  0  0  0  0  0  0  0  0  0  0
   97.3314   10.4914   19.2400 H   0  0  0  0  0  0  0  0  0  0  0  0
   95.9853   12.5971   16.6167 H   0  0  0  0  0  0  0  0  0  0  0  0
   94.5594   12.8519   19.0446 H   0  0  0  0  0  0  0  0  0  0  0  0
 19 18  1  0
 22 21  1  0
 21 20  1  0
 18 17  1  0
 20 28  1  0
 20 23  1  0
 28 29  1  0
 28 25  1  0
 17 16  2  0
 17 15  1  0
 23 24  1  0
 16  4  1  0
 25 24  1  0
 25 26  1  0
 15  3  1  0
 24  7  1  0
  7  6  1  0
  4  3  1  0
  4  5  2  0
 26 27  1  0
  6  5  1  0
  3  2  2  0
  5  8  1  0
  2  1  1  0
  8  1  2  0
  8  9  1  0
  1 13  1  0
  9 10  2  0
 13 14  2  0
 13 12  1  0
 10 12  1  0
 10 11  1  0
  2 30  1  0
  6 31  1  0
  6 32  1  0
  7 33  1  0
  7 34  1  0
 11 35  1  0
 11 36  1  0
 12 37  1  0
 15 38  1  0
 18 39  1  0
 19 40  1  0
 19 41  1  0
 19 42  1  0
 20 43  1  0
 22 44  1  0
 22 45  1  0
 22 46  1  0
 24 47  1  0
 25 48  1  0
 27 49  1  0
 27 50  1  0
 27 51  1  0
 28 52  1  0
 29 53  1  0
A    1
C1
A    2
C2
A    3
C3
A    4
C4
A    5
C5
A    6
C6
A    7
C7
A    8
C8
A    9
N9
A   10
C10
A   11
N11
A   12
N12
A   13
C13
A   14
O14
A   15
N15
A   16
N16
A   17
C17
A   18
N18
A   19
C19
A   20
C20
A   21
O21
A   22
C22
A   23
O23
A   24
C24
A   25
C25
A   26
O26
A   27
C26
A   28
C27
A   29
O28
M  END
