5I0B_67U_A_601
     RDKit          3D

 33 35  0  0  0  0  0  0  0  0999 V2000
   18.7950    3.9410   11.5200 C   0  0  0  0  0  0  0  0  0  0  0  0
   18.3970    4.1940   12.9640 C   0  0  0  0  0  0  0  0  0  0  0  0
   17.1130    5.0180   13.0070 C   0  0  0  0  0  0  0  0  0  0  0  0
   19.5550    4.9190   13.6720 C   0  0  0  0  0  0  0  0  0  0  0  0
   19.7960    6.2250   13.5210 N   0  0  0  0  0  0  0  0  0  0  0  0
   20.8040    6.5230   14.2160 N   0  0  0  0  0  0  0  0  0  0  0  0
   21.3790    7.8620   14.3100 C   0  0  0  0  0  0  0  0  0  0  0  0
   21.2560    5.4490   14.8650 C   0  0  0  0  0  0  0  0  0  0  0  0
   20.4780    4.4140   14.5240 C   0  0  0  0  0  0  0  0  0  0  0  0
   20.6510    3.1530   15.0290 C   0  0  0  0  0  0  0  0  0  0  0  0
   19.7400    2.1700   15.1270 N   0  0  0  0  0  0  0  0  0  0  0  0
   20.3290    1.1100   15.7090 C   0  0  0  0  0  0  0  0  0  0  0  0
   19.8640   -0.1140   16.0190 C   0  0  0  0  0  0  0  0  0  0  0  0
   20.6940   -1.0520   16.6370 C   0  0  0  0  0  0  0  0  0  0  0  0
   20.0920   -2.8620   17.1180 Br  0  0  0  0  0  0  0  0  0  0  0  0
   22.0050   -0.6760   16.9130 C   0  0  0  0  0  0  0  0  0  0  0  0
   22.4430    0.5990   16.5710 N   0  0  0  0  0  0  0  0  0  0  0  0
   21.6000    1.4580   15.9830 C   0  0  0  0  0  0  0  0  0  0  0  0
   21.7900    2.7140   15.5800 N   0  0  0  0  0  0  0  0  0  0  0  0
   19.7230    3.3511   11.4934 H   0  0  0  0  0  0  0  0  0  0  0  0
   17.9933    3.3864   11.0105 H   0  0  0  0  0  0  0  0  0  0  0  0
   18.9569    4.9023   11.0105 H   0  0  0  0  0  0  0  0  0  0  0  0
   18.2022    3.2444   13.4839 H   0  0  0  0  0  0  0  0  0  0  0  0
   16.8291    5.2002   14.0540 H   0  0  0  0  0  0  0  0  0  0  0  0
   17.2773    5.9797   12.4990 H   0  0  0  0  0  0  0  0  0  0  0  0
   16.3072    4.4680   12.4990 H   0  0  0  0  0  0  0  0  0  0  0  0
   21.4970    8.1369   15.3685 H   0  0  0  0  0  0  0  0  0  0  0  0
   22.3618    7.8745   13.8161 H   0  0  0  0  0  0  0  0  0  0  0  0
   20.7113    8.5833   13.8161 H   0  0  0  0  0  0  0  0  0  0  0  0
   22.1122    5.4190   15.5549 H   0  0  0  0  0  0  0  0  0  0  0  0
   18.7608    2.2196   14.8113 H   0  0  0  0  0  0  0  0  0  0  0  0
   18.8223   -0.3779   15.7839 H   0  0  0  0  0  0  0  0  0  0  0  0
   22.6920   -1.3841   17.3995 H   0  0  0  0  0  0  0  0  0  0  0  0
  1  2  1  0
  2  3  1  0
  2  4  1  0
  5  4  2  0
  5  6  1  0
  4  9  1  0
  6  7  1  0
  6  8  1  0
  9  8  2  0
  9 10  1  0
 10 11  1  0
 10 19  2  0
 11 12  1  0
 19 18  1  0
 12 18  2  0
 12 13  1  0
 18 17  1  0
 13 14  2  0
 17 16  2  0
 14 16  1  0
 14 15  1  0
  1 20  1  0
  1 21  1  0
  1 22  1  0
  2 23  1  0
  3 24  1  0
  3 25  1  0
  3 26  1  0
  7 27  1  0
  7 28  1  0
  7 29  1  0
  8 30  1  0
 11 31  1  0
 13 32  1  0
 16 33  1  0
A    1
C1
A    2
C18
A    3
C2
A    4
C17
A    5
N10
A    6
N19
A    7
C3
A    8
C7
A    9
C13
A   10
C14
A   11
N11
A   12
C15
A   13
C6
A   14
C12
A   15
BR4
A   16
C5
A   17
N8
A   18
C16
A   19
N9
M  END
