5I2E_67D_A_201
     RDKit          3D

 61 66  0  0  0  0  0  0  0  0999 V2000
  -30.9820    3.9470  -23.8520 S   0  0  0  0  0  0  0  0  0  0  0  0
  -31.7900    5.0740  -23.0710 N   0  0  0  0  0  0  0  0  0  0  0  0
  -25.6160    4.3160  -34.8600 C   0  0  0  0  0  0  0  0  0  0  0  0
  -27.4270    4.4580  -33.7640 C   0  0  0  0  0  0  0  0  0  0  0  0
  -28.2990    4.6910  -32.6100 C   0  0  0  0  0  0  0  0  0  0  0  0
  -27.6710    5.0790  -31.3690 C   0  0  0  0  0  0  0  0  0  0  0  0
  -26.6950    4.0170  -35.6910 C   0  0  0  0  0  0  0  0  0  0  0  0
  -25.5710    4.9520  -32.4560 C   0  0  0  0  0  0  0  0  0  0  0  0
  -29.8510    4.9460  -31.1830 C   0  0  0  0  0  0  0  0  0  0  0  0
  -31.9660    6.2130  -23.7070 C   0  0  0  0  0  0  0  0  0  0  0  0
  -32.2550    8.6160  -23.8050 C   0  0  0  0  0  0  0  0  0  0  0  0
  -31.8250    7.4720  -22.9010 C   0  0  0  0  0  0  0  0  0  0  0  0
  -26.1100    4.5860  -33.6460 N   0  0  0  0  0  0  0  0  0  0  0  0
  -26.3140    5.1830  -31.3460 N   0  0  0  0  0  0  0  0  0  0  0  0
  -29.6350    4.6190  -32.4950 N   0  0  0  0  0  0  0  0  0  0  0  0
  -28.6890    5.2230  -30.5320 N   0  0  0  0  0  0  0  0  0  0  0  0
  -28.4710    5.5970  -29.1360 C   0  0  0  0  0  0  0  0  0  0  0  0
  -28.7810    4.5050  -28.3200 O   0  0  0  0  0  0  0  0  0  0  0  0
  -29.3460    6.7280  -28.6080 C   0  0  0  0  0  0  0  0  0  0  0  0
  -28.9040    7.9950  -29.0520 O   0  0  0  0  0  0  0  0  0  0  0  0
  -29.2540    6.4970  -27.0880 C   0  0  0  0  0  0  0  0  0  0  0  0
  -28.1860    7.2670  -26.5280 O   0  0  0  0  0  0  0  0  0  0  0  0
  -28.9340    4.9960  -26.9670 C   0  0  0  0  0  0  0  0  0  0  0  0
  -29.9600    4.1740  -26.2350 C   0  0  0  0  0  0  0  0  0  0  0  0
  -30.0000    4.5620  -24.8590 O   0  0  0  0  0  0  0  0  0  0  0  0
  -30.2330    3.2990  -22.8220 O   0  0  0  0  0  0  0  0  0  0  0  0
  -31.8480    3.0090  -24.5240 O   0  0  0  0  0  0  0  0  0  0  0  0
  -27.8540    4.1090  -34.9890 N   0  0  0  0  0  0  0  0  0  0  0  0
  -32.1990    6.2500  -24.8960 O   0  0  0  0  0  0  0  0  0  0  0  0
  -33.4350    9.3880  -23.2610 C   0  0  0  0  0  0  0  0  0  0  0  0
  -33.9330    9.5350  -21.8650 C   0  0  0  0  0  0  0  0  0  0  0  0
  -35.1090   10.4240  -21.9720 C   0  0  0  0  0  0  0  0  0  0  0  0
  -35.2600   10.7410  -23.2710 N   0  0  0  0  0  0  0  0  0  0  0  0
  -34.3000   10.1540  -24.0370 C   0  0  0  0  0  0  0  0  0  0  0  0
  -35.8030   10.7590  -20.8190 C   0  0  0  0  0  0  0  0  0  0  0  0
  -35.3690   10.2480  -19.6030 C   0  0  0  0  0  0  0  0  0  0  0  0
  -34.2520    9.4190  -19.5040 C   0  0  0  0  0  0  0  0  0  0  0  0
  -33.5230    9.0420  -20.6260 C   0  0  0  0  0  0  0  0  0  0  0  0
  -32.1551    4.9206  -22.1202 H   0  0  0  0  0  0  0  0  0  0  0  0
  -24.5547    4.3278  -35.1490 H   0  0  0  0  0  0  0  0  0  0  0  0
  -26.6190    3.7473  -36.7547 H   0  0  0  0  0  0  0  0  0  0  0  0
  -24.4791    5.0668  -32.3887 H   0  0  0  0  0  0  0  0  0  0  0  0
  -30.8445    4.9806  -30.7121 H   0  0  0  0  0  0  0  0  0  0  0  0
  -32.5292    8.2027  -24.7868 H   0  0  0  0  0  0  0  0  0  0  0  0
  -31.4088    9.3153  -23.8753 H   0  0  0  0  0  0  0  0  0  0  0  0
  -30.7791    7.6076  -22.5885 H   0  0  0  0  0  0  0  0  0  0  0  0
  -32.4416    7.4319  -21.9909 H   0  0  0  0  0  0  0  0  0  0  0  0
  -27.4213    5.9247  -29.1082 H   0  0  0  0  0  0  0  0  0  0  0  0
  -30.3859    6.7231  -28.9666 H   0  0  0  0  0  0  0  0  0  0  0  0
  -28.7042    8.5676  -28.2695 H   0  0  0  0  0  0  0  0  0  0  0  0
  -30.1717    6.7913  -26.5577 H   0  0  0  0  0  0  0  0  0  0  0  0
  -28.2360    7.2309  -25.5399 H   0  0  0  0  0  0  0  0  0  0  0  0
  -28.0251    4.8922  -26.3562 H   0  0  0  0  0  0  0  0  0  0  0  0
  -30.9489    4.3357  -26.6889 H   0  0  0  0  0  0  0  0  0  0  0  0
  -29.6897    3.1100  -26.3045 H   0  0  0  0  0  0  0  0  0  0  0  0
  -36.0057   11.3493  -23.6383 H   0  0  0  0  0  0  0  0  0  0  0  0
  -34.2184   10.2700  -25.1278 H   0  0  0  0  0  0  0  0  0  0  0  0
  -36.6823   11.4183  -20.8669 H   0  0  0  0  0  0  0  0  0  0  0  0
  -35.9239   10.5053  -18.6887 H   0  0  0  0  0  0  0  0  0  0  0  0
  -33.9402    9.0546  -18.5141 H   0  0  0  0  0  0  0  0  0  0  0  0
  -32.6513    8.3767  -20.5397 H   0  0  0  0  0  0  0  0  0  0  0  0
  7 28  1  0
  7  3  2  0
 28  4  2  0
  3 13  1  0
  4 13  1  0
  4  5  1  0
 13  8  1  0
  5 15  1  0
  5  6  2  0
 15  9  2  0
  8 14  2  0
  6 14  1  0
  6 16  1  0
  9 16  1  0
 16 17  1  0
 17 19  1  0
 17 18  1  0
 20 19  1  0
 19 21  1  0
 18 23  1  0
 21 23  1  0
 21 22  1  0
 23 24  1  0
 24 25  1  0
 29 10  2  0
 25  1  1  0
 27  1  2  0
 34 33  1  0
 34 30  2  0
  1  2  1  0
  1 26  2  0
 11 30  1  0
 11 12  1  0
 10  2  1  0
 10 12  1  0
 33 32  1  0
 30 31  1  0
 32 31  2  0
 32 35  1  0
 31 38  1  0
 35 36  2  0
 38 37  2  0
 36 37  1  0
  2 39  1  0
  3 40  1  0
  7 41  1  0
  8 42  1  0
  9 43  1  0
 11 44  1  0
 11 45  1  0
 12 46  1  0
 12 47  1  0
 17 48  1  0
 19 49  1  0
 20 50  1  0
 21 51  1  0
 22 52  1  0
 23 53  1  0
 24 54  1  0
 24 55  1  0
 33 56  1  0
 34 57  1  0
 35 58  1  0
 36 59  1  0
 37 60  1  0
 38 61  1  0
A    1
S
A    2
N
A    3
C7
A    4
C6
A    5
C5
A    6
C4
A    7
C3
A    8
C2
A    9
C8
A   10
C9
A   11
C11
A   12
C10
A   13
N1
A   14
N3
A   15
N7
A   16
N9
A   17
C1'
A   18
O4'
A   19
C2'
A   20
O2'
A   21
C3'
A   22
O3'
A   23
C4'
A   24
C5'
A   25
O5'
A   26
O2P
A   27
O3P
A   28
N2
A   29
O13
A   30
C19
A   31
C20
A   32
C21
A   33
N22
A   34
C23
A   35
C36
A   36
C37
A   37
C38
A   38
C39
M  END
