5I2Z_V24_A_301
     RDKit          3D

 93 96  0  0  0  0  0  0  0  0999 V2000
  -11.1140  -15.6300   -3.1670 C   0  0  0  0  0  0  0  0  0  0  0  0
   -8.7270  -15.4710   -2.7950 C   0  0  0  0  0  0  0  0  0  0  0  0
   -8.9150  -14.1990   -2.2820 C   0  0  0  0  0  0  0  0  0  0  0  0
  -10.1950  -13.6530   -2.2040 C   0  0  0  0  0  0  0  0  0  0  0  0
  -12.6150  -13.8100   -2.5750 C   0  0  0  0  0  0  0  0  0  0  0  0
  -13.6930  -14.6380   -2.6970 C   0  0  0  0  0  0  0  0  0  0  0  0
  -14.9230  -14.0400   -2.5740 C   0  0  0  0  0  0  0  0  0  0  0  0
  -13.9840  -11.8990   -2.1710 C   0  0  0  0  0  0  0  0  0  0  0  0
  -12.7480  -12.4550   -2.2950 C   0  0  0  0  0  0  0  0  0  0  0  0
  -17.1390  -13.0430   -1.3960 O   0  0  0  0  0  0  0  0  0  0  0  0
  -17.2090  -11.0460   -4.5110 C   0  0  0  0  0  0  0  0  0  0  0  0
  -16.3040  -11.4510   -5.6000 C   0  0  0  0  0  0  0  0  0  0  0  0
  -18.4720  -10.4460   -5.1530 C   0  0  0  0  0  0  0  0  0  0  0  0
  -19.6220  -10.2920   -4.1980 C   0  0  0  0  0  0  0  0  0  0  0  0
  -18.4920  -13.0060   -3.7270 C   0  0  0  0  0  0  0  0  0  0  0  0
  -19.5890  -13.5230   -2.7750 C   0  0  0  0  0  0  0  0  0  0  0  0
  -23.0420  -18.1950   -0.8150 O   0  0  0  0  0  0  0  0  0  0  0  0
  -22.7980  -17.1620   -1.3690 C   0  0  0  0  0  0  0  0  0  0  0  0
  -22.6140  -17.2580   -2.7790 C   0  0  0  0  0  0  0  0  0  0  0  0
  -22.7200  -15.9250   -0.9130 N   0  0  0  0  0  0  0  0  0  0  0  0
  -22.0280  -15.6560    0.3030 C   0  0  0  0  0  0  0  0  0  0  0  0
  -22.8720  -15.9140    1.5500 C   0  0  0  0  0  0  0  0  0  0  0  0
  -22.9970  -17.3440    1.5830 O   0  0  0  0  0  0  0  0  0  0  0  0
  -23.7410  -18.0270    2.5920 C   0  0  0  0  0  0  0  0  0  0  0  0
  -24.5340  -17.3700    3.1860 O   0  0  0  0  0  0  0  0  0  0  0  0
  -23.4890  -19.4790    2.8370 C   0  0  0  0  0  0  0  0  0  0  0  0
  -22.2910  -15.2890    2.8430 C   0  0  0  0  0  0  0  0  0  0  0  0
  -23.2510  -14.3860    3.3920 O   0  0  0  0  0  0  0  0  0  0  0  0
  -23.5760  -14.7000    4.7690 C   0  0  0  0  0  0  0  0  0  0  0  0
  -23.9190  -15.7960    5.1000 O   0  0  0  0  0  0  0  0  0  0  0  0
  -23.4500  -13.6240    5.7580 C   0  0  0  0  0  0  0  0  0  0  0  0
  -20.8600  -14.7180    2.7050 C   0  0  0  0  0  0  0  0  0  0  0  0
  -19.8950  -15.7890    3.2560 C   0  0  0  0  0  0  0  0  0  0  0  0
  -18.4610  -15.6510    3.2100 O   0  0  0  0  0  0  0  0  0  0  0  0
  -17.6240  -15.1330    4.3000 C   0  0  0  0  0  0  0  0  0  0  0  0
  -16.5840  -14.5840    4.0460 O   0  0  0  0  0  0  0  0  0  0  0  0
  -18.1040  -15.2830    5.7080 C   0  0  0  0  0  0  0  0  0  0  0  0
  -20.5250  -14.3110    1.3460 O   0  0  0  0  0  0  0  0  0  0  0  0
  -21.5090  -14.2560    0.3160 C   0  0  0  0  0  0  0  0  0  0  0  0
  -20.8790  -14.0460   -1.0060 N   0  0  0  0  0  0  0  0  0  0  0  0
  -21.5070  -14.5650   -2.1340 N   0  0  0  0  0  0  0  0  0  0  0  0
  -20.6610  -14.2210   -3.2050 N   0  0  0  0  0  0  0  0  0  0  0  0
  -19.7710  -13.4240   -1.3920 C   0  0  0  0  0  0  0  0  0  0  0  0
  -17.4240  -12.0130   -3.4260 N   0  0  0  0  0  0  0  0  0  0  0  0
  -18.2060   -9.0920   -5.7930 C   0  0  0  0  0  0  0  0  0  0  0  0
  -16.7700  -12.0950   -6.5160 O   0  0  0  0  0  0  0  0  0  0  0  0
  -15.1540  -11.0730   -5.5120 O   0  0  0  0  0  0  0  0  0  0  0  0
  -16.5440  -12.0750   -2.1930 S   0  0  0  0  0  0  0  0  0  0  0  0
  -16.5340  -10.9800   -1.3950 O   0  0  0  0  0  0  0  0  0  0  0  0
  -15.0820  -12.6820   -2.3370 C   0  0  0  0  0  0  0  0  0  0  0  0
  -11.2800  -14.3800   -2.6730 C   0  0  0  0  0  0  0  0  0  0  0  0
   -9.8400  -16.1840   -3.2230 C   0  0  0  0  0  0  0  0  0  0  0  0
  -11.9826  -16.2040   -3.5221 H   0  0  0  0  0  0  0  0  0  0  0  0
   -7.7194  -15.9072   -2.8622 H   0  0  0  0  0  0  0  0  0  0  0  0
   -8.0495  -13.6161   -1.9341 H   0  0  0  0  0  0  0  0  0  0  0  0
  -10.3442  -12.6519   -1.7733 H   0  0  0  0  0  0  0  0  0  0  0  0
  -13.5834  -15.7167   -2.8822 H   0  0  0  0  0  0  0  0  0  0  0  0
  -15.8229  -14.6657   -2.6676 H   0  0  0  0  0  0  0  0  0  0  0  0
  -14.0927  -10.8292   -1.9393 H   0  0  0  0  0  0  0  0  0  0  0  0
  -11.8511  -11.8299   -2.1732 H   0  0  0  0  0  0  0  0  0  0  0  0
  -16.7058  -10.2709   -3.9143 H   0  0  0  0  0  0  0  0  0  0  0  0
  -18.7527  -11.1800   -5.9227 H   0  0  0  0  0  0  0  0  0  0  0  0
  -19.2494  -10.3419   -3.1642 H   0  0  0  0  0  0  0  0  0  0  0  0
  -20.1100   -9.3205   -4.3653 H   0  0  0  0  0  0  0  0  0  0  0  0
  -20.3484  -11.1009   -4.3653 H   0  0  0  0  0  0  0  0  0  0  0  0
  -19.0392  -12.5797   -4.5807 H   0  0  0  0  0  0  0  0  0  0  0  0
  -17.8718  -13.9129   -3.7819 H   0  0  0  0  0  0  0  0  0  0  0  0
  -21.6570  -17.7573   -2.9907 H   0  0  0  0  0  0  0  0  0  0  0  0
  -23.4369  -17.8417   -3.2173 H   0  0  0  0  0  0  0  0  0  0  0  0
  -22.6060  -16.2491   -3.2173 H   0  0  0  0  0  0  0  0  0  0  0  0
  -23.1595  -15.1546   -1.4366 H   0  0  0  0  0  0  0  0  0  0  0  0
  -21.1860  -16.3630    0.3378 H   0  0  0  0  0  0  0  0  0  0  0  0
  -23.8533  -15.4194    1.5017 H   0  0  0  0  0  0  0  0  0  0  0  0
  -23.4562  -19.6678    3.9202 H   0  0  0  0  0  0  0  0  0  0  0  0
  -24.2975  -20.0727    2.3856 H   0  0  0  0  0  0  0  0  0  0  0  0
  -22.5277  -19.7656    2.3856 H   0  0  0  0  0  0  0  0  0  0  0  0
  -22.1258  -16.0967    3.5712 H   0  0  0  0  0  0  0  0  0  0  0  0
  -23.4998  -14.0495    6.7711 H   0  0  0  0  0  0  0  0  0  0  0  0
  -22.4858  -13.1123    5.6222 H   0  0  0  0  0  0  0  0  0  0  0  0
  -24.2699  -12.9033    5.6222 H   0  0  0  0  0  0  0  0  0  0  0  0
  -20.7768  -13.7858    3.2830 H   0  0  0  0  0  0  0  0  0  0  0  0
  -20.1538  -15.9127    4.3180 H   0  0  0  0  0  0  0  0  0  0  0  0
  -20.0593  -16.6172    2.5510 H   0  0  0  0  0  0  0  0  0  0  0  0
  -17.2895  -15.0285    6.4021 H   0  0  0  0  0  0  0  0  0  0  0  0
  -18.9557  -14.6082    5.8789 H   0  0  0  0  0  0  0  0  0  0  0  0
  -18.4199  -16.3227    5.8789 H   0  0  0  0  0  0  0  0  0  0  0  0
  -22.2451  -13.4569    0.4882 H   0  0  0  0  0  0  0  0  0  0  0  0
  -19.0848  -12.8986   -0.7115 H   0  0  0  0  0  0  0  0  0  0  0  0
  -18.0578   -8.3374   -5.0065 H   0  0  0  0  0  0  0  0  0  0  0  0
  -17.3026   -9.1528   -6.4177 H   0  0  0  0  0  0  0  0  0  0  0  0
  -19.0652   -8.8066   -6.4177 H   0  0  0  0  0  0  0  0  0  0  0  0
  -14.7440  -10.9382   -4.6210 H   0  0  0  0  0  0  0  0  0  0  0  0
   -9.7110  -17.2045   -3.6129 H   0  0  0  0  0  0  0  0  0  0  0  0
 46 12  2  0
 45 13  1  0
 12 47  1  0
 12 11  1  0
 13 11  1  0
 13 14  1  0
 11 44  1  0
 15 44  1  0
 15 16  1  0
 44 48  1  0
 52  1  2  0
 52  2  1  0
 42 16  1  0
 42 41  2  0
  1 51  1  0
  2  3  2  0
 19 18  1  0
 16 43  2  0
  6  5  2  0
  6  7  1  0
 51  5  1  0
 51  4  2  0
  5  9  1  0
  7 50  2  0
 50 48  1  0
 50  8  1  0
  9  8  2  0
  3  4  1  0
 48 10  2  0
 48 49  2  0
 41 40  1  0
 43 40  1  0
 18 20  1  0
 18 17  2  0
 40 39  1  0
 20 21  1  0
 21 39  1  0
 21 22  1  0
 39 38  1  0
 38 32  1  0
 22 23  1  0
 22 27  1  0
 23 24  1  0
 24 26  1  0
 24 25  2  0
 32 27  1  0
 32 33  1  0
 27 28  1  0
 34 33  1  0
 34 35  1  0
 28 29  1  0
 36 35  2  0
 35 37  1  0
 29 30  2  0
 29 31  1  0
  1 53  1  0
  2 54  1  0
  3 55  1  0
  4 56  1  0
  6 57  1  0
  7 58  1  0
  8 59  1  0
  9 60  1  0
 11 61  1  0
 13 62  1  0
 14 63  1  0
 14 64  1  0
 14 65  1  0
 15 66  1  0
 15 67  1  0
 19 68  1  0
 19 69  1  0
 19 70  1  0
 20 71  1  0
 21 72  1  0
 22 73  1  0
 26 74  1  0
 26 75  1  0
 26 76  1  0
 27 77  1  0
 31 78  1  0
 31 79  1  0
 31 80  1  0
 32 81  1  0
 33 82  1  0
 33 83  1  0
 37 84  1  0
 37 85  1  0
 37 86  1  0
 39 87  1  0
 43 88  1  0
 45 89  1  0
 45 90  1  0
 45 91  1  0
 47 92  1  0
 52 93  1  0
A    1
C2
A    2
C4
A    3
C5
A    4
C6
A    5
C7
A    6
C8
A    7
C9
A    8
C11
A    9
C12
A   10
O14
A   11
C17
A   12
C18
A   13
C21
A   14
C22
A   15
C24
A   16
C25
A   17
O52
A   18
C50
A   19
C51
A   20
N49
A   21
C35
A   22
C34
A   23
O42
A   24
C43
A   25
O45
A   26
C44
A   27
C33
A   28
O41
A   29
C46
A   30
O48
A   31
C47
A   32
C32
A   33
C36
A   34
O37
A   35
C38
A   36
O40
A   37
C39
A   38
O31
A   39
C30
A   40
N28
A   41
N27
A   42
N26
A   43
C29
A   44
N16
A   45
C23
A   46
O20
A   47
O19
A   48
S13
A   49
O15
A   50
C10
A   51
C1
A   52
C3
M  END
