5I3V_68M_A_404
     RDKit          3D

 62 64  0  0  0  0  0  0  0  0999 V2000
   65.4440   50.7560   13.1500 C   0  0  0  0  0  0  0  0  0  0  0  0
   65.2210   51.5290   11.8560 C   0  0  0  0  0  0  0  0  0  0  0  0
   66.4150   52.4750   11.6320 C   0  0  0  0  0  0  0  0  0  0  0  0
   63.9430   52.3560   11.9420 C   0  0  0  0  0  0  0  0  0  0  0  0
   65.1280   50.5300   10.6940 C   0  0  0  0  0  0  0  0  0  0  0  0
   63.8820   49.6170   10.6730 C   0  0  0  0  0  0  0  0  0  0  0  0
   64.0490   48.7720    9.4810 N   0  0  0  0  0  0  0  0  0  0  0  0
   64.3360   47.4760    9.5030 C   0  0  0  0  0  0  0  0  0  0  0  0
   64.4070   46.8360   10.5500 O   0  0  0  0  0  0  0  0  0  0  0  0
   64.5930   46.8170    8.1350 C   0  0  0  0  0  0  0  0  0  0  0  0
   63.6250   45.6320    7.9010 C   0  0  0  0  0  0  0  0  0  0  0  0
   66.0790   46.4070    7.9310 C   0  0  0  0  0  0  0  0  0  0  0  0
   66.9240   47.6420    8.1990 C   0  0  0  0  0  0  0  0  0  0  0  0
   66.9010   48.7660    7.3680 C   0  0  0  0  0  0  0  0  0  0  0  0
   67.6140   49.8660    7.6530 N   0  0  0  0  0  0  0  0  0  0  0  0
   66.1420   48.7320    6.2680 N   0  0  0  0  0  0  0  0  0  0  0  0
   67.7410   47.6870    9.3240 C   0  0  0  0  0  0  0  0  0  0  0  0
   68.4800   48.8490    9.6150 C   0  0  0  0  0  0  0  0  0  0  0  0
   69.3290   48.9210   10.7410 C   0  0  0  0  0  0  0  0  0  0  0  0
   68.4100   49.9290    8.7520 C   0  0  0  0  0  0  0  0  0  0  0  0
   69.1410   51.0790    9.0200 C   0  0  0  0  0  0  0  0  0  0  0  0
   69.9690   51.1680   10.1450 C   0  0  0  0  0  0  0  0  0  0  0  0
   70.0460   50.0900   11.0310 C   0  0  0  0  0  0  0  0  0  0  0  0
   70.9580   50.1690   12.1120 C   0  0  0  0  0  0  0  0  0  0  0  0
   71.9600   49.2700   12.0310 N   0  0  0  0  0  0  0  0  0  0  0  0
   72.9630   49.1890   12.9170 C   0  0  0  0  0  0  0  0  0  0  0  0
   72.9650   50.0720   13.9930 C   0  0  0  0  0  0  0  0  0  0  0  0
   71.9590   51.0110   14.1220 C   0  0  0  0  0  0  0  0  0  0  0  0
   70.9310   51.0800   13.1690 C   0  0  0  0  0  0  0  0  0  0  0  0
   69.8360   52.0990   13.3530 C   0  0  0  0  0  0  0  0  0  0  0  0
   65.2535   51.4162   14.0090 H   0  0  0  0  0  0  0  0  0  0  0  0
   64.7568   49.8979   13.1876 H   0  0  0  0  0  0  0  0  0  0  0  0
   66.4827   50.3958   13.1876 H   0  0  0  0  0  0  0  0  0  0  0  0
   66.8176   52.7940   12.6047 H   0  0  0  0  0  0  0  0  0  0  0  0
   67.1980   51.9495   11.0656 H   0  0  0  0  0  0  0  0  0  0  0  0
   66.0825   53.3574   11.0656 H   0  0  0  0  0  0  0  0  0  0  0  0
   63.6848   52.5231   12.9981 H   0  0  0  0  0  0  0  0  0  0  0  0
   64.0990   53.3248   11.4450 H   0  0  0  0  0  0  0  0  0  0  0  0
   63.1232   51.8167   11.4450 H   0  0  0  0  0  0  0  0  0  0  0  0
   66.0166   49.8830   10.7366 H   0  0  0  0  0  0  0  0  0  0  0  0
   65.0561   51.1446    9.7845 H   0  0  0  0  0  0  0  0  0  0  0  0
   62.9638   50.2178   10.5954 H   0  0  0  0  0  0  0  0  0  0  0  0
   63.7914   49.0205   11.5928 H   0  0  0  0  0  0  0  0  0  0  0  0
   63.9347   49.2191    8.5602 H   0  0  0  0  0  0  0  0  0  0  0  0
   64.3862   47.5780    7.3681 H   0  0  0  0  0  0  0  0  0  0  0  0
   63.2965   45.2299    8.8707 H   0  0  0  0  0  0  0  0  0  0  0  0
   62.7497   45.9802    7.3330 H   0  0  0  0  0  0  0  0  0  0  0  0
   64.1409   44.8438    7.3330 H   0  0  0  0  0  0  0  0  0  0  0  0
   66.3491   45.6051    8.6339 H   0  0  0  0  0  0  0  0  0  0  0  0
   66.2454   46.0326    6.9101 H   0  0  0  0  0  0  0  0  0  0  0  0
   65.1164   48.6861    6.3512 H   0  0  0  0  0  0  0  0  0  0  0  0
   66.5828   48.7517    5.3373 H   0  0  0  0  0  0  0  0  0  0  0  0
   67.8096   46.8125    9.9877 H   0  0  0  0  0  0  0  0  0  0  0  0
   69.4292   48.0464   11.4006 H   0  0  0  0  0  0  0  0  0  0  0  0
   69.0679   51.9365    8.3349 H   0  0  0  0  0  0  0  0  0  0  0  0
   70.5551   52.0802   10.3305 H   0  0  0  0  0  0  0  0  0  0  0  0
   73.7635   48.4442   12.7967 H   0  0  0  0  0  0  0  0  0  0  0  0
   73.7689   50.0224   14.7422 H   0  0  0  0  0  0  0  0  0  0  0  0
   71.9641   51.7064   14.9743 H   0  0  0  0  0  0  0  0  0  0  0  0
   69.6623   52.2607   14.4271 H   0  0  0  0  0  0  0  0  0  0  0  0
   70.1351   53.0475   12.8831 H   0  0  0  0  0  0  0  0  0  0  0  0
   68.9114   51.7326   12.8831 H   0  0  0  0  0  0  0  0  0  0  0  0
 16 14  1  0
 14 15  1  0
 14 13  2  0
 15 20  2  0
 11 10  1  0
 12 10  1  0
 12 13  1  0
 10  8  1  0
 13 17  1  0
 20 21  1  0
 20 18  1  0
 21 22  2  0
 17 18  2  0
  7  8  1  0
  7  6  1  0
  8  9  2  0
 18 19  1  0
 22 23  1  0
  6  5  1  0
  5  2  1  0
 19 23  2  0
 23 24  1  0
  3  2  1  0
  2  4  1  0
  2  1  1  0
 25 24  2  0
 25 26  1  0
 24 29  1  0
 26 27  2  0
 29 30  1  0
 29 28  2  0
 27 28  1  0
  1 31  1  0
  1 32  1  0
  1 33  1  0
  3 34  1  0
  3 35  1  0
  3 36  1  0
  4 37  1  0
  4 38  1  0
  4 39  1  0
  5 40  1  0
  5 41  1  0
  6 42  1  0
  6 43  1  0
  7 44  1  0
 10 45  1  0
 11 46  1  0
 11 47  1  0
 11 48  1  0
 12 49  1  0
 12 50  1  0
 16 51  1  0
 16 52  1  0
 17 53  1  0
 19 54  1  0
 21 55  1  0
 22 56  1  0
 26 57  1  0
 27 58  1  0
 28 59  1  0
 30 60  1  0
 30 61  1  0
 30 62  1  0
A    1
C18
A    2
C16
A    3
C19
A    4
C20
A    5
C15
A    6
C14
A    7
N3
A    8
C13
A    9
O1
A   10
C12
A   11
C17
A   12
C11
A   13
C4
A   14
C3
A   15
N1
A   16
N2
A   17
C5
A   18
C1
A   19
C6
A   20
C2
A   21
C9
A   22
C8
A   23
C7
A   24
C10
A   25
N4
A   26
C24
A   27
C23
A   28
C22
A   29
C21
A   30
C25
M  END
