5I6U_68R_A_1101
     RDKit          3D

 54 58  0  0  0  0  0  0  0  0999 V2000
   -4.3285   -1.4189   21.1284 C   0  0  0  0  0  0  0  0  0  0  0  0
   -4.1910   -2.4203   23.3615 C   0  0  0  0  0  0  0  0  0  0  0  0
   -2.3294   -2.5687   24.9515 C   0  0  0  0  0  0  0  0  0  0  0  0
   -3.7571   -4.4522   24.5700 C   0  0  0  0  0  0  0  0  0  0  0  0
   -7.6409   -2.1873   23.9870 C   0  0  0  0  0  0  0  0  0  0  0  0
   -6.6114    1.2783   25.2198 C   0  0  0  0  0  0  0  0  0  0  0  0
   -6.5263    3.4651   26.1719 C   0  0  0  0  0  0  0  0  0  0  0  0
   -4.7190    2.1339   26.1968 C   0  0  0  0  0  0  0  0  0  0  0  0
   -3.2965   -0.8827   17.9979 Cl  0  0  0  0  0  0  0  0  0  0  0  0
   -5.4185    0.6512   18.0326 C   0  0  0  0  0  0  0  0  0  0  0  0
   -6.5585    1.2448   18.5322 C   0  0  0  0  0  0  0  0  0  0  0  0
   -6.9448    0.9626   19.8417 C   0  0  0  0  0  0  0  0  0  0  0  0
   -6.1997    0.1028   20.6695 C   0  0  0  0  0  0  0  0  0  0  0  0
   -5.0559   -0.5166   20.1694 C   0  0  0  0  0  0  0  0  0  0  0  0
   -4.6757   -0.2285   18.8235 C   0  0  0  0  0  0  0  0  0  0  0  0
   -6.6752   -0.0988   21.9573 N   0  0  0  0  0  0  0  0  0  0  0  0
   -6.0304   -0.8873   22.7771 C   0  0  0  0  0  0  0  0  0  0  0  0
   -4.8986   -1.5819   22.4198 N   0  0  0  0  0  0  0  0  0  0  0  0
   -3.2987   -2.0022   20.7722 O   0  0  0  0  0  0  0  0  0  0  0  0
   -3.0848   -1.8552   24.0424 C   0  0  0  0  0  0  0  0  0  0  0  0
   -2.6665   -3.8754   25.2258 C   0  0  0  0  0  0  0  0  0  0  0  0
   -4.5211   -3.7494   23.6368 C   0  0  0  0  0  0  0  0  0  0  0  0
   -6.6630   -1.0417   24.1612 C   0  0  0  0  0  0  0  0  0  0  0  0
   -7.2801    0.2164   24.6088 N   0  0  0  0  0  0  0  0  0  0  0  0
   -7.2607    2.4548   25.5054 C   0  0  0  0  0  0  0  0  0  0  0  0
   -5.2333    3.3201   26.5311 N   0  0  0  0  0  0  0  0  0  0  0  0
   -5.3395    1.1278   25.5539 N   0  0  0  0  0  0  0  0  0  0  0  0
   -7.0552    4.6891   26.5272 N   0  0  0  0  0  0  0  0  0  0  0  0
   -8.6147    2.6158   25.1200 C   0  0  0  0  0  0  0  0  0  0  0  0
   -9.7801    2.6732   24.8157 C   0  0  0  0  0  0  0  0  0  0  0  0
  -11.1474    2.6517   24.3927 C   0  0  0  0  0  0  0  0  0  0  0  0
  -11.6843    2.0517   23.2855 C   0  0  0  0  0  0  0  0  0  0  0  0
  -13.0146    2.3260   23.3032 N   0  0  0  0  0  0  0  0  0  0  0  0
  -13.4004    3.0762   24.3483 N   0  0  0  0  0  0  0  0  0  0  0  0
  -12.2491    3.2785   24.9977 C   0  0  0  0  0  0  0  0  0  0  0  0
   -1.4689   -2.0992   25.4505 H   0  0  0  0  0  0  0  0  0  0  0  0
   -4.0226   -5.4953   24.7967 H   0  0  0  0  0  0  0  0  0  0  0  0
   -7.9547   -2.5550   24.9751 H   0  0  0  0  0  0  0  0  0  0  0  0
   -8.5218   -1.8359   23.4298 H   0  0  0  0  0  0  0  0  0  0  0  0
   -7.1556   -3.0021   23.4298 H   0  0  0  0  0  0  0  0  0  0  0  0
   -3.6701    1.9597   26.4787 H   0  0  0  0  0  0  0  0  0  0  0  0
   -5.0923    0.8717   17.0055 H   0  0  0  0  0  0  0  0  0  0  0  0
   -7.1526    1.9289   17.9085 H   0  0  0  0  0  0  0  0  0  0  0  0
   -7.8596    1.4260   20.2397 H   0  0  0  0  0  0  0  0  0  0  0  0
   -2.8174   -0.8078   23.8390 H   0  0  0  0  0  0  0  0  0  0  0  0
   -2.0834   -4.4589   25.9535 H   0  0  0  0  0  0  0  0  0  0  0  0
   -5.3676   -4.2333   23.1275 H   0  0  0  0  0  0  0  0  0  0  0  0
   -5.9382   -1.2651   24.9579 H   0  0  0  0  0  0  0  0  0  0  0  0
   -8.2935    0.3229   24.4583 H   0  0  0  0  0  0  0  0  0  0  0  0
   -7.1615    4.9351   27.5217 H   0  0  0  0  0  0  0  0  0  0  0  0
   -7.3437    5.3567   25.7979 H   0  0  0  0  0  0  0  0  0  0  0  0
  -11.1442    1.4628   22.5295 H   0  0  0  0  0  0  0  0  0  0  0  0
  -13.6676    1.9895   22.5813 H   0  0  0  0  0  0  0  0  0  0  0  0
  -12.1723    3.8779   25.9169 H   0  0  0  0  0  0  0  0  0  0  0  0
  9 15  1  0
 10 11  2  0
 10 15  1  0
 11 12  1  0
 15 14  2  0
 12 13  2  0
 14 13  1  0
 14  1  1  0
 13 16  1  0
 19  1  2  0
  1 18  1  0
 16 17  2  0
 18 17  1  0
 18  2  1  0
 17 23  1  0
 32 33  1  0
 32 31  2  0
 33 34  1  0
  2 22  2  0
  2 20  1  0
 22  4  1  0
  5 23  1  0
 20  3  2  0
 23 24  1  0
 34 35  2  0
 31 30  1  0
 31 35  1  0
  4 21  2  0
 24  6  1  0
 30 29  3  0
  3 21  1  0
 29 25  1  0
  6 25  1  0
  6 27  2  0
 25  7  2  0
 27  8  1  0
  7 28  1  0
  7 26  1  0
  8 26  2  0
  3 36  1  0
  4 37  1  0
  5 38  1  0
  5 39  1  0
  5 40  1  0
  8 41  1  0
 10 42  1  0
 11 43  1  0
 12 44  1  0
 20 45  1  0
 21 46  1  0
 22 47  1  0
 23 48  1  0
 24 49  1  0
 28 50  1  0
 28 51  1  0
 32 52  1  0
 33 53  1  0
 35 54  1  0
A    1
C10
A    2
C13
A    3
C15
A    4
C17
A    5
C20
A    6
C22
A    7
C24
A    8
C26
A    9
CL1
A   10
C01
A   11
C02
A   12
C03
A   13
C04
A   14
C05
A   15
C06
A   16
N07
A   17
C08
A   18
N09
A   19
O11
A   20
C14
A   21
C16
A   22
C18
A   23
C19
A   24
N21
A   25
C23
A   26
N25
A   27
N27
A   28
N28
A   29
C29
A   30
C30
A   31
C31
A   32
C32
A   33
N33
A   34
N34
A   35
C35
M  END
