5I7R_68W_B_402
     RDKit          3D

 41 43  0  0  0  0  0  0  0  0999 V2000
  -15.1110    7.2120   27.8530 O   0  0  0  0  0  0  0  0  0  0  0  0
  -16.2740    7.6990   28.0740 C   0  0  0  0  0  0  0  0  0  0  0  0
  -16.5020    8.9150   27.8580 O   0  0  0  0  0  0  0  0  0  0  0  0
  -17.2950    6.8920   28.6400 C   0  0  0  0  0  0  0  0  0  0  0  0
  -17.0620    5.5080   28.7070 C   0  0  0  0  0  0  0  0  0  0  0  0
  -18.5060    7.4090   29.1530 C   0  0  0  0  0  0  0  0  0  0  0  0
  -19.4420    6.5220   29.7110 C   0  0  0  0  0  0  0  0  0  0  0  0
  -19.1760    5.1580   29.7660 C   0  0  0  0  0  0  0  0  0  0  0  0
  -17.9980    4.6070   29.2260 C   0  0  0  0  0  0  0  0  0  0  0  0
  -17.6140    3.2950   29.2090 N   0  0  0  0  0  0  0  0  0  0  0  0
  -18.4260    2.2140   29.4430 C   0  0  0  0  0  0  0  0  0  0  0  0
  -19.6500    2.3240   29.7270 O   0  0  0  0  0  0  0  0  0  0  0  0
  -17.7380    1.0340   29.4080 N   0  0  0  0  0  0  0  0  0  0  0  0
  -18.2820   -0.2470   29.5750 C   0  0  0  0  0  0  0  0  0  0  0  0
  -17.4520   -1.2340   30.0910 C   0  0  0  0  0  0  0  0  0  0  0  0
  -19.5910   -0.5900   29.2700 C   0  0  0  0  0  0  0  0  0  0  0  0
  -20.0310   -1.9240   29.4220 C   0  0  0  0  0  0  0  0  0  0  0  0
  -19.1960   -2.9020   29.9430 C   0  0  0  0  0  0  0  0  0  0  0  0
  -17.8650   -2.5580   30.2540 C   0  0  0  0  0  0  0  0  0  0  0  0
  -16.9780   -3.5030   30.7960 C   0  0  0  0  0  0  0  0  0  0  0  0
  -15.6080   -3.3990   30.6390 C   0  0  0  0  0  0  0  0  0  0  0  0
  -14.7340   -4.3260   31.2210 C   0  0  0  0  0  0  0  0  0  0  0  0
  -15.2550   -5.3490   31.9720 C   0  0  0  0  0  0  0  0  0  0  0  0
  -16.6150   -5.4630   32.1550 C   0  0  0  0  0  0  0  0  0  0  0  0
  -17.4730   -4.5140   31.5950 C   0  0  0  0  0  0  0  0  0  0  0  0
  -16.6190    9.5392   28.6175 H   0  0  0  0  0  0  0  0  0  0  0  0
  -16.1034    5.1165   28.3358 H   0  0  0  0  0  0  0  0  0  0  0  0
  -18.7126    8.4888   29.1161 H   0  0  0  0  0  0  0  0  0  0  0  0
  -20.3922    6.9093   30.1073 H   0  0  0  0  0  0  0  0  0  0  0  0
  -19.9070    4.4902   30.2452 H   0  0  0  0  0  0  0  0  0  0  0  0
  -16.6241    3.1001   29.0015 H   0  0  0  0  0  0  0  0  0  0  0  0
  -16.7229    1.0912   29.2432 H   0  0  0  0  0  0  0  0  0  0  0  0
  -16.4272   -0.9615   30.3833 H   0  0  0  0  0  0  0  0  0  0  0  0
  -20.2891    0.1794   28.9085 H   0  0  0  0  0  0  0  0  0  0  0  0
  -21.0547   -2.1922   29.1217 H   0  0  0  0  0  0  0  0  0  0  0  0
  -19.5651   -3.9247   30.1099 H   0  0  0  0  0  0  0  0  0  0  0  0
  -15.1958   -2.5705   30.0443 H   0  0  0  0  0  0  0  0  0  0  0  0
  -13.6471   -4.2352   31.0781 H   0  0  0  0  0  0  0  0  0  0  0  0
  -14.5798   -6.0853   32.4324 H   0  0  0  0  0  0  0  0  0  0  0  0
  -17.0245   -6.2992   32.7407 H   0  0  0  0  0  0  0  0  0  0  0  0
  -18.5535   -4.5727   31.7925 H   0  0  0  0  0  0  0  0  0  0  0  0
  7  8  2  0
  7  6  1  0
 12 11  2  0
 17 16  2  0
 17 18  1  0
  8  9  1  0
 16 14  1  0
  6  4  2  0
 18 19  2  0
 11 10  1  0
 11 13  1  0
  9 10  1  0
  9  5  2  0
  4  5  1  0
  4  2  1  0
 14 13  1  0
 14 15  2  0
  1  2  2  0
  2  3  1  0
 19 15  1  0
 19 20  1  0
 25 20  1  0
 25 24  2  0
 20 21  2  0
 24 23  1  0
 21 22  1  0
 23 22  2  0
  3 26  1  0
  5 27  1  0
  6 28  1  0
  7 29  1  0
  8 30  1  0
 10 31  1  0
 13 32  1  0
 15 33  1  0
 16 34  1  0
 17 35  1  0
 18 36  1  0
 21 37  1  0
 22 38  1  0
 23 39  1  0
 24 40  1  0
 25 41  1  0
A    1
OAA
A    2
CAS
A    3
OAC
A    4
CAW
A    5
CAO
A    6
CAK
A    7
CAG
A    8
CAI
A    9
CAU
A   10
NAQ
A   11
CAT
A   12
OAB
A   13
NAR
A   14
CAV
A   15
CAP
A   16
CAJ
A   17
CAH
A   18
CAN
A   19
CAY
A   20
CAX
A   21
CAL
A   22
CAE
A   23
CAD
A   24
CAF
A   25
CAM
M  END
