5I29_67B_A_1701
     RDKit          3D

 39 41  0  0  0  0  0  0  0  0999 V2000
    7.9590   -7.5820   -3.2460 C   0  0  0  0  0  0  0  0  0  0  0  0
    7.0780   -6.7680   -1.0210 C   0  0  0  0  0  0  0  0  0  0  0  0
    8.1230   -8.7850   -0.0650 C   0  0  0  0  0  0  0  0  0  0  0  0
    7.6890   -8.1560   -4.4760 C   0  0  0  0  0  0  0  0  0  0  0  0
    5.6190   -7.6750   -2.7640 C   0  0  0  0  0  0  0  0  0  0  0  0
    3.9350   -8.5420   -4.4250 C   0  0  0  0  0  0  0  0  0  0  0  0
    6.4280   -8.4800   -4.8600 C   0  0  0  0  0  0  0  0  0  0  0  0
    3.0000   -8.9150   -3.4810 C   0  0  0  0  0  0  0  0  0  0  0  0
    0.7950   -9.4790   -2.6690 C   0  0  0  0  0  0  0  0  0  0  0  0
   -0.0220   -9.3040   -5.2270 O   0  0  0  0  0  0  0  0  0  0  0  0
    1.1640   -9.0900   -5.0060 C   0  0  0  0  0  0  0  0  0  0  0  0
    1.7140   -9.1740   -3.7660 N   0  0  0  0  0  0  0  0  0  0  0  0
    2.1140   -8.7460   -6.0480 C   0  0  0  0  0  0  0  0  0  0  0  0
    1.8780   -8.5530   -7.3620 N   0  0  0  0  0  0  0  0  0  0  0  0
    3.0690   -8.1340   -7.9340 C   0  0  0  0  0  0  0  0  0  0  0  0
    4.0740   -8.0440   -6.9940 C   0  0  0  0  0  0  0  0  0  0  0  0
    3.4480   -8.4440   -5.7500 C   0  0  0  0  0  0  0  0  0  0  0  0
    5.3600   -8.2580   -4.0170 C   0  0  0  0  0  0  0  0  0  0  0  0
    6.8970   -7.4020   -2.3590 C   0  0  0  0  0  0  0  0  0  0  0  0
    6.6000   -5.5770   -0.8730 O   0  0  0  0  0  0  0  0  0  0  0  0
    7.6840   -7.3700   -0.0150 N   0  0  0  0  0  0  0  0  0  0  0  0
    7.7690   -6.7240    1.2690 C   0  0  0  0  0  0  0  0  0  0  0  0
    8.9806   -7.2767   -2.9756 H   0  0  0  0  0  0  0  0  0  0  0  0
    8.2420   -9.1684    0.9591 H   0  0  0  0  0  0  0  0  0  0  0  0
    7.3686   -9.3844   -0.5956 H   0  0  0  0  0  0  0  0  0  0  0  0
    9.0842   -8.8522   -0.5956 H   0  0  0  0  0  0  0  0  0  0  0  0
    8.5231   -8.3561   -5.1646 H   0  0  0  0  0  0  0  0  0  0  0  0
    4.7783   -7.4339   -2.0968 H   0  0  0  0  0  0  0  0  0  0  0  0
    6.2569   -8.9234   -5.8520 H   0  0  0  0  0  0  0  0  0  0  0  0
    3.3274   -9.0053   -2.4347 H   0  0  0  0  0  0  0  0  0  0  0  0
    1.3027   -9.3105   -1.7078 H   0  0  0  0  0  0  0  0  0  0  0  0
   -0.0872   -8.8255   -2.7373 H   0  0  0  0  0  0  0  0  0  0  0  0
    0.4786  -10.5303   -2.7373 H   0  0  0  0  0  0  0  0  0  0  0  0
    0.9810   -8.6911   -7.8490 H   0  0  0  0  0  0  0  0  0  0  0  0
    3.1963   -7.9027   -9.0018 H   0  0  0  0  0  0  0  0  0  0  0  0
    5.1182   -7.7370   -7.1532 H   0  0  0  0  0  0  0  0  0  0  0  0
    7.6700   -7.4764    2.0653 H   0  0  0  0  0  0  0  0  0  0  0  0
    8.7414   -6.2182    1.3613 H   0  0  0  0  0  0  0  0  0  0  0  0
    6.9605   -5.9839    1.3613 H   0  0  0  0  0  0  0  0  0  0  0  0
 15 14  1  0
 15 16  2  0
 14 13  1  0
 16 17  1  0
 13 17  2  0
 13 11  1  0
 17  6  1  0
 10 11  2  0
 11 12  1  0
  7  4  1  0
  7 18  2  0
  4  1  2  0
  6 18  1  0
  6  8  2  0
 18  5  1  0
 12  8  1  0
 12  9  1  0
  1 19  1  0
  5 19  2  0
 19  2  1  0
  2 20  2  0
  2 21  1  0
  3 21  1  0
 21 22  1  0
  1 23  1  0
  3 24  1  0
  3 25  1  0
  3 26  1  0
  4 27  1  0
  5 28  1  0
  7 29  1  0
  8 30  1  0
  9 31  1  0
  9 32  1  0
  9 33  1  0
 14 34  1  0
 15 35  1  0
 16 36  1  0
 22 37  1  0
 22 38  1  0
 22 39  1  0
A    1
C4
A    2
C2
A    3
C1
A    4
C5
A    5
C8
A    6
C9
A    7
C6
A    8
C10
A    9
C11
A   10
O1
A   11
C12
A   12
N1
A   13
C13
A   14
N2
A   15
C16
A   16
C15
A   17
C14
A   18
C7
A   19
C3
A   20
O
A   21
N
A   22
C
M  END
