5I7Y_69G_A_201
     RDKit          3D

 46 48  0  0  0  0  0  0  0  0999 V2000
  -19.2420    3.2350    9.7250 C   0  0  0  0  0  0  0  0  0  0  0  0
  -19.1040    4.7130   11.6390 C   0  0  0  0  0  0  0  0  0  0  0  0
  -17.3190    4.6930   10.0650 C   0  0  0  0  0  0  0  0  0  0  0  0
  -16.5930    5.6240   10.7410 C   0  0  0  0  0  0  0  0  0  0  0  0
  -17.1710    6.1580   11.9860 C   0  0  0  0  0  0  0  0  0  0  0  0
  -16.7530    7.1080   12.9380 C   0  0  0  0  0  0  0  0  0  0  0  0
  -17.7210    7.1880   13.8750 C   0  0  0  0  0  0  0  0  0  0  0  0
  -18.4290    5.6840   12.4000 C   0  0  0  0  0  0  0  0  0  0  0  0
  -20.1120    3.8940    8.6800 C   0  0  0  0  0  0  0  0  0  0  0  0
  -21.1290    5.8340    7.5980 C   0  0  0  0  0  0  0  0  0  0  0  0
  -20.2530    5.1960    8.6440 C   0  0  0  0  0  0  0  0  0  0  0  0
  -18.5320    4.2440   10.5090 N   0  0  0  0  0  0  0  0  0  0  0  0
  -18.7380    6.3370   13.5700 N   0  0  0  0  0  0  0  0  0  0  0  0
  -20.1970    4.2910   12.0020 O   0  0  0  0  0  0  0  0  0  0  0  0
  -15.2800    6.1050   10.2160 C   0  0  0  0  0  0  0  0  0  0  0  0
  -14.3730    5.1960    9.6670 C   0  0  0  0  0  0  0  0  0  0  0  0
  -13.1560    5.6440    9.1770 C   0  0  0  0  0  0  0  0  0  0  0  0
  -12.8340    6.9870    9.2060 C   0  0  0  0  0  0  0  0  0  0  0  0
  -13.7260    7.9130    9.7490 C   0  0  0  0  0  0  0  0  0  0  0  0
  -14.9550    7.4620   10.2400 C   0  0  0  0  0  0  0  0  0  0  0  0
  -13.3750    9.3570    9.7970 C   0  0  0  0  0  0  0  0  0  0  0  0
  -13.1680    9.9830    8.7760 O   0  0  0  0  0  0  0  0  0  0  0  0
  -13.2570    9.9970   10.9810 N   0  0  0  0  0  0  0  0  0  0  0  0
  -12.9010   11.4170   11.0000 C   0  0  0  0  0  0  0  0  0  0  0  0
  -13.4790    9.2970   12.2500 C   0  0  0  0  0  0  0  0  0  0  0  0
  -18.5100    2.5818    9.2274 H   0  0  0  0  0  0  0  0  0  0  0  0
  -19.8801    2.6444   10.3988 H   0  0  0  0  0  0  0  0  0  0  0  0
  -16.9152    4.2862    9.1261 H   0  0  0  0  0  0  0  0  0  0  0  0
  -15.8127    7.6785   12.9210 H   0  0  0  0  0  0  0  0  0  0  0  0
  -17.6921    7.8452   14.7566 H   0  0  0  0  0  0  0  0  0  0  0  0
  -20.6345    3.2715    7.9387 H   0  0  0  0  0  0  0  0  0  0  0  0
  -21.9244    6.4133    8.0896 H   0  0  0  0  0  0  0  0  0  0  0  0
  -20.5224    6.5033    6.9703 H   0  0  0  0  0  0  0  0  0  0  0  0
  -21.5799    5.0513    6.9703 H   0  0  0  0  0  0  0  0  0  0  0  0
  -19.7302    5.8249    9.3797 H   0  0  0  0  0  0  0  0  0  0  0  0
  -19.5965    6.2041   14.1234 H   0  0  0  0  0  0  0  0  0  0  0  0
  -14.6239    4.1259    9.6234 H   0  0  0  0  0  0  0  0  0  0  0  0
  -12.4385    4.9217    8.7603 H   0  0  0  0  0  0  0  0  0  0  0  0
  -11.8705    7.3281    8.7994 H   0  0  0  0  0  0  0  0  0  0  0  0
  -15.6746    8.1857   10.6503 H   0  0  0  0  0  0  0  0  0  0  0  0
  -12.8151   11.7596   12.0418 H   0  0  0  0  0  0  0  0  0  0  0  0
  -11.9390   11.5607   10.4863 H   0  0  0  0  0  0  0  0  0  0  0  0
  -13.6814   11.9976   10.4863 H   0  0  0  0  0  0  0  0  0  0  0  0
  -13.2632    9.9776   13.0868 H   0  0  0  0  0  0  0  0  0  0  0  0
  -14.5263    8.9656   12.3076 H   0  0  0  0  0  0  0  0  0  0  0  0
  -12.8141    8.4226   12.3076 H   0  0  0  0  0  0  0  0  0  0  0  0
 24 23  1  0
 23 25  1  0
 23 21  1  0
 22 21  2  0
 21 19  1  0
  7 13  1  0
  7  6  2  0
 13  8  1  0
  6  5  1  0
 20 19  2  0
 20 15  1  0
 19 18  1  0
  8  5  2  0
  8  2  1  0
  5  4  1  0
 14  2  2  0
  2 12  1  0
  4 15  1  0
  4  3  2  0
 15 16  2  0
 18 17  2  0
 12  3  1  0
 12  1  1  0
 16 17  1  0
  1  9  1  0
  9 11  2  0
 11 10  1  0
  1 26  1  0
  1 27  1  0
  3 28  1  0
  6 29  1  0
  7 30  1  0
  9 31  1  0
 10 32  1  0
 10 33  1  0
 10 34  1  0
 11 35  1  0
 13 36  1  0
 16 37  1  0
 17 38  1  0
 18 39  1  0
 20 40  1  0
 24 41  1  0
 24 42  1  0
 24 43  1  0
 25 44  1  0
 25 45  1  0
 25 46  1  0
A    1
C4
A    2
C14
A    3
C6
A    4
C7
A    5
C8
A    6
C9
A    7
C10
A    8
C13
A    9
C3
A   10
C1
A   11
C2
A   12
N5
A   13
N11
A   14
O15
A   15
C16
A   16
C17
A   17
C18
A   18
C19
A   19
C20
A   20
C21
A   21
C22
A   22
O23
A   23
N24
A   24
C25
A   25
C26
M  END
