5I83_68Y_A_1202
     RDKit          3D

 42 44  0  0  0  0  0  0  0  0999 V2000
    2.0480   -2.0670    3.3240 C   0  0  0  0  0  0  0  0  0  0  0  0
    3.4390   -2.1750    3.4300 C   0  0  0  0  0  0  0  0  0  0  0  0
    4.1590   -2.1160    2.2450 N   0  0  0  0  0  0  0  0  0  0  0  0
    5.3850   -1.2900    2.0350 C   0  0  0  0  0  0  0  0  0  0  0  0
    6.4050   -2.0110    1.1580 C   0  0  0  0  0  0  0  0  0  0  0  0
    6.0410   -0.8850    3.3720 C   0  0  0  0  0  0  0  0  0  0  0  0
    6.3570   -2.0440    4.1260 C   0  0  0  0  0  0  0  0  0  0  0  0
    7.5070   -2.4760    4.2760 O   0  0  0  0  0  0  0  0  0  0  0  0
    5.3780   -2.6940    4.8090 N   0  0  0  0  0  0  0  0  0  0  0  0
    4.0100   -2.4260    4.6440 C   0  0  0  0  0  0  0  0  0  0  0  0
    3.2340   -2.5360    5.7840 C   0  0  0  0  0  0  0  0  0  0  0  0
    1.8440   -2.5090    5.6780 C   0  0  0  0  0  0  0  0  0  0  0  0
    1.2400   -2.3010    4.4410 C   0  0  0  0  0  0  0  0  0  0  0  0
   -0.1380   -2.2200    4.3990 O   0  0  0  0  0  0  0  0  0  0  0  0
   -0.8070   -2.3890    3.1410 C   0  0  0  0  0  0  0  0  0  0  0  0
   -2.2870   -2.1090    3.3900 C   0  0  0  0  0  0  0  0  0  0  0  0
   -0.6990   -3.6960    2.5780 C   0  0  0  0  0  0  0  0  0  0  0  0
   -0.1460   -4.8140    3.2130 C   0  0  0  0  0  0  0  0  0  0  0  0
   -0.1600   -6.0620    2.5490 C   0  0  0  0  0  0  0  0  0  0  0  0
   -0.6440   -6.1630    1.2500 C   0  0  0  0  0  0  0  0  0  0  0  0
   -1.1630   -5.0360    0.6190 C   0  0  0  0  0  0  0  0  0  0  0  0
   -1.1930   -3.8280    1.2850 C   0  0  0  0  0  0  0  0  0  0  0  0
    1.5896   -1.7977    2.3610 H   0  0  0  0  0  0  0  0  0  0  0  0
    3.8234   -2.6829    1.4533 H   0  0  0  0  0  0  0  0  0  0  0  0
    5.0589   -0.3759    1.5172 H   0  0  0  0  0  0  0  0  0  0  0  0
    7.1367   -2.5282    1.7961 H   0  0  0  0  0  0  0  0  0  0  0  0
    5.8883   -2.7456    0.5229 H   0  0  0  0  0  0  0  0  0  0  0  0
    6.9252   -1.2788    0.5229 H   0  0  0  0  0  0  0  0  0  0  0  0
    6.9624   -0.3194    3.1694 H   0  0  0  0  0  0  0  0  0  0  0  0
    5.3394   -0.2608    3.9448 H   0  0  0  0  0  0  0  0  0  0  0  0
    5.6545   -3.4218    5.4834 H   0  0  0  0  0  0  0  0  0  0  0  0
    3.7112   -2.6442    6.7692 H   0  0  0  0  0  0  0  0  0  0  0  0
    1.2228   -2.6525    6.5744 H   0  0  0  0  0  0  0  0  0  0  0  0
   -0.3313   -1.7050    2.4228 H   0  0  0  0  0  0  0  0  0  0  0  0
   -2.4762   -2.0732    4.4730 H   0  0  0  0  0  0  0  0  0  0  0  0
   -2.5586   -1.1435    2.9382 H   0  0  0  0  0  0  0  0  0  0  0  0
   -2.8925   -2.9085    2.9382 H   0  0  0  0  0  0  0  0  0  0  0  0
    0.2943   -4.7227    4.2169 H   0  0  0  0  0  0  0  0  0  0  0  0
    0.2146   -6.9590    3.0638 H   0  0  0  0  0  0  0  0  0  0  0  0
   -0.6171   -7.1284    0.7234 H   0  0  0  0  0  0  0  0  0  0  0  0
   -1.5485   -5.1083   -0.4087 H   0  0  0  0  0  0  0  0  0  0  0  0
   -1.6182   -2.9477    0.7807 H   0  0  0  0  0  0  0  0  0  0  0  0
 21 20  2  0
 21 22  1  0
  5  4  1  0
 20 19  1  0
 22 17  2  0
  4  3  1  0
  4  6  1  0
  3  2  1  0
 19 18  2  0
 17 15  1  0
 17 18  1  0
 15 16  1  0
 15 14  1  0
  1  2  2  0
  1 13  1  0
  6  7  1  0
  2 10  1  0
  7  8  2  0
  7  9  1  0
 14 13  1  0
 13 12  2  0
 10  9  1  0
 10 11  2  0
 12 11  1  0
  1 23  1  0
  3 24  1  0
  4 25  1  0
  5 26  1  0
  5 27  1  0
  5 28  1  0
  6 29  1  0
  6 30  1  0
  9 31  1  0
 11 32  1  0
 12 33  1  0
 15 34  1  0
 16 35  1  0
 16 36  1  0
 16 37  1  0
 18 38  1  0
 19 39  1  0
 20 40  1  0
 21 41  1  0
 22 42  1  0
A    1
CAJ
A    2
CAF
A    3
NAE
A    4
CAD
A    5
CAH
A    6
CAC
A    7
CAB
A    8
OAI
A    9
NAA
A   10
CAG
A   11
CAM
A   12
CAL
A   13
CAK
A   14
OAN
A   15
CAO
A   16
CAP
A   17
CAQ
A   18
CAR
A   19
CAS
A   20
CAT
A   21
CAU
A   22
CAV
M  END
