5I86_69A_A_1203
     RDKit          3D

 42 44  0  0  0  0  0  0  0  0999 V2000
  -53.1300    4.2930  -10.2470 C   0  0  0  0  0  0  0  0  0  0  0  0
  -53.9900    5.3700  -10.3950 C   0  0  0  0  0  0  0  0  0  0  0  0
  -55.3510    5.1160  -10.5570 C   0  0  0  0  0  0  0  0  0  0  0  0
  -55.8230    3.8040  -10.4910 C   0  0  0  0  0  0  0  0  0  0  0  0
  -57.1910    3.6060  -10.7990 N   0  0  0  0  0  0  0  0  0  0  0  0
  -58.0390    2.7540  -10.1340 C   0  0  0  0  0  0  0  0  0  0  0  0
  -59.1920    2.5980  -10.5870 O   0  0  0  0  0  0  0  0  0  0  0  0
  -57.5610    2.1250   -8.9440 C   0  0  0  0  0  0  0  0  0  0  0  0
  -56.5670    0.9950   -9.2430 C   0  0  0  0  0  0  0  0  0  0  0  0
  -57.2930   -0.2130   -9.7890 C   0  0  0  0  0  0  0  0  0  0  0  0
  -55.4510    1.4350  -10.1570 N   0  0  0  0  0  0  0  0  0  0  0  0
  -54.9680    2.7420  -10.2600 C   0  0  0  0  0  0  0  0  0  0  0  0
  -53.5740    2.9770  -10.1790 C   0  0  0  0  0  0  0  0  0  0  0  0
  -52.6210    1.9510  -10.1630 C   0  0  0  0  0  0  0  0  0  0  0  0
  -52.8950    0.7980   -9.8350 O   0  0  0  0  0  0  0  0  0  0  0  0
  -51.4240    2.2680  -10.7100 N   0  0  0  0  0  0  0  0  0  0  0  0
  -50.3630    1.2600  -10.8840 C   0  0  0  0  0  0  0  0  0  0  0  0
  -50.4860    0.4310  -12.0290 C   0  0  0  0  0  0  0  0  0  0  0  0
  -49.6460   -0.6730  -12.1050 C   0  0  0  0  0  0  0  0  0  0  0  0
  -49.6380   -1.5150  -13.2110 C   0  0  0  0  0  0  0  0  0  0  0  0
  -50.5950   -1.3420  -14.1950 C   0  0  0  0  0  0  0  0  0  0  0  0
  -51.4270   -0.2320  -14.1490 C   0  0  0  0  0  0  0  0  0  0  0  0
  -51.4020    0.6300  -13.0510 C   0  0  0  0  0  0  0  0  0  0  0  0
  -52.0494    4.4878  -10.1805 H   0  0  0  0  0  0  0  0  0  0  0  0
  -53.6073    6.4012  -10.3848 H   0  0  0  0  0  0  0  0  0  0  0  0
  -56.0502    5.9461  -10.7361 H   0  0  0  0  0  0  0  0  0  0  0  0
  -57.5818    4.1444  -11.5853 H   0  0  0  0  0  0  0  0  0  0  0  0
  -58.4181    1.7067   -8.3960 H   0  0  0  0  0  0  0  0  0  0  0  0
  -57.0365    2.8862   -8.3478 H   0  0  0  0  0  0  0  0  0  0  0  0
  -56.0895    0.7134   -8.2929 H   0  0  0  0  0  0  0  0  0  0  0  0
  -57.6621   -0.8272   -8.9544 H   0  0  0  0  0  0  0  0  0  0  0  0
  -58.1424    0.1172  -10.4050 H   0  0  0  0  0  0  0  0  0  0  0  0
  -56.6028   -0.8082  -10.4050 H   0  0  0  0  0  0  0  0  0  0  0  0
  -55.0113    0.7172  -10.7506 H   0  0  0  0  0  0  0  0  0  0  0  0
  -51.2505    3.2373  -11.0120 H   0  0  0  0  0  0  0  0  0  0  0  0
  -49.4011    1.7894  -10.9514 H   0  0  0  0  0  0  0  0  0  0  0  0
  -50.4414    0.5881  -10.0166 H   0  0  0  0  0  0  0  0  0  0  0  0
  -48.9678   -0.8869  -11.2658 H   0  0  0  0  0  0  0  0  0  0  0  0
  -48.8812   -2.3080  -13.3026 H   0  0  0  0  0  0  0  0  0  0  0  0
  -50.6956   -2.0776  -15.0066 H   0  0  0  0  0  0  0  0  0  0  0  0
  -52.1123   -0.0296  -14.9853 H   0  0  0  0  0  0  0  0  0  0  0  0
  -52.1109    1.4694  -12.9964 H   0  0  0  0  0  0  0  0  0  0  0  0
  8  9  1  0
  8  6  1  0
  9 10  1  0
  9 11  1  0
 15 14  2  0
 13 14  1  0
 13  1  2  0
 13 12  1  0
 14 16  1  0
  6  7  2  0
  6  5  1  0
  1  2  1  0
 11 12  1  0
 12  4  2  0
  2  3  2  0
  4  3  1  0
  4  5  1  0
 16 17  1  0
 17 18  1  0
 18 19  2  0
 18 23  1  0
 19 20  1  0
 23 22  2  0
 20 21  2  0
 22 21  1  0
  1 24  1  0
  2 25  1  0
  3 26  1  0
  5 27  1  0
  8 28  1  0
  8 29  1  0
  9 30  1  0
 10 31  1  0
 10 32  1  0
 10 33  1  0
 11 34  1  0
 16 35  1  0
 17 36  1  0
 17 37  1  0
 19 38  1  0
 20 39  1  0
 21 40  1  0
 22 41  1  0
 23 42  1  0
A    1
CAI
A    2
CAJ
A    3
CAK
A    4
CAE
A    5
NAF
A    6
CAG
A    7
OAM
A    8
CAA
A    9
CAB
A   10
CAL
A   11
NAC
A   12
CAD
A   13
CAH
A   14
CAN
A   15
OAP
A   16
NAO
A   17
CAQ
A   18
CAR
A   19
CAS
A   20
CAT
A   21
CAU
A   22
CAV
A   23
CAW
M  END
