5I89_69B_A_1203
     RDKit          3D

 48 52  0  0  0  0  0  0  0  0999 V2000
  -23.7190   -0.0350   21.5660 C   0  0  0  0  0  0  0  0  0  0  0  0
  -24.0830   -1.2350   22.4170 C   0  0  0  0  0  0  0  0  0  0  0  0
  -22.8930   -0.3640   22.8000 C   0  0  0  0  0  0  0  0  0  0  0  0
  -21.4600   -0.8740   22.5770 C   0  0  0  0  0  0  0  0  0  0  0  0
  -20.7690   -1.7750   23.3250 C   0  0  0  0  0  0  0  0  0  0  0  0
  -21.0630   -2.5260   24.4230 C   0  0  0  0  0  0  0  0  0  0  0  0
  -20.6740   -0.3350   21.6530 N   0  0  0  0  0  0  0  0  0  0  0  0
  -19.5280   -0.9430   21.7430 N   0  0  0  0  0  0  0  0  0  0  0  0
  -18.3690   -0.5420   20.9180 C   0  0  0  0  0  0  0  0  0  0  0  0
  -19.5310   -1.8110   22.7820 C   0  0  0  0  0  0  0  0  0  0  0  0
  -18.5700   -2.6430   23.2600 C   0  0  0  0  0  0  0  0  0  0  0  0
  -18.8600   -3.4850   24.3390 C   0  0  0  0  0  0  0  0  0  0  0  0
  -20.1090   -3.4150   24.9780 C   0  0  0  0  0  0  0  0  0  0  0  0
  -20.4080   -4.1610   26.1640 C   0  0  0  0  0  0  0  0  0  0  0  0
  -20.4630   -5.5730   26.2030 C   0  0  0  0  0  0  0  0  0  0  0  0
  -20.2270   -6.2860   25.0120 N   0  0  0  0  0  0  0  0  0  0  0  0
  -19.1890   -7.3330   24.9070 C   0  0  0  0  0  0  0  0  0  0  0  0
  -19.5260   -8.2620   23.7490 C   0  0  0  0  0  0  0  0  0  0  0  0
  -19.0580   -8.1250   26.2370 C   0  0  0  0  0  0  0  0  0  0  0  0
  -20.3340   -8.5320   26.7290 C   0  0  0  0  0  0  0  0  0  0  0  0
  -20.7570   -9.6960   26.6170 O   0  0  0  0  0  0  0  0  0  0  0  0
  -21.1220   -7.5990   27.3740 N   0  0  0  0  0  0  0  0  0  0  0  0
  -20.8620   -6.2240   27.3620 C   0  0  0  0  0  0  0  0  0  0  0  0
  -21.1900   -5.5110   28.5200 C   0  0  0  0  0  0  0  0  0  0  0  0
  -21.0840   -4.1240   28.5180 C   0  0  0  0  0  0  0  0  0  0  0  0
  -20.7400   -3.4680   27.3370 C   0  0  0  0  0  0  0  0  0  0  0  0
  -23.2912   -0.1821   20.5633 H   0  0  0  0  0  0  0  0  0  0  0  0
  -24.2578    0.8542   21.2067 H   0  0  0  0  0  0  0  0  0  0  0  0
  -24.9966   -1.2179   23.0294 H   0  0  0  0  0  0  0  0  0  0  0  0
  -24.2314   -2.3079   22.2251 H   0  0  0  0  0  0  0  0  0  0  0  0
  -22.5944    0.1595   23.7202 H   0  0  0  0  0  0  0  0  0  0  0  0
  -22.0570   -2.4410   24.8863 H   0  0  0  0  0  0  0  0  0  0  0  0
  -17.5344   -0.2533   21.5739 H   0  0  0  0  0  0  0  0  0  0  0  0
  -18.0613   -1.3859   20.2831 H   0  0  0  0  0  0  0  0  0  0  0  0
  -18.6487    0.3116   20.2831 H   0  0  0  0  0  0  0  0  0  0  0  0
  -17.5701   -2.6548   22.8018 H   0  0  0  0  0  0  0  0  0  0  0  0
  -18.1061   -4.2056   24.6888 H   0  0  0  0  0  0  0  0  0  0  0  0
  -20.7990   -6.0699   24.1831 H   0  0  0  0  0  0  0  0  0  0  0  0
  -18.2167   -6.8561   24.7141 H   0  0  0  0  0  0  0  0  0  0  0  0
  -19.8762   -9.2273   24.1433 H   0  0  0  0  0  0  0  0  0  0  0  0
  -20.3170   -7.8087   23.1335 H   0  0  0  0  0  0  0  0  0  0  0  0
  -18.6284   -8.4212   23.1335 H   0  0  0  0  0  0  0  0  0  0  0  0
  -18.4404   -9.0183   26.0621 H   0  0  0  0  0  0  0  0  0  0  0  0
  -18.5917   -7.4683   26.9862 H   0  0  0  0  0  0  0  0  0  0  0  0
  -21.9466   -7.9337   27.8925 H   0  0  0  0  0  0  0  0  0  0  0  0
  -21.5281   -6.0414   29.4224 H   0  0  0  0  0  0  0  0  0  0  0  0
  -21.2696   -3.5510   29.4384 H   0  0  0  0  0  0  0  0  0  0  0  0
  -20.7286   -2.3681   27.3248 H   0  0  0  0  0  0  0  0  0  0  0  0
  9  8  1  0
  1  2  1  0
  1  3  1  0
  7  8  1  0
  7  4  2  0
  8 10  1  0
  2  3  1  0
  4  3  1  0
  4  5  1  0
 10 11  2  0
 10  5  1  0
 11 12  1  0
  5  6  2  0
 18 17  1  0
 12 13  2  0
  6 13  1  0
 17 16  1  0
 17 19  1  0
 13 14  1  0
 16 15  1  0
 14 15  1  0
 14 26  2  0
 15 23  2  0
 19 20  1  0
 21 20  2  0
 20 22  1  0
 26 25  1  0
 23 22  1  0
 23 24  1  0
 25 24  2  0
  1 27  1  0
  1 28  1  0
  2 29  1  0
  2 30  1  0
  3 31  1  0
  6 32  1  0
  9 33  1  0
  9 34  1  0
  9 35  1  0
 11 36  1  0
 12 37  1  0
 16 38  1  0
 17 39  1  0
 18 40  1  0
 18 41  1  0
 18 42  1  0
 19 43  1  0
 19 44  1  0
 22 45  1  0
 24 46  1  0
 25 47  1  0
 26 48  1  0
A    1
CAY
A    2
CAZ
A    3
CAW
A    4
CAV
A    5
CAR
A    6
CAS
A    7
NAU
A    8
NAT
A    9
CAX
A   10
CAQ
A   11
CAP
A   12
CAO
A   13
CAN
A   14
CAJ
A   15
CAF
A   16
NAE
A   17
CAD
A   18
CAI
A   19
CAC
A   20
CAB
A   21
OAH
A   22
NAA
A   23
CAG
A   24
CAM
A   25
CAL
A   26
CAK
M  END
