5I8A_69C_A_801
     RDKit          3D

 38 41  0  0  0  0  0  0  0  0999 V2000
   24.7870  -33.2730   -1.6370 S   0  0  0  0  0  0  0  0  0  0  0  0
   27.6530  -33.6550   -4.5090 C   0  0  0  0  0  0  0  0  0  0  0  0
   26.3450  -33.2500   -4.0090 C   0  0  0  0  0  0  0  0  0  0  0  0
   26.2060  -33.4800   -2.6510 C   0  0  0  0  0  0  0  0  0  0  0  0
   29.8710  -34.5550   -3.5500 C   0  0  0  0  0  0  0  0  0  0  0  0
   31.9880  -34.9950   -4.1620 C   0  0  0  0  0  0  0  0  0  0  0  0
   25.2710  -33.8740   -0.0130 C   0  0  0  0  0  0  0  0  0  0  0  0
   27.0160  -32.8480   -8.2250 C   0  0  0  0  0  0  0  0  0  0  0  0
   26.3700  -33.4330   -9.3100 C   0  0  0  0  0  0  0  0  0  0  0  0
   26.7420  -33.1200  -10.6100 C   0  0  0  0  0  0  0  0  0  0  0  0
   28.3840  -31.5960   -9.7740 C   0  0  0  0  0  0  0  0  0  0  0  0
   24.5020  -31.7810   -4.3680 O   0  0  0  0  0  0  0  0  0  0  0  0
   25.4250  -32.4630   -4.8160 C   0  0  0  0  0  0  0  0  0  0  0  0
   25.7160  -32.5000   -6.1380 N   0  0  0  0  0  0  0  0  0  0  0  0
   27.6740  -34.1480   -1.9780 S   0  0  0  0  0  0  0  0  0  0  0  0
   28.4690  -34.1400   -3.5110 C   0  0  0  0  0  0  0  0  0  0  0  0
   30.5330  -35.0060   -2.4740 N   0  0  0  0  0  0  0  0  0  0  0  0
   31.8030  -35.2610   -2.8640 N   0  0  0  0  0  0  0  0  0  0  0  0
   30.7970  -34.5420   -4.6620 C   0  0  0  0  0  0  0  0  0  0  0  0
   27.9870  -33.5020   -5.9710 C   0  0  0  0  0  0  0  0  0  0  0  0
   26.7240  -33.3290   -6.8160 C   0  0  0  0  0  0  0  0  0  0  0  0
   28.0110  -31.9060   -8.4720 C   0  0  0  0  0  0  0  0  0  0  0  0
   27.7570  -32.2110  -10.8430 C   0  0  0  0  0  0  0  0  0  0  0  0
   32.9254  -35.1178   -4.7244 H   0  0  0  0  0  0  0  0  0  0  0  0
   24.7822  -33.2670    0.7633 H   0  0  0  0  0  0  0  0  0  0  0  0
   24.9640  -34.9247    0.0956 H   0  0  0  0  0  0  0  0  0  0  0  0
   26.3630  -33.7980    0.0956 H   0  0  0  0  0  0  0  0  0  0  0  0
   25.5555  -34.1514   -9.1354 H   0  0  0  0  0  0  0  0  0  0  0  0
   26.2276  -33.5967  -11.4574 H   0  0  0  0  0  0  0  0  0  0  0  0
   29.1804  -30.8592   -9.9555 H   0  0  0  0  0  0  0  0  0  0  0  0
   25.1654  -31.8723   -6.7410 H   0  0  0  0  0  0  0  0  0  0  0  0
   32.5388  -35.6170   -2.2372 H   0  0  0  0  0  0  0  0  0  0  0  0
   30.5870  -34.2319   -5.6963 H   0  0  0  0  0  0  0  0  0  0  0  0
   28.5252  -34.3990   -6.3111 H   0  0  0  0  0  0  0  0  0  0  0  0
   28.6105  -32.6039   -6.0919 H   0  0  0  0  0  0  0  0  0  0  0  0
   26.2886  -34.3330   -6.9269 H   0  0  0  0  0  0  0  0  0  0  0  0
   28.5063  -31.4026   -7.6287 H   0  0  0  0  0  0  0  0  0  0  0  0
   28.0646  -31.9778  -11.8731 H   0  0  0  0  0  0  0  0  0  0  0  0
 23 10  1  0
 23 11  2  0
 10  9  2  0
 11 22  1  0
  9  8  1  0
 22  8  2  0
  8 21  1  0
 21 14  1  0
 21 20  1  0
 14 13  1  0
 20  2  1  0
 13 12  2  0
 13  3  1  0
 19  6  2  0
 19  5  1  0
  2  3  1  0
  2 16  2  0
  6 18  1  0
  3  4  2  0
  5 16  1  0
  5 17  2  0
 16 15  1  0
 18 17  1  0
  4 15  1  0
  4  1  1  0
  1  7  1  0
  6 24  1  0
  7 25  1  0
  7 26  1  0
  7 27  1  0
  9 28  1  0
 10 29  1  0
 11 30  1  0
 14 31  1  0
 18 32  1  0
 19 33  1  0
 20 34  1  0
 20 35  1  0
 21 36  1  0
 22 37  1  0
 23 38  1  0
A    1
S1
A    2
C2
A    3
C3
A    4
C5
A    5
C7
A    6
C9
A    7
C10
A    8
C11
A    9
C12
A   10
C13
A   11
C15
A   12
O
A   13
C4
A   14
N
A   15
S
A   16
C6
A   17
N2
A   18
N1
A   19
C8
A   20
C1
A   21
C
A   22
C16
A   23
C14
M  END
