5I8B_69F_A_1404
     RDKit          3D

 49 52  0  0  0  0  0  0  0  0999 V2000
   26.5240   12.3280   14.7010 C   0  0  0  0  0  0  0  0  0  0  0  0
   26.3070   12.4370   13.2270 C   0  0  0  0  0  0  0  0  0  0  0  0
   30.7420   14.8730   13.8000 C   0  0  0  0  0  0  0  0  0  0  0  0
   28.3500   13.7320   13.0030 C   0  0  0  0  0  0  0  0  0  0  0  0
   28.6860   15.0090   12.5750 C   0  0  0  0  0  0  0  0  0  0  0  0
   29.8750   15.5830   12.9920 C   0  0  0  0  0  0  0  0  0  0  0  0
   30.4270   13.5740   14.2240 C   0  0  0  0  0  0  0  0  0  0  0  0
   29.2120   12.9840   13.8240 C   0  0  0  0  0  0  0  0  0  0  0  0
   27.2050    9.9600   14.6170 C   0  0  0  0  0  0  0  0  0  0  0  0
   27.6740   11.3660   14.9910 C   0  0  0  0  0  0  0  0  0  0  0  0
   25.3490   11.9340   12.6600 O   0  0  0  0  0  0  0  0  0  0  0  0
   27.1760   13.1510   12.5120 N   0  0  0  0  0  0  0  0  0  0  0  0
   28.9190   11.6700   14.2350 N   0  0  0  0  0  0  0  0  0  0  0  0
   31.4010   12.8540   15.0830 C   0  0  0  0  0  0  0  0  0  0  0  0
   31.1260   12.4870   16.4000 C   0  0  0  0  0  0  0  0  0  0  0  0
   32.0910   11.8220   17.1400 C   0  0  0  0  0  0  0  0  0  0  0  0
   33.3250   11.5140   16.5930 C   0  0  0  0  0  0  0  0  0  0  0  0
   33.6010   11.8710   15.2800 C   0  0  0  0  0  0  0  0  0  0  0  0
   32.6490   12.5470   14.5300 C   0  0  0  0  0  0  0  0  0  0  0  0
   34.8170   11.5630   14.7520 O   0  0  0  0  0  0  0  0  0  0  0  0
   35.0940   11.8670   13.3790 C   0  0  0  0  0  0  0  0  0  0  0  0
   36.5010   11.4050   13.0960 C   0  0  0  0  0  0  0  0  0  0  0  0
   37.4670   12.3080   12.6800 C   0  0  0  0  0  0  0  0  0  0  0  0
   38.7560   11.8710   12.4310 C   0  0  0  0  0  0  0  0  0  0  0  0
   39.0800   10.5360   12.6050 C   0  0  0  0  0  0  0  0  0  0  0  0
   38.1160    9.6360   13.0210 C   0  0  0  0  0  0  0  0  0  0  0  0
   36.8270   10.0720   13.2720 C   0  0  0  0  0  0  0  0  0  0  0  0
   26.7683   13.3205   15.1074 H   0  0  0  0  0  0  0  0  0  0  0  0
   25.6068   11.9464   15.1733 H   0  0  0  0  0  0  0  0  0  0  0  0
   31.6908   15.3322   14.1145 H   0  0  0  0  0  0  0  0  0  0  0  0
   28.0101   15.5629   11.9070 H   0  0  0  0  0  0  0  0  0  0  0  0
   30.1298   16.6064   12.6793 H   0  0  0  0  0  0  0  0  0  0  0  0
   27.0122    9.3820   15.5329 H   0  0  0  0  0  0  0  0  0  0  0  0
   26.2807   10.0273   14.0245 H   0  0  0  0  0  0  0  0  0  0  0  0
   27.9846    9.4589   14.0245 H   0  0  0  0  0  0  0  0  0  0  0  0
   27.9264   11.4627   16.0573 H   0  0  0  0  0  0  0  0  0  0  0  0
   26.9653   13.2866   11.5129 H   0  0  0  0  0  0  0  0  0  0  0  0
   29.5752   10.9088   14.0094 H   0  0  0  0  0  0  0  0  0  0  0  0
   30.1499   12.7237   16.8485 H   0  0  0  0  0  0  0  0  0  0  0  0
   31.8728   11.5342   18.1790 H   0  0  0  0  0  0  0  0  0  0  0  0
   34.0819   10.9898   17.1949 H   0  0  0  0  0  0  0  0  0  0  0  0
   32.8768   12.8430   13.4953 H   0  0  0  0  0  0  0  0  0  0  0  0
   35.0116   12.9506   13.2087 H   0  0  0  0  0  0  0  0  0  0  0  0
   34.3763   11.3634   12.7147 H   0  0  0  0  0  0  0  0  0  0  0  0
   37.2094   13.3693   12.5482 H   0  0  0  0  0  0  0  0  0  0  0  0
   39.5233   12.5840   12.0949 H   0  0  0  0  0  0  0  0  0  0  0  0
   40.1064   10.1907   12.4119 H   0  0  0  0  0  0  0  0  0  0  0  0
   38.3736    8.5747   13.1522 H   0  0  0  0  0  0  0  0  0  0  0  0
   36.0615    9.3588   13.6115 H   0  0  0  0  0  0  0  0  0  0  0  0
 24 25  1  0
 24 23  2  0
 12  4  1  0
 12  2  1  0
  5  6  1  0
  5  4  2  0
 25 26  2  0
 11  2  2  0
 23 22  1  0
  6  3  2  0
  4  8  1  0
 26 27  1  0
 22 27  2  0
 22 21  1  0
  2  1  1  0
 21 20  1  0
  3  7  1  0
  8  7  2  0
  8 13  1  0
  7 14  1  0
 13 10  1  0
 19 14  1  0
 19 18  2  0
  9 10  1  0
  1 10  1  0
 20 18  1  0
 14 15  2  0
 18 17  1  0
 15 16  1  0
 17 16  2  0
  1 28  1  0
  1 29  1  0
  3 30  1  0
  5 31  1  0
  6 32  1  0
  9 33  1  0
  9 34  1  0
  9 35  1  0
 10 36  1  0
 12 37  1  0
 13 38  1  0
 15 39  1  0
 16 40  1  0
 17 41  1  0
 19 42  1  0
 21 43  1  0
 21 44  1  0
 23 45  1  0
 24 46  1  0
 25 47  1  0
 26 48  1  0
 27 49  1  0
A    1
C4
A    2
C5
A    3
C11
A    4
C8
A    5
C9
A    6
C10
A    7
C12
A    8
C13
A    9
C1
A   10
C2
A   11
O6
A   12
N7
A   13
N14
A   14
C15
A   15
C16
A   16
C17
A   17
C18
A   18
C19
A   19
C20
A   20
O21
A   21
C22
A   22
C23
A   23
C24
A   24
C25
A   25
C26
A   26
C27
A   27
C28
M  END
