5I8G_69E_A_1404
     RDKit          3D

 51 55  0  0  0  0  0  0  0  0999 V2000
   26.5660   12.3470   14.6420 C   0  0  0  0  0  0  0  0  0  0  0  0
   26.3530   12.4300   13.1650 C   0  0  0  0  0  0  0  0  0  0  0  0
   30.8660   14.7020   13.7390 C   0  0  0  0  0  0  0  0  0  0  0  0
   28.4460   13.6390   12.9540 C   0  0  0  0  0  0  0  0  0  0  0  0
   28.8360   14.8920   12.4980 C   0  0  0  0  0  0  0  0  0  0  0  0
   30.0430   15.4290   12.9080 C   0  0  0  0  0  0  0  0  0  0  0  0
   30.4960   13.4290   14.1880 C   0  0  0  0  0  0  0  0  0  0  0  0
   29.2650   12.8800   13.8050 C   0  0  0  0  0  0  0  0  0  0  0  0
   27.1630    9.9360   14.5940 C   0  0  0  0  0  0  0  0  0  0  0  0
   27.6600   11.3340   14.9610 C   0  0  0  0  0  0  0  0  0  0  0  0
   25.3880   11.9460   12.6080 O   0  0  0  0  0  0  0  0  0  0  0  0
   27.2530   13.0970   12.4550 N   0  0  0  0  0  0  0  0  0  0  0  0
   28.9320   11.5880   14.2400 N   0  0  0  0  0  0  0  0  0  0  0  0
   31.4690   12.7470   15.0810 C   0  0  0  0  0  0  0  0  0  0  0  0
   31.1990   12.5750   16.4470 C   0  0  0  0  0  0  0  0  0  0  0  0
   32.1310   11.9920   17.2560 C   0  0  0  0  0  0  0  0  0  0  0  0
   33.3440   11.5490   16.7250 C   0  0  0  0  0  0  0  0  0  0  0  0
   33.6330   11.7040   15.3620 C   0  0  0  0  0  0  0  0  0  0  0  0
   32.6830   12.3170   14.5400 C   0  0  0  0  0  0  0  0  0  0  0  0
   34.9840   11.1320   15.1680 C   0  0  0  0  0  0  0  0  0  0  0  0
   35.4000   10.6860   16.3190 N   0  0  0  0  0  0  0  0  0  0  0  0
   34.4340   10.9300   17.2840 N   0  0  0  0  0  0  0  0  0  0  0  0
   34.5660   10.5860   18.6930 C   0  0  0  0  0  0  0  0  0  0  0  0
   35.7620   11.0060   13.9170 C   0  0  0  0  0  0  0  0  0  0  0  0
   36.9500   10.2580   13.7840 C   0  0  0  0  0  0  0  0  0  0  0  0
   37.3330   10.3530   12.5430 N   0  0  0  0  0  0  0  0  0  0  0  0
   36.3990   11.1350   11.8580 N   0  0  0  0  0  0  0  0  0  0  0  0
   35.4340   11.5230   12.7080 C   0  0  0  0  0  0  0  0  0  0  0  0
   36.4410   11.4850   10.4480 C   0  0  0  0  0  0  0  0  0  0  0  0
   26.8641   13.3353   15.0221 H   0  0  0  0  0  0  0  0  0  0  0  0
   25.6295   12.0264   15.1219 H   0  0  0  0  0  0  0  0  0  0  0  0
   31.8295   15.1285   14.0549 H   0  0  0  0  0  0  0  0  0  0  0  0
   28.1864   15.4558   11.8124 H   0  0  0  0  0  0  0  0  0  0  0  0
   30.3441   16.4322   12.5718 H   0  0  0  0  0  0  0  0  0  0  0  0
   26.9604    9.3660   15.5127 H   0  0  0  0  0  0  0  0  0  0  0  0
   26.2392   10.0188   14.0026 H   0  0  0  0  0  0  0  0  0  0  0  0
   27.9317    9.4171   14.0026 H   0  0  0  0  0  0  0  0  0  0  0  0
   27.8734   11.4250   16.0363 H   0  0  0  0  0  0  0  0  0  0  0  0
   27.0591   13.2280   11.4519 H   0  0  0  0  0  0  0  0  0  0  0  0
   29.5779   10.8069   14.0567 H   0  0  0  0  0  0  0  0  0  0  0  0
   30.2381   12.9093   16.8652 H   0  0  0  0  0  0  0  0  0  0  0  0
   31.9258   11.8708   18.3299 H   0  0  0  0  0  0  0  0  0  0  0  0
   32.8909   12.4605   13.4694 H   0  0  0  0  0  0  0  0  0  0  0  0
   34.2398   11.4361   19.3101 H   0  0  0  0  0  0  0  0  0  0  0  0
   33.9404    9.7093   18.9166 H   0  0  0  0  0  0  0  0  0  0  0  0
   35.6175   10.3528   18.9166 H   0  0  0  0  0  0  0  0  0  0  0  0
   37.4594    9.6975   14.5817 H   0  0  0  0  0  0  0  0  0  0  0  0
   34.5533   12.1377   12.4702 H   0  0  0  0  0  0  0  0  0  0  0  0
   36.5715   12.5723   10.3438 H   0  0  0  0  0  0  0  0  0  0  0  0
   37.2834   10.9668    9.9665 H   0  0  0  0  0  0  0  0  0  0  0  0
   35.4999   11.1808    9.9665 H   0  0  0  0  0  0  0  0  0  0  0  0
 29 27  1  0
 27 26  1  0
 27 28  1  0
 12  4  1  0
 12  2  1  0
  5  6  1  0
  5  4  2  0
 26 25  2  0
 11  2  2  0
 28 24  2  0
  6  3  2  0
  4  8  1  0
  2  1  1  0
  3  7  1  0
 25 24  1  0
  8  7  2  0
  8 13  1  0
 24 20  1  0
  7 14  1  0
 13 10  1  0
 19 14  1  0
 19 18  2  0
  9 10  1  0
  1 10  1  0
 14 15  2  0
 20 18  1  0
 20 21  2  0
 18 17  1  0
 21 22  1  0
 15 16  1  0
 17 16  2  0
 17 22  1  0
 22 23  1  0
  1 30  1  0
  1 31  1  0
  3 32  1  0
  5 33  1  0
  6 34  1  0
  9 35  1  0
  9 36  1  0
  9 37  1  0
 10 38  1  0
 12 39  1  0
 13 40  1  0
 15 41  1  0
 16 42  1  0
 19 43  1  0
 23 44  1  0
 23 45  1  0
 23 46  1  0
 25 47  1  0
 28 48  1  0
 29 49  1  0
 29 50  1  0
 29 51  1  0
A    1
C4
A    2
C5
A    3
C11
A    4
C8
A    5
C9
A    6
C10
A    7
C12
A    8
C13
A    9
C1
A   10
C2
A   11
O6
A   12
N7
A   13
N14
A   14
C15
A   15
C16
A   16
C17
A   17
C18
A   18
C19
A   19
C20
A   20
C21
A   21
N22
A   22
N23
A   23
C24
A   24
C25
A   25
C26
A   26
N27
A   27
N28
A   28
C29
A   29
C30
M  END
