5I94_69V_A_601
     RDKit          3D

 62 66  0  0  0  0  0  0  0  0999 V2000
  121.0150  159.5160   43.5800 N   0  0  0  0  0  0  0  0  0  0  0  0
  121.7970  160.4340   44.3350 C   0  0  0  0  0  0  0  0  0  0  0  0
  121.2990  162.8370   45.2840 C   0  0  0  0  0  0  0  0  0  0  0  0
  122.3780  164.8060   44.4060 C   0  0  0  0  0  0  0  0  0  0  0  0
  120.4710  163.6400   46.0610 C   0  0  0  0  0  0  0  0  0  0  0  0
  110.3670  160.1490   40.4060 C   0  0  0  0  0  0  0  0  0  0  0  0
  108.9510  162.1380   40.2200 C   0  0  0  0  0  0  0  0  0  0  0  0
  115.8350  157.5520   40.6730 C   0  0  0  0  0  0  0  0  0  0  0  0
  114.4270  157.8600   40.2040 C   0  0  0  0  0  0  0  0  0  0  0  0
  113.4370  157.7700   41.2130 N   0  0  0  0  0  0  0  0  0  0  0  0
  113.4590  156.8850   42.3170 C   0  0  0  0  0  0  0  0  0  0  0  0
  114.8420  156.2920   42.4870 C   0  0  0  0  0  0  0  0  0  0  0  0
  115.9520  157.2670   42.1560 C   0  0  0  0  0  0  0  0  0  0  0  0
  115.8420  158.4510   42.9170 O   0  0  0  0  0  0  0  0  0  0  0  0
  117.1300  158.8240   43.3570 C   0  0  0  0  0  0  0  0  0  0  0  0
  117.4710  159.2920   44.5660 N   0  0  0  0  0  0  0  0  0  0  0  0
  118.7740  159.5650   44.7400 N   0  0  0  0  0  0  0  0  0  0  0  0
  119.5960  159.3450   43.6920 C   0  0  0  0  0  0  0  0  0  0  0  0
  121.1380  161.3310   45.3780 C   0  0  0  0  0  0  0  0  0  0  0  0
  122.2550  163.4220   44.4630 C   0  0  0  0  0  0  0  0  0  0  0  0
  121.5440  165.6050   45.1800 C   0  0  0  0  0  0  0  0  0  0  0  0
  120.5890  165.0230   46.0060 C   0  0  0  0  0  0  0  0  0  0  0  0
  123.0020  160.4570   44.1310 O   0  0  0  0  0  0  0  0  0  0  0  0
  118.5790  158.7470   42.4410 S   0  0  0  0  0  0  0  0  0  0  0  0
  112.3470  158.6840   41.0810 C   0  0  0  0  0  0  0  0  0  0  0  0
  111.9290  159.5930   41.9770 N   0  0  0  0  0  0  0  0  0  0  0  0
  110.8820  160.3620   41.6290 N   0  0  0  0  0  0  0  0  0  0  0  0
  109.2740  160.8200   39.8190 N   0  0  0  0  0  0  0  0  0  0  0  0
  107.7810  162.8630   39.6060 C   0  0  0  0  0  0  0  0  0  0  0  0
  108.1370  164.3330   39.5840 C   0  0  0  0  0  0  0  0  0  0  0  0
  109.1390  164.7880   38.7240 C   0  0  0  0  0  0  0  0  0  0  0  0
  109.4820  166.1320   38.7080 C   0  0  0  0  0  0  0  0  0  0  0  0
  108.8200  167.0100   39.5590 C   0  0  0  0  0  0  0  0  0  0  0  0
  107.8250  166.5560   40.4230 C   0  0  0  0  0  0  0  0  0  0  0  0
  107.4820  165.2120   40.4410 C   0  0  0  0  0  0  0  0  0  0  0  0
  109.6110  162.7120   41.0600 O   0  0  0  0  0  0  0  0  0  0  0  0
  111.3080  158.8820   39.7160 S   0  0  0  0  0  0  0  0  0  0  0  0
  121.5094  158.9253   42.8962 H   0  0  0  0  0  0  0  0  0  0  0  0
  123.1322  165.2668   43.7511 H   0  0  0  0  0  0  0  0  0  0  0  0
  119.7210  163.1790   46.7205 H   0  0  0  0  0  0  0  0  0  0  0  0
  116.1954  156.6698   40.1236 H   0  0  0  0  0  0  0  0  0  0  0  0
  116.4351  158.4531   40.4781 H   0  0  0  0  0  0  0  0  0  0  0  0
  114.4154  158.8839   39.8022 H   0  0  0  0  0  0  0  0  0  0  0  0
  114.1753  157.0985   39.4512 H   0  0  0  0  0  0  0  0  0  0  0  0
  113.1855  157.4357   43.2291 H   0  0  0  0  0  0  0  0  0  0  0  0
  112.7402  156.0717   42.1384 H   0  0  0  0  0  0  0  0  0  0  0  0
  114.9328  155.4198   41.8229 H   0  0  0  0  0  0  0  0  0  0  0  0
  114.9526  156.0170   43.5463 H   0  0  0  0  0  0  0  0  0  0  0  0
  116.9367  156.8426   42.4015 H   0  0  0  0  0  0  0  0  0  0  0  0
  120.0585  161.1227   45.3416 H   0  0  0  0  0  0  0  0  0  0  0  0
  121.6671  161.0744   46.3076 H   0  0  0  0  0  0  0  0  0  0  0  0
  122.9174  162.7878   43.8555 H   0  0  0  0  0  0  0  0  0  0  0  0
  121.6399  166.7000   45.1388 H   0  0  0  0  0  0  0  0  0  0  0  0
  119.9278  165.6568   46.6151 H   0  0  0  0  0  0  0  0  0  0  0  0
  108.7098  160.3496   39.0970 H   0  0  0  0  0  0  0  0  0  0  0  0
  106.8765  162.7019   40.2109 H   0  0  0  0  0  0  0  0  0  0  0  0
  107.5770  162.4922   38.5907 H   0  0  0  0  0  0  0  0  0  0  0  0
  109.6563  164.0805   38.0593 H   0  0  0  0  0  0  0  0  0  0  0  0
  110.2676  166.4984   38.0308 H   0  0  0  0  0  0  0  0  0  0  0  0
  109.0852  168.0775   39.5502 H   0  0  0  0  0  0  0  0  0  0  0  0
  107.3116  167.2635   41.0907 H   0  0  0  0  0  0  0  0  0  0  0  0
  106.7018  164.8456   41.1244 H   0  0  0  0  0  0  0  0  0  0  0  0
 32 31  2  0
 32 33  1  0
 31 30  1  0
 33 34  2  0
 30 29  1  0
 30 35  2  0
 29  7  1  0
 37  6  1  0
 37 25  1  0
 28  7  1  0
 28  6  1  0
  9  8  1  0
  9 10  1  0
  7 36  2  0
  6 27  2  0
 34 35  1  0
  8 13  1  0
 25 10  1  0
 25 26  2  0
 10 11  1  0
 27 26  1  0
 13 12  1  0
 13 14  1  0
 11 12  1  0
 24 15  1  0
 24 18  1  0
 14 15  1  0
 15 16  2  0
  1 18  1  0
  1  2  1  0
 18 17  2  0
 23  2  2  0
  2 19  1  0
  4 20  2  0
  4 21  1  0
 20  3  1  0
 16 17  1  0
 21 22  2  0
  3 19  1  0
  3  5  2  0
 22  5  1  0
  1 38  1  0
  4 39  1  0
  5 40  1  0
  8 41  1  0
  8 42  1  0
  9 43  1  0
  9 44  1  0
 11 45  1  0
 11 46  1  0
 12 47  1  0
 12 48  1  0
 13 49  1  0
 19 50  1  0
 19 51  1  0
 20 52  1  0
 21 53  1  0
 22 54  1  0
 28 55  1  0
 29 56  1  0
 29 57  1  0
 31 58  1  0
 32 59  1  0
 33 60  1  0
 34 61  1  0
 35 62  1  0
A    1
N12
A    2
C13
A    3
C15
A    4
C17
A    5
C20
A    6
C26
A    7
C28
A    8
C01
A    9
C02
A   10
N03
A   11
C04
A   12
C05
A   13
C06
A   14
O07
A   15
C08
A   16
N09
A   17
N10
A   18
C11
A   19
C14
A   20
C16
A   21
C18
A   22
C19
A   23
O21
A   24
S22
A   25
C23
A   26
N24
A   27
N25
A   28
N27
A   29
C29
A   30
C30
A   31
C31
A   32
C32
A   33
C33
A   34
C34
A   35
C35
A   36
O36
A   37
S37
M  END
