5IA0_A5B_A_1001
     RDKit          3D

 57 61  0  0  0  0  0  0  0  0999 V2000
  -27.9460   -5.3080  -25.1200 C   0  0  0  0  0  0  0  0  0  0  0  0
  -27.1040   -6.4680  -25.2490 O   0  0  0  0  0  0  0  0  0  0  0  0
  -26.1310   -6.4040  -26.2040 C   0  0  0  0  0  0  0  0  0  0  0  0
  -26.0470   -5.3480  -27.1240 C   0  0  0  0  0  0  0  0  0  0  0  0
  -25.2260   -7.4730  -26.2330 C   0  0  0  0  0  0  0  0  0  0  0  0
  -25.2430   -8.5410  -25.3150 C   0  0  0  0  0  0  0  0  0  0  0  0
  -24.7370   -9.6430  -25.6150 O   0  0  0  0  0  0  0  0  0  0  0  0
  -25.6400   -8.3720  -24.1420 O   0  0  0  0  0  0  0  0  0  0  0  0
  -24.2220   -7.4500  -27.1880 C   0  0  0  0  0  0  0  0  0  0  0  0
  -24.1530   -6.4080  -28.1100 C   0  0  0  0  0  0  0  0  0  0  0  0
  -25.0390   -5.3400  -28.0870 C   0  0  0  0  0  0  0  0  0  0  0  0
  -24.8200   -4.4020  -29.0360 N   0  0  0  0  0  0  0  0  0  0  0  0
  -25.4280   -3.2130  -29.1590 C   0  0  0  0  0  0  0  0  0  0  0  0
  -26.5570   -2.8690  -28.5160 N   0  0  0  0  0  0  0  0  0  0  0  0
  -24.8650   -2.3530  -30.0410 N   0  0  0  0  0  0  0  0  0  0  0  0
  -25.4270   -1.0910  -30.2620 C   0  0  0  0  0  0  0  0  0  0  0  0
  -26.5750   -0.7490  -29.5670 C   0  0  0  0  0  0  0  0  0  0  0  0
  -27.0330    0.5280  -29.8960 C   0  0  0  0  0  0  0  0  0  0  0  0
  -27.2720    1.3110  -28.6670 N   0  0  0  0  0  0  0  0  0  0  0  0
  -27.1230   -1.6660  -28.6810 C   0  0  0  0  0  0  0  0  0  0  0  0
  -28.2830   -1.4570  -27.9470 C   0  0  0  0  0  0  0  0  0  0  0  0
  -29.0150   -2.6210  -27.7130 C   0  0  0  0  0  0  0  0  0  0  0  0
  -30.2230   -2.5310  -27.0240 C   0  0  0  0  0  0  0  0  0  0  0  0
  -30.6760   -1.2940  -26.5660 C   0  0  0  0  0  0  0  0  0  0  0  0
  -32.1900   -1.1490  -25.6980 Cl  0  0  0  0  0  0  0  0  0  0  0  0
  -29.9250   -0.1450  -26.7890 C   0  0  0  0  0  0  0  0  0  0  0  0
  -28.7380   -0.2230  -27.5050 C   0  0  0  0  0  0  0  0  0  0  0  0
  -28.0660    0.9990  -27.6480 C   0  0  0  0  0  0  0  0  0  0  0  0
  -28.0430    1.8980  -26.5800 C   0  0  0  0  0  0  0  0  0  0  0  0
  -27.4650    1.5370  -25.3530 C   0  0  0  0  0  0  0  0  0  0  0  0
  -26.9230    0.2300  -25.1360 F   0  0  0  0  0  0  0  0  0  0  0  0
  -27.4380    2.4460  -24.2960 C   0  0  0  0  0  0  0  0  0  0  0  0
  -27.9670    3.7230  -24.4710 C   0  0  0  0  0  0  0  0  0  0  0  0
  -28.5240    4.0940  -25.6950 C   0  0  0  0  0  0  0  0  0  0  0  0
  -28.5440    3.1760  -26.7360 C   0  0  0  0  0  0  0  0  0  0  0  0
  -29.0580    3.4460  -27.9550 O   0  0  0  0  0  0  0  0  0  0  0  0
  -28.7590    4.7810  -28.3290 C   0  0  0  0  0  0  0  0  0  0  0  0
  -28.1059   -5.0877  -24.0542 H   0  0  0  0  0  0  0  0  0  0  0  0
  -27.4610   -4.4472  -25.6036 H   0  0  0  0  0  0  0  0  0  0  0  0
  -28.9147   -5.5024  -25.6036 H   0  0  0  0  0  0  0  0  0  0  0  0
  -26.7769   -4.5260  -27.0854 H   0  0  0  0  0  0  0  0  0  0  0  0
  -25.0569   -8.6202  -23.3814 H   0  0  0  0  0  0  0  0  0  0  0  0
  -23.4763   -8.2581  -27.2181 H   0  0  0  0  0  0  0  0  0  0  0  0
  -23.3700   -6.4325  -28.8822 H   0  0  0  0  0  0  0  0  0  0  0  0
  -24.1061   -4.6258  -29.7439 H   0  0  0  0  0  0  0  0  0  0  0  0
  -24.9677   -0.3868  -30.9713 H   0  0  0  0  0  0  0  0  0  0  0  0
  -26.2779    1.0383  -30.5120 H   0  0  0  0  0  0  0  0  0  0  0  0
  -27.9750    0.4403  -30.4572 H   0  0  0  0  0  0  0  0  0  0  0  0
  -28.6447   -3.5945  -28.0667 H   0  0  0  0  0  0  0  0  0  0  0  0
  -30.8199   -3.4367  -26.8412 H   0  0  0  0  0  0  0  0  0  0  0  0
  -30.2707    0.8237  -26.3989 H   0  0  0  0  0  0  0  0  0  0  0  0
  -27.0013    2.1564  -23.3289 H   0  0  0  0  0  0  0  0  0  0  0  0
  -27.9453    4.4427  -23.6394 H   0  0  0  0  0  0  0  0  0  0  0  0
  -28.9423    5.1019  -25.8335 H   0  0  0  0  0  0  0  0  0  0  0  0
  -28.6219    5.3930  -27.4253 H   0  0  0  0  0  0  0  0  0  0  0  0
  -27.8352    4.7964  -28.9259 H   0  0  0  0  0  0  0  0  0  0  0  0
  -29.5880    5.1890  -28.9259 H   0  0  0  0  0  0  0  0  0  0  0  0
 16 15  2  0
 16 17  1  0
 15 13  1  0
 18 17  1  0
 18 19  1  0
 17 20  2  0
 13 12  1  0
 13 14  2  0
 12 11  1  0
 20 14  1  0
 20 21  1  0
 19 28  2  0
 37 36  1  0
 10 11  2  0
 10  9  1  0
 11  4  1  0
 36 35  1  0
 21 22  2  0
 21 27  1  0
 22 23  1  0
 28 27  1  0
 28 29  1  0
 27 26  2  0
  9  5  2  0
  4  3  2  0
 23 24  2  0
 26 24  1  0
 35 29  1  0
 35 34  2  0
 29 30  2  0
 24 25  1  0
  5  3  1  0
  5  6  1  0
  3  2  1  0
 34 33  1  0
  7  6  2  0
 30 31  1  0
 30 32  1  0
  6  8  1  0
  2  1  1  0
 33 32  2  0
  1 38  1  0
  1 39  1  0
  1 40  1  0
  4 41  1  0
  8 42  1  0
  9 43  1  0
 10 44  1  0
 12 45  1  0
 16 46  1  0
 18 47  1  0
 18 48  1  0
 22 49  1  0
 23 50  1  0
 26 51  1  0
 32 52  1  0
 33 53  1  0
 34 54  1  0
 37 55  1  0
 37 56  1  0
 37 57  1  0
A    1
C26
A    2
O2
A    3
C24
A    4
C25
A    5
C23
A    6
C27
A    7
O4
A    8
O3
A    9
C22
A   10
C21
A   11
C20
A   12
N4
A   13
C12
A   14
N3
A   15
N2
A   16
C11
A   17
C10
A   18
C9
A   19
N1
A   20
C13
A   21
C14
A   22
C19
A   23
C18
A   24
C17
A   25
CL1
A   26
C16
A   27
C15
A   28
C8
A   29
C7
A   30
C6
A   31
F1
A   32
C5
A   33
C4
A   34
C3
A   35
C2
A   36
O1
A   37
C1
M  END
