1M52_P17_A_119
     RDKit          3D

 45 48  0  0  0  0  0  0  0  0999 V2000
   40.6260   32.9450    1.8920 S   0  0  0  0  0  0  0  0  0  0  0  0
   41.3150   33.3820    3.4710 C   0  0  0  0  0  0  0  0  0  0  0  0
   40.7700   32.7960    4.6520 C   0  0  0  0  0  0  0  0  0  0  0  0
   41.2970   33.1300    5.9280 C   0  0  0  0  0  0  0  0  0  0  0  0
   40.7040   32.5230    7.0350 N   0  0  0  0  0  0  0  0  0  0  0  0
   41.2290   32.5180    8.3100 C   0  0  0  0  0  0  0  0  0  0  0  0
   42.3940   33.1840    8.5720 N   0  0  0  0  0  0  0  0  0  0  0  0
   42.9690   33.2100    9.8080 C   0  0  0  0  0  0  0  0  0  0  0  0
   44.1550   33.8970   10.0240 N   0  0  0  0  0  0  0  0  0  0  0  0
   44.7440   34.5950    8.8660 C   0  0  0  0  0  0  0  0  0  0  0  0
   44.7430   33.9270   11.2250 C   0  0  0  0  0  0  0  0  0  0  0  0
   45.7940   34.5260   11.4320 O   0  0  0  0  0  0  0  0  0  0  0  0
   44.1310   33.2130   12.3940 C   0  0  0  0  0  0  0  0  0  0  0  0
   44.7650   33.1950   13.7780 C   0  0  0  0  0  0  0  0  0  0  0  0
   45.6940   32.1630   14.1680 C   0  0  0  0  0  0  0  0  0  0  0  0
   43.2670   35.5180   14.3730 Cl  0  0  0  0  0  0  0  0  0  0  0  0
   46.2780   32.1920   15.4590 C   0  0  0  0  0  0  0  0  0  0  0  0
   45.9590   33.2310   16.3700 C   0  0  0  0  0  0  0  0  0  0  0  0
   45.0430   34.2550   16.0050 C   0  0  0  0  0  0  0  0  0  0  0  0
   44.4310   34.2450   14.7210 C   0  0  0  0  0  0  0  0  0  0  0  0
   46.1340   30.8560   13.0740 Cl  0  0  0  0  0  0  0  0  0  0  0  0
   42.9630   32.5270   12.2330 C   0  0  0  0  0  0  0  0  0  0  0  0
   42.3200   32.5140   10.8570 C   0  0  0  0  0  0  0  0  0  0  0  0
   41.1140   31.8330   10.5860 C   0  0  0  0  0  0  0  0  0  0  0  0
   40.5910   31.8480    9.3180 N   0  0  0  0  0  0  0  0  0  0  0  0
   42.3920   34.0680    5.9980 C   0  0  0  0  0  0  0  0  0  0  0  0
   42.9360   34.6490    4.8180 C   0  0  0  0  0  0  0  0  0  0  0  0
   42.4020   34.3090    3.5580 C   0  0  0  0  0  0  0  0  0  0  0  0
   40.1550   34.6050    1.2770 C   0  0  0  0  0  0  0  0  0  0  0  0
   39.9372   32.0817    4.5740 H   0  0  0  0  0  0  0  0  0  0  0  0
   39.8052   32.0417    6.8889 H   0  0  0  0  0  0  0  0  0  0  0  0
   45.4156   35.3909    9.2203 H   0  0  0  0  0  0  0  0  0  0  0  0
   45.3143   33.8781    8.2570 H   0  0  0  0  0  0  0  0  0  0  0  0
   43.9414   35.0366    8.2570 H   0  0  0  0  0  0  0  0  0  0  0  0
   46.9840   31.4027   15.7566 H   0  0  0  0  0  0  0  0  0  0  0  0
   46.4240   33.2446   17.3668 H   0  0  0  0  0  0  0  0  0  0  0  0
   44.8065   35.0583   16.7183 H   0  0  0  0  0  0  0  0  0  0  0  0
   42.4988   31.9970   13.0778 H   0  0  0  0  0  0  0  0  0  0  0  0
   40.5944   31.2912   11.3900 H   0  0  0  0  0  0  0  0  0  0  0  0
   42.8123   34.3378    6.9781 H   0  0  0  0  0  0  0  0  0  0  0  0
   43.7710   35.3616    4.8888 H   0  0  0  0  0  0  0  0  0  0  0  0
   42.8201   34.7554    2.6437 H   0  0  0  0  0  0  0  0  0  0  0  0
   39.9657   35.2722    2.1308 H   0  0  0  0  0  0  0  0  0  0  0  0
   40.9723   35.0150    0.6655 H   0  0  0  0  0  0  0  0  0  0  0  0
   39.2442   34.5246    0.6655 H   0  0  0  0  0  0  0  0  0  0  0  0
  1  2  1  0
  1 29  1  0
  2  3  2  0
  2 28  1  0
  3  4  1  0
  4  5  1  0
  4 26  2  0
  5  6  1  0
  6  7  2  0
  6 25  1  0
  7  8  1  0
  8  9  1  0
  8 23  2  0
  9 10  1  0
  9 11  1  0
 11 12  2  0
 11 13  1  0
 13 14  1  0
 13 22  2  0
 14 15  2  0
 14 20  1  0
 15 17  1  0
 15 21  1  0
 16 20  1  0
 17 18  2  0
 18 19  1  0
 19 20  2  0
 22 23  1  0
 23 24  1  0
 24 25  2  0
 26 27  1  0
 27 28  2  0
  3 30  1  0
  5 31  1  0
 10 32  1  0
 10 33  1  0
 10 34  1  0
 17 35  1  0
 18 36  1  0
 19 37  1  0
 22 38  1  0
 24 39  1  0
 26 40  1  0
 27 41  1  0
 28 42  1  0
 29 43  1  0
 29 44  1  0
 29 45  1  0
A    1
S2
A    2
C3
A    3
C8
A    4
C7
A    5
N9
A    6
C10
A    7
N15
A    8
C14
A    9
N19
A   10
C20
A   11
C18
A   12
O21
A   13
C17
A   14
C22
A   15
C27
A   16
CL1
A   17
C26
A   18
C25
A   19
C24
A   20
C23
A   21
CL2
A   22
C16
A   23
C13
A   24
C12
A   25
N11
A   26
C6
A   27
C5
A   28
C4
A   29
C1
M  END
