5IA5_GV0_A_1001
     RDKit          3D

 83 88  0  0  0  0  0  0  0  0999 V2000
   10.6740   -1.2160   95.8560 C   0  0  0  0  0  0  0  0  0  0  0  0
   10.5510    0.2050   96.4630 C   0  0  0  0  0  0  0  0  0  0  0  0
    9.2120    0.4510   97.0260 N   0  0  0  0  0  0  0  0  0  0  0  0
    9.1860    1.7720   97.6780 C   0  0  0  0  0  0  0  0  0  0  0  0
    8.9230   -0.5910   98.0210 C   0  0  0  0  0  0  0  0  0  0  0  0
    8.9280   -1.9740   97.3640 C   0  0  0  0  0  0  0  0  0  0  0  0
   10.2400   -2.3000   96.7710 N   0  0  0  0  0  0  0  0  0  0  0  0
   11.2470   -2.8880   97.7020 C   0  0  0  0  0  0  0  0  0  0  0  0
   12.1740   -1.9050   98.4150 C   0  0  0  0  0  0  0  0  0  0  0  0
   13.2770   -2.7140   99.0340 C   0  0  0  0  0  0  0  0  0  0  0  0
   10.5710   -3.8300   98.7240 C   0  0  0  0  0  0  0  0  0  0  0  0
   11.2720   -3.8800  100.0970 C   0  0  0  0  0  0  0  0  0  0  0  0
   12.7200   -3.6300  100.0440 N   0  0  0  0  0  0  0  0  0  0  0  0
   13.5730   -4.2030  100.9150 C   0  0  0  0  0  0  0  0  0  0  0  0
   14.7750   -3.9440  100.8210 O   0  0  0  0  0  0  0  0  0  0  0  0
   13.0400   -5.0040  101.8570 N   0  0  0  0  0  0  0  0  0  0  0  0
   13.7730   -5.6950  102.7700 C   0  0  0  0  0  0  0  0  0  0  0  0
   15.1000   -6.0900  102.5660 C   0  0  0  0  0  0  0  0  0  0  0  0
   13.1560   -6.0680  103.9000 N   0  0  0  0  0  0  0  0  0  0  0  0
   13.8190   -6.7940  104.8880 C   0  0  0  0  0  0  0  0  0  0  0  0
   15.1470   -7.1490  104.7080 C   0  0  0  0  0  0  0  0  0  0  0  0
   15.7990   -6.8090  103.5280 C   0  0  0  0  0  0  0  0  0  0  0  0
   17.1180   -7.1670  103.2910 O   0  0  0  0  0  0  0  0  0  0  0  0
   17.9000   -7.4110  104.3970 C   0  0  0  0  0  0  0  0  0  0  0  0
   18.1990   -6.3630  105.2600 C   0  0  0  0  0  0  0  0  0  0  0  0
   18.9890   -6.5890  106.3800 C   0  0  0  0  0  0  0  0  0  0  0  0
   19.2460   -5.5710  107.1900 F   0  0  0  0  0  0  0  0  0  0  0  0
   18.4450   -8.6720  104.6680 C   0  0  0  0  0  0  0  0  0  0  0  0
   19.2450   -8.9050  105.7960 C   0  0  0  0  0  0  0  0  0  0  0  0
   19.5330   -7.8410  106.6650 C   0  0  0  0  0  0  0  0  0  0  0  0
   20.2640   -7.9000  107.8050 N   0  0  0  0  0  0  0  0  0  0  0  0
   21.2860   -8.7690  107.9930 C   0  0  0  0  0  0  0  0  0  0  0  0
   21.6950   -9.5700  107.1470 O   0  0  0  0  0  0  0  0  0  0  0  0
   21.9980   -8.7140  109.3570 C   0  0  0  0  0  0  0  0  0  0  0  0
   23.5090   -9.0710  109.3500 C   0  0  0  0  0  0  0  0  0  0  0  0
   22.5130  -10.0690  109.9320 C   0  0  0  0  0  0  0  0  0  0  0  0
   21.4760   -7.6740  110.3690 C   0  0  0  0  0  0  0  0  0  0  0  0
   20.6250   -6.8370  110.0390 O   0  0  0  0  0  0  0  0  0  0  0  0
   22.0390   -7.7740  111.6060 N   0  0  0  0  0  0  0  0  0  0  0  0
   21.7040   -6.9270  112.6100 C   0  0  0  0  0  0  0  0  0  0  0  0
   22.7050   -6.4540  113.4360 C   0  0  0  0  0  0  0  0  0  0  0  0
   22.3900   -5.5950  114.4880 C   0  0  0  0  0  0  0  0  0  0  0  0
   21.0710   -5.2360  114.7370 C   0  0  0  0  0  0  0  0  0  0  0  0
   20.7730   -4.3860  115.7690 F   0  0  0  0  0  0  0  0  0  0  0  0
   20.0520   -5.7160  113.9320 C   0  0  0  0  0  0  0  0  0  0  0  0
   20.3760   -6.5800  112.8870 C   0  0  0  0  0  0  0  0  0  0  0  0
   10.0540   -1.2598   94.9484 H   0  0  0  0  0  0  0  0  0  0  0  0
   11.7410   -1.3827   95.6469 H   0  0  0  0  0  0  0  0  0  0  0  0
   11.2982    0.3154   97.2627 H   0  0  0  0  0  0  0  0  0  0  0  0
   10.7198    0.9344   95.6570 H   0  0  0  0  0  0  0  0  0  0  0  0
    9.1886    1.6419   98.7703 H   0  0  0  0  0  0  0  0  0  0  0  0
   10.0730    2.3478   97.3752 H   0  0  0  0  0  0  0  0  0  0  0  0
    8.2770    2.3125   97.3752 H   0  0  0  0  0  0  0  0  0  0  0  0
    9.6896   -0.5617   98.8093 H   0  0  0  0  0  0  0  0  0  0  0  0
    7.9285   -0.4053   98.4529 H   0  0  0  0  0  0  0  0  0  0  0  0
    8.1654   -1.9934   96.5715 H   0  0  0  0  0  0  0  0  0  0  0  0
    8.7121   -2.7206   98.1424 H   0  0  0  0  0  0  0  0  0  0  0  0
   11.9150   -3.4537   97.0359 H   0  0  0  0  0  0  0  0  0  0  0  0
   12.5910   -1.1872   97.6932 H   0  0  0  0  0  0  0  0  0  0  0  0
   11.6279   -1.3343   99.1805 H   0  0  0  0  0  0  0  0  0  0  0  0
   13.7841   -3.2981   98.2519 H   0  0  0  0  0  0  0  0  0  0  0  0
   13.9964   -2.0363   99.5169 H   0  0  0  0  0  0  0  0  0  0  0  0
    9.5367   -3.4881   98.8769 H   0  0  0  0  0  0  0  0  0  0  0  0
   10.6263   -4.8449   98.3035 H   0  0  0  0  0  0  0  0  0  0  0  0
   10.8141   -3.1190  100.7460 H   0  0  0  0  0  0  0  0  0  0  0  0
   11.1416   -4.9024  100.4814 H   0  0  0  0  0  0  0  0  0  0  0  0
   12.0148   -5.0990  101.8877 H   0  0  0  0  0  0  0  0  0  0  0  0
   15.6009   -5.8254  101.6231 H   0  0  0  0  0  0  0  0  0  0  0  0
   13.2901   -7.0844  105.8078 H   0  0  0  0  0  0  0  0  0  0  0  0
   15.6831   -7.6979  105.4962 H   0  0  0  0  0  0  0  0  0  0  0  0
   17.8099   -5.3545  105.0559 H   0  0  0  0  0  0  0  0  0  0  0  0
   18.2400   -9.5029  103.9770 H   0  0  0  0  0  0  0  0  0  0  0  0
   19.6425   -9.9107  105.9976 H   0  0  0  0  0  0  0  0  0  0  0  0
   20.0300   -7.2497  108.5687 H   0  0  0  0  0  0  0  0  0  0  0  0
   24.0147   -9.2935  108.3988 H   0  0  0  0  0  0  0  0  0  0  0  0
   24.4203   -8.5815  109.7240 H   0  0  0  0  0  0  0  0  0  0  0  0
   22.3012  -11.0075  109.3987 H   0  0  0  0  0  0  0  0  0  0  0  0
   22.4115  -10.5913  110.8948 H   0  0  0  0  0  0  0  0  0  0  0  0
   22.7362   -8.5113  111.7824 H   0  0  0  0  0  0  0  0  0  0  0  0
   23.7491   -6.7546  113.2640 H   0  0  0  0  0  0  0  0  0  0  0  0
   23.1928   -5.1979  115.1266 H   0  0  0  0  0  0  0  0  0  0  0  0
   19.0078   -5.4216  114.1133 H   0  0  0  0  0  0  0  0  0  0  0  0
   19.5703   -6.9986  112.2661 H   0  0  0  0  0  0  0  0  0  0  0  0
  1  2  1  0
  1  7  1  0
  2  3  1  0
  7  6  1  0
  7  8  1  0
  3  4  1  0
  3  5  1  0
  6  5  1  0
  8  9  1  0
  8 11  1  0
  9 10  1  0
 11 12  1  0
 10 13  1  0
 13 12  1  0
 13 14  1  0
 15 14  2  0
 14 16  1  0
 16 17  1  0
 18 17  2  0
 18 22  1  0
 17 19  1  0
 23 22  1  0
 23 24  1  0
 22 21  2  0
 19 20  2  0
 24 28  1  0
 24 25  2  0
 28 29  2  0
 21 20  1  0
 25 26  1  0
 29 30  1  0
 26 30  2  0
 26 27  1  0
 30 31  1  0
 33 32  2  0
 31 32  1  0
 32 34  1  0
 35 34  1  0
 35 36  1  0
 34 36  1  0
 34 37  1  0
 38 37  2  0
 37 39  1  0
 39 40  1  0
 40 46  1  0
 40 41  2  0
 46 45  2  0
 41 42  1  0
 45 43  1  0
 42 43  2  0
 43 44  1  0
  1 47  1  0
  1 48  1  0
  2 49  1  0
  2 50  1  0
  4 51  1  0
  4 52  1  0
  4 53  1  0
  5 54  1  0
  5 55  1  0
  6 56  1  0
  6 57  1  0
  8 58  1  0
  9 59  1  0
  9 60  1  0
 10 61  1  0
 10 62  1  0
 11 63  1  0
 11 64  1  0
 12 65  1  0
 12 66  1  0
 16 67  1  0
 18 68  1  0
 20 69  1  0
 21 70  1  0
 25 71  1  0
 28 72  1  0
 29 73  1  0
 31 74  1  0
 35 75  1  0
 35 76  1  0
 36 77  1  0
 36 78  1  0
 39 79  1  0
 41 80  1  0
 42 81  1  0
 45 82  1  0
 46 83  1  0
A    1
CAV
A    2
CAZ
A    3
NAI
A    4
CBC
A    5
CBA
A    6
CAW
A    7
NAG
A    8
CAQ
A    9
CAU
A   10
CAY
A   11
CAT
A   12
CAX
A   13
NAH
A   14
CBB
A   15
OAE
A   16
NAL
A   17
CBJ
A   18
CBQ
A   19
NAM
A   20
CBT
A   21
CBS
A   22
CBR
A   23
OAF
A   24
CBO
A   25
CBK
A   26
CBF
A   27
FAA
A   28
CBL
A   29
CBG
A   30
CBD
A   31
NAJ
A   32
CAR
A   33
OAC
A   34
CAN
A   35
CAO
A   36
CAP
A   37
CAS
A   38
OAD
A   39
NAK
A   40
CBE
A   41
CBH
A   42
CBM
A   43
CBP
A   44
FAB
A   45
CBN
A   46
CBI
M  END
