5IBE_69M_A_403
     RDKit          3D

 44 47  0  0  0  0  0  0  0  0999 V2000
  -12.4800   17.1410    2.9350 C   0  0  0  0  0  0  0  0  0  0  0  0
  -10.3880   15.9800    2.6650 C   0  0  0  0  0  0  0  0  0  0  0  0
  -10.8530   14.9580    3.4870 C   0  0  0  0  0  0  0  0  0  0  0  0
  -12.1250   15.0300    4.0430 C   0  0  0  0  0  0  0  0  0  0  0  0
   -8.0280   16.9170    1.7610 C   0  0  0  0  0  0  0  0  0  0  0  0
   -6.9230   16.1240    1.1980 C   0  0  0  0  0  0  0  0  0  0  0  0
   -8.0520   18.3850    2.0000 C   0  0  0  0  0  0  0  0  0  0  0  0
   -8.6030   19.3050    1.1110 C   0  0  0  0  0  0  0  0  0  0  0  0
   -8.5690   20.6650    1.4160 C   0  0  0  0  0  0  0  0  0  0  0  0
   -7.9830   21.1000    2.6120 C   0  0  0  0  0  0  0  0  0  0  0  0
  -12.9380   16.1220    3.7620 C   0  0  0  0  0  0  0  0  0  0  0  0
  -11.2040   17.0710    2.3810 C   0  0  0  0  0  0  0  0  0  0  0  0
  -14.1920   16.1850    4.2900 O   0  0  0  0  0  0  0  0  0  0  0  0
   -9.0240   15.8550    2.0750 C   0  0  0  0  0  0  0  0  0  0  0  0
   -7.1880   14.8200    1.1310 N   0  0  0  0  0  0  0  0  0  0  0  0
   -8.4870   14.6660    1.6690 N   0  0  0  0  0  0  0  0  0  0  0  0
   -7.4280   20.1640    3.4820 C   0  0  0  0  0  0  0  0  0  0  0  0
   -7.4630   18.8200    3.1720 C   0  0  0  0  0  0  0  0  0  0  0  0
   -6.7780   20.5070    4.7710 C   0  0  0  0  0  0  0  0  0  0  0  0
   -7.2420   21.5450    5.5660 C   0  0  0  0  0  0  0  0  0  0  0  0
   -6.6100   21.8160    6.7740 C   0  0  0  0  0  0  0  0  0  0  0  0
   -5.5340   21.0420    7.1920 C   0  0  0  0  0  0  0  0  0  0  0  0
   -5.0760   20.0000    6.3990 C   0  0  0  0  0  0  0  0  0  0  0  0
   -5.7040   19.7340    5.1900 C   0  0  0  0  0  0  0  0  0  0  0  0
   -5.6760   16.7210    0.7420 N   0  0  0  0  0  0  0  0  0  0  0  0
   -7.0950   22.9300    7.6280 N   0  0  0  0  0  0  0  0  0  0  0  0
  -13.1264   18.0041    2.7177 H   0  0  0  0  0  0  0  0  0  0  0  0
  -10.2114   14.0897    3.6977 H   0  0  0  0  0  0  0  0  0  0  0  0
  -12.4864   14.2269    4.7021 H   0  0  0  0  0  0  0  0  0  0  0  0
   -9.0627   18.9602    0.1730 H   0  0  0  0  0  0  0  0  0  0  0  0
   -9.0022   21.3964    0.7178 H   0  0  0  0  0  0  0  0  0  0  0  0
   -7.9613   22.1710    2.8619 H   0  0  0  0  0  0  0  0  0  0  0  0
  -10.8429   17.8744    1.7220 H   0  0  0  0  0  0  0  0  0  0  0  0
  -14.3158   16.1912    5.2722 H   0  0  0  0  0  0  0  0  0  0  0  0
   -6.5746   14.0785    0.7639 H   0  0  0  0  0  0  0  0  0  0  0  0
   -7.0185   18.0889    3.8633 H   0  0  0  0  0  0  0  0  0  0  0  0
   -8.1030   22.1486    5.2430 H   0  0  0  0  0  0  0  0  0  0  0  0
   -5.0446   21.2561    8.1536 H   0  0  0  0  0  0  0  0  0  0  0  0
   -4.2216   19.3891    6.7258 H   0  0  0  0  0  0  0  0  0  0  0  0
   -5.3483   18.9054    4.5600 H   0  0  0  0  0  0  0  0  0  0  0  0
   -4.9829   17.0528    1.4278 H   0  0  0  0  0  0  0  0  0  0  0  0
   -5.4869   16.8115   -0.2664 H   0  0  0  0  0  0  0  0  0  0  0  0
   -7.0584   22.8460    8.6539 H   0  0  0  0  0  0  0  0  0  0  0  0
   -7.4679   23.7866    7.1944 H   0  0  0  0  0  0  0  0  0  0  0  0
 25  6  1  0
  8  9  2  0
  8  7  1  0
 15  6  1  0
 15 16  1  0
  6  5  2  0
  9 10  1  0
 16 14  2  0
  5  7  1  0
  5 14  1  0
  7 18  2  0
 14  2  1  0
 12  2  1  0
 12  1  2  0
 10 17  2  0
  2  3  2  0
  1 11  1  0
 18 17  1  0
 17 19  1  0
  3  4  1  0
 11  4  2  0
 11 13  1  0
 19 24  1  0
 19 20  2  0
 24 23  2  0
 20 21  1  0
 23 22  1  0
 21 22  2  0
 21 26  1  0
  1 27  1  0
  3 28  1  0
  4 29  1  0
  8 30  1  0
  9 31  1  0
 10 32  1  0
 12 33  1  0
 13 34  1  0
 15 35  1  0
 18 36  1  0
 20 37  1  0
 22 38  1  0
 23 39  1  0
 24 40  1  0
 25 41  1  0
 25 42  1  0
 26 43  1  0
 26 44  1  0
A    1
C2
A    2
C4
A    3
C5
A    4
C6
A    5
C8
A    6
C9
A    7
C12
A    8
C13
A    9
C14
A   10
C15
A   11
C1
A   12
C3
A   13
O1
A   14
C7
A   15
N10
A   16
N11
A   17
C16
A   18
C17
A   19
C18
A   20
C19
A   21
C20
A   22
C21
A   23
C22
A   24
C23
A   25
N24
A   26
N25
M  END
