5IBH_69R_A_405
     RDKit          3D

 43 46  0  0  0  0  0  0  0  0999 V2000
  -37.6650   74.3660  -10.6600 C   0  0  0  0  0  0  0  0  0  0  0  0
  -36.7470   73.7960   -9.6300 C   0  0  0  0  0  0  0  0  0  0  0  0
  -35.5700   71.8690   -8.7410 C   0  0  0  0  0  0  0  0  0  0  0  0
  -35.2950   74.0360   -7.7300 C   0  0  0  0  0  0  0  0  0  0  0  0
  -36.1690   74.5970   -8.6570 C   0  0  0  0  0  0  0  0  0  0  0  0
  -33.8890   76.9490  -11.3740 C   0  0  0  0  0  0  0  0  0  0  0  0
  -36.4820   77.9010  -11.1150 C   0  0  0  0  0  0  0  0  0  0  0  0
  -38.7220   77.9100  -13.4290 C   0  0  0  0  0  0  0  0  0  0  0  0
  -35.6890   77.7200  -15.4910 C   0  0  0  0  0  0  0  0  0  0  0  0
  -37.4340   75.6050  -11.4590 C   0  0  0  0  0  0  0  0  0  0  0  0
  -38.6650   75.6300  -12.3090 C   0  0  0  0  0  0  0  0  0  0  0  0
  -39.4540   74.5820  -12.0820 N   0  0  0  0  0  0  0  0  0  0  0  0
  -38.8330   73.8150  -11.0750 N   0  0  0  0  0  0  0  0  0  0  0  0
  -36.4400   72.4300   -9.6740 C   0  0  0  0  0  0  0  0  0  0  0  0
  -34.9930   72.6820   -7.7630 C   0  0  0  0  0  0  0  0  0  0  0  0
  -34.1170   72.1600   -6.8510 O   0  0  0  0  0  0  0  0  0  0  0  0
  -36.2710   76.5410  -11.3570 C   0  0  0  0  0  0  0  0  0  0  0  0
  -34.9660   76.0660  -11.4730 C   0  0  0  0  0  0  0  0  0  0  0  0
  -34.1160   78.3120  -11.1580 C   0  0  0  0  0  0  0  0  0  0  0  0
  -35.4140   78.7860  -11.0330 C   0  0  0  0  0  0  0  0  0  0  0  0
  -33.0780   79.1900  -11.0650 O   0  0  0  0  0  0  0  0  0  0  0  0
  -39.0450   76.5020  -13.2870 N   0  0  0  0  0  0  0  0  0  0  0  0
  -37.4990   78.1030  -14.3070 C   0  0  0  0  0  0  0  0  0  0  0  0
  -37.0330   79.3130  -14.8000 C   0  0  0  0  0  0  0  0  0  0  0  0
  -35.9200   79.0540  -15.5240 N   0  0  0  0  0  0  0  0  0  0  0  0
  -36.6550   77.1360  -14.7440 N   0  0  0  0  0  0  0  0  0  0  0  0
  -35.3395   70.7939   -8.7746 H   0  0  0  0  0  0  0  0  0  0  0  0
  -34.8373   74.6750   -6.9605 H   0  0  0  0  0  0  0  0  0  0  0  0
  -36.4002   75.6717   -8.6177 H   0  0  0  0  0  0  0  0  0  0  0  0
  -32.8598   76.5718  -11.4661 H   0  0  0  0  0  0  0  0  0  0  0  0
  -37.5081   78.2762  -10.9876 H   0  0  0  0  0  0  0  0  0  0  0  0
  -38.5212   78.3348  -12.4344 H   0  0  0  0  0  0  0  0  0  0  0  0
  -39.5754   78.4189  -13.9010 H   0  0  0  0  0  0  0  0  0  0  0  0
  -34.8570   77.1991  -15.9874 H   0  0  0  0  0  0  0  0  0  0  0  0
  -40.3463   74.3719  -12.5516 H   0  0  0  0  0  0  0  0  0  0  0  0
  -36.8894   71.7948  -10.4515 H   0  0  0  0  0  0  0  0  0  0  0  0
  -34.2910   72.2637   -5.8819 H   0  0  0  0  0  0  0  0  0  0  0  0
  -34.7843   74.9945  -11.6427 H   0  0  0  0  0  0  0  0  0  0  0  0
  -35.5968   79.8583  -10.8696 H   0  0  0  0  0  0  0  0  0  0  0  0
  -32.7456   79.4711  -10.1759 H   0  0  0  0  0  0  0  0  0  0  0  0
  -39.6434   76.1069  -14.0263 H   0  0  0  0  0  0  0  0  0  0  0  0
  -37.4854   80.3016  -14.6329 H   0  0  0  0  0  0  0  0  0  0  0  0
  -35.3457   79.7528  -16.0167 H   0  0  0  0  0  0  0  0  0  0  0  0
 25  9  1  0
 25 24  1  0
  9 26  2  0
 24 23  2  0
 26 23  1  0
 23  8  1  0
  8 22  1  0
 22 11  1  0
 11 12  1  0
 11 10  2  0
 12 13  1  0
 18  6  2  0
 18 17  1  0
 10 17  1  0
 10  1  1  0
  6 19  1  0
 17  7  2  0
 19 21  1  0
 19 20  2  0
  7 20  1  0
 13  1  2  0
  1  2  1  0
 14  2  1  0
 14  3  2  0
  2  5  2  0
  3 15  1  0
  5  4  1  0
 15  4  2  0
 15 16  1  0
  3 27  1  0
  4 28  1  0
  5 29  1  0
  6 30  1  0
  7 31  1  0
  8 32  1  0
  8 33  1  0
  9 34  1  0
 12 35  1  0
 14 36  1  0
 16 37  1  0
 18 38  1  0
 20 39  1  0
 21 40  1  0
 22 41  1  0
 24 42  1  0
 25 43  1  0
A    1
C2
A    2
C7
A    3
C9
A    4
C11
A    5
C12
A    6
C16
A    7
C19
A    8
C22
A    9
C26
A   10
C3
A   11
C4
A   12
N5
A   13
N6
A   14
C8
A   15
C10
A   16
O13
A   17
C14
A   18
C15
A   19
C17
A   20
C18
A   21
O20
A   22
N21
A   23
C23
A   24
C24
A   25
N25
A   26
N27
M  END
