5IBI_69U_A_404
     RDKit          3D

 47 50  0  0  0  0  0  0  0  0999 V2000
   -7.4860   16.4240    2.8050 C   0  0  0  0  0  0  0  0  0  0  0  0
   -5.4580   13.4390    0.5000 C   0  0  0  0  0  0  0  0  0  0  0  0
   -4.7530   14.5360    0.9840 C   0  0  0  0  0  0  0  0  0  0  0  0
   -5.4120   15.5050    1.7300 C   0  0  0  0  0  0  0  0  0  0  0  0
   -9.4960   15.6930    4.0960 C   0  0  0  0  0  0  0  0  0  0  0  0
  -13.6810   17.6240    4.2610 C   0  0  0  0  0  0  0  0  0  0  0  0
  -15.0480   17.8820    4.2370 C   0  0  0  0  0  0  0  0  0  0  0  0
  -15.9520   16.8430    4.0380 C   0  0  0  0  0  0  0  0  0  0  0  0
  -15.4980   15.5460    3.8600 C   0  0  0  0  0  0  0  0  0  0  0  0
  -14.1350   15.2900    3.8900 C   0  0  0  0  0  0  0  0  0  0  0  0
  -10.2730   17.9170    2.8870 C   0  0  0  0  0  0  0  0  0  0  0  0
   -9.8310   19.0640    3.5360 C   0  0  0  0  0  0  0  0  0  0  0  0
   -9.5560   20.2150    2.8030 C   0  0  0  0  0  0  0  0  0  0  0  0
   -9.6970   20.2140    1.4200 C   0  0  0  0  0  0  0  0  0  0  0  0
  -10.3870   17.9100    1.5010 C   0  0  0  0  0  0  0  0  0  0  0  0
   -6.7700   15.3710    1.9980 C   0  0  0  0  0  0  0  0  0  0  0  0
   -7.4760   14.2770    1.5130 C   0  0  0  0  0  0  0  0  0  0  0  0
  -10.5300   16.6610    3.6520 C   0  0  0  0  0  0  0  0  0  0  0  0
   -6.8170   13.3090    0.7650 C   0  0  0  0  0  0  0  0  0  0  0  0
   -4.8160   12.4880   -0.2350 O   0  0  0  0  0  0  0  0  0  0  0  0
   -8.1530   15.8180    3.9420 N   0  0  0  0  0  0  0  0  0  0  0  0
   -9.9920   14.6500    4.7530 N   0  0  0  0  0  0  0  0  0  0  0  0
  -11.3870   14.8300    4.7620 N   0  0  0  0  0  0  0  0  0  0  0  0
  -11.7760   15.9700    4.1240 C   0  0  0  0  0  0  0  0  0  0  0  0
  -13.2230   16.3250    4.0640 C   0  0  0  0  0  0  0  0  0  0  0  0
  -10.1140   19.0600    0.7680 C   0  0  0  0  0  0  0  0  0  0  0  0
  -17.2880   17.0860    4.0180 O   0  0  0  0  0  0  0  0  0  0  0  0
   -9.4280   21.3390    0.7020 O   0  0  0  0  0  0  0  0  0  0  0  0
   -6.7564   17.1646    3.1644 H   0  0  0  0  0  0  0  0  0  0  0  0
   -8.2372   16.9143    2.1683 H   0  0  0  0  0  0  0  0  0  0  0  0
   -3.6773   14.6359    0.7768 H   0  0  0  0  0  0  0  0  0  0  0  0
   -4.8599   16.3779    2.1086 H   0  0  0  0  0  0  0  0  0  0  0  0
  -12.9665   18.4422    4.4347 H   0  0  0  0  0  0  0  0  0  0  0  0
  -15.4150   18.9097    4.3757 H   0  0  0  0  0  0  0  0  0  0  0  0
  -16.2127   14.7260    3.6962 H   0  0  0  0  0  0  0  0  0  0  0  0
  -13.7721   14.2580    3.7750 H   0  0  0  0  0  0  0  0  0  0  0  0
   -9.6986   19.0621    4.6280 H   0  0  0  0  0  0  0  0  0  0  0  0
   -9.2261   21.1283    3.3198 H   0  0  0  0  0  0  0  0  0  0  0  0
  -10.6946   16.9903    0.9819 H   0  0  0  0  0  0  0  0  0  0  0  0
   -8.5517   14.1776    1.7202 H   0  0  0  0  0  0  0  0  0  0  0  0
   -7.3708   12.4391    0.3821 H   0  0  0  0  0  0  0  0  0  0  0  0
   -4.3240   11.7592    0.2199 H   0  0  0  0  0  0  0  0  0  0  0  0
   -7.5564   15.4511    4.6972 H   0  0  0  0  0  0  0  0  0  0  0  0
   -9.4637   13.8702    5.1699 H   0  0  0  0  0  0  0  0  0  0  0  0
  -10.2280   19.0560   -0.3261 H   0  0  0  0  0  0  0  0  0  0  0  0
  -17.7874   17.1768    4.8680 H   0  0  0  0  0  0  0  0  0  0  0  0
   -9.2250   22.1878    1.1694 H   0  0  0  0  0  0  0  0  0  0  0  0
 20  2  1  0
  2 19  2  0
  2  3  1  0
 28 14  1  0
 19 17  1  0
 26 14  2  0
 26 15  1  0
  3  4  2  0
 14 13  1  0
 15 11  2  0
 17 16  2  0
  4 16  1  0
 16  1  1  0
 13 12  2  0
  1 21  1  0
 11 12  1  0
 11 18  1  0
 18  5  2  0
 18 24  1  0
  9 10  2  0
  9  8  1  0
 10 25  1  0
 21  5  1  0
 27  8  1  0
  8  7  2  0
 25 24  1  0
 25  6  2  0
  5 22  1  0
 24 23  2  0
  7  6  1  0
 22 23  1  0
  1 29  1  0
  1 30  1  0
  3 31  1  0
  4 32  1  0
  6 33  1  0
  7 34  1  0
  9 35  1  0
 10 36  1  0
 12 37  1  0
 13 38  1  0
 15 39  1  0
 17 40  1  0
 19 41  1  0
 20 42  1  0
 21 43  1  0
 22 44  1  0
 26 45  1  0
 27 46  1  0
 28 47  1  0
A    1
C1
A    2
C5
A    3
C6
A    4
C7
A    5
C10
A    6
C16
A    7
C17
A    8
C18
A    9
C19
A   10
C20
A   11
C21
A   12
C22
A   13
C23
A   14
C24
A   15
C26
A   16
C2
A   17
C3
A   18
C14
A   19
C4
A   20
O8
A   21
N9
A   22
N11
A   23
N12
A   24
C13
A   25
C15
A   26
C25
A   27
O27
A   28
O28
M  END
