5IDN_6A7_A_401
     RDKit          3D

 41 44  0  0  0  0  0  0  0  0999 V2000
   -5.6730   13.3040   -7.0670 C   0  0  0  0  0  0  0  0  0  0  0  0
   -6.0900   14.3190   -7.9240 C   0  0  0  0  0  0  0  0  0  0  0  0
   -5.8510   14.2290   -9.2910 C   0  0  0  0  0  0  0  0  0  0  0  0
   -5.1840   13.1200   -9.8120 C   0  0  0  0  0  0  0  0  0  0  0  0
   -4.7810   12.1100   -8.9470 C   0  0  0  0  0  0  0  0  0  0  0  0
   -5.0140   12.2010   -7.5860 C   0  0  0  0  0  0  0  0  0  0  0  0
   -4.9170   12.9230  -11.2930 C   0  0  0  0  0  0  0  0  0  0  0  0
   -3.7730   14.9050  -11.9450 C   0  0  0  0  0  0  0  0  0  0  0  0
   -5.1610   14.8730  -12.6340 C   0  0  0  0  0  0  0  0  0  0  0  0
   -5.8590   13.6440  -12.1800 N   0  0  0  0  0  0  0  0  0  0  0  0
   -7.8450   12.0720  -12.1410 C   0  0  0  0  0  0  0  0  0  0  0  0
   -7.9690   11.6760  -10.7860 C   0  0  0  0  0  0  0  0  0  0  0  0
   -8.6550   10.5080  -10.4650 C   0  0  0  0  0  0  0  0  0  0  0  0
   -9.2510    9.7170  -11.5520 C   0  0  0  0  0  0  0  0  0  0  0  0
   -8.4440   11.2920  -13.1310 C   0  0  0  0  0  0  0  0  0  0  0  0
   -9.8190    8.6870  -10.9640 N   0  0  0  0  0  0  0  0  0  0  0  0
   -8.9760    9.7840   -9.3000 C   0  0  0  0  0  0  0  0  0  0  0  0
   -5.9680   13.4000   -5.3570 Cl  0  0  0  0  0  0  0  0  0  0  0  0
   -3.5070   13.4050  -11.6690 C   0  0  0  0  0  0  0  0  0  0  0  0
   -7.1300   13.3040  -12.5660 C   0  0  0  0  0  0  0  0  0  0  0  0
   -7.7260   14.0450  -13.3320 O   0  0  0  0  0  0  0  0  0  0  0  0
   -9.1110   10.1660  -12.8430 N   0  0  0  0  0  0  0  0  0  0  0  0
   -9.6540    8.7280   -9.6910 N   0  0  0  0  0  0  0  0  0  0  0  0
   -8.6010   10.1390   -7.8830 C   0  0  0  0  0  0  0  0  0  0  0  0
   -6.6118   15.1977   -7.5172 H   0  0  0  0  0  0  0  0  0  0  0  0
   -6.1881   15.0328   -9.9620 H   0  0  0  0  0  0  0  0  0  0  0  0
   -4.2687   11.2241   -9.3505 H   0  0  0  0  0  0  0  0  0  0  0  0
   -4.6758   11.3971   -6.9156 H   0  0  0  0  0  0  0  0  0  0  0  0
   -5.0398   11.8408  -11.4469 H   0  0  0  0  0  0  0  0  0  0  0  0
   -3.0073   15.3294  -12.6111 H   0  0  0  0  0  0  0  0  0  0  0  0
   -3.7443   15.5310  -11.0410 H   0  0  0  0  0  0  0  0  0  0  0  0
   -5.0370   14.8520  -13.7268 H   0  0  0  0  0  0  0  0  0  0  0  0
   -5.7438   15.7680  -12.3707 H   0  0  0  0  0  0  0  0  0  0  0  0
   -7.5240   12.2904   -9.9894 H   0  0  0  0  0  0  0  0  0  0  0  0
   -8.3662   11.6115  -14.1807 H   0  0  0  0  0  0  0  0  0  0  0  0
  -10.3303    7.9433  -11.4604 H   0  0  0  0  0  0  0  0  0  0  0  0
   -3.1292   12.8900  -12.5646 H   0  0  0  0  0  0  0  0  0  0  0  0
   -2.7421   13.2132  -10.9021 H   0  0  0  0  0  0  0  0  0  0  0  0
   -9.2175    9.5554   -7.1834 H   0  0  0  0  0  0  0  0  0  0  0  0
   -7.5386    9.9080   -7.7160 H   0  0  0  0  0  0  0  0  0  0  0  0
   -8.7735   11.2125   -7.7160 H   0  0  0  0  0  0  0  0  0  0  0  0
 21 20  2  0
 15 22  2  0
 15 11  1  0
 22 14  1  0
  9 10  1  0
  9  8  1  0
 20 10  1  0
 20 11  1  0
 10  7  1  0
 11 12  2  0
  8 19  1  0
 19  7  1  0
 14 16  1  0
 14 13  2  0
  7  4  1  0
 16 23  1  0
 12 13  1  0
 13 17  1  0
  4  3  2  0
  4  5  1  0
 23 17  2  0
 17 24  1  0
  3  2  1  0
  5  6  2  0
  2  1  2  0
  6  1  1  0
  1 18  1  0
  2 25  1  0
  3 26  1  0
  5 27  1  0
  6 28  1  0
  7 29  1  0
  8 30  1  0
  8 31  1  0
  9 32  1  0
  9 33  1  0
 12 34  1  0
 15 35  1  0
 16 36  1  0
 19 37  1  0
 19 38  1  0
 24 39  1  0
 24 40  1  0
 24 41  1  0
A    1
C2
A    2
C3
A    3
C4
A    4
C5
A    5
C6
A    6
C7
A    7
C8
A    8
C11
A    9
C12
A   10
N13
A   11
C16
A   12
C17
A   13
C18
A   14
C19
A   15
C21
A   16
N22
A   17
C24
A   18
CL1
A   19
C10
A   20
C14
A   21
O15
A   22
N20
A   23
N23
A   24
C25
M  END
