5IDZ_6BM_A_501
     RDKit          3D

 22 22  0  0  0  0  0  0  0  0999 V2000
   76.5690  220.5440  -92.2620 N   0  0  0  0  0  0  0  0  0  0  0  0
   75.7930  221.3570  -91.2970 C   0  0  0  0  0  0  0  0  0  0  0  0
   74.2870  221.4890  -91.5780 C   0  0  0  0  0  0  0  0  0  0  0  0
   73.9060  221.1500  -93.0120 C   0  0  0  0  0  0  0  0  0  0  0  0
   74.4310  219.7920  -93.4240 C   0  0  0  0  0  0  0  0  0  0  0  0
   75.8800  219.8040  -93.2920 C   0  0  0  0  0  0  0  0  0  0  0  0
   77.9150  220.5640  -92.1200 O   0  0  0  0  0  0  0  0  0  0  0  0
   76.6670  219.1620  -94.0450 O   0  0  0  0  0  0  0  0  0  0  0  0
   73.4810  218.1880  -92.5260 P   0  0  0  0  0  0  0  0  0  0  0  0
   72.2800  217.9140  -93.3970 O   0  0  0  0  0  0  0  0  0  0  0  0
   74.5220  217.0880  -92.5270 O   0  0  0  0  0  0  0  0  0  0  0  0
   73.1570  218.7400  -91.1590 O   0  0  0  0  0  0  0  0  0  0  0  0
   75.9103  220.9008  -90.3030 H   0  0  0  0  0  0  0  0  0  0  0  0
   76.1982  222.3764  -91.3777 H   0  0  0  0  0  0  0  0  0  0  0  0
   73.9840  222.5264  -91.3730 H   0  0  0  0  0  0  0  0  0  0  0  0
   73.7715  220.7679  -90.9267 H   0  0  0  0  0  0  0  0  0  0  0  0
   74.3269  221.9135  -93.6828 H   0  0  0  0  0  0  0  0  0  0  0  0
   72.8083  221.1283  -93.0794 H   0  0  0  0  0  0  0  0  0  0  0  0
   74.1794  219.6189  -94.4807 H   0  0  0  0  0  0  0  0  0  0  0  0
   78.1452  220.5674  -91.1571 H   0  0  0  0  0  0  0  0  0  0  0  0
   74.7492  216.8479  -91.5938 H   0  0  0  0  0  0  0  0  0  0  0  0
   73.5141  218.1317  -90.4643 H   0  0  0  0  0  0  0  0  0  0  0  0
  8  6  2  0
  5  6  1  0
  5  4  1  0
  5  9  1  0
 10  9  2  0
  6  1  1  0
  4  3  1  0
 11  9  1  0
  9 12  1  0
  1  7  1  0
  1  2  1  0
  3  2  1  0
  2 13  1  0
  2 14  1  0
  3 15  1  0
  3 16  1  0
  4 17  1  0
  4 18  1  0
  5 19  1  0
  7 20  1  0
 11 21  1  0
 12 22  1  0
A    1
N01
A    2
C02
A    3
C03
A    4
C04
A    5
C05
A    6
C06
A    7
O07
A    8
O08
A    9
P09
A   10
O10
A   11
O11
A   12
O12
M  END
