2Q6N_1CI_A_501
     RDKit          3D

 19 20  0  0  0  0  0  0  0  0999 V2000
   90.5010  -30.2980   38.7620 C   0  0  0  0  0  0  0  0  0  0  0  0
   91.3890  -29.4300   39.3890 C   0  0  0  0  0  0  0  0  0  0  0  0
   92.6540  -29.8770   39.7530 C   0  0  0  0  0  0  0  0  0  0  0  0
   93.7700  -28.7920   40.5070 Cl  0  0  0  0  0  0  0  0  0  0  0  0
   93.0280  -31.1910   39.4960 C   0  0  0  0  0  0  0  0  0  0  0  0
   92.1390  -32.0590   38.8710 C   0  0  0  0  0  0  0  0  0  0  0  0
   90.8760  -31.6110   38.5010 C   0  0  0  0  0  0  0  0  0  0  0  0
   90.0410  -32.4240   37.8590 N   0  0  0  0  0  0  0  0  0  0  0  0
   89.3600  -32.1250   36.7570 C   0  0  0  0  0  0  0  0  0  0  0  0
   88.6460  -33.1920   36.4100 C   0  0  0  0  0  0  0  0  0  0  0  0
   88.8840  -34.1520   37.2980 N   0  0  0  0  0  0  0  0  0  0  0  0
   89.7480  -33.6780   38.1920 C   0  0  0  0  0  0  0  0  0  0  0  0
   89.5003  -29.9449   38.4722 H   0  0  0  0  0  0  0  0  0  0  0  0
   91.0907  -28.3917   39.5964 H   0  0  0  0  0  0  0  0  0  0  0  0
   94.0281  -31.5446   39.7873 H   0  0  0  0  0  0  0  0  0  0  0  0
   92.4350  -33.0991   38.6696 H   0  0  0  0  0  0  0  0  0  0  0  0
   89.3831  -31.1626   36.2248 H   0  0  0  0  0  0  0  0  0  0  0  0
   87.9761  -33.2669   35.5407 H   0  0  0  0  0  0  0  0  0  0  0  0
   90.1500  -34.2275   39.0560 H   0  0  0  0  0  0  0  0  0  0  0  0
  1  2  2  0
  1  7  1  0
  2  3  1  0
  3  4  1  0
  3  5  2  0
  5  6  1  0
  6  7  2  0
  7  8  1  0
  8  9  1  0
  8 12  1  0
  9 10  2  0
 10 11  1  0
 11 12  2  0
  1 13  1  0
  2 14  1  0
  5 15  1  0
  6 16  1  0
  9 17  1  0
 10 18  1  0
 12 19  1  0
A    1
C11
A    2
C10
A    3
C9
A    4
CL
A    5
C8
A    6
C7
A    7
C6
A    8
N1
A    9
C5
A   10
C4
A   11
N3
A   12
C2
M  END
