5IEV_R0N_A_1001
     RDKit          3D

 52 54  0  0  0  0  0  0  0  0999 V2000
  -13.7650   -9.3630  -13.9320 C   0  0  0  0  0  0  0  0  0  0  0  0
  -13.3190   -9.0850  -12.6520 C   0  0  0  0  0  0  0  0  0  0  0  0
  -11.4090  -10.4010  -13.0410 C   0  0  0  0  0  0  0  0  0  0  0  0
  -12.9960  -10.2160  -14.7280 C   0  0  0  0  0  0  0  0  0  0  0  0
   -9.9290   -9.8280  -10.4770 C   0  0  0  0  0  0  0  0  0  0  0  0
   -8.1000  -10.6610   -9.1540 C   0  0  0  0  0  0  0  0  0  0  0  0
   -8.5680  -11.6670  -11.2250 C   0  0  0  0  0  0  0  0  0  0  0  0
   -6.3780  -12.0450   -7.0700 C   0  0  0  0  0  0  0  0  0  0  0  0
   -7.2690  -13.1810   -6.4960 C   0  0  0  0  0  0  0  0  0  0  0  0
  -13.8900   -6.2760  -10.5880 C   0  0  0  0  0  0  0  0  0  0  0  0
  -13.6830   -5.4200  -11.8120 C   0  0  0  0  0  0  0  0  0  0  0  0
   -6.6310  -12.1410   -5.5700 C   0  0  0  0  0  0  0  0  0  0  0  0
   -7.1430  -10.5390   -7.7240 S   0  0  0  0  0  0  0  0  0  0  0  0
   -7.9830   -9.7990   -6.5970 N   0  0  0  0  0  0  0  0  0  0  0  0
   -6.0390   -9.6180   -8.0810 O   0  0  0  0  0  0  0  0  0  0  0  0
   -7.7770  -11.6060  -10.0980 C   0  0  0  0  0  0  0  0  0  0  0  0
   -9.1560   -9.7770   -9.3290 C   0  0  0  0  0  0  0  0  0  0  0  0
   -9.6450  -10.7960  -11.4450 C   0  0  0  0  0  0  0  0  0  0  0  0
  -10.2800  -10.9610  -12.6110 N   0  0  0  0  0  0  0  0  0  0  0  0
  -12.1420   -9.6220  -12.2560 N   0  0  0  0  0  0  0  0  0  0  0  0
  -11.8820  -10.7370  -14.2620 N   0  0  0  0  0  0  0  0  0  0  0  0
  -15.0740   -8.8200  -14.4710 C   0  0  0  0  0  0  0  0  0  0  0  0
  -15.1910   -9.2070  -15.8040 F   0  0  0  0  0  0  0  0  0  0  0  0
  -16.0750   -9.3220  -13.8000 F   0  0  0  0  0  0  0  0  0  0  0  0
  -15.1590   -7.4830  -14.2750 F   0  0  0  0  0  0  0  0  0  0  0  0
  -14.0250   -8.2760  -11.7820 O   0  0  0  0  0  0  0  0  0  0  0  0
  -13.2710   -7.6900  -10.7810 C   0  0  0  0  0  0  0  0  0  0  0  0
  -13.5820   -8.4880   -9.5160 C   0  0  0  0  0  0  0  0  0  0  0  0
  -15.2780   -6.4680  -10.2960 O   0  0  0  0  0  0  0  0  0  0  0  0
  -13.3244  -10.4532  -15.7507 H   0  0  0  0  0  0  0  0  0  0  0  0
  -10.7550   -9.1168  -10.6252 H   0  0  0  0  0  0  0  0  0  0  0  0
   -8.3452  -12.4312  -11.9841 H   0  0  0  0  0  0  0  0  0  0  0  0
   -5.5419  -12.0718   -7.7843 H   0  0  0  0  0  0  0  0  0  0  0  0
   -8.3550  -13.1726   -6.6706 H   0  0  0  0  0  0  0  0  0  0  0  0
   -7.2711  -14.2794   -6.5552 H   0  0  0  0  0  0  0  0  0  0  0  0
  -13.3997   -5.7395   -9.7623 H   0  0  0  0  0  0  0  0  0  0  0  0
  -13.4348   -4.3936  -11.5039 H   0  0  0  0  0  0  0  0  0  0  0  0
  -12.8586   -5.8321  -12.4125 H   0  0  0  0  0  0  0  0  0  0  0  0
  -14.6046   -5.4099  -12.4125 H   0  0  0  0  0  0  0  0  0  0  0  0
   -5.8141  -12.4372   -4.8955 H   0  0  0  0  0  0  0  0  0  0  0  0
   -7.0159  -11.4485   -4.8069 H   0  0  0  0  0  0  0  0  0  0  0  0
   -7.6476  -10.0945   -5.6691 H   0  0  0  0  0  0  0  0  0  0  0  0
   -7.8671   -8.7803   -6.6956 H   0  0  0  0  0  0  0  0  0  0  0  0
   -5.6203   -9.2687   -7.2547 H   0  0  0  0  0  0  0  0  0  0  0  0
   -6.9229  -12.2853   -9.9599 H   0  0  0  0  0  0  0  0  0  0  0  0
   -9.3800   -9.0318   -8.5515 H   0  0  0  0  0  0  0  0  0  0  0  0
   -9.8319  -11.6140  -13.2696 H   0  0  0  0  0  0  0  0  0  0  0  0
  -12.1928   -7.6552  -10.9960 H   0  0  0  0  0  0  0  0  0  0  0  0
  -13.3448   -7.8794   -8.6310 H   0  0  0  0  0  0  0  0  0  0  0  0
  -14.6494   -8.7535   -9.5031 H   0  0  0  0  0  0  0  0  0  0  0  0
  -12.9757   -9.4058   -9.5031 H   0  0  0  0  0  0  0  0  0  0  0  0
  -15.4094   -6.4862   -9.3149 H   0  0  0  0  0  0  0  0  0  0  0  0
 23 22  1  0
  4 21  1  0
  4  1  2  0
 22 25  1  0
 22  1  1  0
 22 24  1  0
 21  3  2  0
  1  2  1  0
  3 19  1  0
  3 20  1  0
  2 20  2  0
  2 26  1  0
 19 18  1  0
 11 10  1  0
 26 27  1  0
 18  7  1  0
 18  5  2  0
  7 16  2  0
 27 10  1  0
 27 28  1  0
 10 29  1  0
  5 17  1  0
 16  6  1  0
 17  6  2  0
  6 13  1  0
 15 13  1  0
 13  8  1  0
 13 14  1  0
  8  9  1  0
  8 12  1  0
  9 12  1  0
  4 30  1  0
  5 31  1  0
  7 32  1  0
  8 33  1  0
  9 34  1  0
  9 35  1  0
 10 36  1  0
 11 37  1  0
 11 38  1  0
 11 39  1  0
 12 40  1  0
 12 41  1  0
 14 42  1  0
 14 43  1  0
 15 44  1  0
 16 45  1  0
 17 46  1  0
 19 47  1  0
 27 48  1  0
 28 49  1  0
 28 50  1  0
 28 51  1  0
 29 52  1  0
A    1
C5
A    2
C6
A    3
C8
A    4
C10
A    5
C13
A    6
C15
A    7
C17
A    8
C21
A    9
C22
A   10
C26
A   11
C28
A   12
C23
A   13
S18
A   14
N19
A   15
O20
A   16
C16
A   17
C14
A   18
C12
A   19
N11
A   20
N7
A   21
N9
A   22
C2
A   23
F3
A   24
F4
A   25
F1
A   26
O24
A   27
C25
A   28
C29
A   29
O27
M  END
