5IEZ_6AL_A_400
     RDKit          3D

 75 79  0  0  0  0  0  0  0  0999 V2000
   13.1020  -10.4350   18.1840 C   0  0  0  0  0  0  0  0  0  0  0  0
   14.7140  -11.8340   19.3380 C   0  0  0  0  0  0  0  0  0  0  0  0
   11.0160  -10.7520   25.0880 C   0  0  0  0  0  0  0  0  0  0  0  0
   11.6410   -9.3720   25.2490 C   0  0  0  0  0  0  0  0  0  0  0  0
   11.9270   -9.0420   27.5250 C   0  0  0  0  0  0  0  0  0  0  0  0
   11.9570   -9.9230   29.8840 C   0  0  0  0  0  0  0  0  0  0  0  0
   10.9720   -9.1210   31.9340 C   0  0  0  0  0  0  0  0  0  0  0  0
    7.3850  -14.6530   27.8570 Cl  0  0  0  0  0  0  0  0  0  0  0  0
    8.4470  -13.4690   27.0790 C   0  0  0  0  0  0  0  0  0  0  0  0
    8.6900  -12.2870   27.7660 C   0  0  0  0  0  0  0  0  0  0  0  0
    9.5240  -11.3140   27.2020 C   0  0  0  0  0  0  0  0  0  0  0  0
   10.1260  -11.5020   25.9520 C   0  0  0  0  0  0  0  0  0  0  0  0
    9.8690  -12.6880   25.2770 C   0  0  0  0  0  0  0  0  0  0  0  0
   10.5230  -12.6730   24.1250 N   0  0  0  0  0  0  0  0  0  0  0  0
   11.1940  -11.5360   23.9800 C   0  0  0  0  0  0  0  0  0  0  0  0
   12.0710  -11.2280   22.8030 C   0  0  0  0  0  0  0  0  0  0  0  0
   11.6900  -11.5850   21.4760 N   0  0  0  0  0  0  0  0  0  0  0  0
   12.5610  -11.3440   20.3380 C   0  0  0  0  0  0  0  0  0  0  0  0
   12.2030  -10.5800   19.2330 C   0  0  0  0  0  0  0  0  0  0  0  0
   14.3530  -11.0600   18.2400 C   0  0  0  0  0  0  0  0  0  0  0  0
   16.0860  -12.5250   19.4240 C   0  0  0  0  0  0  0  0  0  0  0  0
   16.2430  -13.5650   20.1180 O   0  0  0  0  0  0  0  0  0  0  0  0
   17.0780  -12.0250   18.7940 O   0  0  0  0  0  0  0  0  0  0  0  0
   13.8080  -11.9750   20.3810 C   0  0  0  0  0  0  0  0  0  0  0  0
   13.1250  -10.7370   23.0560 O   0  0  0  0  0  0  0  0  0  0  0  0
   12.7740   -9.3620   26.3110 C   0  0  0  0  0  0  0  0  0  0  0  0
   12.4830   -9.8430   28.5390 O   0  0  0  0  0  0  0  0  0  0  0  0
   11.3890   -8.8480   30.6230 C   0  0  0  0  0  0  0  0  0  0  0  0
   10.3360   -8.0780   32.8370 C   0  0  0  0  0  0  0  0  0  0  0  0
   12.0940  -11.1900   30.4660 C   0  0  0  0  0  0  0  0  0  0  0  0
   11.6920  -11.4330   31.7480 C   0  0  0  0  0  0  0  0  0  0  0  0
   11.8320  -12.8350   32.3750 C   0  0  0  0  0  0  0  0  0  0  0  0
   11.1270  -10.3920   32.4860 C   0  0  0  0  0  0  0  0  0  0  0  0
   10.6000  -10.7110   34.1280 Cl  0  0  0  0  0  0  0  0  0  0  0  0
    9.0370  -13.6810   25.8270 C   0  0  0  0  0  0  0  0  0  0  0  0
    8.7920  -14.9780   24.9890 C   0  0  0  0  0  0  0  0  0  0  0  0
    9.4040  -16.2420   25.1260 C   0  0  0  0  0  0  0  0  0  0  0  0
   10.4860  -16.6660   26.1210 C   0  0  0  0  0  0  0  0  0  0  0  0
    8.8750  -17.0300   24.2070 N   0  0  0  0  0  0  0  0  0  0  0  0
    9.2640  -18.4170   24.0470 C   0  0  0  0  0  0  0  0  0  0  0  0
    7.9850  -16.3830   23.5080 N   0  0  0  0  0  0  0  0  0  0  0  0
    7.8760  -15.1590   23.9220 C   0  0  0  0  0  0  0  0  0  0  0  0
    6.9430  -14.1450   23.3240 C   0  0  0  0  0  0  0  0  0  0  0  0
   12.8302   -9.8279   17.3079 H   0  0  0  0  0  0  0  0  0  0  0  0
   12.0594   -9.0574   24.2815 H   0  0  0  0  0  0  0  0  0  0  0  0
   10.8541   -8.6821   25.5879 H   0  0  0  0  0  0  0  0  0  0  0  0
   11.9991   -7.9753   27.7837 H   0  0  0  0  0  0  0  0  0  0  0  0
   10.8572   -9.2403   27.3631 H   0  0  0  0  0  0  0  0  0  0  0  0
    8.2289  -12.1157   28.7499 H   0  0  0  0  0  0  0  0  0  0  0  0
    9.7105  -10.3807   27.7535 H   0  0  0  0  0  0  0  0  0  0  0  0
   10.5125  -13.4385   23.4359 H   0  0  0  0  0  0  0  0  0  0  0  0
   10.7723  -12.0258   21.3198 H   0  0  0  0  0  0  0  0  0  0  0  0
   11.2168  -10.0947   19.1898 H   0  0  0  0  0  0  0  0  0  0  0  0
   15.0593  -10.9377   17.4056 H   0  0  0  0  0  0  0  0  0  0  0  0
   16.2342  -13.5066   21.1062 H   0  0  0  0  0  0  0  0  0  0  0  0
   14.0749  -12.5911   21.2523 H   0  0  0  0  0  0  0  0  0  0  0  0
   13.2723  -10.3389   26.3971 H   0  0  0  0  0  0  0  0  0  0  0  0
   13.6120   -8.6770   26.1145 H   0  0  0  0  0  0  0  0  0  0  0  0
   11.2814   -7.8449   30.1845 H   0  0  0  0  0  0  0  0  0  0  0  0
   10.5034   -8.3526   33.8889 H   0  0  0  0  0  0  0  0  0  0  0  0
   10.7888   -7.0955   32.6380 H   0  0  0  0  0  0  0  0  0  0  0  0
    9.2552   -8.0307   32.6380 H   0  0  0  0  0  0  0  0  0  0  0  0
   12.5354  -12.0074   29.8769 H   0  0  0  0  0  0  0  0  0  0  0  0
   11.8234  -12.7488   33.4716 H   0  0  0  0  0  0  0  0  0  0  0  0
   10.9925  -13.4674   32.0503 H   0  0  0  0  0  0  0  0  0  0  0  0
   12.7799  -13.2889   32.0503 H   0  0  0  0  0  0  0  0  0  0  0  0
   10.1173  -16.5215   27.1473 H   0  0  0  0  0  0  0  0  0  0  0  0
   10.7316  -17.7269   25.9656 H   0  0  0  0  0  0  0  0  0  0  0  0
   11.3870  -16.0544   25.9656 H   0  0  0  0  0  0  0  0  0  0  0  0
    9.3933  -18.8781   25.0373 H   0  0  0  0  0  0  0  0  0  0  0  0
    8.4822  -18.9553   23.4911 H   0  0  0  0  0  0  0  0  0  0  0  0
   10.2117  -18.4702   23.4911 H   0  0  0  0  0  0  0  0  0  0  0  0
    6.4357  -13.5937   24.1294 H   0  0  0  0  0  0  0  0  0  0  0  0
    7.5160  -13.4413   22.7023 H   0  0  0  0  0  0  0  0  0  0  0  0
    6.1941  -14.6575   22.7023 H   0  0  0  0  0  0  0  0  0  0  0  0
  1 20  2  0
  1 19  1  0
 20  2  1  0
 23 21  2  0
 19 18  2  0
  2 21  1  0
  2 24  2  0
 21 22  1  0
 18 24  1  0
 18 17  1  0
 17 16  1  0
 16 25  2  0
 16 15  1  0
 43 42  1  0
 41 42  2  0
 41 39  1  0
 42 36  1  0
 15 14  1  0
 15  3  2  0
 40 39  1  0
 14 13  1  0
 39 37  1  0
 36 37  2  0
 36 35  1  0
  3  4  1  0
  3 12  1  0
 37 38  1  0
  4 26  1  0
 13 35  1  0
 13 12  2  0
 35  9  2  0
 12 11  1  0
 26  5  1  0
  9 10  1  0
  9  8  1  0
 11 10  2  0
  5 27  1  0
 27  6  1  0
  6 30  2  0
  6 28  1  0
 30 31  1  0
 28  7  2  0
 31 32  1  0
 31 33  2  0
  7 33  1  0
  7 29  1  0
 33 34  1  0
  1 44  1  0
  4 45  1  0
  4 46  1  0
  5 47  1  0
  5 48  1  0
 10 49  1  0
 11 50  1  0
 14 51  1  0
 17 52  1  0
 19 53  1  0
 20 54  1  0
 22 55  1  0
 24 56  1  0
 26 57  1  0
 26 58  1  0
 28 59  1  0
 29 60  1  0
 29 61  1  0
 29 62  1  0
 30 63  1  0
 32 64  1  0
 32 65  1  0
 32 66  1  0
 38 67  1  0
 38 68  1  0
 38 69  1  0
 40 70  1  0
 40 71  1  0
 40 72  1  0
 43 73  1  0
 43 74  1  0
 43 75  1  0
A    1
C13
A    2
C15
A    3
C21
A    4
C22
A    5
C24
A    6
C26
A    7
C28
A    8
CL
A    9
C02
A   10
C03
A   11
C04
A   12
C05
A   13
C06
A   14
N07
A   15
C08
A   16
C09
A   17
N10
A   18
C11
A   19
C12
A   20
C14
A   21
C16
A   22
O17
A   23
O18
A   24
C19
A   25
O20
A   26
C23
A   27
O25
A   28
C27
A   29
C29
A   30
C30
A   31
C31
A   32
C32
A   33
C33
A   34
CL2
A   35
C35
A   36
C36
A   37
C37
A   38
C38
A   39
N39
A   40
C40
A   41
N41
A   42
C42
A   43
C43
M  END
