5IF8_6AX_A_801
     RDKit          3D

 22 23  0  0  0  0  0  0  0  0999 V2000
  -30.5320  -43.7860   62.3800 C   0  0  0  0  0  0  0  0  0  0  0  0
  -27.0190  -51.4210   60.3060 N   0  0  0  0  0  0  0  0  0  0  0  0
  -27.6000  -50.1210   60.6060 C   0  0  0  0  0  0  0  0  0  0  0  0
  -26.9560  -49.0550   61.0570 N   0  0  0  0  0  0  0  0  0  0  0  0
  -27.8720  -48.0470   61.2060 N   0  0  0  0  0  0  0  0  0  0  0  0
  -29.0560  -48.5140   60.8410 C   0  0  0  0  0  0  0  0  0  0  0  0
  -30.4030  -47.7920   60.8200 C   0  0  0  0  0  0  0  0  0  0  0  0
  -30.4190  -46.3780   61.4010 C   0  0  0  0  0  0  0  0  0  0  0  0
  -30.0300  -46.1200   62.7080 C   0  0  0  0  0  0  0  0  0  0  0  0
  -30.0800  -44.8190   63.1940 C   0  0  0  0  0  0  0  0  0  0  0  0
  -30.6140  -42.1120   62.9870 Cl  0  0  0  0  0  0  0  0  0  0  0  0
  -30.9250  -44.0460   61.0800 C   0  0  0  0  0  0  0  0  0  0  0  0
  -30.8770  -45.3430   60.6000 C   0  0  0  0  0  0  0  0  0  0  0  0
  -28.8980  -49.7960   60.4700 O   0  0  0  0  0  0  0  0  0  0  0  0
  -26.7383  -52.0490   61.0727 H   0  0  0  0  0  0  0  0  0  0  0  0
  -26.8884  -51.7132   59.3270 H   0  0  0  0  0  0  0  0  0  0  0  0
  -30.7337  -47.7285   59.7728 H   0  0  0  0  0  0  0  0  0  0  0  0
  -31.0652  -48.3846   61.4683 H   0  0  0  0  0  0  0  0  0  0  0  0
  -29.6844  -46.9398   63.3549 H   0  0  0  0  0  0  0  0  0  0  0  0
  -29.7613  -44.6058   64.2250 H   0  0  0  0  0  0  0  0  0  0  0  0
  -31.2732  -43.2280   60.4323 H   0  0  0  0  0  0  0  0  0  0  0  0
  -31.2057  -45.5552   59.5719 H   0  0  0  0  0  0  0  0  0  0  0  0
  2  3  1  0
 14  3  1  0
 14  6  1  0
 13 12  1  0
 13  8  2  0
  3  4  2  0
  7  6  1  0
  7  8  1  0
  6  5  2  0
  4  5  1  0
 12  1  2  0
  8  9  1  0
  1 11  1  0
  1 10  1  0
  9 10  2  0
  2 15  1  0
  2 16  1  0
  7 17  1  0
  7 18  1  0
  9 19  1  0
 10 20  1  0
 12 21  1  0
 13 22  1  0
A    1
C10
A    2
N01
A    3
C02
A    4
N03
A    5
N04
A    6
C05
A    7
C06
A    8
C07
A    9
C08
A   10
C09
A   11
CL
A   12
C12
A   13
C13
A   14
O14
M  END
