5IH5_AUE_A_302
     RDKit          3D

 30 32  0  0  0  0  0  0  0  0999 V2000
  -43.6830   18.7980    2.7210 N   0  0  0  0  0  0  0  0  0  0  0  0
  -44.5490   19.8050    3.0180 C   0  0  0  0  0  0  0  0  0  0  0  0
  -44.2960   21.0690    2.6860 N   0  0  0  0  0  0  0  0  0  0  0  0
  -43.1350   21.3980    1.9930 C   0  0  0  0  0  0  0  0  0  0  0  0
  -42.2240   20.3800    1.6710 C   0  0  0  0  0  0  0  0  0  0  0  0
  -42.5090   19.0310    2.0590 C   0  0  0  0  0  0  0  0  0  0  0  0
  -42.8770   22.7290    1.6480 N   0  0  0  0  0  0  0  0  0  0  0  0
  -41.6980   23.0310    0.9900 C   0  0  0  0  0  0  0  0  0  0  0  0
  -40.7680   21.9520    0.7090 C   0  0  0  0  0  0  0  0  0  0  0  0
  -41.0710   20.6590    1.0250 N   0  0  0  0  0  0  0  0  0  0  0  0
  -39.5130   22.1740   -0.1130 C   0  0  0  0  0  0  0  0  0  0  0  0
  -38.5520   23.2150   -0.0800 C   0  0  0  0  0  0  0  0  0  0  0  0
  -37.5090   23.2010   -1.0230 C   0  0  0  0  0  0  0  0  0  0  0  0
  -37.4850   22.1750   -2.0100 C   0  0  0  0  0  0  0  0  0  0  0  0
  -38.5030   21.1440   -2.0800 C   0  0  0  0  0  0  0  0  0  0  0  0
  -39.4830   21.2120   -1.1210 C   0  0  0  0  0  0  0  0  0  0  0  0
  -41.5760   18.0470    1.7120 N   0  0  0  0  0  0  0  0  0  0  0  0
  -45.7390   19.5630    3.7210 N   0  0  0  0  0  0  0  0  0  0  0  0
  -41.4090   24.4150    0.6230 N   0  0  0  0  0  0  0  0  0  0  0  0
  -38.8100   19.7350   -3.1780 Cl  0  0  0  0  0  0  0  0  0  0  0  0
  -38.6206   24.0181    0.6685 H   0  0  0  0  0  0  0  0  0  0  0  0
  -36.7237   23.9709   -0.9986 H   0  0  0  0  0  0  0  0  0  0  0  0
  -36.6664   22.1638   -2.7447 H   0  0  0  0  0  0  0  0  0  0  0  0
  -40.2900   20.4651   -1.1498 H   0  0  0  0  0  0  0  0  0  0  0  0
  -41.0806   17.5245    2.4485 H   0  0  0  0  0  0  0  0  0  0  0  0
  -41.3849   17.8454    0.7202 H   0  0  0  0  0  0  0  0  0  0  0  0
  -45.7378   19.5632    4.7510 H   0  0  0  0  0  0  0  0  0  0  0  0
  -46.6137   19.3851    3.2070 H   0  0  0  0  0  0  0  0  0  0  0  0
  -41.2613   25.1223    1.3570 H   0  0  0  0  0  0  0  0  0  0  0  0
  -41.3529   24.6836   -0.3698 H   0  0  0  0  0  0  0  0  0  0  0  0
 20 15  1  0
 15 14  2  0
 15 16  1  0
 14 13  1  0
 16 11  2  0
 13 12  2  0
 11 12  1  0
 11  9  1  0
 19  8  1  0
  9  8  2  0
  9 10  1  0
  8  7  1  0
 10  5  2  0
  7  4  2  0
  5  4  1  0
  5  6  1  0
 17  6  1  0
  4  3  1  0
  6  1  2  0
  3  2  2  0
  1  2  1  0
  2 18  1  0
 12 21  1  0
 13 22  1  0
 14 23  1  0
 16 24  1  0
 17 25  1  0
 17 26  1  0
 18 27  1  0
 18 28  1  0
 19 29  1  0
 19 30  1  0
A    1
N01
A    2
C02
A    3
N03
A    4
C04
A    5
C05
A    6
C06
A    7
N07
A    8
C08
A    9
C09
A   10
N10
A   11
C11
A   12
C12
A   13
C13
A   14
C14
A   15
C15
A   16
C16
A   17
N17
A   18
N18
A   19
N19
A   20
CL
M  END
