5IH8_6BJ_A_401
     RDKit          3D

 44 47  0  0  0  0  0  0  0  0999 V2000
   -4.0610   -8.0980    2.3020 C   0  0  0  0  0  0  0  0  0  0  0  0
   -3.2730   -8.9690    1.6100 C   0  0  0  0  0  0  0  0  0  0  0  0
   -3.9930   -6.8740    1.5920 C   0  0  0  0  0  0  0  0  0  0  0  0
    1.6090  -10.8450   -3.5030 O   0  0  0  0  0  0  0  0  0  0  0  0
   -0.2720   -9.6540   -2.6460 C   0  0  0  0  0  0  0  0  0  0  0  0
   -1.0960   -8.5080   -2.8170 C   0  0  0  0  0  0  0  0  0  0  0  0
   -0.2710  -10.3080   -1.3830 C   0  0  0  0  0  0  0  0  0  0  0  0
   -1.9450   -8.0600   -1.7820 C   0  0  0  0  0  0  0  0  0  0  0  0
    0.6660  -10.0890   -3.7500 C   0  0  0  0  0  0  0  0  0  0  0  0
    1.2460   -9.8230   -6.1670 C   0  0  0  0  0  0  0  0  0  0  0  0
    0.9150  -11.1020   -6.9280 C   0  0  0  0  0  0  0  0  0  0  0  0
    0.5820  -12.3070   -6.2600 C   0  0  0  0  0  0  0  0  0  0  0  0
    0.2910  -13.4510   -7.0400 C   0  0  0  0  0  0  0  0  0  0  0  0
    0.3640  -13.3510   -8.4470 C   0  0  0  0  0  0  0  0  0  0  0  0
    0.7030  -12.1120   -9.0380 C   0  0  0  0  0  0  0  0  0  0  0  0
   -2.7740   -8.2660    0.5330 N   0  0  0  0  0  0  0  0  0  0  0  0
   -3.2230   -6.9870    0.5330 N   0  0  0  0  0  0  0  0  0  0  0  0
   -6.1480   -7.6080    5.4140 C   0  0  0  0  0  0  0  0  0  0  0  0
   -6.2070   -8.8580    5.9240 N   0  0  0  0  0  0  0  0  0  0  0  0
   -5.5730   -9.8640    5.2820 C   0  0  0  0  0  0  0  0  0  0  0  0
   -4.8440   -9.6700    4.0890 C   0  0  0  0  0  0  0  0  0  0  0  0
   -4.8040   -8.3600    3.5360 C   0  0  0  0  0  0  0  0  0  0  0  0
   -5.4460   -7.3060    4.2290 C   0  0  0  0  0  0  0  0  0  0  0  0
   -1.9540   -8.7330   -0.5290 C   0  0  0  0  0  0  0  0  0  0  0  0
   -1.0920   -9.8420   -0.3270 C   0  0  0  0  0  0  0  0  0  0  0  0
    0.4440   -9.5930   -4.9770 N   0  0  0  0  0  0  0  0  0  0  0  0
    0.9810  -11.0110   -8.2940 N   0  0  0  0  0  0  0  0  0  0  0  0
   -3.0747  -10.0216    1.8603 H   0  0  0  0  0  0  0  0  0  0  0  0
   -4.5150   -5.9520    1.8876 H   0  0  0  0  0  0  0  0  0  0  0  0
   -1.0715   -7.9616   -3.7714 H   0  0  0  0  0  0  0  0  0  0  0  0
    0.3741  -11.1848   -1.2246 H   0  0  0  0  0  0  0  0  0  0  0  0
   -2.5993   -7.1908   -1.9445 H   0  0  0  0  0  0  0  0  0  0  0  0
    2.3022   -9.8700   -5.8632 H   0  0  0  0  0  0  0  0  0  0  0  0
    1.0261   -8.9911   -6.8523 H   0  0  0  0  0  0  0  0  0  0  0  0
    0.5506  -12.3517   -5.1614 H   0  0  0  0  0  0  0  0  0  0  0  0
    0.0131  -14.4007   -6.5596 H   0  0  0  0  0  0  0  0  0  0  0  0
    0.1590  -14.2290   -9.0772 H   0  0  0  0  0  0  0  0  0  0  0  0
    0.7427  -12.0379  -10.1348 H   0  0  0  0  0  0  0  0  0  0  0  0
   -6.6672   -6.7954    5.9433 H   0  0  0  0  0  0  0  0  0  0  0  0
   -5.6274  -10.8771    5.7072 H   0  0  0  0  0  0  0  0  0  0  0  0
   -4.3224  -10.5068    3.6015 H   0  0  0  0  0  0  0  0  0  0  0  0
   -5.3983   -6.2739    3.8514 H   0  0  0  0  0  0  0  0  0  0  0  0
   -1.0613  -10.3413    0.6527 H   0  0  0  0  0  0  0  0  0  0  0  0
   -0.3808   -8.9860   -5.0869 H   0  0  0  0  0  0  0  0  0  0  0  0
 15 14  2  0
 15 27  1  0
 14 13  1  0
 27 11  2  0
 13 12  2  0
 11 12  1  0
 11 10  1  0
 10 26  1  0
 26  9  1  0
  9  4  2  0
  9  5  1  0
  6  5  2  0
  6  8  1  0
  5  7  1  0
  8 24  2  0
  7 25  2  0
 24 25  1  0
 24 16  1  0
 17 16  1  0
 17  3  2  0
 16  2  1  0
  3  1  1  0
  2  1  2  0
  1 22  1  0
 22 21  2  0
 22 23  1  0
 21 20  1  0
 23 18  2  0
 20 19  2  0
 18 19  1  0
  2 28  1  0
  3 29  1  0
  6 30  1  0
  7 31  1  0
  8 32  1  0
 10 33  1  0
 10 34  1  0
 12 35  1  0
 13 36  1  0
 14 37  1  0
 15 38  1  0
 18 39  1  0
 20 40  1  0
 21 41  1  0
 23 42  1  0
 25 43  1  0
 26 44  1  0
A    1
C1
A    2
C2
A    3
C3
A    4
O1
A    5
C11
A    6
C12
A    7
C13
A    8
C14
A    9
C15
A   10
C16
A   11
C17
A   12
C18
A   13
C19
A   14
C20
A   15
C21
A   16
N1
A   17
N2
A   18
C4
A   19
N3
A   20
C5
A   21
C6
A   22
C7
A   23
C8
A   24
C9
A   25
C10
A   26
N4
A   27
N5
M  END
