5IHA_6BE_A_401
     RDKit          3D

 58 61  0  0  0  0  0  0  0  0999 V2000
   -6.8900   -7.6560    5.1300 C   0  0  0  0  0  0  0  0  0  0  0  0
   -6.0550   -9.8120    5.3410 C   0  0  0  0  0  0  0  0  0  0  0  0
   -5.3280   -9.7230    4.1170 C   0  0  0  0  0  0  0  0  0  0  0  0
   -4.5140  -10.7320    3.6350 O   0  0  0  0  0  0  0  0  0  0  0  0
   -1.7880   -8.8950   -3.0410 C   0  0  0  0  0  0  0  0  0  0  0  0
   -0.8900   -9.9810   -2.8330 C   0  0  0  0  0  0  0  0  0  0  0  0
   -0.8630  -10.5740   -1.5350 C   0  0  0  0  0  0  0  0  0  0  0  0
   -1.6700  -10.0550   -0.4870 C   0  0  0  0  0  0  0  0  0  0  0  0
    1.3850  -10.5260   -3.6050 C   0  0  0  0  0  0  0  0  0  0  0  0
    2.2710  -10.9710   -4.8050 C   0  0  0  0  0  0  0  0  0  0  0  0
    0.4780  -10.7420   -6.3600 C   0  0  0  0  0  0  0  0  0  0  0  0
   -0.4890  -10.2020   -5.2820 C   0  0  0  0  0  0  0  0  0  0  0  0
    2.7430  -10.4980   -7.1380 C   0  0  0  0  0  0  0  0  0  0  0  0
   -4.0960  -11.8270    4.4690 C   0  0  0  0  0  0  0  0  0  0  0  0
   -3.0080  -12.6520    3.7630 C   0  0  0  0  0  0  0  0  0  0  0  0
   -3.6110  -13.5010    2.6340 C   0  0  0  0  0  0  0  0  0  0  0  0
   -1.8050  -11.8230    3.2670 C   0  0  0  0  0  0  0  0  0  0  0  0
   -6.8030   -8.8070    5.8360 N   0  0  0  0  0  0  0  0  0  0  0  0
   -5.4350   -8.5070    3.3690 C   0  0  0  0  0  0  0  0  0  0  0  0
   -6.2090   -7.4500    3.9200 C   0  0  0  0  0  0  0  0  0  0  0  0
   -4.6970   -8.2720    2.1050 C   0  0  0  0  0  0  0  0  0  0  0  0
   -3.9930   -9.1620    1.3440 C   0  0  0  0  0  0  0  0  0  0  0  0
   -3.4270   -8.4780    0.2980 N   0  0  0  0  0  0  0  0  0  0  0  0
   -3.7810   -7.1660    0.3570 N   0  0  0  0  0  0  0  0  0  0  0  0
   -4.5260   -7.0310    1.4350 C   0  0  0  0  0  0  0  0  0  0  0  0
   -2.5680   -8.9790   -0.7200 C   0  0  0  0  0  0  0  0  0  0  0  0
   -2.6030   -8.4000   -2.0070 C   0  0  0  0  0  0  0  0  0  0  0  0
   -0.0740  -10.4870   -3.8860 N   0  0  0  0  0  0  0  0  0  0  0  0
    1.8280  -10.2780   -6.0260 N   0  0  0  0  0  0  0  0  0  0  0  0
   -7.5225   -6.8457    5.5217 H   0  0  0  0  0  0  0  0  0  0  0  0
   -6.0020  -10.7513    5.9110 H   0  0  0  0  0  0  0  0  0  0  0  0
   -1.8456   -8.4311   -4.0367 H   0  0  0  0  0  0  0  0  0  0  0  0
   -0.2120  -11.4400   -1.3444 H   0  0  0  0  0  0  0  0  0  0  0  0
   -1.5984  -10.4928    0.5196 H   0  0  0  0  0  0  0  0  0  0  0  0
    1.5548  -11.2285   -2.7757 H   0  0  0  0  0  0  0  0  0  0  0  0
    1.6817   -9.4936   -3.3682 H   0  0  0  0  0  0  0  0  0  0  0  0
    2.1780  -12.0579   -4.9461 H   0  0  0  0  0  0  0  0  0  0  0  0
    3.3212  -10.7163   -4.5995 H   0  0  0  0  0  0  0  0  0  0  0  0
    0.1856  -10.3606   -7.3495 H   0  0  0  0  0  0  0  0  0  0  0  0
    0.4461  -11.8412   -6.3880 H   0  0  0  0  0  0  0  0  0  0  0  0
   -0.5636   -9.1112   -5.4025 H   0  0  0  0  0  0  0  0  0  0  0  0
   -1.4484  -10.7178   -5.4351 H   0  0  0  0  0  0  0  0  0  0  0  0
    3.7430  -10.7384   -6.7479 H   0  0  0  0  0  0  0  0  0  0  0  0
    2.3785  -11.3341   -7.7529 H   0  0  0  0  0  0  0  0  0  0  0  0
    2.7984   -9.5876   -7.7529 H   0  0  0  0  0  0  0  0  0  0  0  0
   -3.6950  -11.4309    5.4136 H   0  0  0  0  0  0  0  0  0  0  0  0
   -4.9623  -12.4748    4.6688 H   0  0  0  0  0  0  0  0  0  0  0  0
   -2.5955  -13.3225    4.5313 H   0  0  0  0  0  0  0  0  0  0  0  0
   -4.1964  -14.3252    3.0676 H   0  0  0  0  0  0  0  0  0  0  0  0
   -4.2665  -12.8728    2.0129 H   0  0  0  0  0  0  0  0  0  0  0  0
   -2.8020  -13.9130    2.0129 H   0  0  0  0  0  0  0  0  0  0  0  0
   -1.2446  -11.4368    4.1312 H   0  0  0  0  0  0  0  0  0  0  0  0
   -1.1467  -12.4601    2.6581 H   0  0  0  0  0  0  0  0  0  0  0  0
   -2.1660  -10.9810    2.6581 H   0  0  0  0  0  0  0  0  0  0  0  0
   -6.2737   -6.4808    3.4037 H   0  0  0  0  0  0  0  0  0  0  0  0
   -3.8967  -10.2407    1.5367 H   0  0  0  0  0  0  0  0  0  0  0  0
   -4.9604   -6.0787    1.7733 H   0  0  0  0  0  0  0  0  0  0  0  0
   -3.2754   -7.5519   -2.2035 H   0  0  0  0  0  0  0  0  0  0  0  0
 13 29  1  0
 11 29  1  0
 11 12  1  0
 29 10  1  0
 12 28  1  0
 10  9  1  0
 28  9  1  0
 28  6  1  0
  5  6  2  0
  5 27  1  0
  6  7  1  0
 27 26  2  0
  7  8  2  0
 26  8  1  0
 26 23  1  0
 23 24  1  0
 23 22  1  0
 24 25  2  0
 22 21  2  0
 25 21  1  0
 21 19  1  0
 16 15  1  0
 17 15  1  0
 19 20  1  0
 19  3  2  0
  4  3  1  0
  4 14  1  0
 15 14  1  0
 20  1  2  0
  3  2  1  0
  1 18  1  0
  2 18  2  0
  1 30  1  0
  2 31  1  0
  5 32  1  0
  7 33  1  0
  8 34  1  0
  9 35  1  0
  9 36  1  0
 10 37  1  0
 10 38  1  0
 11 39  1  0
 11 40  1  0
 12 41  1  0
 12 42  1  0
 13 43  1  0
 13 44  1  0
 13 45  1  0
 14 46  1  0
 14 47  1  0
 15 48  1  0
 16 49  1  0
 16 50  1  0
 16 51  1  0
 17 52  1  0
 17 53  1  0
 17 54  1  0
 20 55  1  0
 22 56  1  0
 25 57  1  0
 27 58  1  0
A    1
C1
A    2
C2
A    3
C3
A    4
O1
A    5
C11
A    6
C12
A    7
C13
A    8
C14
A    9
C15
A   10
C16
A   11
C17
A   12
C18
A   13
C19
A   14
C20
A   15
C21
A   16
C22
A   17
C23
A   18
N1
A   19
C4
A   20
C5
A   21
C6
A   22
C7
A   23
N2
A   24
N3
A   25
C8
A   26
C9
A   27
C10
A   28
N4
A   29
N5
M  END
