5IJ7_6BN_A_9001
     RDKit          3D

 67 70  0  0  0  0  0  0  0  0999 V2000
   30.3620    4.4240  203.0880 C   0  0  0  0  0  0  0  0  0  0  0  0
   31.3080    4.4550  204.1370 C   0  0  0  0  0  0  0  0  0  0  0  0
   31.1030    5.3240  205.2020 C   0  0  0  0  0  0  0  0  0  0  0  0
   32.4930    3.5910  203.9680 C   0  0  0  0  0  0  0  0  0  0  0  0
   30.9950    2.0570  202.6890 C   0  0  0  0  0  0  0  0  0  0  0  0
   33.0550    0.1080  203.7450 C   0  0  0  0  0  0  0  0  0  0  0  0
   32.6630   -1.4400  205.5510 C   0  0  0  0  0  0  0  0  0  0  0  0
   31.8810   -3.7930  205.0730 C   0  0  0  0  0  0  0  0  0  0  0  0
   33.4550    0.8820  206.1480 C   0  0  0  0  0  0  0  0  0  0  0  0
   33.1680    0.5000  207.6070 C   0  0  0  0  0  0  0  0  0  0  0  0
   29.1390    8.2480  206.3250 C   0  0  0  0  0  0  0  0  0  0  0  0
   29.1540   10.7090  205.9930 C   0  0  0  0  0  0  0  0  0  0  0  0
   30.0370    6.2250  205.2120 C   0  0  0  0  0  0  0  0  0  0  0  0
   29.1260    6.2410  204.1700 C   0  0  0  0  0  0  0  0  0  0  0  0
   29.3020    5.3450  203.1330 C   0  0  0  0  0  0  0  0  0  0  0  0
   32.1090    5.2490  206.5980 Cl  0  0  0  0  0  0  0  0  0  0  0  0
   32.2620    2.3790  203.3640 N   0  0  0  0  0  0  0  0  0  0  0  0
   30.3940    3.3020  202.0750 C   0  0  0  0  0  0  0  0  0  0  0  0
   33.3660    1.4580  203.1490 C   0  0  0  0  0  0  0  0  0  0  0  0
   33.0580   -0.1310  205.0970 C   0  0  0  0  0  0  0  0  0  0  0  0
   32.3070   -2.4180  204.6720 C   0  0  0  0  0  0  0  0  0  0  0  0
   32.3310   -2.1540  203.3290 N   0  0  0  0  0  0  0  0  0  0  0  0
   32.6850   -0.9290  202.7820 C   0  0  0  0  0  0  0  0  0  0  0  0
   32.6260   -0.7730  201.5550 O   0  0  0  0  0  0  0  0  0  0  0  0
   33.6080    3.9460  204.3380 O   0  0  0  0  0  0  0  0  0  0  0  0
   28.1390    5.3680  201.8480 Cl  0  0  0  0  0  0  0  0  0  0  0  0
   30.0280    7.1160  206.2460 O   0  0  0  0  0  0  0  0  0  0  0  0
   29.8800    9.4130  205.7000 C   0  0  0  0  0  0  0  0  0  0  0  0
   28.9260   10.8960  207.4380 N   0  0  0  0  0  0  0  0  0  0  0  0
   28.2100    9.7690  208.0570 C   0  0  0  0  0  0  0  0  0  0  0  0
   28.9240    8.4540  207.8070 C   0  0  0  0  0  0  0  0  0  0  0  0
   29.1680   11.9940  208.1930 C   0  0  0  0  0  0  0  0  0  0  0  0
   29.6890   13.2760  207.5650 C   0  0  0  0  0  0  0  0  0  0  0  0
   28.7000   13.8240  206.5600 C   0  0  0  0  0  0  0  0  0  0  0  0
   29.8550   14.2270  208.6050 O   0  0  0  0  0  0  0  0  0  0  0  0
   28.9820   11.9940  209.3960 O   0  0  0  0  0  0  0  0  0  0  0  0
   30.2901    1.6377  203.4220 H   0  0  0  0  0  0  0  0  0  0  0  0
   31.1911    1.3248  201.8919 H   0  0  0  0  0  0  0  0  0  0  0  0
   32.6486   -1.6542  206.6298 H   0  0  0  0  0  0  0  0  0  0  0  0
   31.8588   -3.8645  206.1704 H   0  0  0  0  0  0  0  0  0  0  0  0
   30.8774   -3.9975  204.6719 H   0  0  0  0  0  0  0  0  0  0  0  0
   32.5932   -4.5291  204.6719 H   0  0  0  0  0  0  0  0  0  0  0  0
   34.5372    1.0551  206.0540 H   0  0  0  0  0  0  0  0  0  0  0  0
   32.8332    1.7675  205.9500 H   0  0  0  0  0  0  0  0  0  0  0  0
   33.6915    1.1967  208.2782 H   0  0  0  0  0  0  0  0  0  0  0  0
   32.0854    0.5543  207.7941 H   0  0  0  0  0  0  0  0  0  0  0  0
   33.5215   -0.5247  207.7941 H   0  0  0  0  0  0  0  0  0  0  0  0
   28.1739    8.1281  205.8109 H   0  0  0  0  0  0  0  0  0  0  0  0
   29.7577   11.5480  205.6165 H   0  0  0  0  0  0  0  0  0  0  0  0
   28.1740   10.6714  205.4949 H   0  0  0  0  0  0  0  0  0  0  0  0
   28.2838    6.9486  204.1676 H   0  0  0  0  0  0  0  0  0  0  0  0
   31.0015    3.6102  201.2113 H   0  0  0  0  0  0  0  0  0  0  0  0
   29.3656    3.0814  201.7530 H   0  0  0  0  0  0  0  0  0  0  0  0
   33.5374    1.3452  202.0683 H   0  0  0  0  0  0  0  0  0  0  0  0
   34.2652    1.8623  203.6368 H   0  0  0  0  0  0  0  0  0  0  0  0
   32.0697   -2.9129  202.6836 H   0  0  0  0  0  0  0  0  0  0  0  0
   29.9370    9.2660  204.6114 H   0  0  0  0  0  0  0  0  0  0  0  0
   30.8936    9.4643  206.1244 H   0  0  0  0  0  0  0  0  0  0  0  0
   28.1439    9.9396  209.1417 H   0  0  0  0  0  0  0  0  0  0  0  0
   27.2071    9.7086  207.6091 H   0  0  0  0  0  0  0  0  0  0  0  0
   28.3143    7.6288  208.2035 H   0  0  0  0  0  0  0  0  0  0  0  0
   29.9015    8.4758  208.3110 H   0  0  0  0  0  0  0  0  0  0  0  0
   30.6371   13.0725  207.0457 H   0  0  0  0  0  0  0  0  0  0  0  0
   27.8576   14.2908  207.0916 H   0  0  0  0  0  0  0  0  0  0  0  0
   29.1969   14.5755  205.9288 H   0  0  0  0  0  0  0  0  0  0  0  0
   28.3263   13.0043  205.9288 H   0  0  0  0  0  0  0  0  0  0  0  0
   29.7760   13.7743  209.4819 H   0  0  0  0  0  0  0  0  0  0  0  0
 24 23  2  0
 26 15  1  0
 18  5  1  0
 18  1  1  0
  5 17  1  0
 23 22  1  0
 23  6  1  0
  1 15  2  0
  1  2  1  0
 15 14  1  0
 19 17  1  0
 19  6  1  0
 17  4  1  0
 22 21  1  0
  6 20  2  0
  4  2  1  0
  4 25  2  0
 14 13  2  0
  2  3  2  0
 21  8  1  0
 21  7  2  0
 13  3  1  0
 13 27  1  0
  3 16  1  0
 20  7  1  0
 20  9  1  0
 28 12  1  0
 28 11  1  0
 12 29  1  0
 27 11  1  0
  9 10  1  0
 11 31  1  0
 34 33  1  0
 33 35  1  0
 33 32  1  0
 29 32  1  0
 29 30  1  0
 31 30  1  0
 32 36  2  0
  5 37  1  0
  5 38  1  0
  7 39  1  0
  8 40  1  0
  8 41  1  0
  8 42  1  0
  9 43  1  0
  9 44  1  0
 10 45  1  0
 10 46  1  0
 10 47  1  0
 11 48  1  0
 12 49  1  0
 12 50  1  0
 14 51  1  0
 18 52  1  0
 18 53  1  0
 19 54  1  0
 19 55  1  0
 22 56  1  0
 28 57  1  0
 28 58  1  0
 30 59  1  0
 30 60  1  0
 31 61  1  0
 31 62  1  0
 33 63  1  0
 34 64  1  0
 34 65  1  0
 34 66  1  0
 35 67  1  0
A    1
C4
A    2
C5
A    3
C6
A    4
C8
A    5
C10
A    6
C13
A    7
C15
A    8
C20
A    9
C21
A   10
C22
A   11
C26
A   12
C28
A   13
C1
A   14
C2
A   15
C3
A   16
CL7
A   17
N9
A   18
C11
A   19
C12
A   20
C14
A   21
C16
A   22
N17
A   23
C18
A   24
O19
A   25
O23
A   26
CL
A   27
O25
A   28
C27
A   29
N29
A   30
C30
A   31
C31
A   32
C32
A   33
C33
A   34
C34
A   35
O35
A   36
O36
M  END
