5IKI_A9H_B_502
     RDKit          3D

 52 54  0  0  0  0  0  0  0  0999 V2000
  -12.8260   -3.4790  -19.1090 O   0  0  0  0  0  0  0  0  0  0  0  0
  -11.8790   -2.7900  -18.6610 C   0  0  0  0  0  0  0  0  0  0  0  0
  -11.3700   -2.9090  -17.5320 O   0  0  0  0  0  0  0  0  0  0  0  0
  -11.3390   -1.6560  -19.5270 C   0  0  0  0  0  0  0  0  0  0  0  0
  -11.7340   -1.9350  -21.0030 C   0  0  0  0  0  0  0  0  0  0  0  0
   -9.8130   -1.6510  -19.4370 C   0  0  0  0  0  0  0  0  0  0  0  0
   -9.2690   -0.3870  -20.0790 C   0  0  0  0  0  0  0  0  0  0  0  0
   -9.7770    0.8630  -19.3260 C   0  0  0  0  0  0  0  0  0  0  0  0
  -11.2970    1.0140  -19.3870 C   0  0  0  0  0  0  0  0  0  0  0  0
  -11.7330    1.3870  -20.8270 C   0  0  0  0  0  0  0  0  0  0  0  0
  -11.9450   -0.3100  -18.8830 C   0  0  0  0  0  0  0  0  0  0  0  0
  -13.4460   -0.2410  -18.9780 C   0  0  0  0  0  0  0  0  0  0  0  0
  -13.9120    1.0030  -18.4800 C   0  0  0  0  0  0  0  0  0  0  0  0
  -13.1380    2.1400  -18.2150 C   0  0  0  0  0  0  0  0  0  0  0  0
  -13.7650    3.2950  -17.7570 C   0  0  0  0  0  0  0  0  0  0  0  0
  -11.7370    2.1360  -18.3490 C   0  0  0  0  0  0  0  0  0  0  0  0
  -11.2290    3.5280  -18.6990 C   0  0  0  0  0  0  0  0  0  0  0  0
  -11.5990    4.4720  -17.6180 C   0  0  0  0  0  0  0  0  0  0  0  0
  -13.0220    4.4530  -17.4740 C   0  0  0  0  0  0  0  0  0  0  0  0
  -13.6980    5.6030  -16.9840 C   0  0  0  0  0  0  0  0  0  0  0  0
  -14.3820    5.3110  -15.6290 C   0  0  0  0  0  0  0  0  0  0  0  0
  -14.7260    6.1100  -18.0050 C   0  0  0  0  0  0  0  0  0  0  0  0
  -13.4476   -3.9312  -18.4851 H   0  0  0  0  0  0  0  0  0  0  0  0
  -12.6322   -2.5694  -21.0285 H   0  0  0  0  0  0  0  0  0  0  0  0
  -11.9429   -0.9830  -21.5129 H   0  0  0  0  0  0  0  0  0  0  0  0
  -10.9066   -2.4502  -21.5129 H   0  0  0  0  0  0  0  0  0  0  0  0
   -9.4124   -2.5302  -19.9628 H   0  0  0  0  0  0  0  0  0  0  0  0
   -9.5093   -1.6838  -18.3803 H   0  0  0  0  0  0  0  0  0  0  0  0
   -8.1697   -0.4081  -20.0456 H   0  0  0  0  0  0  0  0  0  0  0  0
   -9.6154   -0.3398  -21.1220 H   0  0  0  0  0  0  0  0  0  0  0  0
   -9.4735    0.7856  -18.2715 H   0  0  0  0  0  0  0  0  0  0  0  0
   -9.3366    1.7452  -19.8136 H   0  0  0  0  0  0  0  0  0  0  0  0
  -12.5682    2.1015  -20.7837 H   0  0  0  0  0  0  0  0  0  0  0  0
  -10.8862    1.8446  -21.3596 H   0  0  0  0  0  0  0  0  0  0  0  0
  -12.0540    0.4796  -21.3596 H   0  0  0  0  0  0  0  0  0  0  0  0
  -11.6687   -0.3909  -17.8214 H   0  0  0  0  0  0  0  0  0  0  0  0
  -13.7487   -0.3475  -20.0301 H   0  0  0  0  0  0  0  0  0  0  0  0
  -13.8813   -1.0536  -18.3777 H   0  0  0  0  0  0  0  0  0  0  0  0
  -14.9910    1.0828  -18.2818 H   0  0  0  0  0  0  0  0  0  0  0  0
  -14.8558    3.3011  -17.6149 H   0  0  0  0  0  0  0  0  0  0  0  0
  -11.2671    1.8778  -17.3885 H   0  0  0  0  0  0  0  0  0  0  0  0
  -10.1345    3.5033  -18.8062 H   0  0  0  0  0  0  0  0  0  0  0  0
  -11.6814    3.8574  -19.6460 H   0  0  0  0  0  0  0  0  0  0  0  0
  -11.1254    4.1619  -16.6749 H   0  0  0  0  0  0  0  0  0  0  0  0
  -11.2564    5.4872  -17.8671 H   0  0  0  0  0  0  0  0  0  0  0  0
  -12.9469    6.3911  -16.8267 H   0  0  0  0  0  0  0  0  0  0  0  0
  -13.7081    5.5987  -14.8086 H   0  0  0  0  0  0  0  0  0  0  0  0
  -15.3150    5.8893  -15.5571 H   0  0  0  0  0  0  0  0  0  0  0  0
  -14.6097    4.2372  -15.5571 H   0  0  0  0  0  0  0  0  0  0  0  0
  -15.5902    6.5362  -17.4745 H   0  0  0  0  0  0  0  0  0  0  0  0
  -14.2650    6.8841  -18.6361 H   0  0  0  0  0  0  0  0  0  0  0  0
  -15.0595    5.2730  -18.6361 H   0  0  0  0  0  0  0  0  0  0  0  0
  7  6  1  0
  7  8  1  0
  6  4  1  0
  3  2  2  0
  8  9  1  0
  4  2  1  0
  4  5  1  0
  4 11  1  0
  2  1  1  0
  9 11  1  0
  9 10  1  0
  9 16  1  0
 11 12  1  0
 16 17  1  0
 16 14  1  0
 17 18  1  0
 18 19  1  0
 12 13  1  0
 14 13  2  0
 14 15  1  0
 19 15  2  0
 19 20  1  0
 21 20  1  0
 20 22  1  0
  1 23  1  0
  5 24  1  0
  5 25  1  0
  5 26  1  0
  6 27  1  0
  6 28  1  0
  7 29  1  0
  7 30  1  0
  8 31  1  0
  8 32  1  0
 10 33  1  0
 10 34  1  0
 10 35  1  0
 11 36  1  0
 12 37  1  0
 12 38  1  0
 13 39  1  0
 15 40  1  0
 16 41  1  0
 17 42  1  0
 17 43  1  0
 18 44  1  0
 18 45  1  0
 20 46  1  0
 21 47  1  0
 21 48  1  0
 21 49  1  0
 22 50  1  0
 22 51  1  0
 22 52  1  0
A    1
O1
A    2
C1
A    3
O2
A    4
C2
A    5
C3
A    6
C4
A    7
C5
A    8
C6
A    9
C7
A   10
C8
A   11
C9
A   12
C10
A   13
C11
A   14
C12
A   15
C13
A   16
C14
A   17
C15
A   18
C16
A   19
C17
A   20
C18
A   21
C19
A   22
C20
M  END
