4G77_TLF_A_711
     RDKit          3D

 30 31  0  0  0  0  0  0  0  0999 V2000
    4.7500   11.1980   11.2570 C   0  0  0  0  0  0  0  0  0  0  0  0
    4.3160   10.6830   12.4440 C   0  0  0  0  0  0  0  0  0  0  0  0
    3.0820   10.0180   12.4340 C   0  0  0  0  0  0  0  0  0  0  0  0
    3.0770    9.6270   14.8680 C   0  0  0  0  0  0  0  0  0  0  0  0
    4.1700   10.4420   15.1950 C   0  0  0  0  0  0  0  0  0  0  0  0
    4.6360   10.4480   16.5000 C   0  0  0  0  0  0  0  0  0  0  0  0
    3.9750    9.6760   17.4590 C   0  0  0  0  0  0  0  0  0  0  0  0
    2.8810    8.8430   17.1830 C   0  0  0  0  0  0  0  0  0  0  0  0
    2.4030    8.7820   15.8960 C   0  0  0  0  0  0  0  0  0  0  0  0
    1.2360    7.8930   15.5210 C   0  0  0  0  0  0  0  0  0  0  0  0
    1.4360    6.6430   15.3790 O   0  0  0  0  0  0  0  0  0  0  0  0
    0.0770    8.4070   15.3530 O   0  0  0  0  0  0  0  0  0  0  0  0
    2.5630    9.5300   13.6110 N   0  0  0  0  0  0  0  0  0  0  0  0
    2.3660    9.7610   11.2250 C   0  0  0  0  0  0  0  0  0  0  0  0
    1.0840    8.9600   11.2330 C   0  0  0  0  0  0  0  0  0  0  0  0
    2.8510   10.1940    9.9830 C   0  0  0  0  0  0  0  0  0  0  0  0
    2.0260    9.9290    8.7040 Cl  0  0  0  0  0  0  0  0  0  0  0  0
    4.0340   10.9510   10.0390 C   0  0  0  0  0  0  0  0  0  0  0  0
    5.6626   11.8117   11.2340 H   0  0  0  0  0  0  0  0  0  0  0  0
    4.9072   10.7850   13.3660 H   0  0  0  0  0  0  0  0  0  0  0  0
    4.6501   11.0669   14.4276 H   0  0  0  0  0  0  0  0  0  0  0  0
    5.5131   11.0514   16.7768 H   0  0  0  0  0  0  0  0  0  0  0  0
    4.3359    9.7248   18.4970 H   0  0  0  0  0  0  0  0  0  0  0  0
    2.4139    8.2491   17.9824 H   0  0  0  0  0  0  0  0  0  0  0  0
    1.5288    6.0629   16.1758 H   0  0  0  0  0  0  0  0  0  0  0  0
    1.6687    9.0253   13.5307 H   0  0  0  0  0  0  0  0  0  0  0  0
    0.7777    8.7686   12.2720 H   0  0  0  0  0  0  0  0  0  0  0  0
    0.2948    9.5260   10.7164 H   0  0  0  0  0  0  0  0  0  0  0  0
    1.2466    8.0026   10.7164 H   0  0  0  0  0  0  0  0  0  0  0  0
    4.4296   11.3743    9.1039 H   0  0  0  0  0  0  0  0  0  0  0  0
 17 16  1  0
 16 18  1  0
 16 14  2  0
 18  1  2  0
 14 15  1  0
 14  3  1  0
  1  2  1  0
  3  2  2  0
  3 13  1  0
 13  4  1  0
  4  5  2  0
  4  9  1  0
  5  6  1  0
 12 10  2  0
 11 10  1  0
 10  9  1  0
  9  8  2  0
  6  7  2  0
  8  7  1  0
  1 19  1  0
  2 20  1  0
  5 21  1  0
  6 22  1  0
  7 23  1  0
  8 24  1  0
 11 25  1  0
 13 26  1  0
 15 27  1  0
 15 28  1  0
 15 29  1  0
 18 30  1  0
A    1
C4
A    2
C5
A    3
C6
A    4
C8
A    5
C9
A    6
C10
A    7
C11
A    8
C12
A    9
C13
A   10
C14
A   11
O16
A   12
O15
A   13
N7
A   14
C1
A   15
C17
A   16
C2
A   17
CL
A   18
C3
M  END
