5IL3_6BX_A_603
     RDKit          3D

 29 29  0  0  0  0  0  0  0  0999 V2000
   24.4230   82.6110   11.0110 O   0  0  0  0  0  0  0  0  0  0  0  0
   25.3750   82.1710   12.0610 S   0  0  0  0  0  0  0  0  0  0  0  0
   25.2030   80.4570   12.3920 C   0  0  0  0  0  0  0  0  0  0  0  0
   23.9430   80.2360   13.2610 C   0  0  0  0  0  0  0  0  0  0  0  0
   22.8230   80.6420   12.5580 O   0  0  0  0  0  0  0  0  0  0  0  0
   23.7550   78.7410   13.6400 C   0  0  0  0  0  0  0  0  0  0  0  0
   22.5060   78.5390   14.3170 N   0  0  0  0  0  0  0  0  0  0  0  0
   22.1240   77.1830   14.0750 C   0  0  0  0  0  0  0  0  0  0  0  0
   21.4950   76.4630   15.2360 C   0  0  0  0  0  0  0  0  0  0  0  0
   22.2050   76.7320   16.4540 O   0  0  0  0  0  0  0  0  0  0  0  0
   22.1230   78.1040   16.7640 C   0  0  0  0  0  0  0  0  0  0  0  0
   22.7380   78.9510   15.6800 C   0  0  0  0  0  0  0  0  0  0  0  0
   25.2020   82.9710   13.3550 O   0  0  0  0  0  0  0  0  0  0  0  0
   26.6990   82.4660   11.4240 O   0  0  0  0  0  0  0  0  0  0  0  0
   25.0990   79.9071   11.4450 H   0  0  0  0  0  0  0  0  0  0  0  0
   26.0919   80.0907   12.9264 H   0  0  0  0  0  0  0  0  0  0  0  0
   24.0723   80.8225   14.1826 H   0  0  0  0  0  0  0  0  0  0  0  0
   22.1098   80.9005   13.1941 H   0  0  0  0  0  0  0  0  0  0  0  0
   23.7710   78.1322   12.7240 H   0  0  0  0  0  0  0  0  0  0  0  0
   24.5725   78.4429   14.3129 H   0  0  0  0  0  0  0  0  0  0  0  0
   21.4028   77.1786   13.2444 H   0  0  0  0  0  0  0  0  0  0  0  0
   23.0580   76.6434   13.8594 H   0  0  0  0  0  0  0  0  0  0  0  0
   20.4531   76.7984   15.3454 H   0  0  0  0  0  0  0  0  0  0  0  0
   21.5332   75.3813   15.0398 H   0  0  0  0  0  0  0  0  0  0  0  0
   22.6553   78.2898   17.7085 H   0  0  0  0  0  0  0  0  0  0  0  0
   21.0608   78.3753   16.8542 H   0  0  0  0  0  0  0  0  0  0  0  0
   23.8258   78.9608   15.8433 H   0  0  0  0  0  0  0  0  0  0  0  0
   22.2472   79.9313   15.7699 H   0  0  0  0  0  0  0  0  0  0  0  0
   25.3314   82.3724   14.1328 H   0  0  0  0  0  0  0  0  0  0  0  0
 14  2  2  0
  1  2  2  0
  2 13  1  0
  2  3  1  0
  3  4  1  0
  5  4  1  0
  4  6  1  0
  6  7  1  0
  8  7  1  0
  8  9  1  0
  7 12  1  0
 12 11  1  0
  9 10  1  0
 10 11  1  0
  3 15  1  0
  3 16  1  0
  4 17  1  0
  5 18  1  0
  6 19  1  0
  6 20  1  0
  8 21  1  0
  8 22  1  0
  9 23  1  0
  9 24  1  0
 11 25  1  0
 11 26  1  0
 12 27  1  0
 12 28  1  0
 13 29  1  0
A    1
O01
A    2
S02
A    3
C03
A    4
C04
A    5
O05
A    6
C06
A    7
N07
A    8
C08
A    9
C09
A   10
O10
A   11
C11
A   12
C12
A   13
O13
A   14
O14
M  END
