3Q7A_3FX_B_522
     RDKit          3D

 34 34  0  0  0  0  0  0  0  0999 V2000
   30.4000  -18.8240  -36.2690 O   0  0  0  0  0  0  0  0  0  0  0  0
   30.8870  -19.8410  -34.1630 O   0  0  0  0  0  0  0  0  0  0  0  0
   32.4790  -22.5110  -34.8840 O   0  0  0  0  0  0  0  0  0  0  0  0
   29.9820  -21.2050  -35.9170 O   0  0  0  0  0  0  0  0  0  0  0  0
   38.9540  -24.6180  -36.6890 C   0  0  0  0  0  0  0  0  0  0  0  0
   38.2070  -23.6420  -37.6070 C   0  0  0  0  0  0  0  0  0  0  0  0
   38.8760  -24.1710  -35.2170 C   0  0  0  0  0  0  0  0  0  0  0  0
   36.7470  -23.4790  -37.1540 C   0  0  0  0  0  0  0  0  0  0  0  0
   37.4190  -23.9630  -34.7610 C   0  0  0  0  0  0  0  0  0  0  0  0
   34.6430  -21.6770  -35.6530 C   0  0  0  0  0  0  0  0  0  0  0  0
   32.5990  -20.3840  -36.1300 C   0  0  0  0  0  0  0  0  0  0  0  0
   35.2410  -22.9600  -35.2650 N   0  0  0  0  0  0  0  0  0  0  0  0
   33.1490  -21.8020  -35.9380 C   0  0  0  0  0  0  0  0  0  0  0  0
   36.6530  -23.0030  -35.6870 C   0  0  0  0  0  0  0  0  0  0  0  0
   30.8870  -20.0570  -35.5770 S   0  0  0  0  0  0  0  0  0  0  0  0
   31.8204  -19.7912  -33.8368 H   0  0  0  0  0  0  0  0  0  0  0  0
   32.7955  -22.1760  -34.0078 H   0  0  0  0  0  0  0  0  0  0  0  0
   40.0097  -24.6614  -36.9951 H   0  0  0  0  0  0  0  0  0  0  0  0
   38.4828  -25.6081  -36.7772 H   0  0  0  0  0  0  0  0  0  0  0  0
   38.7064  -22.6624  -37.5752 H   0  0  0  0  0  0  0  0  0  0  0  0
   38.2167  -24.0424  -38.6315 H   0  0  0  0  0  0  0  0  0  0  0  0
   39.3406  -24.9423  -34.5851 H   0  0  0  0  0  0  0  0  0  0  0  0
   39.4055  -23.2116  -35.1215 H   0  0  0  0  0  0  0  0  0  0  0  0
   36.2536  -22.7389  -37.8011 H   0  0  0  0  0  0  0  0  0  0  0  0
   36.2536  -24.4593  -37.2285 H   0  0  0  0  0  0  0  0  0  0  0  0
   36.9064  -24.9363  -34.7572 H   0  0  0  0  0  0  0  0  0  0  0  0
   37.4397  -23.5181  -33.7552 H   0  0  0  0  0  0  0  0  0  0  0  0
   35.1474  -21.3104  -36.5592 H   0  0  0  0  0  0  0  0  0  0  0  0
   34.7701  -20.9769  -34.8141 H   0  0  0  0  0  0  0  0  0  0  0  0
   33.2593  -19.6977  -35.5795 H   0  0  0  0  0  0  0  0  0  0  0  0
   32.5723  -20.2404  -37.2203 H   0  0  0  0  0  0  0  0  0  0  0  0
   35.1868  -23.0667  -34.2420 H   0  0  0  0  0  0  0  0  0  0  0  0
   32.9727  -22.3907  -36.8504 H   0  0  0  0  0  0  0  0  0  0  0  0
   37.0966  -21.9987  -35.6190 H   0  0  0  0  0  0  0  0  0  0  0  0
 15  1  2  0
 15  2  1  0
 13  3  1  0
  4 15  2  0
  7  5  1  0
  6  5  1  0
  8  6  1  0
  7  9  1  0
 14  8  1  0
 14  9  1  0
 13 10  1  0
 10 12  1  0
 11 13  1  0
 11 15  1  0
 14 12  1  0
  2 16  1  0
  3 17  1  0
  5 18  1  0
  5 19  1  0
  6 20  1  0
  6 21  1  0
  7 22  1  0
  7 23  1  0
  8 24  1  0
  8 25  1  0
  9 26  1  0
  9 27  1  0
 10 28  1  0
 10 29  1  0
 11 30  1  0
 11 31  1  0
 12 32  1  0
 13 33  1  0
 14 34  1  0
A    1
OAA
A    2
OAB
A    3
OAC
A    4
OAD
A    5
CAE
A    6
CAF
A    7
CAG
A    8
CAH
A    9
CAI
A   10
CAJ
A   11
CAK
A   12
NAL
A   13
CAM
A   14
CAN
A   15
SAO
M  END
