5IMX_CZ4_A_1501
     RDKit          3D

 77 80  0  0  0  0  0  0  0  0999 V2000
   23.0850    8.8290    8.1430 C   0  0  0  0  0  0  0  0  0  0  0  0
   21.7090    8.5970    8.0940 C   0  0  0  0  0  0  0  0  0  0  0  0
   21.1830    7.4940    7.3710 C   0  0  0  0  0  0  0  0  0  0  0  0
   22.1200    6.5960    6.6590 C   0  0  0  0  0  0  0  0  0  0  0  0
   23.4690    6.8620    6.7270 C   0  0  0  0  0  0  0  0  0  0  0  0
   24.0050    7.9140    7.4290 C   0  0  0  0  0  0  0  0  0  0  0  0
   19.6920    7.3040    7.3480 C   0  0  0  0  0  0  0  0  0  0  0  0
   26.4430    7.1860    7.6650 C   0  0  0  0  0  0  0  0  0  0  0  0
   27.6790    7.8000    7.0180 C   0  0  0  0  0  0  0  0  0  0  0  0
   26.3010    5.7470    7.1850 C   0  0  0  0  0  0  0  0  0  0  0  0
   23.0510   11.0130    9.1340 C   0  0  0  0  0  0  0  0  0  0  0  0
   23.1730   12.9230   10.4850 C   0  0  0  0  0  0  0  0  0  0  0  0
   21.8950   13.2400   10.1330 C   0  0  0  0  0  0  0  0  0  0  0  0
   15.8780   13.8240    7.6970 O   0  0  0  0  0  0  0  0  0  0  0  0
   16.8610   13.1090    8.4650 S   0  0  0  0  0  0  0  0  0  0  0  0
   17.6820   14.1220    9.1140 O   0  0  0  0  0  0  0  0  0  0  0  0
   15.9890   12.1780    9.5710 C   0  0  0  0  0  0  0  0  0  0  0  0
   16.9270   11.5220   10.5930 C   0  0  0  0  0  0  0  0  0  0  0  0
   15.1150   11.1240    8.8600 C   0  0  0  0  0  0  0  0  0  0  0  0
   17.8770   12.1760    7.5430 C   0  0  0  0  0  0  0  0  0  0  0  0
   17.4750   11.3720    6.5340 N   0  0  0  0  0  0  0  0  0  0  0  0
   18.6820   10.7680    6.0930 N   0  0  0  0  0  0  0  0  0  0  0  0
   18.4940    9.8220    4.9590 C   0  0  0  0  0  0  0  0  0  0  0  0
   19.7700   11.1290    6.7800 C   0  0  0  0  0  0  0  0  0  0  0  0
   19.3420   12.0460    7.7370 C   0  0  0  0  0  0  0  0  0  0  0  0
   19.9250   12.7020    8.7800 N   0  0  0  0  0  0  0  0  0  0  0  0
   21.1560   12.3650    9.2170 C   0  0  0  0  0  0  0  0  0  0  0  0
   21.1190   14.6860   10.7870 Cl  0  0  0  0  0  0  0  0  0  0  0  0
   21.7960   11.2890    8.7710 N   0  0  0  0  0  0  0  0  0  0  0  0
   23.7300   11.8130    9.9830 N   0  0  0  0  0  0  0  0  0  0  0  0
   23.6690    9.8790    8.7400 N   0  0  0  0  0  0  0  0  0  0  0  0
   25.3620    8.1280    7.4340 O   0  0  0  0  0  0  0  0  0  0  0  0
   21.8430    5.3810    5.8280 C   0  0  0  0  0  0  0  0  0  0  0  0
   20.6520    4.5310    6.2360 C   0  0  0  0  0  0  0  0  0  0  0  0
   20.6990    3.2150    5.4720 C   0  0  0  0  0  0  0  0  0  0  0  0
   21.8320    3.1380    4.5090 N   0  0  0  0  0  0  0  0  0  0  0  0
   21.7480    1.8640    3.7660 C   0  0  0  0  0  0  0  0  0  0  0  0
   21.8960    4.3050    3.5900 C   0  0  0  0  0  0  0  0  0  0  0  0
   21.7180    5.6370    4.3300 C   0  0  0  0  0  0  0  0  0  0  0  0
   21.0242    9.2770    8.6219 H   0  0  0  0  0  0  0  0  0  0  0  0
   24.1571    6.1938    6.1883 H   0  0  0  0  0  0  0  0  0  0  0  0
   19.3126    7.2557    8.3794 H   0  0  0  0  0  0  0  0  0  0  0  0
   19.2227    8.1496    6.8239 H   0  0  0  0  0  0  0  0  0  0  0  0
   19.4497    6.3677    6.8239 H   0  0  0  0  0  0  0  0  0  0  0  0
   26.4753    7.0561    8.7568 H   0  0  0  0  0  0  0  0  0  0  0  0
   28.3706    8.1436    7.8014 H   0  0  0  0  0  0  0  0  0  0  0  0
   28.1788    7.0454    6.3928 H   0  0  0  0  0  0  0  0  0  0  0  0
   27.3796    8.6541    6.3928 H   0  0  0  0  0  0  0  0  0  0  0  0
   26.2347    5.0755    8.0538 H   0  0  0  0  0  0  0  0  0  0  0  0
   25.3891    5.6515    6.5773 H   0  0  0  0  0  0  0  0  0  0  0  0
   27.1767    5.4751    6.5773 H   0  0  0  0  0  0  0  0  0  0  0  0
   23.7391   13.5696   11.1717 H   0  0  0  0  0  0  0  0  0  0  0  0
   15.3114   12.8531   10.1142 H   0  0  0  0  0  0  0  0  0  0  0  0
   16.5851   11.7611   11.6108 H   0  0  0  0  0  0  0  0  0  0  0  0
   16.9194   10.4313   10.4504 H   0  0  0  0  0  0  0  0  0  0  0  0
   17.9489   11.9033   10.4504 H   0  0  0  0  0  0  0  0  0  0  0  0
   14.6022   10.5056    9.6114 H   0  0  0  0  0  0  0  0  0  0  0  0
   14.3685   11.6308    8.2308 H   0  0  0  0  0  0  0  0  0  0  0  0
   15.7512   10.4842    8.2308 H   0  0  0  0  0  0  0  0  0  0  0  0
   18.2937    8.8142    5.3516 H   0  0  0  0  0  0  0  0  0  0  0  0
   17.6438   10.1515    4.3437 H   0  0  0  0  0  0  0  0  0  0  0  0
   19.4056    9.8014    4.3437 H   0  0  0  0  0  0  0  0  0  0  0  0
   20.7986   10.7729    6.6213 H   0  0  0  0  0  0  0  0  0  0  0  0
   19.4165   13.4689    9.2428 H   0  0  0  0  0  0  0  0  0  0  0  0
   24.6822    9.8141    8.9138 H   0  0  0  0  0  0  0  0  0  0  0  0
   22.7616    4.8152    6.0425 H   0  0  0  0  0  0  0  0  0  0  0  0
   19.7195    5.0633    5.9970 H   0  0  0  0  0  0  0  0  0  0  0  0
   20.6879    4.3348    7.3178 H   0  0  0  0  0  0  0  0  0  0  0  0
   19.7576    3.1001    4.9147 H   0  0  0  0  0  0  0  0  0  0  0  0
   20.8415    2.4123    6.2105 H   0  0  0  0  0  0  0  0  0  0  0  0
   21.6928    1.0273    4.4779 H   0  0  0  0  0  0  0  0  0  0  0  0
   20.8481    1.8671    3.1334 H   0  0  0  0  0  0  0  0  0  0  0  0
   22.6405    1.7489    3.1334 H   0  0  0  0  0  0  0  0  0  0  0  0
   21.0985    4.2081    2.8386 H   0  0  0  0  0  0  0  0  0  0  0  0
   22.8907    4.3104    3.1204 H   0  0  0  0  0  0  0  0  0  0  0  0
   22.4952    6.3461    4.0090 H   0  0  0  0  0  0  0  0  0  0  0  0
   20.7303    6.0644    4.1027 H   0  0  0  0  0  0  0  0  0  0  0  0
 38 39  1  0
 38 36  1  0
 37 36  1  0
 39 33  1  0
 36 35  1  0
 23 22  1  0
 35 34  1  0
 33 34  1  0
 33  4  1  0
 22 21  1  0
 22 24  1  0
 21 20  2  0
  4  5  2  0
  4  3  1  0
  5  6  1  0
 24 25  2  0
  9  8  1  0
 10  8  1  0
  7  3  1  0
  3  2  2  0
  6 32  1  0
  6  1  2  0
 32  8  1  0
 20 25  1  0
 20 15  1  0
 14 15  2  0
 25 26  1  0
  2  1  1  0
  1 31  1  0
 15 16  2  0
 15 17  1  0
 31 11  1  0
 29 11  2  0
 29 27  1  0
 26 27  1  0
 19 17  1  0
 11 30  1  0
 27 13  2  0
 17 18  1  0
 30 12  2  0
 13 12  1  0
 13 28  1  0
  2 40  1  0
  5 41  1  0
  7 42  1  0
  7 43  1  0
  7 44  1  0
  8 45  1  0
  9 46  1  0
  9 47  1  0
  9 48  1  0
 10 49  1  0
 10 50  1  0
 10 51  1  0
 12 52  1  0
 17 53  1  0
 18 54  1  0
 18 55  1  0
 18 56  1  0
 19 57  1  0
 19 58  1  0
 19 59  1  0
 23 60  1  0
 23 61  1  0
 23 62  1  0
 24 63  1  0
 26 64  1  0
 31 65  1  0
 33 66  1  0
 34 67  1  0
 34 68  1  0
 35 69  1  0
 35 70  1  0
 37 71  1  0
 37 72  1  0
 37 73  1  0
 38 74  1  0
 38 75  1  0
 39 76  1  0
 39 77  1  0
A    1
C1
A    2
C2
A    3
C3
A    4
C4
A    5
C5
A    6
C6
A    7
C7
A    8
C9
A    9
C10
A   10
C11
A   11
C13
A   12
C15
A   13
C16
A   14
O38
A   15
S25
A   16
O37
A   17
C26
A   18
C28
A   19
C27
A   20
C24
A   21
N23
A   22
N22
A   23
C36
A   24
C21
A   25
C20
A   26
N19
A   27
C17
A   28
CL1
A   29
N18
A   30
N14
A   31
N12
A   32
O8
A   33
C29
A   34
C34
A   35
C33
A   36
N32
A   37
C32
A   38
C31
A   39
C30
M  END
