5IN9_6C0_A_410
     RDKit          3D

 43 45  0  0  0  0  0  0  0  0999 V2000
   58.7260 -116.4350  100.5540 C   0  0  0  0  0  0  0  0  0  0  0  0
   57.3850 -116.9540  100.6810 O   0  0  0  0  0  0  0  0  0  0  0  0
   57.0020 -117.9030  100.0670 C   0  0  0  0  0  0  0  0  0  0  0  0
   57.8610 -118.5510   99.1390 O   0  0  0  0  0  0  0  0  0  0  0  0
   55.4890 -118.4320  100.2260 C   0  0  0  0  0  0  0  0  0  0  0  0
   54.7670 -118.6690   99.0690 C   0  0  0  0  0  0  0  0  0  0  0  0
   55.3590 -118.4750   97.8700 O   0  0  0  0  0  0  0  0  0  0  0  0
   53.4850 -119.1000   99.1230 C   0  0  0  0  0  0  0  0  0  0  0  0
   52.8660 -119.3050  100.3720 C   0  0  0  0  0  0  0  0  0  0  0  0
   51.5240 -119.7650  100.4560 O   0  0  0  0  0  0  0  0  0  0  0  0
   53.5640 -119.0660  101.5300 C   0  0  0  0  0  0  0  0  0  0  0  0
   52.7490 -119.3380  103.0490 Cl  0  0  0  0  0  0  0  0  0  0  0  0
   54.8550 -118.6290  101.4940 C   0  0  0  0  0  0  0  0  0  0  0  0
   55.6230 -118.3780  102.8170 C   0  0  0  0  0  0  0  0  0  0  0  0
   55.0200 -117.3770  103.7910 C   0  0  0  0  0  0  0  0  0  0  0  0
   56.1580 -116.8760  104.6310 C   0  0  0  0  0  0  0  0  0  0  0  0
   57.3470 -116.5310  104.0760 N   0  0  0  0  0  0  0  0  0  0  0  0
   58.1900 -116.1200  105.0770 C   0  0  0  0  0  0  0  0  0  0  0  0
   57.4270 -116.2510  106.2770 C   0  0  0  0  0  0  0  0  0  0  0  0
   56.1720 -116.7320  105.9740 N   0  0  0  0  0  0  0  0  0  0  0  0
   55.1120 -117.0040  106.8660 C   0  0  0  0  0  0  0  0  0  0  0  0
   55.4800 -116.6430  108.3410 C   0  0  0  0  0  0  0  0  0  0  0  0
   56.7170 -116.4720  108.8060 O   0  0  0  0  0  0  0  0  0  0  0  0
   56.7500 -116.1570  110.1460 C   0  0  0  0  0  0  0  0  0  0  0  0
   58.2640 -115.8650  111.0580 Cl  0  0  0  0  0  0  0  0  0  0  0  0
   55.3720 -116.1210  110.6340 C   0  0  0  0  0  0  0  0  0  0  0  0
   54.5310 -116.4330  109.4800 C   0  0  0  0  0  0  0  0  0  0  0  0
   59.1517 -116.2702  101.5548 H   0  0  0  0  0  0  0  0  0  0  0  0
   59.3483 -117.1572  100.0052 H   0  0  0  0  0  0  0  0  0  0  0  0
   58.6999 -115.4820  100.0052 H   0  0  0  0  0  0  0  0  0  0  0  0
   56.2988 -118.1670   97.8260 H   0  0  0  0  0  0  0  0  0  0  0  0
   52.9277 -119.2898   98.1938 H   0  0  0  0  0  0  0  0  0  0  0  0
   51.1045 -119.9088  101.3411 H   0  0  0  0  0  0  0  0  0  0  0  0
   55.7040 -119.3419  103.3407 H   0  0  0  0  0  0  0  0  0  0  0  0
   56.5807 -117.9329  102.5092 H   0  0  0  0  0  0  0  0  0  0  0  0
   54.5544 -116.5444  103.2433 H   0  0  0  0  0  0  0  0  0  0  0  0
   54.2373 -117.8401  104.4098 H   0  0  0  0  0  0  0  0  0  0  0  0
   59.2269 -115.7668  104.9772 H   0  0  0  0  0  0  0  0  0  0  0  0
   57.7859 -116.0057  107.2874 H   0  0  0  0  0  0  0  0  0  0  0  0
   54.2340 -116.4138  106.5645 H   0  0  0  0  0  0  0  0  0  0  0  0
   54.9006 -118.0826  106.8232 H   0  0  0  0  0  0  0  0  0  0  0  0
   55.0371 -115.9037  111.6590 H   0  0  0  0  0  0  0  0  0  0  0  0
   53.4333 -116.4995  109.4538 H   0  0  0  0  0  0  0  0  0  0  0  0
  7  6  1  0
  6  8  1  0
  6  5  2  0
  8  9  2  0
  4  3  2  0
  3  5  1  0
  3  2  1  0
  5 13  1  0
  9 10  1  0
  9 11  1  0
  1  2  1  0
 13 11  2  0
 13 14  1  0
 11 12  1  0
 14 15  1  0
 15 16  1  0
 17 16  2  0
 17 18  1  0
 16 20  1  0
 18 19  2  0
 20 19  1  0
 20 21  1  0
 21 22  1  0
 22 23  1  0
 22 27  2  0
 23 24  1  0
 27 26  1  0
 24 26  2  0
 24 25  1  0
  1 28  1  0
  1 29  1  0
  1 30  1  0
  7 31  1  0
  8 32  1  0
 10 33  1  0
 14 34  1  0
 14 35  1  0
 15 36  1  0
 15 37  1  0
 18 38  1  0
 19 39  1  0
 21 40  1  0
 21 41  1  0
 26 42  1  0
 27 43  1  0
A    1
CAA
A    2
OAP
A    3
CAR
A    4
OAB
A    5
CAZ
A    6
CAT
A    7
OAD
A    8
CAK
A    9
CAS
A   10
OAC
A   11
CAW
A   12
CL1
A   13
CAY
A   14
CAM
A   15
CAL
A   16
CAX
A   17
NAO
A   18
CAG
A   19
CAJ
A   20
NBA
A   21
CAN
A   22
CAV
A   23
OAQ
A   24
CAU
A   25
CL2
A   26
CAH
A   27
CAI
M  END
