5IP6_6C9_A_301
     RDKit          3D

 32 33  0  0  0  0  0  0  0  0999 V2000
   27.6700   13.6440   16.8430 O   0  0  0  0  0  0  0  0  0  0  0  0
   28.0550   13.8500   15.7040 C   0  0  0  0  0  0  0  0  0  0  0  0
   28.7910   14.9180   15.4120 N   0  0  0  0  0  0  0  0  0  0  0  0
   29.0540   15.3300   14.0380 C   0  0  0  0  0  0  0  0  0  0  0  0
   29.9270   16.5700   14.1820 C   0  0  0  0  0  0  0  0  0  0  0  0
   30.1330   16.8330   15.6650 C   0  0  0  0  0  0  0  0  0  0  0  0
   29.3890   15.7570   16.4440 C   0  0  0  0  0  0  0  0  0  0  0  0
   27.7530   13.0120   14.7160 N   0  0  0  0  0  0  0  0  0  0  0  0
   27.3860   11.6330   14.9780 C   0  0  0  0  0  0  0  0  0  0  0  0
   26.7430   11.0210   13.7400 C   0  0  0  0  0  0  0  0  0  0  0  0
   27.7810   10.9060   12.6320 C   0  0  0  0  0  0  0  0  0  0  0  0
   27.9460    9.5220   12.3120 O   0  0  0  0  0  0  0  0  0  0  0  0
   27.1040    8.6900   13.1140 C   0  0  0  0  0  0  0  0  0  0  0  0
   26.3120    9.5960   14.0450 C   0  0  0  0  0  0  0  0  0  0  0  0
   28.1160   15.5713   13.5165 H   0  0  0  0  0  0  0  0  0  0  0  0
   29.5382   14.5395   13.4458 H   0  0  0  0  0  0  0  0  0  0  0  0
   30.8986   16.4005   13.6949 H   0  0  0  0  0  0  0  0  0  0  0  0
   29.4422   17.4348   13.7054 H   0  0  0  0  0  0  0  0  0  0  0  0
   31.2057   16.7929   15.9053 H   0  0  0  0  0  0  0  0  0  0  0  0
   29.7512   17.8295   15.9320 H   0  0  0  0  0  0  0  0  0  0  0  0
   28.6124   16.2038   17.0822 H   0  0  0  0  0  0  0  0  0  0  0  0
   30.0497   15.1909   17.1171 H   0  0  0  0  0  0  0  0  0  0  0  0
   27.7803   13.3497   13.7433 H   0  0  0  0  0  0  0  0  0  0  0  0
   26.6721   11.5986   15.8141 H   0  0  0  0  0  0  0  0  0  0  0  0
   28.2898   11.0614   15.2356 H   0  0  0  0  0  0  0  0  0  0  0  0
   25.8936   11.6542   13.4442 H   0  0  0  0  0  0  0  0  0  0  0  0
   28.7386   11.3251   12.9747 H   0  0  0  0  0  0  0  0  0  0  0  0
   27.4495   11.4632   11.7434 H   0  0  0  0  0  0  0  0  0  0  0  0
   26.4168    8.1210   12.4705 H   0  0  0  0  0  0  0  0  0  0  0  0
   27.7069    7.9747   13.6926 H   0  0  0  0  0  0  0  0  0  0  0  0
   25.2338    9.4787   13.8613 H   0  0  0  0  0  0  0  0  0  0  0  0
   26.5013    9.3427   15.0986 H   0  0  0  0  0  0  0  0  0  0  0  0
 12 11  1  0
 12 13  1  0
 11 10  1  0
 13 14  1  0
 10 14  1  0
 10  9  1  0
  4  5  1  0
  4  3  1  0
  5  6  1  0
  8  9  1  0
  8  2  1  0
  3  2  1  0
  3  7  1  0
  6  7  1  0
  2  1  2  0
  4 15  1  0
  4 16  1  0
  5 17  1  0
  5 18  1  0
  6 19  1  0
  6 20  1  0
  7 21  1  0
  7 22  1  0
  8 23  1  0
  9 24  1  0
  9 25  1  0
 10 26  1  0
 11 27  1  0
 11 28  1  0
 13 29  1  0
 13 30  1  0
 14 31  1  0
 14 32  1  0
A    1
O1
A    2
C5
A    3
N1
A    4
C9
A    5
C8
A    6
C7
A    7
C6
A    8
N
A    9
C4
A   10
C1
A   11
C2
A   12
O
A   13
C3
A   14
C
M  END
