5IRQ_6D7_A_601
     RDKit          3D

 40 43  0  0  0  0  0  0  0  0999 V2000
  -24.3240  -37.1270   57.9950 C   0  0  0  0  0  0  0  0  0  0  0  0
  -22.8870  -37.0980   58.1390 C   0  0  0  0  0  0  0  0  0  0  0  0
  -22.3370  -37.2580   56.7510 C   0  0  0  0  0  0  0  0  0  0  0  0
  -24.5860  -33.3030   56.8980 C   0  0  0  0  0  0  0  0  0  0  0  0
  -25.0680  -32.6850   58.2570 C   0  0  0  0  0  0  0  0  0  0  0  0
  -25.3200  -31.1690   58.3610 C   0  0  0  0  0  0  0  0  0  0  0  0
  -24.5720  -35.6930   58.0000 C   0  0  0  0  0  0  0  0  0  0  0  0
  -23.6270  -38.5210   54.7410 C   0  0  0  0  0  0  0  0  0  0  0  0
  -25.5490  -38.4310   55.8620 C   0  0  0  0  0  0  0  0  0  0  0  0
  -24.5460  -37.7990   56.6380 C   0  0  0  0  0  0  0  0  0  0  0  0
  -24.3360  -34.8030   56.7900 C   0  0  0  0  0  0  0  0  0  0  0  0
  -26.8160  -27.0890   61.0250 C   0  0  0  0  0  0  0  0  0  0  0  0
  -26.5790  -28.5270   60.9600 N   0  0  0  0  0  0  0  0  0  0  0  0
  -26.0250  -29.0910   59.7510 C   0  0  0  0  0  0  0  0  0  0  0  0
  -25.7630  -28.3860   58.8210 O   0  0  0  0  0  0  0  0  0  0  0  0
  -25.7810  -30.5750   59.6700 C   0  0  0  0  0  0  0  0  0  0  0  0
  -26.0090  -31.4680   60.9060 C   0  0  0  0  0  0  0  0  0  0  0  0
  -25.7600  -32.9660   60.8020 C   0  0  0  0  0  0  0  0  0  0  0  0
  -25.2820  -33.5650   59.4540 C   0  0  0  0  0  0  0  0  0  0  0  0
  -25.0310  -35.0710   59.3430 C   0  0  0  0  0  0  0  0  0  0  0  0
  -25.1360  -37.5730   59.1100 O   0  0  0  0  0  0  0  0  0  0  0  0
  -23.3750  -37.8770   55.9480 N   0  0  0  0  0  0  0  0  0  0  0  0
  -24.9790  -38.8580   54.7050 N   0  0  0  0  0  0  0  0  0  0  0  0
  -22.5492  -37.9233   58.7830 H   0  0  0  0  0  0  0  0  0  0  0  0
  -22.5443  -36.1632   58.6066 H   0  0  0  0  0  0  0  0  0  0  0  0
  -21.4433  -37.8989   56.7711 H   0  0  0  0  0  0  0  0  0  0  0  0
  -22.0465  -36.2838   56.3309 H   0  0  0  0  0  0  0  0  0  0  0  0
  -24.4285  -32.6544   56.0236 H   0  0  0  0  0  0  0  0  0  0  0  0
  -25.1647  -30.5219   57.4851 H   0  0  0  0  0  0  0  0  0  0  0  0
  -22.8883  -38.7281   53.9527 H   0  0  0  0  0  0  0  0  0  0  0  0
  -26.6044  -38.5543   56.1465 H   0  0  0  0  0  0  0  0  0  0  0  0
  -23.9869  -35.2389   55.8423 H   0  0  0  0  0  0  0  0  0  0  0  0
  -26.8681  -26.7732   62.0774 H   0  0  0  0  0  0  0  0  0  0  0  0
  -25.9931  -26.5587   60.5233 H   0  0  0  0  0  0  0  0  0  0  0  0
  -27.7655  -26.8508   60.5233 H   0  0  0  0  0  0  0  0  0  0  0  0
  -26.8032  -29.1308   61.7638 H   0  0  0  0  0  0  0  0  0  0  0  0
  -26.3486  -31.0265   61.8545 H   0  0  0  0  0  0  0  0  0  0  0  0
  -25.9176  -33.6172   61.6744 H   0  0  0  0  0  0  0  0  0  0  0  0
  -25.1774  -35.7157   60.2222 H   0  0  0  0  0  0  0  0  0  0  0  0
  -24.6916  -37.3289   59.9603 H   0  0  0  0  0  0  0  0  0  0  0  0
 23  8  2  0
 23  9  1  0
  8 22  1  0
  9 10  2  0
 22 10  1  0
 22  3  1  0
 10  1  1  0
  3  2  1  0
 11  4  2  0
 11  7  1  0
  4  5  1  0
  1  7  1  0
  1  2  1  0
  1 21  1  0
  7 20  2  0
  5  6  2  0
  5 19  1  0
  6 16  1  0
 15 14  2  0
 20 19  1  0
 19 18  2  0
 16 14  1  0
 16 17  2  0
 14 13  1  0
 18 17  1  0
 13 12  1  0
  2 24  1  0
  2 25  1  0
  3 26  1  0
  3 27  1  0
  4 28  1  0
  6 29  1  0
  8 30  1  0
  9 31  1  0
 11 32  1  0
 12 33  1  0
 12 34  1  0
 12 35  1  0
 13 36  1  0
 17 37  1  0
 18 38  1  0
 20 39  1  0
 21 40  1  0
A    1
C11
A    2
C13
A    3
C14
A    4
C21
A    5
C22
A    6
C23
A    7
C10
A    8
C16
A    9
C18
A   10
C19
A   11
C20
A   12
C01
A   13
N02
A   14
C03
A   15
O04
A   16
C05
A   17
C06
A   18
C07
A   19
C08
A   20
C09
A   21
O12
A   22
N15
A   23
N17
M  END
