5IRQ_7D6_C_601
     RDKit          3D

 40 43  0  0  0  0  0  0  0  0999 V2000
   10.7650   -8.7660   58.1060 C   0  0  0  0  0  0  0  0  0  0  0  0
    8.2560   -6.8130   53.8670 N   0  0  0  0  0  0  0  0  0  0  0  0
   10.3950  -10.5660   62.1910 C   0  0  0  0  0  0  0  0  0  0  0  0
   13.3420   -8.2700   61.8340 C   0  0  0  0  0  0  0  0  0  0  0  0
    7.8500   -6.4610   52.5440 C   0  0  0  0  0  0  0  0  0  0  0  0
    7.8460   -7.0290   56.4200 C   0  0  0  0  0  0  0  0  0  0  0  0
    7.0690   -6.7140   57.5200 C   0  0  0  0  0  0  0  0  0  0  0  0
    7.5170   -7.0800   58.8410 C   0  0  0  0  0  0  0  0  0  0  0  0
    8.7460   -7.7600   59.0040 C   0  0  0  0  0  0  0  0  0  0  0  0
    9.5130   -8.0740   57.9290 C   0  0  0  0  0  0  0  0  0  0  0  0
    9.0550   -7.6980   56.5800 C   0  0  0  0  0  0  0  0  0  0  0  0
    9.1700   -8.1090   60.2810 C   0  0  0  0  0  0  0  0  0  0  0  0
   10.4050   -8.7880   60.4640 C   0  0  0  0  0  0  0  0  0  0  0  0
   11.1890   -9.1150   59.3780 C   0  0  0  0  0  0  0  0  0  0  0  0
    7.3650   -6.6310   54.9800 C   0  0  0  0  0  0  0  0  0  0  0  0
    6.2510   -6.1700   54.8240 O   0  0  0  0  0  0  0  0  0  0  0  0
   10.7950   -9.1430   61.9100 C   0  0  0  0  0  0  0  0  0  0  0  0
   11.5260  -11.0640   63.2110 C   0  0  0  0  0  0  0  0  0  0  0  0
   12.7040  -10.1560   62.8730 N   0  0  0  0  0  0  0  0  0  0  0  0
   12.2160   -9.1530   62.1630 C   0  0  0  0  0  0  0  0  0  0  0  0
   14.0580   -9.9710   63.0060 C   0  0  0  0  0  0  0  0  0  0  0  0
   14.4270   -8.8400   62.3820 N   0  0  0  0  0  0  0  0  0  0  0  0
   10.1530   -8.2430   62.7890 O   0  0  0  0  0  0  0  0  0  0  0  0
   11.3835   -9.0169   57.2316 H   0  0  0  0  0  0  0  0  0  0  0  0
    9.1968   -7.2012   54.0253 H   0  0  0  0  0  0  0  0  0  0  0  0
   10.4007  -11.1674   61.2700 H   0  0  0  0  0  0  0  0  0  0  0  0
    9.3761  -10.6580   62.5951 H   0  0  0  0  0  0  0  0  0  0  0  0
   13.3043   -7.3341   61.2572 H   0  0  0  0  0  0  0  0  0  0  0  0
    7.0198   -5.7412   52.5945 H   0  0  0  0  0  0  0  0  0  0  0  0
    8.6971   -6.0067   52.0092 H   0  0  0  0  0  0  0  0  0  0  0  0
    7.5204   -7.3639   52.0092 H   0  0  0  0  0  0  0  0  0  0  0  0
    6.1129   -6.1863   57.3877 H   0  0  0  0  0  0  0  0  0  0  0  0
    6.9041   -6.8308   59.7198 H   0  0  0  0  0  0  0  0  0  0  0  0
    9.6681   -7.9459   55.7010 H   0  0  0  0  0  0  0  0  0  0  0  0
    8.5476   -7.8588   61.1528 H   0  0  0  0  0  0  0  0  0  0  0  0
   12.1411   -9.6474   59.5200 H   0  0  0  0  0  0  0  0  0  0  0  0
   11.7776  -12.1210   63.0394 H   0  0  0  0  0  0  0  0  0  0  0  0
   11.2189  -11.0070   64.2657 H   0  0  0  0  0  0  0  0  0  0  0  0
   14.7388  -10.6477   63.5432 H   0  0  0  0  0  0  0  0  0  0  0  0
   10.3403   -8.5056   63.7250 H   0  0  0  0  0  0  0  0  0  0  0  0
 21 22  2  0
 21 19  1  0
 22  4  1  0
 19 18  1  0
 19 20  1  0
 18  3  1  0
  4 20  2  0
 20 17  1  0
 23 17  1  0
  3 17  1  0
 17 13  1  0
 13 12  2  0
 13 14  1  0
 12  9  1  0
 14  1  2  0
  9  8  1  0
  9 10  2  0
  1 10  1  0
  8  7  2  0
 10 11  1  0
  7  6  1  0
 11  6  2  0
  6 15  1  0
 15 16  2  0
 15  2  1  0
  2  5  1  0
  1 24  1  0
  2 25  1  0
  3 26  1  0
  3 27  1  0
  4 28  1  0
  5 29  1  0
  5 30  1  0
  5 31  1  0
  7 32  1  0
  8 33  1  0
 11 34  1  0
 12 35  1  0
 14 36  1  0
 18 37  1  0
 18 38  1  0
 21 39  1  0
 23 40  1  0
A    1
C10
A    2
N12
A    3
C15
A    4
C21
A    5
C22
A    6
C01
A    7
C02
A    8
C03
A    9
C04
A   10
C05
A   11
C06
A   12
C07
A   13
C08
A   14
C09
A   15
C11
A   16
O13
A   17
C14
A   18
C16
A   19
N17
A   20
C18
A   21
C19
A   22
N20
A   23
O23
M  END
