5IS4_6LY_A_401
     RDKit          3D

 21 21  0  0  0  0  0  0  0  0999 V2000
    2.9640    8.8950    9.1430 C   0  0  0  0  0  0  0  0  0  0  0  0
    2.0780    9.5200    8.2890 C   0  0  0  0  0  0  0  0  0  0  0  0
    0.8300    8.9980    8.0510 C   0  0  0  0  0  0  0  0  0  0  0  0
    0.4510    7.8350    8.6940 C   0  0  0  0  0  0  0  0  0  0  0  0
    2.5880   11.1300    7.4300 Br  0  0  0  0  0  0  0  0  0  0  0  0
    2.5700    7.7310    9.7790 C   0  0  0  0  0  0  0  0  0  0  0  0
    1.3090    7.1910    9.5740 C   0  0  0  0  0  0  0  0  0  0  0  0
    0.8350    5.9860   10.3590 C   0  0  0  0  0  0  0  0  0  0  0  0
    0.5160    6.3810   11.6900 O   0  0  0  0  0  0  0  0  0  0  0  0
    1.9110    4.9110   10.4030 C   0  0  0  0  0  0  0  0  0  0  0  0
    2.0110    4.0770    9.1750 N   0  0  0  0  0  0  0  0  0  0  0  0
    3.9660    9.3150    9.3151 H   0  0  0  0  0  0  0  0  0  0  0  0
    0.1402    9.4999    7.3566 H   0  0  0  0  0  0  0  0  0  0  0  0
   -0.5471    7.4129    8.5051 H   0  0  0  0  0  0  0  0  0  0  0  0
    3.2699    7.2245   10.4599 H   0  0  0  0  0  0  0  0  0  0  0  0
   -0.0560    5.5758    9.8612 H   0  0  0  0  0  0  0  0  0  0  0  0
    0.9900    5.7940   12.3310 H   0  0  0  0  0  0  0  0  0  0  0  0
    1.6952    4.2455   11.2519 H   0  0  0  0  0  0  0  0  0  0  0  0
    2.8716    5.4384   10.4979 H   0  0  0  0  0  0  0  0  0  0  0  0
    2.1295    3.0887    9.4399 H   0  0  0  0  0  0  0  0  0  0  0  0
    1.1514    4.1823    8.6175 H   0  0  0  0  0  0  0  0  0  0  0  0
  5  2  1  0
  3  2  1  0
  3  4  2  0
  2  1  2  0
  4  7  1  0
  1  6  1  0
 11 10  1  0
  7  6  2  0
  7  8  1  0
  8 10  1  0
  8  9  1  0
  1 12  1  0
  3 13  1  0
  4 14  1  0
  6 15  1  0
  8 16  1  0
  9 17  1  0
 10 18  1  0
 10 19  1  0
 11 20  1  0
 11 21  1  0
A    1
C4
A    2
C5
A    3
C6
A    4
C7
A    5
BR
A    6
C3
A    7
C2
A    8
C1
A    9
O
A   10
C
A   11
N
M  END
