5IS5_6CY_A_1101
     RDKit          3D

 61 65  0  0  0  0  0  0  0  0999 V2000
    0.9490  -33.6910  -19.6350 C   0  0  0  0  0  0  0  0  0  0  0  0
    9.7070  -29.7830  -24.3810 C   0  0  0  0  0  0  0  0  0  0  0  0
   10.8690  -29.4830  -25.1080 C   0  0  0  0  0  0  0  0  0  0  0  0
   12.1910  -29.5150  -23.1270 C   0  0  0  0  0  0  0  0  0  0  0  0
   11.0470  -29.7980  -22.3610 C   0  0  0  0  0  0  0  0  0  0  0  0
    9.8100  -29.9150  -22.9940 C   0  0  0  0  0  0  0  0  0  0  0  0
   11.0910  -29.9650  -20.9350 C   0  0  0  0  0  0  0  0  0  0  0  0
   14.0320  -28.1320  -22.3410 C   0  0  0  0  0  0  0  0  0  0  0  0
   -1.2950  -33.5690  -20.6840 C   0  0  0  0  0  0  0  0  0  0  0  0
   -2.2800  -33.5020  -21.8390 C   0  0  0  0  0  0  0  0  0  0  0  0
    0.7300  -33.6400  -22.1610 C   0  0  0  0  0  0  0  0  0  0  0  0
    3.9170  -34.7760  -20.9930 C   0  0  0  0  0  0  0  0  0  0  0  0
    4.7760  -34.5810  -22.2300 C   0  0  0  0  0  0  0  0  0  0  0  0
    4.6460  -33.3900  -22.9700 C   0  0  0  0  0  0  0  0  0  0  0  0
    5.4430  -33.1430  -24.0960 C   0  0  0  0  0  0  0  0  0  0  0  0
    6.3880  -34.1120  -24.4740 C   0  0  0  0  0  0  0  0  0  0  0  0
    6.5520  -35.2870  -23.7210 C   0  0  0  0  0  0  0  0  0  0  0  0
    5.7600  -35.5180  -22.5860 C   0  0  0  0  0  0  0  0  0  0  0  0
    5.2080  -31.9140  -24.9130 C   0  0  0  0  0  0  0  0  0  0  0  0
    3.6020  -30.7530  -26.2280 C   0  0  0  0  0  0  0  0  0  0  0  0
    0.0790  -33.6340  -20.8320 N   0  0  0  0  0  0  0  0  0  0  0  0
    1.8180  -34.9750  -19.7390 C   0  0  0  0  0  0  0  0  0  0  0  0
    2.5430  -34.8420  -21.0090 N   0  0  0  0  0  0  0  0  0  0  0  0
    1.7350  -34.8190  -22.2490 C   0  0  0  0  0  0  0  0  0  0  0  0
    4.5700  -34.8310  -19.9600 O   0  0  0  0  0  0  0  0  0  0  0  0
    3.9670  -31.8040  -25.4580 N   0  0  0  0  0  0  0  0  0  0  0  0
    4.4770  -29.7560  -26.4840 N   0  0  0  0  0  0  0  0  0  0  0  0
    5.7330  -29.8020  -25.9760 C   0  0  0  0  0  0  0  0  0  0  0  0
    6.1550  -30.8900  -25.1630 C   0  0  0  0  0  0  0  0  0  0  0  0
    7.4730  -30.8840  -24.6610 C   0  0  0  0  0  0  0  0  0  0  0  0
    8.3590  -29.8360  -24.9930 C   0  0  0  0  0  0  0  0  0  0  0  0
    7.9110  -28.7470  -25.7690 C   0  0  0  0  0  0  0  0  0  0  0  0
    6.6090  -28.7480  -26.2900 C   0  0  0  0  0  0  0  0  0  0  0  0
   12.0670  -29.3890  -24.4770 N   0  0  0  0  0  0  0  0  0  0  0  0
   11.0910  -30.1010  -19.7900 N   0  0  0  0  0  0  0  0  0  0  0  0
   13.4420  -29.4310  -22.5020 O   0  0  0  0  0  0  0  0  0  0  0  0
   -1.8470  -33.5730  -19.5870 O   0  0  0  0  0  0  0  0  0  0  0  0
    1.5968  -32.8027  -19.6008 H   0  0  0  0  0  0  0  0  0  0  0  0
    0.3405  -33.7125  -18.7189 H   0  0  0  0  0  0  0  0  0  0  0  0
   10.8088  -29.3232  -26.1947 H   0  0  0  0  0  0  0  0  0  0  0  0
    8.9079  -30.1128  -22.3964 H   0  0  0  0  0  0  0  0  0  0  0  0
   14.1346  -27.9061  -21.2693 H   0  0  0  0  0  0  0  0  0  0  0  0
   15.0245  -28.1187  -22.8152 H   0  0  0  0  0  0  0  0  0  0  0  0
   13.3890  -27.3759  -22.8152 H   0  0  0  0  0  0  0  0  0  0  0  0
   -3.3042  -33.4323  -21.4439 H   0  0  0  0  0  0  0  0  0  0  0  0
   -2.0635  -32.6165  -22.4546 H   0  0  0  0  0  0  0  0  0  0  0  0
   -2.1854  -34.4087  -22.4546 H   0  0  0  0  0  0  0  0  0  0  0  0
    1.2664  -32.6911  -22.3091 H   0  0  0  0  0  0  0  0  0  0  0  0
   -0.0371  -33.7579  -22.9405 H   0  0  0  0  0  0  0  0  0  0  0  0
    3.9048  -32.6393  -22.6584 H   0  0  0  0  0  0  0  0  0  0  0  0
    7.0061  -33.9489  -25.3692 H   0  0  0  0  0  0  0  0  0  0  0  0
    7.3052  -36.0296  -24.0229 H   0  0  0  0  0  0  0  0  0  0  0  0
    5.9083  -36.4244  -21.9807 H   0  0  0  0  0  0  0  0  0  0  0  0
    2.5863  -30.7101  -26.6482 H   0  0  0  0  0  0  0  0  0  0  0  0
    1.1820  -35.8724  -19.7492 H   0  0  0  0  0  0  0  0  0  0  0  0
    2.5006  -35.0821  -18.8831 H   0  0  0  0  0  0  0  0  0  0  0  0
    1.1866  -35.7670  -22.3520 H   0  0  0  0  0  0  0  0  0  0  0  0
    2.3903  -34.6907  -23.1231 H   0  0  0  0  0  0  0  0  0  0  0  0
    7.8127  -31.7006  -24.0070 H   0  0  0  0  0  0  0  0  0  0  0  0
    8.5820  -27.8978  -25.9654 H   0  0  0  0  0  0  0  0  0  0  0  0
    6.2744  -27.9275  -26.9417 H   0  0  0  0  0  0  0  0  0  0  0  0
 27 20  2  0
 27 28  1  0
 33 28  2  0
 33 32  1  0
 20 26  1  0
 28 29  1  0
 32 31  2  0
 26 19  2  0
 29 19  1  0
 29 30  2  0
  3 34  2  0
  3  2  1  0
 31 30  1  0
 31  2  1  0
 19 15  1  0
 34  4  1  0
 16 15  1  0
 16 17  2  0
  2  6  2  0
 15 14  2  0
 17 18  1  0
  4 36  1  0
  4  5  2  0
  6  5  1  0
 14 13  1  0
 18 13  2  0
 36  8  1  0
  5  7  1  0
 24 11  1  0
 24 23  1  0
 13 12  1  0
 11 21  1  0
 10  9  1  0
 23 12  1  0
 23 22  1  0
 12 25  2  0
  7 35  3  0
 21  9  1  0
 21  1  1  0
  9 37  2  0
 22  1  1  0
  1 38  1  0
  1 39  1  0
  3 40  1  0
  6 41  1  0
  8 42  1  0
  8 43  1  0
  8 44  1  0
 10 45  1  0
 10 46  1  0
 10 47  1  0
 11 48  1  0
 11 49  1  0
 14 50  1  0
 16 51  1  0
 17 52  1  0
 18 53  1  0
 20 54  1  0
 22 55  1  0
 22 56  1  0
 24 57  1  0
 24 58  1  0
 30 59  1  0
 32 60  1  0
 33 61  1  0
A    1
C2
A    2
C41
A    3
C42
A    4
C45
A    5
C46
A    6
C47
A    7
C49
A    8
C52
A    9
C56
A   10
C58
A   11
C12
A   12
C15
A   13
C17
A   14
C18
A   15
C20
A   16
C21
A   17
C23
A   18
C25
A   19
C27
A   20
C29
A   21
N1
A   22
C5
A   23
N8
A   24
C9
A   25
O16
A   26
N28
A   27
N31
A   28
C32
A   29
C33
A   30
C34
A   31
C36
A   32
C37
A   33
C39
A   34
N44
A   35
N50
A   36
O51
A   37
O57
M  END
