1PJX_DXE_A_441
     RDKit          3D

 16 15  0  0  0  0  0  0  0  0999 V2000
    8.1610    7.8560   -1.5920 C   0  0  0  0  0  0  0  0  0  0  0  0
    7.6590    6.5060   -1.7770 O   0  0  0  0  0  0  0  0  0  0  0  0
    6.2860    6.2240   -2.0420 C   0  0  0  0  0  0  0  0  0  0  0  0
    5.7680    4.8190   -1.6610 C   0  0  0  0  0  0  0  0  0  0  0  0
    5.0430    4.7600   -0.3870 O   0  0  0  0  0  0  0  0  0  0  0  0
    3.8560    5.6000   -0.5990 C   0  0  0  0  0  0  0  0  0  0  0  0
    8.2417    8.0730   -0.5166 H   0  0  0  0  0  0  0  0  0  0  0  0
    9.1526    7.9458   -2.0596 H   0  0  0  0  0  0  0  0  0  0  0  0
    7.4690    8.5718   -2.0596 H   0  0  0  0  0  0  0  0  0  0  0  0
    5.6841    6.9600   -1.4888 H   0  0  0  0  0  0  0  0  0  0  0  0
    6.1922    6.2738   -3.1369 H   0  0  0  0  0  0  0  0  0  0  0  0
    5.0912    4.4753   -2.4571 H   0  0  0  0  0  0  0  0  0  0  0  0
    6.6561    4.1805   -1.5441 H   0  0  0  0  0  0  0  0  0  0  0  0
    3.4377    5.8960    0.3743 H   0  0  0  0  0  0  0  0  0  0  0  0
    4.1397    6.4995   -1.1650 H   0  0  0  0  0  0  0  0  0  0  0  0
    3.1021    5.0332   -1.1650 H   0  0  0  0  0  0  0  0  0  0  0  0
  1  2  1  0
  2  3  1  0
  3  4  1  0
  4  5  1  0
  5  6  1  0
  1  7  1  0
  1  8  1  0
  1  9  1  0
  3 10  1  0
  3 11  1  0
  4 12  1  0
  4 13  1  0
  6 14  1  0
  6 15  1  0
  6 16  1  0
A    1
C4
A    2
O2
A    3
C3
A    4
C2
A    5
O1
A    6
C1
M  END
