3RW9_DSH_A_303
     RDKit          3D

 43 45  0  0  0  0  0  0  0  0999 V2000
    0.7430   58.8340    8.7880 N   0  0  0  0  0  0  0  0  0  0  0  0
    1.4960   71.2080    7.8460 N   0  0  0  0  0  0  0  0  0  0  0  0
    0.9260   70.2580    7.0900 C   0  0  0  0  0  0  0  0  0  0  0  0
    1.4700   69.0360    6.9730 N   0  0  0  0  0  0  0  0  0  0  0  0
    2.6110   68.7320    7.6310 C   0  0  0  0  0  0  0  0  0  0  0  0
    3.2100   69.6980    8.4270 C   0  0  0  0  0  0  0  0  0  0  0  0
    2.6350   70.9550    8.5260 C   0  0  0  0  0  0  0  0  0  0  0  0
    3.2020   71.9160    9.2960 N   0  0  0  0  0  0  0  0  0  0  0  0
    4.3120   69.1410    8.9630 N   0  0  0  0  0  0  0  0  0  0  0  0
    4.3920   67.8730    8.5100 C   0  0  0  0  0  0  0  0  0  0  0  0
    3.3610   67.6280    7.6950 N   0  0  0  0  0  0  0  0  0  0  0  0
    1.6660   58.7760    9.7470 C   0  0  0  0  0  0  0  0  0  0  0  0
    2.4060   59.8390   10.0530 C   0  0  0  0  0  0  0  0  0  0  0  0
    3.7780   61.6460    8.6530 S   0  0  0  0  0  0  0  0  0  0  0  0
    2.2250   61.1430    9.3150 C   0  0  0  0  0  0  0  0  0  0  0  0
    3.0740   66.3360    7.0050 C   0  0  0  0  0  0  0  0  0  0  0  0
    4.3290   65.6810    6.4570 C   0  0  0  0  0  0  0  0  0  0  0  0
    4.6130   66.1530    5.1400 O   0  0  0  0  0  0  0  0  0  0  0  0
    3.9640   64.2100    6.4460 C   0  0  0  0  0  0  0  0  0  0  0  0
    3.2320   63.9230    5.2530 O   0  0  0  0  0  0  0  0  0  0  0  0
    2.9980   64.0480    7.6010 C   0  0  0  0  0  0  0  0  0  0  0  0
    2.5430   65.3720    7.9270 O   0  0  0  0  0  0  0  0  0  0  0  0
    3.6670   63.4040    8.8100 C   0  0  0  0  0  0  0  0  0  0  0  0
   -0.1925   58.8928    9.2150 H   0  0  0  0  0  0  0  0  0  0  0  0
    0.9067   59.6664    8.2038 H   0  0  0  0  0  0  0  0  0  0  0  0
   -0.0075   70.4849    6.5542 H   0  0  0  0  0  0  0  0  0  0  0  0
    3.1599   71.8447   10.3227 H   0  0  0  0  0  0  0  0  0  0  0  0
    3.6748   72.7174    8.8543 H   0  0  0  0  0  0  0  0  0  0  0  0
    5.1820   67.1532    8.7704 H   0  0  0  0  0  0  0  0  0  0  0  0
    1.1410   58.4850   10.6688 H   0  0  0  0  0  0  0  0  0  0  0  0
    2.4065   58.0793    9.3272 H   0  0  0  0  0  0  0  0  0  0  0  0
    2.2244   60.0524   11.1167 H   0  0  0  0  0  0  0  0  0  0  0  0
    3.4178   59.5271    9.7545 H   0  0  0  0  0  0  0  0  0  0  0  0
    1.5019   61.0070    8.4973 H   0  0  0  0  0  0  0  0  0  0  0  0
    1.8480   61.9121   10.0052 H   0  0  0  0  0  0  0  0  0  0  0  0
    2.3705   66.5931    6.1994 H   0  0  0  0  0  0  0  0  0  0  0  0
    5.2312   65.8975    7.0478 H   0  0  0  0  0  0  0  0  0  0  0  0
    5.1226   66.9999    5.1957 H   0  0  0  0  0  0  0  0  0  0  0  0
    4.8515   63.5632    6.5095 H   0  0  0  0  0  0  0  0  0  0  0  0
    2.3374   63.5722    5.4911 H   0  0  0  0  0  0  0  0  0  0  0  0
    2.1663   63.3854    7.3196 H   0  0  0  0  0  0  0  0  0  0  0  0
    3.0801   63.6432    9.7091 H   0  0  0  0  0  0  0  0  0  0  0  0
    4.6898   63.8023    8.8825 H   0  0  0  0  0  0  0  0  0  0  0  0
  1 12  1  0
  2  3  2  0
  2  7  1  0
  3  4  1  0
  4  5  2  0
  5  6  1  0
  5 11  1  0
  6  7  2  0
  6  9  1  0
  7  8  1  0
  9 10  2  0
 10 11  1  0
 11 16  1  0
 12 13  1  0
 13 15  1  0
 14 15  1  0
 14 23  1  0
 16 17  1  0
 16 22  1  0
 17 18  1  0
 17 19  1  0
 19 20  1  0
 19 21  1  0
 21 22  1  0
 21 23  1  0
  1 24  1  0
  1 25  1  0
  3 26  1  0
  8 27  1  0
  8 28  1  0
 10 29  1  0
 12 30  1  0
 12 31  1  0
 13 32  1  0
 13 33  1  0
 15 34  1  0
 15 35  1  0
 16 36  1  0
 17 37  1  0
 18 38  1  0
 19 39  1  0
 20 40  1  0
 21 41  1  0
 23 42  1  0
 23 43  1  0
A    1
N
A    2
N1
A    3
C2
A    4
N3
A    5
C4
A    6
C5
A    7
C6
A    8
N6
A    9
N7
A   10
C8
A   11
N9
A   12
CA
A   13
CB
A   14
SD
A   15
CG
A   16
C1'
A   17
C2'
A   18
O2'
A   19
C3'
A   20
O3'
A   21
C4'
A   22
O4'
A   23
C5'
M  END
