5IS9_6D3_A_501
     RDKit          3D

 73 76  0  0  0  0  0  0  0  0999 V2000
   55.1110   34.3450  136.2210 O   0  0  0  0  0  0  0  0  0  0  0  0
   53.8890   34.6250  136.2360 C   0  0  0  0  0  0  0  0  0  0  0  0
   53.4090   35.7280  135.3310 C   0  0  0  0  0  0  0  0  0  0  0  0
   54.3870   36.7290  135.2980 N   0  0  0  0  0  0  0  0  0  0  0  0
   53.2090   35.1820  133.9150 C   0  0  0  0  0  0  0  0  0  0  0  0
   51.7170   34.8480  133.6150 C   0  0  0  0  0  0  0  0  0  0  0  0
   51.4720   34.4170  132.2840 N   0  0  0  0  0  0  0  0  0  0  0  0
   51.7120   35.4270  131.3090 C   0  0  0  0  0  0  0  0  0  0  0  0
   50.8570   36.6770  131.4400 C   0  0  0  0  0  0  0  0  0  0  0  0
   51.2240   37.5730  130.3560 O   0  0  0  0  0  0  0  0  0  0  0  0
   50.0220   38.1980  129.8910 C   0  0  0  0  0  0  0  0  0  0  0  0
   48.9650   37.1750  130.0590 C   0  0  0  0  0  0  0  0  0  0  0  0
   47.7050   37.7950  130.2420 O   0  0  0  0  0  0  0  0  0  0  0  0
   49.3940   36.4440  131.2910 C   0  0  0  0  0  0  0  0  0  0  0  0
   48.7180   36.9980  132.4160 O   0  0  0  0  0  0  0  0  0  0  0  0
   50.2490   38.6030  128.5520 N   0  0  0  0  0  0  0  0  0  0  0  0
   50.3960   37.8170  127.4810 C   0  0  0  0  0  0  0  0  0  0  0  0
   50.6160   38.5600  126.3850 N   0  0  0  0  0  0  0  0  0  0  0  0
   50.6230   39.8650  126.7670 C   0  0  0  0  0  0  0  0  0  0  0  0
   50.8080   41.0980  126.0900 C   0  0  0  0  0  0  0  0  0  0  0  0
   51.0410   41.1180  124.7170 N   0  0  0  0  0  0  0  0  0  0  0  0
   50.3950   39.9000  128.1580 C   0  0  0  0  0  0  0  0  0  0  0  0
   50.3630   41.1050  128.7850 N   0  0  0  0  0  0  0  0  0  0  0  0
   50.5380   42.2390  128.1100 C   0  0  0  0  0  0  0  0  0  0  0  0
   50.7560   42.2470  126.8090 N   0  0  0  0  0  0  0  0  0  0  0  0
   53.0520   34.0350  136.9680 O   0  0  0  0  0  0  0  0  0  0  0  0
   52.3090   33.2630  131.9860 C   0  0  0  0  0  0  0  0  0  0  0  0
   51.6290   32.3280  130.9690 C   0  0  0  0  0  0  0  0  0  0  0  0
   52.6120   31.4250  130.2170 C   0  0  0  0  0  0  0  0  0  0  0  0
   52.1670   30.0070  130.1940 N   0  0  0  0  0  0  0  0  0  0  0  0
   52.3050   29.1590  129.1450 C   0  0  0  0  0  0  0  0  0  0  0  0
   51.7350   27.8870  129.5430 C   0  0  0  0  0  0  0  0  0  0  0  0
   51.3070   28.0730  130.8190 N   0  0  0  0  0  0  0  0  0  0  0  0
   51.5680   29.3250  131.1640 N   0  0  0  0  0  0  0  0  0  0  0  0
   51.6690   26.5960  128.7010 C   0  0  0  0  0  0  0  0  0  0  0  0
   50.3750   26.3160  127.9740 C   0  0  0  0  0  0  0  0  0  0  0  0
   50.3220   26.9640  126.7030 N   0  0  0  0  0  0  0  0  0  0  0  0
   49.2070   26.7430  128.8780 C   0  0  0  0  0  0  0  0  0  0  0  0
   48.2370   27.4000  128.3760 O   0  0  0  0  0  0  0  0  0  0  0  0
   49.2670   26.3980  130.1270 O   0  0  0  0  0  0  0  0  0  0  0  0
   52.4558   36.1304  135.7044 H   0  0  0  0  0  0  0  0  0  0  0  0
   54.6429   36.9909  136.2607 H   0  0  0  0  0  0  0  0  0  0  0  0
   55.2204   36.3786  134.8045 H   0  0  0  0  0  0  0  0  0  0  0  0
   53.8063   34.2653  133.8018 H   0  0  0  0  0  0  0  0  0  0  0  0
   53.5286   35.9601  133.2062 H   0  0  0  0  0  0  0  0  0  0  0  0
   51.1174   35.7513  133.8007 H   0  0  0  0  0  0  0  0  0  0  0  0
   51.4425   34.0107  134.2734 H   0  0  0  0  0  0  0  0  0  0  0  0
   51.5259   34.9912  130.3163 H   0  0  0  0  0  0  0  0  0  0  0  0
   52.7513   35.7538  131.4611 H   0  0  0  0  0  0  0  0  0  0  0  0
   51.0389   37.0701  132.4511 H   0  0  0  0  0  0  0  0  0  0  0  0
   49.7151   39.1029  130.4359 H   0  0  0  0  0  0  0  0  0  0  0  0
   48.8499   36.5119  129.1889 H   0  0  0  0  0  0  0  0  0  0  0  0
   47.5196   37.8862  131.2102 H   0  0  0  0  0  0  0  0  0  0  0  0
   49.1644   35.3704  131.2226 H   0  0  0  0  0  0  0  0  0  0  0  0
   49.1315   36.6591  133.2492 H   0  0  0  0  0  0  0  0  0  0  0  0
   50.3441   36.7183  127.4957 H   0  0  0  0  0  0  0  0  0  0  0  0
   52.0033   41.2006  124.3591 H   0  0  0  0  0  0  0  0  0  0  0  0
   50.2510   41.0502  124.0595 H   0  0  0  0  0  0  0  0  0  0  0  0
   50.4998   43.1955  128.6519 H   0  0  0  0  0  0  0  0  0  0  0  0
   53.1304   34.0902  137.9533 H   0  0  0  0  0  0  0  0  0  0  0  0
   52.4960   32.7060  132.9159 H   0  0  0  0  0  0  0  0  0  0  0  0
   53.2537   33.6216  131.5512 H   0  0  0  0  0  0  0  0  0  0  0  0
   51.0910   32.9450  130.2343 H   0  0  0  0  0  0  0  0  0  0  0  0
   50.9536   31.6701  131.5355 H   0  0  0  0  0  0  0  0  0  0  0  0
   53.5931   31.4804  130.7113 H   0  0  0  0  0  0  0  0  0  0  0  0
   52.6672   31.7785  129.1768 H   0  0  0  0  0  0  0  0  0  0  0  0
   52.7640   29.3928  128.1730 H   0  0  0  0  0  0  0  0  0  0  0  0
   51.8598   25.7492  129.3767 H   0  0  0  0  0  0  0  0  0  0  0  0
   52.4180   26.7344  127.9073 H   0  0  0  0  0  0  0  0  0  0  0  0
   50.3046   25.2386  127.7637 H   0  0  0  0  0  0  0  0  0  0  0  0
   50.2388   27.9815  126.8396 H   0  0  0  0  0  0  0  0  0  0  0  0
   51.1827   26.7576  126.1762 H   0  0  0  0  0  0  0  0  0  0  0  0
   49.1484   27.0797  130.8351 H   0  0  0  0  0  0  0  0  0  0  0  0
 21 20  1  0
 20 19  2  0
 20 25  1  0
 18 19  1  0
 18 17  2  0
 37 36  1  0
 19 22  1  0
 25 24  2  0
 17 16  1  0
 36 35  1  0
 36 38  1  0
 24 23  1  0
 22 16  1  0
 22 23  2  0
 39 38  2  0
 16 11  1  0
 35 32  1  0
 38 40  1  0
 31 32  2  0
 31 30  1  0
 32 33  1  0
 11 12  1  0
 11 10  1  0
 12 13  1  0
 12 14  1  0
 30 29  1  0
 30 34  1  0
 29 28  1  0
 10  9  1  0
 33 34  2  0
 28 27  1  0
 14  9  1  0
 14 15  1  0
  8  9  1  0
  8  7  1  0
 27  7  1  0
  7  6  1  0
  6  5  1  0
  5  3  1  0
  4  3  1  0
  3  2  1  0
  1  2  2  0
  2 26  1  0
  3 41  1  0
  4 42  1  0
  4 43  1  0
  5 44  1  0
  5 45  1  0
  6 46  1  0
  6 47  1  0
  8 48  1  0
  8 49  1  0
  9 50  1  0
 11 51  1  0
 12 52  1  0
 13 53  1  0
 14 54  1  0
 15 55  1  0
 17 56  1  0
 21 57  1  0
 21 58  1  0
 24 59  1  0
 26 60  1  0
 27 61  1  0
 27 62  1  0
 28 63  1  0
 28 64  1  0
 29 65  1  0
 29 66  1  0
 31 67  1  0
 35 68  1  0
 35 69  1  0
 36 70  1  0
 37 71  1  0
 37 72  1  0
 40 73  1  0
A    1
O1
A    2
C1
A    3
C2
A    4
N1
A    5
C3
A    6
C4
A    7
N2
A    8
C5
A    9
C6
A   10
O2
A   11
C7
A   12
C8
A   13
O3
A   14
C9
A   15
O4
A   16
N3
A   17
C10
A   18
N4
A   19
C11
A   20
C12
A   21
N5
A   22
C13
A   23
N6
A   24
C14
A   25
N7
A   26
O5
A   27
C15
A   28
C16
A   29
C17
A   30
N8
A   31
C18
A   32
C19
A   33
N9
A   34
N10
A   35
C20
A   36
C21
A   37
N11
A   38
C22
A   39
O6
A   40
O7
M  END
