5ISA_6D5_C_501
     RDKit          3D

 58 60  0  0  0  0  0  0  0  0999 V2000
   26.9690   43.5190  181.7450 C   0  0  0  0  0  0  0  0  0  0  0  0
   27.0330   41.1560  181.6560 C   0  0  0  0  0  0  0  0  0  0  0  0
   26.7990   41.1090  182.9990 C   0  0  0  0  0  0  0  0  0  0  0  0
   26.6470   42.2940  183.7150 C   0  0  0  0  0  0  0  0  0  0  0  0
   26.9770   39.0450  182.2590 C   0  0  0  0  0  0  0  0  0  0  0  0
   25.6080   34.4790  178.1060 C   0  0  0  0  0  0  0  0  0  0  0  0
   24.2640   34.0530  178.6650 C   0  0  0  0  0  0  0  0  0  0  0  0
   24.4280   32.9050  179.6490 C   0  0  0  0  0  0  0  0  0  0  0  0
   23.0600   37.9670  174.9340 N   0  0  0  0  0  0  0  0  0  0  0  0
   24.1240   37.2930  174.2260 C   0  0  0  0  0  0  0  0  0  0  0  0
   23.5290   36.2990  173.2330 C   0  0  0  0  0  0  0  0  0  0  0  0
   22.3280   36.0350  173.5480 O   0  0  0  0  0  0  0  0  0  0  0  0
   25.1440   36.6540  175.1740 C   0  0  0  0  0  0  0  0  0  0  0  0
   24.5420   36.0700  176.4720 C   0  0  0  0  0  0  0  0  0  0  0  0
   25.6140   35.8340  177.4960 N   0  0  0  0  0  0  0  0  0  0  0  0
   25.5700   36.8060  178.6310 C   0  0  0  0  0  0  0  0  0  0  0  0
   26.4770   38.0250  178.3850 C   0  0  0  0  0  0  0  0  0  0  0  0
   26.1640   38.9680  179.3620 O   0  0  0  0  0  0  0  0  0  0  0  0
   27.9480   37.7610  178.4290 C   0  0  0  0  0  0  0  0  0  0  0  0
   28.5450   38.2490  177.2780 O   0  0  0  0  0  0  0  0  0  0  0  0
   28.4270   38.4540  179.6420 C   0  0  0  0  0  0  0  0  0  0  0  0
   29.6800   39.0430  179.5090 O   0  0  0  0  0  0  0  0  0  0  0  0
   27.3870   39.4790  179.8390 C   0  0  0  0  0  0  0  0  0  0  0  0
   24.3650   35.9900  172.3350 O   0  0  0  0  0  0  0  0  0  0  0  0
   26.7320   43.4870  183.0870 N   0  0  0  0  0  0  0  0  0  0  0  0
   27.1180   42.3510  181.0240 N   0  0  0  0  0  0  0  0  0  0  0  0
   26.4020   42.2230  185.1300 N   0  0  0  0  0  0  0  0  0  0  0  0
   26.7610   39.8120  183.3780 N   0  0  0  0  0  0  0  0  0  0  0  0
   27.1540   39.8740  181.2050 N   0  0  0  0  0  0  0  0  0  0  0  0
   24.8400   31.6860  178.9620 N   0  0  0  0  0  0  0  0  0  0  0  0
   24.2290   31.3440  177.7920 N   0  0  0  0  0  0  0  0  0  0  0  0
   23.7090   30.9140  176.6020 N   0  0  0  0  0  0  0  0  0  0  0  0
   27.0425   44.4881  181.2297 H   0  0  0  0  0  0  0  0  0  0  0  0
   27.0018   37.9458  182.2258 H   0  0  0  0  0  0  0  0  0  0  0  0
   26.3417   34.4667  178.9255 H   0  0  0  0  0  0  0  0  0  0  0  0
   25.8541   33.7700  177.3018 H   0  0  0  0  0  0  0  0  0  0  0  0
   23.6155   33.7290  177.8376 H   0  0  0  0  0  0  0  0  0  0  0  0
   23.8142   34.9075  179.1918 H   0  0  0  0  0  0  0  0  0  0  0  0
   25.1918   33.1748  180.3932 H   0  0  0  0  0  0  0  0  0  0  0  0
   23.4609   32.7221  180.1403 H   0  0  0  0  0  0  0  0  0  0  0  0
   23.2092   37.8725  175.9488 H   0  0  0  0  0  0  0  0  0  0  0  0
   23.0562   38.9649  174.6790 H   0  0  0  0  0  0  0  0  0  0  0  0
   24.6961   38.0408  173.6572 H   0  0  0  0  0  0  0  0  0  0  0  0
   25.8803   37.4220  175.4532 H   0  0  0  0  0  0  0  0  0  0  0  0
   25.5870   35.8075  174.6288 H   0  0  0  0  0  0  0  0  0  0  0  0
   24.0460   35.1154  176.2422 H   0  0  0  0  0  0  0  0  0  0  0  0
   23.8164   36.7893  176.8796 H   0  0  0  0  0  0  0  0  0  0  0  0
   25.9018   36.2963  179.5476 H   0  0  0  0  0  0  0  0  0  0  0  0
   24.5356   37.1675  178.7274 H   0  0  0  0  0  0  0  0  0  0  0  0
   26.2807   38.3621  177.3565 H   0  0  0  0  0  0  0  0  0  0  0  0
   28.1934   36.6895  178.4707 H   0  0  0  0  0  0  0  0  0  0  0  0
   29.2876   38.8560  177.5233 H   0  0  0  0  0  0  0  0  0  0  0  0
   28.5657   37.7572  180.4818 H   0  0  0  0  0  0  0  0  0  0  0  0
   30.0580   39.2207  180.4066 H   0  0  0  0  0  0  0  0  0  0  0  0
   27.7534   40.3658  179.3011 H   0  0  0  0  0  0  0  0  0  0  0  0
   25.2629   35.6581  172.5876 H   0  0  0  0  0  0  0  0  0  0  0  0
   27.1574   42.4419  185.7951 H   0  0  0  0  0  0  0  0  0  0  0  0
   25.4711   41.9532  185.4786 H   0  0  0  0  0  0  0  0  0  0  0  0
 27  4  1  0
  4 25  1  0
  4  3  2  0
 28  3  1  0
 28  5  2  0
 25  1  2  0
  3  2  1  0
  5 29  1  0
  1 26  1  0
  2 29  1  0
  2 26  2  0
 29 23  1  0
 23 21  1  0
 23 18  1  0
 21 22  1  0
 21 19  1  0
 32 31  2  0
 18 17  1  0
  8  7  1  0
  8 30  1  0
 31 30  2  3
 16 17  1  0
 16 15  1  0
  7  6  1  0
 17 19  1  0
 19 20  1  0
  6 15  1  0
 15 14  1  0
 14 13  1  0
 13 10  1  0
  9 10  1  0
 10 11  1  0
 12 11  2  0
 11 24  1  0
  1 33  1  0
  5 34  1  0
  6 35  1  0
  6 36  1  0
  7 37  1  0
  7 38  1  0
  8 39  1  0
  8 40  1  0
  9 41  1  0
  9 42  1  0
 10 43  1  0
 13 44  1  0
 13 45  1  0
 14 46  1  0
 14 47  1  0
 16 48  1  0
 16 49  1  0
 17 50  1  0
 19 51  1  0
 20 52  1  0
 21 53  1  0
 22 54  1  0
 23 55  1  0
 24 56  1  0
 27 57  1  0
 27 58  1  0
M  CHG  2  31   1  32  -1
A    1
C1
A    2
C2
A    3
C3
A    4
C4
A    5
C5
A    6
C6
A    7
C7
A    8
C8
A    9
N1
A   10
C9
A   11
C10
A   12
O1
A   13
C11
A   14
C12
A   15
N2
A   16
C13
A   17
C14
A   18
O2
A   19
C15
A   20
O3
A   21
C16
A   22
O4
A   23
C17
A   24
O5
A   25
N3
A   26
N4
A   27
N5
A   28
N6
A   29
N7
A   30
N8
A   31
N9
A   32
N10
M  END
