1A9Z_PGE_A_410
     RDKit          3D

 24 23  0  0  0  0  0  0  0  0999 V2000
   17.4260  -18.9830   34.6190 C   0  0  0  0  0  0  0  0  0  0  0  0
   16.4940  -20.0910   34.4690 O   0  0  0  0  0  0  0  0  0  0  0  0
   18.4140  -19.3950   35.6790 C   0  0  0  0  0  0  0  0  0  0  0  0
   18.1150  -19.2070   37.0880 O   0  0  0  0  0  0  0  0  0  0  0  0
   19.1550  -19.5930   37.9900 C   0  0  0  0  0  0  0  0  0  0  0  0
   19.0110  -20.9900   38.6420 C   0  0  0  0  0  0  0  0  0  0  0  0
   19.7990  -25.6880   37.3010 O   0  0  0  0  0  0  0  0  0  0  0  0
   20.2490  -24.5280   38.0520 C   0  0  0  0  0  0  0  0  0  0  0  0
   19.1060  -23.5320   38.1750 C   0  0  0  0  0  0  0  0  0  0  0  0
   19.4850  -22.1450   37.9000 O   0  0  0  0  0  0  0  0  0  0  0  0
   17.9459  -18.7925   33.6685 H   0  0  0  0  0  0  0  0  0  0  0  0
   16.9019  -18.0582   34.9019 H   0  0  0  0  0  0  0  0  0  0  0  0
   16.2208  -20.4158   35.3634 H   0  0  0  0  0  0  0  0  0  0  0  0
   18.5954  -20.4707   35.5376 H   0  0  0  0  0  0  0  0  0  0  0  0
   19.2527  -18.7029   35.5131 H   0  0  0  0  0  0  0  0  0  0  0  0
   20.1040  -19.5784   37.4340 H   0  0  0  0  0  0  0  0  0  0  0  0
   19.1058  -18.8739   38.8210 H   0  0  0  0  0  0  0  0  0  0  0  0
   19.5626  -20.9645   39.5934 H   0  0  0  0  0  0  0  0  0  0  0  0
   17.9247  -21.1435   38.7212 H   0  0  0  0  0  0  0  0  0  0  0  0
   19.5224  -26.4011   37.9296 H   0  0  0  0  0  0  0  0  0  0  0  0
   20.5712  -24.8428   39.0555 H   0  0  0  0  0  0  0  0  0  0  0  0
   21.0933  -24.0559   37.5283 H   0  0  0  0  0  0  0  0  0  0  0  0
   18.3183  -23.8216   37.4639 H   0  0  0  0  0  0  0  0  0  0  0  0
   18.7694  -23.5656   39.2217 H   0  0  0  0  0  0  0  0  0  0  0  0
  1  2  1  0
  1  3  1  0
  3  4  1  0
  4  5  1  0
  5  6  1  0
  6 10  1  0
  7  8  1  0
  8  9  1  0
  9 10  1  0
  1 11  1  0
  1 12  1  0
  2 13  1  0
  3 14  1  0
  3 15  1  0
  5 16  1  0
  5 17  1  0
  6 18  1  0
  6 19  1  0
  7 20  1  0
  8 21  1  0
  8 22  1  0
  9 23  1  0
  9 24  1  0
A    1
C1
A    2
O1
A    3
C2
A    4
O2
A    5
C3
A    6
C4
A    7
O4
A    8
C6
A    9
C5
A   10
O3
M  END
