5ISJ_6LE_A_402
     RDKit          3D

 21 21  0  0  0  0  0  0  0  0999 V2000
    0.8270    8.9290    7.9930 C   0  0  0  0  0  0  0  0  0  0  0  0
    2.0600    9.4840    8.2450 C   0  0  0  0  0  0  0  0  0  0  0  0
    2.9360    8.9060    9.1360 C   0  0  0  0  0  0  0  0  0  0  0  0
    2.5500    7.7570    9.8060 C   0  0  0  0  0  0  0  0  0  0  0  0
    2.5070   10.9680    7.4470 Cl  0  0  0  0  0  0  0  0  0  0  0  0
    0.4590    7.7760    8.6620 C   0  0  0  0  0  0  0  0  0  0  0  0
    1.3040    7.1830    9.5860 C   0  0  0  0  0  0  0  0  0  0  0  0
    0.8350    6.0020   10.4110 C   0  0  0  0  0  0  0  0  0  0  0  0
    0.5600    6.4190   11.7470 O   0  0  0  0  0  0  0  0  0  0  0  0
    1.8860    4.9000   10.4310 C   0  0  0  0  0  0  0  0  0  0  0  0
    1.9670    4.1170    9.1570 N   0  0  0  0  0  0  0  0  0  0  0  0
    0.1429    9.3959    7.2691 H   0  0  0  0  0  0  0  0  0  0  0  0
    3.9268    9.3498    9.3130 H   0  0  0  0  0  0  0  0  0  0  0  0
    3.2411    7.2913   10.5240 H   0  0  0  0  0  0  0  0  0  0  0  0
   -0.5216    7.3218    8.4570 H   0  0  0  0  0  0  0  0  0  0  0  0
   -0.0821    5.6061    9.9504 H   0  0  0  0  0  0  0  0  0  0  0  0
    0.9777    5.7856   12.3830 H   0  0  0  0  0  0  0  0  0  0  0  0
    1.6448    4.2059   11.2496 H   0  0  0  0  0  0  0  0  0  0  0  0
    2.8611    5.3905   10.5674 H   0  0  0  0  0  0  0  0  0  0  0  0
    2.0706    3.1158    9.3754 H   0  0  0  0  0  0  0  0  0  0  0  0
    1.1065    4.2618    8.6097 H   0  0  0  0  0  0  0  0  0  0  0  0
  5  2  1  0
  1  2  2  0
  1  6  1  0
  2  3  1  0
  6  7  2  0
  3  4  2  0
 11 10  1  0
  7  4  1  0
  7  8  1  0
  8 10  1  0
  8  9  1  0
  1 12  1  0
  3 13  1  0
  4 14  1  0
  6 15  1  0
  8 16  1  0
  9 17  1  0
 10 18  1  0
 10 19  1  0
 11 20  1  0
 11 21  1  0
A    1
C4
A    2
C5
A    3
C6
A    4
C7
A    5
CL
A    6
C3
A    7
C2
A    8
C1
A    9
O
A   10
C
A   11
N
M  END
