5ISK_6LZ_A_408
     RDKit          3D

 19 19  0  0  0  0  0  0  0  0999 V2000
   -3.1820    2.0110   11.7570 C   0  0  0  0  0  0  0  0  0  0  0  0
   -2.0290    1.2830   11.8010 C   0  0  0  0  0  0  0  0  0  0  0  0
   -0.9410    1.5560   11.0170 C   0  0  0  0  0  0  0  0  0  0  0  0
   -1.0080    2.6400   10.1630 C   0  0  0  0  0  0  0  0  0  0  0  0
   -1.9410    0.2690   12.7030 F   0  0  0  0  0  0  0  0  0  0  0  0
   -3.2360    3.0950   10.9020 C   0  0  0  0  0  0  0  0  0  0  0  0
   -2.1500    3.4300   10.1050 C   0  0  0  0  0  0  0  0  0  0  0  0
   -2.1760    4.6700    9.2820 C   0  0  0  0  0  0  0  0  0  0  0  0
   -3.1040    5.4550    9.3500 O   0  0  0  0  0  0  0  0  0  0  0  0
   -1.0410    4.9060    8.3040 C   0  0  0  0  0  0  0  0  0  0  0  0
   -1.4400    5.8900    7.3290 N   0  0  0  0  0  0  0  0  0  0  0  0
   -4.0445    1.7425   12.3847 H   0  0  0  0  0  0  0  0  0  0  0  0
   -0.0380    0.9296   11.0654 H   0  0  0  0  0  0  0  0  0  0  0  0
   -0.1474    2.8806    9.5215 H   0  0  0  0  0  0  0  0  0  0  0  0
   -4.1526    3.7011   10.8522 H   0  0  0  0  0  0  0  0  0  0  0  0
   -0.7957    3.9631    7.7934 H   0  0  0  0  0  0  0  0  0  0  0  0
   -0.1579    5.2695    8.8498 H   0  0  0  0  0  0  0  0  0  0  0  0
   -1.7818    6.7330    7.8121 H   0  0  0  0  0  0  0  0  0  0  0  0
   -0.6323    6.1360    6.7391 H   0  0  0  0  0  0  0  0  0  0  0  0
 11 10  1  0
 10  8  1  0
  8  9  2  0
  8  7  1  0
  7  4  2  0
  7  6  1  0
  4  3  1  0
  6  1  2  0
  3  2  2  0
  1  2  1  0
  2  5  1  0
  1 12  1  0
  3 13  1  0
  4 14  1  0
  6 15  1  0
 10 16  1  0
 10 17  1  0
 11 18  1  0
 11 19  1  0
A    1
C4
A    2
C5
A    3
C6
A    4
C7
A    5
F
A    6
C3
A    7
C2
A    8
C1
A    9
O
A   10
C
A   11
N
M  END
