4UF0_MMK_A_2268
     RDKit          3D

 44 44  0  0  0  0  0  0  0  0999 V2000
  -17.7670    3.4370  -26.7620 O   0  0  0  0  0  0  0  0  0  0  0  0
  -16.6740    2.9460  -26.3750 C   0  0  0  0  0  0  0  0  0  0  0  0
  -16.3450    1.7940  -26.8420 O   0  0  0  0  0  0  0  0  0  0  0  0
  -15.8620    3.5830  -25.4060 C   0  0  0  0  0  0  0  0  0  0  0  0
  -14.4770    3.8250  -25.5530 C   0  0  0  0  0  0  0  0  0  0  0  0
  -16.4070    3.9740  -24.2080 C   0  0  0  0  0  0  0  0  0  0  0  0
  -15.6130    4.5150  -23.1820 C   0  0  0  0  0  0  0  0  0  0  0  0
  -14.3420    4.6810  -23.3590 N   0  0  0  0  0  0  0  0  0  0  0  0
  -13.7130    4.3480  -24.5270 C   0  0  0  0  0  0  0  0  0  0  0  0
  -12.2770    4.6070  -24.6680 C   0  0  0  0  0  0  0  0  0  0  0  0
  -11.8860    5.8560  -23.8610 N   0  0  0  0  0  0  0  0  0  0  0  0
  -10.4300    5.8190  -23.4960 C   0  0  0  0  0  0  0  0  0  0  0  0
   -9.5010    6.0240  -24.7360 C   0  0  0  0  0  0  0  0  0  0  0  0
  -10.0180    6.3540  -25.8100 O   0  0  0  0  0  0  0  0  0  0  0  0
   -8.0830    5.8050  -24.6010 N   0  0  0  0  0  0  0  0  0  0  0  0
   -7.4130    5.5150  -23.3150 C   0  0  0  0  0  0  0  0  0  0  0  0
   -7.3790    4.0130  -22.8940 C   0  0  0  0  0  0  0  0  0  0  0  0
   -7.1610    5.9350  -25.8030 C   0  0  0  0  0  0  0  0  0  0  0  0
   -6.5070    5.2910  -26.1750 C   0  0  0  0  0  0  0  0  0  0  0  0
   -6.6340    5.2180  -27.6370 N   0  0  0  0  0  0  0  0  0  0  0  0
   -5.8410    4.0890  -28.1390 C   0  0  0  0  0  0  0  0  0  0  0  0
   -6.1440    6.4690  -28.2300 C   0  0  0  0  0  0  0  0  0  0  0  0
  -18.4370    3.7380  -26.0983 H   0  0  0  0  0  0  0  0  0  0  0  0
  -13.9931    3.5901  -26.5125 H   0  0  0  0  0  0  0  0  0  0  0  0
  -17.4894    3.8614  -24.0475 H   0  0  0  0  0  0  0  0  0  0  0  0
  -16.0741    4.7985  -22.2244 H   0  0  0  0  0  0  0  0  0  0  0  0
  -11.7121    3.7403  -24.2942 H   0  0  0  0  0  0  0  0  0  0  0  0
  -12.0430    4.7753  -25.7296 H   0  0  0  0  0  0  0  0  0  0  0  0
  -12.0711    6.6960  -24.4276 H   0  0  0  0  0  0  0  0  0  0  0  0
  -10.2279    6.6176  -22.7670 H   0  0  0  0  0  0  0  0  0  0  0  0
  -10.2143    4.8259  -23.0751 H   0  0  0  0  0  0  0  0  0  0  0  0
   -6.3742    5.8693  -23.3876 H   0  0  0  0  0  0  0  0  0  0  0  0
   -8.0066    6.0292  -22.5448 H   0  0  0  0  0  0  0  0  0  0  0  0
   -7.3773    3.9398  -21.7964 H   0  0  0  0  0  0  0  0  0  0  0  0
   -8.2658    3.4998  -23.2944 H   0  0  0  0  0  0  0  0  0  0  0  0
   -6.4699    3.5405  -23.2944 H   0  0  0  0  0  0  0  0  0  0  0  0
   -7.2311    6.8912  -26.3422 H   0  0  0  0  0  0  0  0  0  0  0  0
   -5.7871    4.7120  -25.5779 H   0  0  0  0  0  0  0  0  0  0  0  0
   -5.4391    3.5169  -27.2898 H   0  0  0  0  0  0  0  0  0  0  0  0
   -6.4798    3.4359  -28.7517 H   0  0  0  0  0  0  0  0  0  0  0  0
   -5.0099    4.4684  -28.7517 H   0  0  0  0  0  0  0  0  0  0  0  0
   -5.8689    7.1713  -27.4293 H   0  0  0  0  0  0  0  0  0  0  0  0
   -5.2617    6.2588  -28.8524 H   0  0  0  0  0  0  0  0  0  0  0  0
   -6.9343    6.9139  -28.8524 H   0  0  0  0  0  0  0  0  0  0  0  0
  1  2  1  0
  2  3  2  0
  2  4  1  0
  4  5  2  0
  4  6  1  0
  5  9  1  0
  6  7  2  0
  7  8  1  0
  8  9  2  0
  9 10  1  0
 10 11  1  0
 11 12  1  0
 12 13  1  0
 13 14  2  0
 13 15  1  0
 15 16  1  0
 15 18  1  0
 16 17  1  0
 18 19  2  0
 19 20  1  0
 20 21  1  0
 20 22  1  0
  1 23  1  0
  5 24  1  0
  6 25  1  0
  7 26  1  0
 10 27  1  0
 10 28  1  0
 11 29  1  0
 12 30  1  0
 12 31  1  0
 16 32  1  0
 16 33  1  0
 17 34  1  0
 17 35  1  0
 17 36  1  0
 18 37  1  0
 19 38  1  0
 21 39  1  0
 21 40  1  0
 21 41  1  0
 22 42  1  0
 22 43  1  0
 22 44  1  0
A    1
OAT
A    2
CAS
A    3
OAU
A    4
CAO
A    5
CAN
A    6
CAP
A    7
CAQ
A    8
NAR
A    9
CAM
A   10
CAL
A   11
N
A   12
CA
A   13
C
A   14
O
A   15
NAC
A   16
CAB
A   17
CAA
A   18
CAD
A   19
CAE
A   20
NAF
A   21
CAH
A   22
CAG
M  END
