5ITA_6DC_A_801
     RDKit          3D

 47 49  0  0  0  0  0  0  0  0999 V2000
   20.6690   -3.5100  -16.7030 C   0  0  0  0  0  0  0  0  0  0  0  0
   20.8370   -4.1220  -18.1170 C   0  0  0  0  0  0  0  0  0  0  0  0
   20.4690   -3.0370  -19.1250 C   0  0  0  0  0  0  0  0  0  0  0  0
   20.8060   -3.6090  -20.8330 S   0  0  0  0  0  0  0  0  0  0  0  0
   20.2160   -2.5410  -21.7120 O   0  0  0  0  0  0  0  0  0  0  0  0
   20.0560   -4.9180  -21.0250 O   0  0  0  0  0  0  0  0  0  0  0  0
   22.4210   -3.7870  -21.0590 N   0  0  0  0  0  0  0  0  0  0  0  0
   23.2730   -2.7440  -20.9910 C   0  0  0  0  0  0  0  0  0  0  0  0
   24.6240   -3.0770  -21.0530 C   0  0  0  0  0  0  0  0  0  0  0  0
   25.0010   -4.4690  -21.1590 C   0  0  0  0  0  0  0  0  0  0  0  0
   25.3240   -5.5380  -21.2390 N   0  0  0  0  0  0  0  0  0  0  0  0
   22.9000   -1.3980  -20.8870 C   0  0  0  0  0  0  0  0  0  0  0  0
   23.9020   -0.4310  -20.8120 C   0  0  0  0  0  0  0  0  0  0  0  0
   25.2630   -0.7410  -20.8740 C   0  0  0  0  0  0  0  0  0  0  0  0
   25.6200   -2.0960  -20.9900 C   0  0  0  0  0  0  0  0  0  0  0  0
   26.8970   -2.5480  -21.1030 N   0  0  0  0  0  0  0  0  0  0  0  0
   27.9010   -2.1900  -20.2750 C   0  0  0  0  0  0  0  0  0  0  0  0
   29.2320   -2.3700  -20.6890 C   0  0  0  0  0  0  0  0  0  0  0  0
   30.3000   -2.0260  -19.8470 C   0  0  0  0  0  0  0  0  0  0  0  0
   31.6350   -2.1960  -20.2330 C   0  0  0  0  0  0  0  0  0  0  0  0
   31.9560   -2.6550  -21.3370 O   0  0  0  0  0  0  0  0  0  0  0  0
   32.6270   -1.8600  -19.3940 N   0  0  0  0  0  0  0  0  0  0  0  0
   34.0330   -2.0470  -19.8130 C   0  0  0  0  0  0  0  0  0  0  0  0
   32.3410   -1.3300  -18.1270 C   0  0  0  0  0  0  0  0  0  0  0  0
   31.0080   -1.1720  -17.7390 N   0  0  0  0  0  0  0  0  0  0  0  0
   30.0130   -1.4990  -18.5770 C   0  0  0  0  0  0  0  0  0  0  0  0
   28.7030   -1.3220  -18.1720 C   0  0  0  0  0  0  0  0  0  0  0  0
   27.6370   -1.6570  -19.0110 C   0  0  0  0  0  0  0  0  0  0  0  0
   20.8797   -4.2776  -15.9438 H   0  0  0  0  0  0  0  0  0  0  0  0
   21.3701   -2.6713  -16.5808 H   0  0  0  0  0  0  0  0  0  0  0  0
   19.6379   -3.1468  -16.5808 H   0  0  0  0  0  0  0  0  0  0  0  0
   20.1689   -4.9879  -18.2347 H   0  0  0  0  0  0  0  0  0  0  0  0
   21.8701   -4.4660  -18.2733 H   0  0  0  0  0  0  0  0  0  0  0  0
   21.0652   -2.1355  -18.9206 H   0  0  0  0  0  0  0  0  0  0  0  0
   19.3966   -2.8113  -19.0299 H   0  0  0  0  0  0  0  0  0  0  0  0
   22.7961   -4.7251  -21.2592 H   0  0  0  0  0  0  0  0  0  0  0  0
   21.8387   -1.1096  -20.8649 H   0  0  0  0  0  0  0  0  0  0  0  0
   23.6078    0.6229  -20.6990 H   0  0  0  0  0  0  0  0  0  0  0  0
   26.0287    0.0477  -20.8335 H   0  0  0  0  0  0  0  0  0  0  0  0
   27.1116   -3.2040  -21.8675 H   0  0  0  0  0  0  0  0  0  0  0  0
   29.4389   -2.7860  -21.6861 H   0  0  0  0  0  0  0  0  0  0  0  0
   34.6728   -2.1321  -18.9223 H   0  0  0  0  0  0  0  0  0  0  0  0
   34.1175   -2.9643  -20.4142 H   0  0  0  0  0  0  0  0  0  0  0  0
   34.3544   -1.1837  -20.4142 H   0  0  0  0  0  0  0  0  0  0  0  0
   33.1564   -1.0422  -17.4471 H   0  0  0  0  0  0  0  0  0  0  0  0
   28.4965   -0.9107  -17.1729 H   0  0  0  0  0  0  0  0  0  0  0  0
   26.5997   -1.5025  -18.6793 H   0  0  0  0  0  0  0  0  0  0  0  0
  5  4  2  0
 21 20  2  0
 11 10  3  0
 10  9  1  0
 16 15  1  0
 16 17  1  0
  7  8  1  0
  7  4  1  0
  9  8  2  0
  9 15  1  0
  6  4  2  0
  8 12  1  0
 15 14  2  0
 12 13  2  0
 14 13  1  0
  4  3  1  0
 18 17  2  0
 18 19  1  0
 17 28  1  0
 20 19  1  0
 20 22  1  0
 19 26  2  0
 23 22  1  0
 22 24  1  0
  3  2  1  0
 28 27  2  0
 26 27  1  0
 26 25  1  0
 24 25  2  0
  2  1  1  0
  1 29  1  0
  1 30  1  0
  1 31  1  0
  2 32  1  0
  2 33  1  0
  3 34  1  0
  3 35  1  0
  7 36  1  0
 12 37  1  0
 13 38  1  0
 14 39  1  0
 16 40  1  0
 18 41  1  0
 23 42  1  0
 23 43  1  0
 23 44  1  0
 24 45  1  0
 27 46  1  0
 28 47  1  0
A    1
CAA
A    2
CAO
A    3
CAP
A    4
SBB
A    5
OAE
A    6
OAF
A    7
NAS
A    8
CAW
A    9
CAU
A   10
CAG
A   11
NAC
A   12
CAJ
A   13
CAH
A   14
CAI
A   15
CAV
A   16
NAR
A   17
CAT
A   18
CAN
A   19
CAZ
A   20
CAX
A   21
OAD
A   22
NBA
A   23
CAB
A   24
CAM
A   25
NAQ
A   26
CAY
A   27
CAL
A   28
CAK
M  END
