5IU7_6DY_A_2401
     RDKit          3D

 54 58  0  0  0  0  0  0  0  0999 V2000
    0.3750   14.2570   13.1980 C   0  0  0  0  0  0  0  0  0  0  0  0
    0.3080   12.8360   15.6550 C   0  0  0  0  0  0  0  0  0  0  0  0
    3.1880   16.0580   12.9710 C   0  0  0  0  0  0  0  0  0  0  0  0
    3.7830   18.2890   13.6900 C   0  0  0  0  0  0  0  0  0  0  0  0
   -1.2760    6.6520   17.4860 C   0  0  0  0  0  0  0  0  0  0  0  0
   -0.2370    5.0050   18.4870 C   0  0  0  0  0  0  0  0  0  0  0  0
    2.9170   18.0990   14.7720 C   0  0  0  0  0  0  0  0  0  0  0  0
    2.2040   16.9070   14.9270 C   0  0  0  0  0  0  0  0  0  0  0  0
    3.9020   17.2340   12.7900 C   0  0  0  0  0  0  0  0  0  0  0  0
    0.9510   14.2120   15.5810 C   0  0  0  0  0  0  0  0  0  0  0  0
    2.3130   15.8070   14.0410 C   0  0  0  0  0  0  0  0  0  0  0  0
    1.5300   14.4950   14.1770 C   0  0  0  0  0  0  0  0  0  0  0  0
    1.5640    8.8600   18.3380 N   0  0  0  0  0  0  0  0  0  0  0  0
    0.3600    8.4130   17.8420 C   0  0  0  0  0  0  0  0  0  0  0  0
   -0.4680    9.2510   17.1870 N   0  0  0  0  0  0  0  0  0  0  0  0
   -1.7030    8.7770   16.6750 C   0  0  0  0  0  0  0  0  0  0  0  0
   -2.4590    9.7180   16.0480 N   0  0  0  0  0  0  0  0  0  0  0  0
   -2.1570   11.0710   15.8450 C   0  0  0  0  0  0  0  0  0  0  0  0
   -1.2130   11.2540   14.6530 C   0  0  0  0  0  0  0  0  0  0  0  0
   -0.7940   12.6860   14.6470 N   0  0  0  0  0  0  0  0  0  0  0  0
   -0.2180   12.8710   13.2620 C   0  0  0  0  0  0  0  0  0  0  0  0
   -2.0940    7.5130   16.8150 N   0  0  0  0  0  0  0  0  0  0  0  0
   -1.3960    5.3500   17.7940 N   0  0  0  0  0  0  0  0  0  0  0  0
    0.6320    6.0510   18.6060 N   0  0  0  0  0  0  0  0  0  0  0  0
    0.0020    7.0930   18.0240 N   0  0  0  0  0  0  0  0  0  0  0  0
    0.0330    3.6970   18.9720 C   0  0  0  0  0  0  0  0  0  0  0  0
   -0.7500    2.5970   19.1940 C   0  0  0  0  0  0  0  0  0  0  0  0
    0.1000    1.5130   19.6750 C   0  0  0  0  0  0  0  0  0  0  0  0
    1.4020    2.0660   19.7150 C   0  0  0  0  0  0  0  0  0  0  0  0
    1.3240    3.3890   19.2950 O   0  0  0  0  0  0  0  0  0  0  0  0
    0.7486   14.4250   12.1771 H   0  0  0  0  0  0  0  0  0  0  0  0
   -0.4263   14.9557   13.4805 H   0  0  0  0  0  0  0  0  0  0  0  0
   -0.1078   12.6901   16.6629 H   0  0  0  0  0  0  0  0  0  0  0  0
    1.0797   12.0834   15.4356 H   0  0  0  0  0  0  0  0  0  0  0  0
    3.3167   15.2635   12.2212 H   0  0  0  0  0  0  0  0  0  0  0  0
    4.3427   19.2266   13.5569 H   0  0  0  0  0  0  0  0  0  0  0  0
    2.7950   18.9019   15.5139 H   0  0  0  0  0  0  0  0  0  0  0  0
    1.5205   16.8180   15.7843 H   0  0  0  0  0  0  0  0  0  0  0  0
    4.5715   17.3339   11.9230 H   0  0  0  0  0  0  0  0  0  0  0  0
    1.7641   14.2662   16.3199 H   0  0  0  0  0  0  0  0  0  0  0  0
    0.1773   14.9649   15.7920 H   0  0  0  0  0  0  0  0  0  0  0  0
    2.3531   13.8065   13.9353 H   0  0  0  0  0  0  0  0  0  0  0  0
    1.7131    8.9154   19.3556 H   0  0  0  0  0  0  0  0  0  0  0  0
    2.3156    9.1391   17.6914 H   0  0  0  0  0  0  0  0  0  0  0  0
   -3.3645    9.3965   15.6770 H   0  0  0  0  0  0  0  0  0  0  0  0
   -1.6750   11.4708   16.7493 H   0  0  0  0  0  0  0  0  0  0  0  0
   -3.0929   11.6094   15.6345 H   0  0  0  0  0  0  0  0  0  0  0  0
   -1.7348   11.0087   13.7162 H   0  0  0  0  0  0  0  0  0  0  0  0
   -0.3406   10.5891   14.7363 H   0  0  0  0  0  0  0  0  0  0  0  0
   -1.0123   12.7673   12.5081 H   0  0  0  0  0  0  0  0  0  0  0  0
    0.5508   12.1112   13.0578 H   0  0  0  0  0  0  0  0  0  0  0  0
   -1.8371    2.5396   19.0364 H   0  0  0  0  0  0  0  0  0  0  0  0
   -0.2041    0.4914   19.9466 H   0  0  0  0  0  0  0  0  0  0  0  0
    2.3172    1.5402   20.0247 H   0  0  0  0  0  0  0  0  0  0  0  0
  9  3  2  0
  9  4  1  0
  3 11  1  0
  1 21  1  0
  1 12  1  0
 21 20  1  0
  4  7  2  0
 11 12  1  0
 11  8  2  0
 12 10  1  0
 19 20  1  0
 19 18  1  0
 20  2  1  0
  7  8  1  0
 10  2  1  0
 18 17  1  0
 17 16  1  0
 16 22  2  0
 16 15  1  0
 22  5  1  0
 15 14  2  0
  5 23  2  0
  5 25  1  0
 23  6  1  0
 14 25  1  0
 14 13  1  0
 25 24  1  0
  6 24  2  0
  6 26  1  0
 26 27  2  0
 26 30  1  0
 27 28  1  0
 30 29  1  0
 28 29  2  0
  1 31  1  0
  1 32  1  0
  2 33  1  0
  2 34  1  0
  3 35  1  0
  4 36  1  0
  7 37  1  0
  8 38  1  0
  9 39  1  0
 10 40  1  0
 10 41  1  0
 12 42  1  0
 13 43  1  0
 13 44  1  0
 17 45  1  0
 18 46  1  0
 18 47  1  0
 19 48  1  0
 19 49  1  0
 21 50  1  0
 21 51  1  0
 27 52  1  0
 28 53  1  0
 29 54  1  0
A    1
C10
A    2
C13
A    3
C15
A    4
C17
A    5
C21
A    6
C23
A    7
C18
A    8
C19
A    9
C16
A   10
C12
A   11
C14
A   12
C11
A   13
N01
A   14
C02
A   15
N03
A   16
C04
A   17
N05
A   18
C06
A   19
C07
A   20
N08
A   21
C09
A   22
N20
A   23
N22
A   24
N24
A   25
N25
A   26
C26
A   27
C27
A   28
C28
A   29
C29
A   30
O30
M  END
