5IUA_6DX_A_2401
     RDKit          3D

 56 60  0  0  0  0  0  0  0  0999 V2000
  -21.0550   14.8060   14.4660 C   0  0  0  0  0  0  0  0  0  0  0  0
  -18.7130   14.3340   15.8520 C   0  0  0  0  0  0  0  0  0  0  0  0
  -18.1010   16.1010   14.2420 C   0  0  0  0  0  0  0  0  0  0  0  0
  -16.7530   15.7550   12.2670 C   0  0  0  0  0  0  0  0  0  0  0  0
  -17.8270   17.4590   14.1880 C   0  0  0  0  0  0  0  0  0  0  0  0
  -21.0760    6.6640   17.4580 C   0  0  0  0  0  0  0  0  0  0  0  0
  -20.0150    4.9930   18.4320 C   0  0  0  0  0  0  0  0  0  0  0  0
  -16.4800   17.1150   12.2170 C   0  0  0  0  0  0  0  0  0  0  0  0
  -17.0150   17.9660   13.1740 C   0  0  0  0  0  0  0  0  0  0  0  0
  -17.5620   15.2500   13.2780 C   0  0  0  0  0  0  0  0  0  0  0  0
  -19.4730   13.2170   15.1180 C   0  0  0  0  0  0  0  0  0  0  0  0
  -20.3040   15.8560   15.2850 C   0  0  0  0  0  0  0  0  0  0  0  0
  -18.2590    8.8970   18.0590 N   0  0  0  0  0  0  0  0  0  0  0  0
  -19.5380    8.4200   17.6300 C   0  0  0  0  0  0  0  0  0  0  0  0
  -20.4050    9.2450   17.0000 N   0  0  0  0  0  0  0  0  0  0  0  0
  -21.6240    8.7800   16.5920 C   0  0  0  0  0  0  0  0  0  0  0  0
  -22.5380    9.6420   15.9250 N   0  0  0  0  0  0  0  0  0  0  0  0
  -22.2140   11.0490   15.7670 C   0  0  0  0  0  0  0  0  0  0  0  0
  -21.3040   11.2390   14.5390 C   0  0  0  0  0  0  0  0  0  0  0  0
  -21.3020   12.7040   14.0310 C   0  0  0  0  0  0  0  0  0  0  0  0
  -20.8140   13.5030   14.8930 N   0  0  0  0  0  0  0  0  0  0  0  0
  -18.9600   15.5730   15.3120 N   0  0  0  0  0  0  0  0  0  0  0  0
  -21.9650    7.5110   16.8100 N   0  0  0  0  0  0  0  0  0  0  0  0
  -21.1690    5.3300   17.8120 N   0  0  0  0  0  0  0  0  0  0  0  0
  -19.2080    6.0860   18.4630 N   0  0  0  0  0  0  0  0  0  0  0  0
  -19.8880    7.1120   17.8570 N   0  0  0  0  0  0  0  0  0  0  0  0
  -19.6770    3.5940   18.9780 C   0  0  0  0  0  0  0  0  0  0  0  0
  -20.5870    2.5580   19.2260 C   0  0  0  0  0  0  0  0  0  0  0  0
  -19.8430    1.4610   19.6970 C   0  0  0  0  0  0  0  0  0  0  0  0
  -18.5030    1.8400   19.7230 C   0  0  0  0  0  0  0  0  0  0  0  0
  -18.4290    3.1370   19.2770 O   0  0  0  0  0  0  0  0  0  0  0  0
  -20.7424   14.8931   13.4149 H   0  0  0  0  0  0  0  0  0  0  0  0
  -22.1304   14.9987   14.5942 H   0  0  0  0  0  0  0  0  0  0  0  0
  -19.0238   14.3394   16.9072 H   0  0  0  0  0  0  0  0  0  0  0  0
  -17.6365   14.1312   15.7520 H   0  0  0  0  0  0  0  0  0  0  0  0
  -16.3304   15.0791   11.5089 H   0  0  0  0  0  0  0  0  0  0  0  0
  -18.2499   18.1362   14.9447 H   0  0  0  0  0  0  0  0  0  0  0  0
  -15.8396   17.5184   11.4188 H   0  0  0  0  0  0  0  0  0  0  0  0
  -16.7979   19.0436   13.1325 H   0  0  0  0  0  0  0  0  0  0  0  0
  -17.7784   14.1722   13.3179 H   0  0  0  0  0  0  0  0  0  0  0  0
  -19.4110   12.3004   15.7230 H   0  0  0  0  0  0  0  0  0  0  0  0
  -19.0004   13.1041   14.1311 H   0  0  0  0  0  0  0  0  0  0  0  0
  -20.4565   16.8464   14.8312 H   0  0  0  0  0  0  0  0  0  0  0  0
  -20.6905   15.8477   16.3148 H   0  0  0  0  0  0  0  0  0  0  0  0
  -18.0492    8.9752   19.0644 H   0  0  0  0  0  0  0  0  0  0  0  0
  -17.5481    9.1621   17.3624 H   0  0  0  0  0  0  0  0  0  0  0  0
  -23.4249    9.2704   15.5560 H   0  0  0  0  0  0  0  0  0  0  0  0
  -21.6927   11.4072   16.6670 H   0  0  0  0  0  0  0  0  0  0  0  0
  -23.1420   11.6220   15.6241 H   0  0  0  0  0  0  0  0  0  0  0  0
  -21.6599   10.5842   13.7299 H   0  0  0  0  0  0  0  0  0  0  0  0
  -20.2765   10.9845   14.8381 H   0  0  0  0  0  0  0  0  0  0  0  0
  -20.7004   12.7612   13.1119 H   0  0  0  0  0  0  0  0  0  0  0  0
  -22.3439   13.0012   13.8410 H   0  0  0  0  0  0  0  0  0  0  0  0
  -21.6766    2.5953   19.0801 H   0  0  0  0  0  0  0  0  0  0  0  0
  -20.2466    0.4810   19.9915 H   0  0  0  0  0  0  0  0  0  0  0  0
  -17.6570    1.2139   20.0428 H   0  0  0  0  0  0  0  0  0  0  0  0
  8  4  2  0
  8  9  1  0
  4 10  1  0
  9  5  2  0
 10  3  2  0
 20 19  1  0
 20 21  1  0
  5  3  1  0
  3 22  1  0
 19 18  1  0
  1 21  1  0
  1 12  1  0
 21 11  1  0
 11  2  1  0
 12 22  1  0
 22  2  1  0
 18 17  1  0
 17 16  1  0
 16 23  2  0
 16 15  1  0
 23  6  1  0
 15 14  2  0
  6 24  2  0
  6 26  1  0
 14 26  1  0
 14 13  1  0
 24  7  1  0
 26 25  1  0
  7 25  2  0
  7 27  1  0
 27 28  2  0
 27 31  1  0
 28 29  1  0
 31 30  1  0
 29 30  2  0
  1 32  1  0
  1 33  1  0
  2 34  1  0
  2 35  1  0
  4 36  1  0
  5 37  1  0
  8 38  1  0
  9 39  1  0
 10 40  1  0
 11 41  1  0
 11 42  1  0
 12 43  1  0
 12 44  1  0
 13 45  1  0
 13 46  1  0
 17 47  1  0
 18 48  1  0
 18 49  1  0
 19 50  1  0
 19 51  1  0
 20 52  1  0
 20 53  1  0
 28 54  1  0
 29 55  1  0
 30 56  1  0
A    1
C10
A    2
C13
A    3
C15
A    4
C17
A    5
C20
A    6
C22
A    7
C24
A    8
C18
A    9
C19
A   10
C16
A   11
C14
A   12
C11
A   13
N01
A   14
C02
A   15
N03
A   16
C04
A   17
N05
A   18
C06
A   19
C07
A   20
C08
A   21
N09
A   22
N12
A   23
N21
A   24
N23
A   25
N25
A   26
N26
A   27
C27
A   28
C28
A   29
C29
A   30
C30
A   31
O31
M  END
