5IUG_729_A_1501
     RDKit          3D

 80 84  0  0  0  0  0  0  0  0999 V2000
   18.9830  -15.4410  -10.7870 C   0  0  0  0  0  0  0  0  0  0  0  0
   18.9490  -14.8290   -9.5340 C   0  0  0  0  0  0  0  0  0  0  0  0
   19.9350  -13.8890   -9.2140 C   0  0  0  0  0  0  0  0  0  0  0  0
   20.9520  -13.5720  -10.1030 C   0  0  0  0  0  0  0  0  0  0  0  0
   18.0290  -16.4120  -11.1810 N   0  0  0  0  0  0  0  0  0  0  0  0
   16.4210  -17.3290  -12.7330 N   0  0  0  0  0  0  0  0  0  0  0  0
   14.7310  -18.3070  -14.1200 N   0  0  0  0  0  0  0  0  0  0  0  0
   23.9790  -11.5360   -9.8260 N   0  0  0  0  0  0  0  0  0  0  0  0
   23.2940  -12.6400  -10.2780 N   0  0  0  0  0  0  0  0  0  0  0  0
   23.5260   -9.5260   -8.4930 N   0  0  0  0  0  0  0  0  0  0  0  0
   24.5520   -2.8320   -6.5880 N   0  0  0  0  0  0  0  0  0  0  0  0
   26.0610   -0.6740   -6.8210 N   0  0  0  0  0  0  0  0  0  0  0  0
   17.3440  -16.3000  -12.4230 C   0  0  0  0  0  0  0  0  0  0  0  0
   15.6590  -17.3670  -13.9260 C   0  0  0  0  0  0  0  0  0  0  0  0
   15.1920  -17.4580  -16.0880 C   0  0  0  0  0  0  0  0  0  0  0  0
   16.0520  -16.9410  -15.1530 C   0  0  0  0  0  0  0  0  0  0  0  0
   15.0330  -17.0140  -17.5310 C   0  0  0  0  0  0  0  0  0  0  0  0
   14.8670  -18.2480  -18.3990 C   0  0  0  0  0  0  0  0  0  0  0  0
   13.7760  -16.1730  -17.6340 C   0  0  0  0  0  0  0  0  0  0  0  0
   16.2200  -16.2170  -18.0220 C   0  0  0  0  0  0  0  0  0  0  0  0
   20.0090  -15.1200  -11.6650 C   0  0  0  0  0  0  0  0  0  0  0  0
   20.9740  -14.1900  -11.3270 C   0  0  0  0  0  0  0  0  0  0  0  0
   22.0380  -12.5510   -9.8070 C   0  0  0  0  0  0  0  0  0  0  0  0
   21.9150  -11.3900   -9.0860 C   0  0  0  0  0  0  0  0  0  0  0  0
   23.1440  -10.7760   -9.0920 C   0  0  0  0  0  0  0  0  0  0  0  0
   22.8530   -8.9260   -7.3860 C   0  0  0  0  0  0  0  0  0  0  0  0
   23.3850   -7.5750   -6.9110 C   0  0  0  0  0  0  0  0  0  0  0  0
   22.6470   -6.7620   -6.0560 C   0  0  0  0  0  0  0  0  0  0  0  0
   23.1540   -5.5290   -5.6630 C   0  0  0  0  0  0  0  0  0  0  0  0
   24.3890   -5.0980   -6.1250 C   0  0  0  0  0  0  0  0  0  0  0  0
   25.1160   -5.9110   -6.9860 C   0  0  0  0  0  0  0  0  0  0  0  0
   24.6090   -7.1420   -7.3800 C   0  0  0  0  0  0  0  0  0  0  0  0
   24.9430   -3.7390   -5.7050 C   0  0  0  0  0  0  0  0  0  0  0  0
   25.2780   -2.7360   -7.6790 C   0  0  0  0  0  0  0  0  0  0  0  0
   26.2530   -1.5710   -7.7510 C   0  0  0  0  0  0  0  0  0  0  0  0
   24.7850   -0.4640   -6.6670 C   0  0  0  0  0  0  0  0  0  0  0  0
   24.0740   -1.6940   -6.1430 C   0  0  0  0  0  0  0  0  0  0  0  0
   26.7070    0.4330   -7.0920 C   0  0  0  0  0  0  0  0  0  0  0  0
   17.8580  -15.1550   -8.5320 C   0  0  0  0  0  0  0  0  0  0  0  0
   17.5430  -15.3660  -13.1720 O   0  0  0  0  0  0  0  0  0  0  0  0
   14.1870  -18.1130  -15.4090 O   0  0  0  0  0  0  0  0  0  0  0  0
   21.8860   -9.4540   -6.8690 O   0  0  0  0  0  0  0  0  0  0  0  0
   19.9030  -13.3896   -8.2344 H   0  0  0  0  0  0  0  0  0  0  0  0
   17.8289  -17.2092  -10.5602 H   0  0  0  0  0  0  0  0  0  0  0  0
   16.2972  -18.0923  -12.0526 H   0  0  0  0  0  0  0  0  0  0  0  0
   24.9688  -11.3251  -10.0176 H   0  0  0  0  0  0  0  0  0  0  0  0
   24.3382   -9.0311   -8.8883 H   0  0  0  0  0  0  0  0  0  0  0  0
   16.9144  -16.2910  -15.3623 H   0  0  0  0  0  0  0  0  0  0  0  0
   14.7478  -19.1339  -17.7579 H   0  0  0  0  0  0  0  0  0  0  0  0
   13.9763  -18.1325  -19.0341 H   0  0  0  0  0  0  0  0  0  0  0  0
   15.7566  -18.3720  -19.0341 H   0  0  0  0  0  0  0  0  0  0  0  0
   13.4134  -15.9304  -16.6242 H   0  0  0  0  0  0  0  0  0  0  0  0
   14.0007  -15.2427  -18.1763 H   0  0  0  0  0  0  0  0  0  0  0  0
   13.0018  -16.7356  -18.1763 H   0  0  0  0  0  0  0  0  0  0  0  0
   16.7876  -15.8359  -17.1602 H   0  0  0  0  0  0  0  0  0  0  0  0
   16.8687  -16.8632  -18.6315 H   0  0  0  0  0  0  0  0  0  0  0  0
   15.8674  -15.3719  -18.6315 H   0  0  0  0  0  0  0  0  0  0  0  0
   20.0549  -15.6142  -12.6466 H   0  0  0  0  0  0  0  0  0  0  0  0
   21.7679  -13.9430  -12.0473 H   0  0  0  0  0  0  0  0  0  0  0  0
   21.0028  -11.0200   -8.5950 H   0  0  0  0  0  0  0  0  0  0  0  0
   21.6638   -7.0947   -5.6917 H   0  0  0  0  0  0  0  0  0  0  0  0
   22.5724   -4.8910   -4.9814 H   0  0  0  0  0  0  0  0  0  0  0  0
   26.0967   -5.5781   -7.3567 H   0  0  0  0  0  0  0  0  0  0  0  0
   25.1858   -7.7757   -8.0697 H   0  0  0  0  0  0  0  0  0  0  0  0
   26.0419   -3.7794   -5.6770 H   0  0  0  0  0  0  0  0  0  0  0  0
   24.5706   -3.4743   -4.7044 H   0  0  0  0  0  0  0  0  0  0  0  0
   24.5884   -2.6465   -8.5313 H   0  0  0  0  0  0  0  0  0  0  0  0
   25.9059   -3.6391   -7.6885 H   0  0  0  0  0  0  0  0  0  0  0  0
   27.2749   -1.9651   -7.6493 H   0  0  0  0  0  0  0  0  0  0  0  0
   26.0928   -1.0737   -8.7190 H   0  0  0  0  0  0  0  0  0  0  0  0
   24.6431    0.3609   -5.9533 H   0  0  0  0  0  0  0  0  0  0  0  0
   24.3578   -0.2135   -7.6492 H   0  0  0  0  0  0  0  0  0  0  0  0
   24.1525   -1.6944   -5.0458 H   0  0  0  0  0  0  0  0  0  0  0  0
   23.0359   -1.6304   -6.5011 H   0  0  0  0  0  0  0  0  0  0  0  0
   26.9959    0.9281   -6.1532 H   0  0  0  0  0  0  0  0  0  0  0  0
   27.6095    0.1975   -7.6752 H   0  0  0  0  0  0  0  0  0  0  0  0
   26.0580    1.1029   -7.6752 H   0  0  0  0  0  0  0  0  0  0  0  0
   18.2507  -15.0377   -7.5112 H   0  0  0  0  0  0  0  0  0  0  0  0
   17.0089  -14.4713   -8.6791 H   0  0  0  0  0  0  0  0  0  0  0  0
   17.5232  -16.1924   -8.6791 H   0  0  0  0  0  0  0  0  0  0  0  0
 18 17  1  0
 20 17  1  0
 19 17  1  0
 17 15  1  0
 15 41  1  0
 15 16  2  0
 41  7  1  0
 16 14  1  0
  7 14  2  0
 14  6  1  0
 40 13  2  0
  6 13  1  0
 13  5  1  0
 21 22  2  0
 21  1  1  0
 22  4  1  0
  5  1  1  0
  1  2  2  0
  9  8  1  0
  9 23  2  0
  4 23  1  0
  4  3  2  0
  8 25  1  0
 23 24  1  0
  2  3  1  0
  2 39  1  0
 25 24  2  0
 25 10  1  0
 10 26  1  0
 35 34  1  0
 35 12  1  0
 34 11  1  0
 26 27  1  0
 26 42  2  0
 32 31  2  0
 32 27  1  0
 38 12  1  0
 31 30  1  0
 27 28  2  0
 12 36  1  0
 36 37  1  0
 11 37  1  0
 11 33  1  0
 30 33  1  0
 30 29  2  0
 28 29  1  0
  3 43  1  0
  5 44  1  0
  6 45  1  0
  8 46  1  0
 10 47  1  0
 16 48  1  0
 18 49  1  0
 18 50  1  0
 18 51  1  0
 19 52  1  0
 19 53  1  0
 19 54  1  0
 20 55  1  0
 20 56  1  0
 20 57  1  0
 21 58  1  0
 22 59  1  0
 24 60  1  0
 28 61  1  0
 29 62  1  0
 31 63  1  0
 32 64  1  0
 33 65  1  0
 33 66  1  0
 34 67  1  0
 34 68  1  0
 35 69  1  0
 35 70  1  0
 36 71  1  0
 36 72  1  0
 37 73  1  0
 37 74  1  0
 38 75  1  0
 38 76  1  0
 38 77  1  0
 39 78  1  0
 39 79  1  0
 39 80  1  0
A    1
C10
A    2
C11
A    3
C12
A    4
C13
A    5
N01
A    6
N02
A    7
N03
A    8
N04
A    9
N05
A   10
N06
A   11
N07
A   12
N08
A   13
C01
A   14
C02
A   15
C03
A   16
C04
A   17
C05
A   18
C06
A   19
C07
A   20
C08
A   21
C09
A   22
C14
A   23
C15
A   24
C16
A   25
C17
A   26
C18
A   27
C19
A   28
C20
A   29
C21
A   30
C22
A   31
C23
A   32
C24
A   33
C25
A   34
C26
A   35
C27
A   36
C28
A   37
C29
A   38
C30
A   39
C31
A   40
O01
A   41
O02
A   42
O03
M  END
