5IUH_34Y_A_1501
     RDKit          3D

 77 81  0  0  0  0  0  0  0  0999 V2000
   14.8350  -16.5360  -17.6320 C   0  0  0  0  0  0  0  0  0  0  0  0
   15.4990  -17.5750  -18.5020 C   0  0  0  0  0  0  0  0  0  0  0  0
   19.8930  -15.2430  -11.8880 C   0  0  0  0  0  0  0  0  0  0  0  0
   18.7710  -15.5420  -10.9280 C   0  0  0  0  0  0  0  0  0  0  0  0
   18.6930  -14.8590   -9.5780 C   0  0  0  0  0  0  0  0  0  0  0  0
   19.7470  -13.8430   -9.1900 C   0  0  0  0  0  0  0  0  0  0  0  0
   20.8680  -13.5480  -10.1540 C   0  0  0  0  0  0  0  0  0  0  0  0
   20.9440  -14.2250  -11.5040 C   0  0  0  0  0  0  0  0  0  0  0  0
   21.9290  -12.5270   -9.8340 C   0  0  0  0  0  0  0  0  0  0  0  0
   21.7940  -11.4310   -9.0210 C   0  0  0  0  0  0  0  0  0  0  0  0
   23.0020  -10.7770   -9.0530 C   0  0  0  0  0  0  0  0  0  0  0  0
   17.8000  -16.5030  -11.3080 N   0  0  0  0  0  0  0  0  0  0  0  0
   17.1360  -16.3670  -12.5560 C   0  0  0  0  0  0  0  0  0  0  0  0
   16.1620  -17.3590  -12.8690 N   0  0  0  0  0  0  0  0  0  0  0  0
   17.3910  -15.4270  -13.2830 O   0  0  0  0  0  0  0  0  0  0  0  0
   15.4470  -17.3660  -14.0890 C   0  0  0  0  0  0  0  0  0  0  0  0
   14.3090  -18.0540  -14.3120 N   0  0  0  0  0  0  0  0  0  0  0  0
   13.9330  -17.8390  -15.6310 O   0  0  0  0  0  0  0  0  0  0  0  0
   14.8580  -17.0310  -16.2030 C   0  0  0  0  0  0  0  0  0  0  0  0
   15.8010  -16.7360  -15.2680 C   0  0  0  0  0  0  0  0  0  0  0  0
   23.8190  -11.4500   -9.8750 N   0  0  0  0  0  0  0  0  0  0  0  0
   23.1530  -12.5460  -10.3710 N   0  0  0  0  0  0  0  0  0  0  0  0
   23.3950   -9.5730   -8.4020 N   0  0  0  0  0  0  0  0  0  0  0  0
   22.6480   -8.9200   -7.3670 C   0  0  0  0  0  0  0  0  0  0  0  0
   23.2270   -7.6160   -6.8300 C   0  0  0  0  0  0  0  0  0  0  0  0
   21.5970   -9.3500   -6.9580 O   0  0  0  0  0  0  0  0  0  0  0  0
   24.5760   -7.1640   -7.3340 C   0  0  0  0  0  0  0  0  0  0  0  0
   25.1760   -5.8650   -6.8450 C   0  0  0  0  0  0  0  0  0  0  0  0
   24.4290   -5.0020   -5.8580 C   0  0  0  0  0  0  0  0  0  0  0  0
   23.0620   -5.4530   -5.3670 C   0  0  0  0  0  0  0  0  0  0  0  0
   22.4600   -6.7560   -5.8520 C   0  0  0  0  0  0  0  0  0  0  0  0
   25.0290   -3.6870   -5.3880 C   0  0  0  0  0  0  0  0  0  0  0  0
   24.5950   -2.7460   -6.1790 N   0  0  0  0  0  0  0  0  0  0  0  0
   25.2670   -2.5930   -7.3550 C   0  0  0  0  0  0  0  0  0  0  0  0
   26.3470   -1.5360   -7.3160 C   0  0  0  0  0  0  0  0  0  0  0  0
   25.9150   -0.3700   -6.7890 N   0  0  0  0  0  0  0  0  0  0  0  0
   25.3510   -0.5600   -5.5710 C   0  0  0  0  0  0  0  0  0  0  0  0
   24.2230   -1.5710   -5.6160 C   0  0  0  0  0  0  0  0  0  0  0  0
   26.8790    0.4820   -6.7210 C   0  0  0  0  0  0  0  0  0  0  0  0
   17.5700  -15.1750   -8.6150 C   0  0  0  0  0  0  0  0  0  0  0  0
   13.4040  -16.3570  -18.0660 C   0  0  0  0  0  0  0  0  0  0  0  0
   15.3649  -15.5758  -17.7178 H   0  0  0  0  0  0  0  0  0  0  0  0
   15.9823  -18.3312  -17.8660 H   0  0  0  0  0  0  0  0  0  0  0  0
   14.7426  -18.0592  -19.1371 H   0  0  0  0  0  0  0  0  0  0  0  0
   16.2562  -17.0919  -19.1371 H   0  0  0  0  0  0  0  0  0  0  0  0
   19.9474  -15.7594  -12.8577 H   0  0  0  0  0  0  0  0  0  0  0  0
   19.6954  -13.3280   -8.2194 H   0  0  0  0  0  0  0  0  0  0  0  0
   21.7578  -13.9789  -12.2019 H   0  0  0  0  0  0  0  0  0  0  0  0
   20.8978  -11.1346   -8.4562 H   0  0  0  0  0  0  0  0  0  0  0  0
   17.5783  -17.2924  -10.6846 H   0  0  0  0  0  0  0  0  0  0  0  0
   15.9713  -18.1000  -12.1795 H   0  0  0  0  0  0  0  0  0  0  0  0
   16.6897  -16.1064  -15.4227 H   0  0  0  0  0  0  0  0  0  0  0  0
   24.7897  -11.1883  -10.0992 H   0  0  0  0  0  0  0  0  0  0  0  0
   24.2815   -9.1391   -8.6965 H   0  0  0  0  0  0  0  0  0  0  0  0
   25.1248   -7.7820   -8.0599 H   0  0  0  0  0  0  0  0  0  0  0  0
   26.1634   -5.5471   -7.2111 H   0  0  0  0  0  0  0  0  0  0  0  0
   22.5055   -4.8276   -4.6534 H   0  0  0  0  0  0  0  0  0  0  0  0
   21.4698   -7.0745   -5.4942 H   0  0  0  0  0  0  0  0  0  0  0  0
   26.1268   -3.7386   -5.4349 H   0  0  0  0  0  0  0  0  0  0  0  0
   24.7357   -3.4806   -4.3481 H   0  0  0  0  0  0  0  0  0  0  0  0
   24.5413   -2.3167   -8.1341 H   0  0  0  0  0  0  0  0  0  0  0  0
   25.7677   -3.5505   -7.5610 H   0  0  0  0  0  0  0  0  0  0  0  0
   27.1833   -1.9094   -6.7067 H   0  0  0  0  0  0  0  0  0  0  0  0
   26.6564   -1.3381   -8.3529 H   0  0  0  0  0  0  0  0  0  0  0  0
   26.1229   -0.9206   -4.8752 H   0  0  0  0  0  0  0  0  0  0  0  0
   24.9313    0.4009   -5.2387 H   0  0  0  0  0  0  0  0  0  0  0  0
   23.3940   -1.1472   -6.2017 H   0  0  0  0  0  0  0  0  0  0  0  0
   23.9234   -1.7803   -4.5785 H   0  0  0  0  0  0  0  0  0  0  0  0
   27.1123    0.6882   -5.6660 H   0  0  0  0  0  0  0  0  0  0  0  0
   27.7687    0.0696   -7.2195 H   0  0  0  0  0  0  0  0  0  0  0  0
   26.5791    1.4156   -7.2195 H   0  0  0  0  0  0  0  0  0  0  0  0
   17.9333  -15.0728   -7.5818 H   0  0  0  0  0  0  0  0  0  0  0  0
   16.7368  -14.4764   -8.7815 H   0  0  0  0  0  0  0  0  0  0  0  0
   17.2233  -16.2056   -8.7815 H   0  0  0  0  0  0  0  0  0  0  0  0
   12.7591  -16.2763  -17.1786 H   0  0  0  0  0  0  0  0  0  0  0  0
   13.3154  -15.4408  -18.6682 H   0  0  0  0  0  0  0  0  0  0  0  0
   13.0924  -17.2232  -18.6682 H   0  0  0  0  0  0  0  0  0  0  0  0
  2  1  1  0
 41  1  1  0
  1 19  1  0
 19 18  1  0
 19 20  2  0
 18 17  1  0
 20 16  1  0
 17 16  2  0
 16 14  1  0
 15 13  2  0
 14 13  1  0
 13 12  1  0
  3  8  2  0
  3  4  1  0
  8  7  1  0
 12  4  1  0
  4  5  2  0
 22 21  1  0
 22  9  2  0
  7  9  1  0
  7  6  2  0
 21 11  1  0
  9 10  1  0
  5  6  1  0
  5 40  1  0
 11 10  2  0
 11 23  1  0
 23 24  1  0
 24 26  2  0
 24 25  1  0
 34 35  1  0
 34 33  1  0
 27 28  2  0
 27 25  1  0
 35 36  1  0
 28 29  1  0
 25 31  2  0
 36 39  1  0
 36 37  1  0
 33 38  1  0
 33 32  1  0
 29 32  1  0
 29 30  2  0
 31 30  1  0
 38 37  1  0
  1 42  1  0
  2 43  1  0
  2 44  1  0
  2 45  1  0
  3 46  1  0
  6 47  1  0
  8 48  1  0
 10 49  1  0
 12 50  1  0
 14 51  1  0
 20 52  1  0
 21 53  1  0
 23 54  1  0
 27 55  1  0
 28 56  1  0
 30 57  1  0
 31 58  1  0
 32 59  1  0
 32 60  1  0
 34 61  1  0
 34 62  1  0
 35 63  1  0
 35 64  1  0
 37 65  1  0
 37 66  1  0
 38 67  1  0
 38 68  1  0
 39 69  1  0
 39 70  1  0
 39 71  1  0
 40 72  1  0
 40 73  1  0
 40 74  1  0
 41 75  1  0
 41 76  1  0
 41 77  1  0
A    1
C10
A    2
C11
A    3
C12
A    4
C13
A    5
C14
A    6
C15
A    7
C16
A    8
C17
A    9
C18
A   10
C19
A   11
C20
A   12
N01
A   13
C02
A   14
N03
A   15
O04
A   16
C05
A   17
N06
A   18
O07
A   19
C08
A   20
C09
A   21
N21
A   22
N22
A   23
N23
A   24
C24
A   25
C25
A   26
O26
A   27
C27
A   28
C28
A   29
C29
A   30
C30
A   31
C31
A   32
C32
A   33
N33
A   34
C34
A   35
C35
A   36
N36
A   37
C37
A   38
C38
A   39
C39
A   40
C40
A   41
C41
M  END
