5IUI_45Q_A_1501
     RDKit          3D

 58 61  0  0  0  0  0  0  0  0999 V2000
   75.3610   69.1050    9.2860 C   0  0  0  0  0  0  0  0  0  0  0  0
   75.2180   67.2690    7.6350 C   0  0  0  0  0  0  0  0  0  0  0  0
   75.8320   65.9600    7.2400 C   0  0  0  0  0  0  0  0  0  0  0  0
   77.1860   65.5700    7.7010 C   0  0  0  0  0  0  0  0  0  0  0  0
   69.6900   74.2530   11.2310 N   0  0  0  0  0  0  0  0  0  0  0  0
   71.5670   72.8330   11.9190 C   0  0  0  0  0  0  0  0  0  0  0  0
   70.7330   73.4480   10.8760 C   0  0  0  0  0  0  0  0  0  0  0  0
   71.0430   73.1390    9.4460 C   0  0  0  0  0  0  0  0  0  0  0  0
   72.1670   72.2420    9.1050 C   0  0  0  0  0  0  0  0  0  0  0  0
   73.0000   71.6650   10.1640 C   0  0  0  0  0  0  0  0  0  0  0  0
   72.6870   71.9500   11.5520 C   0  0  0  0  0  0  0  0  0  0  0  0
   74.1440   70.7360    9.9610 C   0  0  0  0  0  0  0  0  0  0  0  0
   74.1620   69.6850    9.1520 C   0  0  0  0  0  0  0  0  0  0  0  0
   76.0070   69.7580   10.2200 N   0  0  0  0  0  0  0  0  0  0  0  0
   75.2680   70.7540   10.6240 N   0  0  0  0  0  0  0  0  0  0  0  0
   75.8210   67.9420    8.6970 N   0  0  0  0  0  0  0  0  0  0  0  0
   74.2780   67.6700    7.0810 O   0  0  0  0  0  0  0  0  0  0  0  0
   77.7630   64.2630    7.3300 C   0  0  0  0  0  0  0  0  0  0  0  0
   76.9760   63.3140    6.5190 C   0  0  0  0  0  0  0  0  0  0  0  0
   75.6340   63.6900    6.0450 C   0  0  0  0  0  0  0  0  0  0  0  0
   75.0480   65.0040    6.4180 C   0  0  0  0  0  0  0  0  0  0  0  0
   77.6150   62.0220    6.1390 C   0  0  0  0  0  0  0  0  0  0  0  0
   77.4830   60.9480    6.8470 N   0  0  0  0  0  0  0  0  0  0  0  0
   78.1420   59.8660    6.2660 C   0  0  0  0  0  0  0  0  0  0  0  0
   78.0320   58.5720    7.0620 C   0  0  0  0  0  0  0  0  0  0  0  0
   77.2510   58.7060    8.1770 N   0  0  0  0  0  0  0  0  0  0  0  0
   77.3960   59.8210    8.9700 C   0  0  0  0  0  0  0  0  0  0  0  0
   77.6060   61.1020    8.1750 C   0  0  0  0  0  0  0  0  0  0  0  0
   77.1060   57.6260    8.8790 C   0  0  0  0  0  0  0  0  0  0  0  0
   70.2460   73.7240    8.3460 C   0  0  0  0  0  0  0  0  0  0  0  0
   77.7675   66.2628    8.3269 H   0  0  0  0  0  0  0  0  0  0  0  0
   69.4801   74.4150   12.2263 H   0  0  0  0  0  0  0  0  0  0  0  0
   69.1126   74.6986   10.5037 H   0  0  0  0  0  0  0  0  0  0  0  0
   71.3532   73.0335   12.9792 H   0  0  0  0  0  0  0  0  0  0  0  0
   72.3794   72.0064    8.0517 H   0  0  0  0  0  0  0  0  0  0  0  0
   73.2988   71.4973   12.3462 H   0  0  0  0  0  0  0  0  0  0  0  0
   73.3452   69.3525    8.4945 H   0  0  0  0  0  0  0  0  0  0  0  0
   76.9444   69.5235   10.5767 H   0  0  0  0  0  0  0  0  0  0  0  0
   76.6878   67.5357    9.0771 H   0  0  0  0  0  0  0  0  0  0  0  0
   78.7787   63.9966    7.6578 H   0  0  0  0  0  0  0  0  0  0  0  0
   75.0624   62.9954    5.4119 H   0  0  0  0  0  0  0  0  0  0  0  0
   74.0334   65.2682    6.0850 H   0  0  0  0  0  0  0  0  0  0  0  0
   77.2347   61.7760    5.1366 H   0  0  0  0  0  0  0  0  0  0  0  0
   78.6828   62.2503    6.2716 H   0  0  0  0  0  0  0  0  0  0  0  0
   77.7127   59.6953    5.2677 H   0  0  0  0  0  0  0  0  0  0  0  0
   79.2100   60.1268    6.2296 H   0  0  0  0  0  0  0  0  0  0  0  0
   77.5940   57.7969    6.4159 H   0  0  0  0  0  0  0  0  0  0  0  0
   79.0441   58.2980    7.3946 H   0  0  0  0  0  0  0  0  0  0  0  0
   78.2654   59.6714    9.6272 H   0  0  0  0  0  0  0  0  0  0  0  0
   76.4621   59.9400    9.5388 H   0  0  0  0  0  0  0  0  0  0  0  0
   78.6175   61.4786    8.3871 H   0  0  0  0  0  0  0  0  0  0  0  0
   76.8181   61.8030    8.4879 H   0  0  0  0  0  0  0  0  0  0  0  0
   77.1397   57.8772    9.9494 H   0  0  0  0  0  0  0  0  0  0  0  0
   76.1375   57.1617    8.6417 H   0  0  0  0  0  0  0  0  0  0  0  0
   77.9178   56.9227    8.6417 H   0  0  0  0  0  0  0  0  0  0  0  0
   69.4266   74.3254    8.7666 H   0  0  0  0  0  0  0  0  0  0  0  0
   70.8908   74.3649    7.7267 H   0  0  0  0  0  0  0  0  0  0  0  0
   69.8279   72.9168    7.7267 H   0  0  0  0  0  0  0  0  0  0  0  0
 20 21  2  0
 20 19  1  0
 22 19  1  0
 22 23  1  0
 24 23  1  0
 24 25  1  0
 21  3  1  0
 19 18  2  0
 23 28  1  0
 25 26  1  0
 17  2  2  0
  3  2  1  0
  3  4  2  0
 18  4  1  0
  2 16  1  0
 28 27  1  0
 26 29  1  0
 26 27  1  0
 30  8  1  0
 16  1  1  0
  9  8  2  0
  9 10  1  0
 13  1  2  0
 13 12  1  0
  1 14  1  0
  8  7  1  0
 12 10  1  0
 12 15  2  0
 10 11  2  0
 14 15  1  0
  7  5  1  0
  7  6  2  0
 11  6  1  0
  4 31  1  0
  5 32  1  0
  5 33  1  0
  6 34  1  0
  9 35  1  0
 11 36  1  0
 13 37  1  0
 14 38  1  0
 16 39  1  0
 18 40  1  0
 20 41  1  0
 21 42  1  0
 22 43  1  0
 22 44  1  0
 24 45  1  0
 24 46  1  0
 25 47  1  0
 25 48  1  0
 27 49  1  0
 27 50  1  0
 28 51  1  0
 28 52  1  0
 29 53  1  0
 29 54  1  0
 29 55  1  0
 30 56  1  0
 30 57  1  0
 30 58  1  0
A    1
C10
A    2
C14
A    3
C15
A    4
C17
A    5
N01
A    6
C02
A    7
C03
A    8
C04
A    9
C05
A   10
C06
A   11
C07
A   12
C08
A   13
C09
A   14
N11
A   15
N12
A   16
N13
A   17
O16
A   18
C18
A   19
C19
A   20
C20
A   21
C21
A   22
C22
A   23
N23
A   24
C24
A   25
C25
A   26
N26
A   27
C27
A   28
C28
A   29
C29
A   30
C30
M  END
