5IVC_6E7_A_601
     RDKit          3D

 43 45  0  0  0  0  0  0  0  0999 V2000
  -23.8370   20.1690    2.5610 C   0  0  0  0  0  0  0  0  0  0  0  0
  -24.0020   21.7070    0.2930 C   0  0  0  0  0  0  0  0  0  0  0  0
  -25.9930   25.9370    3.6610 C   0  0  0  0  0  0  0  0  0  0  0  0
  -26.3670   25.0080    4.8170 C   0  0  0  0  0  0  0  0  0  0  0  0
  -27.6130   25.0730    5.4030 C   0  0  0  0  0  0  0  0  0  0  0  0
  -27.1430   23.2570    6.9330 C   0  0  0  0  0  0  0  0  0  0  0  0
  -25.5040   24.0160    5.3190 C   0  0  0  0  0  0  0  0  0  0  0  0
  -24.1730   20.3430    7.8680 O   0  0  0  0  0  0  0  0  0  0  0  0
  -23.5090   19.3160    7.5750 C   0  0  0  0  0  0  0  0  0  0  0  0
  -22.8570   18.6440    8.3920 O   0  0  0  0  0  0  0  0  0  0  0  0
  -23.5270   18.8550    6.1250 C   0  0  0  0  0  0  0  0  0  0  0  0
  -23.3680   17.5050    5.8340 C   0  0  0  0  0  0  0  0  0  0  0  0
  -23.3890   17.1190    4.5090 C   0  0  0  0  0  0  0  0  0  0  0  0
  -23.5420   17.9590    3.4680 N   0  0  0  0  0  0  0  0  0  0  0  0
  -23.7080   19.2790    3.7560 C   0  0  0  0  0  0  0  0  0  0  0  0
  -23.6900   19.7750    5.0660 C   0  0  0  0  0  0  0  0  0  0  0  0
  -24.2280   21.4950    2.6550 C   0  0  0  0  0  0  0  0  0  0  0  0
  -24.3240   22.2960    1.5060 C   0  0  0  0  0  0  0  0  0  0  0  0
  -23.6180   20.3770    0.2830 C   0  0  0  0  0  0  0  0  0  0  0  0
  -23.5120   19.6180    1.3880 N   0  0  0  0  0  0  0  0  0  0  0  0
  -24.7280   23.7190    1.5740 C   0  0  0  0  0  0  0  0  0  0  0  0
  -24.0320   24.5960    1.0640 O   0  0  0  0  0  0  0  0  0  0  0  0
  -25.8510   24.0060    2.1770 N   0  0  0  0  0  0  0  0  0  0  0  0
  -26.3130   25.3770    2.3140 C   0  0  0  0  0  0  0  0  0  0  0  0
  -28.0080   24.2290    6.4420 C   0  0  0  0  0  0  0  0  0  0  0  0
  -25.8770   23.1520    6.3580 C   0  0  0  0  0  0  0  0  0  0  0  0
  -24.0506   22.2844   -0.6420 H   0  0  0  0  0  0  0  0  0  0  0  0
  -24.9115   26.1322    3.7081 H   0  0  0  0  0  0  0  0  0  0  0  0
  -26.5900   26.8534    3.7786 H   0  0  0  0  0  0  0  0  0  0  0  0
  -28.3280   25.8237    5.0353 H   0  0  0  0  0  0  0  0  0  0  0  0
  -27.4490   22.5896    7.7521 H   0  0  0  0  0  0  0  0  0  0  0  0
  -24.5004   23.9150    4.8801 H   0  0  0  0  0  0  0  0  0  0  0  0
  -22.9898   18.7809    9.3635 H   0  0  0  0  0  0  0  0  0  0  0  0
  -23.2294   16.7657    6.6366 H   0  0  0  0  0  0  0  0  0  0  0  0
  -23.2723   16.0479    4.2876 H   0  0  0  0  0  0  0  0  0  0  0  0
  -23.7998   20.8514    5.2643 H   0  0  0  0  0  0  0  0  0  0  0  0
  -24.4655   21.9243    3.6395 H   0  0  0  0  0  0  0  0  0  0  0  0
  -23.3856   19.9132   -0.6870 H   0  0  0  0  0  0  0  0  0  0  0  0
  -26.4227   23.2420    2.5647 H   0  0  0  0  0  0  0  0  0  0  0  0
  -25.8256   25.9956    1.5460 H   0  0  0  0  0  0  0  0  0  0  0  0
  -27.4061   25.3838    2.1913 H   0  0  0  0  0  0  0  0  0  0  0  0
  -29.0131   24.3336    6.8767 H   0  0  0  0  0  0  0  0  0  0  0  0
  -25.1704   22.3906    6.7200 H   0  0  0  0  0  0  0  0  0  0  0  0
 19  2  2  0
 19 20  1  0
  2 18  1  0
 22 21  2  0
 20  1  2  0
 18 21  1  0
 18 17  2  0
 21 23  1  0
 23 24  1  0
 24  3  1  0
  1 17  1  0
  1 15  1  0
 14 15  2  0
 14 13  1  0
  3  4  1  0
 15 16  1  0
 13 12  2  0
  4  7  1  0
  4  5  2  0
 16 11  2  0
  7 26  2  0
  5 25  1  0
 12 11  1  0
 11  9  1  0
 26  6  1  0
 25  6  2  0
  9  8  2  0
  9 10  1  0
  2 27  1  0
  3 28  1  0
  3 29  1  0
  5 30  1  0
  6 31  1  0
  7 32  1  0
 10 33  1  0
 12 34  1  0
 13 35  1  0
 16 36  1  0
 17 37  1  0
 19 38  1  0
 23 39  1  0
 24 40  1  0
 24 41  1  0
 25 42  1  0
 26 43  1  0
A    1
C10
A    2
C13
A    3
C20
A    4
C21
A    5
C22
A    6
C24
A    7
C26
A    8
O01
A    9
C02
A   10
O03
A   11
C04
A   12
C05
A   13
C06
A   14
N07
A   15
C08
A   16
C09
A   17
C11
A   18
C12
A   19
C14
A   20
N15
A   21
C16
A   22
O17
A   23
N18
A   24
C19
A   25
C23
A   26
C25
M  END
