5IVJ_6ED_A_601
     RDKit          3D

 50 53  0  0  0  0  0  0  0  0999 V2000
  -24.5960   21.8780    3.5670 N   0  0  0  0  0  0  0  0  0  0  0  0
  -24.2470   22.5460    0.9420 C   0  0  0  0  0  0  0  0  0  0  0  0
  -25.1220   22.5810   -1.3380 C   0  0  0  0  0  0  0  0  0  0  0  0
  -27.5880   21.8370   -0.6270 C   0  0  0  0  0  0  0  0  0  0  0  0
  -25.8570   23.6940    4.0770 C   0  0  0  0  0  0  0  0  0  0  0  0
  -26.4080   23.2560    6.4020 C   0  0  0  0  0  0  0  0  0  0  0  0
  -22.7020   18.4190    8.4090 O   0  0  0  0  0  0  0  0  0  0  0  0
  -23.4750   19.0840    7.6900 C   0  0  0  0  0  0  0  0  0  0  0  0
  -24.1560   20.0460    8.1110 O   0  0  0  0  0  0  0  0  0  0  0  0
  -23.5840   18.7330    6.2450 C   0  0  0  0  0  0  0  0  0  0  0  0
  -23.0820   17.4890    5.8710 C   0  0  0  0  0  0  0  0  0  0  0  0
  -23.1530   17.1040    4.5310 C   0  0  0  0  0  0  0  0  0  0  0  0
  -23.7020   17.8870    3.5610 N   0  0  0  0  0  0  0  0  0  0  0  0
  -24.1900   19.0880    3.9520 C   0  0  0  0  0  0  0  0  0  0  0  0
  -24.1350   19.5430    5.2670 C   0  0  0  0  0  0  0  0  0  0  0  0
  -24.6820   20.8040    5.6470 N   0  0  0  0  0  0  0  0  0  0  0  0
  -24.9770   21.7470    4.8400 C   0  0  0  0  0  0  0  0  0  0  0  0
  -25.1510   23.0750    3.0980 N   0  0  0  0  0  0  0  0  0  0  0  0
  -25.7840   22.9000    5.2140 C   0  0  0  0  0  0  0  0  0  0  0  0
  -27.1130   24.4490    6.3790 C   0  0  0  0  0  0  0  0  0  0  0  0
  -27.7300   24.8350    7.5010 F   0  0  0  0  0  0  0  0  0  0  0  0
  -27.2110   25.2700    5.2700 C   0  0  0  0  0  0  0  0  0  0  0  0
  -26.5780   24.8970    4.0950 C   0  0  0  0  0  0  0  0  0  0  0  0
  -24.9390   23.4400    1.8680 C   0  0  0  0  0  0  0  0  0  0  0  0
  -25.1510   21.8970   -0.0310 N   0  0  0  0  0  0  0  0  0  0  0  0
  -26.1760   23.6950   -1.4570 C   0  0  0  0  0  0  0  0  0  0  0  0
  -27.5730   23.1930   -1.2460 C   0  0  0  0  0  0  0  0  0  0  0  0
  -28.2540   23.1690   -2.4490 F   0  0  0  0  0  0  0  0  0  0  0  0
  -28.2650   24.0710   -0.4500 F   0  0  0  0  0  0  0  0  0  0  0  0
  -26.5550   21.7570    0.4960 C   0  0  0  0  0  0  0  0  0  0  0  0
  -23.7417   21.7623    1.5255 H   0  0  0  0  0  0  0  0  0  0  0  0
  -23.5366   23.1588    0.3677 H   0  0  0  0  0  0  0  0  0  0  0  0
  -25.3074   21.8373   -2.1270 H   0  0  0  0  0  0  0  0  0  0  0  0
  -24.1330   23.0514   -1.4413 H   0  0  0  0  0  0  0  0  0  0  0  0
  -28.5882   21.6368   -0.2153 H   0  0  0  0  0  0  0  0  0  0  0  0
  -27.3410   21.0895   -1.3952 H   0  0  0  0  0  0  0  0  0  0  0  0
  -26.3467   22.6305    7.3048 H   0  0  0  0  0  0  0  0  0  0  0  0
  -22.7699   18.4774    9.3949 H   0  0  0  0  0  0  0  0  0  0  0  0
  -22.6358   16.8192    6.6209 H   0  0  0  0  0  0  0  0  0  0  0  0
  -22.7467   16.1226    4.2452 H   0  0  0  0  0  0  0  0  0  0  0  0
  -24.6528   19.7363    3.1934 H   0  0  0  0  0  0  0  0  0  0  0  0
  -24.8519   20.9658    6.6499 H   0  0  0  0  0  0  0  0  0  0  0  0
  -27.7843   26.2074    5.3202 H   0  0  0  0  0  0  0  0  0  0  0  0
  -26.6396   25.5297    3.1973 H   0  0  0  0  0  0  0  0  0  0  0  0
  -24.3501   24.3681    1.9108 H   0  0  0  0  0  0  0  0  0  0  0  0
  -25.9535   23.4985    1.4469 H   0  0  0  0  0  0  0  0  0  0  0  0
  -25.9609   24.4655   -0.7019 H   0  0  0  0  0  0  0  0  0  0  0  0
  -26.1185   24.0999   -2.4782 H   0  0  0  0  0  0  0  0  0  0  0  0
  -26.7480   22.5652    1.2168 H   0  0  0  0  0  0  0  0  0  0  0  0
  -26.6453   20.7718    0.9769 H   0  0  0  0  0  0  0  0  0  0  0  0
 28 27  1  0
 26  3  1  0
 26 27  1  0
  3 25  1  0
 27  4  1  0
 27 29  1  0
  4 30  1  0
 25 30  1  0
 25  2  1  0
  2 24  1  0
 24 18  1  0
 18  1  1  0
 18  5  1  0
 13 14  2  0
 13 12  1  0
  1 17  2  0
 14 15  1  0
  5 23  2  0
  5 19  1  0
 23 22  1  0
 12 11  2  0
 17 19  1  0
 17 16  1  0
 19  6  2  0
 15 16  1  0
 15 10  2  0
 22 20  2  0
 11 10  1  0
 10  8  1  0
 20  6  1  0
 20 21  1  0
  8  9  2  0
  8  7  1  0
  2 31  1  0
  2 32  1  0
  3 33  1  0
  3 34  1  0
  4 35  1  0
  4 36  1  0
  6 37  1  0
  7 38  1  0
 11 39  1  0
 12 40  1  0
 14 41  1  0
 16 42  1  0
 22 43  1  0
 23 44  1  0
 24 45  1  0
 24 46  1  0
 26 47  1  0
 26 48  1  0
 30 49  1  0
 30 50  1  0
A    1
N12
A    2
C15
A    3
C17
A    4
C22
A    5
C24
A    6
C26
A    7
O01
A    8
C02
A    9
O03
A   10
C04
A   11
C05
A   12
C06
A   13
N07
A   14
C08
A   15
C09
A   16
N10
A   17
C11
A   18
N13
A   19
C25
A   20
C27
A   21
F28
A   22
C29
A   23
C30
A   24
C14
A   25
N16
A   26
C18
A   27
C19
A   28
F20
A   29
F21
A   30
C23
M  END
