5IVV_6EN_A_601
     RDKit          3D

 32 34  0  0  0  0  0  0  0  0999 V2000
  -25.9530   23.9210    4.3070 C   0  0  0  0  0  0  0  0  0  0  0  0
  -27.4430   25.1650    5.4880 C   0  0  0  0  0  0  0  0  0  0  0  0
  -25.8220   22.9940    5.3490 C   0  0  0  0  0  0  0  0  0  0  0  0
  -22.6480   18.4650    8.4150 O   0  0  0  0  0  0  0  0  0  0  0  0
  -23.4120   19.1140    7.6790 C   0  0  0  0  0  0  0  0  0  0  0  0
  -24.1190   20.0940    8.0640 O   0  0  0  0  0  0  0  0  0  0  0  0
  -23.5280   18.7660    6.1940 C   0  0  0  0  0  0  0  0  0  0  0  0
  -23.0780   17.5160    5.7610 C   0  0  0  0  0  0  0  0  0  0  0  0
  -23.1720   17.1800    4.4040 C   0  0  0  0  0  0  0  0  0  0  0  0
  -23.6800   18.0320    3.4720 N   0  0  0  0  0  0  0  0  0  0  0  0
  -24.1050   19.2490    3.9200 C   0  0  0  0  0  0  0  0  0  0  0  0
  -24.0510   19.6580    5.2720 C   0  0  0  0  0  0  0  0  0  0  0  0
  -24.5140   20.9290    5.6700 N   0  0  0  0  0  0  0  0  0  0  0  0
  -24.9020   21.9780    4.9230 C   0  0  0  0  0  0  0  0  0  0  0  0
  -24.4930   22.3400    3.6560 C   0  0  0  0  0  0  0  0  0  0  0  0
  -25.1400   23.5220    3.2660 N   0  0  0  0  0  0  0  0  0  0  0  0
  -24.9860   24.2200    1.9820 C   0  0  0  0  0  0  0  0  0  0  0  0
  -26.7520   25.0280    4.3390 N   0  0  0  0  0  0  0  0  0  0  0  0
  -27.3750   24.2990    6.5630 C   0  0  0  0  0  0  0  0  0  0  0  0
  -26.5550   23.1870    6.5070 C   0  0  0  0  0  0  0  0  0  0  0  0
  -28.1128   26.0330    5.5771 H   0  0  0  0  0  0  0  0  0  0  0  0
  -22.7306   18.5352    9.3990 H   0  0  0  0  0  0  0  0  0  0  0  0
  -22.6529   16.8007    6.4805 H   0  0  0  0  0  0  0  0  0  0  0  0
  -22.8216   16.1892    4.0792 H   0  0  0  0  0  0  0  0  0  0  0  0
  -24.5150   19.9555    3.1833 H   0  0  0  0  0  0  0  0  0  0  0  0
  -24.5625   21.0766    6.6882 H   0  0  0  0  0  0  0  0  0  0  0  0
  -23.7678   21.7846    3.0431 H   0  0  0  0  0  0  0  0  0  0  0  0
  -24.7523   25.2790    2.1661 H   0  0  0  0  0  0  0  0  0  0  0  0
  -24.1681   23.7582    1.4094 H   0  0  0  0  0  0  0  0  0  0  0  0
  -25.9222   24.1452    1.4094 H   0  0  0  0  0  0  0  0  0  0  0  0
  -27.9741   24.4947    7.4645 H   0  0  0  0  0  0  0  0  0  0  0  0
  -26.4879   22.4833    7.3498 H   0  0  0  0  0  0  0  0  0  0  0  0
 17 16  1  0
 16 15  1  0
 16  1  1  0
 10 11  2  0
 10  9  1  0
 15 14  2  0
 11 12  1  0
  1 18  1  0
  1  3  2  0
 18  2  2  0
  9  8  2  0
 14  3  1  0
 14 13  1  0
 12 13  1  0
 12  7  2  0
  3 20  1  0
  2 19  1  0
  8  7  1  0
  7  5  1  0
 20 19  2  0
  5  6  2  0
  5  4  1  0
  2 21  1  0
  4 22  1  0
  8 23  1  0
  9 24  1  0
 11 25  1  0
 13 26  1  0
 15 27  1  0
 17 28  1  0
 17 29  1  0
 17 30  1  0
 19 31  1  0
 20 32  1  0
A    1
C15
A    2
C17
A    3
C20
A    4
O01
A    5
C02
A    6
O03
A    7
C04
A    8
C05
A    9
C06
A   10
N07
A   11
C08
A   12
C09
A   13
N10
A   14
C11
A   15
C12
A   16
N13
A   17
C14
A   18
N16
A   19
C18
A   20
C19
M  END
