5IW8_6EC_A_401
     RDKit          3D

 42 44  0  0  0  0  0  0  0  0999 V2000
    7.2310    0.3200  -10.4220 O   0  0  0  0  0  0  0  0  0  0  0  0
    7.3490   -0.8290  -10.8160 C   0  0  0  0  0  0  0  0  0  0  0  0
    6.9580   -1.0700  -11.9870 O   0  0  0  0  0  0  0  0  0  0  0  0
    7.9770   -1.7990   -9.9990 C   0  0  0  0  0  0  0  0  0  0  0  0
    7.8950   -3.1450  -10.3190 C   0  0  0  0  0  0  0  0  0  0  0  0
    8.7180   -1.4750   -8.8390 C   0  0  0  0  0  0  0  0  0  0  0  0
    8.8270   -0.1980   -8.4720 O   0  0  0  0  0  0  0  0  0  0  0  0
    9.3360   -2.4350   -8.0670 C   0  0  0  0  0  0  0  0  0  0  0  0
    9.2310   -3.7510   -8.4340 C   0  0  0  0  0  0  0  0  0  0  0  0
    8.5000   -4.1320   -9.5450 C   0  0  0  0  0  0  0  0  0  0  0  0
    8.3600   -5.3980  -10.0000 N   0  0  0  0  0  0  0  0  0  0  0  0
    8.8230   -6.5540   -9.4480 C   0  0  0  0  0  0  0  0  0  0  0  0
    9.3750   -6.6070   -8.3530 O   0  0  0  0  0  0  0  0  0  0  0  0
    8.5170   -7.6740  -10.1880 N   0  0  0  0  0  0  0  0  0  0  0  0
    8.7950   -8.9470   -9.7990 C   0  0  0  0  0  0  0  0  0  0  0  0
    9.1280   -9.8760  -10.7790 C   0  0  0  0  0  0  0  0  0  0  0  0
    8.6910   -9.3950   -8.5070 C   0  0  0  0  0  0  0  0  0  0  0  0
    8.9750  -10.7410   -8.2130 C   0  0  0  0  0  0  0  0  0  0  0  0
    9.3200  -11.6670   -9.2070 C   0  0  0  0  0  0  0  0  0  0  0  0
    9.4090  -11.2200  -10.5150 C   0  0  0  0  0  0  0  0  0  0  0  0
    9.7790  -12.0820  -11.5560 C   0  0  0  0  0  0  0  0  0  0  0  0
    9.4000  -11.8370  -12.8930 C   0  0  0  0  0  0  0  0  0  0  0  0
    9.7730  -12.6950  -13.9380 C   0  0  0  0  0  0  0  0  0  0  0  0
   10.5310  -13.8230  -13.6790 C   0  0  0  0  0  0  0  0  0  0  0  0
   10.9120  -14.0540  -12.3410 C   0  0  0  0  0  0  0  0  0  0  0  0
   10.5560  -13.2120  -11.3050 C   0  0  0  0  0  0  0  0  0  0  0  0
    7.2114    0.5107   -9.4507 H   0  0  0  0  0  0  0  0  0  0  0  0
    7.3324   -3.4441  -11.2157 H   0  0  0  0  0  0  0  0  0  0  0  0
    8.8474    0.0410   -7.5115 H   0  0  0  0  0  0  0  0  0  0  0  0
    9.9048   -2.1491   -7.1699 H   0  0  0  0  0  0  0  0  0  0  0  0
    9.7382   -4.5201   -7.8330 H   0  0  0  0  0  0  0  0  0  0  0  0
    7.8341   -5.5016  -10.8796 H   0  0  0  0  0  0  0  0  0  0  0  0
    8.0473   -7.5389  -11.0946 H   0  0  0  0  0  0  0  0  0  0  0  0
    9.1730   -9.5332  -11.8233 H   0  0  0  0  0  0  0  0  0  0  0  0
    8.3873   -8.7058   -7.7053 H   0  0  0  0  0  0  0  0  0  0  0  0
    8.9246  -11.0783   -7.1672 H   0  0  0  0  0  0  0  0  0  0  0  0
    9.5148  -12.7199   -8.9552 H   0  0  0  0  0  0  0  0  0  0  0  0
    8.7947  -10.9476  -13.1223 H   0  0  0  0  0  0  0  0  0  0  0  0
    9.4613  -12.4699  -14.9686 H   0  0  0  0  0  0  0  0  0  0  0  0
   10.8247  -14.5121  -14.4845 H   0  0  0  0  0  0  0  0  0  0  0  0
   11.5186  -14.9427  -12.1123 H   0  0  0  0  0  0  0  0  0  0  0  0
   10.8865  -13.4338  -10.2795 H   0  0  0  0  0  0  0  0  0  0  0  0
 23 24  1  0
 23 22  2  0
 24 25  2  0
 22 21  1  0
 25 26  1  0
  3  2  2  0
 21 26  2  0
 21 20  1  0
  2  1  1  0
  2  4  1  0
 16 20  2  0
 16 15  1  0
 20 19  1  0
  5  4  2  0
  5 10  1  0
 14 15  1  0
 14 12  1  0
 11 10  1  0
 11 12  1  0
  4  6  1  0
 15 17  2  0
 10  9  2  0
 12 13  2  0
 19 18  2  0
  6  7  1  0
  6  8  2  0
 17 18  1  0
  9  8  1  0
  1 27  1  0
  5 28  1  0
  7 29  1  0
  8 30  1  0
  9 31  1  0
 11 32  1  0
 14 33  1  0
 16 34  1  0
 17 35  1  0
 18 36  1  0
 19 37  1  0
 22 38  1  0
 23 39  1  0
 24 40  1  0
 25 41  1  0
 26 42  1  0
A    1
OAX
A    2
CAW
A    3
OAY
A    4
CAS
A    5
CAR
A    6
CAT
A    7
OAZ
A    8
CAU
A    9
CAV
A   10
CAQ
A   11
NAO
A   12
CAN
A   13
OAP
A   14
NAM
A   15
CAI
A   16
CAH
A   17
CAJ
A   18
CAK
A   19
CAL
A   20
CAG
A   21
CAC
A   22
CAB
A   23
CAA
A   24
CAF
A   25
CAE
A   26
CAD
M  END
