2OO5_TXD_A_500
     RDKit          3D

 75 79  0  0  0  0  0  0  0  0999 V2000
   33.7330   76.4560   99.6760 O   0  0  0  0  0  0  0  0  0  0  0  0
   33.5800   75.3420   99.1970 C   0  0  0  0  0  0  0  0  0  0  0  0
   32.4180   74.9640   98.6800 N   0  0  0  0  0  0  0  0  0  0  0  0
   34.7000   74.3440   99.2010 C   0  0  0  0  0  0  0  0  0  0  0  0
   36.0170   74.7690   99.3480 C   0  0  0  0  0  0  0  0  0  0  0  0
   34.3630   72.8760   99.0560 C   0  0  0  0  0  0  0  0  0  0  0  0
   35.5550   72.0350   99.0810 C   0  0  0  0  0  0  0  0  0  0  0  0
   36.8290   72.5720   99.2270 C   0  0  0  0  0  0  0  0  0  0  0  0
   37.0410   73.8970   99.3630 N   0  0  0  0  0  0  0  0  0  0  0  0
   38.4080   74.4260   99.5160 C   0  0  0  0  0  0  0  0  0  0  0  0
   39.2370   74.0980   98.4000 O   0  0  0  0  0  0  0  0  0  0  0  0
   39.1320   73.8890  100.7400 C   0  0  0  0  0  0  0  0  0  0  0  0
   38.7680   74.6240  101.9100 O   0  0  0  0  0  0  0  0  0  0  0  0
   40.5810   74.0590  100.3440 C   0  0  0  0  0  0  0  0  0  0  0  0
   41.0380   75.3730  100.6780 O   0  0  0  0  0  0  0  0  0  0  0  0
   40.5850   73.8980   98.8330 C   0  0  0  0  0  0  0  0  0  0  0  0
   41.0500   72.5380   98.3320 C   0  0  0  0  0  0  0  0  0  0  0  0
   40.2080   71.5200   98.8680 O   0  0  0  0  0  0  0  0  0  0  0  0
   39.9850   70.0830   98.1800 P   0  0  0  0  0  0  0  0  0  0  0  0
   40.1000   69.0480   99.2740 O   0  0  0  0  0  0  0  0  0  0  0  0
   38.7240   70.1620   97.3530 O   0  0  0  0  0  0  0  0  0  0  0  0
   41.2530   69.9300   97.2040 O   0  0  0  0  0  0  0  0  0  0  0  0
   41.4520   68.7010   96.1770 P   0  0  0  0  0  0  0  0  0  0  0  0
   41.0680   69.1930   94.8040 O   0  0  0  0  0  0  0  0  0  0  0  0
   40.7920   67.4520   96.7180 O   0  0  0  0  0  0  0  0  0  0  0  0
   43.0530   68.5100   96.1750 O   0  0  0  0  0  0  0  0  0  0  0  0
   43.8100   68.4790   97.3830 C   0  0  0  0  0  0  0  0  0  0  0  0
   44.9390   69.5090   97.4120 C   0  0  0  0  0  0  0  0  0  0  0  0
   44.5760   70.9270   96.9690 C   0  0  0  0  0  0  0  0  0  0  0  0
   44.6280   71.7970   98.1000 O   0  0  0  0  0  0  0  0  0  0  0  0
   45.6180   71.3110   95.9270 C   0  0  0  0  0  0  0  0  0  0  0  0
   46.1250   72.6340   96.1240 O   0  0  0  0  0  0  0  0  0  0  0  0
   46.7120   70.2640   96.1100 C   0  0  0  0  0  0  0  0  0  0  0  0
   46.0220   69.0990   96.5680 O   0  0  0  0  0  0  0  0  0  0  0  0
   47.5230   69.9760   94.8920 N   0  0  0  0  0  0  0  0  0  0  0  0
   48.8560   69.8870   94.8720 C   0  0  0  0  0  0  0  0  0  0  0  0
   49.8080   70.0260   95.8300 N   0  0  0  0  0  0  0  0  0  0  0  0
   51.1170   69.8880   95.5500 C   0  0  0  0  0  0  0  0  0  0  0  0
   51.5490   69.6100   94.3050 N   0  0  0  0  0  0  0  0  0  0  0  0
   50.6780   69.4530   93.2830 C   0  0  0  0  0  0  0  0  0  0  0  0
   51.1010   69.1760   92.0300 N   0  0  0  0  0  0  0  0  0  0  0  0
   49.2330   69.5960   93.5720 C   0  0  0  0  0  0  0  0  0  0  0  0
   48.1220   69.5110   92.8230 N   0  0  0  0  0  0  0  0  0  0  0  0
   47.0750   69.7400   93.6450 C   0  0  0  0  0  0  0  0  0  0  0  0
   31.6364   74.7098   99.3008 H   0  0  0  0  0  0  0  0  0  0  0  0
   32.2975   74.9248   97.6578 H   0  0  0  0  0  0  0  0  0  0  0  0
   34.6169   74.2551  100.2942 H   0  0  0  0  0  0  0  0  0  0  0  0
   36.2132   75.4632   98.5176 H   0  0  0  0  0  0  0  0  0  0  0  0
   36.0251   75.1596  100.3763 H   0  0  0  0  0  0  0  0  0  0  0  0
   33.3396   72.4884   98.9448 H   0  0  0  0  0  0  0  0  0  0  0  0
   35.4425   70.9453   98.9815 H   0  0  0  0  0  0  0  0  0  0  0  0
   37.2603   72.0992  100.1217 H   0  0  0  0  0  0  0  0  0  0  0  0
   37.2758   72.3697   98.2424 H   0  0  0  0  0  0  0  0  0  0  0  0
   38.2592   75.5120   99.6081 H   0  0  0  0  0  0  0  0  0  0  0  0
   38.8906   72.8487  101.0036 H   0  0  0  0  0  0  0  0  0  0  0  0
   39.0231   74.1088  102.7160 H   0  0  0  0  0  0  0  0  0  0  0  0
   41.2355   73.3391  100.8571 H   0  0  0  0  0  0  0  0  0  0  0  0
   41.0718   75.4703  101.6626 H   0  0  0  0  0  0  0  0  0  0  0  0
   41.3033   74.6250   98.4262 H   0  0  0  0  0  0  0  0  0  0  0  0
   40.9990   72.5150   97.2334 H   0  0  0  0  0  0  0  0  0  0  0  0
   42.0869   72.3635   98.6550 H   0  0  0  0  0  0  0  0  0  0  0  0
   37.9383   70.2112   97.9532 H   0  0  0  0  0  0  0  0  0  0  0  0
   40.4612   69.9705   94.8898 H   0  0  0  0  0  0  0  0  0  0  0  0
   43.1321   68.6794   98.2258 H   0  0  0  0  0  0  0  0  0  0  0  0
   44.2732   67.4838   97.4533 H   0  0  0  0  0  0  0  0  0  0  0  0
   45.2009   69.5480   98.4797 H   0  0  0  0  0  0  0  0  0  0  0  0
   43.5620   70.9966   96.5483 H   0  0  0  0  0  0  0  0  0  0  0  0
   44.5959   71.2601   98.9311 H   0  0  0  0  0  0  0  0  0  0  0  0
   45.1996   71.3258   94.9098 H   0  0  0  0  0  0  0  0  0  0  0  0
   46.1960   72.8192   97.0939 H   0  0  0  0  0  0  0  0  0  0  0  0
   47.4670   70.6342   96.8191 H   0  0  0  0  0  0  0  0  0  0  0  0
   51.8532   70.0053   96.3589 H   0  0  0  0  0  0  0  0  0  0  0  0
   51.9542   68.6173   91.8862 H   0  0  0  0  0  0  0  0  0  0  0  0
   50.5702   69.5236   91.2186 H   0  0  0  0  0  0  0  0  0  0  0  0
   46.0177   69.7345   93.3416 H   0  0  0  0  0  0  0  0  0  0  0  0
  1  2  2  0
  2  4  1  0
  2  3  1  0
  4  6  1  0
  4  5  1  0
  5  9  1  0
  6  7  2  0
  7  8  1  0
  8  9  1  0
  9 10  1  0
 10 11  1  0
 10 12  1  0
 11 16  1  0
 12 14  1  0
 12 13  1  0
 14 16  1  0
 14 15  1  0
 16 17  1  0
 17 18  1  0
 18 19  1  0
 19 20  2  0
 19 21  1  0
 19 22  1  0
 22 23  1  0
 23 25  2  0
 23 26  1  0
 23 24  1  0
 26 27  1  0
 27 28  1  0
 28 34  1  0
 28 29  1  0
 29 30  1  0
 29 31  1  0
 31 33  1  0
 31 32  1  0
 33 34  1  0
 33 35  1  0
 35 36  1  0
 35 44  1  0
 36 37  2  0
 36 42  1  0
 37 38  1  0
 38 39  2  0
 39 40  1  0
 40 42  2  0
 40 41  1  0
 42 43  1  0
 43 44  2  0
  3 45  1  0
  3 46  1  0
  4 47  1  0
  5 48  1  0
  5 49  1  0
  6 50  1  0
  7 51  1  0
  8 52  1  0
  8 53  1  0
 10 54  1  0
 12 55  1  0
 13 56  1  0
 14 57  1  0
 15 58  1  0
 16 59  1  0
 17 60  1  0
 17 61  1  0
 21 62  1  0
 24 63  1  0
 27 64  1  0
 27 65  1  0
 28 66  1  0
 29 67  1  0
 30 68  1  0
 31 69  1  0
 32 70  1  0
 33 71  1  0
 38 72  1  0
 41 73  1  0
 41 74  1  0
 44 75  1  0
A    1
O7N
A    2
C7N
A    3
N7N
A    4
C3N
A    5
C2N
A    6
C4N
A    7
C5N
A    8
C6N
A    9
N1N
A   10
C1'A
A   11
O4'A
A   12
C2'A
A   13
O2'A
A   14
C3'A
A   15
O3'A
A   16
C4'A
A   17
C5'A
A   18
O5'A
A   19
PN
A   20
O1N
A   21
O2N
A   22
O3
A   23
PA
A   24
O2P
A   25
O1P
A   26
O5'
A   27
C5'
A   28
C4'
A   29
C3'
A   30
O3'
A   31
C2'
A   32
O2'
A   33
C1'
A   34
O4'
A   35
N9A
A   36
C4A
A   37
N3A
A   38
C2A
A   39
N1A
A   40
C6A
A   41
N6A
A   42
C5A
A   43
N7A
A   44
C8A
M  END
