5IXS_6EY_A_403
     RDKit          3D

 44 47  0  0  0  0  0  0  0  0999 V2000
   38.8040   14.8130   27.6300 C   0  0  0  0  0  0  0  0  0  0  0  0
   38.4610   16.1720   30.0790 C   0  0  0  0  0  0  0  0  0  0  0  0
   37.8750   16.4070   31.3320 C   0  0  0  0  0  0  0  0  0  0  0  0
   39.7370   16.6980   29.8240 C   0  0  0  0  0  0  0  0  0  0  0  0
   40.4110   17.4350   30.7930 C   0  0  0  0  0  0  0  0  0  0  0  0
   39.8270   17.6540   32.0300 C   0  0  0  0  0  0  0  0  0  0  0  0
   38.5590   17.1430   32.2950 C   0  0  0  0  0  0  0  0  0  0  0  0
   39.4480   13.4980   27.7290 C   0  0  0  0  0  0  0  0  0  0  0  0
   40.1680   15.2550   25.5880 C   0  0  0  0  0  0  0  0  0  0  0  0
   38.6020   16.8620   26.4560 O   0  0  0  0  0  0  0  0  0  0  0  0
   39.1430   15.6420   26.6090 C   0  0  0  0  0  0  0  0  0  0  0  0
   37.5930   15.2260   28.8400 S   0  0  0  0  0  0  0  0  0  0  0  0
   36.2900   15.7770   31.7020 Cl  0  0  0  0  0  0  0  0  0  0  0  0
   40.5790   13.2740   27.0230 N   0  0  0  0  0  0  0  0  0  0  0  0
   41.2030   14.3410   26.2400 C   0  0  0  0  0  0  0  0  0  0  0  0
   42.0580   15.0980   27.2500 C   0  0  0  0  0  0  0  0  0  0  0  0
   42.4070   16.3870   27.0980 C   0  0  0  0  0  0  0  0  0  0  0  0
   43.4020   16.8990   28.4600 S   0  0  0  0  0  0  0  0  0  0  0  0
   43.3190   15.2920   29.1830 C   0  0  0  0  0  0  0  0  0  0  0  0
   42.5690   14.4950   28.4010 C   0  0  0  0  0  0  0  0  0  0  0  0
   42.0770   13.7570   25.1550 C   0  0  0  0  0  0  0  0  0  0  0  0
   43.4110   14.1410   24.9930 C   0  0  0  0  0  0  0  0  0  0  0  0
   44.2070   13.5850   24.0010 C   0  0  0  0  0  0  0  0  0  0  0  0
   43.6520   12.6360   23.1660 C   0  0  0  0  0  0  0  0  0  0  0  0
   42.3190   12.2530   23.3250 C   0  0  0  0  0  0  0  0  0  0  0  0
   41.7720   11.3250   22.5170 O   0  0  0  0  0  0  0  0  0  0  0  0
   41.5340   12.8090   24.3110 C   0  0  0  0  0  0  0  0  0  0  0  0
   38.9660   12.6140   28.4220 O   0  0  0  0  0  0  0  0  0  0  0  0
   40.2101   16.5255   28.8460 H   0  0  0  0  0  0  0  0  0  0  0  0
   41.4088   17.8442   30.5765 H   0  0  0  0  0  0  0  0  0  0  0  0
   40.3626   18.2291   32.7996 H   0  0  0  0  0  0  0  0  0  0  0  0
   38.0934   17.3229   33.2752 H   0  0  0  0  0  0  0  0  0  0  0  0
   39.6788   14.7242   24.7579 H   0  0  0  0  0  0  0  0  0  0  0  0
   40.6630   16.1573   25.1996 H   0  0  0  0  0  0  0  0  0  0  0  0
   38.3631   17.4008   27.2514 H   0  0  0  0  0  0  0  0  0  0  0  0
   41.0081   12.3377   27.0365 H   0  0  0  0  0  0  0  0  0  0  0  0
   42.1157   17.0260   26.2514 H   0  0  0  0  0  0  0  0  0  0  0  0
   43.8033   14.9899   30.1233 H   0  0  0  0  0  0  0  0  0  0  0  0
   42.3720   13.4420   28.6508 H   0  0  0  0  0  0  0  0  0  0  0  0
   43.8389   14.8993   25.6653 H   0  0  0  0  0  0  0  0  0  0  0  0
   45.2562   13.8936   23.8829 H   0  0  0  0  0  0  0  0  0  0  0  0
   44.2623   12.1800   22.3725 H   0  0  0  0  0  0  0  0  0  0  0  0
   41.3097   10.5407   22.9058 H   0  0  0  0  0  0  0  0  0  0  0  0
   40.4843   12.5005   24.4248 H   0  0  0  0  0  0  0  0  0  0  0  0
  7  6  1  0
  7  3  2  0
  6  5  2  0
 13  3  1  0
  3  2  1  0
 10 11  1  0
  5  4  1  0
  2  4  2  0
  2 12  1  0
 12  1  1  0
 11  1  2  0
 11  9  1  0
 18 17  1  0
 18 19  1  0
 17 16  2  0
  1  8  1  0
  9 15  1  0
 16 15  1  0
 16 20  1  0
 19 20  2  0
 15 14  1  0
 15 21  1  0
  8 28  2  0
  8 14  1  0
 21 22  2  0
 21 27  1  0
 22 23  1  0
 27 25  2  0
 23 24  2  0
 25 24  1  0
 25 26  1  0
  4 29  1  0
  5 30  1  0
  6 31  1  0
  7 32  1  0
  9 33  1  0
  9 34  1  0
 10 35  1  0
 14 36  1  0
 17 37  1  0
 19 38  1  0
 20 39  1  0
 22 40  1  0
 23 41  1  0
 24 42  1  0
 26 43  1  0
 27 44  1  0
A    1
C4
A    2
C6
A    3
C11
A    4
C7
A    5
C8
A    6
C9
A    7
C10
A    8
C13
A    9
C3
A   10
O1
A   11
C2
A   12
S5
A   13
CL
A   14
N14
A   15
C15
A   16
C16
A   17
C17
A   18
S18
A   19
C19
A   20
C20
A   21
C21
A   22
C22
A   23
C23
A   24
C24
A   25
C25
A   26
O26
A   27
C27
A   28
O28
M  END
