5IXY_GN2_A_404
     RDKit          3D

 56 60  0  0  0  0  0  0  0  0999 V2000
   43.3680   14.0620   24.0290 C   0  0  0  0  0  0  0  0  0  0  0  0
   42.0480   13.7100   24.2580 C   0  0  0  0  0  0  0  0  0  0  0  0
   41.4250   12.9060   23.3170 C   0  0  0  0  0  0  0  0  0  0  0  0
   41.2740   14.1810   25.4690 C   0  0  0  0  0  0  0  0  0  0  0  0
   42.2160   14.7780   26.4600 C   0  0  0  0  0  0  0  0  0  0  0  0
   42.5630   16.1150   26.5030 C   0  0  0  0  0  0  0  0  0  0  0  0
   43.6700   14.8800   28.3070 C   0  0  0  0  0  0  0  0  0  0  0  0
   42.8690   14.0880   27.5190 C   0  0  0  0  0  0  0  0  0  0  0  0
   44.0410   13.6210   22.9080 C   0  0  0  0  0  0  0  0  0  0  0  0
   42.1000   12.4560   22.2020 C   0  0  0  0  0  0  0  0  0  0  0  0
   43.4210   12.8060   21.9780 C   0  0  0  0  0  0  0  0  0  0  0  0
   44.1130   12.3480   20.8320 N   0  0  0  0  0  0  0  0  0  0  0  0
   43.6500   16.5080   27.7700 S   0  0  0  0  0  0  0  0  0  0  0  0
   40.3570   15.2280   25.0990 N   0  0  0  0  0  0  0  0  0  0  0  0
   39.2410   15.5530   25.8410 C   0  0  0  0  0  0  0  0  0  0  0  0
   38.9810   14.7030   27.0290 C   0  0  0  0  0  0  0  0  0  0  0  0
   39.5380   13.4930   27.1100 C   0  0  0  0  0  0  0  0  0  0  0  0
   40.4680   13.0290   26.0480 C   0  0  0  0  0  0  0  0  0  0  0  0
   39.4490   12.6180   27.9970 O   0  0  0  0  0  0  0  0  0  0  0  0
   38.4720   16.4520   25.5450 O   0  0  0  0  0  0  0  0  0  0  0  0
   37.8790   15.2730   28.2170 S   0  0  0  0  0  0  0  0  0  0  0  0
   38.8850   16.1530   29.3790 C   0  0  0  0  0  0  0  0  0  0  0  0
   40.1680   16.5550   29.0620 C   0  0  0  0  0  0  0  0  0  0  0  0
   40.9330   17.2400   29.9840 C   0  0  0  0  0  0  0  0  0  0  0  0
   40.4210   17.5320   31.2300 C   0  0  0  0  0  0  0  0  0  0  0  0
   39.1390   17.1390   31.5550 C   0  0  0  0  0  0  0  0  0  0  0  0
   38.3730   16.4530   30.6320 C   0  0  0  0  0  0  0  0  0  0  0  0
   36.7750   15.9660   31.0900 Cl  0  0  0  0  0  0  0  0  0  0  0  0
   43.4400   12.3340   19.5360 C   0  0  0  0  0  0  0  0  0  0  0  0
   43.7810   11.0440   18.8160 C   0  0  0  0  0  0  0  0  0  0  0  0
   45.2050   10.9340   18.7500 O   0  0  0  0  0  0  0  0  0  0  0  0
   45.7430   10.6940   20.0510 C   0  0  0  0  0  0  0  0  0  0  0  0
   45.5040   11.9020   20.9360 C   0  0  0  0  0  0  0  0  0  0  0  0
   43.8891   14.7047   24.7538 H   0  0  0  0  0  0  0  0  0  0  0  0
   40.3724   12.6214   23.4622 H   0  0  0  0  0  0  0  0  0  0  0  0
   42.1775   16.8588   25.7901 H   0  0  0  0  0  0  0  0  0  0  0  0
   44.2482   14.5167   29.1694 H   0  0  0  0  0  0  0  0  0  0  0  0
   42.7433   13.0092   27.6930 H   0  0  0  0  0  0  0  0  0  0  0  0
   45.0873   13.9224   22.7514 H   0  0  0  0  0  0  0  0  0  0  0  0
   41.5812   11.8090   21.4793 H   0  0  0  0  0  0  0  0  0  0  0  0
   40.5440   15.7605   24.2374 H   0  0  0  0  0  0  0  0  0  0  0  0
   39.8844   12.5607   25.2418 H   0  0  0  0  0  0  0  0  0  0  0  0
   41.1688   12.3083   26.4945 H   0  0  0  0  0  0  0  0  0  0  0  0
   39.4753   12.8769   28.9522 H   0  0  0  0  0  0  0  0  0  0  0  0
   40.5824   16.3278   28.0687 H   0  0  0  0  0  0  0  0  0  0  0  0
   41.9546   17.5540   29.7237 H   0  0  0  0  0  0  0  0  0  0  0  0
   41.0331   18.0771   31.9636 H   0  0  0  0  0  0  0  0  0  0  0  0
   38.7270   17.3716   32.5481 H   0  0  0  0  0  0  0  0  0  0  0  0
   43.7779   13.1917   18.9358 H   0  0  0  0  0  0  0  0  0  0  0  0
   42.3518   12.4015   19.6819 H   0  0  0  0  0  0  0  0  0  0  0  0
   43.3611   11.0624   17.7994 H   0  0  0  0  0  0  0  0  0  0  0  0
   43.3574   10.1838   19.3550 H   0  0  0  0  0  0  0  0  0  0  0  0
   45.2518    9.8145   20.4929 H   0  0  0  0  0  0  0  0  0  0  0  0
   46.8247   10.5119   19.9690 H   0  0  0  0  0  0  0  0  0  0  0  0
   45.7208   11.6339   21.9805 H   0  0  0  0  0  0  0  0  0  0  0  0
   46.1644   12.7185   20.6087 H   0  0  0  0  0  0  0  0  0  0  0  0
 31 30  1  0
 31 32  1  0
 30 29  1  0
 29 12  1  0
 32 33  1  0
 12 33  1  0
 12 11  1  0
 11 10  2  0
 11  9  1  0
 10  3  1  0
  9  1  2  0
  3  2  2  0
  1  2  1  0
  2  4  1  0
 14  4  1  0
 14 15  1  0
  4 18  1  0
  4  5  1  0
 20 15  2  0
 15 16  1  0
 18 17  1  0
  5  6  2  0
  5  8  1  0
  6 13  1  0
 16 17  2  0
 16 21  1  0
 17 19  1  0
  8  7  2  0
 13  7  1  0
 21 22  1  0
 23 22  2  0
 23 24  1  0
 22 27  1  0
 24 25  2  0
 27 28  1  0
 27 26  2  0
 25 26  1  0
  1 34  1  0
  3 35  1  0
  6 36  1  0
  7 37  1  0
  8 38  1  0
  9 39  1  0
 10 40  1  0
 14 41  1  0
 18 42  1  0
 18 43  1  0
 19 44  1  0
 23 45  1  0
 24 46  1  0
 25 47  1  0
 26 48  1  0
 29 49  1  0
 29 50  1  0
 30 51  1  0
 30 52  1  0
 32 53  1  0
 32 54  1  0
 33 55  1  0
 33 56  1  0
A    1
C4
A    2
C5
A    3
C6
A    4
C8
A    5
C9
A    6
C10
A    7
C12
A    8
C13
A    9
C3
A   10
C1
A   11
C2
A   12
N7
A   13
S11
A   14
N14
A   15
C15
A   16
C16
A   17
C17
A   18
C18
A   19
O19
A   20
O20
A   21
S21
A   22
C22
A   23
C23
A   24
C24
A   25
C25
A   26
C26
A   27
C27
A   28
CL
A   29
C29
A   30
C30
A   31
O31
A   32
C32
A   33
C33
M  END
