5J1A_6F8_A_301
     RDKit          3D

 55 55  0  0  0  0  0  0  0  0999 V2000
  -35.4980   21.7940  -16.2900 C   0  0  0  0  0  0  0  0  0  0  0  0
  -35.4510   20.4120  -15.6340 C   0  0  0  0  0  0  0  0  0  0  0  0
  -34.3160   19.5530  -16.2070 C   0  0  0  0  0  0  0  0  0  0  0  0
  -34.1150   18.3590  -15.2540 C   0  0  0  0  0  0  0  0  0  0  0  0
  -33.1870   17.1740  -15.6150 C   0  0  0  0  0  0  0  0  0  0  0  0
  -32.3880   17.1380  -16.9250 C   0  0  0  0  0  0  0  0  0  0  0  0
  -31.0160   17.7660  -16.6380 C   0  0  0  0  0  0  0  0  0  0  0  0
  -29.7160   17.2150  -17.2570 C   0  0  0  0  0  0  0  0  0  0  0  0
  -29.7490   15.9320  -18.0900 C   0  0  0  0  0  0  0  0  0  0  0  0
  -28.4670   15.1530  -17.7980 C   0  0  0  0  0  0  0  0  0  0  0  0
  -28.3420   13.9670  -18.7550 C   0  0  0  0  0  0  0  0  0  0  0  0
  -26.9010   13.8540  -19.2340 C   0  0  0  0  0  0  0  0  0  0  0  0
  -26.8160   12.9390  -20.4650 C   0  0  0  0  0  0  0  0  0  0  0  0
  -25.7510   13.3940  -21.4960 C   0  0  0  0  0  0  0  0  0  0  0  0
  -24.7750   14.4550  -20.9350 C   0  0  0  0  0  0  0  0  0  0  0  0
  -23.7000   14.7340  -21.7900 C   0  0  0  0  0  0  0  0  0  0  0  0
  -22.4690   14.1030  -21.5760 C   0  0  0  0  0  0  0  0  0  0  0  0
  -21.3660   14.3760  -22.3930 C   0  0  0  0  0  0  0  0  0  0  0  0
  -21.4630   15.3200  -23.4230 C   0  0  0  0  0  0  0  0  0  0  0  0
  -22.6780   15.9770  -23.6190 C   0  0  0  0  0  0  0  0  0  0  0  0
  -22.8530   16.9050  -24.5910 O   0  0  0  0  0  0  0  0  0  0  0  0
  -23.7760   15.6950  -22.8070 C   0  0  0  0  0  0  0  0  0  0  0  0
  -24.9460   16.3560  -23.0400 O   0  0  0  0  0  0  0  0  0  0  0  0
  -35.5244   22.5693  -15.5102 H   0  0  0  0  0  0  0  0  0  0  0  0
  -34.6041   21.9335  -16.9157 H   0  0  0  0  0  0  0  0  0  0  0  0
  -36.3993   21.8724  -16.9157 H   0  0  0  0  0  0  0  0  0  0  0  0
  -35.2940   20.5355  -14.5523 H   0  0  0  0  0  0  0  0  0  0  0  0
  -36.4044   19.9022  -15.8370 H   0  0  0  0  0  0  0  0  0  0  0  0
  -34.5874   19.1919  -17.2100 H   0  0  0  0  0  0  0  0  0  0  0  0
  -33.3902   20.1407  -16.2937 H   0  0  0  0  0  0  0  0  0  0  0  0
  -34.6457   18.3485  -14.2905 H   0  0  0  0  0  0  0  0  0  0  0  0
  -33.0975   16.3328  -14.9119 H   0  0  0  0  0  0  0  0  0  0  0  0
  -32.9115   17.7149  -17.7016 H   0  0  0  0  0  0  0  0  0  0  0  0
  -32.2766   16.1049  -17.2860 H   0  0  0  0  0  0  0  0  0  0  0  0
  -30.9591   18.6373  -15.9690 H   0  0  0  0  0  0  0  0  0  0  0  0
  -28.7646   17.7443  -17.0998 H   0  0  0  0  0  0  0  0  0  0  0  0
  -29.7997   16.1817  -19.1601 H   0  0  0  0  0  0  0  0  0  0  0  0
  -30.6323   15.3291  -17.8326 H   0  0  0  0  0  0  0  0  0  0  0  0
  -28.4941   14.7833  -16.7623 H   0  0  0  0  0  0  0  0  0  0  0  0
  -27.6024   15.8189  -17.9358 H   0  0  0  0  0  0  0  0  0  0  0  0
  -29.0051   14.1211  -19.6191 H   0  0  0  0  0  0  0  0  0  0  0  0
  -28.6298   13.0421  -18.2338 H   0  0  0  0  0  0  0  0  0  0  0  0
  -26.2827   13.4341  -18.4269 H   0  0  0  0  0  0  0  0  0  0  0  0
  -26.5365   14.8551  -19.5077 H   0  0  0  0  0  0  0  0  0  0  0  0
  -27.7983   12.9276  -20.9599 H   0  0  0  0  0  0  0  0  0  0  0  0
  -26.5191   11.9414  -20.1091 H   0  0  0  0  0  0  0  0  0  0  0  0
  -26.2683   13.8209  -22.3679 H   0  0  0  0  0  0  0  0  0  0  0  0
  -25.1544   12.5090  -21.7624 H   0  0  0  0  0  0  0  0  0  0  0  0
  -24.3733   14.0876  -19.9792 H   0  0  0  0  0  0  0  0  0  0  0  0
  -25.3450   15.3884  -20.8170 H   0  0  0  0  0  0  0  0  0  0  0  0
  -22.3669   13.3810  -20.7524 H   0  0  0  0  0  0  0  0  0  0  0  0
  -20.4169   13.8458  -22.2251 H   0  0  0  0  0  0  0  0  0  0  0  0
  -20.5974   15.5393  -24.0654 H   0  0  0  0  0  0  0  0  0  0  0  0
  -23.0309   17.8482  -24.3486 H   0  0  0  0  0  0  0  0  0  0  0  0
  -25.4982   16.6680  -22.2798 H   0  0  0  0  0  0  0  0  0  0  0  0
 21 20  1  0
 20 19  2  0
 20 22  1  0
 19 18  1  0
 23 22  1  0
 22 16  2  0
 18 17  2  0
 16 17  1  0
 16 15  1  0
 14 15  1  0
 14 13  1  0
 13 12  1  0
 12 11  1  0
 11 10  1  0
  9 10  1  0
  9  8  1  0
  8  7  2  0
  6  7  1  0
  6  5  1  0
  1  2  1  0
  3  2  1  0
  3  4  1  0
  5  4  2  0
  1 24  1  0
  1 25  1  0
  1 26  1  0
  2 27  1  0
  2 28  1  0
  3 29  1  0
  3 30  1  0
  4 31  1  0
  5 32  1  0
  6 33  1  0
  6 34  1  0
  7 35  1  0
  8 36  1  0
  9 37  1  0
  9 38  1  0
 10 39  1  0
 10 40  1  0
 11 41  1  0
 11 42  1  0
 12 43  1  0
 12 44  1  0
 13 45  1  0
 13 46  1  0
 14 47  1  0
 14 48  1  0
 15 49  1  0
 15 50  1  0
 17 51  1  0
 18 52  1  0
 19 53  1  0
 21 54  1  0
 23 55  1  0
A    1
CAA
A    2
CAK
A    3
CAM
A    4
CAF
A    5
CAD
A    6
CAL
A    7
CAE
A    8
CAG
A    9
CAN
A   10
CAO
A   11
CAP
A   12
CAQ
A   13
CAR
A   14
CAS
A   15
CAT
A   16
CAW
A   17
CAJ
A   18
CAH
A   19
CAI
A   20
CAU
A   21
OAB
A   22
CAV
A   23
OAC
M  END
