5J1W_6FB_A_506
     RDKit          3D

 23 25  0  0  0  0  0  0  0  0999 V2000
   -6.3150   29.2970   -8.2830 C   0  0  0  0  0  0  0  0  0  0  0  0
   -6.2560   30.6530   -7.9980 C   0  0  0  0  0  0  0  0  0  0  0  0
   -6.1230   31.2480   -6.7330 C   0  0  0  0  0  0  0  0  0  0  0  0
   -6.1250   32.5450   -6.5020 N   0  0  0  0  0  0  0  0  0  0  0  0
   -6.2820   33.3360   -7.5710 C   0  0  0  0  0  0  0  0  0  0  0  0
   -6.3630   31.5730   -9.0590 C   0  0  0  0  0  0  0  0  0  0  0  0
   -6.2650   34.6530   -7.3540 N   0  0  0  0  0  0  0  0  0  0  0  0
   -6.4710   31.0980  -10.3640 C   0  0  0  0  0  0  0  0  0  0  0  0
   -6.4990   29.7360  -10.6400 C   0  0  0  0  0  0  0  0  0  0  0  0
   -6.3970   32.9230   -8.8390 N   0  0  0  0  0  0  0  0  0  0  0  0
   -6.5100   29.2350  -11.9600 C   0  0  0  0  0  0  0  0  0  0  0  0
   -6.4470   28.8200   -9.5780 C   0  0  0  0  0  0  0  0  0  0  0  0
   -6.4750   27.4500   -9.9160 C   0  0  0  0  0  0  0  0  0  0  0  0
   -6.5320   26.9860  -11.1710 N   0  0  0  0  0  0  0  0  0  0  0  0
   -6.5090   27.8890  -12.1590 C   0  0  0  0  0  0  0  0  0  0  0  0
   -6.2551   28.5762   -7.4542 H   0  0  0  0  0  0  0  0  0  0  0  0
   -6.0082   30.5789   -5.8675 H   0  0  0  0  0  0  0  0  0  0  0  0
   -6.2603   35.0161   -6.3901 H   0  0  0  0  0  0  0  0  0  0  0  0
   -6.2566   35.3061   -8.1504 H   0  0  0  0  0  0  0  0  0  0  0  0
   -6.5355   31.8166  -11.1944 H   0  0  0  0  0  0  0  0  0  0  0  0
   -6.5193   29.9245  -12.8171 H   0  0  0  0  0  0  0  0  0  0  0  0
   -6.4483   26.7167   -9.0965 H   0  0  0  0  0  0  0  0  0  0  0  0
   -6.4880   27.5203  -13.1951 H   0  0  0  0  0  0  0  0  0  0  0  0
 15 11  2  0
 15 14  1  0
 11  9  1  0
 14 13  2  0
  9  8  2  0
  9 12  1  0
  8  6  1  0
 13 12  1  0
 12  1  2  0
  6 10  1  0
  6  2  2  0
 10  5  2  0
  1  2  1  0
  2  3  1  0
  5  7  1  0
  5  4  1  0
  3  4  2  0
  1 16  1  0
  3 17  1  0
  7 18  1  0
  7 19  1  0
  8 20  1  0
 11 21  1  0
 13 22  1  0
 15 23  1  0
A    1
C4
A    2
C5
A    3
C6
A    4
N1
A    5
C7
A    6
C8
A    7
N2
A    8
C9
A    9
C10
A   10
N3
A   11
C
A   12
C3
A   13
C2
A   14
N
A   15
C1
M  END
