5J3S_6FQ_A_401
     RDKit          3D

 39 43  0  0  0  0  0  0  0  0999 V2000
    9.9250   -7.8190   11.6220 N   0  0  0  0  0  0  0  0  0  0  0  0
    7.5360   -5.7880   14.3070 N   0  0  0  0  0  0  0  0  0  0  0  0
    9.1250   -5.7130   12.4910 C   0  0  0  0  0  0  0  0  0  0  0  0
    9.0950   -4.3230   12.5000 C   0  0  0  0  0  0  0  0  0  0  0  0
    7.5090   -4.3890   14.3240 C   0  0  0  0  0  0  0  0  0  0  0  0
    8.2930   -3.6490   13.4140 C   0  0  0  0  0  0  0  0  0  0  0  0
    8.2440   -2.2280   13.4530 C   0  0  0  0  0  0  0  0  0  0  0  0
    6.6780   -2.3280   15.2660 C   0  0  0  0  0  0  0  0  0  0  0  0
    6.7240   -6.5350   15.2550 C   0  0  0  0  0  0  0  0  0  0  0  0
    4.6730   -7.6150   15.8330 C   0  0  0  0  0  0  0  0  0  0  0  0
    6.4990   -7.5980   17.3950 C   0  0  0  0  0  0  0  0  0  0  0  0
    9.9630   -6.4400   11.5460 C   0  0  0  0  0  0  0  0  0  0  0  0
    9.1330   -8.4830   12.5390 C   0  0  0  0  0  0  0  0  0  0  0  0
    8.3390   -7.7860   13.4270 N   0  0  0  0  0  0  0  0  0  0  0  0
    8.3330   -6.4640   13.4100 C   0  0  0  0  0  0  0  0  0  0  0  0
    6.7010   -3.7080   15.2460 C   0  0  0  0  0  0  0  0  0  0  0  0
    7.4530   -1.5970   14.3650 C   0  0  0  0  0  0  0  0  0  0  0  0
    5.8470   -1.6420   16.2200 C   0  0  0  0  0  0  0  0  0  0  0  0
    5.1950   -1.0970   16.9840 N   0  0  0  0  0  0  0  0  0  0  0  0
    9.1620   -9.7090   12.5340 O   0  0  0  0  0  0  0  0  0  0  0  0
   10.6880   -5.8970   10.7120 O   0  0  0  0  0  0  0  0  0  0  0  0
    5.4330   -6.9000   14.9270 C   0  0  0  0  0  0  0  0  0  0  0  0
    5.2010   -7.9650   17.0620 C   0  0  0  0  0  0  0  0  0  0  0  0
    7.2610   -6.8820   16.4790 C   0  0  0  0  0  0  0  0  0  0  0  0
    7.0700   -7.9660   18.6880 C   0  0  0  0  0  0  0  0  0  0  0  0
    6.4720   -8.6830   19.6420 N   0  0  0  0  0  0  0  0  0  0  0  0
    8.2850   -7.6590   19.1170 N   0  0  0  0  0  0  0  0  0  0  0  0
    8.4040   -8.2030   20.3550 N   0  0  0  0  0  0  0  0  0  0  0  0
    7.3170   -8.8210   20.6750 N   0  0  0  0  0  0  0  0  0  0  0  0
   10.5059   -8.3699   10.9740 H   0  0  0  0  0  0  0  0  0  0  0  0
    9.7067   -3.7558   11.7830 H   0  0  0  0  0  0  0  0  0  0  0  0
    8.8455   -1.6379   12.7459 H   0  0  0  0  0  0  0  0  0  0  0  0
    3.6441   -7.9068   15.5755 H   0  0  0  0  0  0  0  0  0  0  0  0
    6.0827   -4.2762   15.9565 H   0  0  0  0  0  0  0  0  0  0  0  0
    7.4249   -0.4977   14.3915 H   0  0  0  0  0  0  0  0  0  0  0  0
    5.0118   -6.6229   13.9493 H   0  0  0  0  0  0  0  0  0  0  0  0
    4.5916   -8.5357   17.7782 H   0  0  0  0  0  0  0  0  0  0  0  0
    8.2921   -6.5917   16.7292 H   0  0  0  0  0  0  0  0  0  0  0  0
    5.5177   -9.0675   19.5931 H   0  0  0  0  0  0  0  0  0  0  0  0
 21 12  2  0
 12  1  1  0
 12  3  1  0
  1 13  1  0
  3  4  2  0
  3 15  1  0
  4  6  1  0
 20 13  2  0
 13 14  1  0
 15 14  2  0
 15  2  1  0
  6  7  2  0
  6  5  1  0
  7 17  1  0
  2  5  1  0
  2  9  1  0
  5 16  2  0
 17  8  2  0
 22  9  1  0
 22 10  2  0
 16  8  1  0
  9 24  2  0
  8 18  1  0
 10 23  1  0
 18 19  3  0
 24 11  1  0
 23 11  2  0
 11 25  1  0
 25 27  2  0
 25 26  1  0
 27 28  1  0
 26 29  1  0
 28 29  2  0
  1 30  1  0
  4 31  1  0
  7 32  1  0
 10 33  1  0
 16 34  1  0
 17 35  1  0
 22 36  1  0
 23 37  1  0
 24 38  1  0
 26 39  1  0
A    1
N1
A    2
N3
A    3
C4
A    4
C5
A    5
C6
A    6
C7
A    7
C8
A    8
C10
A    9
C13
A   10
C15
A   11
C17
A   12
C1
A   13
C2
A   14
N2
A   15
C3
A   16
C9
A   17
C11
A   18
C12
A   19
N4
A   20
O1
A   21
O2
A   22
C14
A   23
C16
A   24
C18
A   25
C19
A   26
N5
A   27
N6
A   28
N7
A   29
N8
M  END
