5J47_6JJ_A_703
     RDKit          3D

 31 34  0  0  0  0  0  0  0  0999 V2000
  -41.6950    6.7980   24.3090 C   0  0  0  0  0  0  0  0  0  0  0  0
  -42.1720    5.4950   24.3270 C   0  0  0  0  0  0  0  0  0  0  0  0
  -39.4790    9.0280   23.7010 C   0  0  0  0  0  0  0  0  0  0  0  0
  -40.2840   13.1460   25.8850 N   0  0  0  0  0  0  0  0  0  0  0  0
  -39.0190    8.2780   22.6200 C   0  0  0  0  0  0  0  0  0  0  0  0
  -38.5110    8.9260   21.5050 C   0  0  0  0  0  0  0  0  0  0  0  0
  -40.9600   14.2760   27.6230 N   0  0  0  0  0  0  0  0  0  0  0  0
  -38.4630   10.3010   21.4600 C   0  0  0  0  0  0  0  0  0  0  0  0
  -38.9200   11.0540   22.5310 C   0  0  0  0  0  0  0  0  0  0  0  0
  -39.4420   10.4380   23.6720 C   0  0  0  0  0  0  0  0  0  0  0  0
  -39.9010   11.2960   24.7760 C   0  0  0  0  0  0  0  0  0  0  0  0
  -41.2180   12.9290   27.8580 N   0  0  0  0  0  0  0  0  0  0  0  0
  -40.4110   14.3680   26.4460 C   0  0  0  0  0  0  0  0  0  0  0  0
  -40.8030   12.2840   26.7950 C   0  0  0  0  0  0  0  0  0  0  0  0
  -39.7750   12.5820   24.7420 N   0  0  0  0  0  0  0  0  0  0  0  0
  -40.6680   10.6470   26.2090 S   0  0  0  0  0  0  0  0  0  0  0  0
  -39.9340    8.3730   24.8480 O   0  0  0  0  0  0  0  0  0  0  0  0
  -40.4390    7.0690   24.8380 C   0  0  0  0  0  0  0  0  0  0  0  0
  -39.6680    6.0530   25.3850 C   0  0  0  0  0  0  0  0  0  0  0  0
  -40.1600    4.7550   25.3920 C   0  0  0  0  0  0  0  0  0  0  0  0
  -41.4060    4.4760   24.8640 C   0  0  0  0  0  0  0  0  0  0  0  0
  -42.3044    7.6074   23.8807 H   0  0  0  0  0  0  0  0  0  0  0  0
  -43.1656    5.2710   23.9116 H   0  0  0  0  0  0  0  0  0  0  0  0
  -39.0588    7.1792   22.6515 H   0  0  0  0  0  0  0  0  0  0  0  0
  -38.1440    8.3379   20.6509 H   0  0  0  0  0  0  0  0  0  0  0  0
  -38.0598   10.8053   20.5694 H   0  0  0  0  0  0  0  0  0  0  0  0
  -38.8710   12.1518   22.4820 H   0  0  0  0  0  0  0  0  0  0  0  0
  -40.0946   15.3099   25.9742 H   0  0  0  0  0  0  0  0  0  0  0  0
  -38.6772    6.2740   25.8087 H   0  0  0  0  0  0  0  0  0  0  0  0
  -39.5540    3.9432   25.8207 H   0  0  0  0  0  0  0  0  0  0  0  0
  -41.7884    3.4446   24.8707 H   0  0  0  0  0  0  0  0  0  0  0  0
  8  6  1  0
  8  9  2  0
  6  5  2  0
  9 10  1  0
  5  3  1  0
 10  3  2  0
 10 11  1  0
  3 17  1  0
  1  2  2  0
  1 18  1  0
  2 21  1  0
 15 11  2  0
 15  4  1  0
 11 16  1  0
 18 17  1  0
 18 19  2  0
 21 20  2  0
 19 20  1  0
  4 13  1  0
  4 14  1  0
 16 14  1  0
 13  7  2  0
 14 12  2  0
  7 12  1  0
  1 22  1  0
  2 23  1  0
  5 24  1  0
  6 25  1  0
  8 26  1  0
  9 27  1  0
 13 28  1  0
 19 29  1  0
 20 30  1  0
 21 31  1  0
A    1
C4
A    2
C5
A    3
C6
A    4
N1
A    5
C7
A    6
C8
A    7
N2
A    8
C9
A    9
C10
A   10
C11
A   11
C12
A   12
N3
A   13
C13
A   14
C14
A   15
N
A   16
S
A   17
O
A   18
C3
A   19
C2
A   20
C1
A   21
C
M  END
