5J48_6FW_A_404
     RDKit          3D

 46 50  0  0  0  0  0  0  0  0999 V2000
   21.1980   12.3790  -22.0260 C   0  0  0  0  0  0  0  0  0  0  0  0
   20.4600   12.5400  -20.8820 N   0  0  0  0  0  0  0  0  0  0  0  0
   19.2020   11.9390  -20.7170 C   0  0  0  0  0  0  0  0  0  0  0  0
   20.0690   10.4690  -24.8510 C   0  0  0  0  0  0  0  0  0  0  0  0
   20.4600    7.0580  -26.0180 C   0  0  0  0  0  0  0  0  0  0  0  0
   21.1960    5.9240  -25.7590 C   0  0  0  0  0  0  0  0  0  0  0  0
   22.5550    6.0190  -25.5210 C   0  0  0  0  0  0  0  0  0  0  0  0
   22.4430    8.3920  -25.8280 C   0  0  0  0  0  0  0  0  0  0  0  0
   23.4950    4.5820  -25.2040 Cl  0  0  0  0  0  0  0  0  0  0  0  0
   14.1270    8.3380  -21.4810 P   0  0  0  0  0  0  0  0  0  0  0  0
   14.4750   10.4210  -23.1840 C   0  0  0  0  0  0  0  0  0  0  0  0
   15.6890    9.7650  -23.7430 C   0  0  0  0  0  0  0  0  0  0  0  0
   16.4520    8.7140  -22.5870 C   0  0  0  0  0  0  0  0  0  0  0  0
   17.5700    8.4130  -23.1970 C   0  0  0  0  0  0  0  0  0  0  0  0
   17.9840    9.6280  -24.2550 C   0  0  0  0  0  0  0  0  0  0  0  0
   16.6510   10.4940  -24.2160 O   0  0  0  0  0  0  0  0  0  0  0  0
   19.0200   10.2980  -24.0140 N   0  0  0  0  0  0  0  0  0  0  0  0
   19.3500   10.9780  -22.9180 C   0  0  0  0  0  0  0  0  0  0  0  0
   20.5760   11.5590  -23.0880 C   0  0  0  0  0  0  0  0  0  0  0  0
   22.2990   12.9090  -22.1500 O   0  0  0  0  0  0  0  0  0  0  0  0
   18.6020   11.1510  -21.7170 N   0  0  0  0  0  0  0  0  0  0  0  0
   18.5010   12.1360  -19.5580 N   0  0  0  0  0  0  0  0  0  0  0  0
   21.0480   11.2390  -24.3370 N   0  0  0  0  0  0  0  0  0  0  0  0
   20.1740    9.7540  -26.4190 S   0  0  0  0  0  0  0  0  0  0  0  0
   21.0870    8.2870  -26.0630 C   0  0  0  0  0  0  0  0  0  0  0  0
   23.1790    7.2590  -25.5680 C   0  0  0  0  0  0  0  0  0  0  0  0
   17.3650    7.2310  -24.0440 O   0  0  0  0  0  0  0  0  0  0  0  0
   15.5170    7.7260  -22.0890 O   0  0  0  0  0  0  0  0  0  0  0  0
   13.1520    7.2440  -21.3330 O   0  0  0  0  0  0  0  0  0  0  0  0
   13.5260    9.3410  -22.6800 O   0  0  0  0  0  0  0  0  0  0  0  0
   14.4090    9.1760  -20.2100 O   0  0  0  0  0  0  0  0  0  0  0  0
   19.3757    6.9851  -26.1886 H   0  0  0  0  0  0  0  0  0  0  0  0
   20.7026    4.9410  -25.7413 H   0  0  0  0  0  0  0  0  0  0  0  0
   22.9329    9.3767  -25.8485 H   0  0  0  0  0  0  0  0  0  0  0  0
   14.7607   11.0809  -22.3516 H   0  0  0  0  0  0  0  0  0  0  0  0
   13.9809   11.0215  -23.9620 H   0  0  0  0  0  0  0  0  0  0  0  0
   15.2243    9.2584  -24.6017 H   0  0  0  0  0  0  0  0  0  0  0  0
   16.7408    9.1003  -21.5984 H   0  0  0  0  0  0  0  0  0  0  0  0
   18.3386    8.2525  -22.4266 H   0  0  0  0  0  0  0  0  0  0  0  0
   18.2863    9.2290  -25.2345 H   0  0  0  0  0  0  0  0  0  0  0  0
   17.6740   10.7231  -21.5881 H   0  0  0  0  0  0  0  0  0  0  0  0
   18.9644   12.0058  -18.6474 H   0  0  0  0  0  0  0  0  0  0  0  0
   17.5101   12.4145  -19.5965 H   0  0  0  0  0  0  0  0  0  0  0  0
   24.2630    7.3353  -25.3971 H   0  0  0  0  0  0  0  0  0  0  0  0
   17.2269    6.4350  -23.4718 H   0  0  0  0  0  0  0  0  0  0  0  0
   14.2247    8.6284  -19.4061 H   0  0  0  0  0  0  0  0  0  0  0  0
 24 25  1  0
 24  4  1  0
 25  5  2  0
 25  8  1  0
  5  6  1  0
  8 26  2  0
  6  7  2  0
 26  7  1  0
  7  9  1  0
  4 23  2  0
  4 17  1  0
 23 19  1  0
 15 16  1  0
 15 17  1  0
 15 14  1  0
 16 12  1  0
 27 14  1  0
 17 18  1  0
 12 11  1  0
 12 13  1  0
 14 13  1  0
 11 30  1  0
 19 18  2  0
 19  1  1  0
 18 21  1  0
 30 10  1  0
 13 28  1  0
 20  1  2  0
 28 10  1  0
  1  2  1  0
 21  3  1  0
 10 29  2  0
 10 31  1  0
  2  3  2  0
  3 22  1  0
  5 32  1  0
  6 33  1  0
  8 34  1  0
 11 35  1  0
 11 36  1  0
 12 37  1  0
 13 38  1  0
 14 39  1  0
 15 40  1  0
 21 41  1  0
 22 42  1  0
 22 43  1  0
 26 44  1  0
 27 45  1  0
 31 46  1  0
A    1
C10
A    2
N12
A    3
C13
A    4
C17
A    5
C20
A    6
C21
A    7
C22
A    8
C24
A    9
CL1
A   10
P28
A   11
C01
A   12
C02
A   13
C03
A   14
C04
A   15
C05
A   16
O06
A   17
N07
A   18
C08
A   19
C09
A   20
O11
A   21
N14
A   22
N15
A   23
N16
A   24
S18
A   25
C19
A   26
C23
A   27
O26
A   28
O27
A   29
O29
A   30
O30
A   31
O31
M  END
