5J4V_6JH_A_704
     RDKit          3D

 33 36  0  0  0  0  0  0  0  0999 V2000
  -39.5130    6.1210   24.8770 C   0  0  0  0  0  0  0  0  0  0  0  0
  -39.7710    4.7570   24.9180 C   0  0  0  0  0  0  0  0  0  0  0  0
  -39.6690    8.7960   23.5420 C   0  0  0  0  0  0  0  0  0  0  0  0
  -39.4250   12.4840   24.2710 N   0  0  0  0  0  0  0  0  0  0  0  0
  -39.3720   10.1850   23.4340 C   0  0  0  0  0  0  0  0  0  0  0  0
  -38.6860   10.5800   22.2790 C   0  0  0  0  0  0  0  0  0  0  0  0
  -40.9270   14.4080   27.6940 N   0  0  0  0  0  0  0  0  0  0  0  0
  -38.3280    9.6550   21.3130 C   0  0  0  0  0  0  0  0  0  0  0  0
  -38.6660    8.3120   21.5130 C   0  0  0  0  0  0  0  0  0  0  0  0
  -39.7190   11.2080   24.4110 C   0  0  0  0  0  0  0  0  0  0  0  0
  -39.8990   13.2150   25.3910 C   0  0  0  0  0  0  0  0  0  0  0  0
  -39.7540   14.5900   25.5630 C   0  0  0  0  0  0  0  0  0  0  0  0
  -40.2880   15.1290   26.7330 C   0  0  0  0  0  0  0  0  0  0  0  0
  -41.0570   13.0780   27.5110 C   0  0  0  0  0  0  0  0  0  0  0  0
  -40.5570   12.4450   26.3720 C   0  0  0  0  0  0  0  0  0  0  0  0
  -40.5970   10.7990   25.9180 S   0  0  0  0  0  0  0  0  0  0  0  0
  -39.3240    7.8660   22.5970 N   0  0  0  0  0  0  0  0  0  0  0  0
  -40.3300    8.3450   24.6320 O   0  0  0  0  0  0  0  0  0  0  0  0
  -40.5860    6.9840   24.6730 C   0  0  0  0  0  0  0  0  0  0  0  0
  -41.8930    6.5390   24.5100 C   0  0  0  0  0  0  0  0  0  0  0  0
  -42.1230    5.1670   24.5560 C   0  0  0  0  0  0  0  0  0  0  0  0
  -41.0690    4.2820   24.7590 C   0  0  0  0  0  0  0  0  0  0  0  0
  -38.4909    6.5080   25.0020 H   0  0  0  0  0  0  0  0  0  0  0  0
  -38.9448    4.0485   25.0770 H   0  0  0  0  0  0  0  0  0  0  0  0
  -38.4279   11.6399   22.1372 H   0  0  0  0  0  0  0  0  0  0  0  0
  -37.7890    9.9694   20.4071 H   0  0  0  0  0  0  0  0  0  0  0  0
  -38.3779    7.5822   20.7420 H   0  0  0  0  0  0  0  0  0  0  0  0
  -39.2454   15.2169   24.8158 H   0  0  0  0  0  0  0  0  0  0  0  0
  -40.1855   16.2129   26.8901 H   0  0  0  0  0  0  0  0  0  0  0  0
  -41.5692   12.4780   28.2776 H   0  0  0  0  0  0  0  0  0  0  0  0
  -42.7185    7.2481   24.3499 H   0  0  0  0  0  0  0  0  0  0  0  0
  -43.1450    4.7799   24.4310 H   0  0  0  0  0  0  0  0  0  0  0  0
  -41.2631    3.1998   24.7940 H   0  0  0  0  0  0  0  0  0  0  0  0
  8  9  1  0
  8  6  2  0
  9 17  2  0
  6  5  1  0
 17  3  1  0
  5  3  2  0
  5 10  1  0
  3 18  1  0
  4 10  2  0
  4 11  1  0
 10 16  1  0
 20 21  2  0
 20 19  1  0
 21 22  1  0
 18 19  1  0
 19  1  2  0
 22  2  2  0
  1  2  1  0
 11 12  2  0
 11 15  1  0
 12 13  1  0
 16 15  1  0
 15 14  2  0
 13  7  2  0
 14  7  1  0
  1 23  1  0
  2 24  1  0
  6 25  1  0
  8 26  1  0
  9 27  1  0
 12 28  1  0
 13 29  1  0
 14 30  1  0
 20 31  1  0
 21 32  1  0
 22 33  1  0
A    1
C4
A    2
C5
A    3
C6
A    4
N1
A    5
C7
A    6
C8
A    7
N2
A    8
C9
A    9
C10
A   10
C11
A   11
C12
A   12
C13
A   13
C14
A   14
C15
A   15
C16
A   16
S
A   17
N
A   18
O
A   19
C3
A   20
C2
A   21
C1
A   22
C
M  END
