5J4Y_6JG_A_705
     RDKit          3D

 41 44  0  0  0  0  0  0  0  0999 V2000
  -40.7470    5.6870   23.0910 C   0  0  0  0  0  0  0  0  0  0  0  0
  -39.7500    6.2680   23.8660 C   0  0  0  0  0  0  0  0  0  0  0  0
  -39.0440    5.5010   24.7840 C   0  0  0  0  0  0  0  0  0  0  0  0
  -38.7930   11.7980   23.6210 N   0  0  0  0  0  0  0  0  0  0  0  0
  -39.3380    4.1550   24.9280 C   0  0  0  0  0  0  0  0  0  0  0  0
  -38.7100    8.1780   22.7140 C   0  0  0  0  0  0  0  0  0  0  0  0
  -40.3140   13.5410   27.1180 N   0  0  0  0  0  0  0  0  0  0  0  0
  -38.1800    7.3500   21.7260 C   0  0  0  0  0  0  0  0  0  0  0  0
  -37.4850    7.9090   20.6620 C   0  0  0  0  0  0  0  0  0  0  0  0
  -37.3340    9.2790   20.5700 C   0  0  0  0  0  0  0  0  0  0  0  0
  -37.8500   10.1060   21.5560 C   0  0  0  0  0  0  0  0  0  0  0  0
  -38.5320    9.5720   22.6580 C   0  0  0  0  0  0  0  0  0  0  0  0
  -38.9850   10.5110   23.6990 C   0  0  0  0  0  0  0  0  0  0  0  0
  -39.2950   12.4470   24.7500 C   0  0  0  0  0  0  0  0  0  0  0  0
  -38.6260    1.2000   24.3110 O   0  0  0  0  0  0  0  0  0  0  0  0
  -39.8520    1.1120   24.3460 C   0  0  0  0  0  0  0  0  0  0  0  0
  -40.5520   -0.2120   24.4550 C   0  0  0  0  0  0  0  0  0  0  0  0
  -40.6750    2.1940   24.2950 N   0  0  0  0  0  0  0  0  0  0  0  0
  -40.3340    3.5630   24.1530 C   0  0  0  0  0  0  0  0  0  0  0  0
  -41.0340    4.3400   23.2330 C   0  0  0  0  0  0  0  0  0  0  0  0
  -39.4660    7.6320   23.7580 O   0  0  0  0  0  0  0  0  0  0  0  0
  -39.8080    9.9580   25.1480 S   0  0  0  0  0  0  0  0  0  0  0  0
  -39.8850   11.6050   25.7020 C   0  0  0  0  0  0  0  0  0  0  0  0
  -40.3830   12.2250   26.8760 C   0  0  0  0  0  0  0  0  0  0  0  0
  -39.7470   14.3080   26.1820 C   0  0  0  0  0  0  0  0  0  0  0  0
  -39.2370   13.8220   24.9920 C   0  0  0  0  0  0  0  0  0  0  0  0
  -41.3069    6.2963   22.3662 H   0  0  0  0  0  0  0  0  0  0  0  0
  -38.2535    5.9612   25.3950 H   0  0  0  0  0  0  0  0  0  0  0  0
  -38.7819    3.5494   25.6587 H   0  0  0  0  0  0  0  0  0  0  0  0
  -38.3116    6.2597   21.7889 H   0  0  0  0  0  0  0  0  0  0  0  0
  -37.0524    7.2576   19.8883 H   0  0  0  0  0  0  0  0  0  0  0  0
  -36.8025    9.7154   19.7115 H   0  0  0  0  0  0  0  0  0  0  0  0
  -37.7225   11.1954   21.4723 H   0  0  0  0  0  0  0  0  0  0  0  0
  -40.6877   -0.4687   25.5160 H   0  0  0  0  0  0  0  0  0  0  0  0
  -41.5345   -0.1488   23.9644 H   0  0  0  0  0  0  0  0  0  0  0  0
  -39.9465   -0.9884   23.9644 H   0  0  0  0  0  0  0  0  0  0  0  0
  -41.6821    1.9914   24.3696 H   0  0  0  0  0  0  0  0  0  0  0  0
  -41.8198    3.8805   22.6154 H   0  0  0  0  0  0  0  0  0  0  0  0
  -40.8557   11.5853   27.6358 H   0  0  0  0  0  0  0  0  0  0  0  0
  -39.6821   15.3900   26.3692 H   0  0  0  0  0  0  0  0  0  0  0  0
  -38.7946   14.5040   24.2509 H   0  0  0  0  0  0  0  0  0  0  0  0
 10  9  1  0
 10 11  2  0
  9  8  2  0
 11 12  1  0
  8  6  1  0
 12  6  2  0
 12 13  1  0
  6 21  1  0
  1 20  2  0
  1  2  1  0
 20 19  1  0
  4 13  2  0
  4 14  1  0
 13 22  1  0
 21  2  1  0
  2  3  2  0
 19 18  1  0
 19  5  2  0
 18 16  1  0
 15 16  2  0
 16 17  1  0
 14 26  2  0
 14 23  1  0
  3  5  1  0
 26 25  1  0
 22 23  1  0
 23 24  2  0
 25  7  2  0
 24  7  1  0
  1 27  1  0
  3 28  1  0
  5 29  1  0
  8 30  1  0
  9 31  1  0
 10 32  1  0
 11 33  1  0
 17 34  1  0
 17 35  1  0
 17 36  1  0
 18 37  1  0
 20 38  1  0
 24 39  1  0
 25 40  1  0
 26 41  1  0
A    1
C4
A    2
C5
A    3
C6
A    4
N1
A    5
C7
A    6
C8
A    7
N2
A    8
C9
A    9
C10
A   10
C11
A   11
C12
A   12
C13
A   13
C14
A   14
C15
A   15
O
A   16
C1
A   17
C
A   18
N
A   19
C2
A   20
C3
A   21
O1
A   22
S
A   23
C19
A   24
C18
A   25
C17
A   26
C16
M  END
