5J5F_6GH_A_303
     RDKit          3D

 45 48  0  0  0  0  0  0  0  0999 V2000
   44.0710  -22.5080  136.2790 C   0  0  0  0  0  0  0  0  0  0  0  0
   39.8450  -18.4740  132.8570 C   0  0  0  0  0  0  0  0  0  0  0  0
   41.3680  -18.3320  131.0020 C   0  0  0  0  0  0  0  0  0  0  0  0
   40.5660  -25.9970  135.1010 C   0  0  0  0  0  0  0  0  0  0  0  0
   39.6810  -26.9700  135.3840 C   0  0  0  0  0  0  0  0  0  0  0  0
   39.1300  -24.6370  133.8340 N   0  0  0  0  0  0  0  0  0  0  0  0
   40.1760  -24.7750  134.6770 C   0  0  0  0  0  0  0  0  0  0  0  0
   40.8090  -23.6200  135.1230 C   0  0  0  0  0  0  0  0  0  0  0  0
   40.3650  -22.3780  134.6680 C   0  0  0  0  0  0  0  0  0  0  0  0
   39.3230  -22.3120  133.8240 N   0  0  0  0  0  0  0  0  0  0  0  0
   38.7100  -23.4310  133.4060 C   0  0  0  0  0  0  0  0  0  0  0  0
   37.6750  -23.3340  132.5510 N   0  0  0  0  0  0  0  0  0  0  0  0
   40.9240  -21.2350  135.0550 N   0  0  0  0  0  0  0  0  0  0  0  0
   42.0690  -21.1760  136.0070 C   0  0  0  0  0  0  0  0  0  0  0  0
   43.2840  -21.6740  135.4870 C   0  0  0  0  0  0  0  0  0  0  0  0
   43.6980  -21.3370  134.2580 N   0  0  0  0  0  0  0  0  0  0  0  0
   44.9110  -21.8300  133.7440 C   0  0  0  0  0  0  0  0  0  0  0  0
   45.7020  -22.6690  134.5280 C   0  0  0  0  0  0  0  0  0  0  0  0
   45.2800  -23.0120  135.8050 C   0  0  0  0  0  0  0  0  0  0  0  0
   40.2900  -19.9350  134.7210 C   0  0  0  0  0  0  0  0  0  0  0  0
   40.6630  -19.4170  133.4760 C   0  0  0  0  0  0  0  0  0  0  0  0
   40.1880  -17.9320  131.6220 C   0  0  0  0  0  0  0  0  0  0  0  0
   42.1820  -19.2710  131.6310 C   0  0  0  0  0  0  0  0  0  0  0  0
   41.8040  -19.7910  132.8790 N   0  0  0  0  0  0  0  0  0  0  0  0
   41.8580  -26.3470  135.2960 C   0  0  0  0  0  0  0  0  0  0  0  0
   42.0540  -27.6070  135.7230 C   0  0  0  0  0  0  0  0  0  0  0  0
   40.5410  -28.3540  135.8980 S   0  0  0  0  0  0  0  0  0  0  0  0
   43.7329  -22.7718  137.2920 H   0  0  0  0  0  0  0  0  0  0  0  0
   38.9158  -18.1537  133.3511 H   0  0  0  0  0  0  0  0  0  0  0  0
   41.6544  -17.9115  130.0267 H   0  0  0  0  0  0  0  0  0  0  0  0
   38.5874  -26.8882  135.2988 H   0  0  0  0  0  0  0  0  0  0  0  0
   41.6513  -23.6849  135.8275 H   0  0  0  0  0  0  0  0  0  0  0  0
   36.7148  -23.2440  132.9128 H   0  0  0  0  0  0  0  0  0  0  0  0
   37.8431  -23.3498  131.5349 H   0  0  0  0  0  0  0  0  0  0  0  0
   42.2228  -20.1259  136.2961 H   0  0  0  0  0  0  0  0  0  0  0  0
   41.8038  -21.8197  136.8587 H   0  0  0  0  0  0  0  0  0  0  0  0
   45.2338  -21.5551  132.7290 H   0  0  0  0  0  0  0  0  0  0  0  0
   46.6543  -23.0565  134.1370 H   0  0  0  0  0  0  0  0  0  0  0  0
   45.8927  -23.6736  136.4349 H   0  0  0  0  0  0  0  0  0  0  0  0
   40.5698  -19.2059  135.4956 H   0  0  0  0  0  0  0  0  0  0  0  0
   39.2058  -20.1149  134.6760 H   0  0  0  0  0  0  0  0  0  0  0  0
   39.5314  -17.1930  131.1395 H   0  0  0  0  0  0  0  0  0  0  0  0
   43.1153  -19.6031  131.1528 H   0  0  0  0  0  0  0  0  0  0  0  0
   42.6900  -25.6498  135.1178 H   0  0  0  0  0  0  0  0  0  0  0  0
   43.0294  -28.0739  135.9245 H   0  0  0  0  0  0  0  0  0  0  0  0
  3 23  2  0
  3 22  1  0
 23 24  1  0
 22  2  2  0
 12 11  1  0
  2 21  1  0
 24 21  2  0
 11 10  1  0
 11  6  2  0
 21 20  1  0
 17 16  2  0
 17 18  1  0
 10  9  2  0
  6  7  1  0
 16 15  1  0
 18 19  2  0
  9 13  1  0
  9  8  1  0
  7  4  1  0
  7  8  2  0
 20 13  1  0
 13 14  1  0
  4 25  1  0
  4  5  2  0
 25 26  2  0
  5 27  1  0
 15 14  1  0
 15  1  2  0
 26 27  1  0
 19  1  1  0
  1 28  1  0
  2 29  1  0
  3 30  1  0
  5 31  1  0
  8 32  1  0
 12 33  1  0
 12 34  1  0
 14 35  1  0
 14 36  1  0
 17 37  1  0
 18 38  1  0
 19 39  1  0
 20 40  1  0
 20 41  1  0
 22 42  1  0
 23 43  1  0
 25 44  1  0
 26 45  1  0
A    1
C10
A    2
C13
A    3
C15
A    4
C17
A    5
C20
A    6
N01
A    7
C01
A    8
C02
A    9
C03
A   10
N02
A   11
C04
A   12
N03
A   13
N04
A   14
C05
A   15
C06
A   16
N05
A   17
C07
A   18
C08
A   19
C09
A   20
C11
A   21
C12
A   22
C14
A   23
C16
A   24
N06
A   25
C18
A   26
C19
A   27
S01
M  END
