5J5H_6GK_A_301
     RDKit          3D

 52 55  0  0  0  0  0  0  0  0999 V2000
  -38.7700  -34.6690  -18.5970 C   0  0  0  0  0  0  0  0  0  0  0  0
  -37.4360  -35.4220  -15.8090 C   0  0  0  0  0  0  0  0  0  0  0  0
  -37.4860  -35.8950  -13.4210 C   0  0  0  0  0  0  0  0  0  0  0  0
  -37.7850  -33.6510  -14.2220 C   0  0  0  0  0  0  0  0  0  0  0  0
  -36.4860  -30.8380  -17.1240 C   0  0  0  0  0  0  0  0  0  0  0  0
  -36.2570  -30.0030  -18.2160 C   0  0  0  0  0  0  0  0  0  0  0  0
  -36.0620  -30.5690  -19.4730 C   0  0  0  0  0  0  0  0  0  0  0  0
  -43.2950  -34.3470  -23.0250 C   0  0  0  0  0  0  0  0  0  0  0  0
  -42.2150  -34.2950  -22.0680 O   0  0  0  0  0  0  0  0  0  0  0  0
  -41.5760  -33.0950  -22.1110 C   0  0  0  0  0  0  0  0  0  0  0  0
  -41.8340  -32.1690  -23.1200 C   0  0  0  0  0  0  0  0  0  0  0  0
  -41.1710  -30.9470  -23.1580 C   0  0  0  0  0  0  0  0  0  0  0  0
  -40.2450  -30.6680  -22.1560 C   0  0  0  0  0  0  0  0  0  0  0  0
  -39.9820  -31.5930  -21.1390 C   0  0  0  0  0  0  0  0  0  0  0  0
  -40.6400  -32.8190  -21.1170 C   0  0  0  0  0  0  0  0  0  0  0  0
  -40.3480  -33.6780  -20.0650 C   0  0  0  0  0  0  0  0  0  0  0  0
  -39.0310  -33.8260  -19.6620 C   0  0  0  0  0  0  0  0  0  0  0  0
  -41.3240  -34.3290  -19.4050 N   0  0  0  0  0  0  0  0  0  0  0  0
  -41.0330  -35.1310  -18.3690 C   0  0  0  0  0  0  0  0  0  0  0  0
  -41.9900  -35.7810  -17.7250 N   0  0  0  0  0  0  0  0  0  0  0  0
  -39.7710  -35.3000  -17.9750 N   0  0  0  0  0  0  0  0  0  0  0  0
  -37.5420  -34.8750  -18.1550 N   0  0  0  0  0  0  0  0  0  0  0  0
  -36.3600  -34.1670  -18.7070 C   0  0  0  0  0  0  0  0  0  0  0  0
  -36.3340  -32.7710  -18.5120 C   0  0  0  0  0  0  0  0  0  0  0  0
  -36.5140  -32.2260  -17.2980 N   0  0  0  0  0  0  0  0  0  0  0  0
  -36.0970  -31.9530  -19.6130 C   0  0  0  0  0  0  0  0  0  0  0  0
  -37.2810  -35.9010  -17.1190 C   0  0  0  0  0  0  0  0  0  0  0  0
  -37.6480  -34.1130  -15.5520 N   0  0  0  0  0  0  0  0  0  0  0  0
  -37.7070  -34.5440  -13.1530 C   0  0  0  0  0  0  0  0  0  0  0  0
  -37.3480  -36.3240  -14.7450 C   0  0  0  0  0  0  0  0  0  0  0  0
  -37.4206  -36.6190  -12.5955 H   0  0  0  0  0  0  0  0  0  0  0  0
  -37.9540  -32.5812  -14.0295 H   0  0  0  0  0  0  0  0  0  0  0  0
  -36.6448  -30.4057  -16.1250 H   0  0  0  0  0  0  0  0  0  0  0  0
  -36.2307  -28.9110  -18.0865 H   0  0  0  0  0  0  0  0  0  0  0  0
  -35.8818  -29.9274  -20.3482 H   0  0  0  0  0  0  0  0  0  0  0  0
  -44.2558  -34.3933  -22.4914 H   0  0  0  0  0  0  0  0  0  0  0  0
  -43.2692  -33.4466  -23.6563 H   0  0  0  0  0  0  0  0  0  0  0  0
  -43.1828  -35.2408  -23.6563 H   0  0  0  0  0  0  0  0  0  0  0  0
  -42.5735  -32.4083  -23.8984 H   0  0  0  0  0  0  0  0  0  0  0  0
  -41.3728  -30.2200  -23.9585 H   0  0  0  0  0  0  0  0  0  0  0  0
  -39.7120  -29.7058  -22.1639 H   0  0  0  0  0  0  0  0  0  0  0  0
  -39.2516  -31.3497  -20.3533 H   0  0  0  0  0  0  0  0  0  0  0  0
  -38.2179  -33.2897  -20.1731 H   0  0  0  0  0  0  0  0  0  0  0  0
  -42.0033  -35.7901  -16.6951 H   0  0  0  0  0  0  0  0  0  0  0  0
  -42.7211  -36.2776  -18.2539 H   0  0  0  0  0  0  0  0  0  0  0  0
  -35.4617  -34.5905  -18.2340 H   0  0  0  0  0  0  0  0  0  0  0  0
  -36.4048  -34.3155  -19.7960 H   0  0  0  0  0  0  0  0  0  0  0  0
  -35.9359  -32.4048  -20.6029 H   0  0  0  0  0  0  0  0  0  0  0  0
  -36.2489  -36.2624  -17.2383 H   0  0  0  0  0  0  0  0  0  0  0  0
  -38.0211  -36.7022  -17.2616 H   0  0  0  0  0  0  0  0  0  0  0  0
  -37.8177  -34.1892  -12.1177 H   0  0  0  0  0  0  0  0  0  0  0  0
  -37.1672  -37.3890  -14.9524 H   0  0  0  0  0  0  0  0  0  0  0  0
  8  9  1  0
 20 19  1  0
  9 10  1  0
 19 18  2  0
 19 21  1  0
 18 16  1  0
 21  1  2  0
 10 11  2  0
 10 15  1  0
 30  3  2  0
 30  2  1  0
 16 15  1  0
 16 17  2  0
 11 12  1  0
  3 29  1  0
  1 17  1  0
  1 22  1  0
 27  2  1  0
 27 22  1  0
 15 14  2  0
  2 28  2  0
 22 23  1  0
 29  4  2  0
 12 13  2  0
 28  4  1  0
 14 13  1  0
 23 24  1  0
 24 25  1  0
 24 26  2  0
 25  5  2  0
 26  7  1  0
  5  6  1  0
  7  6  2  0
  3 31  1  0
  4 32  1  0
  5 33  1  0
  6 34  1  0
  7 35  1  0
  8 36  1  0
  8 37  1  0
  8 38  1  0
 11 39  1  0
 12 40  1  0
 13 41  1  0
 14 42  1  0
 17 43  1  0
 20 44  1  0
 20 45  1  0
 23 46  1  0
 23 47  1  0
 26 48  1  0
 27 49  1  0
 27 50  1  0
 29 51  1  0
 30 52  1  0
A    1
C10
A    2
C13
A    3
C15
A    4
C17
A    5
C20
A    6
C21
A    7
C22
A    8
C01
A    9
O01
A   10
C02
A   11
C07
A   12
C06
A   13
C05
A   14
C04
A   15
C03
A   16
C08
A   17
C11
A   18
N01
A   19
C09
A   20
N02
A   21
N03
A   22
N04
A   23
C18
A   24
C19
A   25
N06
A   26
C23
A   27
C12
A   28
N05
A   29
C16
A   30
C14
M  END
