5J5S_6G3_A_601
     RDKit          3D

 60 64  0  0  0  0  0  0  0  0999 V2000
   11.3380   38.1610    7.2770 C   0  0  0  0  0  0  0  0  0  0  0  0
    5.2750   36.8280    7.9570 C   0  0  0  0  0  0  0  0  0  0  0  0
    4.1840   36.2620   10.0540 C   0  0  0  0  0  0  0  0  0  0  0  0
    7.0960   38.4700   10.8590 C   0  0  0  0  0  0  0  0  0  0  0  0
    7.0030   38.5450   12.2650 C   0  0  0  0  0  0  0  0  0  0  0  0
    5.9760   37.8630   12.9380 C   0  0  0  0  0  0  0  0  0  0  0  0
   -0.0680   35.6090   12.9250 C   0  0  0  0  0  0  0  0  0  0  0  0
    7.7620   42.2940    6.2360 C   0  0  0  0  0  0  0  0  0  0  0  0
    7.9720   40.9700    5.5910 C   0  0  0  0  0  0  0  0  0  0  0  0
    8.9140   40.9500    4.4110 C   0  0  0  0  0  0  0  0  0  0  0  0
    8.0210   39.7930    6.5430 C   0  0  0  0  0  0  0  0  0  0  0  0
    6.9040   39.3200    7.1330 N   0  0  0  0  0  0  0  0  0  0  0  0
    7.2200   38.2700    7.9200 C   0  0  0  0  0  0  0  0  0  0  0  0
    8.6420   38.0850    7.8290 C   0  0  0  0  0  0  0  0  0  0  0  0
    9.1060   39.0310    6.9780 N   0  0  0  0  0  0  0  0  0  0  0  0
   10.4660   39.0780    6.6870 C   0  0  0  0  0  0  0  0  0  0  0  0
   10.8540   37.2060    8.1350 N   0  0  0  0  0  0  0  0  0  0  0  0
    9.5330   37.1430    8.4240 C   0  0  0  0  0  0  0  0  0  0  0  0
    9.0580   36.1360    9.3230 N   0  0  0  0  0  0  0  0  0  0  0  0
    6.2200   37.5780    8.6650 C   0  0  0  0  0  0  0  0  0  0  0  0
    4.2490   36.1460    8.6540 C   0  0  0  0  0  0  0  0  0  0  0  0
    5.1460   37.0420   10.7910 C   0  0  0  0  0  0  0  0  0  0  0  0
    6.1450   37.7070   10.1190 C   0  0  0  0  0  0  0  0  0  0  0  0
    5.0510   37.1180   12.2180 C   0  0  0  0  0  0  0  0  0  0  0  0
    3.1540   35.5540   10.7960 N   0  0  0  0  0  0  0  0  0  0  0  0
    2.0580   36.2000   11.4510 C   0  0  0  0  0  0  0  0  0  0  0  0
    1.9290   37.4150   11.3940 O   0  0  0  0  0  0  0  0  0  0  0  0
    1.1340   35.2820   12.1670 N   0  0  0  0  0  0  0  0  0  0  0  0
   -0.8350   34.5390   13.4480 C   0  0  0  0  0  0  0  0  0  0  0  0
   -1.9960   34.7910   14.1910 C   0  0  0  0  0  0  0  0  0  0  0  0
   -2.3860   36.1120   14.4150 C   0  0  0  0  0  0  0  0  0  0  0  0
   -1.6200   37.1640   13.8980 C   0  0  0  0  0  0  0  0  0  0  0  0
   -0.4460   36.9160   13.1500 C   0  0  0  0  0  0  0  0  0  0  0  0
   -2.0510   38.5710   14.1480 C   0  0  0  0  0  0  0  0  0  0  0  0
   -1.1330   39.3840   13.6420 F   0  0  0  0  0  0  0  0  0  0  0  0
   -2.1650   38.7500   15.4540 F   0  0  0  0  0  0  0  0  0  0  0  0
   -3.2210   38.8000   13.5610 F   0  0  0  0  0  0  0  0  0  0  0  0
   12.4142   38.2042    7.0537 H   0  0  0  0  0  0  0  0  0  0  0  0
    5.3291   36.7683    6.8600 H   0  0  0  0  0  0  0  0  0  0  0  0
    7.9032   39.0008   10.3329 H   0  0  0  0  0  0  0  0  0  0  0  0
    7.7347   39.1375   12.8339 H   0  0  0  0  0  0  0  0  0  0  0  0
    5.9044   37.9189   14.0342 H   0  0  0  0  0  0  0  0  0  0  0  0
    7.7807   42.1762    7.3295 H   0  0  0  0  0  0  0  0  0  0  0  0
    8.5621   42.9831    5.9277 H   0  0  0  0  0  0  0  0  0  0  0  0
    6.7880   42.7017    5.9277 H   0  0  0  0  0  0  0  0  0  0  0  0
    7.0198   40.7858    5.0721 H   0  0  0  0  0  0  0  0  0  0  0  0
    9.9530   40.9279    4.7716 H   0  0  0  0  0  0  0  0  0  0  0  0
    8.7186   40.0558    3.8009 H   0  0  0  0  0  0  0  0  0  0  0  0
    8.7567   41.8517    3.8009 H   0  0  0  0  0  0  0  0  0  0  0  0
   10.8540   39.8375    5.9923 H   0  0  0  0  0  0  0  0  0  0  0  0
    9.1261   36.2804   10.3405 H   0  0  0  0  0  0  0  0  0  0  0  0
    8.6480   35.2668    8.9525 H   0  0  0  0  0  0  0  0  0  0  0  0
    3.5142   35.5350    8.1092 H   0  0  0  0  0  0  0  0  0  0  0  0
    4.2448   36.5859   12.7442 H   0  0  0  0  0  0  0  0  0  0  0  0
    3.2167   34.5275   10.8537 H   0  0  0  0  0  0  0  0  0  0  0  0
    1.3748   34.2816   12.1217 H   0  0  0  0  0  0  0  0  0  0  0  0
   -0.5164   33.5014   13.2693 H   0  0  0  0  0  0  0  0  0  0  0  0
   -2.5922   33.9583   14.5925 H   0  0  0  0  0  0  0  0  0  0  0  0
   -3.2943   36.3267   14.9972 H   0  0  0  0  0  0  0  0  0  0  0  0
    0.1540   37.7492   12.7553 H   0  0  0  0  0  0  0  0  0  0  0  0
 10  9  1  0
  9  8  1  0
  9 11  1  0
 11 15  1  0
 11 12  2  0
 16 15  1  0
 16  1  2  0
 15 14  1  0
 12 13  1  0
  1 17  1  0
 14 13  2  0
 14 18  1  0
 13 20  1  0
  2 21  2  0
  2 20  1  0
 17 18  2  0
 18 19  1  0
 21  3  1  0
 20 23  2  0
  3 22  2  0
  3 25  1  0
 23 22  1  0
 23  4  1  0
 22 24  1  0
 25 26  1  0
  4  5  2  0
 27 26  2  0
 26 28  1  0
 28  7  1  0
 24  6  2  0
  5  6  1  0
  7 33  1  0
  7 29  2  0
 33 32  2  0
 29 30  1  0
 37 34  1  0
 35 34  1  0
 32 34  1  0
 32 31  1  0
 34 36  1  0
 30 31  2  0
  1 38  1  0
  2 39  1  0
  4 40  1  0
  5 41  1  0
  6 42  1  0
  8 43  1  0
  8 44  1  0
  8 45  1  0
  9 46  1  0
 10 47  1  0
 10 48  1  0
 10 49  1  0
 16 50  1  0
 19 51  1  0
 19 52  1  0
 21 53  1  0
 24 54  1  0
 25 55  1  0
 28 56  1  0
 29 57  1  0
 30 58  1  0
 31 59  1  0
 33 60  1  0
A    1
C10
A    2
C15
A    3
C17
A    4
C20
A    5
C21
A    6
C22
A    7
C28
A    8
C01
A    9
C02
A   10
C03
A   11
C04
A   12
N05
A   13
C06
A   14
C07
A   15
N08
A   16
C09
A   17
N11
A   18
C12
A   19
N13
A   20
C14
A   21
C16
A   22
C18
A   23
C19
A   24
C23
A   25
N24
A   26
C25
A   27
O26
A   28
N27
A   29
C29
A   30
C30
A   31
C31
A   32
C32
A   33
C33
A   34
C34
A   35
F35
A   36
F36
A   37
F37
M  END
