5J5T_6G2_A_901
     RDKit          3D

 47 50  0  0  0  0  0  0  0  0999 V2000
   20.1890   -9.0500   15.3710 C   0  0  0  0  0  0  0  0  0  0  0  0
   17.9350   -8.7470   14.7120 C   0  0  0  0  0  0  0  0  0  0  0  0
   18.3330   -8.4620   13.4100 C   0  0  0  0  0  0  0  0  0  0  0  0
   13.7470   -6.1240   10.3840 C   0  0  0  0  0  0  0  0  0  0  0  0
   19.6850   -8.4880   13.0770 C   0  0  0  0  0  0  0  0  0  0  0  0
   20.6110   -8.7760   14.0760 C   0  0  0  0  0  0  0  0  0  0  0  0
   22.3280   -8.5530   12.5110 C   0  0  0  0  0  0  0  0  0  0  0  0
   23.6970   -8.7620   12.3630 C   0  0  0  0  0  0  0  0  0  0  0  0
   24.3380   -8.3960   11.1840 C   0  0  0  0  0  0  0  0  0  0  0  0
   18.8890   -9.0360   15.6950 N   0  0  0  0  0  0  0  0  0  0  0  0
   21.1400   -9.3210   16.2620 N   0  0  0  0  0  0  0  0  0  0  0  0
   12.9950   -8.0890   11.6810 C   0  0  0  0  0  0  0  0  0  0  0  0
   17.4120   -8.1940   12.4870 C   0  0  0  0  0  0  0  0  0  0  0  0
   16.5450   -7.6400   10.4970 N   0  0  0  0  0  0  0  0  0  0  0  0
   14.0130   -7.5930   10.6670 C   0  0  0  0  0  0  0  0  0  0  0  0
   15.4230   -7.7790   11.2110 C   0  0  0  0  0  0  0  0  0  0  0  0
   17.6630   -7.8680   11.2150 C   0  0  0  0  0  0  0  0  0  0  0  0
   11.3470   -6.4700   10.8220 N   0  0  0  0  0  0  0  0  0  0  0  0
   11.6020   -7.8900   11.1070 C   0  0  0  0  0  0  0  0  0  0  0  0
   26.4380   -9.1940   12.0740 N   0  0  0  0  0  0  0  0  0  0  0  0
   12.3330   -5.9800    9.8440 C   0  0  0  0  0  0  0  0  0  0  0  0
   15.7920   -8.1920   12.7480 S   0  0  0  0  0  0  0  0  0  0  0  0
   21.9570   -8.8300   13.8670 O   0  0  0  0  0  0  0  0  0  0  0  0
   25.7050   -8.6080   11.0360 C   0  0  0  0  0  0  0  0  0  0  0  0
   25.7900   -9.5630   13.2580 C   0  0  0  0  0  0  0  0  0  0  0  0
   24.4230   -9.3470   13.3950 C   0  0  0  0  0  0  0  0  0  0  0  0
   16.8658   -8.7453   14.9704 H   0  0  0  0  0  0  0  0  0  0  0  0
   14.4671   -5.7542    9.6392 H   0  0  0  0  0  0  0  0  0  0  0  0
   13.8566   -5.5383   11.3086 H   0  0  0  0  0  0  0  0  0  0  0  0
   20.0141   -8.2854   12.0471 H   0  0  0  0  0  0  0  0  0  0  0  0
   22.0864   -7.5075   12.2689 H   0  0  0  0  0  0  0  0  0  0  0  0
   21.7752   -9.2183   11.8315 H   0  0  0  0  0  0  0  0  0  0  0  0
   23.7624   -7.9376   10.3663 H   0  0  0  0  0  0  0  0  0  0  0  0
   20.9337   -9.2622   17.2694 H   0  0  0  0  0  0  0  0  0  0  0  0
   22.0822   -9.5895   15.9441 H   0  0  0  0  0  0  0  0  0  0  0  0
   13.1634   -9.1571   11.8831 H   0  0  0  0  0  0  0  0  0  0  0  0
   13.0975   -7.5279   12.6215 H   0  0  0  0  0  0  0  0  0  0  0  0
   13.9227   -8.1696    9.7346 H   0  0  0  0  0  0  0  0  0  0  0  0
   18.6778   -7.7934   10.7971 H   0  0  0  0  0  0  0  0  0  0  0  0
   11.4273   -5.9254   11.6926 H   0  0  0  0  0  0  0  0  0  0  0  0
   10.8588   -8.2501   11.8336 H   0  0  0  0  0  0  0  0  0  0  0  0
   11.5267   -8.4551   10.1663 H   0  0  0  0  0  0  0  0  0  0  0  0
   12.1342   -4.9190    9.6322 H   0  0  0  0  0  0  0  0  0  0  0  0
   12.2443   -6.5773    8.9246 H   0  0  0  0  0  0  0  0  0  0  0  0
   26.2094   -8.3151   10.1034 H   0  0  0  0  0  0  0  0  0  0  0  0
   26.3605  -10.0228   14.0785 H   0  0  0  0  0  0  0  0  0  0  0  0
   23.9132   -9.6404   14.3245 H   0  0  0  0  0  0  0  0  0  0  0  0
 21  4  1  0
 21 18  1  0
 14 17  1  0
 14 16  2  0
  4 15  1  0
 15 16  1  0
 15 12  1  0
 19 18  1  0
 19 12  1  0
 17 13  2  0
 16 22  1  0
 24  9  2  0
 24 20  1  0
  9  8  1  0
 20 25  2  0
 13 22  1  0
 13  3  1  0
  8  7  1  0
  8 26  2  0
  7 23  1  0
  5  3  2  0
  5  6  1  0
 25 26  1  0
  3  2  1  0
 23  6  1  0
  6  1  2  0
  2 10  2  0
  1 10  1  0
  1 11  1  0
  2 27  1  0
  4 28  1  0
  4 29  1  0
  5 30  1  0
  7 31  1  0
  7 32  1  0
  9 33  1  0
 11 34  1  0
 11 35  1  0
 12 36  1  0
 12 37  1  0
 15 38  1  0
 17 39  1  0
 18 40  1  0
 19 41  1  0
 19 42  1  0
 21 43  1  0
 21 44  1  0
 24 45  1  0
 25 46  1  0
 26 47  1  0
A    1
C1
A    2
C2
A    3
C3
A    4
C11
A    5
C12
A    6
C13
A    7
C14
A    8
C15
A    9
C16
A   10
N2
A   11
N1
A   12
C8
A   13
C4
A   14
N3
A   15
C7
A   16
C6
A   17
C5
A   18
N4
A   19
C9
A   20
N5
A   21
C10
A   22
S1
A   23
O1
A   24
C17
A   25
C18
A   26
C19
M  END
