5J63_G3N_A_401
     RDKit          3D

 57 59  0  0  0  0  0  0  0  0999 V2000
   30.8740   40.0300  -27.5950 O   0  0  0  0  0  0  0  0  0  0  0  0
   29.4570   40.0200  -27.7440 P   0  0  0  0  0  0  0  0  0  0  0  0
   29.0080   41.3060  -28.2790 O   0  0  0  0  0  0  0  0  0  0  0  0
   28.9650   38.9530  -28.8030 O   0  0  0  0  0  0  0  0  0  0  0  0
   27.7270   39.0150  -29.4900 C   0  0  0  0  0  0  0  0  0  0  0  0
   27.9190   38.3920  -30.7640 O   0  0  0  0  0  0  0  0  0  0  0  0
   26.7570   38.1770  -31.5580 C   0  0  0  0  0  0  0  0  0  0  0  0
   25.7290   37.3430  -30.8330 C   0  0  0  0  0  0  0  0  0  0  0  0
   24.4590   37.4690  -31.5520 N   0  0  0  0  0  0  0  0  0  0  0  0
   25.4910   37.8290  -29.4090 C   0  0  0  0  0  0  0  0  0  0  0  0
   24.7150   38.9750  -29.4510 O   0  0  0  0  0  0  0  0  0  0  0  0
   26.7220   38.2450  -28.6460 C   0  0  0  0  0  0  0  0  0  0  0  0
   27.3180   37.0870  -28.0700 O   0  0  0  0  0  0  0  0  0  0  0  0
   28.7230   39.6230  -26.4210 O   0  0  0  0  0  0  0  0  0  0  0  0
   29.0290   38.3860  -25.4660 P   0  0  0  0  0  0  0  0  0  0  0  0
   28.7350   37.1370  -26.0830 O   0  0  0  0  0  0  0  0  0  0  0  0
   28.1040   38.4650  -24.3700 O   0  0  0  0  0  0  0  0  0  0  0  0
   30.4740   38.3630  -24.8990 O   0  0  0  0  0  0  0  0  0  0  0  0
   31.0460   39.4880  -24.2720 C   0  0  0  0  0  0  0  0  0  0  0  0
   31.7350   39.1050  -22.9870 C   0  0  0  0  0  0  0  0  0  0  0  0
   32.4700   40.2920  -22.4420 C   0  0  0  0  0  0  0  0  0  0  0  0
   32.7640   40.0850  -21.0700 O   0  0  0  0  0  0  0  0  0  0  0  0
   33.7280   40.2710  -23.2690 C   0  0  0  0  0  0  0  0  0  0  0  0
   34.7750   40.9960  -22.6830 O   0  0  0  0  0  0  0  0  0  0  0  0
   32.7730   38.2480  -23.3050 O   0  0  0  0  0  0  0  0  0  0  0  0
   34.0340   38.8190  -23.1890 C   0  0  0  0  0  0  0  0  0  0  0  0
   34.8340   38.2890  -24.2620 N   0  0  0  0  0  0  0  0  0  0  0  0
   34.3710   38.3160  -25.4900 C   0  0  0  0  0  0  0  0  0  0  0  0
   35.1530   37.7750  -26.4900 C   0  0  0  0  0  0  0  0  0  0  0  0
   36.3520   37.1900  -26.2020 C   0  0  0  0  0  0  0  0  0  0  0  0
   37.0650   36.7230  -27.0710 O   0  0  0  0  0  0  0  0  0  0  0  0
   36.7790   37.1790  -24.9760 N   0  0  0  0  0  0  0  0  0  0  0  0
   36.0450   37.6870  -24.0190 C   0  0  0  0  0  0  0  0  0  0  0  0
   36.4990   37.6350  -22.8930 O   0  0  0  0  0  0  0  0  0  0  0  0
   31.1046   40.0316  -26.6322 H   0  0  0  0  0  0  0  0  0  0  0  0
   27.3650   40.0420  -29.6456 H   0  0  0  0  0  0  0  0  0  0  0  0
   27.0488   37.6577  -32.4828 H   0  0  0  0  0  0  0  0  0  0  0  0
   26.3081   39.1566  -31.7793 H   0  0  0  0  0  0  0  0  0  0  0  0
   26.0988   36.3078  -30.7936 H   0  0  0  0  0  0  0  0  0  0  0  0
   23.6870   37.5456  -30.8745 H   0  0  0  0  0  0  0  0  0  0  0  0
   24.4815   38.3119  -32.1436 H   0  0  0  0  0  0  0  0  0  0  0  0
   25.0362   36.9643  -28.9035 H   0  0  0  0  0  0  0  0  0  0  0  0
   24.5142   39.2716  -28.5281 H   0  0  0  0  0  0  0  0  0  0  0  0
   26.4074   38.9450  -27.8579 H   0  0  0  0  0  0  0  0  0  0  0  0
   27.2833   37.1543  -27.0829 H   0  0  0  0  0  0  0  0  0  0  0  0
   28.6011   38.4225  -23.5149 H   0  0  0  0  0  0  0  0  0  0  0  0
   31.7818   39.9422  -24.9520 H   0  0  0  0  0  0  0  0  0  0  0  0
   30.2425   40.2016  -24.0369 H   0  0  0  0  0  0  0  0  0  0  0  0
   30.9825   38.6956  -22.2970 H   0  0  0  0  0  0  0  0  0  0  0  0
   31.9186   41.2422  -22.4963 H   0  0  0  0  0  0  0  0  0  0  0  0
   32.0941   40.5566  -20.5142 H   0  0  0  0  0  0  0  0  0  0  0  0
   33.6129   40.7088  -24.2715 H   0  0  0  0  0  0  0  0  0  0  0  0
   34.7007   40.9445  -21.6971 H   0  0  0  0  0  0  0  0  0  0  0  0
   34.6115   38.6142  -22.2754 H   0  0  0  0  0  0  0  0  0  0  0  0
   33.3887   38.7568  -25.7152 H   0  0  0  0  0  0  0  0  0  0  0  0
   34.8055   37.8158  -27.5329 H   0  0  0  0  0  0  0  0  0  0  0  0
   37.6980   36.7693  -24.7559 H   0  0  0  0  0  0  0  0  0  0  0  0
  7  8  1  0
  7  6  1  0
  9  8  1  0
  8 10  1  0
  6  5  1  0
  5  4  1  0
  5 12  1  0
 11 10  1  0
 10 12  1  0
  4  2  1  0
 12 13  1  0
  3  2  2  0
  2  1  1  0
  2 14  1  0
 31 30  2  0
 29 30  1  0
 29 28  2  0
 14 15  1  0
 30 32  1  0
 16 15  2  0
 28 27  1  0
 15 18  1  0
 15 17  1  0
 32 33  1  0
 18 19  1  0
 19 20  1  0
 27 33  1  0
 27 26  1  0
 33 34  2  0
 25 26  1  0
 25 20  1  0
 23 26  1  0
 23 24  1  0
 23 21  1  0
 20 21  1  0
 21 22  1  0
  1 35  1  0
  5 36  1  0
  7 37  1  0
  7 38  1  0
  8 39  1  0
  9 40  1  0
  9 41  1  0
 10 42  1  0
 11 43  1  0
 12 44  1  0
 13 45  1  0
 17 46  1  0
 19 47  1  0
 19 48  1  0
 20 49  1  0
 21 50  1  0
 22 51  1  0
 23 52  1  0
 24 53  1  0
 26 54  1  0
 28 55  1  0
 29 56  1  0
 32 57  1  0
A    1
O2B
A    2
PB
A    3
O1B
A    4
O3B
A    5
C1'
A    6
O5'
A    7
C5'
A    8
C4'
A    9
N4'
A   10
C3'
A   11
O3'
A   12
C2'
A   13
O2'
A   14
O3A
A   15
PA
A   16
O1A
A   17
O2A
A   18
O5D
A   19
C5D
A   20
C4D
A   21
C3D
A   22
O3D
A   23
C2D
A   24
O2D
A   25
O4D
A   26
C1D
A   27
N1
A   28
C6
A   29
C5
A   30
C4
A   31
O4
A   32
N3
A   33
C2
A   34
O2
M  END
