5J6S_6GA_A_1015
     RDKit          3D

 40 41  0  0  0  0  0  0  0  0999 V2000
   93.8560    4.0980   66.2730 O   0  0  0  0  0  0  0  0  0  0  0  0
   92.7990    3.6320   66.6860 C   0  0  0  0  0  0  0  0  0  0  0  0
   91.4710    4.2280   66.2540 C   0  0  0  0  0  0  0  0  0  0  0  0
   91.6180    4.9220   64.9330 C   0  0  0  0  0  0  0  0  0  0  0  0
   91.8250    4.2750   63.9290 O   0  0  0  0  0  0  0  0  0  0  0  0
   90.3580    3.1830   66.0930 C   0  0  0  0  0  0  0  0  0  0  0  0
   89.0110    3.6370   66.6390 C   0  0  0  0  0  0  0  0  0  0  0  0
   88.7300    4.9710   66.8790 C   0  0  0  0  0  0  0  0  0  0  0  0
   87.4830    5.3380   67.3880 C   0  0  0  0  0  0  0  0  0  0  0  0
   88.0130    2.6990   66.9020 C   0  0  0  0  0  0  0  0  0  0  0  0
   86.7610    3.0600   67.4120 C   0  0  0  0  0  0  0  0  0  0  0  0
   86.4900    4.3980   67.6580 C   0  0  0  0  0  0  0  0  0  0  0  0
   85.2920    4.7810   68.1540 F   0  0  0  0  0  0  0  0  0  0  0  0
   92.7970    2.6520   67.4900 N   0  0  0  0  0  0  0  0  0  0  0  0
   93.9720    1.9410   68.0020 C   0  0  0  0  0  0  0  0  0  0  0  0
   93.4890    0.8130   68.8780 C   0  0  0  0  0  0  0  0  0  0  0  0
   94.3490    0.2370   69.8020 C   0  0  0  0  0  0  0  0  0  0  0  0
   93.8770   -0.7940   70.6080 C   0  0  0  0  0  0  0  0  0  0  0  0
   92.5520   -1.2300   70.4960 C   0  0  0  0  0  0  0  0  0  0  0  0
   91.6900   -0.6410   69.5740 C   0  0  0  0  0  0  0  0  0  0  0  0
   92.1660    0.3800   68.7640 C   0  0  0  0  0  0  0  0  0  0  0  0
   91.5450    6.2430   64.8820 N   0  0  0  0  0  0  0  0  0  0  0  0
   91.7590    6.8770   63.6530 O   0  0  0  0  0  0  0  0  0  0  0  0
   91.1879    4.9258   67.0558 H   0  0  0  0  0  0  0  0  0  0  0  0
   90.2420    2.9609   65.0219 H   0  0  0  0  0  0  0  0  0  0  0  0
   90.6597    2.2988   66.6737 H   0  0  0  0  0  0  0  0  0  0  0  0
   89.4877    5.7403   66.6691 H   0  0  0  0  0  0  0  0  0  0  0  0
   87.2779    6.4012   67.5818 H   0  0  0  0  0  0  0  0  0  0  0  0
   88.2175    1.6370   66.7013 H   0  0  0  0  0  0  0  0  0  0  0  0
   86.0005    2.2917   67.6155 H   0  0  0  0  0  0  0  0  0  0  0  0
   91.8774    2.3222   67.8162 H   0  0  0  0  0  0  0  0  0  0  0  0
   94.5588    1.5376   67.1636 H   0  0  0  0  0  0  0  0  0  0  0  0
   94.6116    2.6255   68.5785 H   0  0  0  0  0  0  0  0  0  0  0  0
   95.3867    0.5897   69.8957 H   0  0  0  0  0  0  0  0  0  0  0  0
   94.5492   -1.2692   71.3376 H   0  0  0  0  0  0  0  0  0  0  0  0
   92.1886   -2.0438   71.1408 H   0  0  0  0  0  0  0  0  0  0  0  0
   90.6471   -0.9803   69.4893 H   0  0  0  0  0  0  0  0  0  0  0  0
   91.4978    0.8510   68.0280 H   0  0  0  0  0  0  0  0  0  0  0  0
   91.3354    6.7918   65.7281 H   0  0  0  0  0  0  0  0  0  0  0  0
   92.0716    7.8032   63.8095 H   0  0  0  0  0  0  0  0  0  0  0  0
 23 22  1  0
  5  4  2  0
 22  4  1  0
  4  3  1  0
  6  3  1  0
  6  7  1  0
  3  2  1  0
  1  2  2  0
  7  8  2  0
  7 10  1  0
  2 14  1  0
  8  9  1  0
 10 11  2  0
  9 12  2  0
 11 12  1  0
 14 15  1  0
 12 13  1  0
 15 16  1  0
 21 16  1  0
 21 20  2  0
 16 17  2  0
 20 19  1  0
 17 18  1  0
 19 18  2  0
  3 24  1  0
  6 25  1  0
  6 26  1  0
  8 27  1  0
  9 28  1  0
 10 29  1  0
 11 30  1  0
 14 31  1  0
 15 32  1  0
 15 33  1  0
 17 34  1  0
 18 35  1  0
 19 36  1  0
 20 37  1  0
 21 38  1  0
 22 39  1  0
 23 40  1  0
A    1
O10
A    2
C9
A    3
C11
A    4
C12
A    5
O15
A    6
C16
A    7
C17
A    8
C18
A    9
C19
A   10
C22
A   11
C21
A   12
C20
A   13
F29
A   14
N8
A   15
C1
A   16
C2
A   17
C3
A   18
C4
A   19
C5
A   20
C6
A   21
C7
A   22
N1
A   23
O2
M  END
