5J79_6GE_A_401
     RDKit          3D

 39 41  0  0  0  0  0  0  0  0999 V2000
   49.4290   54.4070   22.2520 N   0  0  0  0  0  0  0  0  0  0  0  0
   49.0780   58.0640   20.2620 C   0  0  0  0  0  0  0  0  0  0  0  0
   48.9630   57.9990   21.6480 C   0  0  0  0  0  0  0  0  0  0  0  0
   49.0790   56.7720   22.2980 C   0  0  0  0  0  0  0  0  0  0  0  0
   49.3120   55.5940   21.5810 C   0  0  0  0  0  0  0  0  0  0  0  0
   50.5400   53.6040   22.3990 C   0  0  0  0  0  0  0  0  0  0  0  0
   52.8500   53.0310   21.9330 C   0  0  0  0  0  0  0  0  0  0  0  0
   50.4650   50.1480   24.8170 C   0  0  0  0  0  0  0  0  0  0  0  0
   49.3180   52.0600   23.9330 C   0  0  0  0  0  0  0  0  0  0  0  0
   48.1790   51.0150   27.1870 C   0  0  0  0  0  0  0  0  0  0  0  0
   46.7250   51.2010   25.1230 O   0  0  0  0  0  0  0  0  0  0  0  0
   47.8580   50.4710   25.6360 S   0  0  0  0  0  0  0  0  0  0  0  0
   47.7990   49.0370   25.6650 O   0  0  0  0  0  0  0  0  0  0  0  0
   49.3180   50.9390   24.7190 C   0  0  0  0  0  0  0  0  0  0  0  0
   51.6260   50.4900   24.1380 C   0  0  0  0  0  0  0  0  0  0  0  0
   50.4700   52.4310   23.2310 C   0  0  0  0  0  0  0  0  0  0  0  0
   51.6520   51.6270   23.3450 C   0  0  0  0  0  0  0  0  0  0  0  0
   52.8110   51.9300   22.7030 N   0  0  0  0  0  0  0  0  0  0  0  0
   51.7530   53.8770   21.7670 C   0  0  0  0  0  0  0  0  0  0  0  0
   49.4340   55.6510   20.1840 C   0  0  0  0  0  0  0  0  0  0  0  0
   49.6870   54.4220   19.3310 C   0  0  0  0  0  0  0  0  0  0  0  0
   48.7310   59.1380   22.3680 O   0  0  0  0  0  0  0  0  0  0  0  0
   49.3100   56.8920   19.5540 C   0  0  0  0  0  0  0  0  0  0  0  0
   48.5707   54.0675   22.7092 H   0  0  0  0  0  0  0  0  0  0  0  0
   48.9867   59.0264   19.7372 H   0  0  0  0  0  0  0  0  0  0  0  0
   48.9858   56.7291   23.3932 H   0  0  0  0  0  0  0  0  0  0  0  0
   53.7870   53.2756   21.4113 H   0  0  0  0  0  0  0  0  0  0  0  0
   50.4478   49.2420   25.4406 H   0  0  0  0  0  0  0  0  0  0  0  0
   48.4076   52.6722   23.8530 H   0  0  0  0  0  0  0  0  0  0  0  0
   47.7612   50.3069   27.9177 H   0  0  0  0  0  0  0  0  0  0  0  0
   49.2669   51.0913   27.3310 H   0  0  0  0  0  0  0  0  0  0  0  0
   47.7198   52.0042   27.3310 H   0  0  0  0  0  0  0  0  0  0  0  0
   52.5235   49.8605   24.2287 H   0  0  0  0  0  0  0  0  0  0  0  0
   51.8458   54.7693   21.1305 H   0  0  0  0  0  0  0  0  0  0  0  0
   49.8657   53.5539   19.9825 H   0  0  0  0  0  0  0  0  0  0  0  0
   48.8097   54.2294   18.6960 H   0  0  0  0  0  0  0  0  0  0  0  0
   50.5691   54.5916   18.6960 H   0  0  0  0  0  0  0  0  0  0  0  0
   48.7371   59.1080   23.3575 H   0  0  0  0  0  0  0  0  0  0  0  0
   49.3993   56.9424   18.4588 H   0  0  0  0  0  0  0  0  0  0  0  0
 21 20  1  0
 23 20  1  0
 23  2  2  0
 20  5  2  0
  2  3  1  0
  5  1  1  0
  5  4  1  0
  3  4  2  0
  3 22  1  0
 19  7  2  0
 19  6  1  0
  7 18  1  0
  1  6  1  0
  6 16  2  0
 18 17  2  0
 16 17  1  0
 16  9  1  0
 17 15  1  0
  9 14  2  0
 15  8  2  0
 14  8  1  0
 14 12  1  0
 11 12  2  0
 12 13  2  0
 12 10  1  0
  1 24  1  0
  2 25  1  0
  4 26  1  0
  7 27  1  0
  8 28  1  0
  9 29  1  0
 10 30  1  0
 10 31  1  0
 10 32  1  0
 15 33  1  0
 19 34  1  0
 21 35  1  0
 21 36  1  0
 21 37  1  0
 22 38  1  0
 23 39  1  0
A    1
N1
A    2
C4
A    3
C5
A    4
C6
A    5
C7
A    6
C8
A    7
C10
A    8
C13
A    9
C15
A   10
C17
A   11
O3
A   12
S
A   13
O2
A   14
C14
A   15
C12
A   16
C16
A   17
C11
A   18
N2
A   19
C9
A   20
C2
A   21
C1
A   22
O1
A   23
C3
M  END
