5J7Q_6H2_A_201
     RDKit          3D

 27 29  0  0  0  0  0  0  0  0999 V2000
  -18.6760   -0.9260  -26.0600 C   0  0  0  0  0  0  0  0  0  0  0  0
  -18.3390    0.1090  -26.9330 C   0  0  0  0  0  0  0  0  0  0  0  0
  -17.9910   -0.1620  -28.2490 C   0  0  0  0  0  0  0  0  0  0  0  0
  -17.8940   -1.4740  -28.6980 C   0  0  0  0  0  0  0  0  0  0  0  0
  -18.1700   -2.5350  -27.8230 C   0  0  0  0  0  0  0  0  0  0  0  0
  -18.5310   -2.2600  -26.4900 C   0  0  0  0  0  0  0  0  0  0  0  0
  -17.5520   -1.6920  -30.0070 O   0  0  0  0  0  0  0  0  0  0  0  0
  -17.7390    0.8840  -29.0860 O   0  0  0  0  0  0  0  0  0  0  0  0
  -18.9350   -0.5850  -24.6420 C   0  0  0  0  0  0  0  0  0  0  0  0
  -19.7290   -1.3420  -23.8240 N   0  0  0  0  0  0  0  0  0  0  0  0
  -19.6290   -0.8070  -22.6020 C   0  0  0  0  0  0  0  0  0  0  0  0
  -18.7770    0.2890  -22.6450 N   0  0  0  0  0  0  0  0  0  0  0  0
  -18.3420    0.3770  -23.9250 C   0  0  0  0  0  0  0  0  0  0  0  0
  -20.2000   -1.0960  -21.3770 C   0  0  0  0  0  0  0  0  0  0  0  0
  -19.8750   -0.3200  -20.2840 C   0  0  0  0  0  0  0  0  0  0  0  0
  -19.0050    0.7510  -20.3670 C   0  0  0  0  0  0  0  0  0  0  0  0
  -18.4600    1.0460  -21.5660 C   0  0  0  0  0  0  0  0  0  0  0  0
  -18.3492    1.1491  -26.5750 H   0  0  0  0  0  0  0  0  0  0  0  0
  -18.1049   -3.5749  -28.1757 H   0  0  0  0  0  0  0  0  0  0  0  0
  -18.6998   -3.0867  -25.7843 H   0  0  0  0  0  0  0  0  0  0  0  0
  -16.7379   -2.2109  -30.2261 H   0  0  0  0  0  0  0  0  0  0  0  0
  -17.5242    1.7756  -28.7132 H   0  0  0  0  0  0  0  0  0  0  0  0
  -17.6227    1.1148  -24.3101 H   0  0  0  0  0  0  0  0  0  0  0  0
  -20.9048   -1.9344  -21.2750 H   0  0  0  0  0  0  0  0  0  0  0  0
  -20.3249   -0.5624  -19.3099 H   0  0  0  0  0  0  0  0  0  0  0  0
  -18.7624    1.3491  -19.4763 H   0  0  0  0  0  0  0  0  0  0  0  0
  -17.7651    1.8927  -21.6667 H   0  0  0  0  0  0  0  0  0  0  0  0
  7  4  1  0
  8  3  1  0
  4  3  1  0
  4  5  2  0
  3  2  2  0
  5  6  1  0
  2  1  1  0
  6  1  2  0
  1  9  1  0
  9 13  2  0
  9 10  1  0
 13 12  1  0
 10 11  2  0
 12 11  1  0
 12 17  1  0
 11 14  1  0
 17 16  2  0
 14 15  2  0
 16 15  1  0
  2 18  1  0
  5 19  1  0
  6 20  1  0
  7 21  1  0
  8 22  1  0
 13 23  1  0
 14 24  1  0
 15 25  1  0
 16 26  1  0
 17 27  1  0
A    1
C2
A    2
C3
A    3
C4
A    4
C5
A    5
C6
A    6
C7
A    7
O8
A    8
O9
A    9
C10
A   10
N11
A   11
C12
A   12
N13
A   13
C14
A   14
C15
A   15
C16
A   16
C17
A   17
C18
M  END
