5J86_6GW_A_301
     RDKit          3D

 51 54  0  0  0  0  0  0  0  0999 V2000
  -33.3160   -7.5230   24.7270 C   0  0  0  0  0  0  0  0  0  0  0  0
  -32.7820  -12.3650   23.0140 C   0  0  0  0  0  0  0  0  0  0  0  0
  -31.5120  -12.0450   23.5220 C   0  0  0  0  0  0  0  0  0  0  0  0
  -33.9430  -11.9340   23.6860 C   0  0  0  0  0  0  0  0  0  0  0  0
  -32.5030  -10.0530   26.6170 C   0  0  0  0  0  0  0  0  0  0  0  0
  -32.8810   -8.3560   27.9790 C   0  0  0  0  0  0  0  0  0  0  0  0
  -33.9710   -8.1790   25.7790 C   0  0  0  0  0  0  0  0  0  0  0  0
  -35.4390   -6.8920   23.7630 C   0  0  0  0  0  0  0  0  0  0  0  0
  -36.1470   -8.8510   26.9160 C   0  0  0  0  0  0  0  0  0  0  0  0
  -35.3290  -12.3140   23.3230 C   0  0  0  0  0  0  0  0  0  0  0  0
  -37.2190  -13.9100   23.5240 C   0  0  0  0  0  0  0  0  0  0  0  0
  -34.9180  -14.5340   24.3340 C   0  0  0  0  0  0  0  0  0  0  0  0
  -39.0900  -15.1110   26.5350 C   0  0  0  0  0  0  0  0  0  0  0  0
  -38.5120  -15.2110   25.2780 C   0  0  0  0  0  0  0  0  0  0  0  0
  -31.4150  -11.3170   24.7110 C   0  0  0  0  0  0  0  0  0  0  0  0
  -32.5720  -10.9120   25.4060 C   0  0  0  0  0  0  0  0  0  0  0  0
  -33.8230  -11.2360   24.8900 C   0  0  0  0  0  0  0  0  0  0  0  0
  -31.8170  -10.2850   27.7080 N   0  0  0  0  0  0  0  0  0  0  0  0
  -33.1720   -8.8380   26.7560 N   0  0  0  0  0  0  0  0  0  0  0  0
  -30.2020  -11.0240   25.2310 O   0  0  0  0  0  0  0  0  0  0  0  0
  -32.8970  -13.0350   21.8490 O   0  0  0  0  0  0  0  0  0  0  0  0
  -32.0550   -9.2300   28.5860 N   0  0  0  0  0  0  0  0  0  0  0  0
  -33.3010   -7.3140   28.4450 O   0  0  0  0  0  0  0  0  0  0  0  0
  -35.3790   -8.1760   25.8120 C   0  0  0  0  0  0  0  0  0  0  0  0
  -36.1090   -7.5410   24.7990 C   0  0  0  0  0  0  0  0  0  0  0  0
  -35.8020  -13.5390   23.7020 N   0  0  0  0  0  0  0  0  0  0  0  0
  -36.0620  -11.4870   22.8190 O   0  0  0  0  0  0  0  0  0  0  0  0
  -37.9350  -14.0850   24.8410 C   0  0  0  0  0  0  0  0  0  0  0  0
  -34.0430   -6.8890   23.7220 C   0  0  0  0  0  0  0  0  0  0  0  0
  -38.1140  -12.8170   26.0430 S   0  0  0  0  0  0  0  0  0  0  0  0
  -38.9970  -13.9030   27.1130 C   0  0  0  0  0  0  0  0  0  0  0  0
  -32.2166   -7.5089   24.6950 H   0  0  0  0  0  0  0  0  0  0  0  0
  -30.6037  -12.3640   22.9897 H   0  0  0  0  0  0  0  0  0  0  0  0
  -36.0117   -6.3806   22.9753 H   0  0  0  0  0  0  0  0  0  0  0  0
  -35.7626   -8.5132   27.8897 H   0  0  0  0  0  0  0  0  0  0  0  0
  -37.2128   -8.5920   26.8327 H   0  0  0  0  0  0  0  0  0  0  0  0
  -36.0270   -9.9413   26.8327 H   0  0  0  0  0  0  0  0  0  0  0  0
  -37.7226  -13.1182   22.9501 H   0  0  0  0  0  0  0  0  0  0  0  0
  -37.2506  -14.8729   22.9932 H   0  0  0  0  0  0  0  0  0  0  0  0
  -34.9935  -14.4491   25.4281 H   0  0  0  0  0  0  0  0  0  0  0  0
  -35.2217  -15.5444   24.0229 H   0  0  0  0  0  0  0  0  0  0  0  0
  -33.8788  -14.3514   24.0229 H   0  0  0  0  0  0  0  0  0  0  0  0
  -39.5890  -15.9610   27.0234 H   0  0  0  0  0  0  0  0  0  0  0  0
  -38.5266  -16.1396   24.6885 H   0  0  0  0  0  0  0  0  0  0  0  0
  -34.7295  -10.9385   25.4375 H   0  0  0  0  0  0  0  0  0  0  0  0
  -30.0784  -10.9941   26.2128 H   0  0  0  0  0  0  0  0  0  0  0  0
  -33.0645  -14.0107   21.8536 H   0  0  0  0  0  0  0  0  0  0  0  0
  -31.6666   -9.1347   29.5352 H   0  0  0  0  0  0  0  0  0  0  0  0
  -37.2087   -7.5544   24.8210 H   0  0  0  0  0  0  0  0  0  0  0  0
  -33.5178   -6.3862   22.8965 H   0  0  0  0  0  0  0  0  0  0  0  0
  -39.4068  -13.6340   28.0978 H   0  0  0  0  0  0  0  0  0  0  0  0
 21  2  1  0
 27 10  2  0
  2  3  2  0
  2  4  1  0
 10  4  1  0
 10 26  1  0
  3 15  1  0
 11 26  1  0
 11 28  1  0
  4 17  2  0
 26 12  1  0
 29  8  1  0
 29  1  2  0
  8 25  2  0
 15 20  1  0
 15 16  2  0
  1  7  1  0
 25 24  1  0
 28 14  2  0
 28 30  1  0
 17 16  1  0
 14 13  1  0
 16  5  1  0
  7 24  2  0
  7 19  1  0
 24  9  1  0
 30 31  1  0
 13 31  2  0
  5 19  1  0
  5 18  2  0
 19  6  1  0
 18 22  1  0
  6 23  2  0
  6 22  1  0
  1 32  1  0
  3 33  1  0
  8 34  1  0
  9 35  1  0
  9 36  1  0
  9 37  1  0
 11 38  1  0
 11 39  1  0
 12 40  1  0
 12 41  1  0
 12 42  1  0
 13 43  1  0
 14 44  1  0
 17 45  1  0
 20 46  1  0
 21 47  1  0
 22 48  1  0
 25 49  1  0
 29 50  1  0
 31 51  1  0
A    1
C1
A    2
C2
A    3
C3
A    4
C7
A    5
C8
A    6
C14
A    7
C16
A    8
C19
A    9
C20
A   10
C21
A   11
C24
A   12
C27
A   13
C30
A   14
C31
A   15
C4
A   16
C5
A   17
C6
A   18
N9
A   19
N10
A   20
O11
A   21
O12
A   22
N13
A   23
O15
A   24
C17
A   25
C18
A   26
N22
A   27
O23
A   28
C25
A   29
C26
A   30
S28
A   31
C29
M  END
