5IZQ_83A_A_300
     RDKit          3D

 54 56  0  0  0  0  0  0  0  0999 V2000
   -3.9860   22.2440   -7.0780 C   0  0  0  0  0  0  0  0  0  0  0  0
   -3.2000   21.5680   -9.1750 N   0  0  0  0  0  0  0  0  0  0  0  0
   -5.3810   21.6520   -8.7680 O   0  0  0  0  0  0  0  0  0  0  0  0
   -4.2370   21.8080   -8.3610 C   0  0  0  0  0  0  0  0  0  0  0  0
   -1.6650   22.1510   -7.5350 N   0  0  0  0  0  0  0  0  0  0  0  0
  -10.4360   21.0540    2.1540 O   0  0  0  0  0  0  0  0  0  0  0  0
   -1.9330   21.7330   -8.7710 C   0  0  0  0  0  0  0  0  0  0  0  0
   -0.8660   21.4550   -9.6520 N   0  0  0  0  0  0  0  0  0  0  0  0
  -10.0590   16.9320    2.1800 O   0  0  0  0  0  0  0  0  0  0  0  0
   -2.6530   22.4080   -6.6730 C   0  0  0  0  0  0  0  0  0  0  0  0
   -2.6540   22.8280   -5.3930 N   0  0  0  0  0  0  0  0  0  0  0  0
  -12.1120   16.2550    1.9400 O   0  0  0  0  0  0  0  0  0  0  0  0
   -3.8840   22.9770   -4.8930 C   0  0  0  0  0  0  0  0  0  0  0  0
   -5.4570   22.1560   -1.7670 N   0  0  0  0  0  0  0  0  0  0  0  0
  -13.6280   19.1600   -2.7120 O   0  0  0  0  0  0  0  0  0  0  0  0
   -4.6670   22.6050   -5.9510 C   0  0  0  0  0  0  0  0  0  0  0  0
  -10.4820   19.1680    0.7970 N   0  0  0  0  0  0  0  0  0  0  0  0
  -14.1240   20.8920   -1.4490 O   0  0  0  0  0  0  0  0  0  0  0  0
   -4.3220   23.4270   -3.5280 C   0  0  0  0  0  0  0  0  0  0  0  0
   -5.5560   22.6070   -3.1710 C   0  0  0  0  0  0  0  0  0  0  0  0
   -6.6080   21.7510   -1.0160 C   0  0  0  0  0  0  0  0  0  0  0  0
   -6.9410   20.4100   -1.0230 C   0  0  0  0  0  0  0  0  0  0  0  0
   -8.0290   19.9950   -0.2800 C   0  0  0  0  0  0  0  0  0  0  0  0
   -8.7640   20.9250    0.4600 C   0  0  0  0  0  0  0  0  0  0  0  0
   -8.4340   22.2800    0.4540 C   0  0  0  0  0  0  0  0  0  0  0  0
   -7.3440   22.6850   -0.2960 C   0  0  0  0  0  0  0  0  0  0  0  0
   -9.9680   20.4070    1.2430 C   0  0  0  0  0  0  0  0  0  0  0  0
  -11.6220   18.5450    1.3530 C   0  0  0  0  0  0  0  0  0  0  0  0
  -11.2510   17.1680    1.8570 C   0  0  0  0  0  0  0  0  0  0  0  0
  -12.6190   18.4370    0.2180 C   0  0  0  0  0  0  0  0  0  0  0  0
  -12.2630   19.5180   -0.7840 C   0  0  0  0  0  0  0  0  0  0  0  0
  -13.4110   19.8820   -1.7050 C   0  0  0  0  0  0  0  0  0  0  0  0
   -3.3816   21.2481  -10.1371 H   0  0  0  0  0  0  0  0  0  0  0  0
    0.0622   21.2132   -9.2766 H   0  0  0  0  0  0  0  0  0  0  0  0
   -1.0155   21.4939  -10.6704 H   0  0  0  0  0  0  0  0  0  0  0  0
   -1.7955   23.0149   -4.8555 H   0  0  0  0  0  0  0  0  0  0  0  0
  -12.4121   15.9368    2.8282 H   0  0  0  0  0  0  0  0  0  0  0  0
   -4.5320   22.1321   -1.3145 H   0  0  0  0  0  0  0  0  0  0  0  0
  -13.9109   18.2186   -2.5944 H   0  0  0  0  0  0  0  0  0  0  0  0
   -5.7657   22.5972   -5.8978 H   0  0  0  0  0  0  0  0  0  0  0  0
   -9.9979   18.6921    0.0224 H   0  0  0  0  0  0  0  0  0  0  0  0
   -3.5221   23.2469   -2.7947 H   0  0  0  0  0  0  0  0  0  0  0  0
   -4.5468   24.5038   -3.5198 H   0  0  0  0  0  0  0  0  0  0  0  0
   -6.4566   23.2264   -3.2948 H   0  0  0  0  0  0  0  0  0  0  0  0
   -5.6198   21.7317   -3.8342 H   0  0  0  0  0  0  0  0  0  0  0  0
   -6.3521   19.6881   -1.6079 H   0  0  0  0  0  0  0  0  0  0  0  0
   -8.3166   18.9333   -0.2708 H   0  0  0  0  0  0  0  0  0  0  0  0
   -9.0246   23.0075    1.0302 H   0  0  0  0  0  0  0  0  0  0  0  0
   -7.0595   23.7473   -0.3225 H   0  0  0  0  0  0  0  0  0  0  0  0
  -12.0344   19.1114    2.2010 H   0  0  0  0  0  0  0  0  0  0  0  0
  -13.6405   18.5924    0.5955 H   0  0  0  0  0  0  0  0  0  0  0  0
  -12.5807   17.4407   -0.2468 H   0  0  0  0  0  0  0  0  0  0  0  0
  -11.4221   19.1624   -1.3976 H   0  0  0  0  0  0  0  0  0  0  0  0
  -12.0049   20.4212   -0.2117 H   0  0  0  0  0  0  0  0  0  0  0  0
  8  7  1  0
  2  7  1  0
  2  4  1  0
  7  5  2  0
  3  4  2  0
  4  1  1  0
  5 10  1  0
  1 10  2  0
  1 16  1  0
 10 11  1  0
 16 13  2  0
 11 13  1  0
 13 19  1  0
 19 20  1  0
 20 14  1  0
 18 32  2  0
 14 21  1  0
 32 15  1  0
 32 31  1  0
 21 22  2  0
 21 26  1  0
 22 23  1  0
 31 30  1  0
 26 25  2  0
 23 24  2  0
 25 24  1  0
 30 28  1  0
 24 27  1  0
 17 27  1  0
 17 28  1  0
 27  6  2  0
 28 29  1  0
 29  9  2  0
 29 12  1  0
  2 33  1  0
  8 34  1  0
  8 35  1  0
 11 36  1  0
 12 37  1  0
 14 38  1  0
 15 39  1  0
 16 40  1  0
 17 41  1  0
 19 42  1  0
 19 43  1  0
 20 44  1  0
 20 45  1  0
 22 46  1  0
 23 47  1  0
 25 48  1  0
 26 49  1  0
 28 50  1  0
 30 51  1  0
 30 52  1  0
 31 53  1  0
 31 54  1  0
A    1
C1
A    2
N1
A    3
O1
A    4
C2
A    5
N2
A    6
O2
A    7
C3
A    8
N3
A    9
O3
A   10
C4
A   11
N4
A   12
O4
A   13
C5
A   14
N5
A   15
O5
A   16
C6
A   17
N6
A   18
O6
A   19
C7
A   20
C8
A   21
C9
A   22
C10
A   23
C11
A   24
C12
A   25
C13
A   26
C14
A   27
C15
A   28
C16
A   29
C17
A   30
C18
A   31
C19
A   32
C20
M  END
