5HF0_U06_X_202
     RDKit          3D

 52 54  0  0  0  0  0  0  0  0999 V2000
   35.0010   40.0530  112.0910 C   0  0  0  0  0  0  0  0  0  0  0  0
   34.6050   39.1830  113.0980 C   0  0  0  0  0  0  0  0  0  0  0  0
   33.3520   39.3620  113.6460 C   0  0  0  0  0  0  0  0  0  0  0  0
   32.5490   40.3320  113.2080 N   0  0  0  0  0  0  0  0  0  0  0  0
   34.1540   41.0120  111.6890 N   0  0  0  0  0  0  0  0  0  0  0  0
   32.3340   37.2930  113.9260 C   0  0  0  0  0  0  0  0  0  0  0  0
   32.9300   38.5040  114.6380 C   0  0  0  0  0  0  0  0  0  0  0  0
   32.9390   41.1600  112.2450 C   0  0  0  0  0  0  0  0  0  0  0  0
   32.1120   42.1210  111.8470 N   0  0  0  0  0  0  0  0  0  0  0  0
   36.2260   39.9010  111.5590 N   0  0  0  0  0  0  0  0  0  0  0  0
   35.4350   38.0780  113.6330 C   0  0  0  0  0  0  0  0  0  0  0  0
   36.1040   37.0970  114.1500 C   0  0  0  0  0  0  0  0  0  0  0  0
   36.8470   35.9900  114.7450 C   0  0  0  0  0  0  0  0  0  0  0  0
   35.9560   35.0220  115.1570 C   0  0  0  0  0  0  0  0  0  0  0  0
   34.8630   34.6880  114.3610 C   0  0  0  0  0  0  0  0  0  0  0  0
   36.1610   34.3670  116.3600 C   0  0  0  0  0  0  0  0  0  0  0  0
   37.2530   34.7500  117.0760 O   0  0  0  0  0  0  0  0  0  0  0  0
   37.2550   34.0780  118.3440 C   0  0  0  0  0  0  0  0  0  0  0  0
   35.2840   33.3820  116.7950 C   0  0  0  0  0  0  0  0  0  0  0  0
   34.1890   33.0500  116.0080 C   0  0  0  0  0  0  0  0  0  0  0  0
   33.9840   33.6960  114.7950 C   0  0  0  0  0  0  0  0  0  0  0  0
   32.8850   33.3280  114.0330 C   0  0  0  0  0  0  0  0  0  0  0  0
   32.1080   32.2670  114.4740 C   0  0  0  0  0  0  0  0  0  0  0  0
   31.0020   31.8670  113.7360 C   0  0  0  0  0  0  0  0  0  0  0  0
   30.6760   32.5270  112.5580 C   0  0  0  0  0  0  0  0  0  0  0  0
   29.5610   32.1070  111.8460 C   0  0  0  0  0  0  0  0  0  0  0  0
   29.2650   32.6550  110.7610 O   0  0  0  0  0  0  0  0  0  0  0  0
   28.8460   31.1880  112.3060 O   0  0  0  0  0  0  0  0  0  0  0  0
   31.4540   33.5940  112.1090 C   0  0  0  0  0  0  0  0  0  0  0  0
   32.5680   33.9910  112.8470 C   0  0  0  0  0  0  0  0  0  0  0  0
   31.9771   36.5679  114.6722 H   0  0  0  0  0  0  0  0  0  0  0  0
   31.4918   37.6157  113.2963 H   0  0  0  0  0  0  0  0  0  0  0  0
   33.1035   36.8225  113.2963 H   0  0  0  0  0  0  0  0  0  0  0  0
   33.7804   38.1978  115.2649 H   0  0  0  0  0  0  0  0  0  0  0  0
   32.1929   38.9848  115.2979 H   0  0  0  0  0  0  0  0  0  0  0  0
   31.6172   42.6959  112.5438 H   0  0  0  0  0  0  0  0  0  0  0  0
   31.9658   42.2909  110.8417 H   0  0  0  0  0  0  0  0  0  0  0  0
   37.0457   39.7993  112.1743 H   0  0  0  0  0  0  0  0  0  0  0  0
   36.3450   39.8862  110.5360 H   0  0  0  0  0  0  0  0  0  0  0  0
   37.5351   35.5647  113.9996 H   0  0  0  0  0  0  0  0  0  0  0  0
   37.4273   36.3521  115.6065 H   0  0  0  0  0  0  0  0  0  0  0  0
   34.6952   35.2002  113.4021 H   0  0  0  0  0  0  0  0  0  0  0  0
   37.2528   34.8227  119.1536 H   0  0  0  0  0  0  0  0  0  0  0  0
   36.3587   33.4455  118.4252 H   0  0  0  0  0  0  0  0  0  0  0  0
   38.1550   33.4508  118.4252 H   0  0  0  0  0  0  0  0  0  0  0  0
   35.4550   32.8699  117.7534 H   0  0  0  0  0  0  0  0  0  0  0  0
   33.4840   32.2757  116.3449 H   0  0  0  0  0  0  0  0  0  0  0  0
   32.3674   31.7437  115.4062 H   0  0  0  0  0  0  0  0  0  0  0  0
   30.3834   31.0268  114.0845 H   0  0  0  0  0  0  0  0  0  0  0  0
   28.7567   31.0733  113.2853 H   0  0  0  0  0  0  0  0  0  0  0  0
   31.1903   34.1187  111.1788 H   0  0  0  0  0  0  0  0  0  0  0  0
   33.1948   34.8239  112.4956 H   0  0  0  0  0  0  0  0  0  0  0  0
 27 26  2  0
 10  1  1  0
  5  1  2  0
  5  8  1  0
 26 28  1  0
 26 25  1  0
  9  8  1  0
  1  2  1  0
 29 25  2  0
 29 30  1  0
  8  4  2  0
 25 24  1  0
 30 22  2  0
  2 11  1  0
  2  3  2  0
  4  3  1  0
 11 12  3  0
  3  7  1  0
 24 23  2  0
  6  7  1  0
 22 23  1  0
 22 21  1  0
 12 13  1  0
 15 21  2  0
 15 14  1  0
 13 14  1  0
 21 20  1  0
 14 16  2  0
 20 19  2  0
 16 19  1  0
 16 17  1  0
 17 18  1  0
  6 31  1  0
  6 32  1  0
  6 33  1  0
  7 34  1  0
  7 35  1  0
  9 36  1  0
  9 37  1  0
 10 38  1  0
 10 39  1  0
 13 40  1  0
 13 41  1  0
 15 42  1  0
 18 43  1  0
 18 44  1  0
 18 45  1  0
 19 46  1  0
 20 47  1  0
 23 48  1  0
 24 49  1  0
 28 50  1  0
 29 51  1  0
 30 52  1  0
A    1
C4
A    2
C5
A    3
C6
A    4
N1
A    5
N3
A    6
CAA
A    7
CAB
A    8
C2
A    9
NAF
A   10
NAI
A   11
CAK
A   12
CAL
A   13
CAM
A   14
CAN
A   15
CAU
A   16
CAO
A   17
OAP
A   18
CAQ
A   19
CAR
A   20
CAS
A   21
CAT
A   22
CAV
A   23
CAW
A   24
CAX
A   25
CAY
A   26
CBB
A   27
OBD
A   28
OBC
A   29
CAZ
A   30
CBA
M  END
