5JAH_6HQ_A_502
     RDKit          3D

 20 20  0  0  0  0  0  0  0  0999 V2000
   29.1050    1.4580   -2.0820 C   0  0  0  0  0  0  0  0  0  0  0  0
   28.0860    3.6950   -1.8650 C   0  0  0  0  0  0  0  0  0  0  0  0
   25.8430    3.2340   -1.8460 C   0  0  0  0  0  0  0  0  0  0  0  0
   26.5740    1.8980   -2.0410 C   0  0  0  0  0  0  0  0  0  0  0  0
   26.2790    0.9620   -0.8830 C   0  0  0  0  0  0  0  0  0  0  0  0
   27.9630    2.3550   -2.0230 N   0  0  0  0  0  0  0  0  0  0  0  0
   29.1140    4.3440   -1.8470 O   0  0  0  0  0  0  0  0  0  0  0  0
   26.7980    4.1970   -1.7290 N   0  0  0  0  0  0  0  0  0  0  0  0
   24.6460    3.4040   -1.8020 O   0  0  0  0  0  0  0  0  0  0  0  0
   26.1890    1.2770   -3.3850 C   0  0  0  0  0  0  0  0  0  0  0  0
   29.4262    1.2057   -1.0606 H   0  0  0  0  0  0  0  0  0  0  0  0
   28.8218    0.5384   -2.6150 H   0  0  0  0  0  0  0  0  0  0  0  0
   29.9313    1.9510   -2.6150 H   0  0  0  0  0  0  0  0  0  0  0  0
   26.4456    1.4905    0.0672 H   0  0  0  0  0  0  0  0  0  0  0  0
   25.2322    0.6286   -0.9385 H   0  0  0  0  0  0  0  0  0  0  0  0
   26.9454    0.0886   -0.9385 H   0  0  0  0  0  0  0  0  0  0  0  0
   26.5881    5.1908   -1.5580 H   0  0  0  0  0  0  0  0  0  0  0  0
   25.6166    0.3538   -3.2118 H   0  0  0  0  0  0  0  0  0  0  0  0
   25.5734    1.9886   -3.9548 H   0  0  0  0  0  0  0  0  0  0  0  0
   27.1001    1.0421   -3.9548 H   0  0  0  0  0  0  0  0  0  0  0  0
 10  4  1  0
  1  6  1  0
  4  6  1  0
  4  3  1  0
  4  5  1  0
  6  2  1  0
  2  7  2  0
  2  8  1  0
  3  9  2  0
  3  8  1  0
  1 11  1  0
  1 12  1  0
  1 13  1  0
  5 14  1  0
  5 15  1  0
  5 16  1  0
  8 17  1  0
 10 18  1  0
 10 19  1  0
 10 20  1  0
A    1
C1
A    2
C3
A    3
C6
A    4
C8
A    5
C10
A    6
N2
A    7
O4
A    8
N5
A    9
O7
A   10
C9
M  END
