5JAP_6HZ_A_504
     RDKit          3D

 40 42  0  0  0  0  0  0  0  0999 V2000
   14.8530   10.1020   -4.1450 C   0  0  0  0  0  0  0  0  0  0  0  0
   15.5800   10.4370   -5.4210 C   0  0  0  0  0  0  0  0  0  0  0  0
   15.4460   11.7210   -5.9420 C   0  0  0  0  0  0  0  0  0  0  0  0
   16.8730   11.1740   -7.7680 C   0  0  0  0  0  0  0  0  0  0  0  0
   17.0300    9.8960   -7.2730 C   0  0  0  0  0  0  0  0  0  0  0  0
   16.3850    9.5020   -6.1010 C   0  0  0  0  0  0  0  0  0  0  0  0
   16.6260    8.1050   -5.6300 C   0  0  0  0  0  0  0  0  0  0  0  0
   18.1460    6.5870   -4.5060 C   0  0  0  0  0  0  0  0  0  0  0  0
   17.2500    5.5480   -4.7130 C   0  0  0  0  0  0  0  0  0  0  0  0
   16.0640    5.7700   -5.3870 C   0  0  0  0  0  0  0  0  0  0  0  0
   15.7370    7.0380   -5.8610 C   0  0  0  0  0  0  0  0  0  0  0  0
   14.4300    7.2360   -6.5850 C   0  0  0  0  0  0  0  0  0  0  0  0
   19.4270    6.3390   -3.7680 C   0  0  0  0  0  0  0  0  0  0  0  0
   22.3030    7.3510   -5.7080 C   0  0  0  0  0  0  0  0  0  0  0  0
   21.8350    6.6740   -3.5460 C   0  0  0  0  0  0  0  0  0  0  0  0
   16.0860   12.0810   -7.1070 C   0  0  0  0  0  0  0  0  0  0  0  0
   17.8170    7.8570   -4.9590 C   0  0  0  0  0  0  0  0  0  0  0  0
   19.3820    5.8280   -2.6520 O   0  0  0  0  0  0  0  0  0  0  0  0
   20.5960    6.6770   -4.3330 N   0  0  0  0  0  0  0  0  0  0  0  0
   20.8200    7.2230   -5.6780 C   0  0  0  0  0  0  0  0  0  0  0  0
   22.8500    7.0270   -4.5770 C   0  0  0  0  0  0  0  0  0  0  0  0
   15.4739   10.3881   -3.2833 H   0  0  0  0  0  0  0  0  0  0  0  0
   13.9012   10.6523   -4.1100 H   0  0  0  0  0  0  0  0  0  0  0  0
   14.6530    9.0209   -4.1100 H   0  0  0  0  0  0  0  0  0  0  0  0
   14.8207   12.4576   -5.4162 H   0  0  0  0  0  0  0  0  0  0  0  0
   17.3821   11.4668   -8.6981 H   0  0  0  0  0  0  0  0  0  0  0  0
   17.6708    9.1800   -7.8085 H   0  0  0  0  0  0  0  0  0  0  0  0
   17.4852    4.5409   -4.3382 H   0  0  0  0  0  0  0  0  0  0  0  0
   15.3687    4.9336   -5.5513 H   0  0  0  0  0  0  0  0  0  0  0  0
   13.6195    7.3588   -5.8515 H   0  0  0  0  0  0  0  0  0  0  0  0
   14.4928    8.1349   -7.2159 H   0  0  0  0  0  0  0  0  0  0  0  0
   14.2238    6.3588   -7.2159 H   0  0  0  0  0  0  0  0  0  0  0  0
   22.8709    7.6829   -6.5897 H   0  0  0  0  0  0  0  0  0  0  0  0
   22.0321    5.6824   -3.1126 H   0  0  0  0  0  0  0  0  0  0  0  0
   21.8178    7.3578   -2.6845 H   0  0  0  0  0  0  0  0  0  0  0  0
   15.9654   13.0982   -7.5079 H   0  0  0  0  0  0  0  0  0  0  0  0
   18.5163    8.6875   -4.7824 H   0  0  0  0  0  0  0  0  0  0  0  0
   20.3305    8.2004   -5.8007 H   0  0  0  0  0  0  0  0  0  0  0  0
   20.4088    6.6011   -6.4868 H   0  0  0  0  0  0  0  0  0  0  0  0
   23.9357    7.0145   -4.4004 H   0  0  0  0  0  0  0  0  0  0  0  0
  4  5  2  0
  4 16  1  0
  5  6  1  0
 16  3  2  0
 12 11  1  0
  6  7  1  0
  6  2  2  0
  3  2  1  0
 11  7  2  0
 11 10  1  0
 14 20  1  0
 14 21  2  0
 20 19  1  0
  7 17  1  0
  2  1  1  0
 10  9  2  0
 17  8  2  0
  9  8  1  0
 21 15  1  0
  8 13  1  0
 19 13  1  0
 19 15  1  0
 13 18  2  0
  1 22  1  0
  1 23  1  0
  1 24  1  0
  3 25  1  0
  4 26  1  0
  5 27  1  0
  9 28  1  0
 10 29  1  0
 12 30  1  0
 12 31  1  0
 12 32  1  0
 14 33  1  0
 15 34  1  0
 15 35  1  0
 16 36  1  0
 17 37  1  0
 20 38  1  0
 20 39  1  0
 21 40  1  0
A    1
C1
A    2
C2
A    3
C3
A    4
C5
A    5
C6
A    6
C7
A    7
C8
A    8
C10
A    9
C11
A   10
C12
A   11
C13
A   12
C14
A   13
C15
A   14
C19
A   15
C21
A   16
C4
A   17
C9
A   18
O16
A   19
N17
A   20
C18
A   21
C20
M  END
