5JAT_6HR_A_503
     RDKit          3D

 46 48  0  0  0  0  0  0  0  0999 V2000
   14.4640   10.5170   -4.4650 C   0  0  0  0  0  0  0  0  0  0  0  0
   15.2020   10.8350   -5.7380 C   0  0  0  0  0  0  0  0  0  0  0  0
   15.1910   12.1380   -6.2270 C   0  0  0  0  0  0  0  0  0  0  0  0
   16.5480   11.4900   -8.0830 C   0  0  0  0  0  0  0  0  0  0  0  0
   16.5820   10.1930   -7.6130 C   0  0  0  0  0  0  0  0  0  0  0  0
   15.9040    9.8460   -6.4480 C   0  0  0  0  0  0  0  0  0  0  0  0
   16.0030    8.4270   -5.9900 C   0  0  0  0  0  0  0  0  0  0  0  0
   17.4190    6.7530   -4.9610 C   0  0  0  0  0  0  0  0  0  0  0  0
   19.9110    6.7620   -4.7680 C   0  0  0  0  0  0  0  0  0  0  0  0
   22.1290    7.0090   -4.6050 C   0  0  0  0  0  0  0  0  0  0  0  0
   23.4160    6.9150   -3.8540 C   0  0  0  0  0  0  0  0  0  0  0  0
   23.4760    7.9750   -2.7690 C   0  0  0  0  0  0  0  0  0  0  0  0
   21.9160    7.4880   -5.8510 C   0  0  0  0  0  0  0  0  0  0  0  0
   16.3930    5.8220   -5.0870 C   0  0  0  0  0  0  0  0  0  0  0  0
   15.1860    6.1800   -5.6630 C   0  0  0  0  0  0  0  0  0  0  0  0
   14.9710    7.4770   -6.1250 C   0  0  0  0  0  0  0  0  0  0  0  0
   13.6430    7.8250   -6.7510 C   0  0  0  0  0  0  0  0  0  0  0  0
   15.8560   12.4580   -7.3920 C   0  0  0  0  0  0  0  0  0  0  0  0
   17.2070    8.0490   -5.4070 C   0  0  0  0  0  0  0  0  0  0  0  0
   18.6540    6.4300   -4.3650 N   0  0  0  0  0  0  0  0  0  0  0  0
   20.9540    6.6010   -3.9960 N   0  0  0  0  0  0  0  0  0  0  0  0
   24.6560    7.8510   -1.8390 C   0  0  0  0  0  0  0  0  0  0  0  0
   24.6340    6.6150   -1.1460 O   0  0  0  0  0  0  0  0  0  0  0  0
   20.2650    7.4400   -6.3210 S   0  0  0  0  0  0  0  0  0  0  0  0
   15.0896   10.7866   -3.6013 H   0  0  0  0  0  0  0  0  0  0  0  0
   13.5261   11.0909   -4.4317 H   0  0  0  0  0  0  0  0  0  0  0  0
   14.2370    9.4412   -4.4317 H   0  0  0  0  0  0  0  0  0  0  0  0
   14.6463   12.9206   -5.6786 H   0  0  0  0  0  0  0  0  0  0  0  0
   17.0754   11.7507   -9.0124 H   0  0  0  0  0  0  0  0  0  0  0  0
   17.1491    9.4277   -8.1631 H   0  0  0  0  0  0  0  0  0  0  0  0
   23.4941    5.9195   -3.3925 H   0  0  0  0  0  0  0  0  0  0  0  0
   24.2493    7.0744   -4.5541 H   0  0  0  0  0  0  0  0  0  0  0  0
   23.5230    8.9611   -3.2542 H   0  0  0  0  0  0  0  0  0  0  0  0
   22.5754    7.8422   -2.1515 H   0  0  0  0  0  0  0  0  0  0  0  0
   22.7191    7.8699   -6.4984 H   0  0  0  0  0  0  0  0  0  0  0  0
   16.5419    4.7936   -4.7262 H   0  0  0  0  0  0  0  0  0  0  0  0
   14.3862    5.4307   -5.7572 H   0  0  0  0  0  0  0  0  0  0  0  0
   12.9041    8.0186   -5.9595 H   0  0  0  0  0  0  0  0  0  0  0  0
   13.7561    8.7238   -7.3749 H   0  0  0  0  0  0  0  0  0  0  0  0
   13.3007    6.9862   -7.3749 H   0  0  0  0  0  0  0  0  0  0  0  0
   15.8331   13.4907   -7.7702 H   0  0  0  0  0  0  0  0  0  0  0  0
   18.0089    8.7939   -5.2970 H   0  0  0  0  0  0  0  0  0  0  0  0
   18.5980    5.8647   -3.5058 H   0  0  0  0  0  0  0  0  0  0  0  0
   25.5840    7.9169   -2.4259 H   0  0  0  0  0  0  0  0  0  0  0  0
   24.6054    8.6653   -1.1012 H   0  0  0  0  0  0  0  0  0  0  0  0
   24.6370    6.7835   -0.1705 H   0  0  0  0  0  0  0  0  0  0  0  0
  1  2  1  0
  2  3  2  0
  2  6  1  0
  3 18  1  0
  4  5  1  0
  4 18  2  0
  5  6  2  0
  6  7  1  0
  7 16  1  0
  7 19  2  0
  8 14  2  0
  8 19  1  0
  8 20  1  0
  9 20  1  0
  9 21  2  0
  9 24  1  0
 10 11  1  0
 10 13  2  0
 10 21  1  0
 11 12  1  0
 12 22  1  0
 13 24  1  0
 14 15  1  0
 15 16  2  0
 16 17  1  0
 22 23  1  0
  1 25  1  0
  1 26  1  0
  1 27  1  0
  3 28  1  0
  4 29  1  0
  5 30  1  0
 11 31  1  0
 11 32  1  0
 12 33  1  0
 12 34  1  0
 13 35  1  0
 14 36  1  0
 15 37  1  0
 17 38  1  0
 17 39  1  0
 17 40  1  0
 18 41  1  0
 19 42  1  0
 20 43  1  0
 22 44  1  0
 22 45  1  0
 23 46  1  0
A    1
C1
A    2
C2
A    3
C3
A    4
C5
A    5
C6
A    6
C7
A    7
C8
A    8
C10
A    9
C12
A   10
C14
A   11
C15
A   12
C16
A   13
C19
A   14
C21
A   15
C22
A   16
C23
A   17
C24
A   18
C4
A   19
C9
A   20
N11
A   21
N13
A   22
C17
A   23
O18
A   24
S20
M  END
