5JAU_6HU_A_504
     RDKit          3D

 60 62  0  0  0  0  0  0  0  0999 V2000
   23.4390    9.8720   -2.4060 C   0  0  0  0  0  0  0  0  0  0  0  0
   23.7100    7.5220   -2.8110 C   0  0  0  0  0  0  0  0  0  0  0  0
   23.4910    6.5980   -4.0130 C   0  0  0  0  0  0  0  0  0  0  0  0
   21.7960    7.1980   -5.7740 C   0  0  0  0  0  0  0  0  0  0  0  0
   20.0410    6.4750   -4.7020 C   0  0  0  0  0  0  0  0  0  0  0  0
   17.5250    6.5350   -4.9010 C   0  0  0  0  0  0  0  0  0  0  0  0
   17.3190    7.8140   -5.3940 C   0  0  0  0  0  0  0  0  0  0  0  0
   16.1090    8.1930   -5.9760 C   0  0  0  0  0  0  0  0  0  0  0  0
   15.0450    7.2740   -6.0350 C   0  0  0  0  0  0  0  0  0  0  0  0
   13.7130    7.6220   -6.6500 C   0  0  0  0  0  0  0  0  0  0  0  0
   16.4810    2.0210   -4.3440 C   0  0  0  0  0  0  0  0  0  0  0  0
   15.9900    9.6000   -6.4560 C   0  0  0  0  0  0  0  0  0  0  0  0
   16.6210    9.9700   -7.6390 C   0  0  0  0  0  0  0  0  0  0  0  0
   16.5480   11.2640   -8.0960 C   0  0  0  0  0  0  0  0  0  0  0  0
   15.8520   12.2080   -7.3870 C   0  0  0  0  0  0  0  0  0  0  0  0
   15.2190   11.8680   -6.2130 C   0  0  0  0  0  0  0  0  0  0  0  0
   15.2710   10.5660   -5.7280 C   0  0  0  0  0  0  0  0  0  0  0  0
   23.8190    8.8540   -3.3320 O   0  0  0  0  0  0  0  0  0  0  0  0
   24.9950    7.1930   -2.0360 C   0  0  0  0  0  0  0  0  0  0  0  0
   24.8260    6.0600   -1.1950 O   0  0  0  0  0  0  0  0  0  0  0  0
   22.1500    6.7000   -4.5780 N   0  0  0  0  0  0  0  0  0  0  0  0
   20.4490    7.0760   -5.8780 C   0  0  0  0  0  0  0  0  0  0  0  0
   18.7400    6.1560   -4.3070 N   0  0  0  0  0  0  0  0  0  0  0  0
   15.2440    5.9960   -5.5310 C   0  0  0  0  0  0  0  0  0  0  0  0
   16.4530    5.6220   -4.9610 C   0  0  0  0  0  0  0  0  0  0  0  0
   16.7170    4.3850   -4.4420 O   0  0  0  0  0  0  0  0  0  0  0  0
   15.8080    3.3180   -4.7350 C   0  0  0  0  0  0  0  0  0  0  0  0
   16.5570    1.8870   -2.8690 N   0  0  0  0  0  0  0  0  0  0  0  0
   14.5880   10.2390   -4.4240 C   0  0  0  0  0  0  0  0  0  0  0  0
   21.0710    6.2440   -3.8930 N   0  0  0  0  0  0  0  0  0  0  0  0
   23.5766    9.5033   -1.3788 H   0  0  0  0  0  0  0  0  0  0  0  0
   24.0652   10.7626   -2.5628 H   0  0  0  0  0  0  0  0  0  0  0  0
   22.3823   10.1345   -2.5628 H   0  0  0  0  0  0  0  0  0  0  0  0
   22.8713    7.4007   -2.1097 H   0  0  0  0  0  0  0  0  0  0  0  0
   23.6567    5.5594   -3.6906 H   0  0  0  0  0  0  0  0  0  0  0  0
   24.2003    6.9052   -4.7957 H   0  0  0  0  0  0  0  0  0  0  0  0
   22.4725    7.6253   -6.5288 H   0  0  0  0  0  0  0  0  0  0  0  0
   18.1326    8.5510   -5.3244 H   0  0  0  0  0  0  0  0  0  0  0  0
   12.9798    7.8135   -5.8526 H   0  0  0  0  0  0  0  0  0  0  0  0
   13.8208    8.5221   -7.2730 H   0  0  0  0  0  0  0  0  0  0  0  0
   13.3667    6.7842   -7.2730 H   0  0  0  0  0  0  0  0  0  0  0  0
   15.9039    1.1785   -4.7528 H   0  0  0  0  0  0  0  0  0  0  0  0
   17.5034    2.0197   -4.7498 H   0  0  0  0  0  0  0  0  0  0  0  0
   17.1837    9.2199   -8.2141 H   0  0  0  0  0  0  0  0  0  0  0  0
   17.0500   11.5430   -9.0342 H   0  0  0  0  0  0  0  0  0  0  0  0
   15.7990   13.2422   -7.7579 H   0  0  0  0  0  0  0  0  0  0  0  0
   14.6655   12.6354   -5.6519 H   0  0  0  0  0  0  0  0  0  0  0  0
   25.8017    6.9864   -2.7547 H   0  0  0  0  0  0  0  0  0  0  0  0
   25.2437    8.0567   -1.4019 H   0  0  0  0  0  0  0  0  0  0  0  0
   24.8682    6.3432   -0.2473 H   0  0  0  0  0  0  0  0  0  0  0  0
   19.8150    7.3893   -6.7206 H   0  0  0  0  0  0  0  0  0  0  0  0
   18.6609    5.5637   -3.4681 H   0  0  0  0  0  0  0  0  0  0  0  0
   14.4253    5.2633   -5.5845 H   0  0  0  0  0  0  0  0  0  0  0  0
   14.8801    3.4473   -4.1586 H   0  0  0  0  0  0  0  0  0  0  0  0
   15.5521    3.3123   -5.8048 H   0  0  0  0  0  0  0  0  0  0  0  0
   16.0981    2.6961   -2.4267 H   0  0  0  0  0  0  0  0  0  0  0  0
   16.0813    1.0210   -2.5780 H   0  0  0  0  0  0  0  0  0  0  0  0
   15.2308   10.5468   -3.5861 H   0  0  0  0  0  0  0  0  0  0  0  0
   13.6296   10.7759   -4.3673 H   0  0  0  0  0  0  0  0  0  0  0  0
   14.4053    9.1558   -4.3673 H   0  0  0  0  0  0  0  0  0  0  0  0
 14 13  2  0
 14 15  1  0
 13 12  1  0
 15 16  2  0
 10  9  1  0
 12  8  1  0
 12 17  2  0
 16 17  1  0
  9  8  1  0
  9 24  2  0
  8  7  2  0
 22  4  2  0
 22  5  1  0
  4 21  1  0
 17 29  1  0
 24 25  1  0
  7  6  1  0
 25  6  2  0
 25 26  1  0
  6 23  1  0
 27 26  1  0
 27 11  1  0
  5 23  1  0
  5 30  2  0
 21  3  1  0
 21 30  1  0
 11 28  1  0
  3  2  1  0
 18  2  1  0
 18  1  1  0
  2 19  1  0
 19 20  1  0
  1 31  1  0
  1 32  1  0
  1 33  1  0
  2 34  1  0
  3 35  1  0
  3 36  1  0
  4 37  1  0
  7 38  1  0
 10 39  1  0
 10 40  1  0
 10 41  1  0
 11 42  1  0
 11 43  1  0
 13 44  1  0
 14 45  1  0
 15 46  1  0
 16 47  1  0
 19 48  1  0
 19 49  1  0
 20 50  1  0
 22 51  1  0
 23 52  1  0
 24 53  1  0
 27 54  1  0
 27 55  1  0
 28 56  1  0
 28 57  1  0
 29 58  1  0
 29 59  1  0
 29 60  1  0
A    1
C1
A    2
C3
A    3
C6
A    4
C8
A    5
C10
A    6
C12
A    7
C13
A    8
C14
A    9
C15
A   10
C16
A   11
C21
A   12
C23
A   13
C24
A   14
C25
A   15
C26
A   16
C27
A   17
C28
A   18
O2
A   19
C4
A   20
O5
A   21
N7
A   22
C9
A   23
N11
A   24
C17
A   25
C18
A   26
O19
A   27
C20
A   28
N22
A   29
C29
A   30
N30
M  END
