5JAX_6J7_A_401
     RDKit          3D

 35 38  0  0  0  0  0  0  0  0999 V2000
   -6.0540   -4.6080  -10.9160 Br  0  0  0  0  0  0  0  0  0  0  0  0
   -6.2340   -5.6700  -12.5260 C   0  0  0  0  0  0  0  0  0  0  0  0
   -5.7130   -6.8890  -12.5750 N   0  0  0  0  0  0  0  0  0  0  0  0
   -6.0400   -7.2610  -13.8200 C   0  0  0  0  0  0  0  0  0  0  0  0
   -5.8010   -8.4560  -14.6210 C   0  0  0  0  0  0  0  0  0  0  0  0
   -5.1750   -9.4140  -14.1120 O   0  0  0  0  0  0  0  0  0  0  0  0
   -6.2770   -8.4870  -15.8600 N   0  0  0  0  0  0  0  0  0  0  0  0
   -6.9580   -7.4500  -16.4000 C   0  0  0  0  0  0  0  0  0  0  0  0
   -7.4010   -7.5810  -17.6610 N   0  0  0  0  0  0  0  0  0  0  0  0
   -7.2130   -6.2960  -15.7390 N   0  0  0  0  0  0  0  0  0  0  0  0
   -6.7910   -6.1560  -14.4710 C   0  0  0  0  0  0  0  0  0  0  0  0
   -6.8660   -5.1900  -13.5860 N   0  0  0  0  0  0  0  0  0  0  0  0
   -7.5260   -3.8710  -13.7170 C   0  0  0  0  0  0  0  0  0  0  0  0
   -7.0070   -3.0680  -14.9080 C   0  0  0  0  0  0  0  0  0  0  0  0
   -6.6410   -1.7660  -14.4240 O   0  0  0  0  0  0  0  0  0  0  0  0
   -8.9450   -4.0570  -13.8630 O   0  0  0  0  0  0  0  0  0  0  0  0
   -9.3330   -2.9990  -14.7560 C   0  0  0  0  0  0  0  0  0  0  0  0
  -10.7100   -3.1510  -15.3850 C   0  0  0  0  0  0  0  0  0  0  0  0
  -10.8480   -2.0430  -16.2810 O   0  0  0  0  0  0  0  0  0  0  0  0
   -8.2360   -2.9800  -15.8010 C   0  0  0  0  0  0  0  0  0  0  0  0
   -8.3330   -1.8550  -16.6840 O   0  0  0  0  0  0  0  0  0  0  0  0
   -9.7640   -1.8210  -17.4290 P   0  0  0  0  0  0  0  0  0  0  0  0
   -9.8290   -3.0130  -18.3440 O   0  0  0  0  0  0  0  0  0  0  0  0
   -9.9580   -0.4540  -18.0130 O   0  0  0  0  0  0  0  0  0  0  0  0
   -6.1224   -9.3305  -16.4305 H   0  0  0  0  0  0  0  0  0  0  0  0
   -8.3741   -7.8687  -17.8377 H   0  0  0  0  0  0  0  0  0  0  0  0
   -6.7677   -7.3937  -18.4514 H   0  0  0  0  0  0  0  0  0  0  0  0
   -7.2948   -3.3020  -12.8044 H   0  0  0  0  0  0  0  0  0  0  0  0
   -6.1356   -3.4960  -15.4253 H   0  0  0  0  0  0  0  0  0  0  0  0
   -6.6420   -1.7697  -13.4340 H   0  0  0  0  0  0  0  0  0  0  0  0
   -9.4350   -2.0538  -14.2026 H   0  0  0  0  0  0  0  0  0  0  0  0
  -11.4913   -3.1189  -14.6113 H   0  0  0  0  0  0  0  0  0  0  0  0
  -10.8148   -4.1130  -15.9080 H   0  0  0  0  0  0  0  0  0  0  0  0
   -8.2540   -3.7876  -16.5476 H   0  0  0  0  0  0  0  0  0  0  0  0
  -10.0518    0.2069  -17.2819 H   0  0  0  0  0  0  0  0  0  0  0  0
 23 22  2  0
 24 22  1  0
  9  8  1  0
 22 21  1  0
 22 19  1  0
 21 20  1  0
  8  7  1  0
  8 10  2  0
 19 18  1  0
  7  5  1  0
 20 14  1  0
 20 17  1  0
 10 11  1  0
 18 17  1  0
 14 15  1  0
 14 13  1  0
 17 16  1  0
  5  6  2  0
  5  4  1  0
 11  4  2  0
 11 12  1  0
 16 13  1  0
  4  3  1  0
 13 12  1  0
 12  2  1  0
  3  2  2  0
  2  1  1  0
  7 25  1  0
  9 26  1  0
  9 27  1  0
 13 28  1  0
 14 29  1  0
 15 30  1  0
 17 31  1  0
 18 32  1  0
 18 33  1  0
 20 34  1  0
 24 35  1  0
A    1
BR
A    2
C9
A    3
N4
A    4
C8
A    5
C7
A    6
O6
A    7
N3
A    8
C6
A    9
N2
A   10
N1
A   11
C5
A   12
N
A   13
C4
A   14
C2
A   15
O4
A   16
O5
A   17
C3
A   18
C
A   19
O1
A   20
C1
A   21
O3
A   22
P
A   23
O
A   24
O2
M  END
