5JCU_GVX_A_301
     RDKit          3D

 57 57  0  0  0  0  0  0  0  0999 V2000
   78.4250   25.6920   11.4590 O   0  0  0  0  0  0  0  0  0  0  0  0
   78.1880   26.8990   11.6970 C   0  0  0  0  0  0  0  0  0  0  0  0
   78.4890   27.7630   10.8060 O   0  0  0  0  0  0  0  0  0  0  0  0
   77.5710   27.2970   13.0330 C   0  0  0  0  0  0  0  0  0  0  0  0
   76.7970   26.2340   13.5790 N   0  0  0  0  0  0  0  0  0  0  0  0
   78.7040   27.5660   14.0040 C   0  0  0  0  0  0  0  0  0  0  0  0
   79.5560   28.8260   13.5990 C   0  0  0  0  0  0  0  0  0  0  0  0
   80.5700   29.2000   14.6780 C   0  0  0  0  0  0  0  0  0  0  0  0
   80.5730   28.6680   15.7860 O   0  0  0  0  0  0  0  0  0  0  0  0
   81.5360   30.2220   14.3560 N   0  0  0  0  0  0  0  0  0  0  0  0
   82.5320   30.6510   15.2530 C   0  0  0  0  0  0  0  0  0  0  0  0
   82.2150   32.1080   15.6500 C   0  0  0  0  0  0  0  0  0  0  0  0
   81.9240   32.9030   14.7960 O   0  0  0  0  0  0  0  0  0  0  0  0
   82.2920   32.4940   17.0180 N   0  0  0  0  0  0  0  0  0  0  0  0
   82.0020   33.8520   17.4140 C   0  0  0  0  0  0  0  0  0  0  0  0
   80.6580   33.9450   18.0890 C   0  0  0  0  0  0  0  0  0  0  0  0
   80.2970   35.0750   18.6090 O   0  0  0  0  0  0  0  0  0  0  0  0
   79.8640   32.9090   18.1550 O   0  0  0  0  0  0  0  0  0  0  0  0
   83.8130   30.6890   14.4900 C   0  0  0  0  0  0  0  0  0  0  0  0
   84.1620   29.1250   13.7560 S   0  0  0  0  0  0  0  0  0  0  0  0
   85.4000   28.3870   14.8020 C   0  0  0  0  0  0  0  0  0  0  0  0
   85.6150   29.0810   16.2860 S   0  0  0  0  0  0  0  0  0  0  0  0
   86.5540   27.7840   14.1100 N   0  0  0  0  0  0  0  0  0  0  0  0
   87.6960   27.3820   14.8610 C   0  0  0  0  0  0  0  0  0  0  0  0
   87.5990   25.8880   15.0100 C   0  0  0  0  0  0  0  0  0  0  0  0
   88.4880   25.4070   16.2060 C   0  0  0  0  0  0  0  0  0  0  0  0
   89.6570   24.7030   15.9500 C   0  0  0  0  0  0  0  0  0  0  0  0
   90.4340   24.2820   16.9990 C   0  0  0  0  0  0  0  0  0  0  0  0
   90.0350   24.5730   18.3170 C   0  0  0  0  0  0  0  0  0  0  0  0
   88.8680   25.2780   18.5660 C   0  0  0  0  0  0  0  0  0  0  0  0
   88.0870   25.7030   17.5220 C   0  0  0  0  0  0  0  0  0  0  0  0
   78.5500   25.0553   12.2067 H   0  0  0  0  0  0  0  0  0  0  0  0
   76.9274   28.1753   12.8769 H   0  0  0  0  0  0  0  0  0  0  0  0
   76.8296   26.2787   14.6075 H   0  0  0  0  0  0  0  0  0  0  0  0
   75.8209   26.3222   13.2622 H   0  0  0  0  0  0  0  0  0  0  0  0
   79.3641   26.6865   14.0288 H   0  0  0  0  0  0  0  0  0  0  0  0
   78.2597   27.7649   14.9904 H   0  0  0  0  0  0  0  0  0  0  0  0
   78.8777   29.6770   13.4384 H   0  0  0  0  0  0  0  0  0  0  0  0
   80.1104   28.5813   12.6810 H   0  0  0  0  0  0  0  0  0  0  0  0
   81.4947   30.6590   13.4242 H   0  0  0  0  0  0  0  0  0  0  0  0
   82.5856   29.9942   16.1338 H   0  0  0  0  0  0  0  0  0  0  0  0
   82.5566   31.7993   17.7309 H   0  0  0  0  0  0  0  0  0  0  0  0
   82.0007   34.4942   16.5209 H   0  0  0  0  0  0  0  0  0  0  0  0
   82.7738   34.1808   18.1255 H   0  0  0  0  0  0  0  0  0  0  0  0
   80.2638   35.1790   19.5930 H   0  0  0  0  0  0  0  0  0  0  0  0
   83.7368   31.4485   13.6979 H   0  0  0  0  0  0  0  0  0  0  0  0
   84.6272   30.9370   15.1869 H   0  0  0  0  0  0  0  0  0  0  0  0
   86.5346   27.6540   13.0884 H   0  0  0  0  0  0  0  0  0  0  0  0
   88.6182   27.6523   14.3258 H   0  0  0  0  0  0  0  0  0  0  0  0
   87.7256   27.8804   15.8412 H   0  0  0  0  0  0  0  0  0  0  0  0
   87.9448   25.4068   14.0832 H   0  0  0  0  0  0  0  0  0  0  0  0
   86.5522   25.6133   15.2066 H   0  0  0  0  0  0  0  0  0  0  0  0
   89.9575   24.4847   14.9146 H   0  0  0  0  0  0  0  0  0  0  0  0
   91.3617   23.7213   16.8117 H   0  0  0  0  0  0  0  0  0  0  0  0
   90.6569   24.2368   19.1597 H   0  0  0  0  0  0  0  0  0  0  0  0
   88.5681   25.4967   19.6015 H   0  0  0  0  0  0  0  0  0  0  0  0
   87.1613   26.2666   17.7104 H   0  0  0  0  0  0  0  0  0  0  0  0
 18 16  2  0
 15 16  1  0
 15 14  1  0
 16 17  1  0
 13 12  2  0
 14 12  1  0
 12 11  1  0
 19 11  1  0
 19 20  1  0
 11 10  1  0
 10  8  1  0
 29 28  2  0
 29 30  1  0
 28 27  1  0
 20 21  1  0
  8  7  1  0
  8  9  2  0
  7  6  1  0
 30 31  2  0
  3  2  2  0
 27 26  2  0
 23 21  1  0
 23 24  1  0
 21 22  2  0
 31 26  1  0
 26 25  1  0
  2  4  1  0
  2  1  1  0
  4  6  1  0
  4  5  1  0
 24 25  1  0
  1 32  1  0
  4 33  1  0
  5 34  1  0
  5 35  1  0
  6 36  1  0
  6 37  1  0
  7 38  1  0
  7 39  1  0
 10 40  1  0
 11 41  1  0
 14 42  1  0
 15 43  1  0
 15 44  1  0
 17 45  1  0
 19 46  1  0
 19 47  1  0
 23 48  1  0
 24 49  1  0
 24 50  1  0
 25 51  1  0
 25 52  1  0
 27 53  1  0
 28 54  1  0
 29 55  1  0
 30 56  1  0
 31 57  1  0
A    1
O01
A    2
C02
A    3
O03
A    4
C04
A    5
N05
A    6
C06
A    7
C07
A    8
C08
A    9
O09
A   10
N10
A   11
C11
A   12
C12
A   13
O13
A   14
N14
A   15
C15
A   16
C16
A   17
O17
A   18
O18
A   19
C19
A   20
S20
A   21
C21
A   22
S22
A   23
N23
A   24
C24
A   25
C25
A   26
C26
A   27
C27
A   28
C28
A   29
C29
A   30
C30
A   31
C31
M  END
