5JEB_6JS_A_1003
     RDKit          3D

 43 47  0  0  0  0  0  0  0  0999 V2000
  -13.0640  100.5400   21.7340 C   0  0  0  0  0  0  0  0  0  0  0  0
  -14.1340   99.8090   21.3990 C   0  0  0  0  0  0  0  0  0  0  0  0
  -14.5960   99.7960   20.1350 C   0  0  0  0  0  0  0  0  0  0  0  0
  -13.9810  100.5370   19.1950 N   0  0  0  0  0  0  0  0  0  0  0  0
  -12.4150  101.2890   20.8320 N   0  0  0  0  0  0  0  0  0  0  0  0
  -15.7670   97.8040   23.9340 C   0  0  0  0  0  0  0  0  0  0  0  0
  -16.8620   97.0570   23.7820 C   0  0  0  0  0  0  0  0  0  0  0  0
  -17.2940   97.1710   22.5260 C   0  0  0  0  0  0  0  0  0  0  0  0
  -16.4290   98.0290   21.8610 O   0  0  0  0  0  0  0  0  0  0  0  0
  -15.5030   98.3860   22.7680 C   0  0  0  0  0  0  0  0  0  0  0  0
  -14.4820   99.2200   22.5450 C   0  0  0  0  0  0  0  0  0  0  0  0
  -13.6400   99.6070   23.4990 N   0  0  0  0  0  0  0  0  0  0  0  0
  -12.8350  100.3580   23.0360 N   0  0  0  0  0  0  0  0  0  0  0  0
  -12.8610  101.3080   19.5130 C   0  0  0  0  0  0  0  0  0  0  0  0
  -15.6840   99.0310   19.8980 N   0  0  0  0  0  0  0  0  0  0  0  0
  -16.2630   98.9340   18.6830 C   0  0  0  0  0  0  0  0  0  0  0  0
  -15.5880   98.9640   17.4630 C   0  0  0  0  0  0  0  0  0  0  0  0
  -17.6470   98.7600   18.6760 C   0  0  0  0  0  0  0  0  0  0  0  0
  -18.2620   98.7250   19.8930 O   0  0  0  0  0  0  0  0  0  0  0  0
  -19.6720   98.4870   19.7830 C   0  0  0  0  0  0  0  0  0  0  0  0
  -18.3470   98.6410   17.4760 C   0  0  0  0  0  0  0  0  0  0  0  0
  -17.6620   98.6870   16.2660 C   0  0  0  0  0  0  0  0  0  0  0  0
  -16.2800   98.8500   16.2640 C   0  0  0  0  0  0  0  0  0  0  0  0
  -15.6080   98.9000   15.1190 C   0  0  0  0  0  0  0  0  0  0  0  0
  -16.1610   98.9140   13.9100 O   0  0  0  0  0  0  0  0  0  0  0  0
  -15.1130   98.9750   13.0280 C   0  0  0  0  0  0  0  0  0  0  0  0
  -13.9810   98.9970   13.7330 C   0  0  0  0  0  0  0  0  0  0  0  0
  -14.2840   98.9520   15.0280 C   0  0  0  0  0  0  0  0  0  0  0  0
  -15.1852   97.9182   24.8605 H   0  0  0  0  0  0  0  0  0  0  0  0
  -17.3323   96.4458   24.5664 H   0  0  0  0  0  0  0  0  0  0  0  0
  -18.1761   96.6750   22.0948 H   0  0  0  0  0  0  0  0  0  0  0  0
  -12.0721  100.8023   23.5665 H   0  0  0  0  0  0  0  0  0  0  0  0
  -12.3487  101.9097   18.7478 H   0  0  0  0  0  0  0  0  0  0  0  0
  -16.0899   98.4977   20.6801 H   0  0  0  0  0  0  0  0  0  0  0  0
  -14.4941   99.0794   17.4501 H   0  0  0  0  0  0  0  0  0  0  0  0
  -20.1109   98.4129   20.7889 H   0  0  0  0  0  0  0  0  0  0  0  0
  -20.1428   99.3184   19.2379 H   0  0  0  0  0  0  0  0  0  0  0  0
  -19.8438   97.5472   19.2379 H   0  0  0  0  0  0  0  0  0  0  0  0
  -19.4392   98.5109   17.4860 H   0  0  0  0  0  0  0  0  0  0  0  0
  -18.2096   98.5951   15.3164 H   0  0  0  0  0  0  0  0  0  0  0  0
  -15.1920   99.0012   11.9312 H   0  0  0  0  0  0  0  0  0  0  0  0
  -12.9652   99.0445   13.3135 H   0  0  0  0  0  0  0  0  0  0  0  0
  -13.5715   98.9569   15.8660 H   0  0  0  0  0  0  0  0  0  0  0  0
 26 27  2  0
 26 25  1  0
 27 28  1  0
 25 24  1  0
 28 24  2  0
 24 23  1  0
 23 22  1  0
 23 17  2  0
 22 21  2  0
 17 16  1  0
 21 18  1  0
 18 16  2  0
 18 19  1  0
 16 15  1  0
  4 14  2  0
  4  3  1  0
 14  5  1  0
 20 19  1  0
 15  3  1  0
  3  2  2  0
  5  1  2  0
  2  1  1  0
  2 11  1  0
  1 13  1  0
  9  8  1  0
  9 10  1  0
  8  7  2  0
 11 10  1  0
 11 12  2  0
 10  6  2  0
 13 12  1  0
  7  6  1  0
  6 29  1  0
  7 30  1  0
  8 31  1  0
 13 32  1  0
 14 33  1  0
 15 34  1  0
 17 35  1  0
 20 36  1  0
 20 37  1  0
 20 38  1  0
 21 39  1  0
 22 40  1  0
 26 41  1  0
 27 42  1  0
 28 43  1  0
A    1
C4
A    2
C5
A    3
C6
A    4
N1
A    5
N3
A    6
CAK
A    7
CAL
A    8
CAM
A    9
OAN
A   10
CAJ
A   11
CAI
A   12
NAH
A   13
NAG
A   14
C2
A   15
NAO
A   16
CAP
A   17
CAQ
A   18
CAU
A   19
OBA
A   20
CBB
A   21
CAT
A   22
CAS
A   23
CAR
A   24
CAV
A   25
OAZ
A   26
CAY
A   27
CAX
A   28
CAW
M  END
