5JF3_SF5_A_301
     RDKit          3D

 30 30  0  0  0  0  0  0  0  0999 V2000
   -5.4240   -3.7100   11.7400 N   0  0  0  0  0  0  0  0  0  0  0  0
   -4.4240   -4.6480   11.5590 O   0  0  0  0  0  0  0  0  0  0  0  0
   -5.1610   -2.5180   12.2650 C   0  0  0  0  0  0  0  0  0  0  0  0
   -4.0420   -2.1840   12.6320 O   0  0  0  0  0  0  0  0  0  0  0  0
   -6.3430   -1.5800   12.3980 C   0  0  0  0  0  0  0  0  0  0  0  0
   -6.4170   -0.6160   11.2200 C   0  0  0  0  0  0  0  0  0  0  0  0
   -6.9430   -1.3350    9.9750 C   0  0  0  0  0  0  0  0  0  0  0  0
   -6.5390   -0.6330    8.6850 C   0  0  0  0  0  0  0  0  0  0  0  0
   -7.2150   -1.3160    7.4950 C   0  0  0  0  0  0  0  0  0  0  0  0
   -7.2230   -0.4170    6.2800 C   0  0  0  0  0  0  0  0  0  0  0  0
   -7.1940    0.5550   11.4370 C   0  0  0  0  0  0  0  0  0  0  0  0
   -8.4900    0.2640   11.4460 O   0  0  0  0  0  0  0  0  0  0  0  0
   -7.0410    1.8450   11.2030 N   0  0  0  0  0  0  0  0  0  0  0  0
   -9.1570    1.4010   11.2470 N   0  0  0  0  0  0  0  0  0  0  0  0
   -8.2680    2.3680   11.0960 C   0  0  0  0  0  0  0  0  0  0  0  0
   -6.3892   -3.9393   11.4631 H   0  0  0  0  0  0  0  0  0  0  0  0
   -4.0963   -4.9554   12.4412 H   0  0  0  0  0  0  0  0  0  0  0  0
   -6.2397   -1.0023   13.3284 H   0  0  0  0  0  0  0  0  0  0  0  0
   -7.2643   -2.1808   12.4147 H   0  0  0  0  0  0  0  0  0  0  0  0
   -5.3811   -0.2729   11.0817 H   0  0  0  0  0  0  0  0  0  0  0  0
   -8.0411   -1.3740   10.0270 H   0  0  0  0  0  0  0  0  0  0  0  0
   -6.5042   -2.3436    9.9596 H   0  0  0  0  0  0  0  0  0  0  0  0
   -5.4468   -0.6866    8.5657 H   0  0  0  0  0  0  0  0  0  0  0  0
   -6.8537    0.4201    8.7285 H   0  0  0  0  0  0  0  0  0  0  0  0
   -8.2523   -1.5632    7.7651 H   0  0  0  0  0  0  0  0  0  0  0  0
   -6.6499   -2.2274    7.2498 H   0  0  0  0  0  0  0  0  0  0  0  0
   -7.2324    0.6347    6.6021 H   0  0  0  0  0  0  0  0  0  0  0  0
   -6.3231   -0.6077    5.6768 H   0  0  0  0  0  0  0  0  0  0  0  0
   -8.1193   -0.6237    5.6768 H   0  0  0  0  0  0  0  0  0  0  0  0
   -8.4990    3.4277   10.9126 H   0  0  0  0  0  0  0  0  0  0  0  0
 10  9  1  0
  9  8  1  0
  8  7  1  0
  7  6  1  0
 15 13  1  0
 15 14  2  0
 13 11  2  0
  6 11  1  0
  6  5  1  0
 14 12  1  0
 11 12  1  0
  2  1  1  0
  1  3  1  0
  3  5  1  0
  3  4  2  0
  1 16  1  0
  2 17  1  0
  5 18  1  0
  5 19  1  0
  6 20  1  0
  7 21  1  0
  7 22  1  0
  8 23  1  0
  8 24  1  0
  9 25  1  0
  9 26  1  0
 10 27  1  0
 10 28  1  0
 10 29  1  0
 15 30  1  0
A    1
N1
A    2
O2
A    3
C3
A    4
O4
A    5
C5
A    6
C6
A    7
C7
A    8
C8
A    9
C9
A   10
C10
A   11
C12
A   12
O13
A   13
N14
A   14
N15
A   15
C16
M  END
