5JF5_7JT_A_301
     RDKit          3D

 34 35  0  0  0  0  0  0  0  0999 V2000
   -5.4150   -3.5250   11.8100 N   0  0  0  0  0  0  0  0  0  0  0  0
   -4.3270   -4.4280   11.6100 O   0  0  0  0  0  0  0  0  0  0  0  0
   -5.0980   -2.2800   12.2030 C   0  0  0  0  0  0  0  0  0  0  0  0
   -3.9370   -1.9300   12.3920 O   0  0  0  0  0  0  0  0  0  0  0  0
   -6.2750   -1.2790   12.3850 C   0  0  0  0  0  0  0  0  0  0  0  0
   -6.4920   -0.4770   11.0780 C   0  0  0  0  0  0  0  0  0  0  0  0
   -6.9980   -1.3700    9.9230 C   0  0  0  0  0  0  0  0  0  0  0  0
   -7.7080    0.2490   11.5050 C   0  0  0  0  0  0  0  0  0  0  0  0
   -8.9310   -0.2460   11.7020 O   0  0  0  0  0  0  0  0  0  0  0  0
   -7.8030    1.5330   11.2240 N   0  0  0  0  0  0  0  0  0  0  0  0
   -9.7910    0.7630   11.5640 N   0  0  0  0  0  0  0  0  0  0  0  0
   -9.1020    1.8490   11.2710 C   0  0  0  0  0  0  0  0  0  0  0  0
   -6.9210   -0.8610    8.6720 C   0  0  0  0  0  0  0  0  0  0  0  0
   -6.3000    0.2420    8.3000 C   0  0  0  0  0  0  0  0  0  0  0  0
   -7.4250   -1.4630    7.5930 C   0  0  0  0  0  0  0  0  0  0  0  0
   -7.1280   -0.6940    6.5410 C   0  0  0  0  0  0  0  0  0  0  0  0
   -6.4400    0.3430    6.9740 C   0  0  0  0  0  0  0  0  0  0  0  0
   -6.3925   -3.8133   11.6606 H   0  0  0  0  0  0  0  0  0  0  0  0
   -3.9750   -4.7202   12.4880 H   0  0  0  0  0  0  0  0  0  0  0  0
   -6.0393   -0.5841   13.2045 H   0  0  0  0  0  0  0  0  0  0  0  0
   -7.1920   -1.8378   12.6234 H   0  0  0  0  0  0  0  0  0  0  0  0
   -5.5953    0.0604   10.7359 H   0  0  0  0  0  0  0  0  0  0  0  0
   -8.0547   -1.6021   10.1220 H   0  0  0  0  0  0  0  0  0  0  0  0
   -6.3240   -2.2393    9.9188 H   0  0  0  0  0  0  0  0  0  0  0  0
   -9.5254    2.8488   11.0946 H   0  0  0  0  0  0  0  0  0  0  0  0
   -5.9861   -1.4280    8.5516 H   0  0  0  0  0  0  0  0  0  0  0  0
   -5.2337    0.1820    8.5635 H   0  0  0  0  0  0  0  0  0  0  0  0
   -6.7249    1.1209    8.8070 H   0  0  0  0  0  0  0  0  0  0  0  0
   -8.5160   -1.5632    7.6915 H   0  0  0  0  0  0  0  0  0  0  0  0
   -7.0025   -2.4715    7.4733 H   0  0  0  0  0  0  0  0  0  0  0  0
   -8.0540   -0.3512    6.0563 H   0  0  0  0  0  0  0  0  0  0  0  0
   -6.5387   -1.2630    5.8069 H   0  0  0  0  0  0  0  0  0  0  0  0
   -5.4488    0.3547    6.4971 H   0  0  0  0  0  0  0  0  0  0  0  0
   -6.9687    1.2744    6.7231 H   0  0  0  0  0  0  0  0  0  0  0  0
 16 17  1  0
 16 15  1  0
 17 14  1  0
 15 13  1  0
 14 13  1  0
 13  7  1  0
  7  6  1  0
  6  8  1  0
  6  5  1  0
 10 12  1  0
 10  8  2  0
 12 11  2  0
  8  9  1  0
 11  9  1  0
  2  1  1  0
  1  3  1  0
  3  5  1  0
  3  4  2  0
  1 18  1  0
  2 19  1  0
  5 20  1  0
  5 21  1  0
  6 22  1  0
  7 23  1  0
  7 24  1  0
 12 25  1  0
 13 26  1  0
 14 27  1  0
 14 28  1  0
 15 29  1  0
 15 30  1  0
 16 31  1  0
 16 32  1  0
 17 33  1  0
 17 34  1  0
A    1
N1
A    2
O2
A    3
C3
A    4
O4
A    5
C5
A    6
C6
A    7
C7
A    8
C12
A    9
O13
A   10
N14
A   11
N15
A   12
C16
A   13
C17
A   14
C18
A   15
C19
A   16
C20
A   17
C21
M  END
