3O3J_BB4_A_300
     RDKit          3D

 24 25  0  0  0  0  0  0  0  0999 V2000
    2.1850   21.7530  -28.9070 Br  0  0  0  0  0  0  0  0  0  0  0  0
   -1.2370   16.7720  -26.3670 N   0  0  0  0  0  0  0  0  0  0  0  0
   -3.4880   17.4590  -26.4460 O   0  0  0  0  0  0  0  0  0  0  0  0
   -3.5430   20.3570  -30.8070 N   0  0  0  0  0  0  0  0  0  0  0  0
   -3.6020   19.1170  -30.1800 C   0  0  0  0  0  0  0  0  0  0  0  0
   -2.5230   18.7330  -29.4810 C   0  0  0  0  0  0  0  0  0  0  0  0
   -1.7070   19.8610  -29.6930 C   0  0  0  0  0  0  0  0  0  0  0  0
   -0.3930   20.2040  -29.2340 C   0  0  0  0  0  0  0  0  0  0  0  0
    0.2750   21.4740  -29.5900 C   0  0  0  0  0  0  0  0  0  0  0  0
   -0.4890   22.3880  -30.4460 C   0  0  0  0  0  0  0  0  0  0  0  0
   -1.7900   22.0610  -30.9410 C   0  0  0  0  0  0  0  0  0  0  0  0
   -2.3730   20.8570  -30.5490 C   0  0  0  0  0  0  0  0  0  0  0  0
   -2.3520   17.3750  -28.7310 C   0  0  0  0  0  0  0  0  0  0  0  0
   -2.4190   17.2110  -27.0600 C   0  0  0  0  0  0  0  0  0  0  0  0
   -1.0400   16.5700  -24.9850 O   0  0  0  0  0  0  0  0  0  0  0  0
   -0.4202   16.5780  -26.9637 H   0  0  0  0  0  0  0  0  0  0  0  0
   -4.2864   20.7954  -31.3693 H   0  0  0  0  0  0  0  0  0  0  0  0
   -4.4947   18.4786  -30.2539 H   0  0  0  0  0  0  0  0  0  0  0  0
    0.1416   19.4913  -28.5888 H   0  0  0  0  0  0  0  0  0  0  0  0
   -0.0460   23.3579  -30.7163 H   0  0  0  0  0  0  0  0  0  0  0  0
   -2.3207   22.7464  -31.6182 H   0  0  0  0  0  0  0  0  0  0  0  0
   -3.1370   16.7142  -29.1274 H   0  0  0  0  0  0  0  0  0  0  0  0
   -1.2892   17.1634  -28.9200 H   0  0  0  0  0  0  0  0  0  0  0  0
   -1.6324   17.1775  -24.4750 H   0  0  0  0  0  0  0  0  0  0  0  0
  1  9  1  0
  2 14  1  0
  2 15  1  0
  3 14  2  0
  4  5  1  0
  4 12  1  0
  5  6  2  0
  6  7  1  0
  6 13  1  0
  7  8  1  0
  7 12  2  0
  8  9  2  0
  9 10  1  0
 10 11  2  0
 11 12  1  0
 13 14  1  0
  2 16  1  0
  4 17  1  0
  5 18  1  0
  8 19  1  0
 10 20  1  0
 11 21  1  0
 13 22  1  0
 13 23  1  0
 15 24  1  0
A    1
BR
A    2
N1
A    3
O2
A    4
N3
A    5
C4
A    6
C5
A    7
C6
A    8
C7
A    9
C8
A   10
C9
A   11
C10
A   12
C11
A   13
C12
A   14
C13
A   15
O14
M  END
