5JFR_6KP_A_505
     RDKit          3D

 34 38  0  0  0  0  0  0  0  0999 V2000
   14.0430  -32.1660  -17.7460 N   0  0  0  0  0  0  0  0  0  0  0  0
   13.2410  -32.7960  -16.9000 C   0  0  0  0  0  0  0  0  0  0  0  0
   11.6440  -33.8550  -15.7980 C   0  0  0  0  0  0  0  0  0  0  0  0
   14.9430  -32.5990  -15.1700 C   0  0  0  0  0  0  0  0  0  0  0  0
   17.0450  -31.4690  -15.7180 N   0  0  0  0  0  0  0  0  0  0  0  0
   17.4590  -30.1290  -15.5950 C   0  0  0  0  0  0  0  0  0  0  0  0
   20.4240  -32.0590  -14.7080 C   0  0  0  0  0  0  0  0  0  0  0  0
   20.5040  -33.4330  -14.6770 C   0  0  0  0  0  0  0  0  0  0  0  0
   18.2200  -33.6890  -15.3520 C   0  0  0  0  0  0  0  0  0  0  0  0
   16.0290  -31.0290  -18.4940 C   0  0  0  0  0  0  0  0  0  0  0  0
   15.2450  -31.7340  -17.4060 C   0  0  0  0  0  0  0  0  0  0  0  0
   11.9650  -33.3240  -17.0130 N   0  0  0  0  0  0  0  0  0  0  0  0
   12.6380  -33.6910  -14.9630 N   0  0  0  0  0  0  0  0  0  0  0  0
   13.6620  -33.0360  -15.5740 C   0  0  0  0  0  0  0  0  0  0  0  0
   15.7470  -31.9230  -16.0970 C   0  0  0  0  0  0  0  0  0  0  0  0
   17.0260  -28.7880  -15.7330 C   0  0  0  0  0  0  0  0  0  0  0  0
   18.0250  -27.9820  -15.4340 N   0  0  0  0  0  0  0  0  0  0  0  0
   19.1660  -28.7630  -15.1090 N   0  0  0  0  0  0  0  0  0  0  0  0
   18.7960  -30.0850  -15.2070 C   0  0  0  0  0  0  0  0  0  0  0  0
   19.2150  -31.4790  -15.0760 C   0  0  0  0  0  0  0  0  0  0  0  0
   21.6680  -33.9880  -14.3290 F   0  0  0  0  0  0  0  0  0  0  0  0
   19.4320  -34.2470  -15.0030 C   0  0  0  0  0  0  0  0  0  0  0  0
   18.0950  -32.2990  -15.3910 C   0  0  0  0  0  0  0  0  0  0  0  0
   10.6908  -34.3479  -15.5562 H   0  0  0  0  0  0  0  0  0  0  0  0
   15.3024  -32.7858  -14.1473 H   0  0  0  0  0  0  0  0  0  0  0  0
   21.2932  -31.4367  -14.4486 H   0  0  0  0  0  0  0  0  0  0  0  0
   17.3616  -34.3318  -15.5968 H   0  0  0  0  0  0  0  0  0  0  0  0
   16.7725  -30.3604  -18.0356 H   0  0  0  0  0  0  0  0  0  0  0  0
   16.5424  -31.7752  -19.1182 H   0  0  0  0  0  0  0  0  0  0  0  0
   15.3413  -30.4395  -19.1182 H   0  0  0  0  0  0  0  0  0  0  0  0
   11.3714  -33.3170  -17.8547 H   0  0  0  0  0  0  0  0  0  0  0  0
   16.0187  -28.4703  -16.0401 H   0  0  0  0  0  0  0  0  0  0  0  0
   17.9848  -26.9528  -15.4357 H   0  0  0  0  0  0  0  0  0  0  0  0
   19.5475  -35.3408  -14.9835 H   0  0  0  0  0  0  0  0  0  0  0  0
 10 11  1  0
  1 11  2  0
  1  2  1  0
 11 15  1  0
 12  2  1  0
 12  3  1  0
  2 14  2  0
 15  5  1  0
 15  4  2  0
  3 13  2  0
 16  6  2  0
 16 17  1  0
  5  6  1  0
  5 23  1  0
  6 19  1  0
 14  4  1  0
 14 13  1  0
 17 18  1  0
 23  9  2  0
 23 20  1  0
  9 22  1  0
 19 18  2  0
 19 20  1  0
 20  7  2  0
 22  8  2  0
  7  8  1  0
  8 21  1  0
  3 24  1  0
  4 25  1  0
  7 26  1  0
  9 27  1  0
 10 28  1  0
 10 29  1  0
 10 30  1  0
 12 31  1  0
 16 32  1  0
 17 33  1  0
 22 34  1  0
A    1
N3
A    2
C4
A    3
C7
A    4
C10
A    5
N12
A    6
C13
A    7
C20
A    8
C21
A    9
C24
A   10
C1
A   11
C2
A   12
N5
A   13
N8
A   14
C9
A   15
C11
A   16
C14
A   17
N15
A   18
N16
A   19
C18
A   20
C19
A   21
F22
A   22
C23
A   23
C25
M  END
