5JFV_6K1_A_4000
     RDKit          3D

 53 56  0  0  0  0  0  0  0  0999 V2000
  -49.2590    5.5200    1.7210 C   0  0  0  0  0  0  0  0  0  0  0  0
  -48.7480    5.6190    3.0490 C   0  0  0  0  0  0  0  0  0  0  0  0
  -47.7610    4.7010    3.6440 C   0  0  0  0  0  0  0  0  0  0  0  0
  -48.5280    2.6480    2.3400 C   0  0  0  0  0  0  0  0  0  0  0  0
  -46.1560    1.3910    2.9050 C   0  0  0  0  0  0  0  0  0  0  0  0
  -43.7190    1.3310    2.8610 C   0  0  0  0  0  0  0  0  0  0  0  0
  -42.5370    0.3740    3.0120 C   0  0  0  0  0  0  0  0  0  0  0  0
  -39.0450    1.2200    1.8720 C   0  0  0  0  0  0  0  0  0  0  0  0
  -38.7200    2.2480    2.7350 C   0  0  0  0  0  0  0  0  0  0  0  0
  -40.8660    2.1100    3.8350 C   0  0  0  0  0  0  0  0  0  0  0  0
  -49.2010    6.9380    3.5070 C   0  0  0  0  0  0  0  0  0  0  0  0
  -49.8790    7.4080   -0.8580 C   0  0  0  0  0  0  0  0  0  0  0  0
  -50.8390    6.9330    0.2080 C   0  0  0  0  0  0  0  0  0  0  0  0
  -51.7620    5.8050   -0.2200 C   0  0  0  0  0  0  0  0  0  0  0  0
  -50.0510    6.5920    1.4430 N   0  0  0  0  0  0  0  0  0  0  0  0
  -47.0170    5.1440    4.4960 O   0  0  0  0  0  0  0  0  0  0  0  0
  -47.5890    3.3350    3.1470 C   0  0  0  0  0  0  0  0  0  0  0  0
  -48.3520    1.3630    1.9720 N   0  0  0  0  0  0  0  0  0  0  0  0
  -47.1680    0.7190    2.1880 C   0  0  0  0  0  0  0  0  0  0  0  0
  -44.9300    0.7020    3.0460 N   0  0  0  0  0  0  0  0  0  0  0  0
  -43.5970    2.5330    2.6060 O   0  0  0  0  0  0  0  0  0  0  0  0
  -41.1880    1.0640    2.9650 C   0  0  0  0  0  0  0  0  0  0  0  0
  -40.3190    0.5840    1.9980 C   0  0  0  0  0  0  0  0  0  0  0  0
  -37.1740    3.0400    2.5640 Cl  0  0  0  0  0  0  0  0  0  0  0  0
  -39.5940    2.7390    3.7260 C   0  0  0  0  0  0  0  0  0  0  0  0
  -46.4260    2.6210    3.4650 C   0  0  0  0  0  0  0  0  0  0  0  0
  -49.0110    7.6960    4.6700 C   0  0  0  0  0  0  0  0  0  0  0  0
  -48.1910    7.2820    5.6660 N   0  0  0  0  0  0  0  0  0  0  0  0
  -49.6740    8.9010    4.7720 N   0  0  0  0  0  0  0  0  0  0  0  0
  -50.4860    9.3290    3.7790 C   0  0  0  0  0  0  0  0  0  0  0  0
  -50.6540    8.6460    2.6280 N   0  0  0  0  0  0  0  0  0  0  0  0
  -50.0450    7.4700    2.4710 C   0  0  0  0  0  0  0  0  0  0  0  0
  -49.0444    4.6973    1.0230 H   0  0  0  0  0  0  0  0  0  0  0  0
  -49.4299    3.1797    2.0025 H   0  0  0  0  0  0  0  0  0  0  0  0
  -42.6296   -0.1433    3.9783 H   0  0  0  0  0  0  0  0  0  0  0  0
  -42.5738   -0.3211    2.1603 H   0  0  0  0  0  0  0  0  0  0  0  0
  -38.3335    0.8951    1.0985 H   0  0  0  0  0  0  0  0  0  0  0  0
  -41.5878    2.4431    4.5953 H   0  0  0  0  0  0  0  0  0  0  0  0
  -48.9904    7.8477   -0.3816 H   0  0  0  0  0  0  0  0  0  0  0  0
  -49.5756    6.5560   -1.4842 H   0  0  0  0  0  0  0  0  0  0  0  0
  -50.3722    8.1660   -1.4842 H   0  0  0  0  0  0  0  0  0  0  0  0
  -51.5346    7.7590    0.4175 H   0  0  0  0  0  0  0  0  0  0  0  0
  -52.1698    5.3066    0.6718 H   0  0  0  0  0  0  0  0  0  0  0  0
  -52.5874    6.2146   -0.8208 H   0  0  0  0  0  0  0  0  0  0  0  0
  -51.1972    5.0770   -0.8208 H   0  0  0  0  0  0  0  0  0  0  0  0
  -47.0065   -0.3017    1.8112 H   0  0  0  0  0  0  0  0  0  0  0  0
  -44.9427   -0.2977    3.2938 H   0  0  0  0  0  0  0  0  0  0  0  0
  -40.6003   -0.2584    1.3490 H   0  0  0  0  0  0  0  0  0  0  0  0
  -39.3058    3.5709    4.3854 H   0  0  0  0  0  0  0  0  0  0  0  0
  -45.7103    3.0532    4.1798 H   0  0  0  0  0  0  0  0  0  0  0  0
  -48.4647    7.4202    6.6493 H   0  0  0  0  0  0  0  0  0  0  0  0
  -47.2940    6.8291    5.4398 H   0  0  0  0  0  0  0  0  0  0  0  0
  -51.0325   10.2738    3.9156 H   0  0  0  0  0  0  0  0  0  0  0  0
 12 13  1  0
 14 13  1  0
 13 15  1  0
 15  1  1  0
 15 32  1  0
  1  2  2  0
  8 23  2  0
  8  9  1  0
 18 19  1  0
 18  4  2  0
 23 22  1  0
 19  5  2  0
  4 17  1  0
 32 31  2  0
 32 11  1  0
 24  9  1  0
 21  6  2  0
 31 30  1  0
  9 25  2  0
  6  7  1  0
  6 20  1  0
  5 20  1  0
  5 26  1  0
 22  7  1  0
 22 10  2  0
  2 11  1  0
  2  3  1  0
 17 26  2  0
 17  3  1  0
 11 27  2  0
  3 16  2  0
 25 10  1  0
 30 29  2  0
 27 29  1  0
 27 28  1  0
  1 33  1  0
  4 34  1  0
  7 35  1  0
  7 36  1  0
  8 37  1  0
 10 38  1  0
 12 39  1  0
 12 40  1  0
 12 41  1  0
 13 42  1  0
 14 43  1  0
 14 44  1  0
 14 45  1  0
 19 46  1  0
 20 47  1  0
 23 48  1  0
 25 49  1  0
 26 50  1  0
 28 51  1  0
 28 52  1  0
 30 53  1  0
A    1
C5
A    2
C6
A    3
C7
A    4
C10
A    5
C13
A    6
C15
A    7
C17
A    8
C20
A    9
C21
A   10
C24
A   11
C26
A   12
C1
A   13
C2
A   14
C3
A   15
N4
A   16
O8
A   17
C9
A   18
N11
A   19
C12
A   20
N14
A   21
O16
A   22
C18
A   23
C19
A   24
CL
A   25
C23
A   26
C25
A   27
C27
A   28
N28
A   29
N29
A   30
C30
A   31
N31
A   32
C32
M  END
