5JFW_6K2_A_4000
     RDKit          3D

 52 55  0  0  0  0  0  0  0  0999 V2000
  -19.5300  -45.6930   -2.4550 C   0  0  0  0  0  0  0  0  0  0  0  0
  -19.1300  -45.2600   -3.7120 C   0  0  0  0  0  0  0  0  0  0  0  0
  -19.4660  -44.0080   -4.4140 C   0  0  0  0  0  0  0  0  0  0  0  0
  -21.6610  -43.5690   -3.3230 C   0  0  0  0  0  0  0  0  0  0  0  0
  -21.4150  -40.8700   -3.6160 C   0  0  0  0  0  0  0  0  0  0  0  0
  -20.2660  -38.7680   -3.5400 C   0  0  0  0  0  0  0  0  0  0  0  0
  -20.5540  -37.2730   -3.7310 C   0  0  0  0  0  0  0  0  0  0  0  0
  -17.0730  -35.8490   -4.4770 C   0  0  0  0  0  0  0  0  0  0  0  0
  -16.9680  -34.8720   -3.4330 C   0  0  0  0  0  0  0  0  0  0  0  0
  -15.7810  -34.1020   -3.2440 C   0  0  0  0  0  0  0  0  0  0  0  0
  -18.0320  -34.6390   -2.5290 C   0  0  0  0  0  0  0  0  0  0  0  0
  -20.3820  -41.6760   -4.1330 C   0  0  0  0  0  0  0  0  0  0  0  0
  -17.6040  -46.6200   -5.4040 C   0  0  0  0  0  0  0  0  0  0  0  0
  -18.3980  -46.8660    0.2710 C   0  0  0  0  0  0  0  0  0  0  0  0
  -18.9680  -47.6340   -0.8700 C   0  0  0  0  0  0  0  0  0  0  0  0
  -20.2960  -48.3420   -0.6140 C   0  0  0  0  0  0  0  0  0  0  0  0
  -18.8960  -46.8370   -2.1220 N   0  0  0  0  0  0  0  0  0  0  0  0
  -18.8600  -43.7180   -5.4000 O   0  0  0  0  0  0  0  0  0  0  0  0
  -20.4690  -43.0580   -3.9370 C   0  0  0  0  0  0  0  0  0  0  0  0
  -22.6240  -42.7780   -2.8700 N   0  0  0  0  0  0  0  0  0  0  0  0
  -22.5540  -41.4500   -2.9970 C   0  0  0  0  0  0  0  0  0  0  0  0
  -21.3960  -39.4880   -3.7120 N   0  0  0  0  0  0  0  0  0  0  0  0
  -19.1170  -39.2630   -3.2880 O   0  0  0  0  0  0  0  0  0  0  0  0
  -19.2770  -36.4160   -3.6380 C   0  0  0  0  0  0  0  0  0  0  0  0
  -18.2560  -36.6170   -4.5580 C   0  0  0  0  0  0  0  0  0  0  0  0
  -14.8570  -33.5010   -3.0960 N   0  0  0  0  0  0  0  0  0  0  0  0
  -19.1910  -35.4280   -2.6300 C   0  0  0  0  0  0  0  0  0  0  0  0
  -18.2590  -46.3370   -4.1960 C   0  0  0  0  0  0  0  0  0  0  0  0
  -16.8930  -47.7320   -5.5550 N   0  0  0  0  0  0  0  0  0  0  0  0
  -16.8020  -48.6300   -4.5540 C   0  0  0  0  0  0  0  0  0  0  0  0
  -17.4260  -48.4630   -3.3710 N   0  0  0  0  0  0  0  0  0  0  0  0
  -18.1530  -47.3230   -3.1610 C   0  0  0  0  0  0  0  0  0  0  0  0
  -20.2625  -45.1752   -1.8184 H   0  0  0  0  0  0  0  0  0  0  0  0
  -21.7804  -44.6580   -3.2244 H   0  0  0  0  0  0  0  0  0  0  0  0
  -21.2575  -36.9456   -2.9513 H   0  0  0  0  0  0  0  0  0  0  0  0
  -20.9783  -37.1374   -4.7368 H   0  0  0  0  0  0  0  0  0  0  0  0
  -16.2539  -35.9968   -5.1961 H   0  0  0  0  0  0  0  0  0  0  0  0
  -17.9533  -33.8549   -1.7615 H   0  0  0  0  0  0  0  0  0  0  0  0
  -19.5333  -41.2323   -4.6741 H   0  0  0  0  0  0  0  0  0  0  0  0
  -17.6804  -45.9093   -6.2401 H   0  0  0  0  0  0  0  0  0  0  0  0
  -18.7313  -47.3151    1.2182 H   0  0  0  0  0  0  0  0  0  0  0  0
  -17.2996  -46.8930    0.2189 H   0  0  0  0  0  0  0  0  0  0  0  0
  -18.7420  -45.8225    0.2189 H   0  0  0  0  0  0  0  0  0  0  0  0
  -18.3156  -48.5092   -1.0061 H   0  0  0  0  0  0  0  0  0  0  0  0
  -20.4615  -48.4302    0.4699 H   0  0  0  0  0  0  0  0  0  0  0  0
  -21.1142  -47.7604   -1.0637 H   0  0  0  0  0  0  0  0  0  0  0  0
  -20.2692  -49.3455   -1.0637 H   0  0  0  0  0  0  0  0  0  0  0  0
  -23.3700  -40.8124   -2.6260 H   0  0  0  0  0  0  0  0  0  0  0  0
  -22.2741  -38.9922   -3.9218 H   0  0  0  0  0  0  0  0  0  0  0  0
  -18.3684  -37.3733   -5.3488 H   0  0  0  0  0  0  0  0  0  0  0  0
  -20.0257  -35.2778   -1.9294 H   0  0  0  0  0  0  0  0  0  0  0  0
  -16.1949  -49.5342   -4.7085 H   0  0  0  0  0  0  0  0  0  0  0  0
 29 13  1  0
 29 30  2  0
 13 28  2  0
 18  3  2  0
 25  8  2  0
 25 24  1  0
 30 31  1  0
  8  9  1  0
  3 19  1  0
  3  2  1  0
 28  2  1  0
 28 32  1  0
 12 19  1  0
 12  5  2  0
 19  4  2  0
  7 24  1  0
  7  6  1  0
 22  5  1  0
 22  6  1  0
  2  1  2  0
 24 27  2  0
  5 21  1  0
  6 23  2  0
  9 10  1  0
  9 11  2  0
 31 32  2  0
  4 20  1  0
 10 26  3  0
 32 17  1  0
 21 20  2  0
 27 11  1  0
  1 17  1  0
 17 15  1  0
 15 16  1  0
 15 14  1  0
  1 33  1  0
  4 34  1  0
  7 35  1  0
  7 36  1  0
  8 37  1  0
 11 38  1  0
 12 39  1  0
 13 40  1  0
 14 41  1  0
 14 42  1  0
 14 43  1  0
 15 44  1  0
 16 45  1  0
 16 46  1  0
 16 47  1  0
 21 48  1  0
 22 49  1  0
 25 50  1  0
 27 51  1  0
 30 52  1  0
A    1
C5
A    2
C6
A    3
C7
A    4
C10
A    5
C13
A    6
C15
A    7
C17
A    8
C20
A    9
C21
A   10
C22
A   11
C24
A   12
C26
A   13
C28
A   14
C1
A   15
C2
A   16
C3
A   17
N4
A   18
O8
A   19
C9
A   20
N11
A   21
C12
A   22
N14
A   23
O16
A   24
C18
A   25
C19
A   26
N23
A   27
C25
A   28
C27
A   29
N29
A   30
C30
A   31
N31
A   32
C32
M  END
