5JFX_6K4_A_4000
     RDKit          3D

 56 59  0  0  0  0  0  0  0  0999 V2000
   50.3030   -5.3740   -1.8870 C   0  0  0  0  0  0  0  0  0  0  0  0
   49.3450   -5.4420    0.9150 C   0  0  0  0  0  0  0  0  0  0  0  0
   48.8300   -5.7980    2.1750 C   0  0  0  0  0  0  0  0  0  0  0  0
   46.0990   -1.7120    2.2290 C   0  0  0  0  0  0  0  0  0  0  0  0
   43.6620   -1.6870    2.0890 C   0  0  0  0  0  0  0  0  0  0  0  0
   41.1610   -1.4070    2.1120 C   0  0  0  0  0  0  0  0  0  0  0  0
   40.3050   -0.9720    1.1280 C   0  0  0  0  0  0  0  0  0  0  0  0
   39.0580   -1.5770    1.0290 C   0  0  0  0  0  0  0  0  0  0  0  0
   49.3990   -7.0970    2.4780 C   0  0  0  0  0  0  0  0  0  0  0  0
   50.1850   -7.8330   -1.6410 C   0  0  0  0  0  0  0  0  0  0  0  0
   50.7660   -6.5300   -0.9650 C   0  0  0  0  0  0  0  0  0  0  0  0
   52.2830   -6.6540   -0.8450 C   0  0  0  0  0  0  0  0  0  0  0  0
   50.7260   -4.1450   -1.2840 O   0  0  0  0  0  0  0  0  0  0  0  0
   50.1190   -6.4370    0.3870 N   0  0  0  0  0  0  0  0  0  0  0  0
   47.9150   -4.9730    2.9630 C   0  0  0  0  0  0  0  0  0  0  0  0
   47.4100   -5.4020    3.9430 O   0  0  0  0  0  0  0  0  0  0  0  0
   47.6110   -3.5980    2.5140 C   0  0  0  0  0  0  0  0  0  0  0  0
   48.6520   -2.7640    2.0060 C   0  0  0  0  0  0  0  0  0  0  0  0
   48.4040   -1.4900    1.6340 N   0  0  0  0  0  0  0  0  0  0  0  0
   47.1710   -0.9150    1.6950 C   0  0  0  0  0  0  0  0  0  0  0  0
   44.8580   -1.0900    2.2830 N   0  0  0  0  0  0  0  0  0  0  0  0
   43.5620   -2.8860    1.8500 O   0  0  0  0  0  0  0  0  0  0  0  0
   42.5030   -0.7270    2.1790 C   0  0  0  0  0  0  0  0  0  0  0  0
   38.6840   -2.6020    1.9270 C   0  0  0  0  0  0  0  0  0  0  0  0
   37.1260   -3.3370    1.7240 Cl  0  0  0  0  0  0  0  0  0  0  0  0
   39.5760   -3.0260    2.9380 C   0  0  0  0  0  0  0  0  0  0  0  0
   40.7950   -2.4250    3.0010 N   0  0  0  0  0  0  0  0  0  0  0  0
   46.3360   -3.0310    2.6470 C   0  0  0  0  0  0  0  0  0  0  0  0
   49.4020   -7.9610    3.5840 C   0  0  0  0  0  0  0  0  0  0  0  0
   50.0910   -9.1130    3.5560 N   0  0  0  0  0  0  0  0  0  0  0  0
   50.8610   -9.4230    2.4520 C   0  0  0  0  0  0  0  0  0  0  0  0
   51.5610  -10.5860    2.4400 N   0  0  0  0  0  0  0  0  0  0  0  0
   50.9370   -8.5770    1.3560 N   0  0  0  0  0  0  0  0  0  0  0  0
   50.2460   -7.4510    1.3310 C   0  0  0  0  0  0  0  0  0  0  0  0
   49.2074   -5.3870   -1.9839 H   0  0  0  0  0  0  0  0  0  0  0  0
   50.7382   -5.4821   -2.8914 H   0  0  0  0  0  0  0  0  0  0  0  0
   49.1489   -4.4813    0.4164 H   0  0  0  0  0  0  0  0  0  0  0  0
   40.5992   -0.1673    0.4382 H   0  0  0  0  0  0  0  0  0  0  0  0
   38.3563   -1.2555    0.2453 H   0  0  0  0  0  0  0  0  0  0  0  0
   49.8692   -8.5412   -0.8608 H   0  0  0  0  0  0  0  0  0  0  0  0
   49.3202   -7.5671   -2.2666 H   0  0  0  0  0  0  0  0  0  0  0  0
   50.9608   -8.2986   -2.2666 H   0  0  0  0  0  0  0  0  0  0  0  0
   52.5661   -6.6771    0.2177 H   0  0  0  0  0  0  0  0  0  0  0  0
   52.6148   -7.5823   -1.3331 H   0  0  0  0  0  0  0  0  0  0  0  0
   52.7611   -5.7919   -1.3331 H   0  0  0  0  0  0  0  0  0  0  0  0
   50.6956   -4.2334   -0.2984 H   0  0  0  0  0  0  0  0  0  0  0  0
   49.6722   -3.1655    1.9162 H   0  0  0  0  0  0  0  0  0  0  0  0
   47.0018    0.1158    1.3503 H   0  0  0  0  0  0  0  0  0  0  0  0
   44.8491   -0.0810    2.4900 H   0  0  0  0  0  0  0  0  0  0  0  0
   42.5723   -0.1842    3.1332 H   0  0  0  0  0  0  0  0  0  0  0  0
   42.5704   -0.0521    1.3130 H   0  0  0  0  0  0  0  0  0  0  0  0
   39.2941   -3.8155    3.6501 H   0  0  0  0  0  0  0  0  0  0  0  0
   45.5167   -3.6228    3.0813 H   0  0  0  0  0  0  0  0  0  0  0  0
   48.8325   -7.6908    4.4855 H   0  0  0  0  0  0  0  0  0  0  0  0
   51.8306  -11.0340    3.3274 H   0  0  0  0  0  0  0  0  0  0  0  0
   51.8225  -11.0205    1.5435 H   0  0  0  0  0  0  0  0  0  0  0  0
  1 13  1  0
  1 11  1  0
 10 11  1  0
 11 12  1  0
 11 14  1  0
 14  2  1  0
 14 34  1  0
  2  3  2  0
  8  7  2  0
  8 24  1  0
  7  6  1  0
 34 33  2  0
 34  9  1  0
 33 31  1  0
 19 20  1  0
 19 18  2  0
 20  4  2  0
 25 24  1  0
 22  5  2  0
 24 26  2  0
 18 17  1  0
  5 23  1  0
  5 21  1  0
  6 23  1  0
  6 27  2  0
  3  9  1  0
  3 15  1  0
  4 21  1  0
  4 28  1  0
 32 31  1  0
 31 30  2  0
  9 29  2  0
 17 28  2  0
 17 15  1  0
 26 27  1  0
 15 16  2  0
 30 29  1  0
  1 35  1  0
  1 36  1  0
  2 37  1  0
  7 38  1  0
  8 39  1  0
 10 40  1  0
 10 41  1  0
 10 42  1  0
 12 43  1  0
 12 44  1  0
 12 45  1  0
 13 46  1  0
 18 47  1  0
 20 48  1  0
 21 49  1  0
 23 50  1  0
 23 51  1  0
 26 52  1  0
 28 53  1  0
 29 54  1  0
 32 55  1  0
 32 56  1  0
A    1
C4
A    2
C7
A    3
C8
A    4
C15
A    5
C17
A    6
C20
A    7
C21
A    8
C22
A    9
C28
A   10
C1
A   11
C2
A   12
C3
A   13
O5
A   14
N6
A   15
C9
A   16
O10
A   17
C11
A   18
C12
A   19
N13
A   20
C14
A   21
N16
A   22
O18
A   23
C19
A   24
C23
A   25
CL
A   26
C25
A   27
N26
A   28
C27
A   29
C29
A   30
N30
A   31
C31
A   32
N32
A   33
N33
A   34
C34
M  END
