5JGD_6KD_A_601
     RDKit          3D

 57 60  0  0  0  0  0  0  0  0999 V2000
  -20.0260   51.4190   20.2110 C   0  0  0  0  0  0  0  0  0  0  0  0
  -20.6890   52.7430   19.6600 C   0  0  0  0  0  0  0  0  0  0  0  0
  -20.5540   55.1860   19.6000 C   0  0  0  0  0  0  0  0  0  0  0  0
  -18.5370   53.8490   19.6950 C   0  0  0  0  0  0  0  0  0  0  0  0
  -17.8720   52.5910   20.2970 C   0  0  0  0  0  0  0  0  0  0  0  0
  -19.9440   53.9450   20.1130 N   0  0  0  0  0  0  0  0  0  0  0  0
  -17.9220   50.1520   19.9910 C   0  0  0  0  0  0  0  0  0  0  0  0
  -17.7120   49.3460   18.7340 C   0  0  0  0  0  0  0  0  0  0  0  0
  -16.4570   49.1790   18.0820 C   0  0  0  0  0  0  0  0  0  0  0  0
  -15.0810   51.2080   18.5520 C   0  0  0  0  0  0  0  0  0  0  0  0
  -15.0980   51.7610   17.1420 C   0  0  0  0  0  0  0  0  0  0  0  0
  -13.7840   51.4190   19.2840 C   0  0  0  0  0  0  0  0  0  0  0  0
   -8.8340   49.4920   14.4830 O   0  0  0  0  0  0  0  0  0  0  0  0
   -9.9490   49.5010   15.0100 C   0  0  0  0  0  0  0  0  0  0  0  0
  -11.0070   48.5840   14.7040 C   0  0  0  0  0  0  0  0  0  0  0  0
  -10.9790   47.2920   13.5570 S   0  0  0  0  0  0  0  0  0  0  0  0
  -12.5880   46.8440   13.9190 C   0  0  0  0  0  0  0  0  0  0  0  0
  -10.2950   50.4290   15.9830 N   0  0  0  0  0  0  0  0  0  0  0  0
  -11.5100   50.4740   16.5930 C   0  0  0  0  0  0  0  0  0  0  0  0
  -12.5120   49.6600   16.3510 N   0  0  0  0  0  0  0  0  0  0  0  0
  -12.2410   48.6520   15.3440 C   0  0  0  0  0  0  0  0  0  0  0  0
  -13.1530   47.6360   14.8800 C   0  0  0  0  0  0  0  0  0  0  0  0
  -14.5870   47.4090   15.3450 C   0  0  0  0  0  0  0  0  0  0  0  0
  -15.2640   46.5030   14.8470 O   0  0  0  0  0  0  0  0  0  0  0  0
  -15.0510   48.2640   16.3210 N   0  0  0  0  0  0  0  0  0  0  0  0
  -16.3430   48.3790   16.9270 C   0  0  0  0  0  0  0  0  0  0  0  0
  -15.2960   49.7680   18.5690 O   0  0  0  0  0  0  0  0  0  0  0  0
  -17.4840   47.7480   16.4130 C   0  0  0  0  0  0  0  0  0  0  0  0
  -18.7110   47.9060   17.0510 C   0  0  0  0  0  0  0  0  0  0  0  0
  -18.8230   48.6890   18.1970 C   0  0  0  0  0  0  0  0  0  0  0  0
  -17.4800   49.7150   21.0380 O   0  0  0  0  0  0  0  0  0  0  0  0
  -18.5780   51.3500   19.9140 N   0  0  0  0  0  0  0  0  0  0  0  0
  -20.1656   51.3808   21.3014 H   0  0  0  0  0  0  0  0  0  0  0  0
  -20.5124   50.5670   19.7135 H   0  0  0  0  0  0  0  0  0  0  0  0
  -21.7249   52.8043   20.0248 H   0  0  0  0  0  0  0  0  0  0  0  0
  -20.6662   52.7127   18.5607 H   0  0  0  0  0  0  0  0  0  0  0  0
  -20.8648   55.8182   20.4448 H   0  0  0  0  0  0  0  0  0  0  0  0
  -19.8201   55.7289   18.9863 H   0  0  0  0  0  0  0  0  0  0  0  0
  -21.4321   54.9365   18.9863 H   0  0  0  0  0  0  0  0  0  0  0  0
  -18.4896   53.7921   18.5975 H   0  0  0  0  0  0  0  0  0  0  0  0
  -18.0000   54.7390   20.0551 H   0  0  0  0  0  0  0  0  0  0  0  0
  -16.8336   52.5331   19.9386 H   0  0  0  0  0  0  0  0  0  0  0  0
  -17.9125   52.6786   21.3928 H   0  0  0  0  0  0  0  0  0  0  0  0
  -15.8895   51.7639   19.0493 H   0  0  0  0  0  0  0  0  0  0  0  0
  -15.1318   52.8598   17.1795 H   0  0  0  0  0  0  0  0  0  0  0  0
  -14.1896   51.4400   16.6113 H   0  0  0  0  0  0  0  0  0  0  0  0
  -15.9850   51.3848   16.6113 H   0  0  0  0  0  0  0  0  0  0  0  0
  -13.9660   51.3894   20.3684 H   0  0  0  0  0  0  0  0  0  0  0  0
  -13.0745   50.6245   19.0094 H   0  0  0  0  0  0  0  0  0  0  0  0
  -13.3630   52.3974   19.0094 H   0  0  0  0  0  0  0  0  0  0  0  0
  -13.1125   46.0089   13.4317 H   0  0  0  0  0  0  0  0  0  0  0  0
   -9.5887   51.1258   16.2598 H   0  0  0  0  0  0  0  0  0  0  0  0
  -11.6661   51.2559   17.3508 H   0  0  0  0  0  0  0  0  0  0  0  0
  -14.3511   48.9323   16.6736 H   0  0  0  0  0  0  0  0  0  0  0  0
  -17.4100   47.1289   15.5068 H   0  0  0  0  0  0  0  0  0  0  0  0
  -19.6029   47.4063   16.6450 H   0  0  0  0  0  0  0  0  0  0  0  0
  -19.8019   48.7923   18.6879 H   0  0  0  0  0  0  0  0  0  0  0  0
 16 17  1  0
 16 15  1  0
 17 22  2  0
 13 14  2  0
 15 14  1  0
 15 21  2  0
 24 23  2  0
 22 21  1  0
 22 23  1  0
 14 18  1  0
 21 20  1  0
 23 25  1  0
 18 19  1  0
 25 26  1  0
 20 19  2  0
 28 26  1  0
 28 29  2  0
 26  9  2  0
 29 30  1  0
 11 10  1  0
  9 27  1  0
  9  8  1  0
 30  8  2  0
 10 27  1  0
 10 12  1  0
  8  7  1  0
  3  6  1  0
  2  6  1  0
  2  1  1  0
  4  6  1  0
  4  5  1  0
 32  7  1  0
 32  1  1  0
 32  5  1  0
  7 31  2  0
  1 33  1  0
  1 34  1  0
  2 35  1  0
  2 36  1  0
  3 37  1  0
  3 38  1  0
  3 39  1  0
  4 40  1  0
  4 41  1  0
  5 42  1  0
  5 43  1  0
 10 44  1  0
 11 45  1  0
 11 46  1  0
 11 47  1  0
 12 48  1  0
 12 49  1  0
 12 50  1  0
 17 51  1  0
 18 52  1  0
 19 53  1  0
 25 54  1  0
 28 55  1  0
 29 56  1  0
 30 57  1  0
A    1
C1
A    2
C2
A    3
C4
A    4
C5
A    5
C6
A    6
N3
A    7
C8
A    8
C10
A    9
C11
A   10
C13
A   11
C14
A   12
C15
A   13
O34
A   14
C33
A   15
C27
A   16
S26
A   17
C25
A   18
N31
A   19
C30
A   20
N29
A   21
C28
A   22
C24
A   23
C22
A   24
O23
A   25
N20
A   26
C19
A   27
O12
A   28
C18
A   29
C17
A   30
C16
A   31
O9
A   32
N7
M  END
