5JGM_810_A_408
     RDKit          3D

 36 38  0  0  0  0  0  0  0  0999 V2000
   19.1740   19.2440   23.7810 O   0  0  0  0  0  0  0  0  0  0  0  0
   18.1240   18.8720   23.2640 C   0  0  0  0  0  0  0  0  0  0  0  0
   17.8710   18.8560   21.8140 C   0  0  0  0  0  0  0  0  0  0  0  0
   18.8700   19.2180   20.9130 C   0  0  0  0  0  0  0  0  0  0  0  0
   18.5840   19.2210   19.5570 C   0  0  0  0  0  0  0  0  0  0  0  0
   19.3170   19.5780   18.4380 N   0  0  0  0  0  0  0  0  0  0  0  0
   18.5040   19.4570   17.3660 C   0  0  0  0  0  0  0  0  0  0  0  0
   18.8890   19.7870   16.1340 N   0  0  0  0  0  0  0  0  0  0  0  0
   18.0300   19.6820   14.9680 C   0  0  0  0  0  0  0  0  0  0  0  0
   17.2940   19.0260   17.6900 N   0  0  0  0  0  0  0  0  0  0  0  0
   17.3200   18.8740   19.0790 C   0  0  0  0  0  0  0  0  0  0  0  0
   16.3210   18.4900   19.9790 C   0  0  0  0  0  0  0  0  0  0  0  0
   16.5990   18.4790   21.3520 C   0  0  0  0  0  0  0  0  0  0  0  0
   15.5840   18.0930   22.2280 N   0  0  0  0  0  0  0  0  0  0  0  0
   17.0600   18.4710   24.0310 N   0  0  0  0  0  0  0  0  0  0  0  0
   15.8580   18.0930   23.5150 C   0  0  0  0  0  0  0  0  0  0  0  0
   14.8880   17.6640   24.3880 N   0  0  0  0  0  0  0  0  0  0  0  0
   14.1280   16.5250   24.2700 C   0  0  0  0  0  0  0  0  0  0  0  0
   13.1800   16.2350   24.9620 O   0  0  0  0  0  0  0  0  0  0  0  0
   14.6070   15.7580   23.2780 O   0  0  0  0  0  0  0  0  0  0  0  0
   13.9510   14.4720   23.0840 C   0  0  0  0  0  0  0  0  0  0  0  0
   14.1600   14.0600   21.6830 C   0  0  0  0  0  0  0  0  0  0  0  0
   19.8713   19.4974   21.2727 H   0  0  0  0  0  0  0  0  0  0  0  0
   20.3015   19.8804   18.4253 H   0  0  0  0  0  0  0  0  0  0  0  0
   19.8490   20.1359   16.0013 H   0  0  0  0  0  0  0  0  0  0  0  0
   16.9865   19.5544   15.2917 H   0  0  0  0  0  0  0  0  0  0  0  0
   18.1174   20.5975   14.3645 H   0  0  0  0  0  0  0  0  0  0  0  0
   18.3354   18.8145   14.3645 H   0  0  0  0  0  0  0  0  0  0  0  0
   15.3256   18.1991   19.6121 H   0  0  0  0  0  0  0  0  0  0  0  0
   17.1767   18.4549   25.0542 H   0  0  0  0  0  0  0  0  0  0  0  0
   14.7128   18.2549   25.2133 H   0  0  0  0  0  0  0  0  0  0  0  0
   12.8744   14.5676   23.2883 H   0  0  0  0  0  0  0  0  0  0  0  0
   14.3713   13.7215   23.7696 H   0  0  0  0  0  0  0  0  0  0  0  0
   14.6575   13.0792   21.6596 H   0  0  0  0  0  0  0  0  0  0  0  0
   13.1882   13.9905   21.1724 H   0  0  0  0  0  0  0  0  0  0  0  0
   14.7901   14.8031   21.1724 H   0  0  0  0  0  0  0  0  0  0  0  0
  9  8  1  0
  8  7  1  0
  7 10  2  0
  7  6  1  0
 10 11  1  0
  6  5  1  0
 11  5  2  0
 11 12  1  0
  5  4  1  0
 12 13  2  0
  4  3  2  0
 13  3  1  0
 13 14  1  0
 22 21  1  0
  3  2  1  0
 14 16  2  0
 21 20  1  0
  2  1  2  0
  2 15  1  0
 20 18  1  0
 16 15  1  0
 16 17  1  0
 18 17  1  0
 18 19  2  0
  4 23  1  0
  6 24  1  0
  8 25  1  0
  9 26  1  0
  9 27  1  0
  9 28  1  0
 12 29  1  0
 15 30  1  0
 17 31  1  0
 21 32  1  0
 21 33  1  0
 22 34  1  0
 22 35  1  0
 22 36  1  0
A    1
O2
A    2
C12
A    3
C11
A    4
C10
A    5
C9
A    6
N4
A    7
C7
A    8
N3
A    9
C8
A   10
N2
A   11
C6
A   12
C5
A   13
C4
A   14
N1
A   15
N5
A   16
C3
A   17
N
A   18
C2
A   19
O1
A   20
O
A   21
C1
A   22
C
M  END
