5JGO_6JX_A_401
     RDKit          3D

 37 39  0  0  0  0  0  0  0  0999 V2000
   18.5410   18.1580   17.1900 C   0  0  0  0  0  0  0  0  0  0  0  0
   17.3870   17.5530   18.8970 C   0  0  0  0  0  0  0  0  0  0  0  0
   16.3970   17.1540   19.8030 C   0  0  0  0  0  0  0  0  0  0  0  0
   16.6760   17.1470   21.1800 C   0  0  0  0  0  0  0  0  0  0  0  0
   15.9290   16.7990   23.3500 C   0  0  0  0  0  0  0  0  0  0  0  0
   14.2350   15.2810   24.1610 C   0  0  0  0  0  0  0  0  0  0  0  0
   14.0830   13.2240   23.0020 C   0  0  0  0  0  0  0  0  0  0  0  0
   17.3360   17.7190   17.5100 N   0  0  0  0  0  0  0  0  0  0  0  0
   15.6610   16.7640   22.0640 N   0  0  0  0  0  0  0  0  0  0  0  0
   14.9270   16.4640   24.2300 N   0  0  0  0  0  0  0  0  0  0  0  0
   14.4180   12.6760   21.6800 C   0  0  0  0  0  0  0  0  0  0  0  0
   19.2510   17.9330   23.5920 O   0  0  0  0  0  0  0  0  0  0  0  0
   18.1970   17.5650   23.0850 C   0  0  0  0  0  0  0  0  0  0  0  0
   17.9470   17.5370   21.6380 C   0  0  0  0  0  0  0  0  0  0  0  0
   18.9310   17.9030   20.7230 C   0  0  0  0  0  0  0  0  0  0  0  0
   18.6490   17.9140   19.3690 C   0  0  0  0  0  0  0  0  0  0  0  0
   19.3730   18.2840   18.2490 N   0  0  0  0  0  0  0  0  0  0  0  0
   18.9140   18.4740   15.9500 N   0  0  0  0  0  0  0  0  0  0  0  0
   18.0380   18.3680   14.7970 C   0  0  0  0  0  0  0  0  0  0  0  0
   17.1320   17.1810   23.8570 N   0  0  0  0  0  0  0  0  0  0  0  0
   13.3080   14.9700   24.8740 O   0  0  0  0  0  0  0  0  0  0  0  0
   14.7160   14.5190   23.1620 O   0  0  0  0  0  0  0  0  0  0  0  0
   13.9400   12.9970   20.5630 C   0  0  0  0  0  0  0  0  0  0  0  0
   15.4055   16.8475   19.4385 H   0  0  0  0  0  0  0  0  0  0  0  0
   12.9920   13.3359   23.0870 H   0  0  0  0  0  0  0  0  0  0  0  0
   14.4430   12.5402   23.7848 H   0  0  0  0  0  0  0  0  0  0  0  0
   16.5405   17.5400   16.8806 H   0  0  0  0  0  0  0  0  0  0  0  0
   14.6846   17.1320   24.9756 H   0  0  0  0  0  0  0  0  0  0  0  0
   15.1831   11.8858   21.6667 H   0  0  0  0  0  0  0  0  0  0  0  0
   19.9337   18.1837   21.0776 H   0  0  0  0  0  0  0  0  0  0  0  0
   19.8757   18.8117   15.8017 H   0  0  0  0  0  0  0  0  0  0  0  0
   16.9992   18.2423   15.1361 H   0  0  0  0  0  0  0  0  0  0  0  0
   18.1177   19.2823   14.1907 H   0  0  0  0  0  0  0  0  0  0  0  0
   18.3335   17.4991   14.1907 H   0  0  0  0  0  0  0  0  0  0  0  0
   17.2492   17.1817   24.8803 H   0  0  0  0  0  0  0  0  0  0  0  0
   14.2914   12.4948   19.6496 H   0  0  0  0  0  0  0  0  0  0  0  0
   13.1702   13.7801   20.4987 H   0  0  0  0  0  0  0  0  0  0  0  0
 19 18  1  0
 18  1  1  0
  1  8  1  0
  1 17  2  0
  8  2  1  0
 17 16  1  0
  2 16  2  0
  2  3  1  0
 16 15  1  0
  3  4  2  0
 23 11  2  3
 15 14  2  0
  4 14  1  0
  4  9  1  0
 14 13  1  0
 11  7  1  0
  9  5  2  0
  7 22  1  0
 13 12  2  0
 13 20  1  0
 22  6  1  0
  5 20  1  0
  5 10  1  0
  6 10  1  0
  6 21  2  0
  3 24  1  0
  7 25  1  0
  7 26  1  0
  8 27  1  0
 10 28  1  0
 11 29  1  0
 15 30  1  0
 18 31  1  0
 19 32  1  0
 19 33  1  0
 19 34  1  0
 20 35  1  0
 23 36  1  0
 23 37  1  0
A    1
C1
A    2
C2
A    3
C3
A    4
C4
A    5
C5
A    6
C6
A    7
C7
A    8
N1
A    9
N2
A   10
N3
A   11
C8
A   12
O2
A   13
C10
A   14
C11
A   15
C12
A   16
C13
A   17
N5
A   18
N
A   19
C
A   20
N4
A   21
O
A   22
O1
A   23
C9
M  END
