5JHA_6K7_A_1201
     RDKit          3D

 53 56  0  0  0  0  0  0  0  0999 V2000
   22.2780   -3.4690   22.1950 C   0  0  0  0  0  0  0  0  0  0  0  0
   23.5460   -4.0070   21.8450 C   0  0  0  0  0  0  0  0  0  0  0  0
   24.4290   -3.2020   21.0820 C   0  0  0  0  0  0  0  0  0  0  0  0
   24.0240   -1.9610   20.7220 N   0  0  0  0  0  0  0  0  0  0  0  0
   21.9570   -2.2120   21.7850 N   0  0  0  0  0  0  0  0  0  0  0  0
   24.2070   -3.4840   18.2700 F   0  0  0  0  0  0  0  0  0  0  0  0
   25.4980   -3.1380   18.1970 C   0  0  0  0  0  0  0  0  0  0  0  0
   26.0070   -3.6160   17.0590 F   0  0  0  0  0  0  0  0  0  0  0  0
   25.6110   -1.8010   18.2000 F   0  0  0  0  0  0  0  0  0  0  0  0
   26.3020   -3.6980   19.3400 C   0  0  0  0  0  0  0  0  0  0  0  0
   27.6010   -4.2050   19.0850 C   0  0  0  0  0  0  0  0  0  0  0  0
   28.3480   -4.7170   20.1390 C   0  0  0  0  0  0  0  0  0  0  0  0
   29.6600   -5.2330   19.8880 N   0  0  0  0  0  0  0  0  0  0  0  0
   27.8670   -4.7330   21.3700 N   0  0  0  0  0  0  0  0  0  0  0  0
   26.6550   -4.2660   21.6580 C   0  0  0  0  0  0  0  0  0  0  0  0
   25.8270   -3.7300   20.6770 C   0  0  0  0  0  0  0  0  0  0  0  0
   22.8190   -1.4990   21.0720 C   0  0  0  0  0  0  0  0  0  0  0  0
   22.4500   -0.1480   20.6410 N   0  0  0  0  0  0  0  0  0  0  0  0
   23.0490    0.8630   19.7540 C   0  0  0  0  0  0  0  0  0  0  0  0
   21.4050    0.8250   20.9860 C   0  0  0  0  0  0  0  0  0  0  0  0
   21.8180    1.6520   19.8440 C   0  0  0  0  0  0  0  0  0  0  0  0
   20.9400    1.4890   18.5950 C   0  0  0  0  0  0  0  0  0  0  0  0
   19.2420    1.7320   18.9240 Cl  0  0  0  0  0  0  0  0  0  0  0  0
   22.0980    3.0840   20.2080 C   0  0  0  0  0  0  0  0  0  0  0  0
   20.8910    3.7130   20.5830 O   0  0  0  0  0  0  0  0  0  0  0  0
   21.3540   -4.2540   22.9710 N   0  0  0  0  0  0  0  0  0  0  0  0
   21.8110   -5.3550   23.7230 C   0  0  0  0  0  0  0  0  0  0  0  0
   20.9250   -5.6900   24.9040 C   0  0  0  0  0  0  0  0  0  0  0  0
   19.5460   -5.7280   24.5650 O   0  0  0  0  0  0  0  0  0  0  0  0
   19.1370   -4.5250   23.9250 C   0  0  0  0  0  0  0  0  0  0  0  0
   19.9720   -4.2490   22.6930 C   0  0  0  0  0  0  0  0  0  0  0  0
   23.8347   -5.0213   22.1579 H   0  0  0  0  0  0  0  0  0  0  0  0
   28.0128   -4.1933   18.0650 H   0  0  0  0  0  0  0  0  0  0  0  0
   30.2773   -5.4758   20.6759 H   0  0  0  0  0  0  0  0  0  0  0  0
   29.9863   -5.3613   18.9195 H   0  0  0  0  0  0  0  0  0  0  0  0
   26.2987   -4.3047   22.6980 H   0  0  0  0  0  0  0  0  0  0  0  0
   23.2772    0.4969   18.7421 H   0  0  0  0  0  0  0  0  0  0  0  0
   24.0234    1.3136   19.9939 H   0  0  0  0  0  0  0  0  0  0  0  0
   21.5426    1.3068   21.9652 H   0  0  0  0  0  0  0  0  0  0  0  0
   20.3579    0.5078   21.1002 H   0  0  0  0  0  0  0  0  0  0  0  0
   21.0790    0.4726   18.1980 H   0  0  0  0  0  0  0  0  0  0  0  0
   21.2498    2.2564   17.8703 H   0  0  0  0  0  0  0  0  0  0  0  0
   22.8069    3.1180   21.0484 H   0  0  0  0  0  0  0  0  0  0  0  0
   22.5334    3.6064   19.3434 H   0  0  0  0  0  0  0  0  0  0  0  0
   20.8287    3.7454   21.5705 H   0  0  0  0  0  0  0  0  0  0  0  0
   21.8567   -6.2331   23.0620 H   0  0  0  0  0  0  0  0  0  0  0  0
   22.7980   -5.0839   24.1259 H   0  0  0  0  0  0  0  0  0  0  0  0
   21.2181   -6.6756   25.2947 H   0  0  0  0  0  0  0  0  0  0  0  0
   21.0596   -4.8969   25.6542 H   0  0  0  0  0  0  0  0  0  0  0  0
   19.2493   -3.6877   24.6295 H   0  0  0  0  0  0  0  0  0  0  0  0
   18.0868   -4.6343   23.6166 H   0  0  0  0  0  0  0  0  0  0  0  0
   19.6955   -3.2628   22.2919 H   0  0  0  0  0  0  0  0  0  0  0  0
   19.7724   -5.0492   21.9651 H   0  0  0  0  0  0  0  0  0  0  0  0
  8  7  1  0
  7  9  1  0
  7  6  1  0
  7 10  1  0
 22 23  1  0
 22 21  1  0
 11 10  2  0
 11 12  1  0
 10 16  1  0
 19 21  1  0
 19 18  1  0
 21 24  1  0
 21 20  1  0
 13 12  1  0
 12 14  2  0
 24 25  1  0
 18 20  1  0
 18 17  1  0
 16  3  1  0
 16 15  2  0
  4 17  2  0
  4  3  1  0
 17  5  1  0
  3  2  2  0
 14 15  1  0
  5  1  2  0
  2  1  1  0
  1 26  1  0
 31 26  1  0
 31 30  1  0
 26 27  1  0
 27 28  1  0
 30 29  1  0
 29 28  1  0
  2 32  1  0
 11 33  1  0
 13 34  1  0
 13 35  1  0
 15 36  1  0
 19 37  1  0
 19 38  1  0
 20 39  1  0
 20 40  1  0
 22 41  1  0
 22 42  1  0
 24 43  1  0
 24 44  1  0
 25 45  1  0
 27 46  1  0
 27 47  1  0
 28 48  1  0
 28 49  1  0
 30 50  1  0
 30 51  1  0
 31 52  1  0
 31 53  1  0
A    1
C4
A    2
C5
A    3
C6
A    4
N1
A    5
N3
A    6
FAB
A    7
CAG
A    8
FAF
A    9
FAK
A   10
CAH
A   11
CAC
A   12
CAD
A   13
NAA
A   14
NAE
A   15
CAJ
A   16
CAI
A   17
C2
A   18
NAU
A   19
CAZ
A   20
CAV
A   21
CBA
A   22
CBD
A   23
CL
A   24
CBB
A   25
OBC
A   26
NAR
A   27
CAS
A   28
CAT
A   29
OAY
A   30
CAX
A   31
CAW
M  END
