5JHB_6K5_A_1201
     RDKit          3D

 52 55  0  0  0  0  0  0  0  0999 V2000
   24.8020   -5.0470   16.9330 F   0  0  0  0  0  0  0  0  0  0  0  0
   24.2860   -4.7070   18.1280 C   0  0  0  0  0  0  0  0  0  0  0  0
   22.9900   -5.0400   18.0570 F   0  0  0  0  0  0  0  0  0  0  0  0
   24.2780   -3.3510   18.0830 F   0  0  0  0  0  0  0  0  0  0  0  0
   24.9880   -5.3200   19.3350 C   0  0  0  0  0  0  0  0  0  0  0  0
   26.3060   -5.7940   19.1050 C   0  0  0  0  0  0  0  0  0  0  0  0
   27.0390   -6.3750   20.1720 C   0  0  0  0  0  0  0  0  0  0  0  0
   28.3320   -6.8630   20.0220 N   0  0  0  0  0  0  0  0  0  0  0  0
   26.4160   -6.4460   21.4060 N   0  0  0  0  0  0  0  0  0  0  0  0
   25.1560   -5.9670   21.5440 C   0  0  0  0  0  0  0  0  0  0  0  0
   24.3150   -5.3630   20.5820 C   0  0  0  0  0  0  0  0  0  0  0  0
   22.8590   -4.8550   20.9180 C   0  0  0  0  0  0  0  0  0  0  0  0
   22.1060   -5.6400   21.7800 N   0  0  0  0  0  0  0  0  0  0  0  0
   22.3800   -3.6740   20.3700 N   0  0  0  0  0  0  0  0  0  0  0  0
   21.0710   -3.2730   20.7130 C   0  0  0  0  0  0  0  0  0  0  0  0
   20.4570   -2.0510   20.1970 N   0  0  0  0  0  0  0  0  0  0  0  0
   19.7880   -0.8480   20.8410 C   0  0  0  0  0  0  0  0  0  0  0  0
   19.9410   -1.6220   18.8610 C   0  0  0  0  0  0  0  0  0  0  0  0
   19.2580   -0.3120   19.4510 C   0  0  0  0  0  0  0  0  0  0  0  0
   17.7350   -0.2750   19.1960 C   0  0  0  0  0  0  0  0  0  0  0  0
   16.6480   -0.7140   20.6710 Cl  0  0  0  0  0  0  0  0  0  0  0  0
   19.9180    1.0020   18.9200 C   0  0  0  0  0  0  0  0  0  0  0  0
   19.6380    2.0550   19.8060 O   0  0  0  0  0  0  0  0  0  0  0  0
   20.2940   -4.0340   21.5700 N   0  0  0  0  0  0  0  0  0  0  0  0
   20.8350   -5.2060   22.0840 C   0  0  0  0  0  0  0  0  0  0  0  0
   19.9090   -5.9320   23.0000 N   0  0  0  0  0  0  0  0  0  0  0  0
   20.1840   -7.3560   23.4000 C   0  0  0  0  0  0  0  0  0  0  0  0
   19.2640   -7.8140   24.5730 C   0  0  0  0  0  0  0  0  0  0  0  0
   17.9080   -7.5900   24.3270 O   0  0  0  0  0  0  0  0  0  0  0  0
   17.6130   -6.2590   24.0150 C   0  0  0  0  0  0  0  0  0  0  0  0
   18.4290   -5.7710   22.7880 C   0  0  0  0  0  0  0  0  0  0  0  0
   26.7567   -5.7114   18.1050 H   0  0  0  0  0  0  0  0  0  0  0  0
   28.9011   -7.0778   20.8532 H   0  0  0  0  0  0  0  0  0  0  0  0
   28.7210   -7.0098   19.0796 H   0  0  0  0  0  0  0  0  0  0  0  0
   24.7249   -6.0621   22.5515 H   0  0  0  0  0  0  0  0  0  0  0  0
   20.4945   -0.1646   21.3348 H   0  0  0  0  0  0  0  0  0  0  0  0
   19.0714   -1.0097   21.6598 H   0  0  0  0  0  0  0  0  0  0  0  0
   19.2223   -2.3298   18.4223 H   0  0  0  0  0  0  0  0  0  0  0  0
   20.6513   -1.5190   18.0274 H   0  0  0  0  0  0  0  0  0  0  0  0
   17.4712    0.7429   18.8730 H   0  0  0  0  0  0  0  0  0  0  0  0
   17.5392   -1.0485   18.4388 H   0  0  0  0  0  0  0  0  0  0  0  0
   21.0068    0.8627   18.8477 H   0  0  0  0  0  0  0  0  0  0  0  0
   19.5133    1.2408   17.9254 H   0  0  0  0  0  0  0  0  0  0  0  0
   19.7235    1.7333   20.7384 H   0  0  0  0  0  0  0  0  0  0  0  0
   20.0084   -8.0100   22.5331 H   0  0  0  0  0  0  0  0  0  0  0  0
   21.2287   -7.4214   23.7382 H   0  0  0  0  0  0  0  0  0  0  0  0
   19.4165   -8.8909   24.7372 H   0  0  0  0  0  0  0  0  0  0  0  0
   19.5391   -7.2189   25.4563 H   0  0  0  0  0  0  0  0  0  0  0  0
   17.8560   -5.6260   24.8812 H   0  0  0  0  0  0  0  0  0  0  0  0
   16.5431   -6.1899   23.7691 H   0  0  0  0  0  0  0  0  0  0  0  0
   18.2081   -4.7076   22.6139 H   0  0  0  0  0  0  0  0  0  0  0  0
   18.1399   -6.3827   21.9207 H   0  0  0  0  0  0  0  0  0  0  0  0
  1  2  1  0
  3  2  1  0
  4  2  1  0
  2  5  1  0
 18 19  1  0
 18 16  1  0
 22 19  1  0
 22 23  1  0
  6  5  2  0
  6  7  1  0
 20 19  1  0
 20 21  1  0
  5 11  1  0
 19 17  1  0
  8  7  1  0
  7  9  2  0
 16 15  1  0
 16 17  1  0
 14 15  2  0
 14 12  1  0
 11 12  1  0
 11 10  2  0
 15 24  1  0
 12 13  2  0
  9 10  1  0
 24 25  2  0
 13 25  1  0
 25 26  1  0
 31 26  1  0
 31 30  1  0
 26 27  1  0
 27 28  1  0
 30 29  1  0
 29 28  1  0
  6 32  1  0
  8 33  1  0
  8 34  1  0
 10 35  1  0
 17 36  1  0
 17 37  1  0
 18 38  1  0
 18 39  1  0
 20 40  1  0
 20 41  1  0
 22 42  1  0
 22 43  1  0
 23 44  1  0
 27 45  1  0
 27 46  1  0
 28 47  1  0
 28 48  1  0
 30 49  1  0
 30 50  1  0
 31 51  1  0
 31 52  1  0
A    1
FAB
A    2
CAG
A    3
FAF
A    4
FAK
A    5
CAH
A    6
CAC
A    7
CAD
A    8
NAA
A    9
NAE
A   10
CAJ
A   11
CAI
A   12
CAM
A   13
NAN
A   14
NAL
A   15
CAO
A   16
NAU
A   17
CAZ
A   18
CAV
A   19
CBA
A   20
CBD
A   21
CL
A   22
CBB
A   23
OBC
A   24
NAP
A   25
CAQ
A   26
NAR
A   27
CAS
A   28
CAT
A   29
OAY
A   30
CAX
A   31
CAW
M  END
