5JIC_N7E_A_303
     RDKit          3D

 57 56  0  0  0  0  0  0  0  0999 V2000
  -10.2030  -14.6750   -4.0580 O   0  0  0  0  0  0  0  0  0  0  0  0
  -10.7210  -16.0660   -4.6520 P   0  0  0  0  0  0  0  0  0  0  0  0
  -11.3520  -16.9970   -3.5940 O   0  0  0  0  0  0  0  0  0  0  0  0
   -9.6270  -16.8120   -5.4050 O   0  0  0  0  0  0  0  0  0  0  0  0
  -11.8970  -15.7220   -5.7120 O   0  0  0  0  0  0  0  0  0  0  0  0
  -11.6930  -15.0540   -6.9160 C   0  0  0  0  0  0  0  0  0  0  0  0
  -12.5050  -13.7630   -6.9800 C   0  0  0  0  0  0  0  0  0  0  0  0
  -14.0180  -14.1650   -7.0230 C   0  0  0  0  0  0  0  0  0  0  0  0
  -12.1160  -13.1170   -8.3010 C   0  0  0  0  0  0  0  0  0  0  0  0
  -12.1980  -12.8420   -5.7670 C   0  0  0  0  0  0  0  0  0  0  0  0
  -10.7730  -12.6610   -5.6210 O   0  0  0  0  0  0  0  0  0  0  0  0
  -12.8810  -11.4740   -5.9290 C   0  0  0  0  0  0  0  0  0  0  0  0
  -14.1150  -11.3520   -5.9290 O   0  0  0  0  0  0  0  0  0  0  0  0
  -12.0410  -10.4630   -6.1000 N   0  0  0  0  0  0  0  0  0  0  0  0
  -12.5650   -9.0820   -6.2430 C   0  0  0  0  0  0  0  0  0  0  0  0
  -13.0380   -8.8100   -7.6790 C   0  0  0  0  0  0  0  0  0  0  0  0
  -13.7940   -7.4960   -7.6650 C   0  0  0  0  0  0  0  0  0  0  0  0
  -14.9720   -7.4570   -7.3290 O   0  0  0  0  0  0  0  0  0  0  0  0
  -13.1040   -6.3920   -7.9940 N   0  0  0  0  0  0  0  0  0  0  0  0
  -13.7290   -5.1000   -7.9420 C   0  0  0  0  0  0  0  0  0  0  0  0
  -12.8130   -3.9650   -8.3040 C   0  0  0  0  0  0  0  0  0  0  0  0
  -12.5330   -3.9110   -9.7970 C   0  0  0  0  0  0  0  0  0  0  0  0
  -11.8580   -2.6130  -10.1890 C   0  0  0  0  0  0  0  0  0  0  0  0
  -11.6450   -2.3930  -11.6490 C   0  0  0  0  0  0  0  0  0  0  0  0
  -10.9190   -3.4650  -12.2820 O   0  0  0  0  0  0  0  0  0  0  0  0
  -10.5830   -3.1760  -13.6320 C   0  0  0  0  0  0  0  0  0  0  0  0
  -10.2171  -14.7129   -3.0688 H   0  0  0  0  0  0  0  0  0  0  0  0
  -11.1280  -16.6666   -2.6880 H   0  0  0  0  0  0  0  0  0  0  0  0
  -11.9970  -15.7097   -7.7453 H   0  0  0  0  0  0  0  0  0  0  0  0
  -10.6263  -14.7968   -6.9933 H   0  0  0  0  0  0  0  0  0  0  0  0
  -14.3998  -14.2664   -5.9964 H   0  0  0  0  0  0  0  0  0  0  0  0
  -14.5891  -13.3874   -7.5514 H   0  0  0  0  0  0  0  0  0  0  0  0
  -14.1278  -15.1235   -7.5514 H   0  0  0  0  0  0  0  0  0  0  0  0
  -11.5576  -12.1897   -8.1053 H   0  0  0  0  0  0  0  0  0  0  0  0
  -11.4851  -13.8104   -8.8765 H   0  0  0  0  0  0  0  0  0  0  0  0
  -13.0240  -12.8838   -8.8765 H   0  0  0  0  0  0  0  0  0  0  0  0
  -12.5952  -13.3280   -4.8636 H   0  0  0  0  0  0  0  0  0  0  0  0
  -10.5409  -12.6315   -4.6590 H   0  0  0  0  0  0  0  0  0  0  0  0
  -11.0261  -10.6357   -6.1336 H   0  0  0  0  0  0  0  0  0  0  0  0
  -11.7682   -8.3682   -5.9870 H   0  0  0  0  0  0  0  0  0  0  0  0
  -13.4245   -8.9652   -5.5665 H   0  0  0  0  0  0  0  0  0  0  0  0
  -13.6997   -9.6211   -8.0171 H   0  0  0  0  0  0  0  0  0  0  0  0
  -12.1815   -8.7585   -8.3673 H   0  0  0  0  0  0  0  0  0  0  0  0
  -12.1195   -6.4724   -8.2857 H   0  0  0  0  0  0  0  0  0  0  0  0
  -14.0977   -4.9346   -6.9189 H   0  0  0  0  0  0  0  0  0  0  0  0
  -14.5384   -5.1069   -8.6869 H   0  0  0  0  0  0  0  0  0  0  0  0
  -11.8606   -4.0932   -7.7688 H   0  0  0  0  0  0  0  0  0  0  0  0
  -13.3080   -3.0253   -8.0177 H   0  0  0  0  0  0  0  0  0  0  0  0
  -13.4843   -3.9980  -10.3424 H   0  0  0  0  0  0  0  0  0  0  0  0
  -11.8580   -4.7414  -10.0516 H   0  0  0  0  0  0  0  0  0  0  0  0
  -10.8736   -2.5860   -9.6990 H   0  0  0  0  0  0  0  0  0  0  0  0
  -12.5464   -1.8166   -9.8699 H   0  0  0  0  0  0  0  0  0  0  0  0
  -11.0789   -1.4595  -11.7835 H   0  0  0  0  0  0  0  0  0  0  0  0
  -12.6371   -2.3446  -12.1217 H   0  0  0  0  0  0  0  0  0  0  0  0
   -9.7493   -2.4589  -13.6569 H   0  0  0  0  0  0  0  0  0  0  0  0
  -10.2841   -4.1036  -14.1421 H   0  0  0  0  0  0  0  0  0  0  0  0
  -11.4555   -2.7418  -14.1421 H   0  0  0  0  0  0  0  0  0  0  0  0
 26 25  1  0
 25 24  1  0
 24 23  1  0
 23 22  1  0
 22 21  1  0
 21 20  1  0
  9  7  1  0
 19 20  1  0
 19 17  1  0
 16 17  1  0
 16 15  1  0
 17 18  2  0
  8  7  1  0
  7  6  1  0
  7 10  1  0
  6  5  1  0
 15 14  1  0
 14 12  1  0
 13 12  2  0
 12 10  1  0
 10 11  1  0
  5  2  1  0
  4  2  2  0
  2  1  1  0
  2  3  1  0
  1 27  1  0
  3 28  1  0
  6 29  1  0
  6 30  1  0
  8 31  1  0
  8 32  1  0
  8 33  1  0
  9 34  1  0
  9 35  1  0
  9 36  1  0
 10 37  1  0
 11 38  1  0
 14 39  1  0
 15 40  1  0
 15 41  1  0
 16 42  1  0
 16 43  1  0
 19 44  1  0
 20 45  1  0
 20 46  1  0
 21 47  1  0
 21 48  1  0
 22 49  1  0
 22 50  1  0
 23 51  1  0
 23 52  1  0
 24 53  1  0
 24 54  1  0
 26 55  1  0
 26 56  1  0
 26 57  1  0
A    1
O01
A    2
P02
A    3
O03
A    4
O04
A    5
O05
A    6
C06
A    7
C07
A    8
C08
A    9
C09
A   10
C10
A   11
O11
A   12
C12
A   13
O13
A   14
N14
A   15
C15
A   16
C16
A   17
C17
A   18
O18
A   19
N19
A   20
C20
A   21
C21
A   22
C22
A   23
C23
A   24
C24
A   25
O25
A   26
C26
M  END
