5JID_8PF_A_301
     RDKit          3D

 26 25  0  0  0  0  0  0  0  0999 V2000
   -0.4410    0.0420    7.4380 C   0  0  0  0  0  0  0  0  0  0  0  0
    0.4630   -0.1310    8.6640 C   0  0  0  0  0  0  0  0  0  0  0  0
   -0.0920    0.4380    9.9490 C   0  0  0  0  0  0  0  0  0  0  0  0
    0.3930    0.0530    6.1880 C   0  0  0  0  0  0  0  0  0  0  0  0
    0.0990    1.9410   10.0210 C   0  0  0  0  0  0  0  0  0  0  0  0
   -0.9290   -1.2800    4.8070 F   0  0  0  0  0  0  0  0  0  0  0  0
   -0.4350   -0.0400    4.9240 C   0  0  0  0  0  0  0  0  0  0  0  0
   -1.4200    0.8590    4.9650 F   0  0  0  0  0  0  0  0  0  0  0  0
    0.4260    0.2990    3.7280 C   0  0  0  0  0  0  0  0  0  0  0  0
    1.5770   -0.3690    3.8150 F   0  0  0  0  0  0  0  0  0  0  0  0
    0.6230    1.6270    3.7050 F   0  0  0  0  0  0  0  0  0  0  0  0
   -0.2140   -0.1040    2.4230 C   0  0  0  0  0  0  0  0  0  0  0  0
   -1.3560   -0.6330    2.3930 O   0  0  0  0  0  0  0  0  0  0  0  0
    0.4300    0.0960    1.3600 O   0  0  0  0  0  0  0  0  0  0  0  0
    1.1100    1.1840    6.1710 F   0  0  0  0  0  0  0  0  0  0  0  0
    1.1700   -1.0350    6.2620 F   0  0  0  0  0  0  0  0  0  0  0  0
   -1.2170   -1.0500    7.3500 F   0  0  0  0  0  0  0  0  0  0  0  0
   -1.1990    1.1610    7.4450 F   0  0  0  0  0  0  0  0  0  0  0  0
    1.6990    0.3660    8.5170 F   0  0  0  0  0  0  0  0  0  0  0  0
    0.5860   -1.4450    8.8630 F   0  0  0  0  0  0  0  0  0  0  0  0
    0.5710   -0.1370   10.9710 F   0  0  0  0  0  0  0  0  0  0  0  0
   -1.3870    0.1150   10.0220 F   0  0  0  0  0  0  0  0  0  0  0  0
   -0.8780    2.4810   10.7460 F   0  0  0  0  0  0  0  0  0  0  0  0
    0.0980    2.4810    8.7940 F   0  0  0  0  0  0  0  0  0  0  0  0
    1.2500    2.2110   10.6460 F   0  0  0  0  0  0  0  0  0  0  0  0
   -1.8236   -0.8496    3.2383 H   0  0  0  0  0  0  0  0  0  0  0  0
 14 12  2  0
 13 12  1  0
 12  9  1  0
 11  9  1  0
  9 10  1  0
  9  7  1  0
  6  7  1  0
  7  8  1  0
  7  4  1  0
 15  4  1  0
  4 16  1  0
  4  1  1  0
 17  1  1  0
  1 18  1  0
  1  2  1  0
 19  2  1  0
  2 20  1  0
  2  3  1  0
 24  5  1  0
  3  5  1  0
  3 22  1  0
  3 21  1  0
  5 25  1  0
  5 23  1  0
 13 26  1  0
A    1
C13
A    2
C16
A    3
C19
A    4
C10
A    5
C22
A    6
F01
A    7
C02
A    8
F03
A    9
C04
A   10
F05
A   11
F06
A   12
C07
A   13
O08
A   14
O09
A   15
F11
A   16
F12
A   17
F14
A   18
F15
A   19
F17
A   20
F18
A   21
F20
A   22
F21
A   23
F23
A   24
F24
A   25
F25
M  END
