5I3Q_68E_A_1003
     RDKit          3D

 54 57  0  0  0  0  0  0  0  0999 V2000
   17.9920   60.2680   10.6720 C   0  0  0  0  0  0  0  0  0  0  0  0
   17.7970   60.4370   12.0400 C   0  0  0  0  0  0  0  0  0  0  0  0
   17.7760   61.7020   12.6210 C   0  0  0  0  0  0  0  0  0  0  0  0
   21.3620   58.3670    2.6150 O   0  0  0  0  0  0  0  0  0  0  0  0
   19.0280   64.8930   12.2430 O   0  0  0  0  0  0  0  0  0  0  0  0
   17.4960   67.0850   12.6430 O   0  0  0  0  0  0  0  0  0  0  0  0
   18.7530   60.5420    6.0360 C   0  0  0  0  0  0  0  0  0  0  0  0
   19.1900   59.8020    4.9080 C   0  0  0  0  0  0  0  0  0  0  0  0
   19.6070   59.0770    4.0580 C   0  0  0  0  0  0  0  0  0  0  0  0
   20.0150   58.1860    2.9700 C   0  0  0  0  0  0  0  0  0  0  0  0
   18.0120   64.2020   12.3310 C   0  0  0  0  0  0  0  0  0  0  0  0
   17.4010   66.0980   15.0570 C   0  0  0  0  0  0  0  0  0  0  0  0
   18.5300   66.8310   15.3030 C   0  0  0  0  0  0  0  0  0  0  0  0
   19.1620   66.7500   16.5350 C   0  0  0  0  0  0  0  0  0  0  0  0
   18.7290   65.8680   17.4810 C   0  0  0  0  0  0  0  0  0  0  0  0
   17.5680   65.0780   17.2630 C   0  0  0  0  0  0  0  0  0  0  0  0
   17.0550   64.1430   18.1960 C   0  0  0  0  0  0  0  0  0  0  0  0
   15.9390   63.4160   17.8940 C   0  0  0  0  0  0  0  0  0  0  0  0
   15.3630   63.5660   16.6360 C   0  0  0  0  0  0  0  0  0  0  0  0
   16.9010   65.1660   16.0130 C   0  0  0  0  0  0  0  0  0  0  0  0
   15.2810   66.4590   13.5590 O   0  0  0  0  0  0  0  0  0  0  0  0
   16.6860   66.2140   13.4380 S   0  0  0  0  0  0  0  0  0  0  0  0
   15.7880   64.4260   15.7190 N   0  0  0  0  0  0  0  0  0  0  0  0
   16.8470   64.6920   12.8900 N   0  0  0  0  0  0  0  0  0  0  0  0
   17.9480   62.8180   11.7810 C   0  0  0  0  0  0  0  0  0  0  0  0
   17.5820   61.8170   14.1130 C   0  0  0  0  0  0  0  0  0  0  0  0
   18.1100   62.6400   10.4070 C   0  0  0  0  0  0  0  0  0  0  0  0
   18.1330   61.3780    9.8280 C   0  0  0  0  0  0  0  0  0  0  0  0
   17.9900   59.0470   10.0530 O   0  0  0  0  0  0  0  0  0  0  0  0
   17.9460   57.8700   10.8720 C   0  0  0  0  0  0  0  0  0  0  0  0
   18.2610   61.2710    8.3600 C   0  0  0  0  0  0  0  0  0  0  0  0
   19.0900   59.9430    7.6180 S   0  0  0  0  0  0  0  0  0  0  0  0
   18.0280   61.6920    6.0880 C   0  0  0  0  0  0  0  0  0  0  0  0
   17.7680   62.1220    7.4050 C   0  0  0  0  0  0  0  0  0  0  0  0
   17.6563   59.5509   12.6764 H   0  0  0  0  0  0  0  0  0  0  0  0
   21.9122   58.4409    3.4347 H   0  0  0  0  0  0  0  0  0  0  0  0
   19.3862   58.3891    2.0906 H   0  0  0  0  0  0  0  0  0  0  0  0
   19.8929   57.1495    3.3175 H   0  0  0  0  0  0  0  0  0  0  0  0
   18.9381   67.4873   14.5203 H   0  0  0  0  0  0  0  0  0  0  0  0
   20.0203   67.4031   16.7511 H   0  0  0  0  0  0  0  0  0  0  0  0
   19.2854   65.7669   18.4245 H   0  0  0  0  0  0  0  0  0  0  0  0
   17.5564   64.0025   19.1650 H   0  0  0  0  0  0  0  0  0  0  0  0
   15.5037   62.7251   18.6310 H   0  0  0  0  0  0  0  0  0  0  0  0
   14.5003   62.9311   16.3858 H   0  0  0  0  0  0  0  0  0  0  0  0
   16.0376   64.0592   12.9633 H   0  0  0  0  0  0  0  0  0  0  0  0
   18.4170   61.3220   14.6305 H   0  0  0  0  0  0  0  0  0  0  0  0
   17.5518   62.8790   14.3980 H   0  0  0  0  0  0  0  0  0  0  0  0
   16.6358   61.3338   14.3980 H   0  0  0  0  0  0  0  0  0  0  0  0
   18.2228   63.5250    9.7635 H   0  0  0  0  0  0  0  0  0  0  0  0
   17.9569   58.1608   11.9328 H   0  0  0  0  0  0  0  0  0  0  0  0
   17.0262   57.3069   10.6556 H   0  0  0  0  0  0  0  0  0  0  0  0
   18.8212   57.2398   10.6556 H   0  0  0  0  0  0  0  0  0  0  0  0
   17.6804   62.2309    5.1942 H   0  0  0  0  0  0  0  0  0  0  0  0
   17.2238   63.0480    7.6427 H   0  0  0  0  0  0  0  0  0  0  0  0
  4 10  1  0
 10  9  1  0
  9  8  3  0
  8  7  1  0
  7 33  2  0
  7 32  1  0
 33 34  1  0
 34 31  2  0
 32 31  1  0
 31 28  1  0
 28 27  1  0
 28  1  2  0
 29  1  1  0
 29 30  1  0
 27 25  2  0
  1  2  1  0
 25 11  1  0
 25  3  1  0
  2  3  2  0
  5 11  2  0
 11 24  1  0
  3 26  1  0
  6 22  2  0
 24 22  1  0
 22 21  2  0
 22 12  1  0
 12 13  2  0
 12 20  1  0
 13 14  1  0
 23 20  2  0
 23 19  1  0
 20 16  1  0
 14 15  2  0
 19 18  2  0
 16 15  1  0
 16 17  2  0
 18 17  1  0
  2 35  1  0
  4 36  1  0
 10 37  1  0
 10 38  1  0
 13 39  1  0
 14 40  1  0
 15 41  1  0
 17 42  1  0
 18 43  1  0
 19 44  1  0
 24 45  1  0
 26 46  1  0
 26 47  1  0
 26 48  1  0
 27 49  1  0
 30 50  1  0
 30 51  1  0
 30 52  1  0
 33 53  1  0
 34 54  1  0
A    1
C1
A    2
C2
A    3
C3
A    4
O1
A    5
O2
A    6
O3
A    7
C11
A    8
C12
A    9
C13
A   10
C14
A   11
C15
A   12
C16
A   13
C17
A   14
C18
A   15
C19
A   16
C20
A   17
C21
A   18
C22
A   19
C23
A   20
C24
A   21
O4
A   22
S1
A   23
N1
A   24
N
A   25
C5
A   26
C4
A   27
C6
A   28
C7
A   29
O
A   30
C
A   31
C8
A   32
S
A   33
C10
A   34
C9
M  END
