5JJS_6L2_A_1004
     RDKit          3D

 60 62  0  0  0  0  0  0  0  0999 V2000
   26.1140  172.0020   23.2700 C   0  0  0  0  0  0  0  0  0  0  0  0
   26.1180  170.5910   22.9140 O   0  0  0  0  0  0  0  0  0  0  0  0
   25.1000  170.1430   21.9760 C   0  0  0  0  0  0  0  0  0  0  0  0
   24.6650  171.2740   21.0050 C   0  0  0  0  0  0  0  0  0  0  0  0
   25.5390  168.8580   21.2360 C   0  0  0  0  0  0  0  0  0  0  0  0
   24.4570  168.3450   20.2280 C   0  0  0  0  0  0  0  0  0  0  0  0
   23.7130  169.4770   19.4700 C   0  0  0  0  0  0  0  0  0  0  0  0
   24.4890  170.7910   19.5790 C   0  0  0  0  0  0  0  0  0  0  0  0
   24.0180  172.4000   18.6050 S   0  0  0  0  0  0  0  0  0  0  0  0
   23.7390  172.0340   17.1610 O   0  0  0  0  0  0  0  0  0  0  0  0
   22.8200  173.1010   19.2220 O   0  0  0  0  0  0  0  0  0  0  0  0
   25.3470  173.4220   18.7370 N   0  0  0  0  0  0  0  0  0  0  0  0
   26.5450  173.0310   18.2800 C   0  0  0  0  0  0  0  0  0  0  0  0
   26.7580  171.9320   17.7670 O   0  0  0  0  0  0  0  0  0  0  0  0
   27.5910  173.9080   18.6170 C   0  0  0  0  0  0  0  0  0  0  0  0
   27.5840  175.2450   18.1630 C   0  0  0  0  0  0  0  0  0  0  0  0
   28.5740  173.5010   19.5460 C   0  0  0  0  0  0  0  0  0  0  0  0
   28.5120  172.1900   19.9780 O   0  0  0  0  0  0  0  0  0  0  0  0
   29.3080  171.8390   21.1270 C   0  0  0  0  0  0  0  0  0  0  0  0
   29.5540  174.3960   19.9660 C   0  0  0  0  0  0  0  0  0  0  0  0
   29.5470  175.7240   19.5040 C   0  0  0  0  0  0  0  0  0  0  0  0
   30.5300  176.6010   19.8680 O   0  0  0  0  0  0  0  0  0  0  0  0
   31.5340  176.1990   20.8450 C   0  0  0  0  0  0  0  0  0  0  0  0
   28.5470  176.1780   18.5940 C   0  0  0  0  0  0  0  0  0  0  0  0
   28.5370  177.4480   18.0760 C   0  0  0  0  0  0  0  0  0  0  0  0
   29.0100  178.8740   18.8530 S   0  0  0  0  0  0  0  0  0  0  0  0
   28.1440  177.8090   16.8320 C   0  0  0  0  0  0  0  0  0  0  0  0
   28.2520  179.1470   16.5520 C   0  0  0  0  0  0  0  0  0  0  0  0
   28.7580  179.8520   17.5680 C   0  0  0  0  0  0  0  0  0  0  0  0
   29.0520  181.2710   17.6360 C   0  0  0  0  0  0  0  0  0  0  0  0
   29.3190  182.3070   17.8020 C   0  0  0  0  0  0  0  0  0  0  0  0
   29.7190  183.6840   18.0550 C   0  0  0  0  0  0  0  0  0  0  0  0
   28.8140  184.3070   18.9460 O   0  0  0  0  0  0  0  0  0  0  0  0
   26.1137  172.1038   24.3653 H   0  0  0  0  0  0  0  0  0  0  0  0
   27.0108  172.4869   22.8569 H   0  0  0  0  0  0  0  0  0  0  0  0
   25.2145  172.4818   22.8569 H   0  0  0  0  0  0  0  0  0  0  0  0
   24.2052  169.8818   22.5600 H   0  0  0  0  0  0  0  0  0  0  0  0
   25.4329  172.0615   21.0167 H   0  0  0  0  0  0  0  0  0  0  0  0
   23.6898  171.6485   21.3497 H   0  0  0  0  0  0  0  0  0  0  0  0
   25.7291  168.0704   21.9800 H   0  0  0  0  0  0  0  0  0  0  0  0
   26.4445  169.0982   20.6594 H   0  0  0  0  0  0  0  0  0  0  0  0
   23.7143  167.7571   20.7873 H   0  0  0  0  0  0  0  0  0  0  0  0
   24.9857  167.7485   19.4699 H   0  0  0  0  0  0  0  0  0  0  0  0
   22.7125  169.6095   19.9076 H   0  0  0  0  0  0  0  0  0  0  0  0
   23.6277  169.1998   18.4089 H   0  0  0  0  0  0  0  0  0  0  0  0
   25.3743  170.3866   19.0664 H   0  0  0  0  0  0  0  0  0  0  0  0
   25.2402  174.3505   19.1700 H   0  0  0  0  0  0  0  0  0  0  0  0
   26.8063  175.5662   17.4544 H   0  0  0  0  0  0  0  0  0  0  0  0
   28.7540  172.0833   22.0454 H   0  0  0  0  0  0  0  0  0  0  0  0
   29.5264  170.7611   21.1063 H   0  0  0  0  0  0  0  0  0  0  0  0
   30.2512  172.4047   21.1063 H   0  0  0  0  0  0  0  0  0  0  0  0
   30.3375  174.0628   20.6625 H   0  0  0  0  0  0  0  0  0  0  0  0
   31.1412  176.3563   21.8604 H   0  0  0  0  0  0  0  0  0  0  0  0
   31.7754  175.1349   20.7060 H   0  0  0  0  0  0  0  0  0  0  0  0
   32.4431  176.8024   20.7060 H   0  0  0  0  0  0  0  0  0  0  0  0
   27.7654  177.0817   16.0988 H   0  0  0  0  0  0  0  0  0  0  0  0
   27.9534  179.5931   15.5918 H   0  0  0  0  0  0  0  0  0  0  0  0
   30.7262  183.6930   18.4970 H   0  0  0  0  0  0  0  0  0  0  0  0
   29.7177  184.2355   17.1032 H   0  0  0  0  0  0  0  0  0  0  0  0
   29.0871  184.1190   19.8788 H   0  0  0  0  0  0  0  0  0  0  0  0
 28 27  1  0
 28 29  2  0
 27 25  2  0
 10  9  2  0
 29 30  1  0
 29 26  1  0
 30 31  3  0
 14 13  2  0
 31 32  1  0
 32 33  1  0
 25 24  1  0
 25 26  1  0
 16 24  2  0
 16 15  1  0
 13 15  1  0
 13 12  1  0
 24 21  1  0
  9 12  1  0
  9 11  2  0
  9  8  1  0
 15 17  2  0
  7  8  1  0
  7  6  1  0
 21 22  1  0
 21 20  2  0
 17 20  1  0
 17 18  1  0
  8  4  1  0
 22 23  1  0
 18 19  1  0
  6  5  1  0
  4  3  1  0
  5  3  1  0
  3  2  1  0
  2  1  1  0
  1 34  1  0
  1 35  1  0
  1 36  1  0
  3 37  1  0
  4 38  1  0
  4 39  1  0
  5 40  1  0
  5 41  1  0
  6 42  1  0
  6 43  1  0
  7 44  1  0
  7 45  1  0
  8 46  1  0
 12 47  1  0
 16 48  1  0
 19 49  1  0
 19 50  1  0
 19 51  1  0
 20 52  1  0
 23 53  1  0
 23 54  1  0
 23 55  1  0
 27 56  1  0
 28 57  1  0
 32 58  1  0
 32 59  1  0
 33 60  1  0
A    1
C8
A    2
O2
A    3
C5
A    4
C6
A    5
C4
A    6
C3
A    7
C2
A    8
C1
A    9
S1
A   10
O1
A   11
O4
A   12
N5
A   13
C7
A   14
O8
A   15
C9
A   16
C14
A   17
C10
A   18
O3
A   19
C20
A   20
C11
A   21
C12
A   22
O5
A   23
C15
A   24
C13
A   25
C16
A   26
S20
A   27
C17
A   28
C18
A   29
C19
A   30
C21
A   31
C22
A   32
C23
A   33
O24
M  END
