5JLJ_6L8_C_1101
     RDKit          3D

 42 44  0  0  0  0  0  0  0  0999 V2000
  -35.1440   70.1240   26.7210 C   0  0  0  0  0  0  0  0  0  0  0  0
  -33.7910   69.8300   26.7740 C   0  0  0  0  0  0  0  0  0  0  0  0
  -32.8910   70.7650   27.2720 C   0  0  0  0  0  0  0  0  0  0  0  0
  -33.3420   71.9930   27.7260 C   0  0  0  0  0  0  0  0  0  0  0  0
  -34.6990   72.2940   27.6720 C   0  0  0  0  0  0  0  0  0  0  0  0
  -35.6030   71.3520   27.1700 C   0  0  0  0  0  0  0  0  0  0  0  0
  -37.0710   71.6730   27.1010 C   0  0  0  0  0  0  0  0  0  0  0  0
  -33.3120   68.4970   26.2830 C   0  0  0  0  0  0  0  0  0  0  0  0
  -34.2960   67.6140   26.2950 F   0  0  0  0  0  0  0  0  0  0  0  0
  -32.8840   68.6220   25.0510 F   0  0  0  0  0  0  0  0  0  0  0  0
  -32.3010   68.0910   27.0210 F   0  0  0  0  0  0  0  0  0  0  0  0
  -37.4560   71.9710   28.3150 F   0  0  0  0  0  0  0  0  0  0  0  0
  -37.8510   70.6790   26.6870 F   0  0  0  0  0  0  0  0  0  0  0  0
  -37.1960   72.7110   26.2930 F   0  0  0  0  0  0  0  0  0  0  0  0
  -32.3560   72.9730   28.2530 C   0  0  0  0  0  0  0  0  0  0  0  0
  -31.0040   72.8170   28.3070 N   0  0  0  0  0  0  0  0  0  0  0  0
  -30.4370   73.9150   28.8480 C   0  0  0  0  0  0  0  0  0  0  0  0
  -31.4410   74.7450   29.1150 N   0  0  0  0  0  0  0  0  0  0  0  0
  -32.6670   74.1770   28.7550 N   0  0  0  0  0  0  0  0  0  0  0  0
  -31.5270   76.1040   29.7250 C   0  0  0  0  0  0  0  0  0  0  0  0
  -30.9580   77.2210   28.8340 C   0  0  0  0  0  0  0  0  0  0  0  0
  -31.1000   76.8750   27.3960 C   0  0  0  0  0  0  0  0  0  0  0  0
  -29.9490   76.6290   26.6550 C   0  0  0  0  0  0  0  0  0  0  0  0
  -30.0810   76.3220   25.3560 N   0  0  0  0  0  0  0  0  0  0  0  0
  -31.2910   76.2530   24.7640 C   0  0  0  0  0  0  0  0  0  0  0  0
  -32.4140   76.4850   25.4590 N   0  0  0  0  0  0  0  0  0  0  0  0
  -32.3490   76.7950   26.7630 C   0  0  0  0  0  0  0  0  0  0  0  0
  -31.6040   78.5770   29.0900 C   0  0  0  0  0  0  0  0  0  0  0  0
  -30.8650   79.5610   29.1530 O   0  0  0  0  0  0  0  0  0  0  0  0
  -32.9390   78.7260   29.2320 N   0  0  0  0  0  0  0  0  0  0  0  0
  -35.8531   69.3833   26.3229 H   0  0  0  0  0  0  0  0  0  0  0  0
  -31.8172   70.5287   27.3055 H   0  0  0  0  0  0  0  0  0  0  0  0
  -35.0607   73.2715   28.0236 H   0  0  0  0  0  0  0  0  0  0  0  0
  -29.3661   74.0879   29.0305 H   0  0  0  0  0  0  0  0  0  0  0  0
  -30.9663   76.0956   30.6713 H   0  0  0  0  0  0  0  0  0  0  0  0
  -32.5951   76.3230   29.8707 H   0  0  0  0  0  0  0  0  0  0  0  0
  -29.8933   77.3038   29.0979 H   0  0  0  0  0  0  0  0  0  0  0  0
  -28.9550   76.6848   27.1227 H   0  0  0  0  0  0  0  0  0  0  0  0
  -31.3575   76.0026   23.6949 H   0  0  0  0  0  0  0  0  0  0  0  0
  -33.2706   76.9854   27.3326 H   0  0  0  0  0  0  0  0  0  0  0  0
  -33.3548   78.7724   30.1732 H   0  0  0  0  0  0  0  0  0  0  0  0
  -33.5412   78.7932   28.3991 H   0  0  0  0  0  0  0  0  0  0  0  0
 25 24  1  0
 25 26  2  0
 10  8  1  0
 24 23  2  0
 26 27  1  0
  8  9  1  0
  8  2  1  0
  8 11  1  0
 14  7  1  0
 23 22  1  0
 13  7  1  0
  1  2  2  0
  1  6  1  0
 27 22  2  0
  2  3  1  0
  7  6  1  0
  7 12  1  0
  6  5  2  0
  3  4  2  0
 22 21  1  0
  5  4  1  0
  4 15  1  0
 15 16  1  0
 15 19  2  0
 16 17  2  0
 19 18  1  0
 21 28  1  0
 21 20  1  0
 17 18  1  0
 28 29  2  0
 28 30  1  0
 18 20  1  0
  1 31  1  0
  3 32  1  0
  5 33  1  0
 17 34  1  0
 20 35  1  0
 20 36  1  0
 21 37  1  0
 23 38  1  0
 25 39  1  0
 27 40  1  0
 30 41  1  0
 30 42  1  0
A    1
C9
A    2
C10
A    3
C11
A    4
C6
A    5
C7
A    6
C8
A    7
C12
A    8
C13
A    9
F2
A   10
F1
A   11
F3
A   12
F6
A   13
F5
A   14
F4
A   15
C5
A   16
N3
A   17
C4
A   18
N2
A   19
N4
A   20
C3
A   21
C2
A   22
C1'
A   23
C4'
A   24
N2'
A   25
C3'
A   26
N1'
A   27
C2'
A   28
C1
A   29
O1
A   30
N1
M  END
