5JMP_LC7_A_501
     RDKit          3D

 43 43  0  0  0  0  0  0  0  0999 V2000
    3.8120   14.8370   20.6730 O   0  0  0  0  0  0  0  0  0  0  0  0
    3.3740   13.8200   20.1660 C   0  0  0  0  0  0  0  0  0  0  0  0
    3.9690   13.2880   19.0560 N   0  0  0  0  0  0  0  0  0  0  0  0
    5.0910   13.9170   18.5210 O   0  0  0  0  0  0  0  0  0  0  0  0
    3.4830   12.0390   18.4210 C   0  0  0  0  0  0  0  0  0  0  0  0
    2.1050   13.2220   20.7490 C   0  0  0  0  0  0  0  0  0  0  0  0
    0.8890   14.0220   20.2110 C   0  0  0  0  0  0  0  0  0  0  0  0
   -0.2390   14.0640   21.2570 C   0  0  0  0  0  0  0  0  0  0  0  0
   -0.8680   15.7810   21.4270 P   0  0  0  0  0  0  0  0  0  0  0  0
    0.0570   16.5820   22.2900 O   0  0  0  0  0  0  0  0  0  0  0  0
   -2.2390   15.7280   22.0650 O   0  0  0  0  0  0  0  0  0  0  0  0
   -0.9740   16.4150   20.0860 O   0  0  0  0  0  0  0  0  0  0  0  0
    0.3790   13.4440   18.8490 C   0  0  0  0  0  0  0  0  0  0  0  0
   -0.1220   11.9730   18.9700 C   0  0  0  0  0  0  0  0  0  0  0  0
   -0.5900   11.4400   17.5980 C   0  0  0  0  0  0  0  0  0  0  0  0
    0.6080   11.0920   16.7320 C   0  0  0  0  0  0  0  0  0  0  0  0
    1.3410    9.9540   16.9990 C   0  0  0  0  0  0  0  0  0  0  0  0
    0.9640   11.9130   15.6650 C   0  0  0  0  0  0  0  0  0  0  0  0
    2.0640   11.5940   14.8810 C   0  0  0  0  0  0  0  0  0  0  0  0
    2.8000   10.4560   15.1600 C   0  0  0  0  0  0  0  0  0  0  0  0
    2.4370    9.6380   16.2230 C   0  0  0  0  0  0  0  0  0  0  0  0
    3.1430    8.5270   16.4890 F   0  0  0  0  0  0  0  0  0  0  0  0
    5.6694   14.2413   19.2561 H   0  0  0  0  0  0  0  0  0  0  0  0
    3.2018   11.3164   19.2012 H   0  0  0  0  0  0  0  0  0  0  0  0
    2.6063   12.2628   17.7954 H   0  0  0  0  0  0  0  0  0  0  0  0
    4.2804   11.6114   17.7954 H   0  0  0  0  0  0  0  0  0  0  0  0
    2.0187   12.1681   20.4461 H   0  0  0  0  0  0  0  0  0  0  0  0
    2.1342   13.2755   21.8473 H   0  0  0  0  0  0  0  0  0  0  0  0
    1.2202   15.0540   20.0231 H   0  0  0  0  0  0  0  0  0  0  0  0
   -1.0591   13.4050   20.9360 H   0  0  0  0  0  0  0  0  0  0  0  0
    0.1528   13.7236   22.2268 H   0  0  0  0  0  0  0  0  0  0  0  0
   -0.1458   16.4064   23.2430 H   0  0  0  0  0  0  0  0  0  0  0  0
   -2.1447   15.7316   23.0505 H   0  0  0  0  0  0  0  0  0  0  0  0
    1.2039   13.4762   18.1220 H   0  0  0  0  0  0  0  0  0  0  0  0
   -0.4730   14.0597   18.5248 H   0  0  0  0  0  0  0  0  0  0  0  0
   -0.9631   11.9353   19.6779 H   0  0  0  0  0  0  0  0  0  0  0  0
    0.7075   11.3457   19.3284 H   0  0  0  0  0  0  0  0  0  0  0  0
   -1.1901   12.2120   17.0942 H   0  0  0  0  0  0  0  0  0  0  0  0
   -1.1950   10.5345   17.7530 H   0  0  0  0  0  0  0  0  0  0  0  0
    1.0509    9.2973   17.8324 H   0  0  0  0  0  0  0  0  0  0  0  0
    0.3735   12.8142   15.4435 H   0  0  0  0  0  0  0  0  0  0  0  0
    2.3497   12.2437   14.0406 H   0  0  0  0  0  0  0  0  0  0  0  0
    3.6720   10.1990   14.5406 H   0  0  0  0  0  0  0  0  0  0  0  0
 19 20  2  0
 19 18  1  0
 20 21  1  0
 18 16  2  0
 21 22  1  0
 21 17  2  0
 16 17  1  0
 16 15  1  0
 15 14  1  0
  5  3  1  0
  4  3  1  0
 13 14  1  0
 13  7  1  0
  3  2  1  0
 12  9  2  0
  2  1  2  0
  2  6  1  0
  7  6  1  0
  7  8  1  0
  8  9  1  0
  9 11  1  0
  9 10  1  0
  4 23  1  0
  5 24  1  0
  5 25  1  0
  5 26  1  0
  6 27  1  0
  6 28  1  0
  7 29  1  0
  8 30  1  0
  8 31  1  0
 10 32  1  0
 11 33  1  0
 13 34  1  0
 13 35  1  0
 14 36  1  0
 14 37  1  0
 15 38  1  0
 15 39  1  0
 17 40  1  0
 18 41  1  0
 19 42  1  0
 20 43  1  0
A    1
O12
A    2
C4
A    3
N9
A    4
O10
A    5
C11
A    6
C3
A    7
C2
A    8
C1
A    9
P5
A   10
O7
A   11
O6
A   12
O8
A   13
C13
A   14
C14
A   15
C15
A   16
C16
A   17
C17
A   18
C18
A   19
C20
A   20
C21
A   21
C19
A   22
F22
M  END
