5JMX_DZ5_A_304
     RDKit          3D

 20 20  0  0  0  0  0  0  0  0999 V2000
   64.3000    2.9290   25.6230 O   0  0  0  0  0  0  0  0  0  0  0  0
   63.9900    3.8960   26.3660 C   0  0  0  0  0  0  0  0  0  0  0  0
   64.7610    4.3050   27.2860 O   0  0  0  0  0  0  0  0  0  0  0  0
   62.5810    4.4920   26.2790 C   0  0  0  0  0  0  0  0  0  0  0  0
   62.1190    5.3060   27.2770 C   0  0  0  0  0  0  0  0  0  0  0  0
   60.7780    5.8790   27.4540 C   0  0  0  0  0  0  0  0  0  0  0  0
   60.0040    6.5130   26.4650 C   0  0  0  0  0  0  0  0  0  0  0  0
   58.7300    7.0160   26.7140 C   0  0  0  0  0  0  0  0  0  0  0  0
   58.2350    6.8970   28.0220 C   0  0  0  0  0  0  0  0  0  0  0  0
   56.9830    7.3900   28.3000 F   0  0  0  0  0  0  0  0  0  0  0  0
   58.9100    6.3060   29.0260 C   0  0  0  0  0  0  0  0  0  0  0  0
   60.1830    5.8130   28.7370 C   0  0  0  0  0  0  0  0  0  0  0  0
   61.5930    4.0650   24.9250 S   0  0  0  0  0  0  0  0  0  0  0  0
   64.5125    4.1732   28.2352 H   0  0  0  0  0  0  0  0  0  0  0  0
   62.8527    5.5673   28.0537 H   0  0  0  0  0  0  0  0  0  0  0  0
   60.4228    6.6155   25.4530 H   0  0  0  0  0  0  0  0  0  0  0  0
   58.1353    7.4876   25.9178 H   0  0  0  0  0  0  0  0  0  0  0  0
   58.4758    6.2155   30.0326 H   0  0  0  0  0  0  0  0  0  0  0  0
   60.7565    5.3469   29.5518 H   0  0  0  0  0  0  0  0  0  0  0  0
   60.4040    3.5511   25.3713 H   0  0  0  0  0  0  0  0  0  0  0  0
 13  4  1  0
  1  2  2  0
  4  2  1  0
  4  5  2  0
  2  3  1  0
  7  8  1  0
  7  6  2  0
  8  9  2  0
  5  6  1  0
  6 12  1  0
  9 10  1  0
  9 11  1  0
 12 11  2  0
  3 14  1  0
  5 15  1  0
  7 16  1  0
  8 17  1  0
 11 18  1  0
 12 19  1  0
 13 20  1  0
A    1
O01
A    2
C02
A    3
O03
A    4
C04
A    5
C05
A    6
C06
A    7
C07
A    8
C08
A    9
C09
A   10
F10
A   11
C11
A   12
C12
A   13
S13
M  END
