3HKU_TOR_A_300
     RDKit          3D

 43 45  0  0  0  0  0  0  0  0999 V2000
   17.1660    7.9240   13.3690 C   0  0  0  0  0  0  0  0  0  0  0  0
   16.4080    6.6220   13.6940 C   0  0  0  0  0  0  0  0  0  0  0  0
   15.2040    6.8900   14.6100 C   0  0  0  0  0  0  0  0  0  0  0  0
   17.3610    5.6750   14.3050 O   0  0  0  0  0  0  0  0  0  0  0  0
   15.9650    6.0270   12.4750 O   0  0  0  0  0  0  0  0  0  0  0  0
   15.9590    4.5870   12.7530 C   0  0  0  0  0  0  0  0  0  0  0  0
   16.1250    3.8180   11.4060 C   0  0  0  0  0  0  0  0  0  0  0  0
   16.0700    2.4320   11.7090 O   0  0  0  0  0  0  0  0  0  0  0  0
   16.8590    1.7650   10.7100 C   0  0  0  0  0  0  0  0  0  0  0  0
   16.0510    1.4790    9.4210 C   0  0  0  0  0  0  0  0  0  0  0  0
   17.4250    0.4790   11.3180 C   0  0  0  0  0  0  0  0  0  0  0  0
   17.9560    2.6640   10.4220 O   0  0  0  0  0  0  0  0  0  0  0  0
   17.5010    4.0000   10.7580 C   0  0  0  0  0  0  0  0  0  0  0  0
   18.5360    4.5920   11.7150 C   0  0  0  0  0  0  0  0  0  0  0  0
   18.3500    4.0350   13.0500 O   0  0  0  0  0  0  0  0  0  0  0  0
   17.1570    4.4160   13.7190 C   0  0  0  0  0  0  0  0  0  0  0  0
   16.9260    3.3700   14.8380 C   0  0  0  0  0  0  0  0  0  0  0  0
   15.7080    3.5690   15.5330 O   0  0  0  0  0  0  0  0  0  0  0  0
   15.3430    2.7600   16.7370 S   0  0  0  0  0  0  0  0  0  0  0  0
   16.1920    3.2560   17.8520 O   0  0  0  0  0  0  0  0  0  0  0  0
   13.8850    2.9840   16.8950 O   0  0  0  0  0  0  0  0  0  0  0  0
   15.7010    1.2370   16.4040 N   0  0  0  0  0  0  0  0  0  0  0  0
   17.4564    8.4227   14.3055 H   0  0  0  0  0  0  0  0  0  0  0  0
   18.0675    7.6874   12.7848 H   0  0  0  0  0  0  0  0  0  0  0  0
   16.5151    8.5911   12.7848 H   0  0  0  0  0  0  0  0  0  0  0  0
   15.5202    6.8196   15.6612 H   0  0  0  0  0  0  0  0  0  0  0  0
   14.8100    7.8978   14.4123 H   0  0  0  0  0  0  0  0  0  0  0  0
   14.4197    6.1444   14.4123 H   0  0  0  0  0  0  0  0  0  0  0  0
   15.0355    4.1917   13.2013 H   0  0  0  0  0  0  0  0  0  0  0  0
   15.3448    4.1955   10.7286 H   0  0  0  0  0  0  0  0  0  0  0  0
   15.0455    1.1231    9.6899 H   0  0  0  0  0  0  0  0  0  0  0  0
   15.9670    2.4020    8.8285 H   0  0  0  0  0  0  0  0  0  0  0  0
   16.5663    0.7087    8.8285 H   0  0  0  0  0  0  0  0  0  0  0  0
   17.3946    0.5480   12.4154 H   0  0  0  0  0  0  0  0  0  0  0  0
   16.8215   -0.3793   10.9877 H   0  0  0  0  0  0  0  0  0  0  0  0
   18.4656    0.3443   10.9877 H   0  0  0  0  0  0  0  0  0  0  0  0
   17.4043    4.6836    9.9016 H   0  0  0  0  0  0  0  0  0  0  0  0
   19.5468    4.3490   11.3555 H   0  0  0  0  0  0  0  0  0  0  0  0
   18.4098    5.6840   11.7562 H   0  0  0  0  0  0  0  0  0  0  0  0
   16.9122    2.3678   14.3848 H   0  0  0  0  0  0  0  0  0  0  0  0
   17.7438    3.4778   15.5658 H   0  0  0  0  0  0  0  0  0  0  0  0
   15.8241    0.7133   17.2823 H   0  0  0  0  0  0  0  0  0  0  0  0
   14.9360    0.8161   15.8576 H   0  0  0  0  0  0  0  0  0  0  0  0
  1  2  1  0
  2  3  1  0
  2  4  1  0
  2  5  1  0
  4 16  1  0
  5  6  1  0
  6  7  1  0
  6 16  1  0
  7  8  1  0
  7 13  1  0
  8  9  1  0
  9 10  1  0
  9 11  1  0
  9 12  1  0
 12 13  1  0
 13 14  1  0
 14 15  1  0
 15 16  1  0
 16 17  1  0
 17 18  1  0
 18 19  1  0
 19 20  2  0
 19 21  2  0
 19 22  1  0
  1 23  1  0
  1 24  1  0
  1 25  1  0
  3 26  1  0
  3 27  1  0
  3 28  1  0
  6 29  1  0
  7 30  1  0
 10 31  1  0
 10 32  1  0
 10 33  1  0
 11 34  1  0
 11 35  1  0
 11 36  1  0
 13 37  1  0
 14 38  1  0
 14 39  1  0
 17 40  1  0
 17 41  1  0
 22 42  1  0
 22 43  1  0
A    1
CAT
A    2
CAU
A    3
CAV
A    4
OAR
A    5
OAQ
A    6
CAK
A    7
CAG
A    8
OAF
A    9
CAE
A   10
CAD
A   11
CAJ
A   12
OAA
A   13
CAB
A   14
CAC
A   15
OAH
A   16
CAL
A   17
CAM
A   18
OAN
A   19
SAO
A   20
OAS
A   21
OAI
A   22
NAP
M  END
