5JNW_6LJ_A_202
     RDKit          3D

 54 57  0  0  0  0  0  0  0  0999 V2000
   96.1080   18.5690   -8.7140 C   0  0  0  0  0  0  0  0  0  0  0  0
   96.4470   19.4670   -7.6590 C   0  0  0  0  0  0  0  0  0  0  0  0
   96.1550   20.9310   -8.0400 C   0  0  0  0  0  0  0  0  0  0  0  0
   87.1570   26.0970  -11.0350 C   0  0  0  0  0  0  0  0  0  0  0  0
   89.1640   23.9320   -7.9550 C   0  0  0  0  0  0  0  0  0  0  0  0
   87.8850   25.2970   -9.9180 C   0  0  0  0  0  0  0  0  0  0  0  0
   89.2420   25.0240  -10.0530 C   0  0  0  0  0  0  0  0  0  0  0  0
   87.8380   24.2530   -7.8420 C   0  0  0  0  0  0  0  0  0  0  0  0
   89.9440   24.3340   -9.0510 C   0  0  0  0  0  0  0  0  0  0  0  0
   87.0960   23.7940   -6.7040 C   0  0  0  0  0  0  0  0  0  0  0  0
   87.7610   23.0720   -5.7550 C   0  0  0  0  0  0  0  0  0  0  0  0
   94.6940   18.6260   -8.9270 C   0  0  0  0  0  0  0  0  0  0  0  0
   94.1170   20.0360   -9.0690 C   0  0  0  0  0  0  0  0  0  0  0  0
   88.0720   24.7120  -13.0390 C   0  0  0  0  0  0  0  0  0  0  0  0
   89.0970   22.8010   -5.8810 C   0  0  0  0  0  0  0  0  0  0  0  0
   89.8140   23.2230   -6.9460 C   0  0  0  0  0  0  0  0  0  0  0  0
   91.8120   22.5910   -8.9950 C   0  0  0  0  0  0  0  0  0  0  0  0
   92.9530   22.3540   -7.9920 C   0  0  0  0  0  0  0  0  0  0  0  0
   94.3660   22.2160   -8.5710 C   0  0  0  0  0  0  0  0  0  0  0  0
   87.2560   25.8150  -12.3820 C   0  0  0  0  0  0  0  0  0  0  0  0
   86.6130   26.6200  -13.3120 C   0  0  0  0  0  0  0  0  0  0  0  0
   85.8200   27.6720  -12.9310 C   0  0  0  0  0  0  0  0  0  0  0  0
   85.6970   27.9410  -11.5970 C   0  0  0  0  0  0  0  0  0  0  0  0
   86.3850   27.1930  -10.6820 C   0  0  0  0  0  0  0  0  0  0  0  0
   88.6830   23.8870  -13.5400 N   0  0  0  0  0  0  0  0  0  0  0  0
   91.3560   23.9940   -9.0560 N   0  0  0  0  0  0  0  0  0  0  0  0
   94.7590   21.0910   -8.3170 N   0  0  0  0  0  0  0  0  0  0  0  0
   87.2250   24.9100   -8.8170 N   0  0  0  0  0  0  0  0  0  0  0  0
   96.3998   17.5452   -8.4371 H   0  0  0  0  0  0  0  0  0  0  0  0
   96.6380   18.8545   -9.6347 H   0  0  0  0  0  0  0  0  0  0  0  0
   95.8586   19.2068   -6.7667 H   0  0  0  0  0  0  0  0  0  0  0  0
   97.5251   19.3727   -7.4620 H   0  0  0  0  0  0  0  0  0  0  0  0
   96.7377   21.1990   -8.9337 H   0  0  0  0  0  0  0  0  0  0  0  0
   96.4368   21.5872   -7.2033 H   0  0  0  0  0  0  0  0  0  0  0  0
   89.7735   25.3534  -10.9580 H   0  0  0  0  0  0  0  0  0  0  0  0
   86.0239   24.0168   -6.5988 H   0  0  0  0  0  0  0  0  0  0  0  0
   87.2145   22.7021   -4.8750 H   0  0  0  0  0  0  0  0  0  0  0  0
   94.2005   18.1400   -8.0725 H   0  0  0  0  0  0  0  0  0  0  0  0
   94.5072   18.1198   -9.8856 H   0  0  0  0  0  0  0  0  0  0  0  0
   94.1690   20.3093  -10.1332 H   0  0  0  0  0  0  0  0  0  0  0  0
   93.1005   19.9698   -8.6539 H   0  0  0  0  0  0  0  0  0  0  0  0
   89.6014   22.2231   -5.0926 H   0  0  0  0  0  0  0  0  0  0  0  0
   90.8911   23.0108   -7.0154 H   0  0  0  0  0  0  0  0  0  0  0  0
   90.9583   21.9609   -8.7048 H   0  0  0  0  0  0  0  0  0  0  0  0
   92.2025   22.3367   -9.9914 H   0  0  0  0  0  0  0  0  0  0  0  0
   92.9619   23.2023   -7.2918 H   0  0  0  0  0  0  0  0  0  0  0  0
   92.7340   21.3788   -7.5327 H   0  0  0  0  0  0  0  0  0  0  0  0
   95.0340   22.9595   -8.1117 H   0  0  0  0  0  0  0  0  0  0  0  0
   94.3570   22.3864   -9.6577 H   0  0  0  0  0  0  0  0  0  0  0  0
   86.7430   26.4085  -14.3836 H   0  0  0  0  0  0  0  0  0  0  0  0
   85.2962   28.2837  -13.6803 H   0  0  0  0  0  0  0  0  0  0  0  0
   85.0444   28.7595  -11.2590 H   0  0  0  0  0  0  0  0  0  0  0  0
   86.3232   27.4731   -9.6200 H   0  0  0  0  0  0  0  0  0  0  0  0
   92.0552   24.7488   -9.1032 H   0  0  0  0  0  0  0  0  0  0  0  0
 25 14  3  0
 21 22  1  0
 21 20  2  0
 14 20  1  0
 22 23  2  0
 20  4  1  0
 23 24  1  0
  4 24  2  0
  4  6  1  0
  7  6  2  0
  7  9  1  0
  6 28  1  0
 13 12  1  0
 13 27  1  0
 26  9  1  0
 26 17  1  0
  9  5  2  0
 17 18  1  0
 12  1  1  0
 28  8  2  0
  1  2  1  0
 19 27  1  0
 19 18  1  0
 27  3  1  0
  3  2  1  0
  5  8  1  0
  5 16  1  0
  8 10  1  0
 16 15  2  0
 10 11  2  0
 15 11  1  0
  1 29  1  0
  1 30  1  0
  2 31  1  0
  2 32  1  0
  3 33  1  0
  3 34  1  0
  7 35  1  0
 10 36  1  0
 11 37  1  0
 12 38  1  0
 12 39  1  0
 13 40  1  0
 13 41  1  0
 15 42  1  0
 16 43  1  0
 17 44  1  0
 17 45  1  0
 18 46  1  0
 18 47  1  0
 19 48  1  0
 19 49  1  0
 21 50  1  0
 22 51  1  0
 23 52  1  0
 24 53  1  0
 26 54  1  0
A    1
C24
A    2
C23
A    3
C22
A    4
C12
A    5
C5
A    6
C2
A    7
C1
A    8
C4
A    9
C6
A   10
C7
A   11
C8
A   12
C25
A   13
C26
A   14
C27
A   15
C9
A   16
C10
A   17
C13
A   18
C14
A   19
C15
A   20
C17
A   21
C18
A   22
C19
A   23
C20
A   24
C21
A   25
N28
A   26
N11
A   27
N16
A   28
N3
M  END
