5JOH_6M3_A_302
     RDKit          3D

 44 47  0  0  0  0  0  0  0  0999 V2000
   28.4840  -28.6140   18.7060 C   0  0  0  0  0  0  0  0  0  0  0  0
   27.8600  -27.7630   16.8460 C   0  0  0  0  0  0  0  0  0  0  0  0
   29.1890  -29.9740   12.9210 C   0  0  0  0  0  0  0  0  0  0  0  0
   29.2590  -30.1520   14.2980 C   0  0  0  0  0  0  0  0  0  0  0  0
   29.1060  -31.5450   14.8620 C   0  0  0  0  0  0  0  0  0  0  0  0
   29.3370  -28.6290   10.8830 C   0  0  0  0  0  0  0  0  0  0  0  0
   27.8680  -31.9580   15.3940 C   0  0  0  0  0  0  0  0  0  0  0  0
   27.6390  -33.2670   15.8480 C   0  0  0  0  0  0  0  0  0  0  0  0
   28.6610  -34.2150   15.6810 C   0  0  0  0  0  0  0  0  0  0  0  0
   29.8740  -33.8390   15.0620 C   0  0  0  0  0  0  0  0  0  0  0  0
   30.0990  -32.5140   14.6220 C   0  0  0  0  0  0  0  0  0  0  0  0
   29.2600  -29.3770   19.7740 C   0  0  0  0  0  0  0  0  0  0  0  0
   30.7840  -29.0700   19.7970 C   0  0  0  0  0  0  0  0  0  0  0  0
   31.5590  -29.6100   18.5490 C   0  0  0  0  0  0  0  0  0  0  0  0
   31.2680  -28.8990   17.1800 C   0  0  0  0  0  0  0  0  0  0  0  0
   28.7510  -28.5590   17.4060 N   0  0  0  0  0  0  0  0  0  0  0  0
   27.0490  -27.3020   17.6690 N   0  0  0  0  0  0  0  0  0  0  0  0
   27.4160  -27.8110   18.9930 C   0  0  0  0  0  0  0  0  0  0  0  0
   29.8310  -29.2650   16.6670 C   0  0  0  0  0  0  0  0  0  0  0  0
   29.7210  -29.1000   15.1250 C   0  0  0  0  0  0  0  0  0  0  0  0
   30.0080  -27.8390   14.4830 C   0  0  0  0  0  0  0  0  0  0  0  0
   29.9130  -27.6660   13.0820 C   0  0  0  0  0  0  0  0  0  0  0  0
   29.4980  -28.7700   12.2990 C   0  0  0  0  0  0  0  0  0  0  0  0
   29.2080  -28.5150    9.7430 N   0  0  0  0  0  0  0  0  0  0  0  0
   31.3060  -27.4550   17.3210 O   0  0  0  0  0  0  0  0  0  0  0  0
   26.6650  -30.7840   15.6910 Cl  0  0  0  0  0  0  0  0  0  0  0  0
   27.8369  -27.5326   15.7706 H   0  0  0  0  0  0  0  0  0  0  0  0
   28.8753  -30.8233   12.2963 H   0  0  0  0  0  0  0  0  0  0  0  0
   26.6850  -33.5421   16.3215 H   0  0  0  0  0  0  0  0  0  0  0  0
   28.5176  -35.2479   16.0312 H   0  0  0  0  0  0  0  0  0  0  0  0
   30.6612  -34.5939   14.9191 H   0  0  0  0  0  0  0  0  0  0  0  0
   31.0309  -32.2458   14.1028 H   0  0  0  0  0  0  0  0  0  0  0  0
   28.8409  -29.1164   20.7571 H   0  0  0  0  0  0  0  0  0  0  0  0
   29.1568  -30.4460   19.5361 H   0  0  0  0  0  0  0  0  0  0  0  0
   31.2162  -29.5292   20.6983 H   0  0  0  0  0  0  0  0  0  0  0  0
   30.8891  -27.9751   19.7887 H   0  0  0  0  0  0  0  0  0  0  0  0
   31.3053  -30.6740   18.4331 H   0  0  0  0  0  0  0  0  0  0  0  0
   32.6206  -29.4126   18.7588 H   0  0  0  0  0  0  0  0  0  0  0  0
   32.0412  -29.2380   16.4748 H   0  0  0  0  0  0  0  0  0  0  0  0
   26.9513  -27.6008   19.9676 H   0  0  0  0  0  0  0  0  0  0  0  0
   29.6755  -30.3315   16.8869 H   0  0  0  0  0  0  0  0  0  0  0  0
   30.3109  -26.9834   15.1045 H   0  0  0  0  0  0  0  0  0  0  0  0
   30.1549  -26.7003   12.6141 H   0  0  0  0  0  0  0  0  0  0  0  0
   31.3123  -27.2173   18.2820 H   0  0  0  0  0  0  0  0  0  0  0  0
 24  6  3  0
  6 23  1  0
 23  3  2  0
 23 22  1  0
  3  4  1  0
 22 21  2  0
  4  5  1  0
  4 20  2  0
 21 20  1  0
 11  5  1  0
 11 10  2  0
  5  7  2  0
 10  9  1  0
 20 19  1  0
  7 26  1  0
  7  8  1  0
  9  8  2  0
 19 15  1  0
 19 16  1  0
  2 16  1  0
  2 17  2  0
 15 25  1  0
 15 14  1  0
 16  1  1  0
 17 18  1  0
 14 13  1  0
  1 18  2  0
  1 12  1  0
 12 13  1  0
  2 27  1  0
  3 28  1  0
  8 29  1  0
  9 30  1  0
 10 31  1  0
 11 32  1  0
 12 33  1  0
 12 34  1  0
 13 35  1  0
 13 36  1  0
 14 37  1  0
 14 38  1  0
 15 39  1  0
 18 40  1  0
 19 41  1  0
 21 42  1  0
 22 43  1  0
 25 44  1  0
A    1
C1
A    2
C3
A    3
C11
A    4
C12
A    5
C13
A    6
C14
A    7
C16
A    8
C17
A    9
C18
A   10
C19
A   11
C20
A   12
C21
A   13
C22
A   14
C23
A   15
C24
A   16
N2
A   17
N4
A   18
C5
A   19
C6
A   20
C7
A   21
C8
A   22
C9
A   23
C10
A   24
N15
A   25
O25
A   26
CL1
M  END
