5JRS_6MV_A_4000
     RDKit          3D

 61 66  0  0  0  0  0  0  0  0999 V2000
   11.1070   10.9160    1.6330 C   0  0  0  0  0  0  0  0  0  0  0  0
   11.0070   14.1780   -0.3920 C   0  0  0  0  0  0  0  0  0  0  0  0
   11.4930   14.0810   -1.8270 C   0  0  0  0  0  0  0  0  0  0  0  0
   11.3820   15.5220    0.2080 C   0  0  0  0  0  0  0  0  0  0  0  0
   11.0540    7.8760    4.6870 C   0  0  0  0  0  0  0  0  0  0  0  0
    9.8590    7.1820    4.8040 C   0  0  0  0  0  0  0  0  0  0  0  0
    9.2340    6.6530    3.6870 C   0  0  0  0  0  0  0  0  0  0  0  0
    9.8150    6.8300    2.4290 C   0  0  0  0  0  0  0  0  0  0  0  0
   11.5290   13.0070    0.4450 C   0  0  0  0  0  0  0  0  0  0  0  0
   10.6660   11.9900    0.8690 C   0  0  0  0  0  0  0  0  0  0  0  0
    7.3880    4.4180   -1.9500 C   0  0  0  0  0  0  0  0  0  0  0  0
    8.6130    7.1610    0.3170 C   0  0  0  0  0  0  0  0  0  0  0  0
   14.5870   10.4180    2.7490 C   0  0  0  0  0  0  0  0  0  0  0  0
   13.2740    9.8880    2.7410 C   0  0  0  0  0  0  0  0  0  0  0  0
   13.0130    8.6740    3.4110 C   0  0  0  0  0  0  0  0  0  0  0  0
   14.0650    8.0330    4.0710 C   0  0  0  0  0  0  0  0  0  0  0  0
   15.3440    8.5690    4.0740 C   0  0  0  0  0  0  0  0  0  0  0  0
   15.6420    9.7610    3.4070 C   0  0  0  0  0  0  0  0  0  0  0  0
   14.6020   11.5900    2.0200 N   0  0  0  0  0  0  0  0  0  0  0  0
   13.3230   11.8520    1.5530 C   0  0  0  0  0  0  0  0  0  0  0  0
   12.4570   10.8260    1.9760 C   0  0  0  0  0  0  0  0  0  0  0  0
   12.8750   12.9360    0.7900 C   0  0  0  0  0  0  0  0  0  0  0  0
   16.9950   10.3950    3.4830 C   0  0  0  0  0  0  0  0  0  0  0  0
   17.1310   11.5590    3.1540 O   0  0  0  0  0  0  0  0  0  0  0  0
   18.0070    9.6930    3.9970 N   0  0  0  0  0  0  0  0  0  0  0  0
    9.5670   14.1250   -0.4960 O   0  0  0  0  0  0  0  0  0  0  0  0
   11.0540    7.5170    2.3200 C   0  0  0  0  0  0  0  0  0  0  0  0
   11.6650    8.0350    3.4470 C   0  0  0  0  0  0  0  0  0  0  0  0
   11.6290    7.6780    1.1160 F   0  0  0  0  0  0  0  0  0  0  0  0
    9.1700    6.2930    1.2560 N   0  0  0  0  0  0  0  0  0  0  0  0
    9.1070    4.9310    1.1040 C   0  0  0  0  0  0  0  0  0  0  0  0
    8.5850    4.2990    0.1190 N   0  0  0  0  0  0  0  0  0  0  0  0
    7.9820    5.0720   -0.8710 C   0  0  0  0  0  0  0  0  0  0  0  0
    7.9630    6.4710   -0.8160 C   0  0  0  0  0  0  0  0  0  0  0  0
    6.7940    5.1480   -2.9650 C   0  0  0  0  0  0  0  0  0  0  0  0
    6.7660    6.5300   -2.9080 C   0  0  0  0  0  0  0  0  0  0  0  0
    7.3480    7.2000   -1.8380 C   0  0  0  0  0  0  0  0  0  0  0  0
    8.6990    8.3660    0.4220 O   0  0  0  0  0  0  0  0  0  0  0  0
   10.3979   10.1432    1.9647 H   0  0  0  0  0  0  0  0  0  0  0  0
   12.5717   13.8657   -1.8350 H   0  0  0  0  0  0  0  0  0  0  0  0
   10.9539   13.2727   -2.3429 H   0  0  0  0  0  0  0  0  0  0  0  0
   11.3055   15.0343   -2.3429 H   0  0  0  0  0  0  0  0  0  0  0  0
   11.3624   15.4518    1.3056 H   0  0  0  0  0  0  0  0  0  0  0  0
   12.3927   15.8024   -0.1235 H   0  0  0  0  0  0  0  0  0  0  0  0
   10.6625   16.2851   -0.1235 H   0  0  0  0  0  0  0  0  0  0  0  0
   11.5239    8.3054    5.5841 H   0  0  0  0  0  0  0  0  0  0  0  0
    9.4021    7.0501    5.7959 H   0  0  0  0  0  0  0  0  0  0  0  0
    8.2893    6.0989    3.7894 H   0  0  0  0  0  0  0  0  0  0  0  0
    9.6037   12.0424    0.5883 H   0  0  0  0  0  0  0  0  0  0  0  0
    7.3915    3.3189   -1.9946 H   0  0  0  0  0  0  0  0  0  0  0  0
   13.8751    7.0861    4.5977 H   0  0  0  0  0  0  0  0  0  0  0  0
   16.1444    8.0429    4.6149 H   0  0  0  0  0  0  0  0  0  0  0  0
   15.4314   12.1766    1.8500 H   0  0  0  0  0  0  0  0  0  0  0  0
   13.5762   13.7200    0.4679 H   0  0  0  0  0  0  0  0  0  0  0  0
   18.1152    9.6179    5.0185 H   0  0  0  0  0  0  0  0  0  0  0  0
   18.6798    9.2263    3.3721 H   0  0  0  0  0  0  0  0  0  0  0  0
    9.1709   14.1104    0.4112 H   0  0  0  0  0  0  0  0  0  0  0  0
    9.5479    4.3215    1.9066 H   0  0  0  0  0  0  0  0  0  0  0  0
    6.3418    4.6265   -3.8215 H   0  0  0  0  0  0  0  0  0  0  0  0
    6.2809    7.1014   -3.7131 H   0  0  0  0  0  0  0  0  0  0  0  0
    7.3247    8.2989   -1.7957 H   0  0  0  0  0  0  0  0  0  0  0  0
 35 36  1  0
 35 11  2  0
 36 37  2  0
 11 33  1  0
 37 34  1  0
  3  2  1  0
 33 34  2  0
 33 32  1  0
 34 12  1  0
 26  2  1  0
  2  4  1  0
  2  9  1  0
 32 31  2  0
 12 38  2  0
 12 30  1  0
  9 22  2  0
  9 10  1  0
 22 20  1  0
 10  1  2  0
 31 30  1  0
 29 27  1  0
 30  8  1  0
 20 21  2  0
 20 19  1  0
  1 21  1  0
 21 14  1  0
 19 13  1  0
 27  8  2  0
 27 28  1  0
  8  7  1  0
 14 13  2  0
 14 15  1  0
 13 18  1  0
 24 23  2  0
 18 23  1  0
 18 17  2  0
 15 28  1  0
 15 16  2  0
 28  5  2  0
 23 25  1  0
  7  6  2  0
 17 16  1  0
  5  6  1  0
  1 39  1  0
  3 40  1  0
  3 41  1  0
  3 42  1  0
  4 43  1  0
  4 44  1  0
  4 45  1  0
  5 46  1  0
  6 47  1  0
  7 48  1  0
 10 49  1  0
 11 50  1  0
 16 51  1  0
 17 52  1  0
 19 53  1  0
 22 54  1  0
 25 55  1  0
 25 56  1  0
 26 57  1  0
 31 58  1  0
 35 59  1  0
 36 60  1  0
 37 61  1  0
A    1
C13
A    2
C17
A    3
C19
A    4
C20
A    5
C21
A    6
C22
A    7
C23
A    8
C24
A    9
C11
A   10
C12
A   11
C34
A   12
C33
A   13
C1
A   14
C2
A   15
C3
A   16
C4
A   17
C5
A   18
C6
A   19
N7
A   20
C8
A   21
C9
A   22
C10
A   23
C14
A   24
O15
A   25
N16
A   26
O18
A   27
C25
A   28
C26
A   29
F27
A   30
N28
A   31
C29
A   32
N30
A   33
C31
A   34
C32
A   35
C35
A   36
C36
A   37
C37
A   38
O38
M  END
