5JSG_6P9_A_301
     RDKit          3D

 94 99  0  0  0  0  0  0  0  0999 V2000
   11.4030   44.3780   20.1600 C   0  0  0  0  0  0  0  0  0  0  0  0
   13.0380   50.5570   15.7600 C   0  0  0  0  0  0  0  0  0  0  0  0
   13.5370   50.4450   17.2000 C   0  0  0  0  0  0  0  0  0  0  0  0
   13.3940   48.9690   17.5900 C   0  0  0  0  0  0  0  0  0  0  0  0
   12.2500   49.2850   15.4800 C   0  0  0  0  0  0  0  0  0  0  0  0
   12.5720   45.1460   19.5090 C   0  0  0  0  0  0  0  0  0  0  0  0
    8.8480   42.4550   18.4840 O   0  0  0  0  0  0  0  0  0  0  0  0
    9.7170   42.6930   19.2710 C   0  0  0  0  0  0  0  0  0  0  0  0
   10.3510   43.9680   19.2700 N   0  0  0  0  0  0  0  0  0  0  0  0
    9.9910   45.0510   18.3470 C   0  0  0  0  0  0  0  0  0  0  0  0
   11.1280   45.3220   17.3610 C   0  0  0  0  0  0  0  0  0  0  0  0
   12.5410   45.2330   17.9640 C   0  0  0  0  0  0  0  0  0  0  0  0
   13.4270   46.3950   17.5320 C   0  0  0  0  0  0  0  0  0  0  0  0
   12.8910   47.0870   16.2670 C   0  0  0  0  0  0  0  0  0  0  0  0
   12.3180   48.4110   16.7150 N   0  0  0  0  0  0  0  0  0  0  0  0
   10.1680   41.6250   20.2690 C   0  0  0  0  0  0  0  0  0  0  0  0
    9.4170   41.1920   21.4160 C   0  0  0  0  0  0  0  0  0  0  0  0
    8.1290   41.7770   21.6910 N   0  0  0  0  0  0  0  0  0  0  0  0
    7.2080   41.6120   22.8130 C   0  0  0  0  0  0  0  0  0  0  0  0
    5.8090   41.5560   22.6250 C   0  0  0  0  0  0  0  0  0  0  0  0
    4.9180   41.4030   23.6940 C   0  0  0  0  0  0  0  0  0  0  0  0
    5.3690   41.2980   25.0030 C   0  0  0  0  0  0  0  0  0  0  0  0
    6.7390   41.3510   25.2210 C   0  0  0  0  0  0  0  0  0  0  0  0
    7.6370   41.5080   24.1630 C   0  0  0  0  0  0  0  0  0  0  0  0
    9.9930   40.1730   22.2490 C   0  0  0  0  0  0  0  0  0  0  0  0
   11.2630   39.5580   22.0440 C   0  0  0  0  0  0  0  0  0  0  0  0
   11.8700   38.4470   22.9470 C   0  0  0  0  0  0  0  0  0  0  0  0
   11.6840   37.0500   22.7070 N   0  0  0  0  0  0  0  0  0  0  0  0
   12.2630   35.9250   23.5450 C   0  0  0  0  0  0  0  0  0  0  0  0
   12.9980   34.8600   22.6750 C   0  0  0  0  0  0  0  0  0  0  0  0
   12.1260   34.3080   21.5620 C   0  0  0  0  0  0  0  0  0  0  0  0
   12.8470   33.3050   20.7160 C   0  0  0  0  0  0  0  0  0  0  0  0
   11.8720   32.7390   19.6490 C   0  0  0  0  0  0  0  0  0  0  0  0
   12.6640   31.9220   18.7320 N   0  0  0  0  0  0  0  0  0  0  0  0
   13.0670   30.7880   19.6010 C   0  0  0  0  0  0  0  0  0  0  0  0
   13.0990   29.5550   18.6870 C   0  0  0  0  0  0  0  0  0  0  0  0
   12.4210   29.9830   17.3820 C   0  0  0  0  0  0  0  0  0  0  0  0
   11.7540   31.3020   17.7230 C   0  0  0  0  0  0  0  0  0  0  0  0
   11.6470   35.4840   20.7300 C   0  0  0  0  0  0  0  0  0  0  0  0
   10.8990   36.4810   21.6140 C   0  0  0  0  0  0  0  0  0  0  0  0
   12.5470   38.7670   23.8880 O   0  0  0  0  0  0  0  0  0  0  0  0
   11.9150   40.0280   20.9180 C   0  0  0  0  0  0  0  0  0  0  0  0
   11.4100   41.0030   20.0750 C   0  0  0  0  0  0  0  0  0  0  0  0
   10.9600   45.0269   20.9299 H   0  0  0  0  0  0  0  0  0  0  0  0
   11.8393   43.4487   20.5550 H   0  0  0  0  0  0  0  0  0  0  0  0
   13.8888   50.6381   15.0674 H   0  0  0  0  0  0  0  0  0  0  0  0
   12.4138   51.4522   15.6219 H   0  0  0  0  0  0  0  0  0  0  0  0
   14.5903   50.7557   17.2636 H   0  0  0  0  0  0  0  0  0  0  0  0
   12.9610   51.0951   17.8750 H   0  0  0  0  0  0  0  0  0  0  0  0
   13.1095   48.8798   18.6488 H   0  0  0  0  0  0  0  0  0  0  0  0
   14.3411   48.4252   17.4585 H   0  0  0  0  0  0  0  0  0  0  0  0
   11.2024   49.5362   15.2576 H   0  0  0  0  0  0  0  0  0  0  0  0
   12.6736   48.7559   14.6136 H   0  0  0  0  0  0  0  0  0  0  0  0
   13.5080   44.6471   19.8006 H   0  0  0  0  0  0  0  0  0  0  0  0
   12.4873   46.1819   19.8691 H   0  0  0  0  0  0  0  0  0  0  0  0
    9.7884   45.9651   18.9245 H   0  0  0  0  0  0  0  0  0  0  0  0
    9.0967   44.7506   17.7813 H   0  0  0  0  0  0  0  0  0  0  0  0
   10.9932   46.3348   16.9534 H   0  0  0  0  0  0  0  0  0  0  0  0
   11.0681   44.5342   16.5956 H   0  0  0  0  0  0  0  0  0  0  0  0
   12.9333   44.2864   17.5641 H   0  0  0  0  0  0  0  0  0  0  0  0
   14.4383   46.0138   17.3272 H   0  0  0  0  0  0  0  0  0  0  0  0
   13.4388   47.1350   18.3458 H   0  0  0  0  0  0  0  0  0  0  0  0
   12.1076   46.4720   15.8000 H   0  0  0  0  0  0  0  0  0  0  0  0
   13.6880   47.2291   15.5223 H   0  0  0  0  0  0  0  0  0  0  0  0
    7.7980   42.4291   20.9656 H   0  0  0  0  0  0  0  0  0  0  0  0
    5.4062   41.6353   21.6045 H   0  0  0  0  0  0  0  0  0  0  0  0
    3.8373   41.3652   23.4925 H   0  0  0  0  0  0  0  0  0  0  0  0
    4.6645   41.1769   25.8391 H   0  0  0  0  0  0  0  0  0  0  0  0
    7.1250   41.2677   26.2477 H   0  0  0  0  0  0  0  0  0  0  0  0
    8.7139   41.5527   24.3828 H   0  0  0  0  0  0  0  0  0  0  0  0
    9.4054   39.8395   23.1171 H   0  0  0  0  0  0  0  0  0  0  0  0
   11.4447   35.4328   24.0910 H   0  0  0  0  0  0  0  0  0  0  0  0
   12.9988   36.3628   24.2355 H   0  0  0  0  0  0  0  0  0  0  0  0
   13.3076   34.0281   23.3246 H   0  0  0  0  0  0  0  0  0  0  0  0
   13.8617   35.3537   22.2058 H   0  0  0  0  0  0  0  0  0  0  0  0
   11.2730   33.7685   21.9995 H   0  0  0  0  0  0  0  0  0  0  0  0
   13.2138   32.4848   21.3506 H   0  0  0  0  0  0  0  0  0  0  0  0
   13.6995   33.7886   20.2167 H   0  0  0  0  0  0  0  0  0  0  0  0
   11.3924   33.5636   19.1012 H   0  0  0  0  0  0  0  0  0  0  0  0
   11.0798   32.1399   20.1218 H   0  0  0  0  0  0  0  0  0  0  0  0
   12.3358   30.6464   20.4105 H   0  0  0  0  0  0  0  0  0  0  0  0
   14.0431   30.9671   20.0754 H   0  0  0  0  0  0  0  0  0  0  0  0
   12.5489   28.7219   19.1488 H   0  0  0  0  0  0  0  0  0  0  0  0
   14.1281   29.2077   18.5128 H   0  0  0  0  0  0  0  0  0  0  0  0
   11.6747   29.2384   17.0679 H   0  0  0  0  0  0  0  0  0  0  0  0
   13.1327   30.0744   16.5483 H   0  0  0  0  0  0  0  0  0  0  0  0
   11.6696   31.9389   16.8301 H   0  0  0  0  0  0  0  0  0  0  0  0
   10.7301   31.1708   18.1031 H   0  0  0  0  0  0  0  0  0  0  0  0
   12.5137   35.9827   20.2716 H   0  0  0  0  0  0  0  0  0  0  0  0
   10.9684   35.1180   19.9454 H   0  0  0  0  0  0  0  0  0  0  0  0
   10.5521   37.3080   20.9770 H   0  0  0  0  0  0  0  0  0  0  0  0
   10.0799   35.9182   22.0855 H   0  0  0  0  0  0  0  0  0  0  0  0
   12.8988   39.5990   20.6769 H   0  0  0  0  0  0  0  0  0  0  0  0
   12.0146   41.3058   19.2074 H   0  0  0  0  0  0  0  0  0  0  0  0
  5  2  1  0
  5 15  1  0
  2  3  1  0
 14 15  1  0
 14 13  1  0
 15  4  1  0
  3  4  1  0
 11 12  1  0
 11 10  1  0
 37 38  1  0
 37 36  1  0
 13 12  1  0
 38 34  1  0
 12  6  1  0
 10  9  1  0
  7  8  2  0
 36 35  1  0
 34 35  1  0
 34 33  1  0
  9  8  1  0
  9  1  1  0
  8 16  1  0
  6  1  1  0
 33 32  1  0
 43 16  2  0
 43 42  1  0
 16 17  1  0
 32 31  1  0
 39 31  1  0
 39 40  1  0
 42 26  2  0
 17 18  1  0
 17 25  2  0
 31 30  1  0
 40 28  1  0
 18 19  1  0
 26 25  1  0
 26 27  1  0
 20 19  2  0
 20 21  1  0
 30 29  1  0
 28 27  1  0
 28 29  1  0
 19 24  1  0
 27 41  2  0
 21 22  2  0
 24 23  2  0
 22 23  1  0
  1 44  1  0
  1 45  1  0
  2 46  1  0
  2 47  1  0
  3 48  1  0
  3 49  1  0
  4 50  1  0
  4 51  1  0
  5 52  1  0
  5 53  1  0
  6 54  1  0
  6 55  1  0
 10 56  1  0
 10 57  1  0
 11 58  1  0
 11 59  1  0
 12 60  1  0
 13 61  1  0
 13 62  1  0
 14 63  1  0
 14 64  1  0
 18 65  1  0
 20 66  1  0
 21 67  1  0
 22 68  1  0
 23 69  1  0
 24 70  1  0
 25 71  1  0
 29 72  1  0
 29 73  1  0
 30 74  1  0
 30 75  1  0
 31 76  1  0
 32 77  1  0
 32 78  1  0
 33 79  1  0
 33 80  1  0
 35 81  1  0
 35 82  1  0
 36 83  1  0
 36 84  1  0
 37 85  1  0
 37 86  1  0
 38 87  1  0
 38 88  1  0
 39 89  1  0
 39 90  1  0
 40 91  1  0
 40 92  1  0
 42 93  1  0
 43 94  1  0
A    1
C15
A    2
C12
A    3
C11
A    4
C10
A    5
C13
A    6
C14
A    7
O01
A    8
C02
A    9
N03
A   10
C04
A   11
C05
A   12
C06
A   13
C07
A   14
C08
A   15
N09
A   16
C16
A   17
C17
A   18
N18
A   19
C19
A   20
C20
A   21
C21
A   22
C22
A   23
C23
A   24
C24
A   25
C25
A   26
C26
A   27
C27
A   28
N28
A   29
C29
A   30
C30
A   31
C31
A   32
C32
A   33
C33
A   34
N34
A   35
C35
A   36
C36
A   37
C37
A   38
C38
A   39
C39
A   40
C40
A   41
O41
A   42
C42
A   43
C43
M  END
