5JSJ_6PD_A_301
     RDKit          3D

110116  0  0  0  0  0  0  0  0999 V2000
   12.7910   -6.2160    3.2750 C   0  0  0  0  0  0  0  0  0  0  0  0
   12.2500   -4.6120    1.3840 C   0  0  0  0  0  0  0  0  0  0  0  0
   13.1810   -7.5710    5.3280 C   0  0  0  0  0  0  0  0  0  0  0  0
   14.5930  -10.7380    4.1170 C   0  0  0  0  0  0  0  0  0  0  0  0
   13.8220  -11.0820    5.3620 C   0  0  0  0  0  0  0  0  0  0  0  0
   12.7580   -9.9850    5.5140 C   0  0  0  0  0  0  0  0  0  0  0  0
   12.4080    0.0150    4.1390 C   0  0  0  0  0  0  0  0  0  0  0  0
   11.5590    1.4120    5.7100 C   0  0  0  0  0  0  0  0  0  0  0  0
   12.6780    1.4890   -1.8150 O   0  0  0  0  0  0  0  0  0  0  0  0
   11.9680    1.5980   -0.8170 C   0  0  0  0  0  0  0  0  0  0  0  0
   11.5030    0.3590   -0.1510 C   0  0  0  0  0  0  0  0  0  0  0  0
   11.9350   -0.0830    1.1020 C   0  0  0  0  0  0  0  0  0  0  0  0
   11.3830   -1.3180    1.6150 C   0  0  0  0  0  0  0  0  0  0  0  0
   10.4730   -2.1180    0.9720 C   0  0  0  0  0  0  0  0  0  0  0  0
   10.0740   -1.6740   -0.2880 C   0  0  0  0  0  0  0  0  0  0  0  0
   10.5930   -0.4720   -0.8030 C   0  0  0  0  0  0  0  0  0  0  0  0
   10.0450   -3.3960    1.6700 C   0  0  0  0  0  0  0  0  0  0  0  0
   10.8780   -4.4820    1.8530 N   0  0  0  0  0  0  0  0  0  0  0  0
   10.4060   -5.6610    2.5960 C   0  0  0  0  0  0  0  0  0  0  0  0
   11.3610   -5.9480    3.7820 C   0  0  0  0  0  0  0  0  0  0  0  0
   13.2450   -5.0450    2.4490 C   0  0  0  0  0  0  0  0  0  0  0  0
   13.8030   -6.5510    4.3940 C   0  0  0  0  0  0  0  0  0  0  0  0
   13.0440   -8.8850    4.5690 N   0  0  0  0  0  0  0  0  0  0  0  0
   14.2830   -9.2810    3.8180 C   0  0  0  0  0  0  0  0  0  0  0  0
    8.9330   -3.4980    2.1760 O   0  0  0  0  0  0  0  0  0  0  0  0
   12.8250    0.6370    1.9050 N   0  0  0  0  0  0  0  0  0  0  0  0
   12.4680    0.9560    3.1770 C   0  0  0  0  0  0  0  0  0  0  0  0
   11.9530    0.2310    5.3870 C   0  0  0  0  0  0  0  0  0  0  0  0
   11.5980    2.3750    4.7640 C   0  0  0  0  0  0  0  0  0  0  0  0
   12.0240    2.1240    3.5100 C   0  0  0  0  0  0  0  0  0  0  0  0
   11.1180    1.6030    6.9290 O   0  0  0  0  0  0  0  0  0  0  0  0
    9.6360    1.3420    6.8710 C   0  0  0  0  0  0  0  0  0  0  0  0
    8.8150    2.7050    6.6440 N   0  0  0  0  0  0  0  0  0  0  0  0
    8.7320    3.2370    5.2300 C   0  0  0  0  0  0  0  0  0  0  0  0
    7.6880    4.3800    5.2520 C   0  0  0  0  0  0  0  0  0  0  0  0
    6.6880    3.9010    6.3080 C   0  0  0  0  0  0  0  0  0  0  0  0
    7.3630    2.6720    7.0150 C   0  0  0  0  0  0  0  0  0  0  0  0
   11.7150    2.9120   -0.3950 N   0  0  0  0  0  0  0  0  0  0  0  0
   12.2540    4.0700   -1.1070 C   0  0  0  0  0  0  0  0  0  0  0  0
   13.2480    4.8230   -0.2220 C   0  0  0  0  0  0  0  0  0  0  0  0
   12.7940    5.0450    1.2330 C   0  0  0  0  0  0  0  0  0  0  0  0
   11.3390    4.6270    1.4360 C   0  0  0  0  0  0  0  0  0  0  0  0
   10.9310    3.3200    0.7540 C   0  0  0  0  0  0  0  0  0  0  0  0
   12.8950    6.4730    1.6450 C   0  0  0  0  0  0  0  0  0  0  0  0
   13.0940    6.6190    3.1400 C   0  0  0  0  0  0  0  0  0  0  0  0
   14.1810    7.6680    3.3930 N   0  0  0  0  0  0  0  0  0  0  0  0
   14.6590    8.4460    2.2250 C   0  0  0  0  0  0  0  0  0  0  0  0
   15.5640    9.5390    2.8360 C   0  0  0  0  0  0  0  0  0  0  0  0
   15.0080    9.7510    4.2480 C   0  0  0  0  0  0  0  0  0  0  0  0
   13.9040    8.6780    4.4420 C   0  0  0  0  0  0  0  0  0  0  0  0
   12.7556   -7.1234    2.6542 H   0  0  0  0  0  0  0  0  0  0  0  0
   12.2669   -5.3575    0.5754 H   0  0  0  0  0  0  0  0  0  0  0  0
   12.5628   -3.6103    1.0542 H   0  0  0  0  0  0  0  0  0  0  0  0
   13.8262   -7.7137    6.2074 H   0  0  0  0  0  0  0  0  0  0  0  0
   12.1950   -7.2235    5.6701 H   0  0  0  0  0  0  0  0  0  0  0  0
   14.2717  -11.3760    3.2805 H   0  0  0  0  0  0  0  0  0  0  0  0
   15.6723  -10.8988    4.2556 H   0  0  0  0  0  0  0  0  0  0  0  0
   13.3438  -12.0669    5.2561 H   0  0  0  0  0  0  0  0  0  0  0  0
   14.4788  -11.1328    6.2430 H   0  0  0  0  0  0  0  0  0  0  0  0
   12.7756   -9.5976    6.5434 H   0  0  0  0  0  0  0  0  0  0  0  0
   11.7650  -10.4055    5.2967 H   0  0  0  0  0  0  0  0  0  0  0  0
   12.7543   -0.9983    3.8875 H   0  0  0  0  0  0  0  0  0  0  0  0
   11.7232   -1.6444    2.6088 H   0  0  0  0  0  0  0  0  0  0  0  0
    9.3554   -2.2619   -0.8778 H   0  0  0  0  0  0  0  0  0  0  0  0
   10.2528   -0.1624   -1.8022 H   0  0  0  0  0  0  0  0  0  0  0  0
    9.3932   -5.4697    2.9802 H   0  0  0  0  0  0  0  0  0  0  0  0
   10.3880   -6.5317    1.9240 H   0  0  0  0  0  0  0  0  0  0  0  0
   11.3733   -5.0779    4.4548 H   0  0  0  0  0  0  0  0  0  0  0  0
   11.0023   -6.8390    4.3182 H   0  0  0  0  0  0  0  0  0  0  0  0
   14.1868   -5.3184    1.9508 H   0  0  0  0  0  0  0  0  0  0  0  0
   13.3596   -4.1961    3.1391 H   0  0  0  0  0  0  0  0  0  0  0  0
   14.7198   -6.9668    3.9506 H   0  0  0  0  0  0  0  0  0  0  0  0
   14.0564   -5.6384    4.9535 H   0  0  0  0  0  0  0  0  0  0  0  0
   15.1260   -8.6507    4.1374 H   0  0  0  0  0  0  0  0  0  0  0  0
   14.1238   -9.1471    2.7379 H   0  0  0  0  0  0  0  0  0  0  0  0
   13.7430    0.9231    1.5358 H   0  0  0  0  0  0  0  0  0  0  0  0
   11.9186   -0.5893    6.1191 H   0  0  0  0  0  0  0  0  0  0  0  0
   11.2729    3.3931    5.0242 H   0  0  0  0  0  0  0  0  0  0  0  0
   11.9935    2.9259    2.7576 H   0  0  0  0  0  0  0  0  0  0  0  0
    9.3150    0.8831    7.8178 H   0  0  0  0  0  0  0  0  0  0  0  0
    9.4335    0.6681    6.0255 H   0  0  0  0  0  0  0  0  0  0  0  0
    8.4098    2.4410    4.5426 H   0  0  0  0  0  0  0  0  0  0  0  0
    9.7110    3.5986    4.8825 H   0  0  0  0  0  0  0  0  0  0  0  0
    8.1500    5.3338    5.5468 H   0  0  0  0  0  0  0  0  0  0  0  0
    7.2291    4.5714    4.2708 H   0  0  0  0  0  0  0  0  0  0  0  0
    6.4896    4.7003    7.0373 H   0  0  0  0  0  0  0  0  0  0  0  0
    5.7237    3.6266    5.8555 H   0  0  0  0  0  0  0  0  0  0  0  0
    7.2487    2.7526    8.1061 H   0  0  0  0  0  0  0  0  0  0  0  0
    6.8954    1.7279    6.6987 H   0  0  0  0  0  0  0  0  0  0  0  0
   12.7662    3.7290   -2.0188 H   0  0  0  0  0  0  0  0  0  0  0  0
   11.4262    4.7453   -1.3693 H   0  0  0  0  0  0  0  0  0  0  0  0
   14.1871    4.2505   -0.2018 H   0  0  0  0  0  0  0  0  0  0  0  0
   13.3530    5.8244   -0.6649 H   0  0  0  0  0  0  0  0  0  0  0  0
   13.4681    4.4271    1.8444 H   0  0  0  0  0  0  0  0  0  0  0  0
   10.6973    5.4295    1.0433 H   0  0  0  0  0  0  0  0  0  0  0  0
   11.2207    4.4553    2.5161 H   0  0  0  0  0  0  0  0  0  0  0  0
    9.8873    3.4282    0.4238 H   0  0  0  0  0  0  0  0  0  0  0  0
   11.0957    2.5369    1.5087 H   0  0  0  0  0  0  0  0  0  0  0  0
   13.7491    6.9328    1.1263 H   0  0  0  0  0  0  0  0  0  0  0  0
   11.9519    6.9717    1.3772 H   0  0  0  0  0  0  0  0  0  0  0  0
   12.1525    6.9417    3.6085 H   0  0  0  0  0  0  0  0  0  0  0  0
   13.3976    5.6543    3.5727 H   0  0  0  0  0  0  0  0  0  0  0  0
   13.8133    8.8975    1.6855 H   0  0  0  0  0  0  0  0  0  0  0  0
   15.1922    7.8203    1.4941 H   0  0  0  0  0  0  0  0  0  0  0  0
   16.6098    9.2003    2.8765 H   0  0  0  0  0  0  0  0  0  0  0  0
   15.5618   10.4647    2.2418 H   0  0  0  0  0  0  0  0  0  0  0  0
   15.8041    9.6189    4.9955 H   0  0  0  0  0  0  0  0  0  0  0  0
   14.6066   10.7675    4.3732 H   0  0  0  0  0  0  0  0  0  0  0  0
   12.9053    9.1181    4.3042 H   0  0  0  0  0  0  0  0  0  0  0  0
   13.9141    8.2450    5.4531 H   0  0  0  0  0  0  0  0  0  0  0  0
  9 10  2  0
 39 38  1  0
 39 40  1  0
 10 38  1  0
 10 11  1  0
 16 15  2  0
 16 11  1  0
 38 43  1  0
 15 14  1  0
 40 41  1  0
 11 12  2  0
 43 42  1  0
 14 13  2  0
 14 17  1  0
 12 13  1  0
 12 26  1  0
 41 42  1  0
 41 44  1  0
  2 18  1  0
  2 21  1  0
 44 45  1  0
 17 18  1  0
 17 25  2  0
 18 19  1  0
 26 27  1  0
 47 48  1  0
 47 46  1  0
 21  1  1  0
 19 20  1  0
 48 49  1  0
 45 46  1  0
 27 30  1  0
 27  7  2  0
  1 20  1  0
  1 22  1  0
 46 50  1  0
 30 29  2  0
 24  4  1  0
 24 23  1  0
  4  5  1  0
  7 28  1  0
 49 50  1  0
 22  3  1  0
 23  3  1  0
 23  6  1  0
 29  8  1  0
 34 35  1  0
 34 33  1  0
 35 36  1  0
  5  6  1  0
 28  8  2  0
  8 31  1  0
 36 37  1  0
 33 32  1  0
 33 37  1  0
 32 31  1  0
  1 51  1  0
  2 52  1  0
  2 53  1  0
  3 54  1  0
  3 55  1  0
  4 56  1  0
  4 57  1  0
  5 58  1  0
  5 59  1  0
  6 60  1  0
  6 61  1  0
  7 62  1  0
 13 63  1  0
 15 64  1  0
 16 65  1  0
 19 66  1  0
 19 67  1  0
 20 68  1  0
 20 69  1  0
 21 70  1  0
 21 71  1  0
 22 72  1  0
 22 73  1  0
 24 74  1  0
 24 75  1  0
 26 76  1  0
 28 77  1  0
 29 78  1  0
 30 79  1  0
 32 80  1  0
 32 81  1  0
 34 82  1  0
 34 83  1  0
 35 84  1  0
 35 85  1  0
 36 86  1  0
 36 87  1  0
 37 88  1  0
 37 89  1  0
 39 90  1  0
 39 91  1  0
 40 92  1  0
 40 93  1  0
 41 94  1  0
 42 95  1  0
 42 96  1  0
 43 97  1  0
 43 98  1  0
 44 99  1  0
 44100  1  0
 45101  1  0
 45102  1  0
 47103  1  0
 47104  1  0
 48105  1  0
 48106  1  0
 49107  1  0
 49108  1  0
 50109  1  0
 50110  1  0
A    1
C13
A    2
C15
A    3
C17
A    4
C20
A    5
C21
A    6
C22
A    7
C26
A    8
C28
A    9
O01
A   10
C02
A   11
C03
A   12
C04
A   13
C05
A   14
C06
A   15
C07
A   16
C08
A   17
C09
A   18
N10
A   19
C11
A   20
C12
A   21
C14
A   22
C16
A   23
N18
A   24
C19
A   25
O23
A   26
N24
A   27
C25
A   28
C27
A   29
C29
A   30
C30
A   31
O31
A   32
C32
A   33
N33
A   34
C34
A   35
C35
A   36
C36
A   37
C37
A   38
N38
A   39
C39
A   40
C40
A   41
C41
A   42
C42
A   43
C43
A   44
C44
A   45
C45
A   46
N46
A   47
C47
A   48
C48
A   49
C49
A   50
C50
M  END
