1A9Y_UPG_A_341
     RDKit          3D

 60 62  0  0  0  0  0  0  0  0999 V2000
  -20.7600   67.3300    3.4550 N   0  0  0  0  0  0  0  0  0  0  0  0
  -19.7810   68.2160    3.8600 C   0  0  0  0  0  0  0  0  0  0  0  0
  -18.5500   67.6270    4.0700 N   0  0  0  0  0  0  0  0  0  0  0  0
  -18.1850   66.2830    3.9320 C   0  0  0  0  0  0  0  0  0  0  0  0
  -19.2350   65.4380    3.5160 C   0  0  0  0  0  0  0  0  0  0  0  0
  -20.4510   65.9710    3.3040 C   0  0  0  0  0  0  0  0  0  0  0  0
  -19.9430   69.4150    4.0020 O   0  0  0  0  0  0  0  0  0  0  0  0
  -17.0350   65.9560    4.1720 O   0  0  0  0  0  0  0  0  0  0  0  0
  -22.1500   67.7970    3.2610 C   0  0  0  0  0  0  0  0  0  0  0  0
  -22.6870   67.6060    1.8510 C   0  0  0  0  0  0  0  0  0  0  0  0
  -22.4150   68.8590    1.1490 O   0  0  0  0  0  0  0  0  0  0  0  0
  -24.2180   67.4900    2.0510 C   0  0  0  0  0  0  0  0  0  0  0  0
  -24.2970   66.7420    3.3730 C   0  0  0  0  0  0  0  0  0  0  0  0
  -22.9700   66.9070    3.9630 O   0  0  0  0  0  0  0  0  0  0  0  0
  -24.8380   68.8210    2.0850 O   0  0  0  0  0  0  0  0  0  0  0  0
  -24.5060   65.2760    3.2190 C   0  0  0  0  0  0  0  0  0  0  0  0
  -23.4210   64.9020    2.3280 O   0  0  0  0  0  0  0  0  0  0  0  0
  -23.0920   63.3360    2.1250 P   0  0  0  0  0  0  0  0  0  0  0  0
  -22.0090   63.0600    1.1510 O   0  0  0  0  0  0  0  0  0  0  0  0
  -23.0270   62.4990    3.3680 O   0  0  0  0  0  0  0  0  0  0  0  0
  -24.6060   63.0340    1.5370 O   0  0  0  0  0  0  0  0  0  0  0  0
  -25.2580   63.0700    0.1440 P   0  0  0  0  0  0  0  0  0  0  0  0
  -26.6020   63.6030    0.4720 O   0  0  0  0  0  0  0  0  0  0  0  0
  -24.5550   63.9430   -0.8150 O   0  0  0  0  0  0  0  0  0  0  0  0
  -25.4060   61.6390   -0.4390 O   0  0  0  0  0  0  0  0  0  0  0  0
  -25.9800   60.5030    0.2580 C   0  0  0  0  0  0  0  0  0  0  0  0
  -25.5390   59.1640   -0.3560 C   0  0  0  0  0  0  0  0  0  0  0  0
  -26.0200   59.0570   -1.8280 C   0  0  0  0  0  0  0  0  0  0  0  0
  -27.5690   59.1860   -1.8910 C   0  0  0  0  0  0  0  0  0  0  0  0
  -28.0520   60.4230   -1.1020 C   0  0  0  0  0  0  0  0  0  0  0  0
  -29.5640   60.4230   -0.8560 C   0  0  0  0  0  0  0  0  0  0  0  0
  -24.0810   59.0710   -0.3210 O   0  0  0  0  0  0  0  0  0  0  0  0
  -25.5480   57.8030   -2.3690 O   0  0  0  0  0  0  0  0  0  0  0  0
  -28.1870   59.3790   -3.1780 O   0  0  0  0  0  0  0  0  0  0  0  0
  -27.4200   60.5760    0.2030 O   0  0  0  0  0  0  0  0  0  0  0  0
  -29.9490   61.6590   -0.1870 O   0  0  0  0  0  0  0  0  0  0  0  0
  -17.7976   68.2637    4.3690 H   0  0  0  0  0  0  0  0  0  0  0  0
  -19.0620   64.3619    3.3676 H   0  0  0  0  0  0  0  0  0  0  0  0
  -21.2592   65.2939    2.9904 H   0  0  0  0  0  0  0  0  0  0  0  0
  -22.1505   68.8582    3.5507 H   0  0  0  0  0  0  0  0  0  0  0  0
  -22.2626   66.7491    1.3073 H   0  0  0  0  0  0  0  0  0  0  0  0
  -22.2585   69.5799    1.8092 H   0  0  0  0  0  0  0  0  0  0  0  0
  -24.7611   66.9736    1.2458 H   0  0  0  0  0  0  0  0  0  0  0  0
  -25.1414   67.1336    3.9592 H   0  0  0  0  0  0  0  0  0  0  0  0
  -24.9682   69.1005    3.0258 H   0  0  0  0  0  0  0  0  0  0  0  0
  -24.4243   64.7580    4.1859 H   0  0  0  0  0  0  0  0  0  0  0  0
  -25.5025   65.0103    2.8363 H   0  0  0  0  0  0  0  0  0  0  0  0
  -23.0726   63.0860    4.1639 H   0  0  0  0  0  0  0  0  0  0  0  0
  -24.0172   64.6109   -0.3203 H   0  0  0  0  0  0  0  0  0  0  0  0
  -25.6225   60.5453    1.2974 H   0  0  0  0  0  0  0  0  0  0  0  0
  -25.9843   58.3443    0.2270 H   0  0  0  0  0  0  0  0  0  0  0  0
  -25.6094   59.8754   -2.4377 H   0  0  0  0  0  0  0  0  0  0  0  0
  -27.8624   58.2022   -1.4960 H   0  0  0  0  0  0  0  0  0  0  0  0
  -27.7628   61.2586   -1.7563 H   0  0  0  0  0  0  0  0  0  0  0  0
  -30.0917   60.3475   -1.8182 H   0  0  0  0  0  0  0  0  0  0  0  0
  -29.8315   59.5650   -0.2218 H   0  0  0  0  0  0  0  0  0  0  0  0
  -23.7741   59.0514    0.6200 H   0  0  0  0  0  0  0  0  0  0  0  0
  -25.3171   57.1896   -1.6271 H   0  0  0  0  0  0  0  0  0  0  0  0
  -29.1245   59.6718   -3.0533 H   0  0  0  0  0  0  0  0  0  0  0  0
  -29.9087   61.5298    0.7937 H   0  0  0  0  0  0  0  0  0  0  0  0
  1  2  1  0
  1  6  1  0
  1  9  1  0
  2  3  1  0
  2  7  2  0
  3  4  1  0
  4  5  1  0
  4  8  2  0
  5  6  2  0
  9 10  1  0
  9 14  1  0
 10 11  1  0
 10 12  1  0
 12 13  1  0
 12 15  1  0
 13 14  1  0
 13 16  1  0
 16 17  1  0
 17 18  1  0
 18 19  2  0
 18 20  1  0
 18 21  1  0
 21 22  1  0
 22 23  2  0
 22 24  1  0
 22 25  1  0
 25 26  1  0
 26 27  1  0
 26 35  1  0
 27 28  1  0
 27 32  1  0
 28 29  1  0
 28 33  1  0
 29 30  1  0
 29 34  1  0
 30 31  1  0
 30 35  1  0
 31 36  1  0
  3 37  1  0
  5 38  1  0
  6 39  1  0
  9 40  1  0
 10 41  1  0
 11 42  1  0
 12 43  1  0
 13 44  1  0
 15 45  1  0
 16 46  1  0
 16 47  1  0
 20 48  1  0
 24 49  1  0
 26 50  1  0
 27 51  1  0
 28 52  1  0
 29 53  1  0
 30 54  1  0
 31 55  1  0
 31 56  1  0
 32 57  1  0
 33 58  1  0
 34 59  1  0
 36 60  1  0
A    1
N1
A    2
C2
A    3
N3
A    4
C4
A    5
C5
A    6
C6
A    7
O2
A    8
O4
A    9
C1C
A   10
C2C
A   11
O2C
A   12
C3C
A   13
C4C
A   14
O4C
A   15
O3C
A   16
C5C
A   17
O5C
A   18
PA
A   19
O1A
A   20
O2A
A   21
O3A
A   22
PB
A   23
O1B
A   24
O2B
A   25
O3B
A   26
C1'
A   27
C2'
A   28
C3'
A   29
C4'
A   30
C5'
A   31
C6'
A   32
O2'
A   33
O3'
A   34
O4'
A   35
O5'
A   36
O6'
M  END
