5JT0_XDX_A_405
     RDKit          3D

 39 39  0  0  0  0  0  0  0  0999 V2000
    0.9590   -7.8570    2.6870 O   0  0  0  0  0  0  0  0  0  0  0  0
    2.0810   -7.3910    1.7810 P   0  0  0  0  0  0  0  0  0  0  0  0
    3.4060   -7.2670    2.5000 O   0  0  0  0  0  0  0  0  0  0  0  0
    1.7220   -6.1290    1.0270 O   0  0  0  0  0  0  0  0  0  0  0  0
    2.2970   -8.5420    0.6570 O   0  0  0  0  0  0  0  0  0  0  0  0
    3.4330   -8.4560   -0.2220 C   0  0  0  0  0  0  0  0  0  0  0  0
    3.0720   -8.8220   -1.6390 C   0  0  0  0  0  0  0  0  0  0  0  0
    1.6570   -8.3110   -2.1120 C   0  0  0  0  0  0  0  0  0  0  0  0
    1.3890   -7.1300   -1.7850 O   0  0  0  0  0  0  0  0  0  0  0  0
    0.8940   -9.0840   -2.7330 O   0  0  0  0  0  0  0  0  0  0  0  0
    3.3760  -10.2100   -1.8700 O   0  0  0  0  0  0  0  0  0  0  0  0
    2.9790  -10.7110   -3.1320 C   0  0  0  0  0  0  0  0  0  0  0  0
    4.0390  -10.6710   -4.0790 O   0  0  0  0  0  0  0  0  0  0  0  0
    5.1690  -11.5000   -3.7580 C   0  0  0  0  0  0  0  0  0  0  0  0
    6.1880  -11.2930   -4.8560 C   0  0  0  0  0  0  0  0  0  0  0  0
    5.5920  -11.4080   -6.1420 O   0  0  0  0  0  0  0  0  0  0  0  0
    4.7150  -12.9500   -3.6260 C   0  0  0  0  0  0  0  0  0  0  0  0
    5.8240  -13.7540   -3.2430 O   0  0  0  0  0  0  0  0  0  0  0  0
    3.6200  -13.0410   -2.5760 C   0  0  0  0  0  0  0  0  0  0  0  0
    3.1730  -14.3830   -2.4300 O   0  0  0  0  0  0  0  0  0  0  0  0
    2.4630  -12.1330   -2.9540 C   0  0  0  0  0  0  0  0  0  0  0  0
    1.4640  -12.1510   -1.9420 O   0  0  0  0  0  0  0  0  0  0  0  0
    1.2300   -7.7444    3.6325 H   0  0  0  0  0  0  0  0  0  0  0  0
    3.2533   -7.2813    3.4781 H   0  0  0  0  0  0  0  0  0  0  0  0
    4.2132   -9.1439    0.1359 H   0  0  0  0  0  0  0  0  0  0  0  0
    3.7913   -7.4160   -0.2177 H   0  0  0  0  0  0  0  0  0  0  0  0
    3.7130   -8.2517   -2.3274 H   0  0  0  0  0  0  0  0  0  0  0  0
    1.3327   -6.8819   -0.8282 H   0  0  0  0  0  0  0  0  0  0  0  0
    2.1794  -10.0696   -3.5310 H   0  0  0  0  0  0  0  0  0  0  0  0
    5.6270  -11.2348   -2.7937 H   0  0  0  0  0  0  0  0  0  0  0  0
    6.9790  -12.0512   -4.7585 H   0  0  0  0  0  0  0  0  0  0  0  0
    6.6055  -10.2802   -4.7560 H   0  0  0  0  0  0  0  0  0  0  0  0
    4.6249  -11.5946   -6.0420 H   0  0  0  0  0  0  0  0  0  0  0  0
    4.3217  -13.3088   -4.5886 H   0  0  0  0  0  0  0  0  0  0  0  0
    5.8778  -13.7930   -2.2552 H   0  0  0  0  0  0  0  0  0  0  0  0
    4.0304  -12.7111   -1.6102 H   0  0  0  0  0  0  0  0  0  0  0  0
    3.0996  -14.6035   -1.4677 H   0  0  0  0  0  0  0  0  0  0  0  0
    2.0193  -12.4929   -3.8940 H   0  0  0  0  0  0  0  0  0  0  0  0
    1.8963  -12.1432   -1.0514 H   0  0  0  0  0  0  0  0  0  0  0  0
 16 15  1  0
 15 14  1  0
 13 14  1  0
 13 12  1  0
 14 17  1  0
 17 18  1  0
 17 19  1  0
 12 21  1  0
 12 11  1  0
 21 19  1  0
 21 22  1  0
 10  8  2  0
 19 20  1  0
  8  7  1  0
  8  9  1  0
 11  7  1  0
  7  6  1  0
  6  5  1  0
  5  2  1  0
  4  2  2  0
  2  3  1  0
  2  1  1  0
  1 23  1  0
  3 24  1  0
  6 25  1  0
  6 26  1  0
  7 27  1  0
  9 28  1  0
 12 29  1  0
 14 30  1  0
 15 31  1  0
 15 32  1  0
 16 33  1  0
 17 34  1  0
 18 35  1  0
 19 36  1  0
 20 37  1  0
 21 38  1  0
 22 39  1  0
A    1
OAN
A    2
PAL
A    3
OAO
A    4
OAP
A    5
OAM
A    6
CAQ
A    7
CAR
A    8
CAS
A    9
OAV
A   10
OAU
A   11
O1
A   12
C1
A   13
O5
A   14
C5
A   15
C6
A   16
O6
A   17
C4
A   18
O4
A   19
C3
A   20
O3
A   21
C2
A   22
O2
M  END
