5JT2_6NC_A_802
     RDKit          3D

125132  0  0  0  0  0  0  0  0999 V2000
  -20.4290  -17.2980  -19.5230 C   0  0  0  0  0  0  0  0  0  0  0  0
  -22.8980  -16.5390  -18.4150 C   0  0  0  0  0  0  0  0  0  0  0  0
  -22.6880  -13.2380  -19.7500 C   0  0  0  0  0  0  0  0  0  0  0  0
  -23.1070  -11.5260  -21.1480 C   0  0  0  0  0  0  0  0  0  0  0  0
  -22.7610  -13.7200  -21.0390 C   0  0  0  0  0  0  0  0  0  0  0  0
  -23.1980   -9.4350  -19.3230 C   0  0  0  0  0  0  0  0  0  0  0  0
  -23.6410   -8.5040  -16.9860 C   0  0  0  0  0  0  0  0  0  0  0  0
  -24.2670  -21.1330  -22.6130 C   0  0  0  0  0  0  0  0  0  0  0  0
  -23.8960  -21.5680  -21.1770 C   0  0  0  0  0  0  0  0  0  0  0  0
  -23.1820  -20.4070  -20.4220 C   0  0  0  0  0  0  0  0  0  0  0  0
  -23.2990  -20.4680  -18.6050 S   0  0  0  0  0  0  0  0  0  0  0  0
  -23.5490  -18.8640  -18.1610 N   0  0  0  0  0  0  0  0  0  0  0  0
  -24.3010  -21.3170  -17.9960 O   0  0  0  0  0  0  0  0  0  0  0  0
  -22.0630  -20.9350  -17.9860 O   0  0  0  0  0  0  0  0  0  0  0  0
  -22.5660  -17.8870  -18.5830 C   0  0  0  0  0  0  0  0  0  0  0  0
  -21.3530  -18.2680  -19.1380 C   0  0  0  0  0  0  0  0  0  0  0  0
  -20.7560  -15.9520  -19.3460 C   0  0  0  0  0  0  0  0  0  0  0  0
  -21.9910  -15.5690  -18.7940 C   0  0  0  0  0  0  0  0  0  0  0  0
  -24.0740  -16.1890  -17.8840 F   0  0  0  0  0  0  0  0  0  0  0  0
  -19.8620  -15.0500  -19.7370 F   0  0  0  0  0  0  0  0  0  0  0  0
  -22.4150  -14.1120  -18.5520 C   0  0  0  0  0  0  0  0  0  0  0  0
  -22.5350  -13.7440  -17.4260 O   0  0  0  0  0  0  0  0  0  0  0  0
  -22.9140  -11.8050  -19.8070 C   0  0  0  0  0  0  0  0  0  0  0  0
  -23.0170  -12.6850  -21.8620 N   0  0  0  0  0  0  0  0  0  0  0  0
  -22.9550  -10.7180  -18.8510 C   0  0  0  0  0  0  0  0  0  0  0  0
  -23.4000   -9.2200  -20.7170 C   0  0  0  0  0  0  0  0  0  0  0  0
  -23.3460  -10.2410  -21.5810 N   0  0  0  0  0  0  0  0  0  0  0  0
  -23.2610   -8.2580  -18.3270 C   0  0  0  0  0  0  0  0  0  0  0  0
  -23.6920   -7.4640  -16.0960 C   0  0  0  0  0  0  0  0  0  0  0  0
  -23.3970   -6.1990  -16.5000 C   0  0  0  0  0  0  0  0  0  0  0  0
  -23.0060   -5.9650  -17.8470 C   0  0  0  0  0  0  0  0  0  0  0  0
  -22.9530   -7.0050  -18.7430 C   0  0  0  0  0  0  0  0  0  0  0  0
  -23.4600   -5.0410  -15.4840 C   0  0  0  0  0  0  0  0  0  0  0  0
  -22.0950   -4.5100  -15.2950 N   0  0  0  0  0  0  0  0  0  0  0  0
  -21.6680   -3.4160  -16.1540 C   0  0  0  0  0  0  0  0  0  0  0  0
  -20.2660   -2.8560  -16.0440 C   0  0  0  0  0  0  0  0  0  0  0  0
  -20.2920   -1.6670  -16.8140 O   0  0  0  0  0  0  0  0  0  0  0  0
  -20.3420   -0.4890  -15.9860 C   0  0  0  0  0  0  0  0  0  0  0  0
  -18.8640   -0.0040  -15.8720 C   0  0  0  0  0  0  0  0  0  0  0  0
  -18.5320    1.1860  -15.0990 N   0  0  0  0  0  0  0  0  0  0  0  0
  -17.1320    1.6120  -15.0610 C   0  0  0  0  0  0  0  0  0  0  0  0
  -14.8250   17.3580  -23.4400 C   0  0  0  0  0  0  0  0  0  0  0  0
  -14.9180   16.8410  -22.0130 C   0  0  0  0  0  0  0  0  0  0  0  0
  -16.3710   16.7730  -21.5190 C   0  0  0  0  0  0  0  0  0  0  0  0
  -16.4650   16.6470  -19.6950 S   0  0  0  0  0  0  0  0  0  0  0  0
  -16.2620   15.0850  -19.1130 N   0  0  0  0  0  0  0  0  0  0  0  0
  -17.7960   17.1290  -19.2790 O   0  0  0  0  0  0  0  0  0  0  0  0
  -15.5270   17.5400  -19.0100 O   0  0  0  0  0  0  0  0  0  0  0  0
  -17.1660   14.0730  -19.5540 C   0  0  0  0  0  0  0  0  0  0  0  0
  -18.2610   14.3540  -20.3400 C   0  0  0  0  0  0  0  0  0  0  0  0
  -19.0990   13.2940  -20.7400 C   0  0  0  0  0  0  0  0  0  0  0  0
  -18.8060   11.9900  -20.3250 C   0  0  0  0  0  0  0  0  0  0  0  0
  -17.7130   11.7400  -19.5370 C   0  0  0  0  0  0  0  0  0  0  0  0
  -16.8720   12.7910  -19.1590 C   0  0  0  0  0  0  0  0  0  0  0  0
  -15.7860   12.5770  -18.3750 F   0  0  0  0  0  0  0  0  0  0  0  0
  -19.6170   10.9480  -20.7060 F   0  0  0  0  0  0  0  0  0  0  0  0
  -17.3680   10.3210  -19.0770 C   0  0  0  0  0  0  0  0  0  0  0  0
  -16.7990    9.3490  -20.1650 C   0  0  0  0  0  0  0  0  0  0  0  0
  -17.5160    9.9750  -17.9550 O   0  0  0  0  0  0  0  0  0  0  0  0
  -16.5970    7.9530  -20.0230 C   0  0  0  0  0  0  0  0  0  0  0  0
  -16.0990    7.5310  -21.2070 C   0  0  0  0  0  0  0  0  0  0  0  0
  -15.9980    8.6000  -22.0760 N   0  0  0  0  0  0  0  0  0  0  0  0
  -16.4070    9.6770  -21.4700 C   0  0  0  0  0  0  0  0  0  0  0  0
  -16.8290    7.0320  -18.9530 C   0  0  0  0  0  0  0  0  0  0  0  0
  -16.5060    5.6930  -19.2110 C   0  0  0  0  0  0  0  0  0  0  0  0
  -15.9950    5.3310  -20.4370 C   0  0  0  0  0  0  0  0  0  0  0  0
  -15.7950    6.2190  -21.3900 N   0  0  0  0  0  0  0  0  0  0  0  0
  -16.6870    4.6200  -18.1650 C   0  0  0  0  0  0  0  0  0  0  0  0
  -16.3830    4.9290  -16.8320 C   0  0  0  0  0  0  0  0  0  0  0  0
  -16.5330    3.9740  -15.8530 C   0  0  0  0  0  0  0  0  0  0  0  0
  -16.9820    2.6810  -16.1980 C   0  0  0  0  0  0  0  0  0  0  0  0
  -17.2950    2.3830  -17.5330 C   0  0  0  0  0  0  0  0  0  0  0  0
  -17.1390    3.3440  -18.5240 C   0  0  0  0  0  0  0  0  0  0  0  0
  -22.4310   -2.9810  -16.9550 O   0  0  0  0  0  0  0  0  0  0  0  0
  -17.9920   -0.5900  -16.4060 O   0  0  0  0  0  0  0  0  0  0  0  0
  -19.4609  -17.5872  -19.9579 H   0  0  0  0  0  0  0  0  0  0  0  0
  -22.6324  -14.7692  -21.3433 H   0  0  0  0  0  0  0  0  0  0  0  0
  -23.8938   -9.5239  -16.6606 H   0  0  0  0  0  0  0  0  0  0  0  0
  -24.9803  -20.2967  -22.5700 H   0  0  0  0  0  0  0  0  0  0  0  0
  -23.3590  -20.8135  -23.1455 H   0  0  0  0  0  0  0  0  0  0  0  0
  -24.7257  -21.9792  -23.1455 H   0  0  0  0  0  0  0  0  0  0  0  0
  -24.8122  -21.8433  -20.6341 H   0  0  0  0  0  0  0  0  0  0  0  0
  -23.2140  -22.4293  -21.2314 H   0  0  0  0  0  0  0  0  0  0  0  0
  -22.1165  -20.4297  -20.6944 H   0  0  0  0  0  0  0  0  0  0  0  0
  -23.6970  -19.4845  -20.7281 H   0  0  0  0  0  0  0  0  0  0  0  0
  -24.3726  -18.5865  -17.6082 H   0  0  0  0  0  0  0  0  0  0  0  0
  -24.2298  -21.2567  -17.0104 H   0  0  0  0  0  0  0  0  0  0  0  0
  -22.1539  -20.9007  -17.0008 H   0  0  0  0  0  0  0  0  0  0  0  0
  -21.1206  -19.3345  -19.2741 H   0  0  0  0  0  0  0  0  0  0  0  0
  -23.1287  -12.7580  -22.8833 H   0  0  0  0  0  0  0  0  0  0  0  0
  -22.7977  -10.9040  -17.7783 H   0  0  0  0  0  0  0  0  0  0  0  0
  -23.6025   -8.2041  -21.0871 H   0  0  0  0  0  0  0  0  0  0  0  0
  -23.9729   -7.6527  -15.0493 H   0  0  0  0  0  0  0  0  0  0  0  0
  -22.7450   -4.9473  -18.1728 H   0  0  0  0  0  0  0  0  0  0  0  0
  -22.6633   -6.8228  -19.7884 H   0  0  0  0  0  0  0  0  0  0  0  0
  -24.1176   -4.2467  -15.8668 H   0  0  0  0  0  0  0  0  0  0  0  0
  -23.8607   -5.4017  -14.5252 H   0  0  0  0  0  0  0  0  0  0  0  0
  -21.4662   -4.9010  -14.5790 H   0  0  0  0  0  0  0  0  0  0  0  0
  -20.0182   -2.6338  -14.9956 H   0  0  0  0  0  0  0  0  0  0  0  0
  -19.5052   -3.5660  -16.4004 H   0  0  0  0  0  0  0  0  0  0  0  0
  -20.9667    0.2855  -16.4549 H   0  0  0  0  0  0  0  0  0  0  0  0
  -20.7823   -0.6988  -15.0000 H   0  0  0  0  0  0  0  0  0  0  0  0
  -19.2604    1.7114  -14.5947 H   0  0  0  0  0  0  0  0  0  0  0  0
  -16.8927    2.0559  -14.0834 H   0  0  0  0  0  0  0  0  0  0  0  0
  -16.4460    0.7647  -15.2077 H   0  0  0  0  0  0  0  0  0  0  0  0
  -14.6303   18.4405  -23.4258 H   0  0  0  0  0  0  0  0  0  0  0  0
  -14.0048   16.8447  -23.9632 H   0  0  0  0  0  0  0  0  0  0  0  0
  -15.7727   17.1627  -23.9632 H   0  0  0  0  0  0  0  0  0  0  0  0
  -14.4813   15.8323  -21.9716 H   0  0  0  0  0  0  0  0  0  0  0  0
  -14.3703   17.5388  -21.3625 H   0  0  0  0  0  0  0  0  0  0  0  0
  -16.8992   17.6828  -21.8406 H   0  0  0  0  0  0  0  0  0  0  0  0
  -16.8357   15.8730  -21.9479 H   0  0  0  0  0  0  0  0  0  0  0  0
  -15.5029   14.8627  -18.4533 H   0  0  0  0  0  0  0  0  0  0  0  0
  -17.8462   17.1472  -18.2904 H   0  0  0  0  0  0  0  0  0  0  0  0
  -15.6318   17.4402  -18.0306 H   0  0  0  0  0  0  0  0  0  0  0  0
  -18.4777   15.3869  -20.6500 H   0  0  0  0  0  0  0  0  0  0  0  0
  -19.9766   13.4900  -21.3735 H   0  0  0  0  0  0  0  0  0  0  0  0
  -15.6548    8.5526  -23.0460 H   0  0  0  0  0  0  0  0  0  0  0  0
  -16.4397   10.6839  -21.9117 H   0  0  0  0  0  0  0  0  0  0  0  0
  -17.2371    7.3561  -17.9843 H   0  0  0  0  0  0  0  0  0  0  0  0
  -15.7478    4.2758  -20.6256 H   0  0  0  0  0  0  0  0  0  0  0  0
  -16.0245    5.9350  -16.5686 H   0  0  0  0  0  0  0  0  0  0  0  0
  -16.3038    4.2173  -14.8050 H   0  0  0  0  0  0  0  0  0  0  0  0
  -17.6664    1.3817  -17.7966 H   0  0  0  0  0  0  0  0  0  0  0  0
  -17.3668    3.1066  -19.5736 H   0  0  0  0  0  0  0  0  0  0  0  0
  1 16  2  0
  1 17  1  0
  2 15  2  0
  2 18  1  0
  2 19  1  0
  3  5  2  0
  3 21  1  0
  3 23  1  0
  4 23  2  0
  4 24  1  0
  4 27  1  0
  5 24  1  0
  6 25  2  0
  6 26  1  0
  6 28  1  0
  7 28  2  0
  7 29  1  0
  8  9  1  0
  9 10  1  0
 10 11  1  0
 11 12  1  0
 11 13  1  0
 11 14  1  0
 12 15  1  0
 15 16  1  0
 17 18  2  0
 17 20  1  0
 18 21  1  0
 21 22  2  0
 23 25  1  0
 26 27  2  0
 28 32  1  0
 29 30  2  0
 30 31  1  0
 30 33  1  0
 31 32  2  0
 33 34  1  0
 34 35  1  0
 35 36  1  0
 35 74  2  0
 36 37  1  0
 37 38  1  0
 38 39  1  0
 39 40  1  0
 39 75  2  0
 40 41  1  0
 41 71  1  0
 42 43  1  0
 43 44  1  0
 44 45  1  0
 45 46  1  0
 45 47  1  0
 45 48  1  0
 46 49  1  0
 49 50  2  0
 49 54  1  0
 50 51  1  0
 51 52  2  0
 52 53  1  0
 52 56  1  0
 53 54  2  0
 53 57  1  0
 54 55  1  0
 57 58  1  0
 57 59  2  0
 58 60  1  0
 58 63  2  0
 60 61  2  0
 60 64  1  0
 61 62  1  0
 61 67  1  0
 62 63  1  0
 64 65  2  0
 65 66  1  0
 65 68  1  0
 66 67  2  0
 68 69  2  0
 68 73  1  0
 69 70  1  0
 70 71  2  0
 71 72  1  0
 72 73  2  0
  1 76  1  0
  5 77  1  0
  7 78  1  0
  8 79  1  0
  8 80  1  0
  8 81  1  0
  9 82  1  0
  9 83  1  0
 10 84  1  0
 10 85  1  0
 12 86  1  0
 13 87  1  0
 14 88  1  0
 16 89  1  0
 24 90  1  0
 25 91  1  0
 26 92  1  0
 29 93  1  0
 31 94  1  0
 32 95  1  0
 33 96  1  0
 33 97  1  0
 34 98  1  0
 36 99  1  0
 36100  1  0
 38101  1  0
 38102  1  0
 40103  1  0
 41104  1  0
 41105  1  0
 42106  1  0
 42107  1  0
 42108  1  0
 43109  1  0
 43110  1  0
 44111  1  0
 44112  1  0
 46113  1  0
 47114  1  0
 48115  1  0
 50116  1  0
 51117  1  0
 62118  1  0
 63119  1  0
 64120  1  0
 66121  1  0
 69122  1  0
 70123  1  0
 72124  1  0
 73125  1  0
A    1
C10
A    2
C13
A    3
C17
A    4
C20
A    5
C22
A    6
C24
A    7
C28
A    8
C01
A    9
C02
A   10
C03
A   11
S04
A   12
N05
A   13
O06
A   14
O07
A   15
C08
A   16
C09
A   17
C11
A   18
C12
A   19
F14
A   20
F15
A   21
C16
A   22
O18
A   23
C19
A   24
N21
A   25
C23
A   26
C25
A   27
N26
A   28
C27
A   29
C29
A   30
C30
A   31
C31
A   32
C32
A   33
C33
A   34
N34
A   35
C35
A   36
C36
A   37
O37
A   38
C38
A   39
C39
A   40
N40
A   41
C41
A   42
C42
A   43
C43
A   44
C44
A   45
S45
A   46
N46
A   47
O47
A   48
O48
A   49
C49
A   50
C50
A   51
C51
A   52
C52
A   53
C53
A   54
C54
A   55
F55
A   56
F56
A   57
C57
A   58
C58
A   59
O59
A   60
C60
A   61
C61
A   62
N62
A   63
C63
A   64
C64
A   65
C65
A   66
C66
A   67
N67
A   68
C68
A   69
C69
A   70
C70
A   71
C71
A   72
C72
A   73
C73
A   74
O74
A   75
O75
M  END
