5JT9_7AF_E_412
     RDKit          3D

 66 66  0  0  0  0  0  0  0  0999 V2000
   15.0620   40.6890  -12.6620 C   0  0  0  0  0  0  0  0  0  0  0  0
   16.3070   40.3010  -13.1870 C   0  0  0  0  0  0  0  0  0  0  0  0
   17.4700   40.4280  -12.4140 C   0  0  0  0  0  0  0  0  0  0  0  0
   13.5910   41.6190  -10.8240 C   0  0  0  0  0  0  0  0  0  0  0  0
   12.6710   40.9390   -8.7510 C   0  0  0  0  0  0  0  0  0  0  0  0
   11.9750   40.0980   -6.6050 C   0  0  0  0  0  0  0  0  0  0  0  0
    9.2730   37.8910   -1.1600 C   0  0  0  0  0  0  0  0  0  0  0  0
    9.1180   36.3700   -1.2950 C   0  0  0  0  0  0  0  0  0  0  0  0
    9.5470   38.2970    0.3020 C   0  0  0  0  0  0  0  0  0  0  0  0
    8.9310   39.3210   -3.8590 C   0  0  0  0  0  0  0  0  0  0  0  0
   10.1660   38.0560   -6.4990 O   0  0  0  0  0  0  0  0  0  0  0  0
   11.5060   38.4680   -5.9360 P   0  0  0  0  0  0  0  0  0  0  0  0
   14.9650   41.2060  -11.3730 C   0  0  0  0  0  0  0  0  0  0  0  0
   17.3770   40.9740  -11.1220 C   0  0  0  0  0  0  0  0  0  0  0  0
   16.1380   41.3430  -10.6050 C   0  0  0  0  0  0  0  0  0  0  0  0
   11.3010   38.7890   -4.1840 N   0  0  0  0  0  0  0  0  0  0  0  0
   10.0680   38.3750   -3.5680 C   0  0  0  0  0  0  0  0  0  0  0  0
   10.4060   38.4210   -2.0700 C   0  0  0  0  0  0  0  0  0  0  0  0
    7.7760   38.8980   -3.8960 O   0  0  0  0  0  0  0  0  0  0  0  0
    9.2510   40.6110   -4.0490 N   0  0  0  0  0  0  0  0  0  0  0  0
   12.5950   37.4700   -6.1840 O   0  0  0  0  0  0  0  0  0  0  0  0
   12.6840   39.9420   -7.8560 N   0  0  0  0  0  0  0  0  0  0  0  0
   11.9520   41.9270   -8.7120 O   0  0  0  0  0  0  0  0  0  0  0  0
   13.3900   40.5890   -9.8170 O   0  0  0  0  0  0  0  0  0  0  0  0
    8.2310   41.6120   -4.3260 C   0  0  0  0  0  0  0  0  0  0  0  0
    7.6040   42.2080   -3.0440 C   0  0  0  0  0  0  0  0  0  0  0  0
    8.6960   42.8780   -2.1730 C   0  0  0  0  0  0  0  0  0  0  0  0
    6.5420   43.2790   -3.4240 C   0  0  0  0  0  0  0  0  0  0  0  0
    7.2560   44.5840   -3.8390 C   0  0  0  0  0  0  0  0  0  0  0  0
    5.6350   42.8740   -4.6250 C   0  0  0  0  0  0  0  0  0  0  0  0
   14.1554   40.5831  -13.2758 H   0  0  0  0  0  0  0  0  0  0  0  0
   16.3691   39.8963  -14.2080 H   0  0  0  0  0  0  0  0  0  0  0  0
   18.4425   40.1046  -12.8135 H   0  0  0  0  0  0  0  0  0  0  0  0
   13.6169   42.6241  -10.3778 H   0  0  0  0  0  0  0  0  0  0  0  0
   12.7948   41.6836  -11.5802 H   0  0  0  0  0  0  0  0  0  0  0  0
   12.6239   40.6139   -5.8820 H   0  0  0  0  0  0  0  0  0  0  0  0
   11.0636   40.6881   -6.7814 H   0  0  0  0  0  0  0  0  0  0  0  0
    8.3225   38.3433   -1.4794 H   0  0  0  0  0  0  0  0  0  0  0  0
    9.0717   35.9159   -0.2942 H   0  0  0  0  0  0  0  0  0  0  0  0
    8.1921   36.1431   -1.8438 H   0  0  0  0  0  0  0  0  0  0  0  0
    9.9791   35.9610   -1.8438 H   0  0  0  0  0  0  0  0  0  0  0  0
    9.0621   37.5784    0.9791 H   0  0  0  0  0  0  0  0  0  0  0  0
   10.6317   38.2987    0.4849 H   0  0  0  0  0  0  0  0  0  0  0  0
    9.1427   39.3035    0.4849 H   0  0  0  0  0  0  0  0  0  0  0  0
   18.2859   41.1102  -10.5176 H   0  0  0  0  0  0  0  0  0  0  0  0
   16.0742   41.7467   -9.5837 H   0  0  0  0  0  0  0  0  0  0  0  0
   12.0675   38.3086   -3.6915 H   0  0  0  0  0  0  0  0  0  0  0  0
    9.7332   37.3937   -3.9355 H   0  0  0  0  0  0  0  0  0  0  0  0
   11.3042   37.8098   -1.8978 H   0  0  0  0  0  0  0  0  0  0  0  0
   10.5608   39.4780   -1.8078 H   0  0  0  0  0  0  0  0  0  0  0  0
   10.2388   40.8984   -3.9977 H   0  0  0  0  0  0  0  0  0  0  0  0
   12.9489   37.1457   -5.3181 H   0  0  0  0  0  0  0  0  0  0  0  0
   13.1952   39.0708   -8.0574 H   0  0  0  0  0  0  0  0  0  0  0  0
    8.6889   42.4281   -4.9041 H   0  0  0  0  0  0  0  0  0  0  0  0
    7.4251   41.1140   -4.8851 H   0  0  0  0  0  0  0  0  0  0  0  0
    7.1302   41.3927   -2.4777 H   0  0  0  0  0  0  0  0  0  0  0  0
    8.4575   42.7316   -1.1092 H   0  0  0  0  0  0  0  0  0  0  0  0
    9.6727   42.4235   -2.3957 H   0  0  0  0  0  0  0  0  0  0  0  0
    8.7333   43.9546   -2.3957 H   0  0  0  0  0  0  0  0  0  0  0  0
    5.9097   43.3951   -2.5314 H   0  0  0  0  0  0  0  0  0  0  0  0
    7.5593   45.1383   -2.9386 H   0  0  0  0  0  0  0  0  0  0  0  0
    8.1466   44.3405   -4.4370 H   0  0  0  0  0  0  0  0  0  0  0  0
    6.5707   45.2027   -4.4370 H   0  0  0  0  0  0  0  0  0  0  0  0
    4.6919   42.4529   -4.2466 H   0  0  0  0  0  0  0  0  0  0  0  0
    5.4203   43.7617   -5.2380 H   0  0  0  0  0  0  0  0  0  0  0  0
    6.1527   42.1215   -5.2380 H   0  0  0  0  0  0  0  0  0  0  0  0
  2  1  2  0
  2  3  1  0
  1 13  1  0
  3 14  2  0
 13  4  1  0
 13 15  2  0
 14 15  1  0
  4 24  1  0
 24  5  1  0
  5 23  2  0
  5 22  1  0
 22  6  1  0
  6 12  1  0
 11 12  2  0
 21 12  1  0
 12 16  1  0
 30 28  1  0
 25 20  1  0
 25 26  1  0
 16 17  1  0
 20 10  1  0
 19 10  2  0
 10 17  1  0
 29 28  1  0
 17 18  1  0
 28 26  1  0
 26 27  1  0
 18  7  1  0
  8  7  1  0
  7  9  1  0
  1 31  1  0
  2 32  1  0
  3 33  1  0
  4 34  1  0
  4 35  1  0
  6 36  1  0
  6 37  1  0
  7 38  1  0
  8 39  1  0
  8 40  1  0
  8 41  1  0
  9 42  1  0
  9 43  1  0
  9 44  1  0
 14 45  1  0
 15 46  1  0
 16 47  1  0
 17 48  1  0
 18 49  1  0
 18 50  1  0
 20 51  1  0
 21 52  1  0
 22 53  1  0
 25 54  1  0
 25 55  1  0
 26 56  1  0
 27 57  1  0
 27 58  1  0
 27 59  1  0
 28 60  1  0
 29 61  1  0
 29 62  1  0
 29 63  1  0
 30 64  1  0
 30 65  1  0
 30 66  1  0
A    1
C1
A    2
C2
A    3
C3
A    4
C7
A    5
C9
A    6
C12
A    7
C19
A    8
C20
A    9
C21
A   10
C22
A   11
O15
A   12
P13
A   13
C6
A   14
C4
A   15
C5
A   16
N16
A   17
C17
A   18
C18
A   19
O23
A   20
N24
A   21
O14
A   22
N11
A   23
O10
A   24
O8
A   25
C25
A   26
C26
A   27
C27
A   28
C28
A   29
C30
A   30
C29
M  END
