5JUZ_YL4_F_403
     RDKit          3D

 51 55  0  0  0  0  0  0  0  0999 V2000
    8.1830   69.2940   25.0410 C   0  0  0  0  0  0  0  0  0  0  0  0
    8.5340   69.1360   23.7360 C   0  0  0  0  0  0  0  0  0  0  0  0
    8.8960   67.9800   23.0340 C   0  0  0  0  0  0  0  0  0  0  0  0
    8.7070   68.4390   21.5500 C   0  0  0  0  0  0  0  0  0  0  0  0
    8.9880   69.8600   21.5860 O   0  0  0  0  0  0  0  0  0  0  0  0
    8.6190   70.2010   22.8650 C   0  0  0  0  0  0  0  0  0  0  0  0
    8.3280   71.4370   23.2960 C   0  0  0  0  0  0  0  0  0  0  0  0
    7.9480   71.6600   24.6150 C   0  0  0  0  0  0  0  0  0  0  0  0
    7.8710   70.5780   25.5190 C   0  0  0  0  0  0  0  0  0  0  0  0
    7.4870   70.8060   26.8520 C   0  0  0  0  0  0  0  0  0  0  0  0
    8.8810   71.7280   27.7950 P   0  0  0  0  0  0  0  0  0  0  0  0
    8.5760   71.7140   29.4460 O   0  0  0  0  0  0  0  0  0  0  0  0
   10.3340   70.9570   27.5050 O   0  0  0  0  0  0  0  0  0  0  0  0
    8.7500   73.3540   27.2820 O   0  0  0  0  0  0  0  0  0  0  0  0
    6.2770   71.6920   26.8870 N   0  0  0  0  0  0  0  0  0  0  0  0
    5.0680   71.3350   27.3580 C   0  0  0  0  0  0  0  0  0  0  0  0
    4.7430   70.0170   27.4340 N   0  0  0  0  0  0  0  0  0  0  0  0
    3.4990   69.6360   27.9220 C   0  0  0  0  0  0  0  0  0  0  0  0
    2.6300   70.6580   28.3090 N   0  0  0  0  0  0  0  0  0  0  0  0
    2.9970   71.9600   28.2130 C   0  0  0  0  0  0  0  0  0  0  0  0
    2.1310   73.3710   28.6090 S   0  0  0  0  0  0  0  0  0  0  0  0
    4.2140   72.3420   27.7350 C   0  0  0  0  0  0  0  0  0  0  0  0
    4.3710   73.7250   27.7150 C   0  0  0  0  0  0  0  0  0  0  0  0
    3.3300   74.4770   28.1690 C   0  0  0  0  0  0  0  0  0  0  0  0
    3.2190   75.8600   28.2400 C   0  0  0  0  0  0  0  0  0  0  0  0
    1.9490   76.4530   28.1470 C   0  0  0  0  0  0  0  0  0  0  0  0
    1.7740   77.8340   28.2050 C   0  0  0  0  0  0  0  0  0  0  0  0
    2.8460   78.7120   28.3560 C   0  0  0  0  0  0  0  0  0  0  0  0
    2.5770   80.1040   28.3900 C   0  0  0  0  0  0  0  0  0  0  0  0
    4.1330   78.1660   28.4480 C   0  0  0  0  0  0  0  0  0  0  0  0
    4.3070   76.7690   28.3850 C   0  0  0  0  0  0  0  0  0  0  0  0
    8.1439   68.4255   25.7149 H   0  0  0  0  0  0  0  0  0  0  0  0
    8.2337   67.1370   23.2806 H   0  0  0  0  0  0  0  0  0  0  0  0
    9.9084   67.6162   23.2638 H   0  0  0  0  0  0  0  0  0  0  0  0
    7.6775   68.2522   21.2107 H   0  0  0  0  0  0  0  0  0  0  0  0
    9.3599   67.8951   20.8514 H   0  0  0  0  0  0  0  0  0  0  0  0
    8.3906   72.2847   22.5978 H   0  0  0  0  0  0  0  0  0  0  0  0
    7.7076   72.6785   24.9538 H   0  0  0  0  0  0  0  0  0  0  0  0
    7.2800   69.8309   27.3171 H   0  0  0  0  0  0  0  0  0  0  0  0
    9.4329   71.7533   29.9402 H   0  0  0  0  0  0  0  0  0  0  0  0
   10.7642   70.7287   28.3669 H   0  0  0  0  0  0  0  0  0  0  0  0
    6.3797   72.6495   26.5216 H   0  0  0  0  0  0  0  0  0  0  0  0
    3.2118   68.5770   27.9999 H   0  0  0  0  0  0  0  0  0  0  0  0
    5.2972   74.1912   27.3478 H   0  0  0  0  0  0  0  0  0  0  0  0
    1.0665   75.8079   28.0248 H   0  0  0  0  0  0  0  0  0  0  0  0
    0.7565   78.2449   28.1291 H   0  0  0  0  0  0  0  0  0  0  0  0
    2.5122   80.4395   29.4356 H   0  0  0  0  0  0  0  0  0  0  0  0
    3.3869   80.6465   27.8804 H   0  0  0  0  0  0  0  0  0  0  0  0
    1.6233   80.3057   27.8804 H   0  0  0  0  0  0  0  0  0  0  0  0
    5.0049   78.8257   28.5690 H   0  0  0  0  0  0  0  0  0  0  0  0
    5.3270   76.3624   28.4506 H   0  0  0  0  0  0  0  0  0  0  0  0
  4  5  1  0
  4  3  1  0
  5  6  1  0
  6  7  2  0
  6  2  1  0
  3  2  1  0
  7  8  1  0
  2  1  2  0
  8  9  2  0
  1  9  1  0
  9 10  1  0
 10 15  1  0
 10 11  1  0
 15 16  1  0
 14 11  2  0
 16 17  2  0
 16 22  1  0
 17 18  1  0
 13 11  1  0
 23 22  1  0
 23 24  2  0
 22 20  2  0
 11 12  1  0
 18 19  2  0
 26 27  2  0
 26 25  1  0
 24 25  1  0
 24 21  1  0
 27 28  1  0
 20 19  1  0
 20 21  1  0
 25 31  2  0
 28 29  1  0
 28 30  2  0
 31 30  1  0
  1 32  1  0
  3 33  1  0
  3 34  1  0
  4 35  1  0
  4 36  1  0
  7 37  1  0
  8 38  1  0
 10 39  1  0
 12 40  1  0
 13 41  1  0
 15 42  1  0
 18 43  1  0
 23 44  1  0
 26 45  1  0
 27 46  1  0
 29 47  1  0
 29 48  1  0
 29 49  1  0
 30 50  1  0
 31 51  1  0
A    1
CAT
A    2
CAU
A    3
CAY
A    4
CAZ
A    5
OBA
A    6
CAV
A    7
CAW
A    8
CAX
A    9
CAS
A   10
CAR
A   11
PBB
A   12
OBD
A   13
OBE
A   14
OBC
A   15
NAQ
A   16
C4
A   17
N3
A   18
C2
A   19
N1
A   20
C6
A   21
SAI
A   22
C5
A   23
CAL
A   24
CAH
A   25
CAE
A   26
CAD
A   27
CAC
A   28
CAB
A   29
CAA
A   30
CAG
A   31
CAF
M  END
