5JV0_YL5_F_403
     RDKit          3D

 49 52  0  0  0  0  0  0  0  0999 V2000
    3.4450   68.4790   29.8440 C   0  0  0  0  0  0  0  0  0  0  0  0
    4.7060   68.6530   30.4150 C   0  0  0  0  0  0  0  0  0  0  0  0
    5.5460   67.7120   30.2850 F   0  0  0  0  0  0  0  0  0  0  0  0
    5.0570   69.8290   31.1030 C   0  0  0  0  0  0  0  0  0  0  0  0
    4.1220   70.8510   31.2270 C   0  0  0  0  0  0  0  0  0  0  0  0
    2.8570   70.6750   30.6630 C   0  0  0  0  0  0  0  0  0  0  0  0
    2.5100   69.5000   29.9600 C   0  0  0  0  0  0  0  0  0  0  0  0
    1.2630   69.3420   29.3880 C   0  0  0  0  0  0  0  0  0  0  0  0
    1.2610   69.9920   27.9580 C   0  0  0  0  0  0  0  0  0  0  0  0
   -0.5050   70.0990   27.2670 P   0  0  0  0  0  0  0  0  0  0  0  0
   -1.4000   70.4230   28.6420 O   0  0  0  0  0  0  0  0  0  0  0  0
   -0.6030   71.2050   26.2830 O   0  0  0  0  0  0  0  0  0  0  0  0
   -0.8470   68.7440   26.7590 O   0  0  0  0  0  0  0  0  0  0  0  0
    1.8990   71.3450   27.8960 N   0  0  0  0  0  0  0  0  0  0  0  0
    3.2120   71.5240   27.5840 C   0  0  0  0  0  0  0  0  0  0  0  0
    3.9830   70.4330   27.3400 N   0  0  0  0  0  0  0  0  0  0  0  0
    5.3410   70.5730   27.0360 C   0  0  0  0  0  0  0  0  0  0  0  0
    5.8530   71.8700   26.9900 N   0  0  0  0  0  0  0  0  0  0  0  0
    5.0440   72.9270   27.2370 C   0  0  0  0  0  0  0  0  0  0  0  0
    5.4210   74.5880   27.2310 S   0  0  0  0  0  0  0  0  0  0  0  0
    3.7200   72.7910   27.5470 C   0  0  0  0  0  0  0  0  0  0  0  0
    3.1080   74.0070   27.7630 C   0  0  0  0  0  0  0  0  0  0  0  0
    3.8920   75.1220   27.6520 C   0  0  0  0  0  0  0  0  0  0  0  0
    3.5490   76.4460   27.7660 C   0  0  0  0  0  0  0  0  0  0  0  0
    2.2060   76.8800   27.7340 C   0  0  0  0  0  0  0  0  0  0  0  0
    1.8910   78.2350   27.7950 C   0  0  0  0  0  0  0  0  0  0  0  0
    2.8880   79.2050   27.8880 C   0  0  0  0  0  0  0  0  0  0  0  0
    2.5430   80.5620   27.9530 C   0  0  0  0  0  0  0  0  0  0  0  0
    4.2160   78.8010   27.9020 C   0  0  0  0  0  0  0  0  0  0  0  0
    4.5440   77.4480   27.8320 C   0  0  0  0  0  0  0  0  0  0  0  0
    3.1954   67.5496   29.3112 H   0  0  0  0  0  0  0  0  0  0  0  0
    6.0611   69.9390   31.5385 H   0  0  0  0  0  0  0  0  0  0  0  0
    4.3742   71.7801   31.7592 H   0  0  0  0  0  0  0  0  0  0  0  0
    2.1089   71.4745   30.7692 H   0  0  0  0  0  0  0  0  0  0  0  0
    0.5057   69.8339   30.0162 H   0  0  0  0  0  0  0  0  0  0  0  0
    1.0287   68.2704   29.3057 H   0  0  0  0  0  0  0  0  0  0  0  0
    1.8765   69.3227   27.3390 H   0  0  0  0  0  0  0  0  0  0  0  0
   -0.8550   70.2257   29.4446 H   0  0  0  0  0  0  0  0  0  0  0  0
   -1.0009   68.1341   27.5235 H   0  0  0  0  0  0  0  0  0  0  0  0
    1.3214   72.1736   28.0975 H   0  0  0  0  0  0  0  0  0  0  0  0
    5.9782   69.6977   26.8415 H   0  0  0  0  0  0  0  0  0  0  0  0
    2.0391   74.0773   28.0129 H   0  0  0  0  0  0  0  0  0  0  0  0
    1.3975   76.1378   27.6599 H   0  0  0  0  0  0  0  0  0  0  0  0
    0.8361   78.5457   27.7693 H   0  0  0  0  0  0  0  0  0  0  0  0
    2.4646   80.8704   29.0060 H   0  0  0  0  0  0  0  0  0  0  0  0
    3.3173   81.1616   27.4520 H   0  0  0  0  0  0  0  0  0  0  0  0
    1.5764   80.7190   27.4520 H   0  0  0  0  0  0  0  0  0  0  0  0
    5.0152   79.5539   27.9688 H   0  0  0  0  0  0  0  0  0  0  0  0
    5.6036   77.1526   27.8280 H   0  0  0  0  0  0  0  0  0  0  0  0
 12 10  2  0
 13 10  1  0
 18 17  1  0
 18 19  2  0
 17 16  2  0
 20 19  1  0
 20 23  1  0
 19 21  1  0
 10  9  1  0
 10 11  1  0
 16 15  1  0
 21 15  2  0
 21 22  1  0
 15 14  1  0
 23 22  2  0
 23 24  1  0
 25 24  2  0
 25 26  1  0
 24 30  1  0
 26 27  2  0
 30 29  2  0
 27 29  1  0
 27 28  1  0
 14  9  1  0
  9  8  1  0
  8  7  1  0
  1  7  2  0
  1  2  1  0
  7  6  1  0
  3  2  1  0
  2  4  2  0
  6  5  2  0
  4  5  1  0
  1 31  1  0
  4 32  1  0
  5 33  1  0
  6 34  1  0
  8 35  1  0
  8 36  1  0
  9 37  1  0
 11 38  1  0
 13 39  1  0
 14 40  1  0
 17 41  1  0
 22 42  1  0
 25 43  1  0
 26 44  1  0
 28 45  1  0
 28 46  1  0
 28 47  1  0
 29 48  1  0
 30 49  1  0
A    1
CAY
A    2
CAZ
A    3
FBD
A    4
CBA
A    5
CBB
A    6
CBC
A    7
CAX
A    8
CAV
A    9
CAC
A   10
PAA
A   11
OAD
A   12
OAU
A   13
OAE
A   14
NAB
A   15
C4
A   16
N3
A   17
C2
A   18
N1
A   19
C6
A   20
SAN
A   21
C5
A   22
CAL
A   23
CAM
A   24
CAO
A   25
CAP
A   26
CAQ
A   27
CAR
A   28
CAW
A   29
CAS
A   30
CAT
M  END
