5JV2_6O3_F_404
     RDKit          3D

 34 36  0  0  0  0  0  0  0  0999 V2000
    5.6030   74.4340   25.3740 O   0  0  0  0  0  0  0  0  0  0  0  0
    6.8840   73.7030   26.1500 P   0  0  0  0  0  0  0  0  0  0  0  0
    6.9190   72.1680   25.5150 O   0  0  0  0  0  0  0  0  0  0  0  0
    8.2040   74.4230   26.0640 O   0  0  0  0  0  0  0  0  0  0  0  0
    6.5230   73.6860   27.8050 C   0  0  0  0  0  0  0  0  0  0  0  0
    5.0840   73.1020   28.1470 C   0  0  0  0  0  0  0  0  0  0  0  0
    4.9680   71.7130   28.2620 C   0  0  0  0  0  0  0  0  0  0  0  0
    5.9310   70.7630   28.0820 C   0  0  0  0  0  0  0  0  0  0  0  0
    5.6870   69.3750   28.2040 N   0  0  0  0  0  0  0  0  0  0  0  0
    4.4000   68.9470   28.5330 C   0  0  0  0  0  0  0  0  0  0  0  0
    3.4240   69.9430   28.7220 N   0  0  0  0  0  0  0  0  0  0  0  0
    3.7140   71.2620   28.5880 C   0  0  0  0  0  0  0  0  0  0  0  0
    2.6920   72.6050   28.8000 S   0  0  0  0  0  0  0  0  0  0  0  0
    3.9450   73.8730   28.4390 C   0  0  0  0  0  0  0  0  0  0  0  0
    3.6950   75.2620   28.3730 C   0  0  0  0  0  0  0  0  0  0  0  0
    4.6340   76.3170   28.6220 C   0  0  0  0  0  0  0  0  0  0  0  0
    4.3280   77.6800   28.4820 C   0  0  0  0  0  0  0  0  0  0  0  0
    3.0540   78.0930   28.0910 C   0  0  0  0  0  0  0  0  0  0  0  0
    2.7720   79.4760   27.9690 C   0  0  0  0  0  0  0  0  0  0  0  0
    2.0990   77.0960   27.8170 C   0  0  0  0  0  0  0  0  0  0  0  0
    2.4120   75.7240   27.9490 C   0  0  0  0  0  0  0  0  0  0  0  0
    6.9341   71.5065   26.2514 H   0  0  0  0  0  0  0  0  0  0  0  0
    8.5400   74.6063   26.9770 H   0  0  0  0  0  0  0  0  0  0  0  0
    7.2769   73.0702   28.3172 H   0  0  0  0  0  0  0  0  0  0  0  0
    6.5303   74.7327   28.1432 H   0  0  0  0  0  0  0  0  0  0  0  0
    6.9492   71.0935   27.8291 H   0  0  0  0  0  0  0  0  0  0  0  0
    4.1593   67.8790   28.6398 H   0  0  0  0  0  0  0  0  0  0  0  0
    5.6506   76.0430   28.9404 H   0  0  0  0  0  0  0  0  0  0  0  0
    5.1039   78.4332   28.6835 H   0  0  0  0  0  0  0  0  0  0  0  0
    2.6812   79.9214   28.9707 H   0  0  0  0  0  0  0  0  0  0  0  0
    3.5880   79.9696   27.4208 H   0  0  0  0  0  0  0  0  0  0  0  0
    1.8279   79.6107   27.4208 H   0  0  0  0  0  0  0  0  0  0  0  0
    1.0895   77.3903   27.4939 H   0  0  0  0  0  0  0  0  0  0  0  0
    1.6350   74.9812   27.7154 H   0  0  0  0  0  0  0  0  0  0  0  0
  1  2  2  0
  3  2  1  0
  4  2  1  0
  2  5  1  0
  5  6  1  0
 20 21  2  0
 20 18  1  0
 21 15  1  0
 19 18  1  0
  8  9  1  0
  8  7  2  0
 18 17  2  0
  6  7  1  0
  6 14  2  0
  9 10  2  0
  7 12  1  0
 15 14  1  0
 15 16  2  0
 14 13  1  0
 17 16  1  0
 10 11  1  0
 12 11  2  0
 12 13  1  0
  3 22  1  0
  4 23  1  0
  5 24  1  0
  5 25  1  0
  8 26  1  0
 10 27  1  0
 16 28  1  0
 17 29  1  0
 19 30  1  0
 19 31  1  0
 19 32  1  0
 20 33  1  0
 21 34  1  0
A    1
OAS
A    2
PAR
A    3
OAT
A    4
OAU
A    5
CAQ
A    6
CAC
A    7
C5
A    8
C6
A    9
N1
A   10
C2
A   11
N3
A   12
C4
A   13
SAE
A   14
CAD
A   15
CAJ
A   16
CAK
A   17
CAL
A   18
CAM
A   19
CAP
A   20
CAN
A   21
CAO
M  END
