5JVD_6NL_B_501
     RDKit          3D

 43 45  0  0  0  0  0  0  0  0999 V2000
   16.6840   61.2770   47.4260 C   0  0  0  0  0  0  0  0  0  0  0  0
   17.3320   62.5500   47.4610 O   0  0  0  0  0  0  0  0  0  0  0  0
   17.4700   63.2820   46.2930 C   0  0  0  0  0  0  0  0  0  0  0  0
   17.9890   64.5740   46.3420 C   0  0  0  0  0  0  0  0  0  0  0  0
   18.1910   65.3140   45.1580 C   0  0  0  0  0  0  0  0  0  0  0  0
   18.1870   65.1300   47.5910 O   0  0  0  0  0  0  0  0  0  0  0  0
   17.3110   62.6560   45.0570 C   0  0  0  0  0  0  0  0  0  0  0  0
   17.4960   63.3800   43.8740 C   0  0  0  0  0  0  0  0  0  0  0  0
   17.9550   64.6980   43.9220 C   0  0  0  0  0  0  0  0  0  0  0  0
   18.1770   65.4460   42.6710 C   0  0  0  0  0  0  0  0  0  0  0  0
   18.8560   66.6210   42.4480 C   0  0  0  0  0  0  0  0  0  0  0  0
   19.5570   67.4750   43.4880 C   0  0  0  0  0  0  0  0  0  0  0  0
   18.8930   67.0960   41.0570 C   0  0  0  0  0  0  0  0  0  0  0  0
   19.7740   67.8840   40.6960 O   0  0  0  0  0  0  0  0  0  0  0  0
   17.9180   66.6360   40.0540 C   0  0  0  0  0  0  0  0  0  0  0  0
   16.5510   66.4910   40.3580 C   0  0  0  0  0  0  0  0  0  0  0  0
   18.4020   66.3320   38.7770 C   0  0  0  0  0  0  0  0  0  0  0  0
   17.4790   65.8840   37.8360 C   0  0  0  0  0  0  0  0  0  0  0  0
   17.7110   65.5480   36.5360 O   0  0  0  0  0  0  0  0  0  0  0  0
   16.3690   65.4910   36.0150 C   0  0  0  0  0  0  0  0  0  0  0  0
   15.4170   65.2890   37.0710 O   0  0  0  0  0  0  0  0  0  0  0  0
   16.1270   65.7360   38.1410 C   0  0  0  0  0  0  0  0  0  0  0  0
   15.6400   66.0220   39.4090 C   0  0  0  0  0  0  0  0  0  0  0  0
   14.2900   65.8440   39.6310 O   0  0  0  0  0  0  0  0  0  0  0  0
   13.7920   65.9650   40.9610 C   0  0  0  0  0  0  0  0  0  0  0  0
   16.5062   60.9277   48.4538 H   0  0  0  0  0  0  0  0  0  0  0  0
   15.7231   61.3691   46.8986 H   0  0  0  0  0  0  0  0  0  0  0  0
   17.3239   60.5542   46.8986 H   0  0  0  0  0  0  0  0  0  0  0  0
   18.5290   66.3598   45.2046 H   0  0  0  0  0  0  0  0  0  0  0  0
   17.9979   64.5990   48.4049 H   0  0  0  0  0  0  0  0  0  0  0  0
   17.0396   61.5910   45.0120 H   0  0  0  0  0  0  0  0  0  0  0  0
   17.2793   62.9097   42.9035 H   0  0  0  0  0  0  0  0  0  0  0  0
   17.7288   64.9927   41.7745 H   0  0  0  0  0  0  0  0  0  0  0  0
   19.2754   67.1319   44.4945 H   0  0  0  0  0  0  0  0  0  0  0  0
   20.6461   67.3862   43.3617 H   0  0  0  0  0  0  0  0  0  0  0  0
   19.2577   68.5259   43.3617 H   0  0  0  0  0  0  0  0  0  0  0  0
   16.1928   66.7527   41.3646 H   0  0  0  0  0  0  0  0  0  0  0  0
   19.4675   66.4424   38.5269 H   0  0  0  0  0  0  0  0  0  0  0  0
   16.1417   66.4368   35.5014 H   0  0  0  0  0  0  0  0  0  0  0  0
   16.3001   64.6464   35.3136 H   0  0  0  0  0  0  0  0  0  0  0  0
   14.6043   65.7676   41.6760 H   0  0  0  0  0  0  0  0  0  0  0  0
   13.4058   66.9831   41.1167 H   0  0  0  0  0  0  0  0  0  0  0  0
   12.9816   65.2376   41.1167 H   0  0  0  0  0  0  0  0  0  0  0  0
 20 19  1  0
 20 21  1  0
 19 18  1  0
 21 22  1  0
 18 22  2  0
 18 17  1  0
 22 23  1  0
 17 15  2  0
 23 24  1  0
 23 16  2  0
 24 25  1  0
 15 16  1  0
 15 13  1  0
 14 13  2  0
 13 11  1  0
 11 10  2  0
 11 12  1  0
 10  9  1  0
  8  9  2  0
  8  7  1  0
  9  5  1  0
  7  3  2  0
  5  4  2  0
  3  4  1  0
  3  2  1  0
  4  6  1  0
  1  2  1  0
  1 26  1  0
  1 27  1  0
  1 28  1  0
  5 29  1  0
  6 30  1  0
  7 31  1  0
  8 32  1  0
 10 33  1  0
 12 34  1  0
 12 35  1  0
 12 36  1  0
 16 37  1  0
 17 38  1  0
 20 39  1  0
 20 40  1  0
 25 41  1  0
 25 42  1  0
 25 43  1  0
A    1
CAI
A    2
OAH
A    3
CAE
A    4
CAF
A    5
CAA
A    6
OAG
A    7
CAD
A    8
CAC
A    9
CAB
A   10
CAJ
A   11
CAK
A   12
CAM
A   13
CAL
A   14
OAN
A   15
CAO
A   16
CAT
A   17
CAP
A   18
CAQ
A   19
OAW
A   20
CAX
A   21
OAY
A   22
CAR
A   23
CAS
A   24
OAU
A   25
CAV
M  END
