5JVI_6QC_E_411
     RDKit          3D

 63 63  0  0  0  0  0  0  0  0999 V2000
   16.1670   41.3520  -10.6390 C   0  0  0  0  0  0  0  0  0  0  0  0
   17.4220   40.9910  -11.1100 C   0  0  0  0  0  0  0  0  0  0  0  0
   17.5720   40.4250  -12.3850 C   0  0  0  0  0  0  0  0  0  0  0  0
   13.6580   41.6140  -10.8750 C   0  0  0  0  0  0  0  0  0  0  0  0
   12.6710   40.8970   -8.8340 C   0  0  0  0  0  0  0  0  0  0  0  0
   11.9850   40.1170   -6.6920 C   0  0  0  0  0  0  0  0  0  0  0  0
    9.3500   37.9610   -1.2030 C   0  0  0  0  0  0  0  0  0  0  0  0
    9.1840   36.4430   -1.3410 C   0  0  0  0  0  0  0  0  0  0  0  0
    9.6170   38.3930    0.2550 C   0  0  0  0  0  0  0  0  0  0  0  0
    8.8880   39.2900   -3.9160 C   0  0  0  0  0  0  0  0  0  0  0  0
    8.4440   42.6220   -1.9660 C   0  0  0  0  0  0  0  0  0  0  0  0
   10.1660   38.0870   -6.5440 O   0  0  0  0  0  0  0  0  0  0  0  0
   11.5120   38.5090   -5.9760 P   0  0  0  0  0  0  0  0  0  0  0  0
   15.0170   41.1860  -11.4310 C   0  0  0  0  0  0  0  0  0  0  0  0
   16.4170   40.2900  -13.1720 C   0  0  0  0  0  0  0  0  0  0  0  0
   15.1400   40.6590  -12.7070 C   0  0  0  0  0  0  0  0  0  0  0  0
   11.2960   38.9010   -4.3060 N   0  0  0  0  0  0  0  0  0  0  0  0
   10.1060   38.4330   -3.6240 C   0  0  0  0  0  0  0  0  0  0  0  0
   10.4370   38.4950   -2.1260 C   0  0  0  0  0  0  0  0  0  0  0  0
    7.7610   38.7970   -3.8840 O   0  0  0  0  0  0  0  0  0  0  0  0
    9.1110   40.5850   -4.1210 N   0  0  0  0  0  0  0  0  0  0  0  0
    8.0350   41.5480   -4.3520 C   0  0  0  0  0  0  0  0  0  0  0  0
    8.2680   42.8380   -3.4740 C   0  0  0  0  0  0  0  0  0  0  0  0
    7.2130   43.9170   -3.7790 C   0  0  0  0  0  0  0  0  0  0  0  0
    5.8590   43.2780   -3.5270 C   0  0  0  0  0  0  0  0  0  0  0  0
   12.5870   37.5020   -6.2010 O   0  0  0  0  0  0  0  0  0  0  0  0
   12.7420   39.9440   -7.9050 N   0  0  0  0  0  0  0  0  0  0  0  0
   11.9890   41.9080   -8.7830 O   0  0  0  0  0  0  0  0  0  0  0  0
   13.4690   40.5870   -9.8520 O   0  0  0  0  0  0  0  0  0  0  0  0
   16.0705   41.7754   -9.6283 H   0  0  0  0  0  0  0  0  0  0  0  0
   18.3076   41.1503  -10.4773 H   0  0  0  0  0  0  0  0  0  0  0  0
   18.5560   40.0997  -12.7537 H   0  0  0  0  0  0  0  0  0  0  0  0
   13.6946   42.6232  -10.4388 H   0  0  0  0  0  0  0  0  0  0  0  0
   12.8518   41.6801  -11.6204 H   0  0  0  0  0  0  0  0  0  0  0  0
   12.5966   40.6686   -5.9628 H   0  0  0  0  0  0  0  0  0  0  0  0
   11.0679   40.6758   -6.9302 H   0  0  0  0  0  0  0  0  0  0  0  0
    8.3907   38.4040   -1.5088 H   0  0  0  0  0  0  0  0  0  0  0  0
    9.1342   35.9872   -0.3411 H   0  0  0  0  0  0  0  0  0  0  0  0
    8.2566   36.2240   -1.8904 H   0  0  0  0  0  0  0  0  0  0  0  0
   10.0422   36.0287   -1.8904 H   0  0  0  0  0  0  0  0  0  0  0  0
    9.1655   37.6625    0.9424 H   0  0  0  0  0  0  0  0  0  0  0  0
   10.7019   38.4400    0.4307 H   0  0  0  0  0  0  0  0  0  0  0  0
    9.1739   39.3843    0.4307 H   0  0  0  0  0  0  0  0  0  0  0  0
    7.8419   43.3610   -1.4170 H   0  0  0  0  0  0  0  0  0  0  0  0
    8.1119   41.6077   -1.6996 H   0  0  0  0  0  0  0  0  0  0  0  0
    9.5045   42.7424   -1.6996 H   0  0  0  0  0  0  0  0  0  0  0  0
   16.5132   39.8812  -14.1887 H   0  0  0  0  0  0  0  0  0  0  0  0
   14.2541   40.5310  -13.3464 H   0  0  0  0  0  0  0  0  0  0  0  0
   12.1058   38.5170   -3.7984 H   0  0  0  0  0  0  0  0  0  0  0  0
    9.8502   37.4192   -3.9656 H   0  0  0  0  0  0  0  0  0  0  0  0
   11.3501   37.9063   -1.9539 H   0  0  0  0  0  0  0  0  0  0  0  0
   10.5514   39.5612   -1.8808 H   0  0  0  0  0  0  0  0  0  0  0  0
   10.0835   40.9243   -4.1169 H   0  0  0  0  0  0  0  0  0  0  0  0
    8.0196   41.8290   -5.4154 H   0  0  0  0  0  0  0  0  0  0  0  0
    7.0745   41.0901   -4.0733 H   0  0  0  0  0  0  0  0  0  0  0  0
    9.2598   43.1938   -3.7899 H   0  0  0  0  0  0  0  0  0  0  0  0
    7.2917   44.2400   -4.8275 H   0  0  0  0  0  0  0  0  0  0  0  0
    7.3579   44.8055   -3.1469 H   0  0  0  0  0  0  0  0  0  0  0  0
    5.6877   43.1971   -2.4434 H   0  0  0  0  0  0  0  0  0  0  0  0
    5.0708   43.8992   -3.9775 H   0  0  0  0  0  0  0  0  0  0  0  0
    5.8375   42.2747   -3.9775 H   0  0  0  0  0  0  0  0  0  0  0  0
   12.9279   37.1826   -5.3281 H   0  0  0  0  0  0  0  0  0  0  0  0
   13.3229   39.1060   -8.0507 H   0  0  0  0  0  0  0  0  0  0  0  0
 15 16  2  0
 15  3  1  0
 16 14  1  0
  3  2  2  0
 14  4  1  0
 14  1  2  0
  2  1  1  0
  4 29  1  0
 29  5  1  0
  5 28  2  0
  5 27  1  0
 27  6  1  0
  6 13  1  0
 12 13  2  0
 26 13  1  0
 13 17  1  0
 22 21  1  0
 22 23  1  0
 17 18  1  0
 21 10  1  0
 10 20  2  0
 10 18  1  0
 24 25  1  0
 24 23  1  0
 18 19  1  0
 23 11  1  0
 19  7  1  0
  8  7  1  0
  7  9  1  0
  1 30  1  0
  2 31  1  0
  3 32  1  0
  4 33  1  0
  4 34  1  0
  6 35  1  0
  6 36  1  0
  7 37  1  0
  8 38  1  0
  8 39  1  0
  8 40  1  0
  9 41  1  0
  9 42  1  0
  9 43  1  0
 11 44  1  0
 11 45  1  0
 11 46  1  0
 15 47  1  0
 16 48  1  0
 17 49  1  0
 18 50  1  0
 19 51  1  0
 19 52  1  0
 21 53  1  0
 22 54  1  0
 22 55  1  0
 23 56  1  0
 24 57  1  0
 24 58  1  0
 25 59  1  0
 25 60  1  0
 25 61  1  0
 26 62  1  0
 27 63  1  0
A    1
C1
A    2
C2
A    3
C3
A    4
C7
A    5
C9
A    6
C12
A    7
C19
A    8
C20
A    9
C21
A   10
C22
A   11
C27
A   12
O15
A   13
P13
A   14
C6
A   15
C4
A   16
C5
A   17
N16
A   18
C17
A   19
C18
A   20
O23
A   21
N24
A   22
C25
A   23
C26
A   24
C28
A   25
C29
A   26
O14
A   27
N11
A   28
O10
A   29
O8
M  END
