5JXN_6NN_E_411
     RDKit          3D

 63 63  0  0  0  0  0  0  0  0999 V2000
   16.2690   41.5360  -10.6620 C   0  0  0  0  0  0  0  0  0  0  0  0
   17.5310   41.1590  -11.1060 C   0  0  0  0  0  0  0  0  0  0  0  0
   17.7060   40.5370  -12.3610 C   0  0  0  0  0  0  0  0  0  0  0  0
   13.7110   41.7890  -11.0040 C   0  0  0  0  0  0  0  0  0  0  0  0
   12.7510   41.0420   -8.9200 C   0  0  0  0  0  0  0  0  0  0  0  0
   12.0670   40.3110   -6.7070 C   0  0  0  0  0  0  0  0  0  0  0  0
    9.4080   38.1850   -1.2390 C   0  0  0  0  0  0  0  0  0  0  0  0
    9.7280   38.5970    0.2310 C   0  0  0  0  0  0  0  0  0  0  0  0
    9.2500   36.6570   -1.3680 C   0  0  0  0  0  0  0  0  0  0  0  0
    8.9790   39.5320   -3.9440 C   0  0  0  0  0  0  0  0  0  0  0  0
    6.5470   43.5710   -3.6000 C   0  0  0  0  0  0  0  0  0  0  0  0
   12.6370   37.6500   -6.2420 O   0  0  0  0  0  0  0  0  0  0  0  0
   11.5760   38.6980   -6.0340 P   0  0  0  0  0  0  0  0  0  0  0  0
   15.1270   41.3320  -11.4450 C   0  0  0  0  0  0  0  0  0  0  0  0
   16.5590   40.3450  -13.1470 C   0  0  0  0  0  0  0  0  0  0  0  0
   15.2960   40.7510  -12.6980 C   0  0  0  0  0  0  0  0  0  0  0  0
   11.3960   39.1000   -4.3370 N   0  0  0  0  0  0  0  0  0  0  0  0
   10.1750   38.6650   -3.6470 C   0  0  0  0  0  0  0  0  0  0  0  0
   10.5110   38.7420   -2.1460 C   0  0  0  0  0  0  0  0  0  0  0  0
    7.8540   39.0330   -3.9380 O   0  0  0  0  0  0  0  0  0  0  0  0
    9.2110   40.8460   -4.1230 N   0  0  0  0  0  0  0  0  0  0  0  0
    8.0940   41.7450   -4.4200 C   0  0  0  0  0  0  0  0  0  0  0  0
    7.5220   42.4390   -3.1840 C   0  0  0  0  0  0  0  0  0  0  0  0
    8.5810   43.0160   -2.2060 C   0  0  0  0  0  0  0  0  0  0  0  0
    8.0600   44.2540   -1.4420 C   0  0  0  0  0  0  0  0  0  0  0  0
   10.2250   38.2960   -6.6120 O   0  0  0  0  0  0  0  0  0  0  0  0
   12.7680   40.0880   -7.9690 N   0  0  0  0  0  0  0  0  0  0  0  0
   12.0460   42.0380   -8.8210 O   0  0  0  0  0  0  0  0  0  0  0  0
   13.1340   40.7590  -10.1650 O   0  0  0  0  0  0  0  0  0  0  0  0
   16.1654   42.0054   -9.6726 H   0  0  0  0  0  0  0  0  0  0  0  0
   18.4076   41.3484  -10.4691 H   0  0  0  0  0  0  0  0  0  0  0  0
   18.6992   40.2163  -12.7083 H   0  0  0  0  0  0  0  0  0  0  0  0
   13.7845   42.7297  -10.4386 H   0  0  0  0  0  0  0  0  0  0  0  0
   13.0767   41.9533  -11.8876 H   0  0  0  0  0  0  0  0  0  0  0  0
   12.7332   40.8229   -5.9970 H   0  0  0  0  0  0  0  0  0  0  0  0
   11.1788   40.9384   -6.8729 H   0  0  0  0  0  0  0  0  0  0  0  0
    8.4436   38.6115   -1.5522 H   0  0  0  0  0  0  0  0  0  0  0  0
    9.2037   37.9220    0.9234 H   0  0  0  0  0  0  0  0  0  0  0  0
   10.8123   38.5289    0.4031 H   0  0  0  0  0  0  0  0  0  0  0  0
    9.3937   39.6307    0.4031 H   0  0  0  0  0  0  0  0  0  0  0  0
    9.2035   36.2072   -0.3652 H   0  0  0  0  0  0  0  0  0  0  0  0
    8.3235   36.4291   -1.9154 H   0  0  0  0  0  0  0  0  0  0  0  0
   10.1103   36.2443   -1.9154 H   0  0  0  0  0  0  0  0  0  0  0  0
    6.1349   44.0494   -2.6993 H   0  0  0  0  0  0  0  0  0  0  0  0
    7.0878   44.3194   -4.1979 H   0  0  0  0  0  0  0  0  0  0  0  0
    5.7267   43.1471   -4.1979 H   0  0  0  0  0  0  0  0  0  0  0  0
   16.6538   39.8671  -14.1332 H   0  0  0  0  0  0  0  0  0  0  0  0
   14.4206   40.6078  -13.3486 H   0  0  0  0  0  0  0  0  0  0  0  0
   12.1943   38.6823   -3.8378 H   0  0  0  0  0  0  0  0  0  0  0  0
    9.8948   37.6560   -3.9838 H   0  0  0  0  0  0  0  0  0  0  0  0
   11.4317   38.1676   -1.9662 H   0  0  0  0  0  0  0  0  0  0  0  0
   10.6257   39.8071   -1.8962 H   0  0  0  0  0  0  0  0  0  0  0  0
   10.1692   41.2170   -4.0514 H   0  0  0  0  0  0  0  0  0  0  0  0
    8.4454   42.5166   -5.1207 H   0  0  0  0  0  0  0  0  0  0  0  0
    7.2884   41.1289   -4.8459 H   0  0  0  0  0  0  0  0  0  0  0  0
    6.9968   41.6436   -2.6349 H   0  0  0  0  0  0  0  0  0  0  0  0
    9.4734   43.3046   -2.7808 H   0  0  0  0  0  0  0  0  0  0  0  0
    8.8151   42.2371   -1.4653 H   0  0  0  0  0  0  0  0  0  0  0  0
    8.1353   44.0751   -0.3593 H   0  0  0  0  0  0  0  0  0  0  0  0
    8.6648   45.1325   -1.7114 H   0  0  0  0  0  0  0  0  0  0  0  0
    7.0091   44.4357   -1.7114 H   0  0  0  0  0  0  0  0  0  0  0  0
    9.5929   38.1079   -5.8736 H   0  0  0  0  0  0  0  0  0  0  0  0
   13.2731   39.2051   -8.1311 H   0  0  0  0  0  0  0  0  0  0  0  0
 15 16  2  0
 15  3  1  0
 16 14  1  0
  3  2  2  0
 14  4  1  0
 14  1  2  0
  2  1  1  0
  4 29  1  0
 29  5  1  0
  5 28  2  0
  5 27  1  0
 27  6  1  0
  6 13  1  0
 12 13  2  0
 26 13  1  0
 13 17  1  0
 22 21  1  0
 22 23  1  0
 17 18  1  0
 21 10  1  0
 10 20  2  0
 10 18  1  0
 24 25  1  0
 24 23  1  0
 18 19  1  0
 23 11  1  0
 19  7  1  0
  8  7  1  0
  7  9  1  0
  1 30  1  0
  2 31  1  0
  3 32  1  0
  4 33  1  0
  4 34  1  0
  6 35  1  0
  6 36  1  0
  7 37  1  0
  8 38  1  0
  8 39  1  0
  8 40  1  0
  9 41  1  0
  9 42  1  0
  9 43  1  0
 11 44  1  0
 11 45  1  0
 11 46  1  0
 15 47  1  0
 16 48  1  0
 17 49  1  0
 18 50  1  0
 19 51  1  0
 19 52  1  0
 21 53  1  0
 22 54  1  0
 22 55  1  0
 23 56  1  0
 24 57  1  0
 24 58  1  0
 25 59  1  0
 25 60  1  0
 25 61  1  0
 26 62  1  0
 27 63  1  0
A    1
C1
A    2
C2
A    3
C3
A    4
C7
A    5
C9
A    6
C12
A    7
C19
A    8
C20
A    9
C21
A   10
C22
A   11
C27
A   12
O15
A   13
P13
A   14
C6
A   15
C4
A   16
C5
A   17
N16
A   18
C17
A   19
C18
A   20
O23
A   21
N24
A   22
C25
A   23
C26
A   24
C28
A   25
C29
A   26
O14
A   27
N11
A   28
O10
A   29
O8
M  END
