5JY3_6OX_A_501
     RDKit          3D

 68 71  0  0  0  0  0  0  0  0999 V2000
   33.6910   21.3290   21.4940 C   0  0  0  0  0  0  0  0  0  0  0  0
   34.0140   21.7020   20.1990 C   0  0  0  0  0  0  0  0  0  0  0  0
   35.1790   23.0350   22.3740 C   0  0  0  0  0  0  0  0  0  0  0  0
   35.5190   23.4220   21.0640 C   0  0  0  0  0  0  0  0  0  0  0  0
   36.5350   24.6060   20.8610 C   0  0  0  0  0  0  0  0  0  0  0  0
   34.9160   22.7400   19.9970 C   0  0  0  0  0  0  0  0  0  0  0  0
   37.5390   16.9260   21.0310 C   0  0  0  0  0  0  0  0  0  0  0  0
   37.2860   19.2940   20.8530 C   0  0  0  0  0  0  0  0  0  0  0  0
   37.8380   24.3220   21.6450 C   0  0  0  0  0  0  0  0  0  0  0  0
   38.0510   21.8770   21.6620 C   0  0  0  0  0  0  0  0  0  0  0  0
   38.1230   21.4660   20.3270 C   0  0  0  0  0  0  0  0  0  0  0  0
   39.6150   24.8350   22.6330 C   0  0  0  0  0  0  0  0  0  0  0  0
   39.6020   23.4970   22.5940 C   0  0  0  0  0  0  0  0  0  0  0  0
   35.9310   14.0840   18.8010 C   0  0  0  0  0  0  0  0  0  0  0  0
   38.3820   14.8690   22.9700 C   0  0  0  0  0  0  0  0  0  0  0  0
   37.9300   14.3390   21.3950 S   0  0  0  0  0  0  0  0  0  0  0  0
   37.0010   13.1990   21.4520 O   0  0  0  0  0  0  0  0  0  0  0  0
   39.2320   13.8700   20.7210 O   0  0  0  0  0  0  0  0  0  0  0  0
   37.2320   15.6350   20.5840 C   0  0  0  0  0  0  0  0  0  0  0  0
   36.3670   15.4220   19.4620 C   0  0  0  0  0  0  0  0  0  0  0  0
   36.9240   13.6080   17.8230 O   0  0  0  0  0  0  0  0  0  0  0  0
   35.8630   16.5580   18.9130 C   0  0  0  0  0  0  0  0  0  0  0  0
   35.0950   16.3270   17.9000 F   0  0  0  0  0  0  0  0  0  0  0  0
   36.1130   17.8450   19.3560 C   0  0  0  0  0  0  0  0  0  0  0  0
   36.9690   18.0260   20.4190 C   0  0  0  0  0  0  0  0  0  0  0  0
   37.2360   19.6580   22.2050 C   0  0  0  0  0  0  0  0  0  0  0  0
   37.6170   20.9510   22.6010 C   0  0  0  0  0  0  0  0  0  0  0  0
   37.4980   21.3130   23.8950 F   0  0  0  0  0  0  0  0  0  0  0  0
   37.7410   20.1980   19.9130 C   0  0  0  0  0  0  0  0  0  0  0  0
   38.4570   23.1500   21.9760 N   0  0  0  0  0  0  0  0  0  0  0  0
   40.6260   25.7990   23.1900 C   0  0  0  0  0  0  0  0  0  0  0  0
   41.0690   25.2770   24.5520 C   0  0  0  0  0  0  0  0  0  0  0  0
   41.7900   25.9750   22.2050 C   0  0  0  0  0  0  0  0  0  0  0  0
   39.9120   27.0210   23.2140 O   0  0  0  0  0  0  0  0  0  0  0  0
   38.5570   25.3410   22.0650 N   0  0  0  0  0  0  0  0  0  0  0  0
   36.9860   24.9150   19.4040 C   0  0  0  0  0  0  0  0  0  0  0  0
   35.8260   25.8450   21.4240 C   0  0  0  0  0  0  0  0  0  0  0  0
   35.8990   23.8080   23.7650 Cl  0  0  0  0  0  0  0  0  0  0  0  0
   34.2690   21.9920   22.5690 C   0  0  0  0  0  0  0  0  0  0  0  0
   35.3130   23.1430   18.3660 Cl  0  0  0  0  0  0  0  0  0  0  0  0
   32.9785   20.5097   21.6702 H   0  0  0  0  0  0  0  0  0  0  0  0
   33.5619   21.1827   19.3411 H   0  0  0  0  0  0  0  0  0  0  0  0
   38.2354   17.0648   21.8711 H   0  0  0  0  0  0  0  0  0  0  0  0
   38.4974   22.1764   19.5753 H   0  0  0  0  0  0  0  0  0  0  0  0
   40.3721   22.8174   22.9878 H   0  0  0  0  0  0  0  0  0  0  0  0
   35.8102   13.3222   19.5853 H   0  0  0  0  0  0  0  0  0  0  0  0
   34.9838   14.2580   18.2695 H   0  0  0  0  0  0  0  0  0  0  0  0
   37.8628   14.2602   23.7248 H   0  0  0  0  0  0  0  0  0  0  0  0
   39.4693   14.7599   23.0956 H   0  0  0  0  0  0  0  0  0  0  0  0
   38.1026   15.9255   23.0956 H   0  0  0  0  0  0  0  0  0  0  0  0
   37.7054   13.2334   18.3017 H   0  0  0  0  0  0  0  0  0  0  0  0
   35.6364   18.7078   18.8676 H   0  0  0  0  0  0  0  0  0  0  0  0
   36.8980   18.9304   22.9575 H   0  0  0  0  0  0  0  0  0  0  0  0
   37.7997   19.9166   18.8512 H   0  0  0  0  0  0  0  0  0  0  0  0
   40.5760   25.8579   25.3454 H   0  0  0  0  0  0  0  0  0  0  0  0
   40.7906   24.2170   24.6467 H   0  0  0  0  0  0  0  0  0  0  0  0
   42.1601   25.3793   24.6467 H   0  0  0  0  0  0  0  0  0  0  0  0
   42.7261   26.1165   22.7651 H   0  0  0  0  0  0  0  0  0  0  0  0
   41.8733   25.0792   21.5720 H   0  0  0  0  0  0  0  0  0  0  0  0
   41.6048   26.8553   21.5720 H   0  0  0  0  0  0  0  0  0  0  0  0
   39.7535   27.2922   24.1528 H   0  0  0  0  0  0  0  0  0  0  0  0
   37.8933   25.5366   19.4250 H   0  0  0  0  0  0  0  0  0  0  0  0
   37.1994   23.9725   18.8785 H   0  0  0  0  0  0  0  0  0  0  0  0
   36.1841   25.4543   18.8785 H   0  0  0  0  0  0  0  0  0  0  0  0
   35.8456   25.8108   22.5233 H   0  0  0  0  0  0  0  0  0  0  0  0
   36.3416   26.7523   21.0761 H   0  0  0  0  0  0  0  0  0  0  0  0
   34.7826   25.8601   21.0761 H   0  0  0  0  0  0  0  0  0  0  0  0
   34.0056   21.6905   23.5935 H   0  0  0  0  0  0  0  0  0  0  0  0
 38  3  1  0
 39  3  1  0
 39  1  2  0
  3  4  2  0
 28 27  1  0
  1  2  1  0
 33 31  1  0
 37  5  1  0
  4  5  1  0
  4  6  1  0
 27 26  2  0
 27 10  1  0
 26  8  1  0
 15 16  1  0
  2  6  2  0
  5  9  1  0
  5 36  1  0
 35  9  2  0
 35 12  1  0
  9 30  1  0
  6 40  1  0
 12 31  1  0
 12 13  2  0
 31 32  1  0
 31 34  1  0
 30 13  1  0
 30 10  1  0
 17 16  2  0
 10 11  2  0
  8 25  1  0
  8 29  2  0
 16 19  1  0
 16 18  2  0
  7 25  2  0
  7 19  1  0
 25 24  1  0
 19 20  2  0
 11 29  1  0
 24 22  2  0
 20 22  1  0
 20 14  1  0
 22 23  1  0
 14 21  1  0
  1 41  1  0
  2 42  1  0
  7 43  1  0
 11 44  1  0
 13 45  1  0
 14 46  1  0
 14 47  1  0
 15 48  1  0
 15 49  1  0
 15 50  1  0
 21 51  1  0
 24 52  1  0
 26 53  1  0
 29 54  1  0
 32 55  1  0
 32 56  1  0
 32 57  1  0
 33 58  1  0
 33 59  1  0
 33 60  1  0
 34 61  1  0
 36 62  1  0
 36 63  1  0
 36 64  1  0
 37 65  1  0
 37 66  1  0
 37 67  1  0
 39 68  1  0
A    1
C1
A    2
C2
A    3
C3
A    4
C4
A    5
C5
A    6
C6
A    7
C10
A    8
C12
A    9
C13
A   10
C14
A   11
C15
A   12
C16
A   13
C17
A   14
C24
A   15
C25
A   16
S1
A   17
O1
A   18
O2
A   19
C22
A   20
C23
A   21
O4
A   22
C9
A   23
F1
A   24
C8
A   25
C7
A   26
C26
A   27
C27
A   28
F2
A   29
C11
A   30
N2
A   31
C18
A   32
C19
A   33
C20
A   34
O3
A   35
N1
A   36
C28
A   37
C29
A   38
CL1
A   39
C21
A   40
CL2
M  END
