1NF8_ISC_A_220
     RDKit          3D

 26 26  0  0  0  0  0  0  0  0999 V2000
    6.0480   21.6670   76.5190 C   0  0  0  0  0  0  0  0  0  0  0  0
    6.0430   20.8580   75.2370 C   0  0  0  0  0  0  0  0  0  0  0  0
    6.2470   21.2140   77.6550 O   0  0  0  0  0  0  0  0  0  0  0  0
    5.8600   21.4630   73.8410 C   0  0  0  0  0  0  0  0  0  0  0  0
    5.8480   22.8860   76.3170 O   0  0  0  0  0  0  0  0  0  0  0  0
    6.2820   20.7470   72.7800 C   0  0  0  0  0  0  0  0  0  0  0  0
    4.6730   22.1250   73.7890 O   0  0  0  0  0  0  0  0  0  0  0  0
    6.1200   19.2830   72.8920 C   0  0  0  0  0  0  0  0  0  0  0  0
    6.0980   18.6590   74.1370 C   0  0  0  0  0  0  0  0  0  0  0  0
    6.1280   19.3940   75.3370 C   0  0  0  0  0  0  0  0  0  0  0  0
    7.7890   20.2940   70.1780 C   0  0  0  0  0  0  0  0  0  0  0  0
    7.9580   19.2460   69.5050 O   0  0  0  0  0  0  0  0  0  0  0  0
    8.3640   20.4100   71.4990 C   0  0  0  0  0  0  0  0  0  0  0  0
    6.9450   21.1680   69.8900 O   0  0  0  0  0  0  0  0  0  0  0  0
    9.7130   19.9490   71.6550 C   0  0  0  0  0  0  0  0  0  0  0  0
    7.6690   20.9510   72.5440 O   0  0  0  0  0  0  0  0  0  0  0  0
    6.6313   22.2328   73.6912 H   0  0  0  0  0  0  0  0  0  0  0  0
    5.7465   23.5046   77.0832 H   0  0  0  0  0  0  0  0  0  0  0  0
    5.6379   21.1155   71.9680 H   0  0  0  0  0  0  0  0  0  0  0  0
    4.3538   22.3030   74.7091 H   0  0  0  0  0  0  0  0  0  0  0  0
    6.0153   18.6774   71.9797 H   0  0  0  0  0  0  0  0  0  0  0  0
    6.0560   17.5608   74.1838 H   0  0  0  0  0  0  0  0  0  0  0  0
    6.2118   18.8921   76.3122 H   0  0  0  0  0  0  0  0  0  0  0  0
    8.0976   18.3801   69.9641 H   0  0  0  0  0  0  0  0  0  0  0  0
   10.2054   20.0111   72.6367 H   0  0  0  0  0  0  0  0  0  0  0  0
   10.2553   19.5333   70.7930 H   0  0  0  0  0  0  0  0  0  0  0  0
  1  2  1  0
  1  3  2  0
  1  5  1  0
  2  4  1  0
  2 10  2  0
  4  6  1  0
  4  7  1  0
  6  8  1  0
  6 16  1  0
  8  9  2  0
  9 10  1  0
 11 12  1  0
 11 13  1  0
 11 14  2  0
 13 15  2  3
 13 16  1  0
  4 17  1  0
  5 18  1  0
  6 19  1  0
  7 20  1  0
  8 21  1  0
  9 22  1  0
 10 23  1  0
 12 24  1  0
 15 25  1  0
 15 26  1  0
A    1
C
A    2
C1
A    3
O1
A    4
C2
A    5
O2
A    6
C3
A    7
O3
A    8
C4
A    9
C5
A   10
C6
A   11
C1'
A   12
O1'
A   13
C2'
A   14
O2'
A   15
C3'
A   16
O3'
M  END
