3TRU_ISJ_D_173
     RDKit          3D

 26 26  0  0  0  0  0  0  0  0999 V2000
  -34.8120  -21.3840  -42.8150 C   0  0  0  0  0  0  0  0  0  0  0  0
  -34.0910  -20.1330  -42.2820 C   0  0  0  0  0  0  0  0  0  0  0  0
  -34.7670  -19.2340  -41.4080 C   0  0  0  0  0  0  0  0  0  0  0  0
  -36.1990  -19.5230  -41.0790 C   0  0  0  0  0  0  0  0  0  0  0  0
  -36.7580  -20.6460  -41.4530 C   0  0  0  0  0  0  0  0  0  0  0  0
  -36.1450  -21.7890  -42.1410 C   0  0  0  0  0  0  0  0  0  0  0  0
  -34.1330  -18.0540  -40.8450 C   0  0  0  0  0  0  0  0  0  0  0  0
  -33.0820  -17.7670  -41.0870 O   0  0  0  0  0  0  0  0  0  0  0  0
  -34.8070  -17.3100  -39.9990 O   0  0  0  0  0  0  0  0  0  0  0  0
  -37.0680  -22.1900  -43.0690 O   0  0  0  0  0  0  0  0  0  0  0  0
  -33.8530  -22.4650  -42.9100 O   0  0  0  0  0  0  0  0  0  0  0  0
  -34.3490  -23.7630  -43.1170 C   0  0  0  0  0  0  0  0  0  0  0  0
  -34.5040  -24.3830  -44.4900 C   0  0  0  0  0  0  0  0  0  0  0  0
  -35.0470  -23.7270  -45.3520 O   0  0  0  0  0  0  0  0  0  0  0  0
  -34.0210  -25.5970  -44.7040 O   0  0  0  0  0  0  0  0  0  0  0  0
  -34.6470  -24.5440  -42.0480 C   0  0  0  0  0  0  0  0  0  0  0  0
  -35.1872  -21.1119  -43.8126 H   0  0  0  0  0  0  0  0  0  0  0  0
  -33.0504  -19.9325  -42.5769 H   0  0  0  0  0  0  0  0  0  0  0  0
  -36.7878  -18.7833  -40.5167 H   0  0  0  0  0  0  0  0  0  0  0  0
  -37.8286  -20.7466  -41.2212 H   0  0  0  0  0  0  0  0  0  0  0  0
  -35.8949  -22.6000  -41.4412 H   0  0  0  0  0  0  0  0  0  0  0  0
  -34.6902  -17.4389  -39.0244 H   0  0  0  0  0  0  0  0  0  0  0  0
  -37.8708  -22.5388  -42.6065 H   0  0  0  0  0  0  0  0  0  0  0  0
  -33.7892  -26.1797  -43.9379 H   0  0  0  0  0  0  0  0  0  0  0  0
  -35.0358  -25.5615  -42.2016 H   0  0  0  0  0  0  0  0  0  0  0  0
  -34.4998  -24.1596  -41.0279 H   0  0  0  0  0  0  0  0  0  0  0  0
  1  2  1  0
  1  6  1  0
  1 11  1  0
  2  3  2  0
  3  4  1  0
  3  7  1  0
  4  5  2  0
  5  6  1  0
  6 10  1  0
  7  8  2  0
  7  9  1  0
 11 12  1  0
 12 13  1  0
 12 16  2  3
 13 14  2  0
 13 15  1  0
  1 17  1  0
  2 18  1  0
  4 19  1  0
  5 20  1  0
  6 21  1  0
  9 22  1  0
 10 23  1  0
 15 24  1  0
 16 25  1  0
 16 26  1  0
A    1
C1
A    2
C2
A    3
C3
A    4
C4
A    5
C5
A    6
C6
A    7
C7
A    8
O8
A    9
O9
A   10
O10
A   11
O11
A   12
C12
A   13
C13
A   14
O14
A   15
O15
A   16
C16
M  END
