5JYP_ZBS_A_601
     RDKit          3D

 62 66  0  0  0  0  0  0  0  0999 V2000
   -0.2920   -5.2600   76.7500 C   0  0  0  0  0  0  0  0  0  0  0  0
   -1.4870   -4.9130   76.1420 C   0  0  0  0  0  0  0  0  0  0  0  0
   -2.2570   -5.8900   75.5190 C   0  0  0  0  0  0  0  0  0  0  0  0
   -1.8360   -7.2150   75.5000 C   0  0  0  0  0  0  0  0  0  0  0  0
   -0.6390   -7.5680   76.1070 C   0  0  0  0  0  0  0  0  0  0  0  0
    0.1290   -6.5860   76.7300 C   0  0  0  0  0  0  0  0  0  0  0  0
   -0.1600   -9.0120   76.0980 C   0  0  0  0  0  0  0  0  0  0  0  0
    1.2100   -9.1460   76.7430 C   0  0  0  0  0  0  0  0  0  0  0  0
    3.7090   -8.9100   76.4760 C   0  0  0  0  0  0  0  0  0  0  0  0
    5.9300   -9.0350   77.7170 C   0  0  0  0  0  0  0  0  0  0  0  0
    7.0970   -9.1720   78.6920 C   0  0  0  0  0  0  0  0  0  0  0  0
    8.3480   -9.6090   77.9450 C   0  0  0  0  0  0  0  0  0  0  0  0
    9.0310   -8.4900   77.1790 C   0  0  0  0  0  0  0  0  0  0  0  0
    9.3160   -7.2850   78.0390 C   0  0  0  0  0  0  0  0  0  0  0  0
    8.0210   -6.7930   78.6380 C   0  0  0  0  0  0  0  0  0  0  0  0
    7.2910   -7.8620   79.4410 C   0  0  0  0  0  0  0  0  0  0  0  0
    8.3300   -5.5990   79.5320 C   0  0  0  0  0  0  0  0  0  0  0  0
    8.6140   -3.2930   80.6380 C   0  0  0  0  0  0  0  0  0  0  0  0
    8.9570   -0.8960   80.0750 C   0  0  0  0  0  0  0  0  0  0  0  0
    8.9100    0.5580   80.5220 C   0  0  0  0  0  0  0  0  0  0  0  0
    7.4660    0.9390   80.7880 C   0  0  0  0  0  0  0  0  0  0  0  0
    6.5430    0.9050   79.7440 C   0  0  0  0  0  0  0  0  0  0  0  0
    5.2130    1.2350   79.9660 C   0  0  0  0  0  0  0  0  0  0  0  0
    4.8080    1.5980   81.2410 C   0  0  0  0  0  0  0  0  0  0  0  0
    5.7240    1.6280   82.2870 C   0  0  0  0  0  0  0  0  0  0  0  0
    7.0530    1.2960   82.0640 C   0  0  0  0  0  0  0  0  0  0  0  0
    2.3720   -8.8500   75.9750 N   0  0  0  0  0  0  0  0  0  0  0  0
    5.9950   -8.7610   76.4000 N   0  0  0  0  0  0  0  0  0  0  0  0
    4.8160   -8.6870   75.7440 N   0  0  0  0  0  0  0  0  0  0  0  0
    9.0750   -4.3540   81.3290 N   0  0  0  0  0  0  0  0  0  0  0  0
    8.9280   -5.5670   80.7380 N   0  0  0  0  0  0  0  0  0  0  0  0
    8.6140   -1.9190   81.0030 N   0  0  0  0  0  0  0  0  0  0  0  0
    1.3010   -9.5080   77.9000 O   0  0  0  0  0  0  0  0  0  0  0  0
    9.2810   -1.1860   78.9370 O   0  0  0  0  0  0  0  0  0  0  0  0
    4.2650   -9.2070   78.0750 S   0  0  0  0  0  0  0  0  0  0  0  0
    7.9800   -3.9670   79.1960 S   0  0  0  0  0  0  0  0  0  0  0  0
    0.3204   -4.4922   77.2455 H   0  0  0  0  0  0  0  0  0  0  0  0
   -1.8267   -3.8668   76.1517 H   0  0  0  0  0  0  0  0  0  0  0  0
   -3.2063   -5.6121   75.0377 H   0  0  0  0  0  0  0  0  0  0  0  0
   -2.4503   -7.9816   75.0050 H   0  0  0  0  0  0  0  0  0  0  0  0
    1.0787   -6.8623   77.2113 H   0  0  0  0  0  0  0  0  0  0  0  0
   -0.8794   -9.6312   76.6539 H   0  0  0  0  0  0  0  0  0  0  0  0
   -0.0844   -9.3451   75.0524 H   0  0  0  0  0  0  0  0  0  0  0  0
    6.8795   -9.9496   79.4390 H   0  0  0  0  0  0  0  0  0  0  0  0
    8.0670  -10.3964   77.2302 H   0  0  0  0  0  0  0  0  0  0  0  0
    9.0646   -9.9609   78.7018 H   0  0  0  0  0  0  0  0  0  0  0  0
    9.9825   -8.8684   76.7772 H   0  0  0  0  0  0  0  0  0  0  0  0
    8.3484   -8.1717   76.3773 H   0  0  0  0  0  0  0  0  0  0  0  0
   10.0129   -7.5624   78.8436 H   0  0  0  0  0  0  0  0  0  0  0  0
    9.7690   -6.4904   77.4279 H   0  0  0  0  0  0  0  0  0  0  0  0
    7.3511   -6.5121   77.8120 H   0  0  0  0  0  0  0  0  0  0  0  0
    7.8716   -8.0671   80.3525 H   0  0  0  0  0  0  0  0  0  0  0  0
    6.2875   -7.4676   79.6587 H   0  0  0  0  0  0  0  0  0  0  0  0
    9.5008    0.6818   81.4416 H   0  0  0  0  0  0  0  0  0  0  0  0
    9.3297    1.2049   79.7375 H   0  0  0  0  0  0  0  0  0  0  0  0
    6.8714    0.6141   78.7353 H   0  0  0  0  0  0  0  0  0  0  0  0
    4.4882    1.2087   79.1389 H   0  0  0  0  0  0  0  0  0  0  0  0
    3.7568    1.8637   81.4264 H   0  0  0  0  0  0  0  0  0  0  0  0
    5.3936    1.9162   83.2959 H   0  0  0  0  0  0  0  0  0  0  0  0
    7.7748    1.3157   82.8938 H   0  0  0  0  0  0  0  0  0  0  0  0
    2.2399   -8.5739   74.9915 H   0  0  0  0  0  0  0  0  0  0  0  0
    8.3587   -1.6567   81.9657 H   0  0  0  0  0  0  0  0  0  0  0  0
  4  3  2  0
  4  5  1  0
  3  2  1  0
 29 28  1  0
 29  9  2  0
 27  9  1  0
 27  8  1  0
  7  5  1  0
  7  8  1  0
  5  6  2  0
  2  1  2  0
 28 10  2  0
  9 35  1  0
  6  1  1  0
  8 33  2  0
 13 12  1  0
 13 14  1  0
 10 35  1  0
 10 11  1  0
 12 11  1  0
 14 15  1  0
 15 16  1  0
 15 17  1  0
 11 16  1  0
 34 19  2  0
 36 17  1  0
 36 18  1  0
 17 31  2  0
 22 23  2  0
 22 21  1  0
 23 24  1  0
 19 20  1  0
 19 32  1  0
 20 21  1  0
 18 32  1  0
 18 30  2  0
 31 30  1  0
 21 26  2  0
 24 25  2  0
 26 25  1  0
  1 37  1  0
  2 38  1  0
  3 39  1  0
  4 40  1  0
  6 41  1  0
  7 42  1  0
  7 43  1  0
 11 44  1  0
 12 45  1  0
 12 46  1  0
 13 47  1  0
 13 48  1  0
 14 49  1  0
 14 50  1  0
 15 51  1  0
 16 52  1  0
 16 53  1  0
 20 54  1  0
 20 55  1  0
 22 56  1  0
 23 57  1  0
 24 58  1  0
 25 59  1  0
 26 60  1  0
 27 61  1  0
 32 62  1  0
A    1
C01
A    2
C02
A    3
C03
A    4
C04
A    5
C05
A    6
C06
A    7
C07
A    8
C08
A    9
C09
A   10
C10
A   11
C11
A   12
C12
A   13
C13
A   14
C14
A   15
C15
A   16
C16
A   17
C17
A   18
C18
A   19
C19
A   20
C20
A   21
C21
A   22
C22
A   23
C23
A   24
C24
A   25
C25
A   26
C26
A   27
N01
A   28
N02
A   29
N03
A   30
N04
A   31
N05
A   32
N06
A   33
O01
A   34
O02
A   35
S01
A   36
S02
M  END
