5JZ9_6OR_A_301
     RDKit          3D

 17 17  0  0  0  0  0  0  0  0999 V2000
   -8.1530   -1.1940  -12.7790 C   0  0  0  0  0  0  0  0  0  0  0  0
   -7.2830   -0.9030  -11.7390 C   0  0  0  0  0  0  0  0  0  0  0  0
   -6.0620   -0.3090  -12.0190 C   0  0  0  0  0  0  0  0  0  0  0  0
   -5.7140   -0.0090  -13.3250 C   0  0  0  0  0  0  0  0  0  0  0  0
   -6.5830   -0.3030  -14.3600 C   0  0  0  0  0  0  0  0  0  0  0  0
   -7.8030   -0.8930  -14.0880 C   0  0  0  0  0  0  0  0  0  0  0  0
   -8.8700   -1.2480  -15.3980 Cl  0  0  0  0  0  0  0  0  0  0  0  0
   -6.2410   -0.0050  -15.6610 O   0  0  0  0  0  0  0  0  0  0  0  0
   -4.1940    0.7320  -13.6680 Cl  0  0  0  0  0  0  0  0  0  0  0  0
   -7.7370   -1.2930  -10.0730 S   0  0  0  0  0  0  0  0  0  0  0  0
   -7.8920   -0.0620   -9.2070 O   0  0  0  0  0  0  0  0  0  0  0  0
   -9.1380   -1.8540  -10.0080 O   0  0  0  0  0  0  0  0  0  0  0  0
   -6.7420   -2.2560   -9.4660 O   0  0  0  0  0  0  0  0  0  0  0  0
   -9.1239   -1.6650  -12.5658 H   0  0  0  0  0  0  0  0  0  0  0  0
   -5.3664   -0.0750  -11.1996 H   0  0  0  0  0  0  0  0  0  0  0  0
   -5.5078    0.6339  -15.8461 H   0  0  0  0  0  0  0  0  0  0  0  0
   -7.8591   -0.3236   -8.2527 H   0  0  0  0  0  0  0  0  0  0  0  0
 13 10  2  0
 12 10  2  0
 11 10  1  0
 10  2  1  0
  2  1  2  0
  2  3  1  0
  1  6  1  0
  3  4  2  0
  6  7  1  0
  6  5  2  0
  4  5  1  0
  4  9  1  0
  5  8  1  0
  1 14  1  0
  3 15  1  0
  8 16  1  0
 11 17  1  0
A    1
C01
A    2
C02
A    3
C03
A    4
C04
A    5
C05
A    6
C06
A    7
CL7
A    8
O08
A    9
CL9
A   10
S10
A   11
O11
A   12
O12
A   13
O13
M  END
