5K0B_6PS_A_301
     RDKit          3D

 37 39  0  0  0  0  0  0  0  0999 V2000
   98.1000   57.0490    2.3130 C   0  0  0  0  0  0  0  0  0  0  0  0
   97.5500   56.5550    1.0050 C   0  0  0  0  0  0  0  0  0  0  0  0
   96.2650   55.9130   -1.0570 C   0  0  0  0  0  0  0  0  0  0  0  0
   97.6030   55.4310   -0.9870 C   0  0  0  0  0  0  0  0  0  0  0  0
   98.2860   54.5810   -2.0440 C   0  0  0  0  0  0  0  0  0  0  0  0
   95.2640   54.6690   -2.9810 N   0  0  0  0  0  0  0  0  0  0  0  0
   93.5360   55.8890   -3.5490 C   0  0  0  0  0  0  0  0  0  0  0  0
   92.2930   56.3040   -4.3090 C   0  0  0  0  0  0  0  0  0  0  0  0
   91.6730   57.5470   -3.7060 C   0  0  0  0  0  0  0  0  0  0  0  0
   92.0860   58.8090   -4.1090 C   0  0  0  0  0  0  0  0  0  0  0  0
   91.5090   59.9480   -3.5590 C   0  0  0  0  0  0  0  0  0  0  0  0
   90.5010   59.8310   -2.6120 C   0  0  0  0  0  0  0  0  0  0  0  0
   90.0810   58.5690   -2.2180 C   0  0  0  0  0  0  0  0  0  0  0  0
   90.6640   57.4330   -2.7620 C   0  0  0  0  0  0  0  0  0  0  0  0
   96.0080   56.8130    0.3640 S   0  0  0  0  0  0  0  0  0  0  0  0
   98.2610   55.8090    0.1470 N   0  0  0  0  0  0  0  0  0  0  0  0
   95.2650   55.7000   -2.1540 C   0  0  0  0  0  0  0  0  0  0  0  0
   94.2570   54.7960   -3.7910 N   0  0  0  0  0  0  0  0  0  0  0  0
   94.1580   56.5500   -2.4540 C   0  0  0  0  0  0  0  0  0  0  0  0
   92.6990   56.5690   -5.7320 C   0  0  0  0  0  0  0  0  0  0  0  0
   97.5625   56.5662    3.1425 H   0  0  0  0  0  0  0  0  0  0  0  0
   99.1702   56.8030    2.3771 H   0  0  0  0  0  0  0  0  0  0  0  0
   97.9699   58.1394    2.3771 H   0  0  0  0  0  0  0  0  0  0  0  0
   98.9030   53.8131   -1.5546 H   0  0  0  0  0  0  0  0  0  0  0  0
   97.5247   54.0945   -2.6715 H   0  0  0  0  0  0  0  0  0  0  0  0
   98.9250   55.2197   -2.6715 H   0  0  0  0  0  0  0  0  0  0  0  0
   95.9455   53.8967   -2.9827 H   0  0  0  0  0  0  0  0  0  0  0  0
   91.5396   55.5042   -4.2574 H   0  0  0  0  0  0  0  0  0  0  0  0
   92.8752   58.9088   -4.8687 H   0  0  0  0  0  0  0  0  0  0  0  0
   91.8521   60.9442   -3.8750 H   0  0  0  0  0  0  0  0  0  0  0  0
   90.0396   60.7304   -2.1781 H   0  0  0  0  0  0  0  0  0  0  0  0
   89.2810   58.4680   -1.4698 H   0  0  0  0  0  0  0  0  0  0  0  0
   90.3237   56.4369   -2.4425 H   0  0  0  0  0  0  0  0  0  0  0  0
   93.8594   57.4862   -1.9597 H   0  0  0  0  0  0  0  0  0  0  0  0
   93.6201   57.1702   -5.7446 H   0  0  0  0  0  0  0  0  0  0  0  0
   92.8779   55.6132   -6.2463 H   0  0  0  0  0  0  0  0  0  0  0  0
   91.8961   57.1175   -6.2463 H   0  0  0  0  0  0  0  0  0  0  0  0
 20  8  1  0
  8  9  1  0
  8  7  1  0
 10  9  2  0
 10 11  1  0
 18  7  2  0
 18  6  1  0
  9 14  1  0
 11 12  2  0
  7 19  1  0
  6 17  1  0
 14 13  2  0
 12 13  1  0
 19 17  2  0
 17  3  1  0
  5  4  1  0
  3  4  2  0
  3 15  1  0
  4 16  1  0
 16  2  2  0
 15  2  1  0
  2  1  1  0
  1 21  1  0
  1 22  1  0
  1 23  1  0
  5 24  1  0
  5 25  1  0
  5 26  1  0
  6 27  1  0
  8 28  1  0
 10 29  1  0
 11 30  1  0
 12 31  1  0
 13 32  1  0
 14 33  1  0
 19 34  1  0
 20 35  1  0
 20 36  1  0
 20 37  1  0
A    1
C01
A    2
C02
A    3
C04
A    4
C05
A    5
C07
A    6
N09
A    7
C11
A    8
C13
A    9
C15
A   10
C16
A   11
C17
A   12
C18
A   13
C19
A   14
C20
A   15
S03
A   16
N06
A   17
C08
A   18
N10
A   19
C12
A   20
C14
M  END
