5K0F_6P1_A_302
     RDKit          3D

 41 43  0  0  0  0  0  0  0  0999 V2000
    9.3030  -20.7470    9.9500 C   0  0  0  0  0  0  0  0  0  0  0  0
   10.2270  -19.1760   11.3290 C   0  0  0  0  0  0  0  0  0  0  0  0
    8.2960  -21.4160    9.0530 C   0  0  0  0  0  0  0  0  0  0  0  0
   12.6170  -20.1050   12.0610 C   0  0  0  0  0  0  0  0  0  0  0  0
   12.8660  -19.4860   13.2030 N   0  0  0  0  0  0  0  0  0  0  0  0
   14.7140  -20.5300   12.6830 C   0  0  0  0  0  0  0  0  0  0  0  0
   16.1510  -20.9750   12.8360 C   0  0  0  0  0  0  0  0  0  0  0  0
   17.0510  -19.7750   12.6500 C   0  0  0  0  0  0  0  0  0  0  0  0
   16.4160  -23.3580   12.1290 C   0  0  0  0  0  0  0  0  0  0  0  0
   16.7590  -24.3150   11.1750 C   0  0  0  0  0  0  0  0  0  0  0  0
   17.1930  -23.9260    9.9070 C   0  0  0  0  0  0  0  0  0  0  0  0
   17.2870  -22.5730    9.5940 C   0  0  0  0  0  0  0  0  0  0  0  0
   16.9480  -21.6170   10.5490 C   0  0  0  0  0  0  0  0  0  0  0  0
   17.4150  -26.2260    9.3690 C   0  0  0  0  0  0  0  0  0  0  0  0
   10.8240  -21.3770   10.3480 S   0  0  0  0  0  0  0  0  0  0  0  0
   11.2990  -20.1070   11.3460 C   0  0  0  0  0  0  0  0  0  0  0  0
    9.1540  -19.5600   10.5570 N   0  0  0  0  0  0  0  0  0  0  0  0
   10.2450  -17.8800   12.0970 C   0  0  0  0  0  0  0  0  0  0  0  0
   14.0920  -19.7440   13.5340 N   0  0  0  0  0  0  0  0  0  0  0  0
   13.7760  -20.8310   11.6550 C   0  0  0  0  0  0  0  0  0  0  0  0
   16.5110  -22.0130   11.8070 C   0  0  0  0  0  0  0  0  0  0  0  0
   17.5430  -24.8890    8.9310 O   0  0  0  0  0  0  0  0  0  0  0  0
    7.5360  -21.9209    9.6674 H   0  0  0  0  0  0  0  0  0  0  0  0
    7.8111  -20.6599    8.4181 H   0  0  0  0  0  0  0  0  0  0  0  0
    8.8051  -22.1561    8.4181 H   0  0  0  0  0  0  0  0  0  0  0  0
   12.2037  -18.9030   13.7344 H   0  0  0  0  0  0  0  0  0  0  0  0
   16.2785  -21.4143   13.8364 H   0  0  0  0  0  0  0  0  0  0  0  0
   17.3459  -19.3818   13.6341 H   0  0  0  0  0  0  0  0  0  0  0  0
   17.9496  -20.0738   12.0903 H   0  0  0  0  0  0  0  0  0  0  0  0
   16.5125  -18.9961   12.0903 H   0  0  0  0  0  0  0  0  0  0  0  0
   16.0733  -23.6672   13.1275 H   0  0  0  0  0  0  0  0  0  0  0  0
   16.6870  -25.3841   11.4235 H   0  0  0  0  0  0  0  0  0  0  0  0
   17.6277  -22.2597    8.5961 H   0  0  0  0  0  0  0  0  0  0  0  0
   17.0264  -20.5469   10.3067 H   0  0  0  0  0  0  0  0  0  0  0  0
   17.4124  -26.2529   10.4687 H   0  0  0  0  0  0  0  0  0  0  0  0
   16.4724  -26.6475    8.9897 H   0  0  0  0  0  0  0  0  0  0  0  0
   18.2605  -26.8186    8.9897 H   0  0  0  0  0  0  0  0  0  0  0  0
   10.2420  -18.0932   13.1761 H   0  0  0  0  0  0  0  0  0  0  0  0
   11.1511  -17.3127   11.8378 H   0  0  0  0  0  0  0  0  0  0  0  0
    9.3550  -17.2878   11.8378 H   0  0  0  0  0  0  0  0  0  0  0  0
   13.9115  -21.4663   10.7673 H   0  0  0  0  0  0  0  0  0  0  0  0
 22 14  1  0
 22 11  1  0
  3  1  1  0
 12 11  2  0
 12 13  1  0
 11 10  1  0
  1 15  1  0
  1 17  2  0
 15 16  1  0
 13 21  2  0
 17  2  1  0
 10  9  2  0
  2 16  2  0
  2 18  1  0
 16  4  1  0
 20  4  2  0
 20  6  1  0
 21  9  1  0
 21  7  1  0
  4  5  1  0
  8  7  1  0
  6  7  1  0
  6 19  2  0
  5 19  1  0
  3 23  1  0
  3 24  1  0
  3 25  1  0
  5 26  1  0
  7 27  1  0
  8 28  1  0
  8 29  1  0
  8 30  1  0
  9 31  1  0
 10 32  1  0
 12 33  1  0
 13 34  1  0
 14 35  1  0
 14 36  1  0
 14 37  1  0
 18 38  1  0
 18 39  1  0
 18 40  1  0
 20 41  1  0
A    1
C01
A    2
C04
A    3
C06
A    4
C07
A    5
N09
A    6
C11
A    7
C13
A    8
C15
A    9
C16
A   10
C17
A   11
C18
A   12
C19
A   13
C20
A   14
C22
A   15
S02
A   16
C03
A   17
N05
A   18
C08
A   19
N10
A   20
C12
A   21
C14
A   22
O21
M  END
