5K0G_6PM_A_302
     RDKit          3D

 42 44  0  0  0  0  0  0  0  0999 V2000
   10.3800  -20.9400   10.3650 C   0  0  0  0  0  0  0  0  0  0  0  0
   10.9210  -19.9840   11.2260 C   0  0  0  0  0  0  0  0  0  0  0  0
    8.3230  -21.1690    9.0930 C   0  0  0  0  0  0  0  0  0  0  0  0
   10.0520  -17.6620   12.1140 C   0  0  0  0  0  0  0  0  0  0  0  0
   12.6690  -19.3920   13.0820 N   0  0  0  0  0  0  0  0  0  0  0  0
   14.4060  -20.5690   12.5430 C   0  0  0  0  0  0  0  0  0  0  0  0
   15.7800  -21.1480   12.6020 C   0  0  0  0  0  0  0  0  0  0  0  0
   16.5050  -20.5760   13.7590 C   0  0  0  0  0  0  0  0  0  0  0  0
   16.4170  -23.5090   12.1200 C   0  0  0  0  0  0  0  0  0  0  0  0
   16.2020  -24.9180   12.2660 C   0  0  0  0  0  0  0  0  0  0  0  0
   15.1280  -25.3920   13.0600 C   0  0  0  0  0  0  0  0  0  0  0  0
   14.2840  -24.5180   13.6890 C   0  0  0  0  0  0  0  0  0  0  0  0
   14.5050  -23.1230   13.5440 C   0  0  0  0  0  0  0  0  0  0  0  0
   16.0800  -27.5300   12.9510 C   0  0  0  0  0  0  0  0  0  0  0  0
    9.9500  -18.9530   11.2980 C   0  0  0  0  0  0  0  0  0  0  0  0
    8.9510  -19.3270   10.5210 N   0  0  0  0  0  0  0  0  0  0  0  0
    9.1960  -20.4780    9.9850 N   0  0  0  0  0  0  0  0  0  0  0  0
   12.3360  -20.0520   11.9800 C   0  0  0  0  0  0  0  0  0  0  0  0
   13.8710  -19.6970   13.3980 N   0  0  0  0  0  0  0  0  0  0  0  0
   13.4330  -20.8430   11.5790 C   0  0  0  0  0  0  0  0  0  0  0  0
   15.5860  -22.6410   12.7550 C   0  0  0  0  0  0  0  0  0  0  0  0
   14.9230  -26.7660   13.1970 O   0  0  0  0  0  0  0  0  0  0  0  0
   10.8442  -21.8899   10.0612 H   0  0  0  0  0  0  0  0  0  0  0  0
    7.5902  -21.7490    9.6731 H   0  0  0  0  0  0  0  0  0  0  0  0
    7.7954  -20.4411    8.4591 H   0  0  0  0  0  0  0  0  0  0  0  0
    8.9103  -21.8496    8.4591 H   0  0  0  0  0  0  0  0  0  0  0  0
   10.0329  -17.9039   13.1869 H   0  0  0  0  0  0  0  0  0  0  0  0
   10.9936  -17.1479   11.8708 H   0  0  0  0  0  0  0  0  0  0  0  0
    9.2029  -17.0064   11.8708 H   0  0  0  0  0  0  0  0  0  0  0  0
   12.0601  -18.7411   13.5982 H   0  0  0  0  0  0  0  0  0  0  0  0
   16.3751  -20.9222   11.7048 H   0  0  0  0  0  0  0  0  0  0  0  0
   16.0482  -20.9364   14.6925 H   0  0  0  0  0  0  0  0  0  0  0  0
   17.5591  -20.8884   13.7221 H   0  0  0  0  0  0  0  0  0  0  0  0
   16.4464  -19.4782   13.7221 H   0  0  0  0  0  0  0  0  0  0  0  0
   17.2453  -23.1340   11.5009 H   0  0  0  0  0  0  0  0  0  0  0  0
   16.8703  -25.6316   11.7620 H   0  0  0  0  0  0  0  0  0  0  0  0
   13.4469  -24.8904   14.2978 H   0  0  0  0  0  0  0  0  0  0  0  0
   13.8350  -22.4093   14.0458 H   0  0  0  0  0  0  0  0  0  0  0  0
   16.5325  -27.8288   13.9081 H   0  0  0  0  0  0  0  0  0  0  0  0
   15.8108  -28.4285   12.3764 H   0  0  0  0  0  0  0  0  0  0  0  0
   16.8006  -26.9295   12.3764 H   0  0  0  0  0  0  0  0  0  0  0  0
   13.5051  -21.5163   10.7122 H   0  0  0  0  0  0  0  0  0  0  0  0
  3 17  1  0
 17  1  1  0
 17 16  1  0
  1  2  2  0
 16 15  2  0
  2 15  1  0
  2 18  1  0
 15  4  1  0
 20 18  2  0
 20  6  1  0
 18  5  1  0
  9 10  2  0
  9 21  1  0
 10 11  1  0
  6  7  1  0
  6 19  2  0
  7 21  1  0
  7  8  1  0
 21 13  2  0
 14 22  1  0
 11 22  1  0
 11 12  2  0
  5 19  1  0
 13 12  1  0
  1 23  1  0
  3 24  1  0
  3 25  1  0
  3 26  1  0
  4 27  1  0
  4 28  1  0
  4 29  1  0
  5 30  1  0
  7 31  1  0
  8 32  1  0
  8 33  1  0
  8 34  1  0
  9 35  1  0
 10 36  1  0
 12 37  1  0
 13 38  1  0
 14 39  1  0
 14 40  1  0
 14 41  1  0
 20 42  1  0
A    1
C01
A    2
C02
A    3
C06
A    4
C07
A    5
N09
A    6
C11
A    7
C13
A    8
C15
A    9
C16
A   10
C17
A   11
C18
A   12
C19
A   13
C20
A   14
C22
A   15
C03
A   16
N04
A   17
N05
A   18
C08
A   19
N10
A   20
C12
A   21
C14
A   22
O21
M  END
