5K0K_6Q1_A_904
     RDKit          3D

 69 73  0  0  0  0  0  0  0  0999 V2000
    1.2690    2.0210   12.2740 C   0  0  0  0  0  0  0  0  0  0  0  0
    3.6760    3.9860   16.1480 C   0  0  0  0  0  0  0  0  0  0  0  0
    3.5030    5.1890   19.3750 C   0  0  0  0  0  0  0  0  0  0  0  0
    3.9680    5.6940   20.7470 C   0  0  0  0  0  0  0  0  0  0  0  0
    4.5100    3.7270   22.2690 C   0  0  0  0  0  0  0  0  0  0  0  0
    4.1110    2.7620   23.4030 C   0  0  0  0  0  0  0  0  0  0  0  0
    4.0830    1.3130   23.0730 C   0  0  0  0  0  0  0  0  0  0  0  0
    3.1550    0.8390   22.0050 C   0  0  0  0  0  0  0  0  0  0  0  0
    3.6920   -0.2670   21.0060 C   0  0  0  0  0  0  0  0  0  0  0  0
    4.5310   -0.5780    6.3200 C   0  0  0  0  0  0  0  0  0  0  0  0
    3.8300    0.2800    7.2880 N   0  0  0  0  0  0  0  0  0  0  0  0
    4.4680    0.7910    8.4680 C   0  0  0  0  0  0  0  0  0  0  0  0
    3.7990    2.0420    8.9380 C   0  0  0  0  0  0  0  0  0  0  0  0
    2.3690    1.8740    9.1210 N   0  0  0  0  0  0  0  0  0  0  0  0
    1.5920    2.8360    9.9200 C   0  0  0  0  0  0  0  0  0  0  0  0
    1.9620    2.8380   11.3490 C   0  0  0  0  0  0  0  0  0  0  0  0
    2.9990    3.6740   11.7990 C   0  0  0  0  0  0  0  0  0  0  0  0
    3.3570    3.6900   13.1610 C   0  0  0  0  0  0  0  0  0  0  0  0
    2.6700    2.8670   14.0920 C   0  0  0  0  0  0  0  0  0  0  0  0
    1.6320    2.0420   13.6550 C   0  0  0  0  0  0  0  0  0  0  0  0
    3.0610    2.9100   15.4660 C   0  0  0  0  0  0  0  0  0  0  0  0
    3.8870    3.6060   17.4240 N   0  0  0  0  0  0  0  0  0  0  0  0
    4.4780    4.4590   18.4270 C   0  0  0  0  0  0  0  0  0  0  0  0
    3.5980    4.7700   21.8660 N   0  0  0  0  0  0  0  0  0  0  0  0
    5.6300    3.5980   21.6930 O   0  0  0  0  0  0  0  0  0  0  0  0
    2.9130   -0.6220   19.8840 N   0  0  0  0  0  0  0  0  0  0  0  0
    2.9110    0.2530   18.6340 C   0  0  0  0  0  0  0  0  0  0  0  0
    2.3810   -0.2500   17.4340 N   0  0  0  0  0  0  0  0  0  0  0  0
    2.3730    0.5240   16.3210 C   0  0  0  0  0  0  0  0  0  0  0  0
    2.8980    1.8460   16.3660 C   0  0  0  0  0  0  0  0  0  0  0  0
    3.4200    2.3210   17.5880 C   0  0  0  0  0  0  0  0  0  0  0  0
    3.4110    1.4860   18.7040 N   0  0  0  0  0  0  0  0  0  0  0  0
    1.7310    1.2700    7.9980 C   0  0  0  0  0  0  0  0  0  0  0  0
    2.4280    0.0310    7.5140 C   0  0  0  0  0  0  0  0  0  0  0  0
    0.4516    1.3705   11.9295 H   0  0  0  0  0  0  0  0  0  0  0  0
    3.9365    4.9622   15.7131 H   0  0  0  0  0  0  0  0  0  0  0  0
    3.1322    6.0677   18.8270 H   0  0  0  0  0  0  0  0  0  0  0  0
    2.7830    4.4000   19.6377 H   0  0  0  0  0  0  0  0  0  0  0  0
    5.0626    5.8017   20.7285 H   0  0  0  0  0  0  0  0  0  0  0  0
    3.4644    6.6542   20.9325 H   0  0  0  0  0  0  0  0  0  0  0  0
    4.8273    2.9018   24.2260 H   0  0  0  0  0  0  0  0  0  0  0  0
    3.0703    3.0210   23.6476 H   0  0  0  0  0  0  0  0  0  0  0  0
    3.8164    0.7760   23.9953 H   0  0  0  0  0  0  0  0  0  0  0  0
    5.0846    1.1127   22.6646 H   0  0  0  0  0  0  0  0  0  0  0  0
    2.8698    1.7150   21.4040 H   0  0  0  0  0  0  0  0  0  0  0  0
    2.3313    0.3507   22.5465 H   0  0  0  0  0  0  0  0  0  0  0  0
    3.8438   -1.1840   21.5942 H   0  0  0  0  0  0  0  0  0  0  0  0
    4.5883    0.1937   20.5652 H   0  0  0  0  0  0  0  0  0  0  0  0
    5.1374   -1.3202    6.8598 H   0  0  0  0  0  0  0  0  0  0  0  0
    3.7943   -1.0959    5.6883 H   0  0  0  0  0  0  0  0  0  0  0  0
    5.1854    0.0406    5.6883 H   0  0  0  0  0  0  0  0  0  0  0  0
    4.4137    0.0331    9.2634 H   0  0  0  0  0  0  0  0  0  0  0  0
    5.5162    1.0225    8.2280 H   0  0  0  0  0  0  0  0  0  0  0  0
    4.2446    2.3406    9.8983 H   0  0  0  0  0  0  0  0  0  0  0  0
    3.9485    2.8108    8.1656 H   0  0  0  0  0  0  0  0  0  0  0  0
    1.7604    3.8443    9.5139 H   0  0  0  0  0  0  0  0  0  0  0  0
    0.5356    2.5359    9.8563 H   0  0  0  0  0  0  0  0  0  0  0  0
    3.5327    4.3180   11.0846 H   0  0  0  0  0  0  0  0  0  0  0  0
    4.1725    4.3431   13.5051 H   0  0  0  0  0  0  0  0  0  0  0  0
    1.0935    1.4079   14.3747 H   0  0  0  0  0  0  0  0  0  0  0  0
    5.1417    3.8367   19.0454 H   0  0  0  0  0  0  0  0  0  0  0  0
    4.9883    5.2558   17.8660 H   0  0  0  0  0  0  0  0  0  0  0  0
    2.6939    4.8789   22.3472 H   0  0  0  0  0  0  0  0  0  0  0  0
    2.3414   -1.4784   19.9091 H   0  0  0  0  0  0  0  0  0  0  0  0
    1.9598    0.1293   15.3811 H   0  0  0  0  0  0  0  0  0  0  0  0
    1.7064    2.0004    7.1759 H   0  0  0  0  0  0  0  0  0  0  0  0
    0.7217    0.9719    8.3182 H   0  0  0  0  0  0  0  0  0  0  0  0
    1.9648   -0.2972    6.5718 H   0  0  0  0  0  0  0  0  0  0  0  0
    2.3308   -0.7484    8.2841 H   0  0  0  0  0  0  0  0  0  0  0  0
 10 11  1  0
 11 34  1  0
 11 12  1  0
 34 33  1  0
 33 14  1  0
 12 13  1  0
 13 14  1  0
 14 15  1  0
 15 16  1  0
 16 17  1  0
 16  1  2  0
 17 18  2  0
  1 20  1  0
 18 19  1  0
 20 19  2  0
 19 21  1  0
 21  2  2  0
 21 30  1  0
  2 22  1  0
 29 30  2  0
 29 28  1  0
 30 31  1  0
 22 31  1  0
 22 23  1  0
 28 27  2  0
 31 32  2  0
 23  3  1  0
 27 32  1  0
 27 26  1  0
  3  4  1  0
 26  9  1  0
  4 24  1  0
  9  8  1  0
 25  5  2  0
 24  5  1  0
  8  7  1  0
  5  6  1  0
  7  6  1  0
  1 35  1  0
  2 36  1  0
  3 37  1  0
  3 38  1  0
  4 39  1  0
  4 40  1  0
  6 41  1  0
  6 42  1  0
  7 43  1  0
  7 44  1  0
  8 45  1  0
  8 46  1  0
  9 47  1  0
  9 48  1  0
 10 49  1  0
 10 50  1  0
 10 51  1  0
 12 52  1  0
 12 53  1  0
 13 54  1  0
 13 55  1  0
 15 56  1  0
 15 57  1  0
 17 58  1  0
 18 59  1  0
 20 60  1  0
 23 61  1  0
 23 62  1  0
 24 63  1  0
 26 64  1  0
 29 65  1  0
 33 66  1  0
 33 67  1  0
 34 68  1  0
 34 69  1  0
A    1
C12
A    2
C14
A    3
C17
A    4
C18
A    5
C20
A    6
C22
A    7
C23
A    8
C24
A    9
C25
A   10
C01
A   11
N02
A   12
C03
A   13
C04
A   14
N05
A   15
C06
A   16
C07
A   17
C08
A   18
C09
A   19
C10
A   20
C11
A   21
C13
A   22
N15
A   23
C16
A   24
N19
A   25
O21
A   26
N26
A   27
C27
A   28
N28
A   29
C29
A   30
C30
A   31
C31
A   32
N32
A   33
C33
A   34
C34
M  END
