5K14_IB1_A_601
     RDKit          3D

 39 41  0  0  0  0  0  0  0  0999 V2000
   12.7960   60.6840  -13.3000 C   0  0  0  0  0  0  0  0  0  0  0  0
   12.3730   61.2890  -14.4680 C   0  0  0  0  0  0  0  0  0  0  0  0
   11.2530   62.0580  -14.5290 N   0  0  0  0  0  0  0  0  0  0  0  0
   10.5290   62.2410  -13.4030 C   0  0  0  0  0  0  0  0  0  0  0  0
   10.8660   61.6840  -12.2060 N   0  0  0  0  0  0  0  0  0  0  0  0
   11.9920   60.9170  -12.1940 C   0  0  0  0  0  0  0  0  0  0  0  0
   13.1030   61.1170  -15.7570 C   0  0  0  0  0  0  0  0  0  0  0  0
   14.1680   60.5010  -15.8410 O   0  0  0  0  0  0  0  0  0  0  0  0
   12.5130   61.6640  -16.9860 C   0  0  0  0  0  0  0  0  0  0  0  0
   12.1010   60.8260  -18.0050 C   0  0  0  0  0  0  0  0  0  0  0  0
   11.5240   61.3370  -19.1760 C   0  0  0  0  0  0  0  0  0  0  0  0
   11.3530   62.7260  -19.3120 C   0  0  0  0  0  0  0  0  0  0  0  0
   11.7410   63.5650  -18.2700 C   0  0  0  0  0  0  0  0  0  0  0  0
   12.3210   63.0210  -17.1330 C   0  0  0  0  0  0  0  0  0  0  0  0
   12.7000   63.8350  -16.1530 F   0  0  0  0  0  0  0  0  0  0  0  0
   10.7860   63.2220  -20.4570 O   0  0  0  0  0  0  0  0  0  0  0  0
    9.3710   63.0170  -13.4440 N   0  0  0  0  0  0  0  0  0  0  0  0
    8.8370   63.8770  -14.4140 C   0  0  0  0  0  0  0  0  0  0  0  0
    7.5140   64.3200  -14.2590 C   0  0  0  0  0  0  0  0  0  0  0  0
    6.9090   65.1940  -15.1770 C   0  0  0  0  0  0  0  0  0  0  0  0
    7.6370   65.6530  -16.2860 C   0  0  0  0  0  0  0  0  0  0  0  0
    8.9530   65.2220  -16.4520 C   0  0  0  0  0  0  0  0  0  0  0  0
    9.5450   64.3480  -15.5230 C   0  0  0  0  0  0  0  0  0  0  0  0
    7.0370   66.5510  -17.2350 C   0  0  0  0  0  0  0  0  0  0  0  0
    6.5350   67.2820  -17.9960 N   0  0  0  0  0  0  0  0  0  0  0  0
   12.2780   59.5120  -17.8230 F   0  0  0  0  0  0  0  0  0  0  0  0
   10.7160   62.4100  -21.6170 C   0  0  0  0  0  0  0  0  0  0  0  0
   13.7030   60.0636  -13.2509 H   0  0  0  0  0  0  0  0  0  0  0  0
   12.2836   60.4504  -11.2415 H   0  0  0  0  0  0  0  0  0  0  0  0
   11.2079   60.6575  -19.9812 H   0  0  0  0  0  0  0  0  0  0  0  0
   11.5886   64.6516  -18.3480 H   0  0  0  0  0  0  0  0  0  0  0  0
    8.7941   62.9439  -12.5938 H   0  0  0  0  0  0  0  0  0  0  0  0
    6.9333   63.9720  -13.3920 H   0  0  0  0  0  0  0  0  0  0  0  0
    5.8684   65.5177  -15.0275 H   0  0  0  0  0  0  0  0  0  0  0  0
    9.5341   65.5695  -17.3189 H   0  0  0  0  0  0  0  0  0  0  0  0
   10.5869   64.0284  -15.6723 H   0  0  0  0  0  0  0  0  0  0  0  0
   10.6250   61.3545  -21.3208 H   0  0  0  0  0  0  0  0  0  0  0  0
    9.8395   62.6998  -22.2151 H   0  0  0  0  0  0  0  0  0  0  0  0
   11.6292   62.5456  -22.2151 H   0  0  0  0  0  0  0  0  0  0  0  0
 27 16  1  0
 16 12  1  0
 12 11  1  0
 12 13  2  0
 11 10  2  0
 13 14  1  0
 10 26  1  0
 10  9  1  0
 25 24  3  0
 24 21  1  0
 14  9  2  0
 14 15  1  0
  9  7  1  0
 22 21  2  0
 22 23  1  0
 21 20  1  0
  8  7  2  0
  7  2  1  0
 23 18  2  0
 20 19  2  0
  3  2  1  0
  3  4  2  0
  2  1  2  0
 18 19  1  0
 18 17  1  0
 17  4  1  0
  4  5  1  0
  1  6  1  0
  5  6  2  0
  1 28  1  0
  6 29  1  0
 11 30  1  0
 13 31  1  0
 17 32  1  0
 19 33  1  0
 20 34  1  0
 22 35  1  0
 23 36  1  0
 27 37  1  0
 27 38  1  0
 27 39  1  0
A    1
C01
A    2
C02
A    3
N03
A    4
C04
A    5
N05
A    6
C06
A    7
C07
A    8
O08
A    9
C09
A   10
C10
A   11
C11
A   12
C12
A   13
C13
A   14
C14
A   15
F15
A   16
O16
A   17
N17
A   18
C18
A   19
C19
A   20
C20
A   21
C21
A   22
C22
A   23
C23
A   24
C24
A   25
N25
A   26
F26
A   27
C27
M  END
