3EML_ZMA_A_401
     RDKit          3D

 40 43  0  0  0  0  0  0  0  0999 V2000
  -10.9920   -8.7960   60.6170 C   0  0  0  0  0  0  0  0  0  0  0  0
  -11.2410   -8.2970   61.8890 C   0  0  0  0  0  0  0  0  0  0  0  0
  -11.9840   -7.1330   62.0450 C   0  0  0  0  0  0  0  0  0  0  0  0
  -12.2310   -6.6380   63.2860 O   0  0  0  0  0  0  0  0  0  0  0  0
  -12.4760   -6.4690   60.9280 C   0  0  0  0  0  0  0  0  0  0  0  0
  -12.2300   -6.9690   59.6570 C   0  0  0  0  0  0  0  0  0  0  0  0
  -11.4920   -8.1350   59.5010 C   0  0  0  0  0  0  0  0  0  0  0  0
  -11.2080   -8.6770   58.1010 C   0  0  0  0  0  0  0  0  0  0  0  0
   -9.7460   -9.1040   58.0060 C   0  0  0  0  0  0  0  0  0  0  0  0
   -9.4200   -9.5440   56.6440 N   0  0  0  0  0  0  0  0  0  0  0  0
   -8.9530   -8.5930   55.8420 C   0  0  0  0  0  0  0  0  0  0  0  0
   -8.5850   -8.8570   54.5780 N   0  0  0  0  0  0  0  0  0  0  0  0
   -8.8330   -7.3590   56.3580 N   0  0  0  0  0  0  0  0  0  0  0  0
   -8.3650   -6.3420   55.6260 C   0  0  0  0  0  0  0  0  0  0  0  0
   -8.2660   -5.1250   56.1560 N   0  0  0  0  0  0  0  0  0  0  0  0
   -7.9810   -6.5820   54.3090 N   0  0  0  0  0  0  0  0  0  0  0  0
   -7.5250   -5.8520   53.4280 N   0  0  0  0  0  0  0  0  0  0  0  0
   -8.1040   -7.8740   53.8000 C   0  0  0  0  0  0  0  0  0  0  0  0
   -7.6760   -7.8290   52.5440 N   0  0  0  0  0  0  0  0  0  0  0  0
   -7.3130   -6.5650   52.3200 C   0  0  0  0  0  0  0  0  0  0  0  0
   -6.8090   -6.0540   51.1310 C   0  0  0  0  0  0  0  0  0  0  0  0
   -6.5540   -6.6880   49.9910 C   0  0  0  0  0  0  0  0  0  0  0  0
   -6.0810   -5.7960   49.1210 C   0  0  0  0  0  0  0  0  0  0  0  0
   -6.0340   -4.5980   49.7030 C   0  0  0  0  0  0  0  0  0  0  0  0
   -6.4920   -4.7390   50.9840 O   0  0  0  0  0  0  0  0  0  0  0  0
  -10.3992   -9.7142   60.4927 H   0  0  0  0  0  0  0  0  0  0  0  0
  -10.8503   -8.8229   62.7726 H   0  0  0  0  0  0  0  0  0  0  0  0
  -11.9713   -7.1584   64.0872 H   0  0  0  0  0  0  0  0  0  0  0  0
  -13.0613   -5.5458   61.0513 H   0  0  0  0  0  0  0  0  0  0  0  0
  -12.6194   -6.4419   58.7735 H   0  0  0  0  0  0  0  0  0  0  0  0
  -11.8563   -9.5438   57.9052 H   0  0  0  0  0  0  0  0  0  0  0  0
  -11.4092   -7.8922   57.3569 H   0  0  0  0  0  0  0  0  0  0  0  0
   -9.1032   -8.2524   58.2736 H   0  0  0  0  0  0  0  0  0  0  0  0
   -9.5774   -9.9425   58.6977 H   0  0  0  0  0  0  0  0  0  0  0  0
   -9.5441  -10.5180   56.3330 H   0  0  0  0  0  0  0  0  0  0  0  0
   -8.2565   -5.0081   57.1793 H   0  0  0  0  0  0  0  0  0  0  0  0
   -8.1989   -4.3001   55.5428 H   0  0  0  0  0  0  0  0  0  0  0  0
   -6.7065   -7.7604   49.7993 H   0  0  0  0  0  0  0  0  0  0  0  0
   -5.7775   -6.0141   48.0864 H   0  0  0  0  0  0  0  0  0  0  0  0
   -5.6888   -3.6634   49.2367 H   0  0  0  0  0  0  0  0  0  0  0  0
  7  1  2  0
  1  2  1  0
  2  3  2  0
  5  3  1  0
  3  4  1  0
  6  5  2  0
  7  6  1  0
  8  7  1  0
  9  8  1  0
 10  9  1  0
 11 10  1  0
 12 11  2  0
 11 13  1  0
 18 12  1  0
 14 13  2  0
 16 14  1  0
 14 15  1  0
 17 16  1  0
 18 16  1  0
 20 17  2  0
 19 18  2  0
 20 19  1  0
 21 20  1  0
 22 21  2  0
 25 21  1  0
 23 22  1  0
 23 24  2  0
 24 25  1  0
  1 26  1  0
  2 27  1  0
  4 28  1  0
  5 29  1  0
  6 30  1  0
  8 31  1  0
  8 32  1  0
  9 33  1  0
  9 34  1  0
 10 35  1  0
 15 36  1  0
 15 37  1  0
 22 38  1  0
 23 39  1  0
 24 40  1  0
A    1
C1
A    2
C2
A    3
C3
A    4
O4
A    5
C5
A    6
C6
A    7
C7
A    8
C8
A    9
C9
A   10
N10
A   11
C11
A   12
N12
A   13
N13
A   14
C14
A   15
N15
A   16
N16
A   17
N17
A   18
C18
A   19
N19
A   20
C20
A   21
C21
A   22
C22
A   23
C23
A   24
C24
A   25
O25
M  END
