5K32_6Q2_A_1003
     RDKit          3D

 45 48  0  0  0  0  0  0  0  0999 V2000
   12.9150   45.8290   13.9240 C   0  0  0  0  0  0  0  0  0  0  0  0
   15.7270   46.1260   10.6010 C   0  0  0  0  0  0  0  0  0  0  0  0
   17.1700   46.3790   10.7430 C   0  0  0  0  0  0  0  0  0  0  0  0
   17.8650   45.7840   11.8050 C   0  0  0  0  0  0  0  0  0  0  0  0
   17.8830   47.1170    9.7900 C   0  0  0  0  0  0  0  0  0  0  0  0
   13.1040   45.5470   10.2380 C   0  0  0  0  0  0  0  0  0  0  0  0
   11.6950   45.1840    9.9330 C   0  0  0  0  0  0  0  0  0  0  0  0
   12.3960   45.4920   16.2920 C   0  0  0  0  0  0  0  0  0  0  0  0
   11.9590   46.3190    7.7610 C   0  0  0  0  0  0  0  0  0  0  0  0
   19.2710   47.2780    9.9560 C   0  0  0  0  0  0  0  0  0  0  0  0
   19.9370   46.7010   11.0260 C   0  0  0  0  0  0  0  0  0  0  0  0
   19.2530   45.9430   11.9590 C   0  0  0  0  0  0  0  0  0  0  0  0
   11.1470   44.3850   10.7150 O   0  0  0  0  0  0  0  0  0  0  0  0
   13.9160   45.7540    9.1600 C   0  0  0  0  0  0  0  0  0  0  0  0
   13.3320   45.6920    7.7610 C   0  0  0  0  0  0  0  0  0  0  0  0
   11.1480   45.6460    8.8020 N   0  0  0  0  0  0  0  0  0  0  0  0
   15.2080   46.0450    9.3360 N   0  0  0  0  0  0  0  0  0  0  0  0
   14.9370   45.8870   11.7290 C   0  0  0  0  0  0  0  0  0  0  0  0
   13.5910   45.5910   11.5560 C   0  0  0  0  0  0  0  0  0  0  0  0
   12.7590   45.3670   12.6180 N   0  0  0  0  0  0  0  0  0  0  0  0
   12.3100   45.0830   14.9470 C   0  0  0  0  0  0  0  0  0  0  0  0
   11.8070   44.7560   17.3040 O   0  0  0  0  0  0  0  0  0  0  0  0
   10.7720   43.7910   17.0960 C   0  0  0  0  0  0  0  0  0  0  0  0
   13.1200   46.6570   16.5920 C   0  0  0  0  0  0  0  0  0  0  0  0
   13.7120   47.4340   15.5920 C   0  0  0  0  0  0  0  0  0  0  0  0
   13.6070   47.0180   14.2530 C   0  0  0  0  0  0  0  0  0  0  0  0
   17.3103   45.1775   12.5361 H   0  0  0  0  0  0  0  0  0  0  0  0
   17.3671   47.5630    8.9269 H   0  0  0  0  0  0  0  0  0  0  0  0
   12.0390   47.3927    7.9864 H   0  0  0  0  0  0  0  0  0  0  0  0
   11.4863   46.2034    6.7745 H   0  0  0  0  0  0  0  0  0  0  0  0
   19.8375   47.8722    9.2238 H   0  0  0  0  0  0  0  0  0  0  0  0
   21.0218   46.8476   11.1343 H   0  0  0  0  0  0  0  0  0  0  0  0
   19.7829   45.4755   12.8020 H   0  0  0  0  0  0  0  0  0  0  0  0
   13.2557   44.6421    7.4417 H   0  0  0  0  0  0  0  0  0  0  0  0
   13.9854   46.2399    7.0662 H   0  0  0  0  0  0  0  0  0  0  0  0
   10.1356   45.5304    8.6515 H   0  0  0  0  0  0  0  0  0  0  0  0
   15.3741   45.9326   12.7374 H   0  0  0  0  0  0  0  0  0  0  0  0
   11.9242   44.7930   12.4322 H   0  0  0  0  0  0  0  0  0  0  0  0
   11.7600   44.1644   14.6945 H   0  0  0  0  0  0  0  0  0  0  0  0
   10.3964   43.4408   18.0687 H   0  0  0  0  0  0  0  0  0  0  0  0
    9.9493   44.2519   16.5296 H   0  0  0  0  0  0  0  0  0  0  0  0
   11.1743   42.9381   16.5296 H   0  0  0  0  0  0  0  0  0  0  0  0
   13.2242   46.9667   17.6424 H   0  0  0  0  0  0  0  0  0  0  0  0
   14.2520   48.3573   15.8489 H   0  0  0  0  0  0  0  0  0  0  0  0
   14.0661   47.6213   13.4559 H   0  0  0  0  0  0  0  0  0  0  0  0
  9 15  1  0
  9 16  1  0
 15 14  1  0
 16  7  1  0
 14 17  1  0
 14  6  2  0
 17  2  2  0
  5 10  2  0
  5  3  1  0
  7  6  1  0
  7 13  2  0
 10 11  1  0
  6 19  1  0
  2  3  1  0
  2 18  1  0
  3  4  2  0
 11 12  2  0
 19 18  2  0
 19 20  1  0
  4 12  1  0
 20  1  1  0
  1 26  2  0
  1 21  1  0
 26 25  1  0
 21  8  2  0
 25 24  2  0
  8 24  1  0
  8 22  1  0
 23 22  1  0
  4 27  1  0
  5 28  1  0
  9 29  1  0
  9 30  1  0
 10 31  1  0
 11 32  1  0
 12 33  1  0
 15 34  1  0
 15 35  1  0
 16 36  1  0
 18 37  1  0
 20 38  1  0
 21 39  1  0
 23 40  1  0
 23 41  1  0
 23 42  1  0
 24 43  1  0
 25 44  1  0
 26 45  1  0
A    1
C18
A    2
C9
A    3
C11
A    4
C16
A    5
C12
A    6
C6
A    7
C5
A    8
C20
A    9
C3
A   10
C13
A   11
C14
A   12
C15
A   13
O24
A   14
C1
A   15
C2
A   16
N4
A   17
N10
A   18
C8
A   19
C7
A   20
N17
A   21
C19
A   22
O25
A   23
C26
A   24
C21
A   25
C22
A   26
C23
M  END
