5K5E_6QS_A_609
     RDKit          3D

 68 73  0  0  0  0  0  0  0  0999 V2000
    0.8880    7.8130   11.4680 O   0  0  0  0  0  0  0  0  0  0  0  0
    0.8830    7.1910   12.4910 C   0  0  0  0  0  0  0  0  0  0  0  0
   -0.3610    6.6890   13.1110 C   0  0  0  0  0  0  0  0  0  0  0  0
   -0.1850    5.1960   13.1610 C   0  0  0  0  0  0  0  0  0  0  0  0
    0.9320    4.8110   14.1090 C   0  0  0  0  0  0  0  0  0  0  0  0
    2.1780    5.6100   13.9010 C   0  0  0  0  0  0  0  0  0  0  0  0
    2.1530    6.8230   13.0960 C   0  0  0  0  0  0  0  0  0  0  0  0
    3.3030    7.6610   12.8560 C   0  0  0  0  0  0  0  0  0  0  0  0
    4.4840    7.0980   13.4940 C   0  0  0  0  0  0  0  0  0  0  0  0
    5.7680    7.8160   13.3370 C   0  0  0  0  0  0  0  0  0  0  0  0
    5.8000    9.1600   12.8920 O   0  0  0  0  0  0  0  0  0  0  0  0
    6.7790   10.0050   13.4300 C   0  0  0  0  0  0  0  0  0  0  0  0
    6.2270   11.3750   13.1930 C   0  0  0  0  0  0  0  0  0  0  0  0
    6.9910   11.9410   12.1630 O   0  0  0  0  0  0  0  0  0  0  0  0
    7.5170   13.1970   12.5600 C   0  0  0  0  0  0  0  0  0  0  0  0
    7.1330   13.4480   14.0030 C   0  0  0  0  0  0  0  0  0  0  0  0
    6.4120   12.2030   14.4380 C   0  0  0  0  0  0  0  0  0  0  0  0
    6.8210    7.3050   13.5570 O   0  0  0  0  0  0  0  0  0  0  0  0
    4.4160    5.8680   14.2900 C   0  0  0  0  0  0  0  0  0  0  0  0
    5.6340    5.3280   14.9550 C   0  0  0  0  0  0  0  0  0  0  0  0
    3.2930    5.2060   14.4500 N   0  0  0  0  0  0  0  0  0  0  0  0
    3.0390    8.9400   13.5370 C   0  0  0  0  0  0  0  0  0  0  0  0
    3.2640   10.0980   12.8220 C   0  0  0  0  0  0  0  0  0  0  0  0
    3.0730   11.3640   13.3380 C   0  0  0  0  0  0  0  0  0  0  0  0
    2.5950    9.0110   14.8500 C   0  0  0  0  0  0  0  0  0  0  0  0
    2.4000   10.2710   15.3750 C   0  0  0  0  0  0  0  0  0  0  0  0
    2.6300   11.4880   14.6240 C   0  0  0  0  0  0  0  0  0  0  0  0
    2.3530   12.5390   15.4050 N   0  0  0  0  0  0  0  0  0  0  0  0
    2.4950   13.8840   14.8940 C   0  0  0  0  0  0  0  0  0  0  0  0
    2.3830   14.9150   15.9740 C   0  0  0  0  0  0  0  0  0  0  0  0
    1.9520   12.1770   16.6320 C   0  0  0  0  0  0  0  0  0  0  0  0
    1.9600   10.7270   16.6720 C   0  0  0  0  0  0  0  0  0  0  0  0
    1.5960   10.0230   17.7870 C   0  0  0  0  0  0  0  0  0  0  0  0
    1.2140   10.7490   18.8970 C   0  0  0  0  0  0  0  0  0  0  0  0
    1.2010   12.1240   18.8810 C   0  0  0  0  0  0  0  0  0  0  0  0
    1.5660   12.8460   17.7620 C   0  0  0  0  0  0  0  0  0  0  0  0
   -0.4830    7.0997   14.1241 H   0  0  0  0  0  0  0  0  0  0  0  0
   -1.2572    6.9845   12.5458 H   0  0  0  0  0  0  0  0  0  0  0  0
   -1.1228    4.7348   13.5043 H   0  0  0  0  0  0  0  0  0  0  0  0
    0.0737    4.8403   12.1528 H   0  0  0  0  0  0  0  0  0  0  0  0
    0.5846    4.9663   15.1411 H   0  0  0  0  0  0  0  0  0  0  0  0
    1.1808    3.7576   13.9127 H   0  0  0  0  0  0  0  0  0  0  0  0
    3.4702    7.7616   11.7734 H   0  0  0  0  0  0  0  0  0  0  0  0
    6.9136    9.8160   14.5052 H   0  0  0  0  0  0  0  0  0  0  0  0
    7.7693    9.8576   12.9744 H   0  0  0  0  0  0  0  0  0  0  0  0
    5.1583   11.3363   12.9353 H   0  0  0  0  0  0  0  0  0  0  0  0
    8.6128   13.1866   12.4647 H   0  0  0  0  0  0  0  0  0  0  0  0
    7.1109   13.9936   11.9193 H   0  0  0  0  0  0  0  0  0  0  0  0
    8.0299   13.6101   14.6188 H   0  0  0  0  0  0  0  0  0  0  0  0
    6.5078   14.3463   14.1131 H   0  0  0  0  0  0  0  0  0  0  0  0
    5.4358   12.4595   14.8752 H   0  0  0  0  0  0  0  0  0  0  0  0
    6.9790   11.6559   15.2056 H   0  0  0  0  0  0  0  0  0  0  0  0
    5.5105    5.3827   16.0467 H   0  0  0  0  0  0  0  0  0  0  0  0
    5.7816    4.2801   14.6548 H   0  0  0  0  0  0  0  0  0  0  0  0
    6.5096    5.9222   14.6548 H   0  0  0  0  0  0  0  0  0  0  0  0
    3.2911    4.3489   15.0212 H   0  0  0  0  0  0  0  0  0  0  0  0
    3.6150   10.0076   11.7834 H   0  0  0  0  0  0  0  0  0  0  0  0
    3.2736   12.2554   12.7255 H   0  0  0  0  0  0  0  0  0  0  0  0
    2.4074    8.1044   15.4441 H   0  0  0  0  0  0  0  0  0  0  0  0
    3.4807   13.9786   14.4150 H   0  0  0  0  0  0  0  0  0  0  0  0
    1.6814   14.0592   14.1747 H   0  0  0  0  0  0  0  0  0  0  0  0
    2.4364   14.4238   16.9568 H   0  0  0  0  0  0  0  0  0  0  0  0
    3.2081   15.6363   15.8793 H   0  0  0  0  0  0  0  0  0  0  0  0
    1.4223   15.4423   15.8793 H   0  0  0  0  0  0  0  0  0  0  0  0
    1.6073    8.9231   17.7985 H   0  0  0  0  0  0  0  0  0  0  0  0
    0.9142   10.2174   19.8122 H   0  0  0  0  0  0  0  0  0  0  0  0
    0.8905   12.6651   19.7870 H   0  0  0  0  0  0  0  0  0  0  0  0
    1.5468   13.9457   17.7785 H   0  0  0  0  0  0  0  0  0  0  0  0
  1  2  2  0
 14 15  1  0
 14 13  1  0
  2  7  1  0
  2  3  1  0
 15 16  1  0
 23 24  2  0
 23 22  1  0
  8  7  1  0
  8  9  1  0
  8 22  1  0
 11 10  1  0
 11 12  1  0
  7  6  2  0
  3  4  1  0
  4  5  1  0
 13 12  1  0
 13 17  1  0
 10  9  1  0
 10 18  2  0
 24 27  1  0
  9 19  2  0
 22 25  2  0
  6  5  1  0
  6 21  1  0
 16 17  1  0
 19 21  1  0
 19 20  1  0
 27 26  2  0
 27 28  1  0
 25 26  1  0
 29 28  1  0
 29 30  1  0
 26 32  1  0
 28 31  1  0
 31 32  2  0
 31 36  1  0
 32 33  1  0
 36 35  2  0
 33 34  2  0
 35 34  1  0
  3 37  1  0
  3 38  1  0
  4 39  1  0
  4 40  1  0
  5 41  1  0
  5 42  1  0
  8 43  1  0
 12 44  1  0
 12 45  1  0
 13 46  1  0
 15 47  1  0
 15 48  1  0
 16 49  1  0
 16 50  1  0
 17 51  1  0
 17 52  1  0
 20 53  1  0
 20 54  1  0
 20 55  1  0
 21 56  1  0
 23 57  1  0
 24 58  1  0
 25 59  1  0
 29 60  1  0
 29 61  1  0
 30 62  1  0
 30 63  1  0
 30 64  1  0
 33 65  1  0
 34 66  1  0
 35 67  1  0
 36 68  1  0
A    1
O01
A    2
C02
A    3
C03
A    4
C04
A    5
C05
A    6
C06
A    7
C07
A    8
C08
A    9
C09
A   10
C10
A   11
O11
A   12
C12
A   13
C13
A   14
O14
A   15
C15
A   16
C16
A   17
C17
A   18
O18
A   19
C19
A   20
C20
A   21
N21
A   22
C22
A   23
C23
A   24
C24
A   25
C25
A   26
C26
A   27
C27
A   28
N28
A   29
C29
A   30
C30
A   31
C31
A   32
C32
A   33
C33
A   34
C34
A   35
C35
A   36
C36
M  END
