5K6E_6QP_A_601
     RDKit          3D

 50 53  0  0  0  0  0  0  0  0999 V2000
   13.0750   18.6780  -19.6200 C   0  0  0  0  0  0  0  0  0  0  0  0
   13.7670   19.8060  -14.4180 C   0  0  0  0  0  0  0  0  0  0  0  0
   15.1400   21.3450  -13.1680 C   0  0  0  0  0  0  0  0  0  0  0  0
   13.2860   22.1390  -14.5020 C   0  0  0  0  0  0  0  0  0  0  0  0
   12.9770   20.8440  -14.9030 C   0  0  0  0  0  0  0  0  0  0  0  0
   17.4000   19.3830  -17.2880 C   0  0  0  0  0  0  0  0  0  0  0  0
   19.3740   18.0440  -11.6670 C   0  0  0  0  0  0  0  0  0  0  0  0
   17.1270   18.1550  -12.3700 O   0  0  0  0  0  0  0  0  0  0  0  0
   18.2920   18.1880  -12.7310 C   0  0  0  0  0  0  0  0  0  0  0  0
   18.6720   18.3580  -14.1110 N   0  0  0  0  0  0  0  0  0  0  0  0
   17.7780   18.5350  -15.2390 C   0  0  0  0  0  0  0  0  0  0  0  0
   16.6060   18.0360  -15.2340 C   0  0  0  0  0  0  0  0  0  0  0  0
   15.7130   18.1610  -16.2250 C   0  0  0  0  0  0  0  0  0  0  0  0
   15.9760   18.8580  -17.4180 C   0  0  0  0  0  0  0  0  0  0  0  0
   15.2250   19.1430  -18.5980 O   0  0  0  0  0  0  0  0  0  0  0  0
   13.8080   18.8900  -18.3540 C   0  0  0  0  0  0  0  0  0  0  0  0
   12.6490   19.9350  -20.1110 O   0  0  0  0  0  0  0  0  0  0  0  0
   13.7590   17.7050  -17.4060 C   0  0  0  0  0  0  0  0  0  0  0  0
   14.4400   17.6620  -16.1820 N   0  0  0  0  0  0  0  0  0  0  0  0
   13.4510   18.1190  -14.8880 S   0  0  0  0  0  0  0  0  0  0  0  0
   14.8250   20.0590  -13.5510 C   0  0  0  0  0  0  0  0  0  0  0  0
   14.3630   22.3860  -13.6440 C   0  0  0  0  0  0  0  0  0  0  0  0
   14.6750   23.6290  -13.2520 F   0  0  0  0  0  0  0  0  0  0  0  0
   13.5960   17.2940  -13.7130 O   0  0  0  0  0  0  0  0  0  0  0  0
   12.0420   17.9810  -15.1750 O   0  0  0  0  0  0  0  0  0  0  0  0
   18.3290   19.2300  -16.1860 C   0  0  0  0  0  0  0  0  0  0  0  0
   19.7570   16.7810  -11.2060 C   0  0  0  0  0  0  0  0  0  0  0  0
   19.0340   15.3250  -11.8370 Cl  0  0  0  0  0  0  0  0  0  0  0  0
   20.7380   16.6660  -10.2320 C   0  0  0  0  0  0  0  0  0  0  0  0
   21.3310   17.8040   -9.7070 C   0  0  0  0  0  0  0  0  0  0  0  0
   20.9490   19.0610  -10.1560 C   0  0  0  0  0  0  0  0  0  0  0  0
   19.9720   19.1880  -11.1340 C   0  0  0  0  0  0  0  0  0  0  0  0
   19.6210   20.4170  -11.5350 F   0  0  0  0  0  0  0  0  0  0  0  0
   12.2009   18.0353  -19.4389 H   0  0  0  0  0  0  0  0  0  0  0  0
   13.7301   18.1894  -20.3562 H   0  0  0  0  0  0  0  0  0  0  0  0
   15.9908   21.5394  -12.4984 H   0  0  0  0  0  0  0  0  0  0  0  0
   12.6760   22.9798  -14.8639 H   0  0  0  0  0  0  0  0  0  0  0  0
   12.1346   20.6462  -15.5822 H   0  0  0  0  0  0  0  0  0  0  0  0
   17.7746   19.9569  -18.1484 H   0  0  0  0  0  0  0  0  0  0  0  0
   19.6812   18.3533  -14.3169 H   0  0  0  0  0  0  0  0  0  0  0  0
   16.3039   17.4581  -14.3481 H   0  0  0  0  0  0  0  0  0  0  0  0
   13.3002   19.7515  -17.8958 H   0  0  0  0  0  0  0  0  0  0  0  0
   12.4457   20.5348  -19.3501 H   0  0  0  0  0  0  0  0  0  0  0  0
   12.6961   17.5587  -17.1633 H   0  0  0  0  0  0  0  0  0  0  0  0
   14.3094   16.9473  -17.9830 H   0  0  0  0  0  0  0  0  0  0  0  0
   15.4203   19.2186  -13.1646 H   0  0  0  0  0  0  0  0  0  0  0  0
   19.3487   19.6416  -16.1569 H   0  0  0  0  0  0  0  0  0  0  0  0
   21.0455   15.6716   -9.8761 H   0  0  0  0  0  0  0  0  0  0  0  0
   22.1064   17.7107   -8.9324 H   0  0  0  0  0  0  0  0  0  0  0  0
   21.4225   19.9602   -9.7350 H   0  0  0  0  0  0  0  0  0  0  0  0
 17  1  1  0
  1 16  1  0
 15 16  1  0
 15 14  1  0
 16 18  1  0
 14  6  2  0
 14 13  1  0
 18 19  1  0
  6 26  1  0
 13 19  1  0
 13 12  2  0
 26 11  2  0
 19 20  1  0
 11 12  1  0
 11 10  1  0
 25 20  2  0
  5  4  2  0
  5  2  1  0
 20  2  1  0
 20 24  2  0
  4 22  1  0
  2 21  2  0
 10  9  1  0
 22 23  1  0
 22  3  2  0
 21  3  1  0
  9  8  2  0
  9  7  1  0
 28 27  1  0
  7 27  2  0
  7 32  1  0
 33 32  1  0
 27 29  1  0
 32 31  2  0
 29 30  2  0
 31 30  1  0
  1 34  1  0
  1 35  1  0
  3 36  1  0
  4 37  1  0
  5 38  1  0
  6 39  1  0
 10 40  1  0
 12 41  1  0
 16 42  1  0
 17 43  1  0
 18 44  1  0
 18 45  1  0
 21 46  1  0
 26 47  1  0
 29 48  1  0
 30 49  1  0
 31 50  1  0
A    1
C10
A    2
C15
A    3
C17
A    4
C20
A    5
C21
A    6
C24
A    7
C26
A    8
O01
A    9
C02
A   10
N03
A   11
C04
A   12
C05
A   13
C06
A   14
C07
A   15
O08
A   16
C09
A   17
O11
A   18
C12
A   19
N13
A   20
S14
A   21
C16
A   22
C18
A   23
F19
A   24
O22
A   25
O23
A   26
C25
A   27
C27
A   28
CL
A   29
C29
A   30
C30
A   31
C31
A   32
C32
A   33
F33
M  END
