5K7G_6R0_A_503
     RDKit          3D

 69 74  0  0  0  0  0  0  0  0999 V2000
   19.3350   13.0660   -3.9500 C   0  0  0  0  0  0  0  0  0  0  0  0
   20.3390   12.2000   -3.2400 C   0  0  0  0  0  0  0  0  0  0  0  0
   21.6440   12.9910   -3.3100 C   0  0  0  0  0  0  0  0  0  0  0  0
   22.6720   12.5150   -4.3470 C   0  0  0  0  0  0  0  0  0  0  0  0
   24.1910   13.1890   -6.2110 C   0  0  0  0  0  0  0  0  0  0  0  0
   23.5950   12.9180   -7.5980 C   0  0  0  0  0  0  0  0  0  0  0  0
   24.6740   12.5780   -8.6230 C   0  0  0  0  0  0  0  0  0  0  0  0
   25.5210   11.4140   -8.1430 C   0  0  0  0  0  0  0  0  0  0  0  0
   26.2080   11.7600   -6.8300 C   0  0  0  0  0  0  0  0  0  0  0  0
   25.1820   12.1080   -5.7450 C   0  0  0  0  0  0  0  0  0  0  0  0
   26.7670    9.6520   -9.3560 C   0  0  0  0  0  0  0  0  0  0  0  0
   26.5260    7.4790   -8.6940 C   0  0  0  0  0  0  0  0  0  0  0  0
   27.9230    7.8630  -10.4090 C   0  0  0  0  0  0  0  0  0  0  0  0
   29.1280    8.7590  -12.0560 C   0  0  0  0  0  0  0  0  0  0  0  0
   28.5970   11.2670  -11.8640 C   0  0  0  0  0  0  0  0  0  0  0  0
   27.2920   11.8490  -12.4270 C   0  0  0  0  0  0  0  0  0  0  0  0
   27.5010   13.2760  -12.8710 C   0  0  0  0  0  0  0  0  0  0  0  0
   29.7470   11.5040  -12.8620 C   0  0  0  0  0  0  0  0  0  0  0  0
   18.2690   12.7020   -4.4230 O   0  0  0  0  0  0  0  0  0  0  0  0
   23.1130   13.5770   -5.2720 N   0  0  0  0  0  0  0  0  0  0  0  0
   23.4300   14.7830   -4.4970 C   0  0  0  0  0  0  0  0  0  0  0  0
   22.1680   15.4350   -3.9490 C   0  0  0  0  0  0  0  0  0  0  0  0
   21.1620   14.4530   -3.3500 C   0  0  0  0  0  0  0  0  0  0  0  0
   19.8230   14.3140   -4.0060 N   0  0  0  0  0  0  0  0  0  0  0  0
   19.1000   15.4300   -4.6160 C   0  0  0  0  0  0  0  0  0  0  0  0
   26.4570   10.9490   -9.1620 N   0  0  0  0  0  0  0  0  0  0  0  0
   27.6780    9.2570  -10.4140 C   0  0  0  0  0  0  0  0  0  0  0  0
   28.4640    9.8080  -11.4940 C   0  0  0  0  0  0  0  0  0  0  0  0
   28.7780    7.5960  -11.4380 N   0  0  0  0  0  0  0  0  0  0  0  0
   27.3540    6.9530   -9.5970 N   0  0  0  0  0  0  0  0  0  0  0  0
   26.1990    8.7610   -8.5140 N   0  0  0  0  0  0  0  0  0  0  0  0
   29.7930   12.9540  -13.2820 C   0  0  0  0  0  0  0  0  0  0  0  0
   28.5490   13.3680  -13.8450 O   0  0  0  0  0  0  0  0  0  0  0  0
   20.0398   12.0352   -2.1944 H   0  0  0  0  0  0  0  0  0  0  0  0
   20.4290   11.2034   -3.6969 H   0  0  0  0  0  0  0  0  0  0  0  0
   22.3023   12.8301   -2.4435 H   0  0  0  0  0  0  0  0  0  0  0  0
   22.2203   11.7046   -4.9379 H   0  0  0  0  0  0  0  0  0  0  0  0
   23.5607   12.1819   -3.7910 H   0  0  0  0  0  0  0  0  0  0  0  0
   24.8588   14.0619   -6.2568 H   0  0  0  0  0  0  0  0  0  0  0  0
   23.0544   13.8149   -7.9345 H   0  0  0  0  0  0  0  0  0  0  0  0
   22.9177   12.0551   -7.5161 H   0  0  0  0  0  0  0  0  0  0  0  0
   25.3190   13.4563   -8.7733 H   0  0  0  0  0  0  0  0  0  0  0  0
   24.1877   12.2957   -9.5684 H   0  0  0  0  0  0  0  0  0  0  0  0
   24.8490   10.5643   -7.9524 H   0  0  0  0  0  0  0  0  0  0  0  0
   26.8034   10.8968   -6.4977 H   0  0  0  0  0  0  0  0  0  0  0  0
   26.8538   12.6353   -6.9937 H   0  0  0  0  0  0  0  0  0  0  0  0
   24.6192   11.1995   -5.4845 H   0  0  0  0  0  0  0  0  0  0  0  0
   25.7287   12.5018   -4.8755 H   0  0  0  0  0  0  0  0  0  0  0  0
   26.0501    6.7633   -8.0076 H   0  0  0  0  0  0  0  0  0  0  0  0
   29.8430    8.8394  -12.8881 H   0  0  0  0  0  0  0  0  0  0  0  0
   28.8302   11.7941  -10.9271 H   0  0  0  0  0  0  0  0  0  0  0  0
   26.5168   11.8219  -11.6470 H   0  0  0  0  0  0  0  0  0  0  0  0
   26.9777   11.2482  -13.2932 H   0  0  0  0  0  0  0  0  0  0  0  0
   27.7687   13.8881  -11.9971 H   0  0  0  0  0  0  0  0  0  0  0  0
   26.5683   13.6387  -13.3277 H   0  0  0  0  0  0  0  0  0  0  0  0
   29.5906   10.8746  -13.7505 H   0  0  0  0  0  0  0  0  0  0  0  0
   30.6989   11.2442  -12.3758 H   0  0  0  0  0  0  0  0  0  0  0  0
   24.0849   14.5076   -3.6572 H   0  0  0  0  0  0  0  0  0  0  0  0
   23.9318   15.5015   -5.1619 H   0  0  0  0  0  0  0  0  0  0  0  0
   22.4615   16.1486   -3.1650 H   0  0  0  0  0  0  0  0  0  0  0  0
   21.6675   15.9180   -4.8012 H   0  0  0  0  0  0  0  0  0  0  0  0
   21.0678   14.9407   -2.3686 H   0  0  0  0  0  0  0  0  0  0  0  0
   18.6837   16.0726   -3.8262 H   0  0  0  0  0  0  0  0  0  0  0  0
   19.7901   16.0166   -5.2402 H   0  0  0  0  0  0  0  0  0  0  0  0
   18.2826   15.0399   -5.2402 H   0  0  0  0  0  0  0  0  0  0  0  0
   26.9057   11.6517   -9.7667 H   0  0  0  0  0  0  0  0  0  0  0  0
   29.1086    6.6583  -11.7068 H   0  0  0  0  0  0  0  0  0  0  0  0
   30.5874   13.0854  -14.0314 H   0  0  0  0  0  0  0  0  0  0  0  0
   29.9940   13.5682  -12.3918 H   0  0  0  0  0  0  0  0  0  0  0  0
 33 32  1  0
 33 17  1  0
 32 18  1  0
 17 16  1  0
 18 15  1  0
 16 15  1  0
 14 28  2  0
 14 29  1  0
 15 28  1  0
 28 27  1  0
 29 13  1  0
 27 13  2  0
 27 11  1  0
 13 30  1  0
 30 12  2  0
 11 26  1  0
 11 31  2  0
 26  8  1  0
 12 31  1  0
  7  8  1  0
  7  6  1  0
  8  9  1  0
  6  5  1  0
  9 10  1  0
  5 10  1  0
  5 20  1  0
 20 21  1  0
 20  4  1  0
 25 24  1  0
 21 22  1  0
 19  1  2  0
  4  3  1  0
 24  1  1  0
 24 23  1  0
  1  2  1  0
 22 23  1  0
 23  3  1  0
  3  2  1  0
  2 34  1  0
  2 35  1  0
  3 36  1  0
  4 37  1  0
  4 38  1  0
  5 39  1  0
  6 40  1  0
  6 41  1  0
  7 42  1  0
  7 43  1  0
  8 44  1  0
  9 45  1  0
  9 46  1  0
 10 47  1  0
 10 48  1  0
 12 49  1  0
 14 50  1  0
 15 51  1  0
 16 52  1  0
 16 53  1  0
 17 54  1  0
 17 55  1  0
 18 56  1  0
 18 57  1  0
 21 58  1  0
 21 59  1  0
 22 60  1  0
 22 61  1  0
 23 62  1  0
 25 63  1  0
 25 64  1  0
 25 65  1  0
 26 66  1  0
 29 67  1  0
 32 68  1  0
 32 69  1  0
A    1
C1
A    2
C2
A    3
C3
A    4
C7
A    5
C8
A    6
C9
A    7
C10
A    8
C11
A    9
C12
A   10
C13
A   11
C14
A   12
C15
A   13
C16
A   14
C19
A   15
C20
A   16
C21
A   17
C22
A   18
C24
A   19
O
A   20
N1
A   21
C6
A   22
C5
A   23
C4
A   24
N
A   25
C
A   26
N2
A   27
C17
A   28
C18
A   29
N5
A   30
N4
A   31
N3
A   32
C23
A   33
O1
M  END
