5K8P_6R8_A_502
     RDKit          3D

 22 22  0  0  0  0  0  0  0  0999 V2000
  -36.5950  -23.4850  -74.5640 O   0  0  0  0  0  0  0  0  0  0  0  0
  -33.7440  -22.8340  -75.4050 O   0  0  0  0  0  0  0  0  0  0  0  0
  -34.5450  -22.1410  -76.1070 C   0  0  0  0  0  0  0  0  0  0  0  0
  -34.3550  -20.9060  -76.2850 O   0  0  0  0  0  0  0  0  0  0  0  0
  -36.9930  -23.0370  -75.9180 C   0  0  0  0  0  0  0  0  0  0  0  0
  -37.9570  -23.9930  -76.5800 C   0  0  0  0  0  0  0  0  0  0  0  0
  -37.7310  -24.4950  -77.8220 C   0  0  0  0  0  0  0  0  0  0  0  0
  -36.4660  -24.4280  -78.4460 C   0  0  0  0  0  0  0  0  0  0  0  0
  -35.5030  -23.5400  -77.8680 C   0  0  0  0  0  0  0  0  0  0  0  0
  -35.7450  -22.8170  -76.7540 C   0  0  0  0  0  0  0  0  0  0  0  0
  -36.2480  -25.0000  -79.7140 N   0  0  0  0  0  0  0  0  0  0  0  0
  -35.0600  -25.6490  -80.0120 O   0  0  0  0  0  0  0  0  0  0  0  0
  -37.2260  -24.9420  -80.7440 O   0  0  0  0  0  0  0  0  0  0  0  0
  -37.7070  -21.8010  -75.6950 N   0  0  0  0  0  0  0  0  0  0  0  0
  -37.0732  -22.9468  -73.8845 H   0  0  0  0  0  0  0  0  0  0  0  0
  -33.7902  -22.7941  -74.4169 H   0  0  0  0  0  0  0  0  0  0  0  0
  -38.0423  -24.8596  -75.9079 H   0  0  0  0  0  0  0  0  0  0  0  0
  -38.8392  -23.3567  -76.7439 H   0  0  0  0  0  0  0  0  0  0  0  0
  -38.5635  -24.9708  -78.3610 H   0  0  0  0  0  0  0  0  0  0  0  0
  -34.5210  -23.4425  -78.3539 H   0  0  0  0  0  0  0  0  0  0  0  0
  -37.8017  -21.6371  -74.6825 H   0  0  0  0  0  0  0  0  0  0  0  0
  -37.1860  -21.0217  -76.1217 H   0  0  0  0  0  0  0  0  0  0  0  0
  4  3  2  0
 14  5  1  0
  3  2  1  0
  3 10  1  0
 10  5  1  0
 10  9  2  0
  5  1  1  0
  5  6  1  0
  9  8  1  0
  6  7  1  0
  8  7  2  0
  8 11  1  0
 13 11  1  0
 11 12  2  0
  1 15  1  0
  2 16  1  0
  6 17  1  0
  6 18  1  0
  7 19  1  0
  9 20  1  0
 14 21  1  0
 14 22  1  0
M  CHG  2  11   1  13  -1
A    1
O14
A    2
O11
A    3
C10
A    4
O12
A    5
C01
A    6
C02
A    7
C03
A    8
C04
A    9
C05
A   10
C06
A   11
N07
A   12
O08
A   13
O09
A   14
N13
M  END
