5K8X_6ZH_A_501
     RDKit          3D

 43 45  0  0  0  0  0  0  0  0999 V2000
   52.0400   34.3630  129.2830 C   0  0  0  0  0  0  0  0  0  0  0  0
   51.1390   35.2720  128.9830 C   0  0  0  0  0  0  0  0  0  0  0  0
   50.8510   36.4380  129.8590 C   0  0  0  0  0  0  0  0  0  0  0  0
   51.1820   37.6320  129.1230 O   0  0  0  0  0  0  0  0  0  0  0  0
   49.3710   36.5890  130.1980 C   0  0  0  0  0  0  0  0  0  0  0  0
   49.1980   37.3400  131.3880 O   0  0  0  0  0  0  0  0  0  0  0  0
   48.8560   37.3410  128.9700 C   0  0  0  0  0  0  0  0  0  0  0  0
   47.6100   37.9960  129.2120 O   0  0  0  0  0  0  0  0  0  0  0  0
   50.0010   38.3280  128.7620 C   0  0  0  0  0  0  0  0  0  0  0  0
   50.1560   38.8220  127.3900 N   0  0  0  0  0  0  0  0  0  0  0  0
   50.1440   38.0810  126.2420 C   0  0  0  0  0  0  0  0  0  0  0  0
   50.3440   38.7810  125.1460 N   0  0  0  0  0  0  0  0  0  0  0  0
   50.5000   40.0720  125.6140 C   0  0  0  0  0  0  0  0  0  0  0  0
   50.7450   41.2960  124.9550 C   0  0  0  0  0  0  0  0  0  0  0  0
   50.8930   41.4080  123.6290 N   0  0  0  0  0  0  0  0  0  0  0  0
   50.8440   42.4090  125.7140 N   0  0  0  0  0  0  0  0  0  0  0  0
   50.7120   42.2970  127.0420 C   0  0  0  0  0  0  0  0  0  0  0  0
   50.4810   41.2030  127.7730 N   0  0  0  0  0  0  0  0  0  0  0  0
   50.3840   40.1230  126.9980 C   0  0  0  0  0  0  0  0  0  0  0  0
   52.3810   33.1800  128.4190 C   0  0  0  0  0  0  0  0  0  0  0  0
   51.9880   31.9510  129.0910 N   0  0  0  0  0  0  0  0  0  0  0  0
   52.7470   31.3250  129.9780 C   0  0  0  0  0  0  0  0  0  0  0  0
   53.9520   31.7810  130.2570 N   0  0  0  0  0  0  0  0  0  0  0  0
   52.3030   30.2240  130.5610 N   0  0  0  0  0  0  0  0  0  0  0  0
   52.5829   34.4755  130.2330 H   0  0  0  0  0  0  0  0  0  0  0  0
   50.5747   35.1654  128.0448 H   0  0  0  0  0  0  0  0  0  0  0  0
   51.4269   36.2872  130.7840 H   0  0  0  0  0  0  0  0  0  0  0  0
   48.8459   35.6414  130.3889 H   0  0  0  0  0  0  0  0  0  0  0  0
   49.3336   36.7514  132.1724 H   0  0  0  0  0  0  0  0  0  0  0  0
   48.6329   36.7037  128.1016 H   0  0  0  0  0  0  0  0  0  0  0  0
   47.4621   38.0737  130.1878 H   0  0  0  0  0  0  0  0  0  0  0  0
   49.7909   39.2209  129.3692 H   0  0  0  0  0  0  0  0  0  0  0  0
   49.9812   36.9931  126.2347 H   0  0  0  0  0  0  0  0  0  0  0  0
   51.6544   41.9842  123.2426 H   0  0  0  0  0  0  0  0  0  0  0  0
   50.2455   40.9180  122.9953 H   0  0  0  0  0  0  0  0  0  0  0  0
   50.8068   43.2349  127.6089 H   0  0  0  0  0  0  0  0  0  0  0  0
   53.4650   33.1640  128.2326 H   0  0  0  0  0  0  0  0  0  0  0  0
   51.8424   33.2603  127.4633 H   0  0  0  0  0  0  0  0  0  0  0  0
   51.0688   31.5452  128.8646 H   0  0  0  0  0  0  0  0  0  0  0  0
   54.5404   31.2926  130.9470 H   0  0  0  0  0  0  0  0  0  0  0  0
   54.3051   32.6256  129.7850 H   0  0  0  0  0  0  0  0  0  0  0  0
   52.2772   30.1599  131.5887 H   0  0  0  0  0  0  0  0  0  0  0  0
   51.9831   29.4306  129.9873 H   0  0  0  0  0  0  0  0  0  0  0  0
 15 14  1  0
 14 13  2  0
 14 16  1  0
 12 13  1  0
 12 11  2  0
 13 19  1  0
 16 17  2  0
 11 10  1  0
 19 10  1  0
 19 18  2  0
 17 18  1  0
 10  9  1  0
 20 21  1  0
 20  1  1  0
  9  7  1  0
  9  4  1  0
  7  8  1  0
  7  5  1  0
  2  1  2  0
  2  3  1  0
 21 22  1  0
  4  3  1  0
  3  5  1  0
 22 23  2  3
 22 24  1  0
  5  6  1  0
  1 25  1  0
  2 26  1  0
  3 27  1  0
  5 28  1  0
  6 29  1  0
  7 30  1  0
  8 31  1  0
  9 32  1  0
 11 33  1  0
 15 34  1  0
 15 35  1  0
 17 36  1  0
 20 37  1  0
 20 38  1  0
 21 39  1  0
 23 40  1  0
 23 41  1  0
 24 42  1  0
 24 43  1  0
M  CHG  1  23   1
A    1
C6'
A    2
C5'
A    3
C4'
A    4
O4'
A    5
C3'
A    6
O3'
A    7
C2'
A    8
O2'
A    9
C1'
A   10
N9
A   11
C8
A   12
N7
A   13
C5
A   14
C6
A   15
N6
A   16
N1
A   17
C2
A   18
N3
A   19
C4
A   20
C7'
A   21
N8'
A   22
C9'
A   23
N10
A   24
N11
M  END
