1FUM_CE9_?_703
     RDKit          3D

 95 94  0  0  0  0  0  0  0  0999 V2000
   40.5350    0.4000  -63.5390 C   0  0  0  0  0  0  0  0  0  0  0  0
   41.0670   -0.3750  -62.3690 C   0  0  0  0  0  0  0  0  0  0  0  0
   41.1190    0.1070  -60.9670 C   0  0  0  0  0  0  0  0  0  0  0  0
   41.4180   -1.0180  -60.0870 C   0  0  0  0  0  0  0  0  0  0  0  0
   40.6370   -0.9610  -58.8460 C   0  0  0  0  0  0  0  0  0  0  0  0
   39.5090   -1.9440  -58.8400 C   0  0  0  0  0  0  0  0  0  0  0  0
   39.6390   -2.8120  -57.6520 C   0  0  0  0  0  0  0  0  0  0  0  0
   38.4810   -3.6790  -57.5060 C   0  0  0  0  0  0  0  0  0  0  0  0
   38.6750   -4.5480  -56.3520 C   0  0  0  0  0  0  0  0  0  0  0  0
   38.2870   -3.9030  -55.0630 C   0  0  0  0  0  0  0  0  0  0  0  0
   37.4700   -4.8450  -54.3000 C   0  0  0  0  0  0  0  0  0  0  0  0
   37.3140   -4.0470  -53.1030 C   0  0  0  0  0  0  0  0  0  0  0  0
   36.6530   -4.6270  -51.9510 O   0  0  0  0  0  0  0  0  0  0  0  0
   37.3110   -4.3760  -50.6580 C   0  0  0  0  0  0  0  0  0  0  0  0
   36.9430   -4.9300  -49.2200 C   0  0  0  0  0  0  0  0  0  0  0  0
   36.3490   -4.2030  -48.1000 O   0  0  0  0  0  0  0  0  0  0  0  0
   35.2160   -3.3820  -48.4210 C   0  0  0  0  0  0  0  0  0  0  0  0
   33.9150   -3.8260  -49.1310 C   0  0  0  0  0  0  0  0  0  0  0  0
   32.7850   -2.9700  -49.5070 O   0  0  0  0  0  0  0  0  0  0  0  0
   33.0740   -1.8950  -50.4910 C   0  0  0  0  0  0  0  0  0  0  0  0
   34.0390   -1.9770  -51.7520 C   0  0  0  0  0  0  0  0  0  0  0  0
   34.2940   -0.9670  -52.7910 O   0  0  0  0  0  0  0  0  0  0  0  0
   33.5970   -1.2480  -54.0300 C   0  0  0  0  0  0  0  0  0  0  0  0
   33.9510   -0.9400  -55.5110 C   0  0  0  0  0  0  0  0  0  0  0  0
   35.1890   -0.5090  -56.1090 O   0  0  0  0  0  0  0  0  0  0  0  0
   35.0650   -0.0190  -57.4760 C   0  0  0  0  0  0  0  0  0  0  0  0
   36.2090    0.5660  -58.3210 C   0  0  0  0  0  0  0  0  0  0  0  0
   36.1940    1.5670  -59.3730 O   0  0  0  0  0  0  0  0  0  0  0  0
   37.5320    1.8590  -59.8540 C   0  0  0  0  0  0  0  0  0  0  0  0
   37.9570    2.8480  -60.9410 C   0  0  0  0  0  0  0  0  0  0  0  0
   37.5650    4.2340  -61.0460 O   0  0  0  0  0  0  0  0  0  0  0  0
   38.4750    5.0590  -61.8130 C   0  0  0  0  0  0  0  0  0  0  0  0
   39.2470    6.3350  -61.3660 C   0  0  0  0  0  0  0  0  0  0  0  0
   40.1650    7.1110  -62.1670 O   0  0  0  0  0  0  0  0  0  0  0  0
   41.3930    7.4670  -61.5250 C   0  0  0  0  0  0  0  0  0  0  0  0
   41.8670    8.9480  -61.2300 C   0  0  0  0  0  0  0  0  0  0  0  0
   43.1800    9.0400  -60.5590 O   0  0  0  0  0  0  0  0  0  0  0  0
   39.9475    1.2559  -63.1753 H   0  0  0  0  0  0  0  0  0  0  0  0
   41.3743    0.7644  -64.1496 H   0  0  0  0  0  0  0  0  0  0  0  0
   39.8933   -0.2522  -64.1496 H   0  0  0  0  0  0  0  0  0  0  0  0
   40.4704   -1.2986  -62.3368 H   0  0  0  0  0  0  0  0  0  0  0  0
   42.1399   -0.3771  -62.6116 H   0  0  0  0  0  0  0  0  0  0  0  0
   41.9046    0.8706  -60.8688 H   0  0  0  0  0  0  0  0  0  0  0  0
   40.1498    0.5473  -60.6899 H   0  0  0  0  0  0  0  0  0  0  0  0
   41.1821   -1.9545  -60.6136 H   0  0  0  0  0  0  0  0  0  0  0  0
   42.4847   -0.9713  -59.8224 H   0  0  0  0  0  0  0  0  0  0  0  0
   41.3028   -1.1812  -57.9985 H   0  0  0  0  0  0  0  0  0  0  0  0
   40.2052    0.0475  -58.7658 H   0  0  0  0  0  0  0  0  0  0  0  0
   38.5503   -1.4061  -58.8015 H   0  0  0  0  0  0  0  0  0  0  0  0
   39.5415   -2.5550  -59.7541 H   0  0  0  0  0  0  0  0  0  0  0  0
   40.5410   -3.4326  -57.7579 H   0  0  0  0  0  0  0  0  0  0  0  0
   39.7109   -2.1730  -56.7595 H   0  0  0  0  0  0  0  0  0  0  0  0
   37.5793   -3.0666  -57.3579 H   0  0  0  0  0  0  0  0  0  0  0  0
   38.3604   -4.2902  -58.4126 H   0  0  0  0  0  0  0  0  0  0  0  0
   38.0648   -5.4530  -56.4885 H   0  0  0  0  0  0  0  0  0  0  0  0
   39.7484   -4.7808  -56.2928 H   0  0  0  0  0  0  0  0  0  0  0  0
   39.1902   -3.6464  -54.4899 H   0  0  0  0  0  0  0  0  0  0  0  0
   37.7172   -2.9827  -55.2588 H   0  0  0  0  0  0  0  0  0  0  0  0
   36.5078   -5.0548  -54.7900 H   0  0  0  0  0  0  0  0  0  0  0  0
   37.8938   -5.8504  -54.1598 H   0  0  0  0  0  0  0  0  0  0  0  0
   38.3228   -3.7506  -52.7799 H   0  0  0  0  0  0  0  0  0  0  0  0
   36.6382   -3.2365  -53.4135 H   0  0  0  0  0  0  0  0  0  0  0  0
   38.3510   -4.6978  -50.8153 H   0  0  0  0  0  0  0  0  0  0  0  0
   36.9714   -3.3398  -50.5132 H   0  0  0  0  0  0  0  0  0  0  0  0
   36.2489   -5.7616  -49.4114 H   0  0  0  0  0  0  0  0  0  0  0  0
   37.9616   -5.0453  -48.8212 H   0  0  0  0  0  0  0  0  0  0  0  0
   34.8853   -2.9664  -47.4577 H   0  0  0  0  0  0  0  0  0  0  0  0
   35.6588   -2.7772  -49.2261 H   0  0  0  0  0  0  0  0  0  0  0  0
   34.2477   -4.2880  -50.0722 H   0  0  0  0  0  0  0  0  0  0  0  0
   33.4472   -4.3914  -48.3116 H   0  0  0  0  0  0  0  0  0  0  0  0
   32.0925   -1.6201  -50.9046 H   0  0  0  0  0  0  0  0  0  0  0  0
   33.6783   -1.2336  -49.8528 H   0  0  0  0  0  0  0  0  0  0  0  0
   35.0307   -2.1851  -51.3240 H   0  0  0  0  0  0  0  0  0  0  0  0
   33.4433   -2.6756  -52.3579 H   0  0  0  0  0  0  0  0  0  0  0  0
   33.4725   -2.3408  -54.0152 H   0  0  0  0  0  0  0  0  0  0  0  0
   32.8267   -0.4704  -53.9203 H   0  0  0  0  0  0  0  0  0  0  0  0
   33.7112   -1.8737  -56.0409 H   0  0  0  0  0  0  0  0  0  0  0  0
   33.4200    0.0206  -55.5836 H   0  0  0  0  0  0  0  0  0  0  0  0
   34.6803   -0.8704  -58.0566 H   0  0  0  0  0  0  0  0  0  0  0  0
   34.4688    0.8890  -57.3026 H   0  0  0  0  0  0  0  0  0  0  0  0
   36.9059    0.9761  -57.5753 H   0  0  0  0  0  0  0  0  0  0  0  0
   36.3641   -0.3103  -58.9675 H   0  0  0  0  0  0  0  0  0  0  0  0
   38.0839    2.1793  -58.9580 H   0  0  0  0  0  0  0  0  0  0  0  0
   37.7125    0.9249  -60.4062 H   0  0  0  0  0  0  0  0  0  0  0  0
   39.0560    2.8650  -60.8972 H   0  0  0  0  0  0  0  0  0  0  0  0
   37.3929    2.4359  -61.7907 H   0  0  0  0  0  0  0  0  0  0  0  0
   39.2611    4.3649  -62.1452 H   0  0  0  0  0  0  0  0  0  0  0  0
   37.7352    5.5434  -62.4673 H   0  0  0  0  0  0  0  0  0  0  0  0
   38.4673    7.0463  -61.0559 H   0  0  0  0  0  0  0  0  0  0  0  0
   39.9605    5.8783  -60.6643 H   0  0  0  0  0  0  0  0  0  0  0  0
   41.3678    6.9666  -60.5457 H   0  0  0  0  0  0  0  0  0  0  0  0
   42.1146    7.1793  -62.3038 H   0  0  0  0  0  0  0  0  0  0  0  0
   41.9296    9.4874  -62.1866 H   0  0  0  0  0  0  0  0  0  0  0  0
   41.1285    9.3858  -60.5422 H   0  0  0  0  0  0  0  0  0  0  0  0
   43.0504    9.0309  -59.5776 H   0  0  0  0  0  0  0  0  0  0  0  0
  1  2  1  0
  2  3  1  0
  3  4  1  0
  4  5  1  0
  5  6  1  0
  6  7  1  0
  7  8  1  0
  8  9  1  0
  9 10  1  0
 10 11  1  0
 11 12  1  0
 12 13  1  0
 13 14  1  0
 14 15  1  0
 15 16  1  0
 16 17  1  0
 17 18  1  0
 18 19  1  0
 19 20  1  0
 20 21  1  0
 21 22  1  0
 22 23  1  0
 23 24  1  0
 24 25  1  0
 25 26  1  0
 26 27  1  0
 27 28  1  0
 28 29  1  0
 29 30  1  0
 30 31  1  0
 31 32  1  0
 32 33  1  0
 33 34  1  0
 34 35  1  0
 35 36  1  0
 36 37  1  0
  1 38  1  0
  1 39  1  0
  1 40  1  0
  2 41  1  0
  2 42  1  0
  3 43  1  0
  3 44  1  0
  4 45  1  0
  4 46  1  0
  5 47  1  0
  5 48  1  0
  6 49  1  0
  6 50  1  0
  7 51  1  0
  7 52  1  0
  8 53  1  0
  8 54  1  0
  9 55  1  0
  9 56  1  0
 10 57  1  0
 10 58  1  0
 11 59  1  0
 11 60  1  0
 12 61  1  0
 12 62  1  0
 14 63  1  0
 14 64  1  0
 15 65  1  0
 15 66  1  0
 17 67  1  0
 17 68  1  0
 18 69  1  0
 18 70  1  0
 20 71  1  0
 20 72  1  0
 21 73  1  0
 21 74  1  0
 23 75  1  0
 23 76  1  0
 24 77  1  0
 24 78  1  0
 26 79  1  0
 26 80  1  0
 27 81  1  0
 27 82  1  0
 29 83  1  0
 29 84  1  0
 30 85  1  0
 30 86  1  0
 32 87  1  0
 32 88  1  0
 33 89  1  0
 33 90  1  0
 35 91  1  0
 35 92  1  0
 36 93  1  0
 36 94  1  0
 37 95  1  0
A    1
C1
A    2
C2
A    3
C3
A    4
C4
A    5
C5
A    6
C6
A    7
C7
A    8
C8
A    9
C9
A   10
C10
A   11
C11
A   12
C12
A   13
O13
A   14
C14
A   15
C15
A   16
O16
A   17
C17
A   18
C18
A   19
O19
A   20
C20
A   21
C21
A   22
O22
A   23
C23
A   24
C24
A   25
O25
A   26
C26
A   27
C27
A   28
O28
A   29
C29
A   30
C30
A   31
O31
A   32
C32
A   33
C33
A   34
O34
A   35
C35
A   36
C36
A   37
O37
M  END
