5KAE_6RF_A_1204
     RDKit          3D

 62 66  0  0  0  0  0  0  0  0999 V2000
   15.6180   19.8170   17.8850 C   0  0  0  0  0  0  0  0  0  0  0  0
   14.6600   19.9740   19.0650 C   0  0  0  0  0  0  0  0  0  0  0  0
   13.9210   18.7090   19.2630 N   0  0  0  0  0  0  0  0  0  0  0  0
   14.8480   17.6440   19.6860 C   0  0  0  0  0  0  0  0  0  0  0  0
   15.8540   17.3970   18.5510 C   0  0  0  0  0  0  0  0  0  0  0  0
   16.4840   18.6720   18.1990 N   0  0  0  0  0  0  0  0  0  0  0  0
   17.7900   18.8520   18.2360 C   0  0  0  0  0  0  0  0  0  0  0  0
   18.2230   19.9750   17.9690 O   0  0  0  0  0  0  0  0  0  0  0  0
   18.7920   17.7510   18.6060 C   0  0  0  0  0  0  0  0  0  0  0  0
   19.3100   17.7490   19.8910 C   0  0  0  0  0  0  0  0  0  0  0  0
   18.8210   18.6650   20.8110 C   0  0  0  0  0  0  0  0  0  0  0  0
   19.3000   19.9560   20.9630 C   0  0  0  0  0  0  0  0  0  0  0  0
   18.7270   20.7850   21.9310 C   0  0  0  0  0  0  0  0  0  0  0  0
   17.6850   20.3240   22.7360 C   0  0  0  0  0  0  0  0  0  0  0  0
   17.2090   19.0260   22.5810 C   0  0  0  0  0  0  0  0  0  0  0  0
   17.7710   18.2070   21.6120 C   0  0  0  0  0  0  0  0  0  0  0  0
   19.2560   16.8000   17.7030 C   0  0  0  0  0  0  0  0  0  0  0  0
   18.8000   16.7580   16.3890 C   0  0  0  0  0  0  0  0  0  0  0  0
   19.2610   15.7900   15.5150 C   0  0  0  0  0  0  0  0  0  0  0  0
   18.8240   15.7550   14.2430 F   0  0  0  0  0  0  0  0  0  0  0  0
   20.1970   14.8540   15.9520 C   0  0  0  0  0  0  0  0  0  0  0  0
   20.6640   14.8930   17.2600 C   0  0  0  0  0  0  0  0  0  0  0  0
   20.1910   15.8620   18.1350 C   0  0  0  0  0  0  0  0  0  0  0  0
   20.6510   15.8680   19.3870 N   0  0  0  0  0  0  0  0  0  0  0  0
   20.2260   16.7650   20.2780 C   0  0  0  0  0  0  0  0  0  0  0  0
   20.7990   16.7430   21.7050 C   0  0  0  0  0  0  0  0  0  0  0  0
   21.8410   17.8620   21.7210 C   0  0  0  0  0  0  0  0  0  0  0  0
   21.4510   15.4540   22.0360 N   0  0  0  0  0  0  0  0  0  0  0  0
   20.8140   14.4160   22.5670 C   0  0  0  0  0  0  0  0  0  0  0  0
   19.4920   14.4650   22.7160 N   0  0  0  0  0  0  0  0  0  0  0  0
   18.8080   13.4430   23.2390 C   0  0  0  0  0  0  0  0  0  0  0  0
   19.3970   12.3260   23.6470 N   0  0  0  0  0  0  0  0  0  0  0  0
   20.7240   12.2080   23.5200 C   0  0  0  0  0  0  0  0  0  0  0  0
   21.3030   11.0900   23.9120 N   0  0  0  0  0  0  0  0  0  0  0  0
   21.4740   13.2540   22.9770 C   0  0  0  0  0  0  0  0  0  0  0  0
   22.8910   13.1140   22.8470 C   0  0  0  0  0  0  0  0  0  0  0  0
   24.0170   12.9780   22.7540 N   0  0  0  0  0  0  0  0  0  0  0  0
   16.2223   20.7280   17.7625 H   0  0  0  0  0  0  0  0  0  0  0  0
   15.0686   19.6541   16.9460 H   0  0  0  0  0  0  0  0  0  0  0  0
   15.2319   20.2121   19.9740 H   0  0  0  0  0  0  0  0  0  0  0  0
   13.9499   20.7883   18.8586 H   0  0  0  0  0  0  0  0  0  0  0  0
   13.2025   18.8438   19.9886 H   0  0  0  0  0  0  0  0  0  0  0  0
   14.2851   16.7214   19.8908 H   0  0  0  0  0  0  0  0  0  0  0  0
   15.3779   17.9460   20.6014 H   0  0  0  0  0  0  0  0  0  0  0  0
   15.3305   16.9878   17.6743 H   0  0  0  0  0  0  0  0  0  0  0  0
   16.6192   16.6772   18.8771 H   0  0  0  0  0  0  0  0  0  0  0  0
   20.1209   20.3238   20.3298 H   0  0  0  0  0  0  0  0  0  0  0  0
   19.1013   21.8113   22.0596 H   0  0  0  0  0  0  0  0  0  0  0  0
   17.2400   20.9865   23.4930 H   0  0  0  0  0  0  0  0  0  0  0  0
   16.3953   18.6527   23.2202 H   0  0  0  0  0  0  0  0  0  0  0  0
   17.3859   17.1861   21.4727 H   0  0  0  0  0  0  0  0  0  0  0  0
   18.0666   17.5010   16.0423 H   0  0  0  0  0  0  0  0  0  0  0  0
   20.5666   14.0830   15.2599 H   0  0  0  0  0  0  0  0  0  0  0  0
   21.4071   14.1575   17.6018 H   0  0  0  0  0  0  0  0  0  0  0  0
   19.9981   16.8753   22.4473 H   0  0  0  0  0  0  0  0  0  0  0  0
   22.0835   18.1224   22.7619 H   0  0  0  0  0  0  0  0  0  0  0  0
   22.7519   17.5222   21.2063 H   0  0  0  0  0  0  0  0  0  0  0  0
   21.4373   18.7464   21.2063 H   0  0  0  0  0  0  0  0  0  0  0  0
   22.4581   15.3570   21.8429 H   0  0  0  0  0  0  0  0  0  0  0  0
   17.7157   13.5310   23.3349 H   0  0  0  0  0  0  0  0  0  0  0  0
   21.4072   10.8888   24.9168 H   0  0  0  0  0  0  0  0  0  0  0  0
   21.6511   10.4179   23.2134 H   0  0  0  0  0  0  0  0  0  0  0  0
 20 19  1  0
 19 21  1  0
 19 18  2  0
 21 22  2  0
 18 17  1  0
 22 23  1  0
 17 23  2  0
 17  9  1  0
  1  6  1  0
  1  2  1  0
  8  7  2  0
 23 24  1  0
  6  7  1  0
  6  5  1  0
  7  9  1  0
  5  4  1  0
  9 10  2  0
  2  3  1  0
  3  4  1  0
 24 25  2  0
 10 25  1  0
 10 11  1  0
 25 26  1  0
 11 12  2  0
 11 16  1  0
 12 13  1  0
 16 15  2  0
 26 27  1  0
 26 28  1  0
 13 14  2  0
 28 29  1  0
 29 30  2  0
 29 35  1  0
 15 14  1  0
 30 31  1  0
 37 36  3  0
 36 35  1  0
 35 33  2  0
 31 32  2  0
 33 32  1  0
 33 34  1  0
  1 38  1  0
  1 39  1  0
  2 40  1  0
  2 41  1  0
  3 42  1  0
  4 43  1  0
  4 44  1  0
  5 45  1  0
  5 46  1  0
 12 47  1  0
 13 48  1  0
 14 49  1  0
 15 50  1  0
 16 51  1  0
 18 52  1  0
 21 53  1  0
 22 54  1  0
 26 55  1  0
 27 56  1  0
 27 57  1  0
 27 58  1  0
 28 59  1  0
 31 60  1  0
 34 61  1  0
 34 62  1  0
A    1
C23
A    2
C24
A    3
N7
A    4
C25
A    5
C26
A    6
N6
A    7
C13
A    8
O1
A    9
C9
A   10
C8
A   11
C12
A   12
C14
A   13
C15
A   14
C16
A   15
C17
A   16
C18
A   17
C2
A   18
C3
A   19
C4
A   20
F1
A   21
C5
A   22
C6
A   23
C1
A   24
N1
A   25
C7
A   26
C10
A   27
C11
A   28
N2
A   29
C19
A   30
N4
A   31
C22
A   32
N3
A   33
C21
A   34
N5
A   35
C20
A   36
C27
A   37
N8
M  END
