5KAO_G43_A_500
     RDKit          3D

 81 84  0  0  0  0  0  0  0  0999 V2000
    6.7750    4.2280  -13.7150 O   0  0  0  0  0  0  0  0  0  0  0  0
    7.3370    3.4110  -14.7360 S   0  0  0  0  0  0  0  0  0  0  0  0
    8.0930    2.3040  -14.2500 O   0  0  0  0  0  0  0  0  0  0  0  0
    8.2880    4.4020  -15.8210 C   0  0  0  0  0  0  0  0  0  0  0  0
    8.0650    5.7780  -16.0440 C   0  0  0  0  0  0  0  0  0  0  0  0
    8.7970    6.5730  -16.9320 C   0  0  0  0  0  0  0  0  0  0  0  0
    9.8370    6.0250  -17.7060 C   0  0  0  0  0  0  0  0  0  0  0  0
   10.0900    4.6550  -17.5110 C   0  0  0  0  0  0  0  0  0  0  0  0
    9.3380    3.9050  -16.6190 C   0  0  0  0  0  0  0  0  0  0  0  0
   10.5520    6.7970  -18.5770 O   0  0  0  0  0  0  0  0  0  0  0  0
   10.1420    8.1560  -18.7230 C   0  0  0  0  0  0  0  0  0  0  0  0
    6.0680    2.7820  -15.7130 N   0  0  0  0  0  0  0  0  0  0  0  0
    5.1400    3.7230  -16.4410 C   0  0  0  0  0  0  0  0  0  0  0  0
    3.6020    3.4310  -16.3010 C   0  0  0  0  0  0  0  0  0  0  0  0
    2.7760    4.5400  -16.9750 C   0  0  0  0  0  0  0  0  0  0  0  0
    3.0760    3.2310  -14.8770 C   0  0  0  0  0  0  0  0  0  0  0  0
    6.2550    1.4790  -16.4500 C   0  0  0  0  0  0  0  0  0  0  0  0
    5.3990    0.2970  -15.8530 C   0  0  0  0  0  0  0  0  0  0  0  0
    5.4850   -0.8270  -16.6550 O   0  0  0  0  0  0  0  0  0  0  0  0
    5.8710   -0.0930  -14.3890 C   0  0  0  0  0  0  0  0  0  0  0  0
    7.2590   -0.7970  -14.3310 C   0  0  0  0  0  0  0  0  0  0  0  0
    7.5340   -1.3750  -12.9430 C   0  0  0  0  0  0  0  0  0  0  0  0
    4.8690   -0.9450  -13.7900 N   0  0  0  0  0  0  0  0  0  0  0  0
    3.9630   -0.5920  -12.8100 C   0  0  0  0  0  0  0  0  0  0  0  0
    3.9310    0.4660  -12.2100 O   0  0  0  0  0  0  0  0  0  0  0  0
    3.0260   -1.5880  -12.5310 O   0  0  0  0  0  0  0  0  0  0  0  0
    2.1880   -1.5250  -11.3940 C   0  0  0  0  0  0  0  0  0  0  0  0
    2.6400   -2.5550  -10.3490 C   0  0  0  0  0  0  0  0  0  0  0  0
    2.0020   -3.8910  -10.7610 C   0  0  0  0  0  0  0  0  0  0  0  0
    1.0450   -3.5540  -11.7650 O   0  0  0  0  0  0  0  0  0  0  0  0
    0.8250   -2.1300  -11.7630 C   0  0  0  0  0  0  0  0  0  0  0  0
    3.0100   -4.7640  -11.2390 O   0  0  0  0  0  0  0  0  0  0  0  0
    4.2900   -4.1060  -11.2220 C   0  0  0  0  0  0  0  0  0  0  0  0
    4.1290   -2.8320  -10.3810 C   0  0  0  0  0  0  0  0  0  0  0  0
    7.7820   -0.5190  -11.8580 C   0  0  0  0  0  0  0  0  0  0  0  0
    8.0230   -0.9700  -10.5600 C   0  0  0  0  0  0  0  0  0  0  0  0
    8.0300   -2.3320  -10.2240 C   0  0  0  0  0  0  0  0  0  0  0  0
    8.2700   -2.7800   -8.9420 O   0  0  0  0  0  0  0  0  0  0  0  0
    7.4600   -2.2450   -7.8890 C   0  0  0  0  0  0  0  0  0  0  0  0
    7.7670   -3.2090  -11.3130 C   0  0  0  0  0  0  0  0  0  0  0  0
    7.5280   -2.7490  -12.6140 C   0  0  0  0  0  0  0  0  0  0  0  0
    7.7590   -4.9210  -10.9630 Cl  0  0  0  0  0  0  0  0  0  0  0  0
    7.2553    6.2609  -15.4772 H   0  0  0  0  0  0  0  0  0  0  0  0
    8.5563    7.6422  -17.0268 H   0  0  0  0  0  0  0  0  0  0  0  0
   10.8992    4.1696  -18.0764 H   0  0  0  0  0  0  0  0  0  0  0  0
    9.5807    2.8361  -16.5270 H   0  0  0  0  0  0  0  0  0  0  0  0
   10.0060    8.6068  -17.7289 H   0  0  0  0  0  0  0  0  0  0  0  0
   10.9118    8.7138  -19.2763 H   0  0  0  0  0  0  0  0  0  0  0  0
    9.1921    8.1950  -19.2763 H   0  0  0  0  0  0  0  0  0  0  0  0
    5.3929    3.6822  -17.5108 H   0  0  0  0  0  0  0  0  0  0  0  0
    5.2953    4.7072  -15.9749 H   0  0  0  0  0  0  0  0  0  0  0  0
    3.4794    2.4608  -16.8046 H   0  0  0  0  0  0  0  0  0  0  0  0
    2.3077    5.1688  -16.2034 H   0  0  0  0  0  0  0  0  0  0  0  0
    3.4351    5.1586  -17.6018 H   0  0  0  0  0  0  0  0  0  0  0  0
    1.9945    4.0856  -17.6018 H   0  0  0  0  0  0  0  0  0  0  0  0
    3.8516    3.5259  -14.1548 H   0  0  0  0  0  0  0  0  0  0  0  0
    2.1801    3.8512  -14.7266 H   0  0  0  0  0  0  0  0  0  0  0  0
    2.8185    2.1722  -14.7266 H   0  0  0  0  0  0  0  0  0  0  0  0
    7.3178    1.1997  -16.4014 H   0  0  0  0  0  0  0  0  0  0  0  0
    5.9153    1.6377  -17.4841 H   0  0  0  0  0  0  0  0  0  0  0  0
    4.3589    0.6527  -15.8118 H   0  0  0  0  0  0  0  0  0  0  0  0
    5.5468   -1.6346  -16.0858 H   0  0  0  0  0  0  0  0  0  0  0  0
    5.9887    0.8483  -13.8321 H   0  0  0  0  0  0  0  0  0  0  0  0
    7.2775   -1.6130  -15.0685 H   0  0  0  0  0  0  0  0  0  0  0  0
    8.0353   -0.0505  -14.5550 H   0  0  0  0  0  0  0  0  0  0  0  0
    4.8264   -1.9165  -14.1295 H   0  0  0  0  0  0  0  0  0  0  0  0
    2.1881   -0.4798  -11.0512 H   0  0  0  0  0  0  0  0  0  0  0  0
    2.3609   -2.1657   -9.3588 H   0  0  0  0  0  0  0  0  0  0  0  0
    1.5109   -4.4175   -9.9293 H   0  0  0  0  0  0  0  0  0  0  0  0
    0.5042   -1.7857  -12.7573 H   0  0  0  0  0  0  0  0  0  0  0  0
    0.0335   -1.8323  -11.0595 H   0  0  0  0  0  0  0  0  0  0  0  0
    5.0469   -4.7638  -10.7699 H   0  0  0  0  0  0  0  0  0  0  0  0
    4.6200   -3.8632  -12.2429 H   0  0  0  0  0  0  0  0  0  0  0  0
    4.5124   -2.9924   -9.3625 H   0  0  0  0  0  0  0  0  0  0  0  0
    4.6925   -1.9882  -10.8057 H   0  0  0  0  0  0  0  0  0  0  0  0
    7.7865    0.5656  -12.0413 H   0  0  0  0  0  0  0  0  0  0  0  0
    8.2149   -0.2293   -9.7698 H   0  0  0  0  0  0  0  0  0  0  0  0
    7.8889   -2.5283   -6.9165 H   0  0  0  0  0  0  0  0  0  0  0  0
    7.4295   -1.1485   -7.9709 H   0  0  0  0  0  0  0  0  0  0  0  0
    6.4395   -2.6473   -7.9709 H   0  0  0  0  0  0  0  0  0  0  0  0
    7.3285   -3.4836  -13.4080 H   0  0  0  0  0  0  0  0  0  0  0  0
 11 10  1  0
 10  7  1  0
  7  8  2  0
  7  6  1  0
  8  9  1  0
 15 14  1  0
  6  5  2  0
 19 18  1  0
  9  4  2  0
 17 18  1  0
 17 12  1  0
 13 14  1  0
 13 12  1  0
 14 16  1  0
  5  4  1  0
 18 20  1  0
  4  2  1  0
 12  2  1  0
  2  3  2  0
  2  1  2  0
 20 21  1  0
 20 23  1  0
 21 22  1  0
 23 24  1  0
 22 41  1  0
 22 35  2  0
 24 26  1  0
 24 25  2  0
 41 40  2  0
 26 27  1  0
 35 36  1  0
 30 31  1  0
 30 29  1  0
 31 27  1  0
 27 28  1  0
 40 42  1  0
 40 37  1  0
 32 33  1  0
 32 29  1  0
 33 34  1  0
 29 28  1  0
 36 37  2  0
 34 28  1  0
 37 38  1  0
 38 39  1  0
  5 43  1  0
  6 44  1  0
  8 45  1  0
  9 46  1  0
 11 47  1  0
 11 48  1  0
 11 49  1  0
 13 50  1  0
 13 51  1  0
 14 52  1  0
 15 53  1  0
 15 54  1  0
 15 55  1  0
 16 56  1  0
 16 57  1  0
 16 58  1  0
 17 59  1  0
 17 60  1  0
 18 61  1  0
 19 62  1  0
 20 63  1  0
 21 64  1  0
 21 65  1  0
 23 66  1  0
 27 67  1  0
 28 68  1  0
 29 69  1  0
 31 70  1  0
 31 71  1  0
 33 72  1  0
 33 73  1  0
 34 74  1  0
 34 75  1  0
 35 76  1  0
 36 77  1  0
 39 78  1  0
 39 79  1  0
 39 80  1  0
 41 81  1  0
A    1
O8
A    2
S
A    3
O7
A    4
C18
A    5
C23
A    6
C22
A    7
C21
A    8
C20
A    9
C19
A   10
O1
A   11
C26
A   12
N2
A   13
C16
A   14
C17
A   15
C25
A   16
C24
A   17
C15
A   18
C7
A   19
O6
A   20
C6
A   21
C8
A   22
C9
A   23
N1
A   24
C4
A   25
O5
A   26
O4
A   27
C5
A   28
C50
A   29
C27
A   30
O50
A   31
C3
A   32
O9
A   33
C2
A   34
C1
A   35
C11
A   36
C13
A   37
C14
A   38
O60
A   39
C60
A   40
C12
A   41
C10
A   42
CL1
M  END
