5KBY_6RL_A_1510
     RDKit          3D

 46 48  0  0  0  0  0  0  0  0999 V2000
   43.9770   32.3690   14.4610 C   0  0  0  0  0  0  0  0  0  0  0  0
   43.4400   33.6270   14.6290 C   0  0  0  0  0  0  0  0  0  0  0  0
   44.8530   35.4150   15.2340 C   0  0  0  0  0  0  0  0  0  0  0  0
   45.3460   35.8820   17.6450 C   0  0  0  0  0  0  0  0  0  0  0  0
   40.3950   35.4590   13.9750 C   0  0  0  0  0  0  0  0  0  0  0  0
   37.5950   35.6120   14.0260 C   0  0  0  0  0  0  0  0  0  0  0  0
   38.2350   34.7210   14.8600 C   0  0  0  0  0  0  0  0  0  0  0  0
   40.2440   33.6880   15.7460 C   0  0  0  0  0  0  0  0  0  0  0  0
   42.1290   33.3460   12.6710 C   0  0  0  0  0  0  0  0  0  0  0  0
   42.2630   31.2770   11.3230 C   0  0  0  0  0  0  0  0  0  0  0  0
   42.6540   32.1060   12.4810 N   0  0  0  0  0  0  0  0  0  0  0  0
   43.5580   31.6020   13.3610 C   0  0  0  0  0  0  0  0  0  0  0  0
   44.0140   30.4860   13.1800 O   0  0  0  0  0  0  0  0  0  0  0  0
   43.8330   34.4390   15.6660 N   0  0  0  0  0  0  0  0  0  0  0  0
   44.9270   36.5340   16.3020 C   0  0  0  0  0  0  0  0  0  0  0  0
   44.3000   34.8320   18.0420 C   0  0  0  0  0  0  0  0  0  0  0  0
   42.9880   35.4890   18.2090 N   0  0  0  0  0  0  0  0  0  0  0  0
   44.2210   33.7610   16.9250 C   0  0  0  0  0  0  0  0  0  0  0  0
   42.4910   34.0930   13.7350 N   0  0  0  0  0  0  0  0  0  0  0  0
   41.9100   35.4460   13.9150 C   0  0  0  0  0  0  0  0  0  0  0  0
   39.7370   36.3580   13.1610 C   0  0  0  0  0  0  0  0  0  0  0  0
   38.3540   36.4270   13.1930 C   0  0  0  0  0  0  0  0  0  0  0  0
   37.7280   37.3080   12.3910 F   0  0  0  0  0  0  0  0  0  0  0  0
   39.6440   34.6380   14.8470 C   0  0  0  0  0  0  0  0  0  0  0  0
   40.7550   32.9460   16.4390 N   0  0  0  0  0  0  0  0  0  0  0  0
   41.2960   33.8000   11.8860 O   0  0  0  0  0  0  0  0  0  0  0  0
   44.7173   31.9741   15.1724 H   0  0  0  0  0  0  0  0  0  0  0  0
   45.8306   34.9186   15.1450 H   0  0  0  0  0  0  0  0  0  0  0  0
   44.5861   35.8385   14.2545 H   0  0  0  0  0  0  0  0  0  0  0  0
   46.3274   35.3987   17.5294 H   0  0  0  0  0  0  0  0  0  0  0  0
   45.4116   36.6533   18.4265 H   0  0  0  0  0  0  0  0  0  0  0  0
   36.4970   35.6778   14.0192 H   0  0  0  0  0  0  0  0  0  0  0  0
   37.6501   34.0770   15.5332 H   0  0  0  0  0  0  0  0  0  0  0  0
   41.8190   30.3357   11.6792 H   0  0  0  0  0  0  0  0  0  0  0  0
   41.5270   31.8221   10.7137 H   0  0  0  0  0  0  0  0  0  0  0  0
   43.1517   31.0558   10.7137 H   0  0  0  0  0  0  0  0  0  0  0  0
   45.6712   37.2871   16.0037 H   0  0  0  0  0  0  0  0  0  0  0  0
   43.9513   37.0315   16.4048 H   0  0  0  0  0  0  0  0  0  0  0  0
   44.5822   34.3524   18.9909 H   0  0  0  0  0  0  0  0  0  0  0  0
   42.7812   35.5926   19.2127 H   0  0  0  0  0  0  0  0  0  0  0  0
   43.0104   36.4183   17.7654 H   0  0  0  0  0  0  0  0  0  0  0  0
   43.4686   33.0027   17.1876 H   0  0  0  0  0  0  0  0  0  0  0  0
   45.1938   33.2615   16.8055 H   0  0  0  0  0  0  0  0  0  0  0  0
   42.2978   35.8677   14.8540 H   0  0  0  0  0  0  0  0  0  0  0  0
   42.2006   36.0388   13.0352 H   0  0  0  0  0  0  0  0  0  0  0  0
   40.3079   37.0166   12.4900 H   0  0  0  0  0  0  0  0  0  0  0  0
 10 11  1  0
 26  9  2  0
 23 22  1  0
 11  9  1  0
 11 12  1  0
  9 19  1  0
 21 22  1  0
 21  5  2  0
 22  6  2  0
 13 12  2  0
 12  1  1  0
 19 20  1  0
 19  2  1  0
 20  5  1  0
  5 24  1  0
  6  7  1  0
  1  2  2  0
  2 14  1  0
 24  7  2  0
 24  8  1  0
  3 14  1  0
  3 15  1  0
 14 18  1  0
  8 25  3  0
 15  4  1  0
 18 16  1  0
  4 16  1  0
 16 17  1  0
  1 27  1  0
  3 28  1  0
  3 29  1  0
  4 30  1  0
  4 31  1  0
  6 32  1  0
  7 33  1  0
 10 34  1  0
 10 35  1  0
 10 36  1  0
 15 37  1  0
 15 38  1  0
 16 39  1  0
 17 40  1  0
 17 41  1  0
 18 42  1  0
 18 43  1  0
 20 44  1  0
 20 45  1  0
 21 46  1  0
A    1
C5
A    2
C6
A    3
C8
A    4
C10
A    5
C17
A    6
C21
A    7
C22
A    8
C24
A    9
C26
A   10
C1
A   11
N2
A   12
C3
A   13
O4
A   14
N7
A   15
C9
A   16
C11
A   17
N13
A   18
C14
A   19
N15
A   20
C16
A   21
C18
A   22
C19
A   23
F20
A   24
C23
A   25
N25
A   26
O27
M  END
