5KBZ_3B2_A_1701
     RDKit          3D

 77 78  0  0  0  0  0  0  0  0999 V2000
  100.4520   97.3880   -1.8760 C   0  0  0  0  0  0  0  0  0  0  0  0
  101.9790   98.3390   -4.7130 C   0  0  0  0  0  0  0  0  0  0  0  0
   99.6510   96.7370   -7.3920 C   0  0  0  0  0  0  0  0  0  0  0  0
  101.6860   97.8550  -10.2610 C   0  0  0  0  0  0  0  0  0  0  0  0
  103.2160   97.6080  -10.0230 C   0  0  0  0  0  0  0  0  0  0  0  0
   96.4450   95.2880    5.9540 C   0  0  0  0  0  0  0  0  0  0  0  0
   97.1880   95.5850    4.7110 C   0  0  0  0  0  0  0  0  0  0  0  0
   97.9290   94.7650    3.9630 C   0  0  0  0  0  0  0  0  0  0  0  0
   98.4950   95.4430    2.9200 C   0  0  0  0  0  0  0  0  0  0  0  0
   99.4310   94.9310    1.8420 C   0  0  0  0  0  0  0  0  0  0  0  0
  101.1220   95.4200    2.2530 S   0  0  0  0  0  0  0  0  0  0  0  0
  101.3800   97.0410    1.6630 C   0  0  0  0  0  0  0  0  0  0  0  0
  101.1870   96.9600    0.1670 C   0  0  0  0  0  0  0  0  0  0  0  0
  100.3240   97.7420   -0.5540 C   0  0  0  0  0  0  0  0  0  0  0  0
   99.6600   98.0010   -3.0010 C   0  0  0  0  0  0  0  0  0  0  0  0
  100.6240   99.1990   -3.9030 S   0  0  0  0  0  0  0  0  0  0  0  0
  101.5240   97.4130   -5.8490 C   0  0  0  0  0  0  0  0  0  0  0  0
  102.2670   96.6090   -6.2810 O   0  0  0  0  0  0  0  0  0  0  0  0
  100.1950   97.5470   -6.3500 N   0  0  0  0  0  0  0  0  0  0  0  0
  100.6590   96.3800   -8.4430 C   0  0  0  0  0  0  0  0  0  0  0  0
  100.5900   97.2860   -9.5040 N   0  0  0  0  0  0  0  0  0  0  0  0
  101.2960   98.5850  -11.0970 O   0  0  0  0  0  0  0  0  0  0  0  0
  104.1960   97.1080  -11.1250 C   0  0  0  0  0  0  0  0  0  0  0  0
  104.6890   98.2800  -11.6840 N   0  0  0  0  0  0  0  0  0  0  0  0
  105.8250   99.1030  -12.0210 C   0  0  0  0  0  0  0  0  0  0  0  0
  105.3840  100.1120  -12.4790 O   0  0  0  0  0  0  0  0  0  0  0  0
  107.3600   99.0560  -12.0020 C   0  0  0  0  0  0  0  0  0  0  0  0
  107.9210   97.8500  -11.9450 O   0  0  0  0  0  0  0  0  0  0  0  0
  107.9050   99.9610  -10.8980 C   0  0  0  0  0  0  0  0  0  0  0  0
  107.2720  101.3310  -10.9750 C   0  0  0  0  0  0  0  0  0  0  0  0
  107.5200   99.3670   -9.5420 C   0  0  0  0  0  0  0  0  0  0  0  0
  109.4310  100.1090  -11.0080 C   0  0  0  0  0  0  0  0  0  0  0  0
  109.9140  100.0770  -12.3280 O   0  0  0  0  0  0  0  0  0  0  0  0
  111.4470  100.3280  -12.5520 P   0  0  0  0  0  0  0  0  0  0  0  0
  111.5500  101.2710  -13.6870 O   0  0  0  0  0  0  0  0  0  0  0  0
  112.2230   99.0800  -12.7460 O   0  0  0  0  0  0  0  0  0  0  0  0
  111.9280  101.0800  -11.3700 O   0  0  0  0  0  0  0  0  0  0  0  0
  101.3480   96.4420   -1.9370 N   0  0  0  0  0  0  0  0  0  0  0  0
  101.8240   96.1680   -0.6800 O   0  0  0  0  0  0  0  0  0  0  0  0
   98.0640   96.6500    3.0320 N   0  0  0  0  0  0  0  0  0  0  0  0
   97.2880   96.7450    4.1160 O   0  0  0  0  0  0  0  0  0  0  0  0
  102.6678   99.0887   -5.1296 H   0  0  0  0  0  0  0  0  0  0  0  0
  102.4611   97.7063   -3.9532 H   0  0  0  0  0  0  0  0  0  0  0  0
   99.2635   95.8082   -6.9480 H   0  0  0  0  0  0  0  0  0  0  0  0
   98.8572   97.3201   -7.8818 H   0  0  0  0  0  0  0  0  0  0  0  0
  103.6231   98.5687   -9.6746 H   0  0  0  0  0  0  0  0  0  0  0  0
  103.1869   96.7345   -9.3550 H   0  0  0  0  0  0  0  0  0  0  0  0
   97.0704   95.5380    6.8237 H   0  0  0  0  0  0  0  0  0  0  0  0
   95.5225   95.8865    5.9816 H   0  0  0  0  0  0  0  0  0  0  0  0
   96.1892   94.2185    5.9816 H   0  0  0  0  0  0  0  0  0  0  0  0
   98.0654   93.6912    4.1589 H   0  0  0  0  0  0  0  0  0  0  0  0
   99.3668   93.8342    1.7878 H   0  0  0  0  0  0  0  0  0  0  0  0
   99.1463   95.3570    0.8686 H   0  0  0  0  0  0  0  0  0  0  0  0
  102.3990   97.3796    1.9016 H   0  0  0  0  0  0  0  0  0  0  0  0
  100.6876   97.7594    2.1260 H   0  0  0  0  0  0  0  0  0  0  0  0
   99.6514   98.5125   -0.1491 H   0  0  0  0  0  0  0  0  0  0  0  0
   98.7721   98.4983   -2.5833 H   0  0  0  0  0  0  0  0  0  0  0  0
   99.3698   97.1987   -3.6954 H   0  0  0  0  0  0  0  0  0  0  0  0
   99.5919   98.2716   -5.9350 H   0  0  0  0  0  0  0  0  0  0  0  0
  100.4513   95.3664   -8.8164 H   0  0  0  0  0  0  0  0  0  0  0  0
  101.6663   96.4185   -8.0026 H   0  0  0  0  0  0  0  0  0  0  0  0
   99.6446   97.5859   -9.7819 H   0  0  0  0  0  0  0  0  0  0  0  0
  103.6655   96.5071  -11.8783 H   0  0  0  0  0  0  0  0  0  0  0  0
  104.9898   96.4590  -10.7267 H   0  0  0  0  0  0  0  0  0  0  0  0
  103.8622   98.8026  -12.0069 H   0  0  0  0  0  0  0  0  0  0  0  0
  107.6519   99.4291  -12.9948 H   0  0  0  0  0  0  0  0  0  0  0  0
  108.0432   97.5873  -10.9983 H   0  0  0  0  0  0  0  0  0  0  0  0
  107.0962  101.7114   -9.9579 H   0  0  0  0  0  0  0  0  0  0  0  0
  107.9448  102.0162  -11.5116 H   0  0  0  0  0  0  0  0  0  0  0  0
  106.3142  101.2627  -11.5116 H   0  0  0  0  0  0  0  0  0  0  0  0
  107.9278   99.9961   -8.7370 H   0  0  0  0  0  0  0  0  0  0  0  0
  106.4240   99.3274   -9.4569 H   0  0  0  0  0  0  0  0  0  0  0  0
  107.9314   98.3504   -9.4569 H   0  0  0  0  0  0  0  0  0  0  0  0
  109.8998   99.2865  -10.4479 H   0  0  0  0  0  0  0  0  0  0  0  0
  109.6856  101.0980  -10.5994 H   0  0  0  0  0  0  0  0  0  0  0  0
  111.6507  102.1933  -13.3416 H   0  0  0  0  0  0  0  0  0  0  0  0
  112.4603   98.6984  -11.8638 H   0  0  0  0  0  0  0  0  0  0  0  0
 30 29  1  0
 37 34  2  0
 33 34  1  0
 33 32  1  0
 34 36  1  0
 34 35  1  0
 29 32  1  0
 29 31  1  0
 29 27  1  0
 26 25  2  0
 16  2  1  0
 16 15  1  0
 27 25  1  0
 27 28  1  0
 25 24  1  0
 22  4  2  0
  2 17  1  0
  4  5  1  0
  4 21  1  0
 15  1  1  0
 24 23  1  0
  5 23  1  0
 19 17  1  0
 19  3  1  0
 17 18  2  0
 21 20  1  0
  1 14  1  0
  1 38  2  0
 14 13  2  0
 40 41  1  0
 40  9  2  0
  3 20  1  0
 41  7  1  0
 38 39  1  0
 13 39  1  0
 13 12  1  0
 12 11  1  0
 10  9  1  0
 10 11  1  0
  9  8  1  0
  7  8  2  0
  7  6  1  0
  2 42  1  0
  2 43  1  0
  3 44  1  0
  3 45  1  0
  5 46  1  0
  5 47  1  0
  6 48  1  0
  6 49  1  0
  6 50  1  0
  8 51  1  0
 10 52  1  0
 10 53  1  0
 12 54  1  0
 12 55  1  0
 14 56  1  0
 15 57  1  0
 15 58  1  0
 19 59  1  0
 20 60  1  0
 20 61  1  0
 21 62  1  0
 23 63  1  0
 23 64  1  0
 24 65  1  0
 27 66  1  0
 28 67  1  0
 30 68  1  0
 30 69  1  0
 30 70  1  0
 31 71  1  0
 31 72  1  0
 31 73  1  0
 32 74  1  0
 32 75  1  0
 35 76  1  0
 36 77  1  0
A    1
C10
A    2
C13
A    3
C17
A    4
C20
A    5
C22
A    6
C01
A    7
C02
A    8
C03
A    9
C04
A   10
C05
A   11
S06
A   12
C07
A   13
C08
A   14
C09
A   15
C11
A   16
S12
A   17
C14
A   18
O15
A   19
N16
A   20
C18
A   21
N19
A   22
O21
A   23
C23
A   24
N24
A   25
C25
A   26
O26
A   27
C27
A   28
O28
A   29
C29
A   30
C30
A   31
C31
A   32
C32
A   33
O33
A   34
P34
A   35
O35
A   36
O36
A   37
O37
A   38
N38
A   39
O39
A   40
N40
A   41
O41
M  END
