4ZWH_OB3_A_601
     RDKit          3D

 55 59  0  0  0  0  0  0  0  0999 V2000
   -7.0870  -18.9310   20.3550 C   0  0  0  0  0  0  0  0  0  0  0  0
   -8.1950  -19.6570   20.4120 C   0  0  0  0  0  0  0  0  0  0  0  0
   -8.0060  -20.9670   20.4380 C   0  0  0  0  0  0  0  0  0  0  0  0
   -6.7950  -21.5080   20.4080 C   0  0  0  0  0  0  0  0  0  0  0  0
   -5.6810  -20.8020   20.3550 C   0  0  0  0  0  0  0  0  0  0  0  0
   -5.8910  -19.5070   20.3200 C   0  0  0  0  0  0  0  0  0  0  0  0
   -9.4070  -19.1170   20.4410 O   0  0  0  0  0  0  0  0  0  0  0  0
   -4.4420  -21.3620   20.2970 C   0  0  0  0  0  0  0  0  0  0  0  0
   -3.2990  -21.2510   20.9980 C   0  0  0  0  0  0  0  0  0  0  0  0
   -2.3470  -22.1890   20.2350 C   0  0  0  0  0  0  0  0  0  0  0  0
   -2.8860  -20.5670   22.0810 C   0  0  0  0  0  0  0  0  0  0  0  0
   -4.0460  -22.3450   19.1850 C   0  0  0  0  0  0  0  0  0  0  0  0
   -1.6490  -20.1060   22.1720 C   0  0  0  0  0  0  0  0  0  0  0  0
   -1.1730  -19.4450   23.2240 C   0  0  0  0  0  0  0  0  0  0  0  0
   -1.9260  -19.2000   24.2730 C   0  0  0  0  0  0  0  0  0  0  0  0
   -3.1770  -19.6330   24.2110 C   0  0  0  0  0  0  0  0  0  0  0  0
   -3.6300  -20.3040   23.1480 C   0  0  0  0  0  0  0  0  0  0  0  0
   -1.4560  -18.5330   25.3210 O   0  0  0  0  0  0  0  0  0  0  0  0
   -3.2470  -21.5060   18.1770 C   0  0  0  0  0  0  0  0  0  0  0  0
   -1.9020  -21.6150   18.9040 C   0  0  0  0  0  0  0  0  0  0  0  0
   -3.3810  -22.0100   16.4290 S   0  0  0  0  0  0  0  0  0  0  0  0
   -3.0990  -23.2020   19.7170 O   0  0  0  0  0  0  0  0  0  0  0  0
   -4.9150  -21.6340   16.0560 N   0  0  0  0  0  0  0  0  0  0  0  0
   -3.0120  -23.2610   16.8610 O   0  0  0  0  0  0  0  0  0  0  0  0
   -2.4920  -21.1120   15.9220 O   0  0  0  0  0  0  0  0  0  0  0  0
   -5.8230  -22.4520   16.0230 C   0  0  0  0  0  0  0  0  0  0  0  0
   -5.1660  -20.2050   15.7960 C   0  0  0  0  0  0  0  0  0  0  0  0
   -6.0550  -23.4530   15.2030 C   0  0  0  0  0  0  0  0  0  0  0  0
   -7.1010  -24.2120   15.3180 C   0  0  0  0  0  0  0  0  0  0  0  0
   -7.9320  -23.9670   16.3030 C   0  0  0  0  0  0  0  0  0  0  0  0
   -7.7420  -22.9890   17.1580 C   0  0  0  0  0  0  0  0  0  0  0  0
   -6.7190  -22.2590   16.9970 C   0  0  0  0  0  0  0  0  0  0  0  0
   -5.1360  -23.9470   13.8760 Cl  0  0  0  0  0  0  0  0  0  0  0  0
   -7.1597  -17.8336   20.3364 H   0  0  0  0  0  0  0  0  0  0  0  0
   -8.8828  -21.6295   20.4861 H   0  0  0  0  0  0  0  0  0  0  0  0
   -6.7149  -22.6049   20.4284 H   0  0  0  0  0  0  0  0  0  0  0  0
   -5.0110  -18.8500   20.2570 H   0  0  0  0  0  0  0  0  0  0  0  0
   -9.8419  -18.9232   21.3090 H   0  0  0  0  0  0  0  0  0  0  0  0
   -1.5347  -22.4163   20.9410 H   0  0  0  0  0  0  0  0  0  0  0  0
   -4.9194  -22.8678   18.7681 H   0  0  0  0  0  0  0  0  0  0  0  0
   -0.9709  -20.2804   21.3236 H   0  0  0  0  0  0  0  0  0  0  0  0
   -0.1295  -19.0970   23.2157 H   0  0  0  0  0  0  0  0  0  0  0  0
   -3.8571  -19.4358   25.0528 H   0  0  0  0  0  0  0  0  0  0  0  0
   -4.6721  -20.6561   23.1578 H   0  0  0  0  0  0  0  0  0  0  0  0
   -1.6705  -18.8374   26.2383 H   0  0  0  0  0  0  0  0  0  0  0  0
   -3.5744  -20.4749   17.9781 H   0  0  0  0  0  0  0  0  0  0  0  0
   -1.4263  -20.6307   19.0259 H   0  0  0  0  0  0  0  0  0  0  0  0
   -1.1461  -22.2162   18.3776 H   0  0  0  0  0  0  0  0  0  0  0  0
   -5.2601  -19.6694   16.7522 H   0  0  0  0  0  0  0  0  0  0  0  0
   -4.3280  -19.7842   15.2209 H   0  0  0  0  0  0  0  0  0  0  0  0
   -6.0972  -20.0950   15.2209 H   0  0  0  0  0  0  0  0  0  0  0  0
   -7.2852  -25.0350   14.6118 H   0  0  0  0  0  0  0  0  0  0  0  0
   -8.8211  -24.6047   16.4168 H   0  0  0  0  0  0  0  0  0  0  0  0
   -8.4456  -22.8098   17.9844 H   0  0  0  0  0  0  0  0  0  0  0  0
   -6.5596  -21.4233   17.6943 H   0  0  0  0  0  0  0  0  0  0  0  0
  7  2  1  0
  3  2  1  0
  3  4  2  0
  2  1  2  0
 16 17  2  0
 16 15  1  0
  4  5  1  0
 17 11  1  0
 18 15  1  0
  1  6  1  0
 15 14  2  0
  5  6  2  0
  5  8  1  0
 31 30  2  0
 31 32  1  0
 11  9  1  0
 11 13  2  0
  8  9  2  0
  8 12  1  0
 30 29  1  0
  9 10  1  0
 14 13  1  0
 22 12  1  0
 22 10  1  0
 32 26  2  0
 12 19  1  0
 10 20  1  0
 29 28  2  0
 26 28  1  0
 26 23  1  0
 19 20  1  0
 19 21  1  0
 28 33  1  0
 23 27  1  0
 23 21  1  0
 24 21  2  0
 21 25  2  0
  1 34  1  0
  3 35  1  0
  4 36  1  0
  6 37  1  0
  7 38  1  0
 10 39  1  0
 12 40  1  0
 13 41  1  0
 14 42  1  0
 16 43  1  0
 17 44  1  0
 18 45  1  0
 19 46  1  0
 20 47  1  0
 20 48  1  0
 27 49  1  0
 27 50  1  0
 27 51  1  0
 29 52  1  0
 30 53  1  0
 31 54  1  0
 32 55  1  0
A    1
C01
A    2
C02
A    3
C03
A    4
C04
A    5
C05
A    6
C06
A    7
O01
A    8
C07
A    9
C08
A   10
C09
A   11
C10
A   12
C11
A   13
C12
A   14
C13
A   15
C14
A   16
C15
A   17
C16
A   18
O02
A   19
C17
A   20
C18
A   21
S01
A   22
O03
A   23
N01
A   24
O04
A   25
O05
A   26
C19
A   27
C20
A   28
C21
A   29
C22
A   30
C23
A   31
C24
A   32
C25
A   33
CL1
M  END
