5BNU_OB7_A_601
     RDKit          3D

 58 62  0  0  0  0  0  0  0  0999 V2000
  -17.7400  -25.0960   -1.5820 C   0  0  0  0  0  0  0  0  0  0  0  0
  -19.0480  -25.3620   -1.6340 C   0  0  0  0  0  0  0  0  0  0  0  0
  -19.6110  -25.9380   -2.6960 C   0  0  0  0  0  0  0  0  0  0  0  0
  -18.9470  -26.3110   -3.7900 C   0  0  0  0  0  0  0  0  0  0  0  0
  -17.6360  -26.0530   -3.7190 C   0  0  0  0  0  0  0  0  0  0  0  0
  -17.0460  -25.4720   -2.6580 C   0  0  0  0  0  0  0  0  0  0  0  0
  -17.1540  -24.5380   -0.5240 O   0  0  0  0  0  0  0  0  0  0  0  0
  -19.6130  -26.9170   -4.8300 C   0  0  0  0  0  0  0  0  0  0  0  0
  -20.8750  -26.8520   -5.3100 C   0  0  0  0  0  0  0  0  0  0  0  0
  -20.8630  -27.8280   -6.4800 C   0  0  0  0  0  0  0  0  0  0  0  0
  -20.1100  -27.1810   -7.6200 C   0  0  0  0  0  0  0  0  0  0  0  0
  -18.7020  -27.2520   -7.0670 C   0  0  0  0  0  0  0  0  0  0  0  0
  -18.9700  -27.9580   -5.7440 C   0  0  0  0  0  0  0  0  0  0  0  0
  -21.9710  -26.1210   -5.1320 C   0  0  0  0  0  0  0  0  0  0  0  0
  -21.9140  -24.7860   -5.0380 C   0  0  0  0  0  0  0  0  0  0  0  0
  -22.9980  -24.0460   -4.9150 C   0  0  0  0  0  0  0  0  0  0  0  0
  -24.1850  -24.6180   -4.9110 C   0  0  0  0  0  0  0  0  0  0  0  0
  -24.2450  -25.9120   -5.0460 C   0  0  0  0  0  0  0  0  0  0  0  0
  -23.1730  -26.6480   -5.1680 C   0  0  0  0  0  0  0  0  0  0  0  0
  -25.3080  -23.9380   -4.7790 O   0  0  0  0  0  0  0  0  0  0  0  0
  -20.0020  -28.8000   -6.0690 O   0  0  0  0  0  0  0  0  0  0  0  0
  -17.6610  -28.1310   -8.1020 S   0  0  0  0  0  0  0  0  0  0  0  0
  -17.9830  -29.8020   -8.1980 N   0  0  0  0  0  0  0  0  0  0  0  0
  -18.8680  -30.3270   -8.9370 C   0  0  0  0  0  0  0  0  0  0  0  0
  -19.9260  -30.9500   -8.4150 C   0  0  0  0  0  0  0  0  0  0  0  0
  -20.9100  -31.5250   -9.1220 C   0  0  0  0  0  0  0  0  0  0  0  0
  -20.8970  -31.4950  -10.4540 C   0  0  0  0  0  0  0  0  0  0  0  0
  -19.8460  -30.9010  -11.0110 C   0  0  0  0  0  0  0  0  0  0  0  0
  -18.8910  -30.3280  -10.2720 C   0  0  0  0  0  0  0  0  0  0  0  0
  -22.1380  -32.2010  -11.4540 Cl  0  0  0  0  0  0  0  0  0  0  0  0
  -17.2890  -30.6280   -7.2030 C   0  0  0  0  0  0  0  0  0  0  0  0
  -16.6110  -31.9100   -7.6470 C   0  0  0  0  0  0  0  0  0  0  0  0
  -16.4210  -28.0690   -7.4780 O   0  0  0  0  0  0  0  0  0  0  0  0
  -17.8820  -27.8150   -9.4360 O   0  0  0  0  0  0  0  0  0  0  0  0
  -19.6802  -25.0974   -0.7736 H   0  0  0  0  0  0  0  0  0  0  0  0
  -20.6959  -26.1175   -2.6678 H   0  0  0  0  0  0  0  0  0  0  0  0
  -17.0050  -26.3314   -4.5759 H   0  0  0  0  0  0  0  0  0  0  0  0
  -15.9594  -25.3020   -2.6784 H   0  0  0  0  0  0  0  0  0  0  0  0
  -17.4294  -24.8003    0.3900 H   0  0  0  0  0  0  0  0  0  0  0  0
  -21.8761  -28.1483   -6.7648 H   0  0  0  0  0  0  0  0  0  0  0  0
  -20.4326  -26.1428   -7.7871 H   0  0  0  0  0  0  0  0  0  0  0  0
  -20.2504  -27.6570   -8.6017 H   0  0  0  0  0  0  0  0  0  0  0  0
  -18.1858  -26.2864   -6.9615 H   0  0  0  0  0  0  0  0  0  0  0  0
  -18.0840  -28.4294   -5.2937 H   0  0  0  0  0  0  0  0  0  0  0  0
  -20.9317  -24.2916   -5.0643 H   0  0  0  0  0  0  0  0  0  0  0  0
  -22.9118  -22.9539   -4.8160 H   0  0  0  0  0  0  0  0  0  0  0  0
  -25.2304  -26.4008   -5.0576 H   0  0  0  0  0  0  0  0  0  0  0  0
  -23.2796  -27.7343   -5.3040 H   0  0  0  0  0  0  0  0  0  0  0  0
  -25.6559  -23.7273   -3.8764 H   0  0  0  0  0  0  0  0  0  0  0  0
  -19.9968  -30.9957   -7.3182 H   0  0  0  0  0  0  0  0  0  0  0  0
  -21.7362  -32.0265   -8.5968 H   0  0  0  0  0  0  0  0  0  0  0  0
  -19.7603  -30.8806  -12.1075 H   0  0  0  0  0  0  0  0  0  0  0  0
  -18.0683  -29.8230  -10.7994 H   0  0  0  0  0  0  0  0  0  0  0  0
  -16.5133  -29.9961   -6.7459 H   0  0  0  0  0  0  0  0  0  0  0  0
  -18.0972  -30.9753   -6.5426 H   0  0  0  0  0  0  0  0  0  0  0  0
  -16.3052  -32.4883   -6.7627 H   0  0  0  0  0  0  0  0  0  0  0  0
  -17.3120  -32.5056   -8.2502 H   0  0  0  0  0  0  0  0  0  0  0  0
  -15.7241  -31.6659   -8.2502 H   0  0  0  0  0  0  0  0  0  0  0  0
 30 27  1  0
 28 27  2  0
 28 29  1  0
 27 26  1  0
 29 24  2  0
 34 22  2  0
 26 25  2  0
 24 25  1  0
 24 23  1  0
 23 22  1  0
 23 31  1  0
 22 33  2  0
 22 12  1  0
 11 12  1  0
 11 10  1  0
 32 31  1  0
 12 13  1  0
 10 21  1  0
 10  9  1  0
 21 13  1  0
 13  8  1  0
  9 14  1  0
  9  8  2  0
 14 19  1  0
 14 15  2  0
 19 18  2  0
 15 16  1  0
 18 17  1  0
 16 17  2  0
 17 20  1  0
  8  4  1  0
  4  5  2  0
  4  3  1  0
  5  6  1  0
  6  1  2  0
  3  2  2  0
  2  1  1  0
  1  7  1  0
  2 35  1  0
  3 36  1  0
  5 37  1  0
  6 38  1  0
  7 39  1  0
 10 40  1  0
 11 41  1  0
 11 42  1  0
 12 43  1  0
 13 44  1  0
 15 45  1  0
 16 46  1  0
 18 47  1  0
 19 48  1  0
 20 49  1  0
 25 50  1  0
 26 51  1  0
 28 52  1  0
 29 53  1  0
 31 54  1  0
 31 55  1  0
 32 56  1  0
 32 57  1  0
 32 58  1  0
A    1
C01
A    2
C02
A    3
C03
A    4
C04
A    5
C05
A    6
C06
A    7
O01
A    8
C07
A    9
C08
A   10
C09
A   11
C10
A   12
C11
A   13
C12
A   14
C13
A   15
C14
A   16
C15
A   17
C16
A   18
C17
A   19
C18
A   20
O02
A   21
O03
A   22
S01
A   23
N01
A   24
C19
A   25
C20
A   26
C21
A   27
C22
A   28
C23
A   29
C24
A   30
CL1
A   31
C25
A   32
C26
A   33
O04
A   34
O05
M  END
