1A71_ETF_A_404
     RDKit          3D

  9  8  0  0  0  0  0  0  0  0999 V2000
   -8.9360  -10.2160   19.3020 C   0  0  0  0  0  0  0  0  0  0  0  0
   -9.1810  -11.6890   19.5070 C   0  0  0  0  0  0  0  0  0  0  0  0
   -7.9820  -12.4470   19.6020 O   0  0  0  0  0  0  0  0  0  0  0  0
   -7.7460   -9.9020   18.7930 F   0  0  0  0  0  0  0  0  0  0  0  0
   -9.8600   -9.6740   18.4940 F   0  0  0  0  0  0  0  0  0  0  0  0
   -9.0100   -9.6060   20.4790 F   0  0  0  0  0  0  0  0  0  0  0  0
   -9.7538  -11.8223   20.4366 H   0  0  0  0  0  0  0  0  0  0  0  0
   -9.7310  -12.0550   18.6275 H   0  0  0  0  0  0  0  0  0  0  0  0
   -7.7564  -12.5896   20.5553 H   0  0  0  0  0  0  0  0  0  0  0  0
  1  2  1  0
  1  4  1  0
  1  5  1  0
  1  6  1  0
  2  3  1  0
  2  7  1  0
  2  8  1  0
  3  9  1  0
A    1
C1
A    2
C2
A    3
O
A    4
F1
A    5
F2
A    6
F3
M  END
