5KDH_6RX_A_201
     RDKit          3D

 42 45  0  0  0  0  0  0  0  0999 V2000
    8.5540   -6.4320  -20.6910 C   0  0  0  0  0  0  0  0  0  0  0  0
   10.2490   -5.1040  -18.1760 C   0  0  0  0  0  0  0  0  0  0  0  0
    6.8010   -1.7130  -21.2890 C   0  0  0  0  0  0  0  0  0  0  0  0
    6.2610   -0.4420  -21.3770 C   0  0  0  0  0  0  0  0  0  0  0  0
    7.6900   -2.2100  -24.6930 C   0  0  0  0  0  0  0  0  0  0  0  0
   10.8660   -0.6540  -26.0660 C   0  0  0  0  0  0  0  0  0  0  0  0
    9.8760   -1.1890  -25.1160 C   0  0  0  0  0  0  0  0  0  0  0  0
   10.1230   -1.2090  -23.7360 C   0  0  0  0  0  0  0  0  0  0  0  0
    9.1670   -1.7200  -22.8500 C   0  0  0  0  0  0  0  0  0  0  0  0
    7.9240   -2.2280  -23.3000 C   0  0  0  0  0  0  0  0  0  0  0  0
    6.9450   -2.7650  -22.2990 C   0  0  0  0  0  0  0  0  0  0  0  0
    7.4630   -4.0780  -21.7470 C   0  0  0  0  0  0  0  0  0  0  0  0
    7.6580   -5.2470  -22.5420 C   0  0  0  0  0  0  0  0  0  0  0  0
    8.1810   -6.3770  -21.9930 N   0  0  0  0  0  0  0  0  0  0  0  0
    8.4020   -5.3370  -19.8700 N   0  0  0  0  0  0  0  0  0  0  0  0
    8.7890   -5.4660  -18.4760 C   0  0  0  0  0  0  0  0  0  0  0  0
    9.0410   -7.5190  -20.2810 O   0  0  0  0  0  0  0  0  0  0  0  0
    7.3410   -5.3060  -23.7640 O   0  0  0  0  0  0  0  0  0  0  0  0
    7.8780   -4.1650  -20.3860 C   0  0  0  0  0  0  0  0  0  0  0  0
    7.7240   -3.0560  -19.5890 N   0  0  0  0  0  0  0  0  0  0  0  0
    7.2030   -1.8990  -20.0300 C   0  0  0  0  0  0  0  0  0  0  0  0
    6.9160   -0.7500  -19.2070 C   0  0  0  0  0  0  0  0  0  0  0  0
    6.3980    0.1670  -20.1780 O   0  0  0  0  0  0  0  0  0  0  0  0
    5.7180    0.1320  -22.3650 O   0  0  0  0  0  0  0  0  0  0  0  0
    8.6520   -1.6990  -25.5870 C   0  0  0  0  0  0  0  0  0  0  0  0
   10.4011   -5.0663  -17.0872 H   0  0  0  0  0  0  0  0  0  0  0  0
   10.9126   -5.8648  -18.6128 H   0  0  0  0  0  0  0  0  0  0  0  0
   10.4803   -4.1213  -18.6128 H   0  0  0  0  0  0  0  0  0  0  0  0
    6.7404   -2.6016  -25.0867 H   0  0  0  0  0  0  0  0  0  0  0  0
   11.7010   -0.2027  -25.5101 H   0  0  0  0  0  0  0  0  0  0  0  0
   11.2452   -1.4700  -26.6988 H   0  0  0  0  0  0  0  0  0  0  0  0
   10.3912    0.1103  -26.6988 H   0  0  0  0  0  0  0  0  0  0  0  0
   11.0754   -0.8202  -23.3464 H   0  0  0  0  0  0  0  0  0  0  0  0
    9.3879   -1.7271  -21.7724 H   0  0  0  0  0  0  0  0  0  0  0  0
    5.9572   -2.9960  -22.7243 H   0  0  0  0  0  0  0  0  0  0  0  0
    8.2966   -7.2134  -22.5829 H   0  0  0  0  0  0  0  0  0  0  0  0
    8.1433   -4.8049  -17.8793 H   0  0  0  0  0  0  0  0  0  0  0  0
    8.6759   -6.5301  -18.2212 H   0  0  0  0  0  0  0  0  0  0  0  0
    8.0228   -3.1149  -18.6050 H   0  0  0  0  0  0  0  0  0  0  0  0
    7.8265   -0.3591  -18.7292 H   0  0  0  0  0  0  0  0  0  0  0  0
    6.2322   -0.9544  -18.3700 H   0  0  0  0  0  0  0  0  0  0  0  0
    8.4434   -1.6988  -26.6670 H   0  0  0  0  0  0  0  0  0  0  0  0
  6  7  1  0
 25  7  1  0
 25  5  2  0
  7  8  2  0
  5 10  1  0
 18 13  2  0
  8  9  1  0
 10  9  2  0
 10 11  1  0
 13 14  1  0
 13 12  1  0
 24  4  2  0
 11 12  1  0
 11  3  1  0
 14  1  1  0
 12 19  2  0
  4  3  1  0
  4 23  1  0
  3 21  2  0
  1 17  2  0
  1 15  1  0
 19 15  1  0
 19 20  1  0
 23 22  1  0
 21 20  1  0
 21 22  1  0
 15 16  1  0
 16  2  1  0
  2 26  1  0
  2 27  1  0
  2 28  1  0
  5 29  1  0
  6 30  1  0
  6 31  1  0
  6 32  1  0
  8 33  1  0
  9 34  1  0
 11 35  1  0
 14 36  1  0
 16 37  1  0
 16 38  1  0
 20 39  1  0
 22 40  1  0
 22 41  1  0
 25 42  1  0
A    1
C10
A    2
C13
A    3
C21
A    4
C22
A    5
C24
A    6
C01
A    7
C02
A    8
C03
A    9
C04
A   10
C05
A   11
C06
A   12
C07
A   13
C08
A   14
N09
A   15
N11
A   16
C12
A   17
O14
A   18
O15
A   19
C16
A   20
N17
A   21
C18
A   22
C19
A   23
O20
A   24
O23
A   25
C25
M  END
