5KE3_6S5_A_501
     RDKit          3D

 38 40  0  0  0  0  0  0  0  0999 V2000
   19.9480   48.7390   11.8810 C   0  0  0  0  0  0  0  0  0  0  0  0
   18.7300   46.1430   12.4350 N   0  0  0  0  0  0  0  0  0  0  0  0
   19.1230   47.9760   10.8340 C   0  0  0  0  0  0  0  0  0  0  0  0
   18.0830   47.0930   11.5180 C   0  0  0  0  0  0  0  0  0  0  0  0
   18.1240   42.6790   11.4310 N   0  0  0  0  0  0  0  0  0  0  0  0
   19.4470   46.8710   13.4910 C   0  0  0  0  0  0  0  0  0  0  0  0
   20.5420   47.7580   12.8990 C   0  0  0  0  0  0  0  0  0  0  0  0
   18.6800   44.7900   12.4020 C   0  0  0  0  0  0  0  0  0  0  0  0
   17.7420   44.1050   11.4060 C   0  0  0  0  0  0  0  0  0  0  0  0
   16.2990   44.3230   11.8610 C   0  0  0  0  0  0  0  0  0  0  0  0
   15.3320   43.3460   11.2420 C   0  0  0  0  0  0  0  0  0  0  0  0
   15.7860   42.1340   10.6920 C   0  0  0  0  0  0  0  0  0  0  0  0
   19.2970   44.1030   13.1950 O   0  0  0  0  0  0  0  0  0  0  0  0
   17.2640   41.8510   10.5770 C   0  0  0  0  0  0  0  0  0  0  0  0
   14.8500   41.2160   10.2140 C   0  0  0  0  0  0  0  0  0  0  0  0
   13.4950   41.4870   10.2770 C   0  0  0  0  0  0  0  0  0  0  0  0
   13.0550   42.6830   10.7940 C   0  0  0  0  0  0  0  0  0  0  0  0
   13.9660   43.6140   11.2580 C   0  0  0  0  0  0  0  0  0  0  0  0
   20.7632   49.2801   11.3784 H   0  0  0  0  0  0  0  0  0  0  0  0
   19.2945   49.4514   12.4057 H   0  0  0  0  0  0  0  0  0  0  0  0
   19.7944   47.3458   10.2322 H   0  0  0  0  0  0  0  0  0  0  0  0
   18.6066   48.7014   10.1882 H   0  0  0  0  0  0  0  0  0  0  0  0
   17.3882   47.7281   12.0872 H   0  0  0  0  0  0  0  0  0  0  0  0
   17.5387   46.5265   10.7481 H   0  0  0  0  0  0  0  0  0  0  0  0
   18.0559   42.3359   12.3998 H   0  0  0  0  0  0  0  0  0  0  0  0
   18.7330   47.5006   14.0422 H   0  0  0  0  0  0  0  0  0  0  0  0
   19.9157   46.1388   14.1649 H   0  0  0  0  0  0  0  0  0  0  0  0
   21.2891   47.1248   12.3980 H   0  0  0  0  0  0  0  0  0  0  0  0
   21.0132   48.3308   13.7113 H   0  0  0  0  0  0  0  0  0  0  0  0
   17.8185   44.5027   10.3833 H   0  0  0  0  0  0  0  0  0  0  0  0
   15.9938   45.3424   11.5823 H   0  0  0  0  0  0  0  0  0  0  0  0
   16.2706   44.1689   12.9498 H   0  0  0  0  0  0  0  0  0  0  0  0
   17.4312   40.7972   10.8444 H   0  0  0  0  0  0  0  0  0  0  0  0
   17.5420   42.0886    9.5396 H   0  0  0  0  0  0  0  0  0  0  0  0
   15.1940   40.2648    9.7816 H   0  0  0  0  0  0  0  0  0  0  0  0
   12.7688   40.7452    9.9132 H   0  0  0  0  0  0  0  0  0  0  0  0
   11.9774   42.8992   10.8384 H   0  0  0  0  0  0  0  0  0  0  0  0
   13.6067   44.5790   11.6448 H   0  0  0  0  0  0  0  0  0  0  0  0
 15 16  2  0
 15 12  1  0
 16 17  1  0
 14 12  1  0
 14  5  1  0
 12 11  2  0
 17 18  2  0
  3  4  1  0
  3  1  1  0
 11 18  1  0
 11 10  1  0
  9  5  1  0
  9 10  1  0
  9  8  1  0
  4  2  1  0
  1  7  1  0
  8  2  1  0
  8 13  2  0
  2  6  1  0
  7  6  1  0
  1 19  1  0
  1 20  1  0
  3 21  1  0
  3 22  1  0
  4 23  1  0
  4 24  1  0
  5 25  1  0
  6 26  1  0
  6 27  1  0
  7 28  1  0
  7 29  1  0
  9 30  1  0
 10 31  1  0
 10 32  1  0
 14 33  1  0
 14 34  1  0
 15 35  1  0
 16 36  1  0
 17 37  1  0
 18 38  1  0
A    1
C6
A    2
N1
A    3
C7
A    4
C8
A    5
N2
A    6
C9
A    7
C10
A    8
C11
A    9
C12
A   10
C13
A   11
C14
A   12
C15
A   13
O2
A   14
C16
A   15
C17
A   16
C18
A   17
C19
A   18
C20
M  END
