5KH9_6T5_A_1305
     RDKit          3D

 34 35  0  0  0  0  0  0  0  0999 V2000
   -2.5520    5.2170    6.2630 O   0  0  0  0  0  0  0  0  0  0  0  0
   -2.1880    4.2590    6.9760 C   0  0  0  0  0  0  0  0  0  0  0  0
   -0.8810    3.8960    6.9610 N   0  0  0  0  0  0  0  0  0  0  0  0
   -0.3480    2.8810    7.7180 N   0  0  0  0  0  0  0  0  0  0  0  0
   -1.1560    2.1960    8.4540 C   0  0  0  0  0  0  0  0  0  0  0  0
   -0.5800    1.0820    9.2580 C   0  0  0  0  0  0  0  0  0  0  0  0
   -3.0500    3.5530    7.7780 N   0  0  0  0  0  0  0  0  0  0  0  0
   -2.5700    2.5260    8.4940 C   0  0  0  0  0  0  0  0  0  0  0  0
   -3.4410    2.0250    9.3930 N   0  0  0  0  0  0  0  0  0  0  0  0
   -4.8540    2.1240    9.4900 C   0  0  0  0  0  0  0  0  0  0  0  0
   -5.4340    1.8060   10.7170 C   0  0  0  0  0  0  0  0  0  0  0  0
   -6.8050    1.8980   10.8830 C   0  0  0  0  0  0  0  0  0  0  0  0
   -7.6360    2.2580    9.8240 C   0  0  0  0  0  0  0  0  0  0  0  0
   -9.1410    2.3520   10.0530 C   0  0  0  0  0  0  0  0  0  0  0  0
   -9.5900    3.7860   10.3690 C   0  0  0  0  0  0  0  0  0  0  0  0
   -9.9690    1.7280    8.9240 C   0  0  0  0  0  0  0  0  0  0  0  0
   -7.0530    2.5070    8.5830 C   0  0  0  0  0  0  0  0  0  0  0  0
   -5.6820    2.4290    8.4070 C   0  0  0  0  0  0  0  0  0  0  0  0
   -0.2452    4.4166    6.3400 H   0  0  0  0  0  0  0  0  0  0  0  0
   -0.6953    1.3050   10.3290 H   0  0  0  0  0  0  0  0  0  0  0  0
   -1.1075    0.1467    9.0194 H   0  0  0  0  0  0  0  0  0  0  0  0
    0.4881    0.9717    9.0194 H   0  0  0  0  0  0  0  0  0  0  0  0
   -3.0032    1.4717   10.1433 H   0  0  0  0  0  0  0  0  0  0  0  0
   -4.8005    1.4811   11.5555 H   0  0  0  0  0  0  0  0  0  0  0  0
   -7.2461    1.6833   11.8676 H   0  0  0  0  0  0  0  0  0  0  0  0
   -9.3431    1.7421   10.9458 H   0  0  0  0  0  0  0  0  0  0  0  0
   -9.6334    3.9247   11.4593 H   0  0  0  0  0  0  0  0  0  0  0  0
   -8.8720    4.4986    9.9370 H   0  0  0  0  0  0  0  0  0  0  0  0
  -10.5862    3.9619    9.9370 H   0  0  0  0  0  0  0  0  0  0  0  0
  -10.7771    1.1190    9.3554 H   0  0  0  0  0  0  0  0  0  0  0  0
  -10.4026    2.5259    8.3032 H   0  0  0  0  0  0  0  0  0  0  0  0
   -9.3215    1.0913    8.3032 H   0  0  0  0  0  0  0  0  0  0  0  0
   -7.6934    2.7702    7.7282 H   0  0  0  0  0  0  0  0  0  0  0  0
   -5.2444    2.6073    7.4137 H   0  0  0  0  0  0  0  0  0  0  0  0
  1  2  2  0
  3  2  1  0
  3  4  1  0
  2  7  1  0
  4  5  2  0
  7  8  2  0
 18 17  2  0
 18 10  1  0
  5  8  1  0
  5  6  1  0
  8  9  1  0
 17 13  1  0
 16 14  1  0
  9 10  1  0
 10 11  2  0
 13 14  1  0
 13 12  2  0
 14 15  1  0
 11 12  1  0
  3 19  1  0
  6 20  1  0
  6 21  1  0
  6 22  1  0
  9 23  1  0
 11 24  1  0
 12 25  1  0
 14 26  1  0
 15 27  1  0
 15 28  1  0
 15 29  1  0
 16 30  1  0
 16 31  1  0
 16 32  1  0
 17 33  1  0
 18 34  1  0
A    1
O
A    2
C3
A    3
N1
A    4
N2
A    5
C1
A    6
C
A    7
N
A    8
C2
A    9
N3
A   10
C4
A   11
C9
A   12
C8
A   13
C7
A   14
C10
A   15
C12
A   16
C11
A   17
C6
A   18
C5
M  END
