5KIT_6TA_A_501
     RDKit          3D

 58 61  0  0  0  0  0  0  0  0999 V2000
   16.4520    0.6760   -5.6580 C   0  0  0  0  0  0  0  0  0  0  0  0
   14.2850    2.9680   -4.0160 C   0  0  0  0  0  0  0  0  0  0  0  0
   13.9520    5.4380   -1.7760 C   0  0  0  0  0  0  0  0  0  0  0  0
   14.8600    2.6330   -1.7470 C   0  0  0  0  0  0  0  0  0  0  0  0
   15.6030    5.7690    0.3080 C   0  0  0  0  0  0  0  0  0  0  0  0
   15.9360    8.5290    4.2940 C   0  0  0  0  0  0  0  0  0  0  0  0
   15.4490    8.7430    5.7300 C   0  0  0  0  0  0  0  0  0  0  0  0
   15.2080    8.7070    8.0950 C   0  0  0  0  0  0  0  0  0  0  0  0
   13.6990    9.8770    6.8750 C   0  0  0  0  0  0  0  0  0  0  0  0
   14.0250    9.8710    4.2290 C   0  0  0  0  0  0  0  0  0  0  0  0
   14.2240    1.5570   -6.4290 C   0  0  0  0  0  0  0  0  0  0  0  0
   15.4940    1.8310   -5.6460 C   0  0  0  0  0  0  0  0  0  0  0  0
   16.1330    3.1020   -6.2160 C   0  0  0  0  0  0  0  0  0  0  0  0
   15.1880    2.1000   -4.2630 O   0  0  0  0  0  0  0  0  0  0  0  0
   13.6770    3.5100   -4.8500 O   0  0  0  0  0  0  0  0  0  0  0  0
   14.0430    3.2800   -2.7410 N   0  0  0  0  0  0  0  0  0  0  0  0
   13.1070    4.2980   -2.4020 C   0  0  0  0  0  0  0  0  0  0  0  0
   14.9590    4.8950   -0.7800 C   0  0  0  0  0  0  0  0  0  0  0  0
   15.7960    3.7060   -1.2110 C   0  0  0  0  0  0  0  0  0  0  0  0
   14.4210    4.8810    0.6380 C   0  0  0  0  0  0  0  0  0  0  0  0
   15.4110    7.2880    0.2910 C   0  0  0  0  0  0  0  0  0  0  0  0
   15.5360    7.8010    1.6500 N   0  0  0  0  0  0  0  0  0  0  0  0
   14.6490    8.6320    2.1590 C   0  0  0  0  0  0  0  0  0  0  0  0
   13.7040    9.0600    1.5850 O   0  0  0  0  0  0  0  0  0  0  0  0
   14.8570    9.0100    3.4400 N   0  0  0  0  0  0  0  0  0  0  0  0
   15.8930    8.3230    6.9700 C   0  0  0  0  0  0  0  0  0  0  0  0
   14.1460    9.4370    8.0220 N   0  0  0  0  0  0  0  0  0  0  0  0
   14.3210    9.5390    5.6860 C   0  0  0  0  0  0  0  0  0  0  0  0
   16.6914    0.3874   -4.6239 H   0  0  0  0  0  0  0  0  0  0  0  0
   15.9921   -0.1764   -6.1795 H   0  0  0  0  0  0  0  0  0  0  0  0
   17.3747    0.9704   -6.1795 H   0  0  0  0  0  0  0  0  0  0  0  0
   13.2804    6.1398   -1.2599 H   0  0  0  0  0  0  0  0  0  0  0  0
   14.5010    5.9461   -2.5825 H   0  0  0  0  0  0  0  0  0  0  0  0
   15.4373    1.8140   -2.2007 H   0  0  0  0  0  0  0  0  0  0  0  0
   14.2478    2.1948   -0.9450 H   0  0  0  0  0  0  0  0  0  0  0  0
   16.6251    5.8946    0.6947 H   0  0  0  0  0  0  0  0  0  0  0  0
   16.8562    9.1032    4.1107 H   0  0  0  0  0  0  0  0  0  0  0  0
   16.1721    7.4729    4.0967 H   0  0  0  0  0  0  0  0  0  0  0  0
   15.5722    8.3854    9.0819 H   0  0  0  0  0  0  0  0  0  0  0  0
   12.8123   10.5277    6.8547 H   0  0  0  0  0  0  0  0  0  0  0  0
   12.9643    9.6852    4.0045 H   0  0  0  0  0  0  0  0  0  0  0  0
   14.2285   10.9301    4.0122 H   0  0  0  0  0  0  0  0  0  0  0  0
   13.3937    1.3779   -5.7300 H   0  0  0  0  0  0  0  0  0  0  0  0
   13.9892    2.4252   -7.0624 H   0  0  0  0  0  0  0  0  0  0  0  0
   14.3681    0.6693   -7.0624 H   0  0  0  0  0  0  0  0  0  0  0  0
   16.4591    3.7507   -5.3897 H   0  0  0  0  0  0  0  0  0  0  0  0
   17.0017    2.8304   -6.8337 H   0  0  0  0  0  0  0  0  0  0  0  0
   15.3968    3.6372   -6.8337 H   0  0  0  0  0  0  0  0  0  0  0  0
   12.3722    3.9197   -1.6761 H   0  0  0  0  0  0  0  0  0  0  0  0
   12.5394    4.6421   -3.2791 H   0  0  0  0  0  0  0  0  0  0  0  0
   16.5002    4.0126   -1.9984 H   0  0  0  0  0  0  0  0  0  0  0  0
   16.3699    3.3167   -0.3571 H   0  0  0  0  0  0  0  0  0  0  0  0
   14.5640    3.9914    1.2690 H   0  0  0  0  0  0  0  0  0  0  0  0
   13.4324    5.0477    1.0906 H   0  0  0  0  0  0  0  0  0  0  0  0
   14.4125    7.5285   -0.1029 H   0  0  0  0  0  0  0  0  0  0  0  0
   16.1752    7.7505   -0.3509 H   0  0  0  0  0  0  0  0  0  0  0  0
   16.3373    7.5066    2.2264 H   0  0  0  0  0  0  0  0  0  0  0  0
   16.7867    7.6872    7.0539 H   0  0  0  0  0  0  0  0  0  0  0  0
 27  8  2  0
 27  9  1  0
  8 26  1  0
  9 28  2  0
 26  7  2  0
 28  7  1  0
 28 10  1  0
  7  6  1  0
 10 25  1  0
  6 25  1  0
 25 23  1  0
 23 24  2  0
 23 22  1  0
 22 21  1  0
 20  5  1  0
 20 18  1  0
 21  5  1  0
  5 18  1  0
 18 19  1  0
 18  3  1  0
 19  4  1  0
  3 17  1  0
 17 16  1  0
  4 16  1  0
 16  2  1  0
  2 15  2  0
  2 14  1  0
 14 12  1  0
 12  1  1  0
 12 11  1  0
 12 13  1  0
  1 29  1  0
  1 30  1  0
  1 31  1  0
  3 32  1  0
  3 33  1  0
  4 34  1  0
  4 35  1  0
  5 36  1  0
  6 37  1  0
  6 38  1  0
  8 39  1  0
  9 40  1  0
 10 41  1  0
 10 42  1  0
 11 43  1  0
 11 44  1  0
 11 45  1  0
 13 46  1  0
 13 47  1  0
 13 48  1  0
 17 49  1  0
 17 50  1  0
 19 51  1  0
 19 52  1  0
 20 53  1  0
 20 54  1  0
 21 55  1  0
 21 56  1  0
 22 57  1  0
 26 58  1  0
A    1
C4
A    2
C6
A    3
C10
A    4
C13
A    5
C15
A    6
C21
A    7
C22
A    8
C24
A    9
C26
A   10
C28
A   11
C1
A   12
C2
A   13
C3
A   14
O5
A   15
O7
A   16
N8
A   17
C9
A   18
C11
A   19
C12
A   20
C14
A   21
C16
A   22
N17
A   23
C18
A   24
O19
A   25
N20
A   26
C23
A   27
N25
A   28
C27
M  END
