5KJU_6TO_A_800
     RDKit          3D

 39 40  0  0  0  0  0  0  0  0999 V2000
  -51.1620    5.7280   -7.8580 C   0  0  0  0  0  0  0  0  0  0  0  0
  -49.9220    7.3150   -9.9520 C   0  0  0  0  0  0  0  0  0  0  0  0
  -51.9800    6.7300   -8.7560 C   0  0  0  0  0  0  0  0  0  0  0  0
  -41.6410    1.7760  -10.3020 C   0  0  0  0  0  0  0  0  0  0  0  0
  -42.6620    0.8110  -10.2950 C   0  0  0  0  0  0  0  0  0  0  0  0
  -43.9780    1.2230  -10.4030 C   0  0  0  0  0  0  0  0  0  0  0  0
  -44.3020    2.5880  -10.5260 C   0  0  0  0  0  0  0  0  0  0  0  0
  -43.2560    3.5490  -10.5400 C   0  0  0  0  0  0  0  0  0  0  0  0
  -41.9310    3.1630  -10.4170 C   0  0  0  0  0  0  0  0  0  0  0  0
  -40.3270    1.3900  -10.1920 O   0  0  0  0  0  0  0  0  0  0  0  0
  -45.6560    3.0610  -10.6340 C   0  0  0  0  0  0  0  0  0  0  0  0
  -46.1730    4.2520  -10.3250 C   0  0  0  0  0  0  0  0  0  0  0  0
  -47.6250    4.4710  -10.5220 C   0  0  0  0  0  0  0  0  0  0  0  0
  -48.3940    3.5910  -10.9380 O   0  0  0  0  0  0  0  0  0  0  0  0
  -48.0630    5.7190  -10.1910 O   0  0  0  0  0  0  0  0  0  0  0  0
  -49.8890    5.1670   -8.5630 C   0  0  0  0  0  0  0  0  0  0  0  0
  -49.4580    5.9030   -9.9450 C   0  0  0  0  0  0  0  0  0  0  0  0
  -51.1370    7.6600   -9.5580 C   0  0  0  0  0  0  0  0  0  0  0  0
  -48.8120    5.0030   -7.6690 O   0  0  0  0  0  0  0  0  0  0  0  0
  -51.9360    4.5990   -7.5840 O   0  0  0  0  0  0  0  0  0  0  0  0
  -51.9410    8.7620  -10.2980 C   0  0  0  0  0  0  0  0  0  0  0  0
  -51.5020    9.1630  -11.3850 O   0  0  0  0  0  0  0  0  0  0  0  0
  -53.0000    9.1630   -9.7210 O   0  0  0  0  0  0  0  0  0  0  0  0
  -50.8830    6.3042   -6.9635 H   0  0  0  0  0  0  0  0  0  0  0  0
  -49.2321    8.0995  -10.2963 H   0  0  0  0  0  0  0  0  0  0  0  0
  -52.6280    7.3303   -8.1005 H   0  0  0  0  0  0  0  0  0  0  0  0
  -52.5475    6.1196   -9.4739 H   0  0  0  0  0  0  0  0  0  0  0  0
  -42.4182   -0.2578  -10.2048 H   0  0  0  0  0  0  0  0  0  0  0  0
  -44.7832    0.4736  -10.3927 H   0  0  0  0  0  0  0  0  0  0  0  0
  -43.5016    4.6156  -10.6501 H   0  0  0  0  0  0  0  0  0  0  0  0
  -41.1241    3.9106  -10.4085 H   0  0  0  0  0  0  0  0  0  0  0  0
  -39.9195    1.2703   -9.2978 H   0  0  0  0  0  0  0  0  0  0  0  0
  -46.3750    2.3297  -11.0319 H   0  0  0  0  0  0  0  0  0  0  0  0
  -45.5333    5.0557   -9.9316 H   0  0  0  0  0  0  0  0  0  0  0  0
  -50.1956    4.1662   -8.9013 H   0  0  0  0  0  0  0  0  0  0  0  0
  -49.9652    5.4353  -10.8017 H   0  0  0  0  0  0  0  0  0  0  0  0
  -49.1452    5.0537   -6.7381 H   0  0  0  0  0  0  0  0  0  0  0  0
  -52.0154    4.4832   -6.6040 H   0  0  0  0  0  0  0  0  0  0  0  0
  -53.0484    9.1813   -8.7324 H   0  0  0  0  0  0  0  0  0  0  0  0
 22 21  2  0
 14 13  2  0
 11  7  1  0
 11 12  2  0
  8  7  2  0
  8  9  1  0
  7  6  1  0
 13 12  1  0
 13 15  1  0
  9  4  2  0
  6  5  2  0
  4  5  1  0
  4 10  1  0
 21 23  1  0
 21 18  1  0
 15 17  1  0
  2 17  1  0
  2 18  2  0
 17 16  1  0
 18  3  1  0
  3  1  1  0
 16  1  1  0
 16 19  1  0
  1 20  1  0
  1 24  1  0
  2 25  1  0
  3 26  1  0
  3 27  1  0
  5 28  1  0
  6 29  1  0
  8 30  1  0
  9 31  1  0
 10 32  1  0
 11 33  1  0
 12 34  1  0
 16 35  1  0
 17 36  1  0
 19 37  1  0
 20 38  1  0
 23 39  1  0
A    1
C10
A    2
C13
A    3
C15
A    4
C01
A    5
C02
A    6
C03
A    7
C04
A    8
C05
A    9
C06
A   10
O01
A   11
C07
A   12
C08
A   13
C09
A   14
O02
A   15
O03
A   16
C11
A   17
C12
A   18
C14
A   19
O04
A   20
O05
A   21
C16
A   22
O06
A   23
O07
M  END
