5KKN_6U3_B_801
     RDKit          3D

 72 76  0  0  0  0  0  0  0  0999 V2000
   54.6100   44.4910   45.8600 O   0  0  0  0  0  0  0  0  0  0  0  0
   55.1610   45.6610   46.2480 C   0  0  0  0  0  0  0  0  0  0  0  0
   56.3310   45.3850   46.8300 C   0  0  0  0  0  0  0  0  0  0  0  0
   56.5390   44.0540   46.8230 N   0  0  0  0  0  0  0  0  0  0  0  0
   55.5160   43.5040   46.2150 C   0  0  0  0  0  0  0  0  0  0  0  0
   55.2940   42.2010   46.0290 C   0  0  0  0  0  0  0  0  0  0  0  0
   56.0180   41.1390   46.4120 C   0  0  0  0  0  0  0  0  0  0  0  0
   57.3660   41.1900   47.1640 C   0  0  0  0  0  0  0  0  0  0  0  0
   53.9200   41.6420   45.2260 S   0  0  0  0  0  0  0  0  0  0  0  0
   54.2690   40.0950   45.4170 C   0  0  0  0  0  0  0  0  0  0  0  0
   55.4480   39.9630   46.0710 C   0  0  0  0  0  0  0  0  0  0  0  0
   55.9100   38.7210   46.3160 C   0  0  0  0  0  0  0  0  0  0  0  0
   56.9680   38.5420   46.9090 O   0  0  0  0  0  0  0  0  0  0  0  0
   55.2380   37.6290   45.9500 N   0  0  0  0  0  0  0  0  0  0  0  0
   55.8450   36.2730   46.2410 C   0  0  0  0  0  0  0  0  0  0  0  0
   57.2950   36.2800   46.8160 C   0  0  0  0  0  0  0  0  0  0  0  0
   54.9460   35.3500   47.1130 C   0  0  0  0  0  0  0  0  0  0  0  0
   56.1530   35.7450   44.8870 C   0  0  0  0  0  0  0  0  0  0  0  0
   55.2820   35.1440   44.2270 O   0  0  0  0  0  0  0  0  0  0  0  0
   57.4040   36.1510   44.5160 N   0  0  0  0  0  0  0  0  0  0  0  0
   54.0480   37.7880   45.2900 C   0  0  0  0  0  0  0  0  0  0  0  0
   53.4010   36.8190   44.9290 O   0  0  0  0  0  0  0  0  0  0  0  0
   53.5610   39.0200   45.0200 N   0  0  0  0  0  0  0  0  0  0  0  0
   52.2450   39.2590   44.3610 C   0  0  0  0  0  0  0  0  0  0  0  0
   52.1150   38.9260   42.8970 C   0  0  0  0  0  0  0  0  0  0  0  0
   53.0220   39.7420   42.1960 O   0  0  0  0  0  0  0  0  0  0  0  0
   53.6980   38.9660   41.1990 C   0  0  0  0  0  0  0  0  0  0  0  0
   54.8720   38.2570   41.8490 C   0  0  0  0  0  0  0  0  0  0  0  0
   55.5740   37.4340   40.7720 C   0  0  0  0  0  0  0  0  0  0  0  0
   56.0700   38.3340   39.7480 O   0  0  0  0  0  0  0  0  0  0  0  0
   55.0320   39.1090   39.0720 C   0  0  0  0  0  0  0  0  0  0  0  0
   54.2120   39.9130   40.0940 C   0  0  0  0  0  0  0  0  0  0  0  0
   50.7970   39.1640   42.4560 C   0  0  0  0  0  0  0  0  0  0  0  0
   50.5180   40.3100   41.7010 C   0  0  0  0  0  0  0  0  0  0  0  0
   49.2330   40.5750   41.2360 C   0  0  0  0  0  0  0  0  0  0  0  0
   48.1930   39.6980   41.5280 C   0  0  0  0  0  0  0  0  0  0  0  0
   48.4550   38.5470   42.2700 C   0  0  0  0  0  0  0  0  0  0  0  0
   49.7400   38.2740   42.7420 C   0  0  0  0  0  0  0  0  0  0  0  0
   50.0240   37.1510   43.5020 O   0  0  0  0  0  0  0  0  0  0  0  0
   48.8700   36.3190   43.7250 C   0  0  0  0  0  0  0  0  0  0  0  0
   54.7248   46.6613   46.1097 H   0  0  0  0  0  0  0  0  0  0  0  0
   57.0204   46.1315   47.2513 H   0  0  0  0  0  0  0  0  0  0  0  0
   57.1814   41.1830   48.2484 H   0  0  0  0  0  0  0  0  0  0  0  0
   57.9723   40.3142   46.8896 H   0  0  0  0  0  0  0  0  0  0  0  0
   57.9044   42.1092   46.8896 H   0  0  0  0  0  0  0  0  0  0  0  0
   57.2535   36.2798   47.9152 H   0  0  0  0  0  0  0  0  0  0  0  0
   57.8313   35.3844   46.4691 H   0  0  0  0  0  0  0  0  0  0  0  0
   57.8227   37.1807   46.4691 H   0  0  0  0  0  0  0  0  0  0  0  0
   55.1397   35.5489   48.1774 H   0  0  0  0  0  0  0  0  0  0  0  0
   53.8879   35.5509   46.8891 H   0  0  0  0  0  0  0  0  0  0  0  0
   55.1747   34.2976   46.8891 H   0  0  0  0  0  0  0  0  0  0  0  0
   58.1058   36.3788   45.2347 H   0  0  0  0  0  0  0  0  0  0  0  0
   57.6451   36.2293   43.5177 H   0  0  0  0  0  0  0  0  0  0  0  0
   52.0116   40.3279   44.4751 H   0  0  0  0  0  0  0  0  0  0  0  0
   51.5566   38.5631   44.8628 H   0  0  0  0  0  0  0  0  0  0  0  0
   52.3384   37.8634   42.7211 H   0  0  0  0  0  0  0  0  0  0  0  0
   53.0142   38.2249   40.7594 H   0  0  0  0  0  0  0  0  0  0  0  0
   55.5697   38.9964   42.2692 H   0  0  0  0  0  0  0  0  0  0  0  0
   54.5242   37.6060   42.6646 H   0  0  0  0  0  0  0  0  0  0  0  0
   56.4142   36.8812   41.2175 H   0  0  0  0  0  0  0  0  0  0  0  0
   54.8680   36.7158   40.3296 H   0  0  0  0  0  0  0  0  0  0  0  0
   54.3637   38.4241   38.5295 H   0  0  0  0  0  0  0  0  0  0  0  0
   55.5093   39.8075   38.3689 H   0  0  0  0  0  0  0  0  0  0  0  0
   53.3567   40.3850   39.5883 H   0  0  0  0  0  0  0  0  0  0  0  0
   54.8467   40.6910   40.5433 H   0  0  0  0  0  0  0  0  0  0  0  0
   51.3305   41.0148   41.4708 H   0  0  0  0  0  0  0  0  0  0  0  0
   49.0398   41.4776   40.6378 H   0  0  0  0  0  0  0  0  0  0  0  0
   47.1727   39.9109   41.1764 H   0  0  0  0  0  0  0  0  0  0  0  0
   47.6373   37.8439   42.4866 H   0  0  0  0  0  0  0  0  0  0  0  0
   48.7064   36.2011   44.8064 H   0  0  0  0  0  0  0  0  0  0  0  0
   47.9858   36.7887   43.2695 H   0  0  0  0  0  0  0  0  0  0  0  0
   49.0363   35.3316   43.2695 H   0  0  0  0  0  0  0  0  0  0  0  0
  2  1  1  0
  2  3  2  0
 36 35  1  0
 36 37  2  0
 35 34  2  0
  1  5  1  0
 37 38  1  0
  3  4  1  0
 34 33  1  0
  5  4  2  0
  5  6  1  0
 38 33  2  0
 38 39  1  0
 33 25  1  0
  9  6  1  0
  9 10  1  0
  6  7  2  0
 39 40  1  0
 24 25  1  0
 24 23  1  0
 25 26  1  0
 26 27  1  0
 10 23  1  0
 10 11  2  0
  7 11  1  0
  7  8  1  0
 23 21  1  0
 32 27  1  0
 32 31  1  0
 11 12  1  0
 27 28  1  0
 21 22  2  0
 21 14  1  0
 31 30  1  0
 12 14  1  0
 12 13  2  0
 28 29  1  0
 14 15  1  0
 30 29  1  0
 15 16  1  0
 15 17  1  0
 15 18  1  0
 18 19  2  0
 18 20  1  0
  2 41  1  0
  3 42  1  0
  8 43  1  0
  8 44  1  0
  8 45  1  0
 16 46  1  0
 16 47  1  0
 16 48  1  0
 17 49  1  0
 17 50  1  0
 17 51  1  0
 20 52  1  0
 20 53  1  0
 24 54  1  0
 24 55  1  0
 25 56  1  0
 27 57  1  0
 28 58  1  0
 28 59  1  0
 29 60  1  0
 29 61  1  0
 31 62  1  0
 31 63  1  0
 32 64  1  0
 32 65  1  0
 34 66  1  0
 35 67  1  0
 36 68  1  0
 37 69  1  0
 40 70  1  0
 40 71  1  0
 40 72  1  0
A    1
OAX
A    2
CAL
A    3
CAK
A    4
NAT
A    5
CBC
A    6
CBE
A    7
CBA
A    8
CAB
A    9
SAY
A   10
CBH
A   11
CBI
A   12
CBF
A   13
OAG
A   14
NBM
A   15
CBN
A   16
CAD
A   17
CAC
A   18
CAZ
A   19
OAF
A   20
NAE
A   21
CBG
A   22
OAH
A   23
NBL
A   24
CAS
A   25
CBK
A   26
OAW
A   27
CBJ
A   28
CAQ
A   29
CAO
A   30
OAV
A   31
CAP
A   32
CAR
A   33
CBD
A   34
CAN
A   35
CAJ
A   36
CAI
A   37
CAM
A   38
CBB
A   39
OAU
A   40
CAA
M  END
