5KLY_6UR_A_201
     RDKit          3D

 58 62  0  0  0  0  0  0  0  0999 V2000
  -31.5690    6.7190  -23.2940 C   0  0  0  0  0  0  0  0  0  0  0  0
  -26.3500    5.1030  -32.5660 C   0  0  0  0  0  0  0  0  0  0  0  0
  -32.1270    7.9680  -23.9680 C   0  0  0  0  0  0  0  0  0  0  0  0
  -28.3540    5.2450  -31.4060 C   0  0  0  0  0  0  0  0  0  0  0  0
  -29.0970    4.9310  -32.6240 C   0  0  0  0  0  0  0  0  0  0  0  0
  -28.3010    4.7130  -33.8370 C   0  0  0  0  0  0  0  0  0  0  0  0
  -33.5740    8.2410  -23.6250 C   0  0  0  0  0  0  0  0  0  0  0  0
  -26.9580    4.8140  -33.7340 N   0  0  0  0  0  0  0  0  0  0  0  0
  -27.0020    5.3250  -31.4100 N   0  0  0  0  0  0  0  0  0  0  0  0
  -30.5020    5.2080  -30.9830 C   0  0  0  0  0  0  0  0  0  0  0  0
  -28.9610    5.7210  -29.0710 C   0  0  0  0  0  0  0  0  0  0  0  0
  -29.8330    6.8160  -28.4870 C   0  0  0  0  0  0  0  0  0  0  0  0
  -29.7430    6.5140  -26.9920 C   0  0  0  0  0  0  0  0  0  0  0  0
  -29.3410    5.0320  -26.9510 C   0  0  0  0  0  0  0  0  0  0  0  0
  -30.3300    4.1520  -26.2150 C   0  0  0  0  0  0  0  0  0  0  0  0
  -32.1150    2.8940  -24.2100 O   0  0  0  0  0  0  0  0  0  0  0  0
  -31.2540    4.0420  -23.7380 P   0  0  0  0  0  0  0  0  0  0  0  0
  -32.2310    5.4810  -23.6840 N   0  0  0  0  0  0  0  0  0  0  0  0
  -30.5110    3.8820  -22.4510 O   0  0  0  0  0  0  0  0  0  0  0  0
  -30.1260    4.3750  -24.8270 O   0  0  0  0  0  0  0  0  0  0  0  0
  -28.7710    7.3250  -26.3010 O   0  0  0  0  0  0  0  0  0  0  0  0
  -29.3840    8.1220  -28.8730 O   0  0  0  0  0  0  0  0  0  0  0  0
  -29.2960    4.5810  -28.2990 O   0  0  0  0  0  0  0  0  0  0  0  0
  -29.2750    5.4090  -30.4700 N   0  0  0  0  0  0  0  0  0  0  0  0
  -30.4070    4.9290  -32.3060 N   0  0  0  0  0  0  0  0  0  0  0  0
  -28.9110    4.4190  -35.0140 N   0  0  0  0  0  0  0  0  0  0  0  0
  -34.1280    8.6740  -22.3220 C   0  0  0  0  0  0  0  0  0  0  0  0
  -35.5820    8.8210  -22.5250 C   0  0  0  0  0  0  0  0  0  0  0  0
  -35.8210    8.5120  -23.8130 N   0  0  0  0  0  0  0  0  0  0  0  0
  -34.6750    8.1790  -24.4750 C   0  0  0  0  0  0  0  0  0  0  0  0
  -33.5440    8.9090  -21.0870 C   0  0  0  0  0  0  0  0  0  0  0  0
  -34.3760    9.3070  -20.0380 C   0  0  0  0  0  0  0  0  0  0  0  0
  -35.7560    9.4510  -20.2170 C   0  0  0  0  0  0  0  0  0  0  0  0
  -36.3680    9.2120  -21.4450 C   0  0  0  0  0  0  0  0  0  0  0  0
  -30.5029    6.6356  -23.5517 H   0  0  0  0  0  0  0  0  0  0  0  0
  -31.7394    6.8408  -22.2141 H   0  0  0  0  0  0  0  0  0  0  0  0
  -25.2516    5.1610  -32.5574 H   0  0  0  0  0  0  0  0  0  0  0  0
  -32.0449    7.8421  -25.0577 H   0  0  0  0  0  0  0  0  0  0  0  0
  -31.5401    8.8235  -23.6023 H   0  0  0  0  0  0  0  0  0  0  0  0
  -31.4419    5.2620  -30.4140 H   0  0  0  0  0  0  0  0  0  0  0  0
  -27.9042    6.0253  -29.0467 H   0  0  0  0  0  0  0  0  0  0  0  0
  -30.8736    6.8257  -28.8434 H   0  0  0  0  0  0  0  0  0  0  0  0
  -30.6914    6.7355  -26.4807 H   0  0  0  0  0  0  0  0  0  0  0  0
  -28.3806    4.9595  -26.4196 H   0  0  0  0  0  0  0  0  0  0  0  0
  -31.3588    4.4229  -26.4946 H   0  0  0  0  0  0  0  0  0  0  0  0
  -30.1807    3.0925  -26.4701 H   0  0  0  0  0  0  0  0  0  0  0  0
  -32.6258    5.6234  -24.6246 H   0  0  0  0  0  0  0  0  0  0  0  0
  -31.1326    4.0159  -21.6922 H   0  0  0  0  0  0  0  0  0  0  0  0
  -28.8920    7.2241  -25.3236 H   0  0  0  0  0  0  0  0  0  0  0  0
  -29.1990    8.6602  -28.0629 H   0  0  0  0  0  0  0  0  0  0  0  0
  -29.8389    3.9718  -35.0156 H   0  0  0  0  0  0  0  0  0  0  0  0
  -28.4458    4.6432  -35.9052 H   0  0  0  0  0  0  0  0  0  0  0  0
  -36.7553    8.5252  -24.2464 H   0  0  0  0  0  0  0  0  0  0  0  0
  -34.6275    7.8991  -25.5377 H   0  0  0  0  0  0  0  0  0  0  0  0
  -32.4611    8.7861  -20.9380 H   0  0  0  0  0  0  0  0  0  0  0  0
  -33.9369    9.5115  -19.0504 H   0  0  0  0  0  0  0  0  0  0  0  0
  -36.3757    9.7620  -19.3630 H   0  0  0  0  0  0  0  0  0  0  0  0
  -37.4556    9.3304  -21.5595 H   0  0  0  0  0  0  0  0  0  0  0  0
 26  6  1  0
  6  8  1  0
  6  5  2  0
  8  2  2  0
  5 25  1  0
  5  4  1  0
  2  9  1  0
 25 10  2  0
  9  4  2  0
  4 24  1  0
 10 24  1  0
 24 11  1  0
 11 12  1  0
 11 23  1  0
 22 12  1  0
 12 13  1  0
 23 14  1  0
 13 14  1  0
 13 21  1  0
 14 15  1  0
 15 20  1  0
 20 17  1  0
 30 29  1  0
 30  7  2  0
 16 17  2  0
  3  7  1  0
  3  1  1  0
 29 28  1  0
 17 18  1  0
 17 19  1  0
 18  1  1  0
  7 27  1  0
 28 27  2  0
 28 34  1  0
 27 31  1  0
 34 33  2  0
 31 32  2  0
 33 32  1  0
  1 35  1  0
  1 36  1  0
  2 37  1  0
  3 38  1  0
  3 39  1  0
 10 40  1  0
 11 41  1  0
 12 42  1  0
 13 43  1  0
 14 44  1  0
 15 45  1  0
 15 46  1  0
 18 47  1  0
 19 48  1  0
 21 49  1  0
 22 50  1  0
 26 51  1  0
 26 52  1  0
 29 53  1  0
 30 54  1  0
 31 55  1  0
 32 56  1  0
 33 57  1  0
 34 58  1  0
A    1
C1
A    2
C2
A    3
C3
A    4
C4
A    5
C5
A    6
C6
A    7
C7
A    8
N1
A    9
N3
A   10
C8
A   11
C1'
A   12
C2'
A   13
C3'
A   14
C4'
A   15
C5'
A   16
O3P
A   17
P
A   18
N1P
A   19
O2P
A   20
O5'
A   21
O3'
A   22
O2'
A   23
O4'
A   24
N9
A   25
N7
A   26
N6
A   27
C9
A   28
C10
A   29
N11
A   30
C12
A   31
C13
A   32
C14
A   33
C15
A   34
C16
M  END
