1BX4_ADN_A_350
     RDKit          3D

 32 34  0  0  0  0  0  0  0  0999 V2000
   41.3040   18.5340   40.3360 O   0  0  0  0  0  0  0  0  0  0  0  0
   40.2670   18.9680   39.4610 C   0  0  0  0  0  0  0  0  0  0  0  0
   40.4920   18.1240   38.2140 C   0  0  0  0  0  0  0  0  0  0  0  0
   40.4630   16.6960   38.5320 O   0  0  0  0  0  0  0  0  0  0  0  0
   39.3230   18.2730   37.2350 C   0  0  0  0  0  0  0  0  0  0  0  0
   39.7720   19.1640   36.2050 O   0  0  0  0  0  0  0  0  0  0  0  0
   39.0680   16.8620   36.6630 C   0  0  0  0  0  0  0  0  0  0  0  0
   38.9670   16.8260   35.2350 O   0  0  0  0  0  0  0  0  0  0  0  0
   40.2330   16.0660   37.2800 C   0  0  0  0  0  0  0  0  0  0  0  0
   40.0650   14.5980   37.3040 N   0  0  0  0  0  0  0  0  0  0  0  0
   39.1140   13.8710   38.0350 C   0  0  0  0  0  0  0  0  0  0  0  0
   39.1670   12.5710   37.8550 N   0  0  0  0  0  0  0  0  0  0  0  0
   40.2220   12.4080   36.9420 C   0  0  0  0  0  0  0  0  0  0  0  0
   40.8060   11.2500   36.3090 C   0  0  0  0  0  0  0  0  0  0  0  0
   40.3840   10.0000   36.5210 N   0  0  0  0  0  0  0  0  0  0  0  0
   41.8340   11.4670   35.4560 N   0  0  0  0  0  0  0  0  0  0  0  0
   42.2670   12.7170   35.2400 C   0  0  0  0  0  0  0  0  0  0  0  0
   41.8080   13.8670   35.7620 N   0  0  0  0  0  0  0  0  0  0  0  0
   40.7820   13.6410   36.6060 C   0  0  0  0  0  0  0  0  0  0  0  0
   41.0154   18.6548   41.2753 H   0  0  0  0  0  0  0  0  0  0  0  0
   39.2757   18.7731   39.8962 H   0  0  0  0  0  0  0  0  0  0  0  0
   40.2935   20.0495   39.2618 H   0  0  0  0  0  0  0  0  0  0  0  0
   41.4554   18.4597   37.8027 H   0  0  0  0  0  0  0  0  0  0  0  0
   38.4022   18.6672   37.6897 H   0  0  0  0  0  0  0  0  0  0  0  0
   40.1770   19.9677   36.6174 H   0  0  0  0  0  0  0  0  0  0  0  0
   38.0886   16.4340   36.9231 H   0  0  0  0  0  0  0  0  0  0  0  0
   38.0670   16.5052   34.9758 H   0  0  0  0  0  0  0  0  0  0  0  0
   41.1327   16.1078   36.6485 H   0  0  0  0  0  0  0  0  0  0  0  0
   38.3839   14.3501   38.7039 H   0  0  0  0  0  0  0  0  0  0  0  0
   40.2666    9.6523   37.4834 H   0  0  0  0  0  0  0  0  0  0  0  0
   40.1761    9.3842   35.7220 H   0  0  0  0  0  0  0  0  0  0  0  0
   43.1114   12.8145   34.5418 H   0  0  0  0  0  0  0  0  0  0  0  0
  1  2  1  0
  2  3  1  0
  3  4  1  0
  3  5  1  0
  4  9  1  0
  5  6  1  0
  5  7  1  0
  7  8  1  0
  7  9  1  0
  9 10  1  0
 10 11  1  0
 10 19  1  0
 11 12  2  0
 12 13  1  0
 13 14  1  0
 13 19  2  0
 14 15  1  0
 14 16  2  0
 16 17  1  0
 17 18  2  0
 18 19  1  0
  1 20  1  0
  2 21  1  0
  2 22  1  0
  3 23  1  0
  5 24  1  0
  6 25  1  0
  7 26  1  0
  8 27  1  0
  9 28  1  0
 11 29  1  0
 15 30  1  0
 15 31  1  0
 17 32  1  0
A    1
O5'
A    2
C5'
A    3
C4'
A    4
O4'
A    5
C3'
A    6
O3'
A    7
C2'
A    8
O2'
A    9
C1'
A   10
N9
A   11
C8
A   12
N7
A   13
C5
A   14
C6
A   15
N6
A   16
N1
A   17
C2
A   18
N3
A   19
C4
M  END
