5KMB_6UT_A_201
     RDKit          3D

 66 70  0  0  0  0  0  0  0  0999 V2000
  -31.2350    3.1040  -22.8170 O   0  0  0  0  0  0  0  0  0  0  0  0
  -27.4010    4.3730  -31.8440 N   0  0  0  0  0  0  0  0  0  0  0  0
  -32.8310    3.3250  -24.8820 O   0  0  0  0  0  0  0  0  0  0  0  0
  -26.8360    4.1740  -33.0590 C   0  0  0  0  0  0  0  0  0  0  0  0
  -32.7130    6.2780  -23.9140 C   0  0  0  0  0  0  0  0  0  0  0  0
  -25.4930    4.2950  -33.1820 N   0  0  0  0  0  0  0  0  0  0  0  0
  -29.5920    3.9230  -32.8270 C   0  0  0  0  0  0  0  0  0  0  0  0
  -27.5690    3.8660  -34.1610 N   0  0  0  0  0  0  0  0  0  0  0  0
  -28.7400    4.2590  -31.6850 C   0  0  0  0  0  0  0  0  0  0  0  0
  -31.5240    5.4730  -24.1380 N   0  0  0  0  0  0  0  0  0  0  0  0
  -32.2530    7.5460  -23.2350 C   0  0  0  0  0  0  0  0  0  0  0  0
  -32.7590    6.9420  -26.1870 O   0  0  0  0  0  0  0  0  0  0  0  0
  -33.3990    6.6880  -25.1820 C   0  0  0  0  0  0  0  0  0  0  0  0
  -34.7230    6.7890  -25.1350 N   0  0  0  0  0  0  0  0  0  0  0  0
  -33.3720    8.5220  -22.9540 C   0  0  0  0  0  0  0  0  0  0  0  0
  -33.9670    9.4490  -23.8080 C   0  0  0  0  0  0  0  0  0  0  0  0
  -34.9420   10.1510  -23.1590 N   0  0  0  0  0  0  0  0  0  0  0  0
  -35.0460    9.7540  -21.8640 C   0  0  0  0  0  0  0  0  0  0  0  0
  -35.8340   10.1230  -20.7840 C   0  0  0  0  0  0  0  0  0  0  0  0
  -35.6530    9.4810  -19.5610 C   0  0  0  0  0  0  0  0  0  0  0  0
  -34.6940    8.4760  -19.3790 C   0  0  0  0  0  0  0  0  0  0  0  0
  -33.8800    8.0640  -20.4300 C   0  0  0  0  0  0  0  0  0  0  0  0
  -34.0510    8.6920  -21.6570 C   0  0  0  0  0  0  0  0  0  0  0  0
  -31.5620    3.7230  -24.1620 P   0  0  0  0  0  0  0  0  0  0  0  0
  -30.2900    3.3300  -25.0700 O   0  0  0  0  0  0  0  0  0  0  0  0
  -30.4270    3.1660  -26.4750 C   0  0  0  0  0  0  0  0  0  0  0  0
  -29.4090    4.0610  -27.1540 C   0  0  0  0  0  0  0  0  0  0  0  0
  -29.3210    3.6060  -28.4990 O   0  0  0  0  0  0  0  0  0  0  0  0
  -29.8480    5.5260  -27.2080 C   0  0  0  0  0  0  0  0  0  0  0  0
  -28.9350    6.3800  -26.4920 O   0  0  0  0  0  0  0  0  0  0  0  0
  -29.9120    5.8570  -28.6920 C   0  0  0  0  0  0  0  0  0  0  0  0
  -29.4130    7.1600  -29.0320 O   0  0  0  0  0  0  0  0  0  0  0  0
  -29.0920    4.7360  -29.3160 C   0  0  0  0  0  0  0  0  0  0  0  0
  -29.5630    4.4030  -30.6620 N   0  0  0  0  0  0  0  0  0  0  0  0
  -30.8300    4.1620  -31.0490 C   0  0  0  0  0  0  0  0  0  0  0  0
  -30.8630    3.8720  -32.3760 N   0  0  0  0  0  0  0  0  0  0  0  0
  -28.9160    3.7240  -34.1150 C   0  0  0  0  0  0  0  0  0  0  0  0
  -29.6510    3.4160  -35.2140 O   0  0  0  0  0  0  0  0  0  0  0  0
  -35.4660    7.4020  -26.2220 C   0  0  0  0  0  0  0  0  0  0  0  0
  -31.5506    3.7014  -22.0933 H   0  0  0  0  0  0  0  0  0  0  0  0
  -33.4242    5.6799  -23.3253 H   0  0  0  0  0  0  0  0  0  0  0  0
  -24.9015    4.3483  -32.3405 H   0  0  0  0  0  0  0  0  0  0  0  0
  -25.0629    4.3338  -34.1171 H   0  0  0  0  0  0  0  0  0  0  0  0
  -27.0849    3.7362  -35.0609 H   0  0  0  0  0  0  0  0  0  0  0  0
  -30.8582    5.7343  -23.3968 H   0  0  0  0  0  0  0  0  0  0  0  0
  -31.7785    7.2766  -22.2799 H   0  0  0  0  0  0  0  0  0  0  0  0
  -31.5547    8.0452  -23.9229 H   0  0  0  0  0  0  0  0  0  0  0  0
  -35.2303    6.4270  -24.3150 H   0  0  0  0  0  0  0  0  0  0  0  0
  -33.6888    9.5953  -24.8621 H   0  0  0  0  0  0  0  0  0  0  0  0
  -35.5212   10.8837  -23.5933 H   0  0  0  0  0  0  0  0  0  0  0  0
  -36.5923   10.9126  -20.8918 H   0  0  0  0  0  0  0  0  0  0  0  0
  -36.2846    9.7731  -18.7091 H   0  0  0  0  0  0  0  0  0  0  0  0
  -34.5828    8.0056  -18.3909 H   0  0  0  0  0  0  0  0  0  0  0  0
  -33.1297    7.2711  -20.2941 H   0  0  0  0  0  0  0  0  0  0  0  0
  -31.4423    3.4524  -26.7868 H   0  0  0  0  0  0  0  0  0  0  0  0
  -30.2584    2.1156  -26.7548 H   0  0  0  0  0  0  0  0  0  0  0  0
  -28.4644    4.0113  -26.5925 H   0  0  0  0  0  0  0  0  0  0  0  0
  -30.8195    5.6886  -26.7183 H   0  0  0  0  0  0  0  0  0  0  0  0
  -29.0646    6.2587  -25.5180 H   0  0  0  0  0  0  0  0  0  0  0  0
  -30.9478    5.9088  -29.0587 H   0  0  0  0  0  0  0  0  0  0  0  0
  -29.2193    7.6658  -28.2033 H   0  0  0  0  0  0  0  0  0  0  0  0
  -28.0362    5.0364  -29.3871 H   0  0  0  0  0  0  0  0  0  0  0  0
  -31.7088    4.1950  -30.3882 H   0  0  0  0  0  0  0  0  0  0  0  0
  -36.2523    8.0507  -25.8086 H   0  0  0  0  0  0  0  0  0  0  0  0
  -34.7826    8.0026  -26.8403 H   0  0  0  0  0  0  0  0  0  0  0  0
  -35.9258    6.6170  -26.8403 H   0  0  0  0  0  0  0  0  0  0  0  0
 38 37  2  0
  8 37  1  0
  8  4  1  0
 37  7  1  0
  6  4  1  0
  4  2  2  0
  7 36  1  0
  7  9  2  0
 36 35  2  0
  2  9  1  0
  9 34  1  0
 35 34  1  0
 34 33  1  0
 33 31  1  0
 33 28  1  0
 32 31  1  0
 31 29  1  0
 28 27  1  0
 29 27  1  0
 29 30  1  0
 27 26  1  0
 26 25  1  0
 39 14  1  0
 12 13  2  0
 13 14  1  0
 13  5  1  0
 25 24  1  0
  3 24  2  0
 24 10  1  0
 24  1  1  0
 10  5  1  0
  5 11  1  0
 16 17  1  0
 16 15  2  0
 11 15  1  0
 17 18  1  0
 15 23  1  0
 18 23  2  0
 18 19  1  0
 23 22  1  0
 19 20  2  0
 22 21  2  0
 20 21  1  0
  1 40  1  0
  5 41  1  0
  6 42  1  0
  6 43  1  0
  8 44  1  0
 10 45  1  0
 11 46  1  0
 11 47  1  0
 14 48  1  0
 16 49  1  0
 17 50  1  0
 19 51  1  0
 20 52  1  0
 21 53  1  0
 22 54  1  0
 26 55  1  0
 26 56  1  0
 27 57  1  0
 29 58  1  0
 30 59  1  0
 31 60  1  0
 32 61  1  0
 33 62  1  0
 35 63  1  0
 39 64  1  0
 39 65  1  0
 39 66  1  0
A    1
O3
A    2
N3
A    3
O2
A    4
C2
A    5
C1
A    6
N2
A    7
C5
A    8
N1
A    9
C4
A   10
N4
A   11
C3
A   12
O19
A   13
C17
A   14
N18
A   15
C7
A   16
C12
A   17
N11
A   18
C10
A   19
C16
A   20
C15
A   21
C14
A   22
C13
A   23
C9
A   24
P1
A   25
O5'
A   26
C5'
A   27
C4'
A   28
O4'
A   29
C3'
A   30
O3'
A   31
C2'
A   32
O2'
A   33
C1'
A   34
N9
A   35
C8
A   36
N7
A   37
C6
A   38
O6
A   39
C11
M  END
