5KMI_6UE_A_901
     RDKit          3D

 50 54  0  0  0  0  0  0  0  0999 V2000
  -15.1270   -0.9660  -25.0480 C   0  0  0  0  0  0  0  0  0  0  0  0
  -16.2970   -1.6260  -24.5450 C   0  0  0  0  0  0  0  0  0  0  0  0
  -18.7850   -1.3160  -23.8770 C   0  0  0  0  0  0  0  0  0  0  0  0
  -21.2420   -1.4020  -23.8940 C   0  0  0  0  0  0  0  0  0  0  0  0
  -19.9760   -2.5300  -22.0860 C   0  0  0  0  0  0  0  0  0  0  0  0
  -18.7670   -2.1000  -22.6650 C   0  0  0  0  0  0  0  0  0  0  0  0
  -17.0240   -3.9850  -24.7090 C   0  0  0  0  0  0  0  0  0  0  0  0
  -17.8230   -6.2740  -24.4230 C   0  0  0  0  0  0  0  0  0  0  0  0
  -17.2420   -7.3800  -25.2790 C   0  0  0  0  0  0  0  0  0  0  0  0
  -16.1750   -8.4700  -27.1660 C   0  0  0  0  0  0  0  0  0  0  0  0
  -17.6320   -8.6530  -24.7380 C   0  0  0  0  0  0  0  0  0  0  0  0
  -18.4220   -6.9950  -23.2440 C   0  0  0  0  0  0  0  0  0  0  0  0
  -19.0030   -6.4510  -22.1090 C   0  0  0  0  0  0  0  0  0  0  0  0
  -19.6350   -7.3490  -21.2020 C   0  0  0  0  0  0  0  0  0  0  0  0
  -17.7540   -3.8170  -25.7150 O   0  0  0  0  0  0  0  0  0  0  0  0
  -16.2820   -2.9590  -24.1140 N   0  0  0  0  0  0  0  0  0  0  0  0
  -15.1360    0.3270  -25.4670 N   0  0  0  0  0  0  0  0  0  0  0  0
  -17.5160   -0.8400  -24.4890 C   0  0  0  0  0  0  0  0  0  0  0  0
  -21.2100   -2.1810  -22.7000 C   0  0  0  0  0  0  0  0  0  0  0  0
  -20.0400   -0.9710  -24.4850 C   0  0  0  0  0  0  0  0  0  0  0  0
  -17.5470    0.4680  -24.9360 N   0  0  0  0  0  0  0  0  0  0  0  0
  -16.3550    0.9950  -25.4090 C   0  0  0  0  0  0  0  0  0  0  0  0
  -16.4060    2.4040  -25.9360 C   0  0  0  0  0  0  0  0  0  0  0  0
  -16.8720   -5.2330  -24.0890 N   0  0  0  0  0  0  0  0  0  0  0  0
  -19.6490   -8.7530  -21.4580 C   0  0  0  0  0  0  0  0  0  0  0  0
  -19.0200   -9.2950  -22.6050 C   0  0  0  0  0  0  0  0  0  0  0  0
  -18.4010   -8.4170  -23.4980 C   0  0  0  0  0  0  0  0  0  0  0  0
  -17.2940   -9.8370  -25.4180 C   0  0  0  0  0  0  0  0  0  0  0  0
  -16.5630   -9.7300  -26.6460 C   0  0  0  0  0  0  0  0  0  0  0  0
  -16.5110   -7.2680  -26.4730 C   0  0  0  0  0  0  0  0  0  0  0  0
  -14.1836   -1.5295  -25.0967 H   0  0  0  0  0  0  0  0  0  0  0  0
  -22.2062   -1.1381  -24.3529 H   0  0  0  0  0  0  0  0  0  0  0  0
  -19.9661   -3.1317  -21.1652 H   0  0  0  0  0  0  0  0  0  0  0  0
  -17.8081   -2.3615  -22.1937 H   0  0  0  0  0  0  0  0  0  0  0  0
  -18.5875   -5.6900  -24.9563 H   0  0  0  0  0  0  0  0  0  0  0  0
  -15.6115   -8.4179  -28.1093 H   0  0  0  0  0  0  0  0  0  0  0  0
  -18.9769   -5.3683  -21.9164 H   0  0  0  0  0  0  0  0  0  0  0  0
  -20.1174   -6.9564  -20.2947 H   0  0  0  0  0  0  0  0  0  0  0  0
  -15.6871   -3.1988  -23.3081 H   0  0  0  0  0  0  0  0  0  0  0  0
  -22.1544   -2.5170  -22.2471 H   0  0  0  0  0  0  0  0  0  0  0  0
  -20.0612   -0.3729  -25.4079 H   0  0  0  0  0  0  0  0  0  0  0  0
  -16.4316    3.1101  -25.0929 H   0  0  0  0  0  0  0  0  0  0  0  0
  -15.5143    2.5983  -26.5501 H   0  0  0  0  0  0  0  0  0  0  0  0
  -17.3094    2.5333  -26.5501 H   0  0  0  0  0  0  0  0  0  0  0  0
  -16.1095   -5.4044  -23.4181 H   0  0  0  0  0  0  0  0  0  0  0  0
  -20.1574   -9.4259  -20.7518 H   0  0  0  0  0  0  0  0  0  0  0  0
  -19.0188  -10.3796  -22.7882 H   0  0  0  0  0  0  0  0  0  0  0  0
  -17.5833  -10.8198  -25.0175 H   0  0  0  0  0  0  0  0  0  0  0  0
  -16.2976  -10.6447  -27.1963 H   0  0  0  0  0  0  0  0  0  0  0  0
  -16.2069   -6.2850  -26.8619 H   0  0  0  0  0  0  0  0  0  0  0  0
 10 29  2  0
 10 30  1  0
 29 28  1  0
 30  9  2  0
 23 22  1  0
 15  7  2  0
 17 22  1  0
 17  1  2  0
 28 11  2  0
 22 21  2  0
  9 11  1  0
  9  8  1  0
  1  2  1  0
 21 18  1  0
 11 27  1  0
  7 16  1  0
  7 24  1  0
  2 18  2  0
  2 16  1  0
 18  3  1  0
 20  4  2  0
 20  3  1  0
  8 24  1  0
  8 12  1  0
  4 19  1  0
  3  6  2  0
 27 12  2  0
 27 26  1  0
 12 13  1  0
 19  5  2  0
  6  5  1  0
 26 25  2  0
 13 14  2  0
 25 14  1  0
  1 31  1  0
  4 32  1  0
  5 33  1  0
  6 34  1  0
  8 35  1  0
 10 36  1  0
 13 37  1  0
 14 38  1  0
 16 39  1  0
 19 40  1  0
 20 41  1  0
 23 42  1  0
 23 43  1  0
 23 44  1  0
 24 45  1  0
 25 46  1  0
 26 47  1  0
 28 48  1  0
 29 49  1  0
 30 50  1  0
A    1
C2
A    2
C3
A    3
C5
A    4
C7
A    5
C9
A    6
C10
A    7
C11
A    8
C12
A    9
C13
A   10
C15
A   11
C18
A   12
C20
A   13
C21
A   14
C22
A   15
O
A   16
N2
A   17
N
A   18
C4
A   19
C8
A   20
C6
A   21
N1
A   22
C1
A   23
C
A   24
N3
A   25
C23
A   26
C24
A   27
C19
A   28
C17
A   29
C16
A   30
C14
M  END
