5KMM_6UJ_A_901
     RDKit          3D

 45 48  0  0  0  0  0  0  0  0999 V2000
  -15.3500   -1.1850  -24.6700 C   0  0  0  0  0  0  0  0  0  0  0  0
  -16.5100   -1.8530  -24.2710 C   0  0  0  0  0  0  0  0  0  0  0  0
  -17.2180   -6.8140  -24.5660 C   0  0  0  0  0  0  0  0  0  0  0  0
  -17.4100   -8.9570  -25.6410 C   0  0  0  0  0  0  0  0  0  0  0  0
  -18.8520   -8.4730  -23.7590 C   0  0  0  0  0  0  0  0  0  0  0  0
  -19.8000   -8.8890  -22.7860 C   0  0  0  0  0  0  0  0  0  0  0  0
  -20.1600   -8.0600  -21.7580 C   0  0  0  0  0  0  0  0  0  0  0  0
  -19.6110   -6.7900  -21.6510 C   0  0  0  0  0  0  0  0  0  0  0  0
  -18.6890   -6.3460  -22.5640 C   0  0  0  0  0  0  0  0  0  0  0  0
  -17.7440   -1.0990  -24.2120 C   0  0  0  0  0  0  0  0  0  0  0  0
  -21.4790   -1.6270  -23.8750 C   0  0  0  0  0  0  0  0  0  0  0  0
  -20.3830   -2.8490  -22.1350 C   0  0  0  0  0  0  0  0  0  0  0  0
  -19.1480   -2.4160  -22.6030 C   0  0  0  0  0  0  0  0  0  0  0  0
  -18.0270   -3.8330  -25.6010 O   0  0  0  0  0  0  0  0  0  0  0  0
  -17.1570   -4.1690  -24.8070 C   0  0  0  0  0  0  0  0  0  0  0  0
  -16.7720   -5.4750  -24.6740 N   0  0  0  0  0  0  0  0  0  0  0  0
  -18.2680   -7.1720  -23.6450 C   0  0  0  0  0  0  0  0  0  0  0  0
  -18.4070   -9.3380  -24.7870 C   0  0  0  0  0  0  0  0  0  0  0  0
  -16.8060   -7.7120  -25.5290 C   0  0  0  0  0  0  0  0  0  0  0  0
  -16.4460   -3.2640  -24.0610 N   0  0  0  0  0  0  0  0  0  0  0  0
  -15.3750    0.1060  -25.0310 N   0  0  0  0  0  0  0  0  0  0  0  0
  -17.7190    0.1880  -24.5910 N   0  0  0  0  0  0  0  0  0  0  0  0
  -16.5620    0.7290  -24.9870 C   0  0  0  0  0  0  0  0  0  0  0  0
  -16.6030    2.1570  -25.4300 C   0  0  0  0  0  0  0  0  0  0  0  0
  -19.0620   -1.5750  -23.7150 C   0  0  0  0  0  0  0  0  0  0  0  0
  -21.5470   -2.4550  -22.7710 C   0  0  0  0  0  0  0  0  0  0  0  0
  -20.2460   -1.1840  -24.3440 C   0  0  0  0  0  0  0  0  0  0  0  0
  -14.3948   -1.7302  -24.6885 H   0  0  0  0  0  0  0  0  0  0  0  0
  -17.0807   -9.6486  -26.4304 H   0  0  0  0  0  0  0  0  0  0  0  0
  -20.2503   -9.8899  -22.8597 H   0  0  0  0  0  0  0  0  0  0  0  0
  -20.8904   -8.4033  -21.0106 H   0  0  0  0  0  0  0  0  0  0  0  0
  -19.9187   -6.1322  -20.8248 H   0  0  0  0  0  0  0  0  0  0  0  0
  -18.2677   -5.3352  -22.4596 H   0  0  0  0  0  0  0  0  0  0  0  0
  -22.4029   -1.3168  -24.3851 H   0  0  0  0  0  0  0  0  0  0  0  0
  -20.4353   -3.5076  -21.2555 H   0  0  0  0  0  0  0  0  0  0  0  0
  -18.2287   -2.7389  -22.0924 H   0  0  0  0  0  0  0  0  0  0  0  0
  -15.7427   -5.4899  -24.6379 H   0  0  0  0  0  0  0  0  0  0  0  0
  -18.8694  -10.3297  -24.9002 H   0  0  0  0  0  0  0  0  0  0  0  0
  -15.9907   -7.4387  -26.2150 H   0  0  0  0  0  0  0  0  0  0  0  0
  -15.8353   -3.6199  -23.3118 H   0  0  0  0  0  0  0  0  0  0  0  0
  -16.6219    2.8141  -24.5480 H   0  0  0  0  0  0  0  0  0  0  0  0
  -15.7109    2.3793  -26.0339 H   0  0  0  0  0  0  0  0  0  0  0  0
  -17.5064    2.3278  -26.0339 H   0  0  0  0  0  0  0  0  0  0  0  0
  -22.5231   -2.7998  -22.3990 H   0  0  0  0  0  0  0  0  0  0  0  0
  -20.2035   -0.5190  -25.2192 H   0  0  0  0  0  0  0  0  0  0  0  0
  4 19  2  0
  4 18  1  0
 14 15  2  0
 19  3  1  0
 24 23  1  0
 21 23  1  0
 21  1  2  0
 23 22  2  0
 15 16  1  0
 15 20  1  0
 18  5  2  0
 16  3  1  0
  1  2  1  0
 22 10  1  0
  3 17  2  0
 27 11  2  0
 27 25  1  0
  2 10  2  0
  2 20  1  0
 10 25  1  0
 11 26  1  0
  5 17  1  0
  5  6  1  0
 25 13  2  0
 17  9  1  0
  6  7  2  0
 26 12  2  0
 13 12  1  0
  9  8  2  0
  7  8  1  0
  1 28  1  0
  4 29  1  0
  6 30  1  0
  7 31  1  0
  8 32  1  0
  9 33  1  0
 11 34  1  0
 12 35  1  0
 13 36  1  0
 16 37  1  0
 18 38  1  0
 19 39  1  0
 20 40  1  0
 24 41  1  0
 24 42  1  0
 24 43  1  0
 26 44  1  0
 27 45  1  0
A    1
C2
A    2
C3
A    3
C5
A    4
C7
A    5
C9
A    6
C10
A    7
C11
A    8
C12
A    9
C13
A   10
C15
A   11
C18
A   12
C20
A   13
C21
A   14
O
A   15
C4
A   16
N2
A   17
C14
A   18
C8
A   19
C6
A   20
N1
A   21
N
A   22
N3
A   23
C1
A   24
C
A   25
C16
A   26
C19
A   27
C17
M  END
