5KMN_6UK_A_901
     RDKit          3D

 45 47  0  0  0  0  0  0  0  0999 V2000
  -14.2640   -0.9220  -24.7400 C   0  0  0  0  0  0  0  0  0  0  0  0
  -15.4380    1.0100  -25.0210 C   0  0  0  0  0  0  0  0  0  0  0  0
  -15.9140   -3.9590  -24.3900 C   0  0  0  0  0  0  0  0  0  0  0  0
  -17.4150   -6.8650  -23.1370 C   0  0  0  0  0  0  0  0  0  0  0  0
  -18.9270   -6.4330  -21.2960 C   0  0  0  0  0  0  0  0  0  0  0  0
  -19.3070   -7.7600  -21.2870 C   0  0  0  0  0  0  0  0  0  0  0  0
  -18.7570   -8.6490  -22.2000 C   0  0  0  0  0  0  0  0  0  0  0  0
  -17.8150   -8.2160  -23.1320 C   0  0  0  0  0  0  0  0  0  0  0  0
  -17.2940   -9.2530  -24.1030 C   0  0  0  0  0  0  0  0  0  0  0  0
  -19.1240   -1.0270  -24.4170 C   0  0  0  0  0  0  0  0  0  0  0  0
  -19.2870   -2.4030  -22.0140 C   0  0  0  0  0  0  0  0  0  0  0  0
  -16.0360   -9.5800  -23.8840 F   0  0  0  0  0  0  0  0  0  0  0  0
  -17.4330   -8.8880  -25.3630 F   0  0  0  0  0  0  0  0  0  0  0  0
  -17.9050  -10.4130  -24.0110 F   0  0  0  0  0  0  0  0  0  0  0  0
  -17.9870   -5.9880  -22.2150 C   0  0  0  0  0  0  0  0  0  0  0  0
  -16.3690   -6.3660  -24.1240 C   0  0  0  0  0  0  0  0  0  0  0  0
  -15.7230   -5.1210  -23.7270 N   0  0  0  0  0  0  0  0  0  0  0  0
  -16.5260   -3.8860  -25.4530 O   0  0  0  0  0  0  0  0  0  0  0  0
  -15.3810   -2.8690  -23.7660 N   0  0  0  0  0  0  0  0  0  0  0  0
  -15.4210   -1.5430  -24.2560 C   0  0  0  0  0  0  0  0  0  0  0  0
  -16.6340   -0.8010  -24.1980 C   0  0  0  0  0  0  0  0  0  0  0  0
  -16.5900    0.4800  -24.5930 N   0  0  0  0  0  0  0  0  0  0  0  0
  -15.4630    2.4470  -25.4290 C   0  0  0  0  0  0  0  0  0  0  0  0
  -14.2670    0.3630  -25.1210 N   0  0  0  0  0  0  0  0  0  0  0  0
  -17.9530   -1.2760  -23.6990 C   0  0  0  0  0  0  0  0  0  0  0  0
  -18.0530   -1.9750  -22.4920 C   0  0  0  0  0  0  0  0  0  0  0  0
  -20.4390   -2.1470  -22.7370 C   0  0  0  0  0  0  0  0  0  0  0  0
  -20.3580   -1.4610  -23.9380 C   0  0  0  0  0  0  0  0  0  0  0  0
  -13.3315   -1.5013  -24.8093 H   0  0  0  0  0  0  0  0  0  0  0  0
  -19.3688   -5.7289  -20.5755 H   0  0  0  0  0  0  0  0  0  0  0  0
  -20.0475   -8.1137  -20.5545 H   0  0  0  0  0  0  0  0  0  0  0  0
  -19.0671   -9.7043  -22.1881 H   0  0  0  0  0  0  0  0  0  0  0  0
  -19.0717   -0.4823  -25.3712 H   0  0  0  0  0  0  0  0  0  0  0  0
  -19.3475   -2.9461  -21.0593 H   0  0  0  0  0  0  0  0  0  0  0  0
  -17.6888   -4.9292  -22.2164 H   0  0  0  0  0  0  0  0  0  0  0  0
  -16.8592   -6.2064  -25.0957 H   0  0  0  0  0  0  0  0  0  0  0  0
  -15.5814   -7.1328  -24.1666 H   0  0  0  0  0  0  0  0  0  0  0  0
  -15.0966   -5.1272  -22.9094 H   0  0  0  0  0  0  0  0  0  0  0  0
  -14.9104   -3.0248  -22.8631 H   0  0  0  0  0  0  0  0  0  0  0  0
  -15.4741    3.0828  -24.5315 H   0  0  0  0  0  0  0  0  0  0  0  0
  -14.5687    2.6737  -26.0280 H   0  0  0  0  0  0  0  0  0  0  0  0
  -16.3647    2.6425  -26.0280 H   0  0  0  0  0  0  0  0  0  0  0  0
  -17.1429   -2.1894  -21.9125 H   0  0  0  0  0  0  0  0  0  0  0  0
  -21.4148   -2.4867  -22.3597 H   0  0  0  0  0  0  0  0  0  0  0  0
  -21.2719   -1.2582  -24.5157 H   0  0  0  0  0  0  0  0  0  0  0  0
 18  3  2  0
 23  2  1  0
 13  9  1  0
 24  2  1  0
 24  1  2  0
  2 22  2  0
  1 20  1  0
 22 21  1  0
 10 28  2  0
 10 25  1  0
  3 19  1  0
  3 17  1  0
 20 21  2  0
 20 19  1  0
 21 25  1  0
 16 17  1  0
 16  4  1  0
  9 14  1  0
  9 12  1  0
  9  8  1  0
 28 27  1  0
 25 26  2  0
  4  8  2  0
  4 15  1  0
  8  7  1  0
 27 11  2  0
 26 11  1  0
 15  5  2  0
  7  6  2  0
  5  6  1  0
  1 29  1  0
  5 30  1  0
  6 31  1  0
  7 32  1  0
 10 33  1  0
 11 34  1  0
 15 35  1  0
 16 36  1  0
 16 37  1  0
 17 38  1  0
 19 39  1  0
 23 40  1  0
 23 41  1  0
 23 42  1  0
 26 43  1  0
 27 44  1  0
 28 45  1  0
A    1
C2
A    2
C3
A    3
C5
A    4
C7
A    5
C9
A    6
C10
A    7
C11
A    8
C12
A    9
C13
A   10
C15
A   11
C18
A   12
F2
A   13
F
A   14
F1
A   15
C8
A   16
C6
A   17
N3
A   18
O
A   19
N2
A   20
C1
A   21
C
A   22
N1
A   23
C4
A   24
N
A   25
C14
A   26
C19
A   27
C17
A   28
C16
M  END
