5KMO_6UM_A_901
     RDKit          3D

 38 40  0  0  0  0  0  0  0  0999 V2000
  -16.7200   -3.9670   -9.7090 C   0  0  0  0  0  0  0  0  0  0  0  0
  -15.0950   -2.4930   -9.0740 C   0  0  0  0  0  0  0  0  0  0  0  0
  -18.1220   -3.2830  -14.6650 N   0  0  0  0  0  0  0  0  0  0  0  0
  -18.4750   -4.7960  -12.0920 C   0  0  0  0  0  0  0  0  0  0  0  0
  -18.0400   -2.6810  -15.8620 C   0  0  0  0  0  0  0  0  0  0  0  0
  -19.6420   -4.1250  -16.8300 C   0  0  0  0  0  0  0  0  0  0  0  0
  -19.7670   -4.7660  -15.6070 C   0  0  0  0  0  0  0  0  0  0  0  0
  -15.4650   -1.8900  -12.6310 C   0  0  0  0  0  0  0  0  0  0  0  0
  -14.7620   -2.5720  -13.6260 C   0  0  0  0  0  0  0  0  0  0  0  0
  -14.5660   -1.9970  -14.8710 C   0  0  0  0  0  0  0  0  0  0  0  0
  -15.7660   -0.0480  -14.1670 C   0  0  0  0  0  0  0  0  0  0  0  0
  -18.7870   -5.4250  -11.1000 O   0  0  0  0  0  0  0  0  0  0  0  0
  -19.1080   -4.9570  -13.3030 N   0  0  0  0  0  0  0  0  0  0  0  0
  -18.9790   -4.3140  -14.5440 C   0  0  0  0  0  0  0  0  0  0  0  0
  -18.7770   -3.0660  -16.9670 C   0  0  0  0  0  0  0  0  0  0  0  0
  -17.4720   -3.8690  -12.0960 N   0  0  0  0  0  0  0  0  0  0  0  0
  -16.6290   -3.4880  -11.0210 C   0  0  0  0  0  0  0  0  0  0  0  0
  -15.6800   -2.5030  -11.2960 C   0  0  0  0  0  0  0  0  0  0  0  0
  -14.9140   -2.0170  -10.3120 N   0  0  0  0  0  0  0  0  0  0  0  0
  -14.3460   -1.8120   -7.9710 C   0  0  0  0  0  0  0  0  0  0  0  0
  -15.9480   -3.4700   -8.7260 N   0  0  0  0  0  0  0  0  0  0  0  0
  -15.9700   -0.6210  -12.9200 C   0  0  0  0  0  0  0  0  0  0  0  0
  -15.0630   -0.7330  -15.1410 C   0  0  0  0  0  0  0  0  0  0  0  0
  -17.4383   -4.7671   -9.4768 H   0  0  0  0  0  0  0  0  0  0  0  0
  -17.3473   -1.8334  -15.9701 H   0  0  0  0  0  0  0  0  0  0  0  0
  -20.2358   -4.4644  -17.6915 H   0  0  0  0  0  0  0  0  0  0  0  0
  -20.4656   -5.6056  -15.4767 H   0  0  0  0  0  0  0  0  0  0  0  0
  -14.3602   -3.5749  -13.4195 H   0  0  0  0  0  0  0  0  0  0  0  0
  -14.0137   -2.5463  -15.6477 H   0  0  0  0  0  0  0  0  0  0  0  0
  -16.1648    0.9545  -14.3816 H   0  0  0  0  0  0  0  0  0  0  0  0
  -19.8212   -5.7001  -13.2978 H   0  0  0  0  0  0  0  0  0  0  0  0
  -18.6739   -2.5399  -17.9275 H   0  0  0  0  0  0  0  0  0  0  0  0
  -17.3073   -3.3866  -12.9910 H   0  0  0  0  0  0  0  0  0  0  0  0
  -14.7279   -2.1592   -6.9996 H   0  0  0  0  0  0  0  0  0  0  0  0
  -13.2757   -2.0527   -8.0515 H   0  0  0  0  0  0  0  0  0  0  0  0
  -14.4841   -0.7237   -8.0515 H   0  0  0  0  0  0  0  0  0  0  0  0
  -16.5343   -0.0708  -12.1527 H   0  0  0  0  0  0  0  0  0  0  0  0
  -14.8990   -0.2751  -16.1276 H   0  0  0  0  0  0  0  0  0  0  0  0
 15  6  2  0
 15  5  1  0
  6  7  1  0
  5  3  2  0
  7 14  2  0
 23 10  1  0
 23 11  2  0
 10  9  2  0
  3 14  1  0
 14 13  1  0
 11 22  1  0
  9  8  1  0
 13  4  1  0
 22  8  2  0
  8 18  1  0
 16  4  1  0
 16 17  1  0
  4 12  2  0
 18 17  1  0
 18 19  2  0
 17  1  2  0
 19  2  1  0
  1 21  1  0
  2 21  2  0
  2 20  1  0
  1 24  1  0
  5 25  1  0
  6 26  1  0
  7 27  1  0
  9 28  1  0
 10 29  1  0
 11 30  1  0
 13 31  1  0
 15 32  1  0
 16 33  1  0
 20 34  1  0
 20 35  1  0
 20 36  1  0
 22 37  1  0
 23 38  1  0
A    1
C2
A    2
C3
A    3
N4
A    4
C5
A    5
C7
A    6
C9
A    7
C10
A    8
C11
A    9
C12
A   10
C13
A   11
C15
A   12
O
A   13
N3
A   14
C6
A   15
C8
A   16
N2
A   17
C1
A   18
C
A   19
N1
A   20
C4
A   21
N
A   22
C16
A   23
C14
M  END
