5KNU_6WA_A_201
     RDKit          3D

 48 49  0  0  0  0  0  0  0  0999 V2000
   -3.0800   29.4000  -42.9330 O   0  0  0  0  0  0  0  0  0  0  0  0
   -3.9690   30.6210  -43.0240 P   0  0  0  0  0  0  0  0  0  0  0  0
   -4.1910   30.9900  -44.4750 O   0  0  0  0  0  0  0  0  0  0  0  0
   -3.2900   31.7740  -42.3170 O   0  0  0  0  0  0  0  0  0  0  0  0
   -5.5790   30.2680  -42.2270 C   0  0  0  0  0  0  0  0  0  0  0  0
   -6.2330   28.9830  -42.7660 C   0  0  0  0  0  0  0  0  0  0  0  0
   -7.4090   28.5200  -41.8730 C   0  0  0  0  0  0  0  0  0  0  0  0
   -8.0320   27.2930  -42.3750 N   0  0  0  0  0  0  0  0  0  0  0  0
   -8.4840   27.5580  -43.7480 C   0  0  0  0  0  0  0  0  0  0  0  0
   -9.9250   27.0310  -43.9360 C   0  0  0  0  0  0  0  0  0  0  0  0
  -10.7730   27.9790  -44.8000 C   0  0  0  0  0  0  0  0  0  0  0  0
  -12.2850   27.1470  -45.4070 P   0  0  0  0  0  0  0  0  0  0  0  0
  -11.9300   26.2800  -46.5960 O   0  0  0  0  0  0  0  0  0  0  0  0
  -12.8650   26.2830  -44.3060 O   0  0  0  0  0  0  0  0  0  0  0  0
  -13.2970   28.1950  -45.8150 O   0  0  0  0  0  0  0  0  0  0  0  0
   -7.0930   26.1750  -42.4360 C   0  0  0  0  0  0  0  0  0  0  0  0
   -6.5210   25.8900  -41.0310 C   0  0  0  0  0  0  0  0  0  0  0  0
   -7.2070   25.2740  -39.9320 C   0  0  0  0  0  0  0  0  0  0  0  0
   -8.4620   24.7750  -39.7420 N   0  0  0  0  0  0  0  0  0  0  0  0
   -8.8100   24.2530  -38.5720 C   0  0  0  0  0  0  0  0  0  0  0  0
   -7.9700   24.1920  -37.5420 N   0  0  0  0  0  0  0  0  0  0  0  0
   -6.7120   24.6660  -37.6500 C   0  0  0  0  0  0  0  0  0  0  0  0
   -5.8210   24.5980  -36.5550 O   0  0  0  0  0  0  0  0  0  0  0  0
   -6.2760   25.2390  -38.8830 C   0  0  0  0  0  0  0  0  0  0  0  0
   -5.1200   25.7800  -39.2950 N   0  0  0  0  0  0  0  0  0  0  0  0
   -5.2250   26.1780  -40.5630 C   0  0  0  0  0  0  0  0  0  0  0  0
   -2.9192   29.1791  -41.9815 H   0  0  0  0  0  0  0  0  0  0  0  0
   -3.3632   31.6497  -41.3376 H   0  0  0  0  0  0  0  0  0  0  0  0
   -5.4199   30.1557  -41.1444 H   0  0  0  0  0  0  0  0  0  0  0  0
   -6.2545   31.1068  -42.4510 H   0  0  0  0  0  0  0  0  0  0  0  0
   -6.6105   29.1742  -43.7814 H   0  0  0  0  0  0  0  0  0  0  0  0
   -5.4729   28.1879  -42.7707 H   0  0  0  0  0  0  0  0  0  0  0  0
   -7.0313   28.3358  -40.8564 H   0  0  0  0  0  0  0  0  0  0  0  0
   -8.1709   29.3134  -41.8779 H   0  0  0  0  0  0  0  0  0  0  0  0
   -7.8140   27.0502  -44.4574 H   0  0  0  0  0  0  0  0  0  0  0  0
   -8.4668   28.6422  -43.9330 H   0  0  0  0  0  0  0  0  0  0  0  0
  -10.3987   26.9303  -42.9483 H   0  0  0  0  0  0  0  0  0  0  0  0
   -9.8690   26.0597  -44.4493 H   0  0  0  0  0  0  0  0  0  0  0  0
  -10.1751   28.3101  -45.6619 H   0  0  0  0  0  0  0  0  0  0  0  0
  -11.0726   28.8385  -44.1824 H   0  0  0  0  0  0  0  0  0  0  0  0
  -12.6133   26.6580  -43.4250 H   0  0  0  0  0  0  0  0  0  0  0  0
  -13.6926   28.6047  -45.0052 H   0  0  0  0  0  0  0  0  0  0  0  0
   -7.6153   25.2801  -42.8053 H   0  0  0  0  0  0  0  0  0  0  0  0
   -6.2682   26.4325  -43.1167 H   0  0  0  0  0  0  0  0  0  0  0  0
   -9.8289   23.8569  -38.4498 H   0  0  0  0  0  0  0  0  0  0  0  0
   -8.2839   23.7783  -36.6525 H   0  0  0  0  0  0  0  0  0  0  0  0
   -4.2736   25.8743  -38.7156 H   0  0  0  0  0  0  0  0  0  0  0  0
   -4.4264   26.6553  -41.1499 H   0  0  0  0  0  0  0  0  0  0  0  0
 13 12  2  0
 15 12  1  0
 12 11  1  0
 12 14  1  0
 11 10  1  0
  3  2  2  0
 10  9  1  0
  9  8  1  0
  2  1  1  0
  2  4  1  0
  2  5  1  0
  6  5  1  0
  6  7  1  0
 16  8  1  0
 16 17  1  0
  8  7  1  0
 17 26  2  0
 17 18  1  0
 26 25  1  0
 18 19  1  0
 18 24  2  0
 19 20  2  0
 25 24  1  0
 24 22  1  0
 20 21  1  0
 22 21  1  0
 22 23  2  0
  1 27  1  0
  4 28  1  0
  5 29  1  0
  5 30  1  0
  6 31  1  0
  6 32  1  0
  7 33  1  0
  7 34  1  0
  9 35  1  0
  9 36  1  0
 10 37  1  0
 10 38  1  0
 11 39  1  0
 11 40  1  0
 14 41  1  0
 15 42  1  0
 16 43  1  0
 16 44  1  0
 20 45  1  0
 21 46  1  0
 25 47  1  0
 26 48  1  0
A    1
OAD
A    2
PAY
A    3
OAE
A    4
OAB
A    5
CAN
A    6
CAJ
A    7
CAL
A    8
NAX
A    9
CAM
A   10
CAK
A   11
CAO
A   12
PAZ
A   13
OAF
A   14
OAG
A   15
OAC
A   16
CAP
A   17
CAT
A   18
CAV
A   19
NAQ
A   20
CAH
A   21
NAR
A   22
CAU
A   23
OAA
A   24
CAW
A   25
NAS
A   26
CAI
M  END
