5KOK_S9T_A_402
     RDKit          3D

 50 52  0  0  0  0  0  0  0  0999 V2000
  -10.5440   26.8800   -4.1560 C   0  0  0  0  0  0  0  0  0  0  0  0
   -9.3450   26.9760   -3.4470 O   0  0  0  0  0  0  0  0  0  0  0  0
   -8.1890   27.1290   -4.2070 C   0  0  0  0  0  0  0  0  0  0  0  0
   -6.9600   27.0610   -3.5830 C   0  0  0  0  0  0  0  0  0  0  0  0
   -6.8820   26.8310   -2.1960 O   0  0  0  0  0  0  0  0  0  0  0  0
   -6.0390   25.7760   -1.8310 C   0  0  0  0  0  0  0  0  0  0  0  0
   -5.8130   27.2210   -4.3180 C   0  0  0  0  0  0  0  0  0  0  0  0
   -5.9000   27.4530   -5.7270 C   0  0  0  0  0  0  0  0  0  0  0  0
   -8.2800   27.3610   -5.5670 C   0  0  0  0  0  0  0  0  0  0  0  0
   -7.0910   27.5230   -6.3330 C   0  0  0  0  0  0  0  0  0  0  0  0
   -7.2530   27.7480   -7.8620 C   0  0  0  0  0  0  0  0  0  0  0  0
   -7.9470   26.5370   -8.4380 C   0  0  0  0  0  0  0  0  0  0  0  0
   -8.3040   26.7250   -9.9280 C   0  0  0  0  0  0  0  0  0  0  0  0
   -5.9200   27.9080   -8.5670 N   0  0  0  0  0  0  0  0  0  0  0  0
   -4.7980   27.2070   -7.9290 C   0  0  0  0  0  0  0  0  0  0  0  0
   -4.6160   27.6020   -6.4740 C   0  0  0  0  0  0  0  0  0  0  0  0
   -8.6750   27.9920  -10.3790 C   0  0  0  0  0  0  0  0  0  0  0  0
   -8.9950   28.1890  -11.7160 C   0  0  0  0  0  0  0  0  0  0  0  0
   -8.9480   27.1160  -12.6020 C   0  0  0  0  0  0  0  0  0  0  0  0
   -9.2870   27.3200  -13.9520 O   0  0  0  0  0  0  0  0  0  0  0  0
   -9.2510   28.6790  -14.3280 C   0  0  0  0  0  0  0  0  0  0  0  0
   -8.5870   25.8470  -12.1580 C   0  0  0  0  0  0  0  0  0  0  0  0
   -8.2590   25.6450  -10.8130 C   0  0  0  0  0  0  0  0  0  0  0  0
   -8.5600   24.7860  -13.0780 O   0  0  0  0  0  0  0  0  0  0  0  0
   -8.5060   23.5180  -12.4780 C   0  0  0  0  0  0  0  0  0  0  0  0
  -11.3838   26.8128   -3.4488 H   0  0  0  0  0  0  0  0  0  0  0  0
  -10.6681   27.7711   -4.7889 H   0  0  0  0  0  0  0  0  0  0  0  0
  -10.5247   25.9805   -4.7889 H   0  0  0  0  0  0  0  0  0  0  0  0
   -5.9870   25.7109   -0.7342 H   0  0  0  0  0  0  0  0  0  0  0  0
   -6.4352   24.8331   -2.2359 H   0  0  0  0  0  0  0  0  0  0  0  0
   -5.0319   25.9544   -2.2359 H   0  0  0  0  0  0  0  0  0  0  0  0
   -4.8304   27.1711   -3.8261 H   0  0  0  0  0  0  0  0  0  0  0  0
   -9.2646   27.4200   -6.0539 H   0  0  0  0  0  0  0  0  0  0  0  0
   -7.8288   28.6730   -8.0133 H   0  0  0  0  0  0  0  0  0  0  0  0
   -8.8726   26.3561   -7.8718 H   0  0  0  0  0  0  0  0  0  0  0  0
   -7.2577   25.6833   -8.3604 H   0  0  0  0  0  0  0  0  0  0  0  0
   -5.6934   28.9122   -8.5999 H   0  0  0  0  0  0  0  0  0  0  0  0
   -4.9842   26.1241   -7.9797 H   0  0  0  0  0  0  0  0  0  0  0  0
   -3.8804   27.4858   -8.4679 H   0  0  0  0  0  0  0  0  0  0  0  0
   -3.8535   26.9548   -6.0159 H   0  0  0  0  0  0  0  0  0  0  0  0
   -4.2979   28.6540   -6.4282 H   0  0  0  0  0  0  0  0  0  0  0  0
   -8.7141   28.8361   -9.6747 H   0  0  0  0  0  0  0  0  0  0  0  0
   -9.2843   29.1883  -12.0734 H   0  0  0  0  0  0  0  0  0  0  0  0
   -9.2343   29.3086  -13.4262 H   0  0  0  0  0  0  0  0  0  0  0  0
   -8.3475   28.8703  -14.9255 H   0  0  0  0  0  0  0  0  0  0  0  0
  -10.1431   28.9179  -14.9255 H   0  0  0  0  0  0  0  0  0  0  0  0
   -7.9686   24.6459  -10.4560 H   0  0  0  0  0  0  0  0  0  0  0  0
   -8.5108   23.6297  -11.3837 H   0  0  0  0  0  0  0  0  0  0  0  0
   -9.3798   22.9272  -12.7901 H   0  0  0  0  0  0  0  0  0  0  0  0
   -7.5851   23.0036  -12.7901 H   0  0  0  0  0  0  0  0  0  0  0  0
 21 20  1  0
 20 19  1  0
 24 25  1  0
 24 22  1  0
 19 22  2  0
 19 18  1  0
 22 23  1  0
 18 17  2  0
 23 13  2  0
 17 13  1  0
 13 12  1  0
 14 15  1  0
 14 11  1  0
 12 11  1  0
 15 16  1  0
 11 10  1  0
 16  8  1  0
 10  8  2  0
 10  9  1  0
  8  7  1  0
  9  3  2  0
  7  4  2  0
  3  4  1  0
  3  2  1  0
  1  2  1  0
  4  5  1  0
  5  6  1  0
  1 26  1  0
  1 27  1  0
  1 28  1  0
  6 29  1  0
  6 30  1  0
  6 31  1  0
  7 32  1  0
  9 33  1  0
 11 34  1  0
 12 35  1  0
 12 36  1  0
 14 37  1  0
 15 38  1  0
 15 39  1  0
 16 40  1  0
 16 41  1  0
 17 42  1  0
 18 43  1  0
 21 44  1  0
 21 45  1  0
 21 46  1  0
 23 47  1  0
 25 48  1  0
 25 49  1  0
 25 50  1  0
A    1
C21
A    2
O19
A    3
C6
A    4
C5
A    5
O18
A    6
C20
A    7
C4
A    8
C3
A    9
C7
A   10
C8
A   11
C9
A   12
C11
A   13
C12
A   14
N10
A   15
C1
A   16
C2
A   17
C17
A   18
C16
A   19
C15
A   20
O23
A   21
C25
A   22
C14
A   23
C13
A   24
O22
A   25
C24
M  END
