5KOQ_6VR_A_402
     RDKit          3D

 65 67  0  0  0  0  0  0  0  0999 V2000
  -46.6020    1.0150    8.0460 C   0  0  0  0  0  0  0  0  0  0  0  0
  -44.1810    1.0220    7.1220 C   0  0  0  0  0  0  0  0  0  0  0  0
  -44.7160    1.1580    5.6760 C   0  0  0  0  0  0  0  0  0  0  0  0
  -43.6470    1.7420    4.7380 C   0  0  0  0  0  0  0  0  0  0  0  0
  -46.8340   -1.9320    9.2840 C   0  0  0  0  0  0  0  0  0  0  0  0
  -47.5130   -2.5710   11.3890 C   0  0  0  0  0  0  0  0  0  0  0  0
  -44.4510   -0.4480   13.3070 C   0  0  0  0  0  0  0  0  0  0  0  0
  -43.2240    0.3200   13.7280 C   0  0  0  0  0  0  0  0  0  0  0  0
  -41.8510    1.8000   14.6380 C   0  0  0  0  0  0  0  0  0  0  0  0
  -49.8940   -2.6250   12.0880 C   0  0  0  0  0  0  0  0  0  0  0  0
  -46.1980    2.3490   10.2520 C   0  0  0  0  0  0  0  0  0  0  0  0
  -46.9850    2.2100    8.9430 C   0  0  0  0  0  0  0  0  0  0  0  0
  -48.4760    2.0920    9.2670 C   0  0  0  0  0  0  0  0  0  0  0  0
  -45.2070    0.4850    8.0520 N   0  0  0  0  0  0  0  0  0  0  0  0
  -43.2090    3.1100    5.2740 C   0  0  0  0  0  0  0  0  0  0  0  0
  -42.6490    2.9430    6.6320 N   0  0  0  0  0  0  0  0  0  0  0  0
  -43.5710    2.3440    7.6200 C   0  0  0  0  0  0  0  0  0  0  0  0
  -44.8250   -0.5530    8.8650 C   0  0  0  0  0  0  0  0  0  0  0  0
  -43.6800   -0.9760    8.8190 O   0  0  0  0  0  0  0  0  0  0  0  0
  -45.7410   -1.2310    9.8130 C   0  0  0  0  0  0  0  0  0  0  0  0
  -47.6820   -2.5580   10.0770 N   0  0  0  0  0  0  0  0  0  0  0  0
  -46.4840   -1.9350   11.9440 N   0  0  0  0  0  0  0  0  0  0  0  0
  -45.5730   -1.2590   11.2250 C   0  0  0  0  0  0  0  0  0  0  0  0
  -44.5120   -0.6140   11.8450 N   0  0  0  0  0  0  0  0  0  0  0  0
  -43.2080    1.4240   14.4970 C   0  0  0  0  0  0  0  0  0  0  0  0
  -41.1170    0.9060   13.9510 C   0  0  0  0  0  0  0  0  0  0  0  0
  -41.9540    0.0130   13.4030 O   0  0  0  0  0  0  0  0  0  0  0  0
  -48.5320   -3.3130   12.2340 C   0  0  0  0  0  0  0  0  0  0  0  0
  -48.6450   -4.7750   11.7850 C   0  0  0  0  0  0  0  0  0  0  0  0
  -48.1790   -3.3030   13.7220 C   0  0  0  0  0  0  0  0  0  0  0  0
  -46.8220    1.3139    7.0105 H   0  0  0  0  0  0  0  0  0  0  0  0
  -47.1855    0.1859    8.4728 H   0  0  0  0  0  0  0  0  0  0  0  0
  -43.3695    0.2797    7.1023 H   0  0  0  0  0  0  0  0  0  0  0  0
  -45.5921    1.8231    5.6791 H   0  0  0  0  0  0  0  0  0  0  0  0
  -44.9890    0.1569    5.3110 H   0  0  0  0  0  0  0  0  0  0  0  0
  -44.0662    1.8584    3.7277 H   0  0  0  0  0  0  0  0  0  0  0  0
  -42.7811    1.0651    4.6928 H   0  0  0  0  0  0  0  0  0  0  0  0
  -46.9861   -1.9602    8.1949 H   0  0  0  0  0  0  0  0  0  0  0  0
  -45.3457    0.0973   13.6419 H   0  0  0  0  0  0  0  0  0  0  0  0
  -44.4052   -1.4471   13.7649 H   0  0  0  0  0  0  0  0  0  0  0  0
  -41.4679    2.6622   15.2036 H   0  0  0  0  0  0  0  0  0  0  0  0
  -50.3080   -2.4159   13.0855 H   0  0  0  0  0  0  0  0  0  0  0  0
  -49.7708   -1.6810   11.5369 H   0  0  0  0  0  0  0  0  0  0  0  0
  -50.5807   -3.2844   11.5369 H   0  0  0  0  0  0  0  0  0  0  0  0
  -46.8815    2.2283   11.1054 H   0  0  0  0  0  0  0  0  0  0  0  0
  -45.4178    1.5748   10.2947 H   0  0  0  0  0  0  0  0  0  0  0  0
  -45.7302    3.3437   10.2947 H   0  0  0  0  0  0  0  0  0  0  0  0
  -46.7323    3.1136    8.3688 H   0  0  0  0  0  0  0  0  0  0  0  0
  -48.6143    2.0811   10.3582 H   0  0  0  0  0  0  0  0  0  0  0  0
  -49.0135    2.9504    8.8378 H   0  0  0  0  0  0  0  0  0  0  0  0
  -48.8718    1.1597    8.8378 H   0  0  0  0  0  0  0  0  0  0  0  0
  -42.4431    3.5373    4.6101 H   0  0  0  0  0  0  0  0  0  0  0  0
  -44.0753    3.7868    5.3120 H   0  0  0  0  0  0  0  0  0  0  0  0
  -41.8183    2.3379    6.5626 H   0  0  0  0  0  0  0  0  0  0  0  0
  -43.0159    2.1496    8.5496 H   0  0  0  0  0  0  0  0  0  0  0  0
  -44.3949    3.0538    7.7854 H   0  0  0  0  0  0  0  0  0  0  0  0
  -43.7458   -0.2410   11.2664 H   0  0  0  0  0  0  0  0  0  0  0  0
  -44.0799    1.9348   14.9315 H   0  0  0  0  0  0  0  0  0  0  0  0
  -40.0212    0.9073   13.8554 H   0  0  0  0  0  0  0  0  0  0  0  0
  -48.6954   -5.4273   12.6693 H   0  0  0  0  0  0  0  0  0  0  0  0
  -49.5558   -4.9040   11.1818 H   0  0  0  0  0  0  0  0  0  0  0  0
  -47.7648   -5.0424   11.1818 H   0  0  0  0  0  0  0  0  0  0  0  0
  -49.1030   -3.3292   14.3182 H   0  0  0  0  0  0  0  0  0  0  0  0
  -47.5646   -4.1841   13.9590 H   0  0  0  0  0  0  0  0  0  0  0  0
  -47.6155   -2.3885   13.9590 H   0  0  0  0  0  0  0  0  0  0  0  0
  4 15  1  0
  4  3  1  0
 15 16  1  0
  3  2  1  0
 16 17  1  0
  2 17  1  0
  2 14  1  0
  1 14  1  0
  1 12  1  0
 14 18  1  0
 19 18  2  0
 18 20  1  0
 12 13  1  0
 12 11  1  0
  5 20  2  0
  5 21  1  0
 20 23  1  0
 21  6  2  0
 23 24  1  0
 23 22  2  0
  6 22  1  0
  6 28  1  0
 29 28  1  0
 24  7  1  0
 10 28  1  0
 28 30  1  0
  7  8  1  0
 27  8  1  0
 27 26  1  0
  8 25  2  0
 26  9  2  0
 25  9  1  0
  1 31  1  0
  1 32  1  0
  2 33  1  0
  3 34  1  0
  3 35  1  0
  4 36  1  0
  4 37  1  0
  5 38  1  0
  7 39  1  0
  7 40  1  0
  9 41  1  0
 10 42  1  0
 10 43  1  0
 10 44  1  0
 11 45  1  0
 11 46  1  0
 11 47  1  0
 12 48  1  0
 13 49  1  0
 13 50  1  0
 13 51  1  0
 15 52  1  0
 15 53  1  0
 16 54  1  0
 17 55  1  0
 17 56  1  0
 24 57  1  0
 25 58  1  0
 26 59  1  0
 29 60  1  0
 29 61  1  0
 29 62  1  0
 30 63  1  0
 30 64  1  0
 30 65  1  0
A    1
C4
A    2
C6
A    3
C7
A    4
C8
A    5
C15
A    6
C17
A    7
C21
A    8
C22
A    9
C24
A   10
C28
A   11
C1
A   12
C2
A   13
C3
A   14
N5
A   15
C9
A   16
N10
A   17
C11
A   18
C12
A   19
O13
A   20
C14
A   21
N16
A   22
N18
A   23
C19
A   24
N20
A   25
C23
A   26
C25
A   27
O26
A   28
C27
A   29
C29
A   30
C30
M  END
