5KOT_6VU_A_402
     RDKit          3D

 77 80  0  0  0  0  0  0  0  0999 V2000
  -21.2370  -34.5730   -9.2170 C   0  0  0  0  0  0  0  0  0  0  0  0
  -22.1350  -34.5760  -10.4560 C   0  0  0  0  0  0  0  0  0  0  0  0
  -23.1090  -33.3930  -10.3730 C   0  0  0  0  0  0  0  0  0  0  0  0
  -25.1420  -33.7070  -11.8560 C   0  0  0  0  0  0  0  0  0  0  0  0
  -24.4050  -33.0340  -13.7730 C   0  0  0  0  0  0  0  0  0  0  0  0
  -21.9290  -32.0230  -14.5820 C   0  0  0  0  0  0  0  0  0  0  0  0
  -23.3480  -32.8860  -12.8420 C   0  0  0  0  0  0  0  0  0  0  0  0
  -25.1820  -36.7240  -12.6960 C   0  0  0  0  0  0  0  0  0  0  0  0
  -24.5340  -37.7970  -11.8220 C   0  0  0  0  0  0  0  0  0  0  0  0
  -25.3900  -37.2280  -14.1300 C   0  0  0  0  0  0  0  0  0  0  0  0
  -29.8100  -36.6310   -9.1580 C   0  0  0  0  0  0  0  0  0  0  0  0
  -20.1140  -35.9840   -6.6830 C   0  0  0  0  0  0  0  0  0  0  0  0
  -19.5980  -35.9630   -8.0280 O   0  0  0  0  0  0  0  0  0  0  0  0
  -20.5850  -35.9530   -9.0670 C   0  0  0  0  0  0  0  0  0  0  0  0
  -23.8440  -33.3300  -11.6410 N   0  0  0  0  0  0  0  0  0  0  0  0
  -25.4650  -33.5320  -13.1140 N   0  0  0  0  0  0  0  0  0  0  0  0
  -24.1970  -32.6570  -15.1120 C   0  0  0  0  0  0  0  0  0  0  0  0
  -22.9720  -32.1710  -15.4970 C   0  0  0  0  0  0  0  0  0  0  0  0
  -22.1070  -32.3720  -13.2510 C   0  0  0  0  0  0  0  0  0  0  0  0
  -26.0170  -34.2750  -10.8000 C   0  0  0  0  0  0  0  0  0  0  0  0
  -26.1260  -33.6560   -9.7590 O   0  0  0  0  0  0  0  0  0  0  0  0
  -26.6350  -35.4770  -10.9380 N   0  0  0  0  0  0  0  0  0  0  0  0
  -26.5710  -36.2970  -12.1850 C   0  0  0  0  0  0  0  0  0  0  0  0
  -27.4830  -35.9460   -9.8230 C   0  0  0  0  0  0  0  0  0  0  0  0
  -27.0300  -37.3430   -9.3580 C   0  0  0  0  0  0  0  0  0  0  0  0
  -27.9570  -37.9070   -8.3670 N   0  0  0  0  0  0  0  0  0  0  0  0
  -29.3000  -38.0540   -8.9300 C   0  0  0  0  0  0  0  0  0  0  0  0
  -28.9640  -35.9500  -10.2530 C   0  0  0  0  0  0  0  0  0  0  0  0
  -31.2720  -36.6710   -9.5600 C   0  0  0  0  0  0  0  0  0  0  0  0
  -31.5340  -36.6180  -10.7490 O   0  0  0  0  0  0  0  0  0  0  0  0
  -32.3030  -36.7530   -8.6770 N   0  0  0  0  0  0  0  0  0  0  0  0
  -32.1450  -36.8300   -7.2020 C   0  0  0  0  0  0  0  0  0  0  0  0
  -32.8840  -38.1070   -6.7590 C   0  0  0  0  0  0  0  0  0  0  0  0
  -34.2460  -38.0210   -7.2050 O   0  0  0  0  0  0  0  0  0  0  0  0
  -34.4060  -38.0200   -8.6320 C   0  0  0  0  0  0  0  0  0  0  0  0
  -33.6990  -36.7750   -9.1930 C   0  0  0  0  0  0  0  0  0  0  0  0
  -20.4559  -33.8068   -9.3300 H   0  0  0  0  0  0  0  0  0  0  0  0
  -21.8383  -34.3480   -8.3238 H   0  0  0  0  0  0  0  0  0  0  0  0
  -22.7020  -35.5177  -10.4977 H   0  0  0  0  0  0  0  0  0  0  0  0
  -21.5173  -34.4847  -11.3616 H   0  0  0  0  0  0  0  0  0  0  0  0
  -22.5505  -32.4583  -10.2170 H   0  0  0  0  0  0  0  0  0  0  0  0
  -23.8044  -33.5251   -9.5310 H   0  0  0  0  0  0  0  0  0  0  0  0
  -20.9593  -31.6271  -14.9181 H   0  0  0  0  0  0  0  0  0  0  0  0
  -24.4880  -35.8713  -12.6609 H   0  0  0  0  0  0  0  0  0  0  0  0
  -24.6852  -37.5467  -10.7616 H   0  0  0  0  0  0  0  0  0  0  0  0
  -24.9940  -38.7726  -12.0376 H   0  0  0  0  0  0  0  0  0  0  0  0
  -23.4564  -37.8440  -12.0376 H   0  0  0  0  0  0  0  0  0  0  0  0
  -25.8095  -38.2445  -14.1041 H   0  0  0  0  0  0  0  0  0  0  0  0
  -26.0850  -36.5578  -14.6570 H   0  0  0  0  0  0  0  0  0  0  0  0
  -24.4246  -37.2431  -14.6570 H   0  0  0  0  0  0  0  0  0  0  0  0
  -29.7180  -36.0505   -8.2282 H   0  0  0  0  0  0  0  0  0  0  0  0
  -19.2779  -35.9500   -5.9690 H   0  0  0  0  0  0  0  0  0  0  0  0
  -20.7655  -35.1116   -6.5266 H   0  0  0  0  0  0  0  0  0  0  0  0
  -20.6925  -36.9064   -6.5266 H   0  0  0  0  0  0  0  0  0  0  0  0
  -21.3641  -36.6910   -8.8256 H   0  0  0  0  0  0  0  0  0  0  0  0
  -20.0867  -36.2017  -10.0156 H   0  0  0  0  0  0  0  0  0  0  0  0
  -25.0107  -32.7510  -15.8462 H   0  0  0  0  0  0  0  0  0  0  0  0
  -22.8094  -31.8925  -16.5487 H   0  0  0  0  0  0  0  0  0  0  0  0
  -21.2882  -32.2479  -12.5270 H   0  0  0  0  0  0  0  0  0  0  0  0
  -27.0496  -35.7138  -12.9855 H   0  0  0  0  0  0  0  0  0  0  0  0
  -27.0699  -37.2410  -11.9205 H   0  0  0  0  0  0  0  0  0  0  0  0
  -27.3757  -35.2575   -8.9719 H   0  0  0  0  0  0  0  0  0  0  0  0
  -26.9868  -38.0132  -10.2292 H   0  0  0  0  0  0  0  0  0  0  0  0
  -26.0397  -37.2466   -8.8889 H   0  0  0  0  0  0  0  0  0  0  0  0
  -27.6125  -38.8316   -8.0714 H   0  0  0  0  0  0  0  0  0  0  0  0
  -29.9549  -38.5881   -8.2258 H   0  0  0  0  0  0  0  0  0  0  0  0
  -29.2879  -38.6358   -9.8635 H   0  0  0  0  0  0  0  0  0  0  0  0
  -29.3088  -34.9149  -10.3934 H   0  0  0  0  0  0  0  0  0  0  0  0
  -29.0720  -36.5013  -11.1987 H   0  0  0  0  0  0  0  0  0  0  0  0
  -31.0798  -36.8933   -6.9350 H   0  0  0  0  0  0  0  0  0  0  0  0
  -32.5540  -35.9369   -6.7070 H   0  0  0  0  0  0  0  0  0  0  0  0
  -32.8568  -38.1903   -5.6625 H   0  0  0  0  0  0  0  0  0  0  0  0
  -32.3995  -38.9937   -7.1937 H   0  0  0  0  0  0  0  0  0  0  0  0
  -35.4756  -37.9876   -8.8869 H   0  0  0  0  0  0  0  0  0  0  0  0
  -33.9694  -38.9324   -9.0643 H   0  0  0  0  0  0  0  0  0  0  0  0
  -34.2296  -35.8683   -8.8670 H   0  0  0  0  0  0  0  0  0  0  0  0
  -33.6943  -36.8071  -10.2925 H   0  0  0  0  0  0  0  0  0  0  0  0
 18 17  1  0
 18  6  2  0
 17  5  2  0
  6 19  1  0
 10  8  1  0
  5 16  1  0
  5  7  1  0
 19  7  2  0
 16  4  2  0
  7 15  1  0
  8 23  1  0
  8  9  1  0
 23 22  1  0
  4 15  1  0
  4 20  1  0
 15  3  1  0
 22 20  1  0
 22 24  1  0
 20 21  2  0
 30 29  2  0
  2  3  1  0
  2  1  1  0
 28 24  1  0
 28 11  1  0
 24 25  1  0
 29 11  1  0
 29 31  1  0
 25 26  1  0
  1 14  1  0
 36 31  1  0
 36 35  1  0
 11 27  1  0
 14 13  1  0
 27 26  1  0
 31 32  1  0
 35 34  1  0
 13 12  1  0
 34 33  1  0
 32 33  1  0
  1 37  1  0
  1 38  1  0
  2 39  1  0
  2 40  1  0
  3 41  1  0
  3 42  1  0
  6 43  1  0
  8 44  1  0
  9 45  1  0
  9 46  1  0
  9 47  1  0
 10 48  1  0
 10 49  1  0
 10 50  1  0
 11 51  1  0
 12 52  1  0
 12 53  1  0
 12 54  1  0
 14 55  1  0
 14 56  1  0
 17 57  1  0
 18 58  1  0
 19 59  1  0
 23 60  1  0
 23 61  1  0
 24 62  1  0
 25 63  1  0
 25 64  1  0
 26 65  1  0
 27 66  1  0
 27 67  1  0
 28 68  1  0
 28 69  1  0
 32 70  1  0
 32 71  1  0
 33 72  1  0
 33 73  1  0
 35 74  1  0
 35 75  1  0
 36 76  1  0
 36 77  1  0
A    1
C4
A    2
C5
A    3
C6
A    4
C8
A    5
C10
A    6
C13
A    7
C15
A    8
C20
A    9
C21
A   10
C22
A   11
C28
A   12
C1
A   13
O2
A   14
C3
A   15
N7
A   16
N9
A   17
C11
A   18
C12
A   19
C14
A   20
C16
A   21
O17
A   22
N18
A   23
C19
A   24
C23
A   25
C25
A   26
N26
A   27
C27
A   28
C30
A   29
C31
A   30
O32
A   31
N33
A   32
C34
A   33
C35
A   34
O36
A   35
C37
A   36
C38
M  END
