5KPO_6WY_A_1101
     RDKit          3D

 52 55  0  0  0  0  0  0  0  0999 V2000
  -11.9600   -4.8450    5.4280 O   0  0  0  0  0  0  0  0  0  0  0  0
  -10.9430   -4.2130    5.7220 C   0  0  0  0  0  0  0  0  0  0  0  0
  -10.6240   -3.1170    4.9210 N   0  0  0  0  0  0  0  0  0  0  0  0
   -9.4990   -2.3520    5.1770 C   0  0  0  0  0  0  0  0  0  0  0  0
   -9.2650   -1.3990    4.4270 O   0  0  0  0  0  0  0  0  0  0  0  0
   -8.6890   -2.7000    6.2640 C   0  0  0  0  0  0  0  0  0  0  0  0
   -7.5430   -1.9430    6.5530 C   0  0  0  0  0  0  0  0  0  0  0  0
   -6.7190   -2.2760    7.6270 C   0  0  0  0  0  0  0  0  0  0  0  0
   -7.0440   -3.3680    8.4170 C   0  0  0  0  0  0  0  0  0  0  0  0
   -8.1870   -4.1240    8.1470 C   0  0  0  0  0  0  0  0  0  0  0  0
   -9.0380   -3.8190    7.0640 C   0  0  0  0  0  0  0  0  0  0  0  0
  -10.1680   -4.5540    6.7840 N   0  0  0  0  0  0  0  0  0  0  0  0
  -10.5950   -5.7440    7.5760 C   0  0  0  0  0  0  0  0  0  0  0  0
  -11.3910   -5.3960    8.7150 C   0  0  0  0  0  0  0  0  0  0  0  0
  -12.3880   -4.3990    8.6980 C   0  0  0  0  0  0  0  0  0  0  0  0
  -11.2150   -6.1140    9.9070 C   0  0  0  0  0  0  0  0  0  0  0  0
  -11.9830   -5.8310   11.0350 C   0  0  0  0  0  0  0  0  0  0  0  0
  -12.9530   -4.8360   11.0030 C   0  0  0  0  0  0  0  0  0  0  0  0
  -13.6770   -4.5730   12.0840 F   0  0  0  0  0  0  0  0  0  0  0  0
  -13.1680   -4.1200    9.8290 C   0  0  0  0  0  0  0  0  0  0  0  0
  -14.1210   -3.0940    9.7900 C   0  0  0  0  0  0  0  0  0  0  0  0
  -13.6800   -1.9430    9.8450 O   0  0  0  0  0  0  0  0  0  0  0  0
  -15.4590   -3.3240    9.7120 N   0  0  0  0  0  0  0  0  0  0  0  0
  -16.1020   -4.6660    9.6660 C   0  0  0  0  0  0  0  0  0  0  0  0
  -17.2850   -4.6590   10.5990 C   0  0  0  0  0  0  0  0  0  0  0  0
  -16.3250   -2.1410    9.6740 C   0  0  0  0  0  0  0  0  0  0  0  0
  -17.7020   -2.4650    9.5790 C   0  0  0  0  0  0  0  0  0  0  0  0
  -18.4710   -1.6160    9.1110 O   0  0  0  0  0  0  0  0  0  0  0  0
  -18.2230   -3.6420   10.0230 N   0  0  0  0  0  0  0  0  0  0  0  0
  -19.6840   -3.8390    9.8770 C   0  0  0  0  0  0  0  0  0  0  0  0
  -20.2290   -4.9690   10.7600 C   0  0  0  0  0  0  0  0  0  0  0  0
  -11.2340   -2.8732    4.1277 H   0  0  0  0  0  0  0  0  0  0  0  0
   -7.2919   -1.0761    5.9242 H   0  0  0  0  0  0  0  0  0  0  0  0
   -5.8211   -1.6791    7.8452 H   0  0  0  0  0  0  0  0  0  0  0  0
   -6.3965   -3.6412    9.2632 H   0  0  0  0  0  0  0  0  0  0  0  0
   -8.4298   -4.9789    8.7953 H   0  0  0  0  0  0  0  0  0  0  0  0
  -11.1839   -6.4067    6.9249 H   0  0  0  0  0  0  0  0  0  0  0  0
   -9.6853   -6.2392    7.9464 H   0  0  0  0  0  0  0  0  0  0  0  0
  -12.5579   -3.8260    7.7745 H   0  0  0  0  0  0  0  0  0  0  0  0
  -10.4596   -6.9123    9.9522 H   0  0  0  0  0  0  0  0  0  0  0  0
  -11.8197   -6.4016   11.9612 H   0  0  0  0  0  0  0  0  0  0  0  0
  -16.4384   -4.8818    8.6412 H   0  0  0  0  0  0  0  0  0  0  0  0
  -15.3833   -5.4401    9.9730 H   0  0  0  0  0  0  0  0  0  0  0  0
  -17.7601   -5.6506   10.6293 H   0  0  0  0  0  0  0  0  0  0  0  0
  -16.9962   -4.4180   11.6327 H   0  0  0  0  0  0  0  0  0  0  0  0
  -16.0474   -1.5313    8.8015 H   0  0  0  0  0  0  0  0  0  0  0  0
  -16.1796   -1.5965   10.6186 H   0  0  0  0  0  0  0  0  0  0  0  0
  -20.1928   -2.9033   10.1518 H   0  0  0  0  0  0  0  0  0  0  0  0
  -19.8747   -4.1189    8.8304 H   0  0  0  0  0  0  0  0  0  0  0  0
  -20.0999   -4.7014   11.8191 H   0  0  0  0  0  0  0  0  0  0  0  0
  -21.2979   -5.1177   10.5470 H   0  0  0  0  0  0  0  0  0  0  0  0
  -19.6799   -5.8981   10.5470 H   0  0  0  0  0  0  0  0  0  0  0  0
  5  4  2  0
  3  4  1  0
  3  2  1  0
  4  6  1  0
  1  2  2  0
  2 12  1  0
  6  7  1  0
  6 11  2  0
  7  8  2  0
 12 11  1  0
 12 13  1  0
 11 10  1  0
 13 14  1  0
  8  9  1  0
 10  9  2  0
 15 14  2  0
 15 20  1  0
 14 16  1  0
 28 27  2  0
 27 26  1  0
 27 29  1  0
 24 23  1  0
 24 25  1  0
 26 23  1  0
 23 21  1  0
 21 20  1  0
 21 22  2  0
 20 18  2  0
 30 29  1  0
 30 31  1  0
 16 17  2  0
 29 25  1  0
 18 17  1  0
 18 19  1  0
  3 32  1  0
  7 33  1  0
  8 34  1  0
  9 35  1  0
 10 36  1  0
 13 37  1  0
 13 38  1  0
 15 39  1  0
 16 40  1  0
 17 41  1  0
 24 42  1  0
 24 43  1  0
 25 44  1  0
 25 45  1  0
 26 46  1  0
 26 47  1  0
 30 48  1  0
 30 49  1  0
 31 50  1  0
 31 51  1  0
 31 52  1  0
A    1
OAE
A    2
CAZ
A    3
NAS
A    4
CAY
A    5
OAD
A    6
CBA
A    7
CAK
A    8
CAG
A    9
CAH
A   10
CAL
A   11
CBB
A   12
NBE
A   13
CAR
A   14
CAV
A   15
CAM
A   16
CAI
A   17
CAJ
A   18
CAW
A   19
FAF
A   20
CAX
A   21
CAU
A   22
OAC
A   23
N
A   24
CAP
A   25
CAO
A   26
CA
A   27
C
A   28
O
A   29
NBC
A   30
CAN
A   31
CAA
M  END
