5KPP_6WZ_A_1101
     RDKit          3D

 56 59  0  0  0  0  0  0  0  0999 V2000
   11.5610   -4.9780   -5.4820 O   0  0  0  0  0  0  0  0  0  0  0  0
   10.5590   -4.3120   -5.7460 C   0  0  0  0  0  0  0  0  0  0  0  0
   10.3100   -3.1960   -4.9450 N   0  0  0  0  0  0  0  0  0  0  0  0
    9.1960   -2.3960   -5.1800 C   0  0  0  0  0  0  0  0  0  0  0  0
    9.0100   -1.4270   -4.4410 O   0  0  0  0  0  0  0  0  0  0  0  0
    8.3410   -2.7360   -6.2390 C   0  0  0  0  0  0  0  0  0  0  0  0
    7.2150   -1.9500   -6.5120 C   0  0  0  0  0  0  0  0  0  0  0  0
    6.3580   -2.2720   -7.5600 C   0  0  0  0  0  0  0  0  0  0  0  0
    6.6270   -3.3870   -8.3360 C   0  0  0  0  0  0  0  0  0  0  0  0
    7.7460   -4.1720   -8.0790 C   0  0  0  0  0  0  0  0  0  0  0  0
    8.6270   -3.8720   -7.0300 C   0  0  0  0  0  0  0  0  0  0  0  0
    9.7360   -4.6390   -6.7800 N   0  0  0  0  0  0  0  0  0  0  0  0
   10.0900   -5.8560   -7.5530 C   0  0  0  0  0  0  0  0  0  0  0  0
   10.7430   -5.5900   -8.7710 C   0  0  0  0  0  0  0  0  0  0  0  0
   11.7720   -4.6370   -8.8530 C   0  0  0  0  0  0  0  0  0  0  0  0
   10.4250   -6.3440   -9.9120 C   0  0  0  0  0  0  0  0  0  0  0  0
   11.0900   -6.1140  -11.1150 C   0  0  0  0  0  0  0  0  0  0  0  0
   12.0930   -5.1500  -11.1890 C   0  0  0  0  0  0  0  0  0  0  0  0
   12.7460   -4.9390  -12.3740 F   0  0  0  0  0  0  0  0  0  0  0  0
   12.4450   -4.4090  -10.0520 C   0  0  0  0  0  0  0  0  0  0  0  0
   13.4380   -3.4180  -10.0980 C   0  0  0  0  0  0  0  0  0  0  0  0
   13.0630   -2.2560   -9.9060 O   0  0  0  0  0  0  0  0  0  0  0  0
   14.7440   -3.7250  -10.3410 N   0  0  0  0  0  0  0  0  0  0  0  0
   15.7630   -2.6530  -10.4000 C   0  0  0  0  0  0  0  0  0  0  0  0
   16.8860   -2.9520   -9.4070 C   0  0  0  0  0  0  0  0  0  0  0  0
   16.3530   -2.7880   -7.9650 C   0  0  0  0  0  0  0  0  0  0  0  0
   15.2430   -5.0860  -10.5920 C   0  0  0  0  0  0  0  0  0  0  0  0
   16.4390   -5.3470   -9.6620 C   0  0  0  0  0  0  0  0  0  0  0  0
   17.4790   -4.2940   -9.6500 N   0  0  0  0  0  0  0  0  0  0  0  0
   18.3020   -4.3430  -10.8970 C   0  0  0  0  0  0  0  0  0  0  0  0
   19.7350   -4.8320  -10.6530 C   0  0  0  0  0  0  0  0  0  0  0  0
   20.3690   -3.9490   -9.9040 F   0  0  0  0  0  0  0  0  0  0  0  0
   20.3490   -4.9470  -11.7960 F   0  0  0  0  0  0  0  0  0  0  0  0
   19.7240   -6.0060  -10.0630 F   0  0  0  0  0  0  0  0  0  0  0  0
   10.9544   -2.9635   -4.1759 H   0  0  0  0  0  0  0  0  0  0  0  0
    7.0052   -1.0670   -5.8904 H   0  0  0  0  0  0  0  0  0  0  0  0
    5.4768   -1.6479   -7.7697 H   0  0  0  0  0  0  0  0  0  0  0  0
    5.9508   -3.6537   -9.1616 H   0  0  0  0  0  0  0  0  0  0  0  0
    7.9446   -5.0485   -8.7133 H   0  0  0  0  0  0  0  0  0  0  0  0
    9.1645   -6.4093   -7.7702 H   0  0  0  0  0  0  0  0  0  0  0  0
   10.7928   -6.4332   -6.9342 H   0  0  0  0  0  0  0  0  0  0  0  0
   12.0507   -4.0622   -7.9575 H   0  0  0  0  0  0  0  0  0  0  0  0
    9.6473   -7.1199   -9.8561 H   0  0  0  0  0  0  0  0  0  0  0  0
   10.8219   -6.6957  -12.0093 H   0  0  0  0  0  0  0  0  0  0  0  0
   16.1790   -2.6000  -11.4169 H   0  0  0  0  0  0  0  0  0  0  0  0
   15.2950   -1.6919  -10.1409 H   0  0  0  0  0  0  0  0  0  0  0  0
   17.7037   -2.2304   -9.5508 H   0  0  0  0  0  0  0  0  0  0  0  0
   17.1511   -3.0336   -7.2489 H   0  0  0  0  0  0  0  0  0  0  0  0
   16.0285   -1.7484   -7.8101 H   0  0  0  0  0  0  0  0  0  0  0  0
   15.5002   -3.4653   -7.8101 H   0  0  0  0  0  0  0  0  0  0  0  0
   14.4469   -5.8167  -10.3865 H   0  0  0  0  0  0  0  0  0  0  0  0
   15.5540   -5.1854  -11.6424 H   0  0  0  0  0  0  0  0  0  0  0  0
   16.0541   -5.4548   -8.6372 H   0  0  0  0  0  0  0  0  0  0  0  0
   16.9303   -6.2520  -10.0489 H   0  0  0  0  0  0  0  0  0  0  0  0
   18.3457   -3.3317  -11.3276 H   0  0  0  0  0  0  0  0  0  0  0  0
   17.8221   -5.0605  -11.5788 H   0  0  0  0  0  0  0  0  0  0  0  0
 19 18  1  0
 33 31  1  0
 18 17  2  0
 18 20  1  0
 17 16  1  0
 30 31  1  0
 30 29  1  0
 31 34  1  0
 31 32  1  0
 27 23  1  0
 27 28  1  0
 24 23  1  0
 24 25  1  0
 23 21  1  0
 21 20  1  0
 21 22  2  0
 20 15  2  0
 16 14  2  0
 28 29  1  0
 29 25  1  0
 25 26  1  0
 15 14  1  0
 14 13  1  0
  9 10  1  0
  9  8  2  0
 10 11  2  0
  8  7  1  0
 13 12  1  0
 11 12  1  0
 11  6  1  0
 12  2  1  0
  7  6  2  0
  6  4  1  0
  2  1  2  0
  2  3  1  0
  4  3  1  0
  4  5  2  0
  3 35  1  0
  7 36  1  0
  8 37  1  0
  9 38  1  0
 10 39  1  0
 13 40  1  0
 13 41  1  0
 15 42  1  0
 16 43  1  0
 17 44  1  0
 24 45  1  0
 24 46  1  0
 25 47  1  0
 26 48  1  0
 26 49  1  0
 26 50  1  0
 27 51  1  0
 27 52  1  0
 28 53  1  0
 28 54  1  0
 30 55  1  0
 30 56  1  0
A    1
OAD
A    2
CBA
A    3
NAU
A    4
CAZ
A    5
OAC
A    6
CBB
A    7
CAM
A    8
CAI
A    9
CAJ
A   10
CAN
A   11
CBC
A   12
NBG
A   13
CAR
A   14
CAW
A   15
CAO
A   16
CAK
A   17
CAL
A   18
CAX
A   19
FAE
A   20
CAY
A   21
CAV
A   22
OAB
A   23
NBE
A   24
CAS
A   25
CBD
A   26
CAA
A   27
CAP
A   28
CAQ
A   29
NBF
A   30
CAT
A   31
CBH
A   32
FAG
A   33
FAH
A   34
FAF
M  END
