5KPQ_6X2_A_1101
     RDKit          3D

 59 62  0  0  0  0  0  0  0  0999 V2000
   11.4920   -4.9230   -5.5300 O   0  0  0  0  0  0  0  0  0  0  0  0
   10.5010   -4.2400   -5.7970 C   0  0  0  0  0  0  0  0  0  0  0  0
   10.2930   -3.1170   -5.0110 N   0  0  0  0  0  0  0  0  0  0  0  0
    9.2060   -2.2950   -5.2460 C   0  0  0  0  0  0  0  0  0  0  0  0
    9.0730   -1.3150   -4.5090 O   0  0  0  0  0  0  0  0  0  0  0  0
    8.3290   -2.6170   -6.2990 C   0  0  0  0  0  0  0  0  0  0  0  0
    7.2150   -1.8090   -6.5770 C   0  0  0  0  0  0  0  0  0  0  0  0
    6.3380   -2.1270   -7.6140 C   0  0  0  0  0  0  0  0  0  0  0  0
    6.5720   -3.2620   -8.3830 C   0  0  0  0  0  0  0  0  0  0  0  0
    7.6770   -4.0710   -8.1200 C   0  0  0  0  0  0  0  0  0  0  0  0
    8.5760   -3.7720   -7.0820 C   0  0  0  0  0  0  0  0  0  0  0  0
    9.6580   -4.5610   -6.8170 N   0  0  0  0  0  0  0  0  0  0  0  0
    9.9820   -5.7900   -7.5770 C   0  0  0  0  0  0  0  0  0  0  0  0
   10.6420   -5.5360   -8.7960 C   0  0  0  0  0  0  0  0  0  0  0  0
   11.6760   -4.5840   -8.9020 C   0  0  0  0  0  0  0  0  0  0  0  0
   10.3060   -6.3020   -9.9180 C   0  0  0  0  0  0  0  0  0  0  0  0
   10.9630   -6.0970  -11.1280 C   0  0  0  0  0  0  0  0  0  0  0  0
   11.9730   -5.1440  -11.2250 C   0  0  0  0  0  0  0  0  0  0  0  0
   12.5810   -4.9650  -12.3580 F   0  0  0  0  0  0  0  0  0  0  0  0
   12.3420   -4.3840  -10.1120 C   0  0  0  0  0  0  0  0  0  0  0  0
   13.3390   -3.4030  -10.2340 C   0  0  0  0  0  0  0  0  0  0  0  0
   12.9560   -2.2380  -10.3380 O   0  0  0  0  0  0  0  0  0  0  0  0
   14.6510   -3.7340  -10.3010 N   0  0  0  0  0  0  0  0  0  0  0  0
   15.6890   -2.6840  -10.4470 C   0  0  0  0  0  0  0  0  0  0  0  0
   16.7500   -2.9210   -9.4200 C   0  0  0  0  0  0  0  0  0  0  0  0
   16.1390   -2.7360   -8.0240 C   0  0  0  0  0  0  0  0  0  0  0  0
   15.0810   -5.1230  -10.1250 C   0  0  0  0  0  0  0  0  0  0  0  0
   16.5430   -5.2730  -10.3310 C   0  0  0  0  0  0  0  0  0  0  0  0
   17.3710   -4.2700   -9.5860 N   0  0  0  0  0  0  0  0  0  0  0  0
   18.6870   -4.0900  -10.2250 C   0  0  0  0  0  0  0  0  0  0  0  0
   19.4620   -5.4020  -10.1280 C   0  0  0  0  0  0  0  0  0  0  0  0
   20.8520   -5.1550  -10.7550 C   0  0  0  0  0  0  0  0  0  0  0  0
   10.9501   -2.8943   -4.2497 H   0  0  0  0  0  0  0  0  0  0  0  0
    7.0310   -0.9117   -5.9679 H   0  0  0  0  0  0  0  0  0  0  0  0
    5.4688   -1.4856   -7.8218 H   0  0  0  0  0  0  0  0  0  0  0  0
    5.8837   -3.5222   -9.2007 H   0  0  0  0  0  0  0  0  0  0  0  0
    7.8489   -4.9637   -8.7393 H   0  0  0  0  0  0  0  0  0  0  0  0
    9.0448   -6.3241   -7.7925 H   0  0  0  0  0  0  0  0  0  0  0  0
   10.6662   -6.3858   -6.9550 H   0  0  0  0  0  0  0  0  0  0  0  0
   11.9615   -3.9915   -8.0203 H   0  0  0  0  0  0  0  0  0  0  0  0
    9.5204   -7.0683   -9.8435 H   0  0  0  0  0  0  0  0  0  0  0  0
   10.6830   -6.6904  -12.0109 H   0  0  0  0  0  0  0  0  0  0  0  0
   16.1291   -2.7345  -11.4539 H   0  0  0  0  0  0  0  0  0  0  0  0
   15.2419   -1.6891  -10.3049 H   0  0  0  0  0  0  0  0  0  0  0  0
   17.5612   -2.1897   -9.5509 H   0  0  0  0  0  0  0  0  0  0  0  0
   16.8957   -2.9651   -7.2592 H   0  0  0  0  0  0  0  0  0  0  0  0
   15.8020   -1.6955   -7.9062 H   0  0  0  0  0  0  0  0  0  0  0  0
   15.2814   -3.4148   -7.9062 H   0  0  0  0  0  0  0  0  0  0  0  0
   14.5513   -5.7555  -10.8526 H   0  0  0  0  0  0  0  0  0  0  0  0
   14.8459   -5.4278   -9.0946 H   0  0  0  0  0  0  0  0  0  0  0  0
   16.8374   -6.2794   -9.9987 H   0  0  0  0  0  0  0  0  0  0  0  0
   16.7315   -5.1078  -11.4021 H   0  0  0  0  0  0  0  0  0  0  0  0
   19.2428   -3.2928   -9.7096 H   0  0  0  0  0  0  0  0  0  0  0  0
   18.5558   -3.8094  -11.2805 H   0  0  0  0  0  0  0  0  0  0  0  0
   18.9343   -6.1938  -10.6799 H   0  0  0  0  0  0  0  0  0  0  0  0
   19.5563   -5.7248   -9.0807 H   0  0  0  0  0  0  0  0  0  0  0  0
   21.5964   -5.0227   -9.9560 H   0  0  0  0  0  0  0  0  0  0  0  0
   21.1318   -6.0175  -11.3777 H   0  0  0  0  0  0  0  0  0  0  0  0
   20.8176   -4.2489  -11.3777 H   0  0  0  0  0  0  0  0  0  0  0  0
 19 18  1  0
 18 17  2  0
 18 20  1  0
 17 16  1  0
 32 31  1  0
 24 23  1  0
 24 25  1  0
 22 21  2  0
 28 27  1  0
 28 29  1  0
 23 21  1  0
 23 27  1  0
 21 20  1  0
 30 31  1  0
 30 29  1  0
 20 15  2  0
 16 14  2  0
 29 25  1  0
 25 26  1  0
 15 14  1  0
 14 13  1  0
  9 10  1  0
  9  8  2  0
 10 11  2  0
  8  7  1  0
 13 12  1  0
 11 12  1  0
 11  6  1  0
 12  2  1  0
  7  6  2  0
  6  4  1  0
  2  1  2  0
  2  3  1  0
  4  3  1  0
  4  5  2  0
  3 33  1  0
  7 34  1  0
  8 35  1  0
  9 36  1  0
 10 37  1  0
 13 38  1  0
 13 39  1  0
 15 40  1  0
 16 41  1  0
 17 42  1  0
 24 43  1  0
 24 44  1  0
 25 45  1  0
 26 46  1  0
 26 47  1  0
 26 48  1  0
 27 49  1  0
 27 50  1  0
 28 51  1  0
 28 52  1  0
 30 53  1  0
 30 54  1  0
 31 55  1  0
 31 56  1  0
 32 57  1  0
 32 58  1  0
 32 59  1  0
A    1
OAE
A    2
CAZ
A    3
NAT
A    4
CAY
A    5
OAD
A    6
CBA
A    7
CAK
A    8
CAG
A    9
CAH
A   10
CAL
A   11
CBB
A   12
NBF
A   13
CAR
A   14
CAV
A   15
CAM
A   16
CAI
A   17
CAJ
A   18
CAW
A   19
FAF
A   20
CAX
A   21
CAU
A   22
OAC
A   23
NBD
A   24
CAS
A   25
CBC
A   26
CAB
A   27
CAO
A   28
CAQ
A   29
NBE
A   30
CAP
A   31
CAN
A   32
CAA
M  END
