5DV5_PKZ_A_301
     RDKit          3D

131133  0  0  0  0  0  0  0  0999 V2000
   18.8040   21.2900    7.5710 C   0  0  0  0  0  0  0  0  0  0  0  0
   19.8020   23.5330    7.9100 C   0  0  0  0  0  0  0  0  0  0  0  0
   22.5170   16.6760    3.4850 C   0  0  0  0  0  0  0  0  0  0  0  0
   22.8440   16.9430    5.9710 C   0  0  0  0  0  0  0  0  0  0  0  0
   22.6920   18.4430    6.2800 C   0  0  0  0  0  0  0  0  0  0  0  0
   20.7040   19.6700    7.2070 C   0  0  0  0  0  0  0  0  0  0  0  0
   22.6960   17.8710    2.5320 C   0  0  0  0  0  0  0  0  0  0  0  0
   23.7520   18.4030    0.2880 C   0  0  0  0  0  0  0  0  0  0  0  0
   26.0950   16.8470   -2.3280 C   0  0  0  0  0  0  0  0  0  0  0  0
   25.4150   16.9570   -0.9700 C   0  0  0  0  0  0  0  0  0  0  0  0
   24.1300   17.8310   -1.0970 C   0  0  0  0  0  0  0  0  0  0  0  0
   35.6680   27.1470   -0.8640 N   0  0  0  0  0  0  0  0  0  0  0  0
   34.7010   28.0800   -0.8000 C   0  0  0  0  0  0  0  0  0  0  0  0
   34.7740   29.2340   -1.4710 N   0  0  0  0  0  0  0  0  0  0  0  0
   35.8420   29.5060   -2.2490 C   0  0  0  0  0  0  0  0  0  0  0  0
   36.9000   28.5150   -2.3350 C   0  0  0  0  0  0  0  0  0  0  0  0
   36.7580   27.3460   -1.6160 C   0  0  0  0  0  0  0  0  0  0  0  0
   37.7660   26.3570   -1.6740 N   0  0  0  0  0  0  0  0  0  0  0  0
   37.8880   29.0830   -3.2300 N   0  0  0  0  0  0  0  0  0  0  0  0
   37.4340   30.2960   -3.6220 C   0  0  0  0  0  0  0  0  0  0  0  0
   36.2700   30.4980   -3.0470 N   0  0  0  0  0  0  0  0  0  0  0  0
   35.5580   31.6850   -3.2680 C   0  0  0  0  0  0  0  0  0  0  0  0
   34.9640   31.7110   -4.6240 C   0  0  0  0  0  0  0  0  0  0  0  0
   35.8260   32.4600   -5.5230 O   0  0  0  0  0  0  0  0  0  0  0  0
   33.6760   32.3720   -4.5140 C   0  0  0  0  0  0  0  0  0  0  0  0
   33.7170   33.6480   -5.2350 O   0  0  0  0  0  0  0  0  0  0  0  0
   32.3840   34.5350   -5.3480 P   0  0  0  0  0  0  0  0  0  0  0  0
   31.1310   33.8070   -5.0340 O   0  0  0  0  0  0  0  0  0  0  0  0
   32.3620   35.7200   -4.4430 O   0  0  0  0  0  0  0  0  0  0  0  0
   32.1440   35.1000   -6.6940 O   0  0  0  0  0  0  0  0  0  0  0  0
   33.4210   32.6110   -3.0780 C   0  0  0  0  0  0  0  0  0  0  0  0
   34.4390   31.8420   -2.3100 O   0  0  0  0  0  0  0  0  0  0  0  0
   32.0510   32.1610   -2.7010 C   0  0  0  0  0  0  0  0  0  0  0  0
   31.6270   32.8400   -1.4930 O   0  0  0  0  0  0  0  0  0  0  0  0
   32.2920   32.4110   -0.1000 P   0  0  0  0  0  0  0  0  0  0  0  0
   31.5580   32.9850    1.0600 O   0  0  0  0  0  0  0  0  0  0  0  0
   33.6280   33.0420    0.0780 O   0  0  0  0  0  0  0  0  0  0  0  0
   32.3830   30.8200   -0.0070 O   0  0  0  0  0  0  0  0  0  0  0  0
   31.1550   29.8170   -0.3080 P   0  0  0  0  0  0  0  0  0  0  0  0
   31.5950   28.6560   -1.1120 O   0  0  0  0  0  0  0  0  0  0  0  0
   30.1520   30.4220   -1.2050 O   0  0  0  0  0  0  0  0  0  0  0  0
   30.4810   29.3370    1.0710 O   0  0  0  0  0  0  0  0  0  0  0  0
   28.4330   29.9270    2.2120 C   0  0  0  0  0  0  0  0  0  0  0  0
   29.8910   30.3190    1.9140 C   0  0  0  0  0  0  0  0  0  0  0  0
   28.1230   30.2450    3.6830 C   0  0  0  0  0  0  0  0  0  0  0  0
   27.4830   30.7350    1.2930 C   0  0  0  0  0  0  0  0  0  0  0  0
   28.2320   28.4090    1.9550 C   0  0  0  0  0  0  0  0  0  0  0  0
   29.3550   27.7090    2.3730 O   0  0  0  0  0  0  0  0  0  0  0  0
   27.0370   27.9200    2.7350 C   0  0  0  0  0  0  0  0  0  0  0  0
   25.9080   28.2330    2.3940 O   0  0  0  0  0  0  0  0  0  0  0  0
   27.2440   27.0730    3.8940 N   0  0  0  0  0  0  0  0  0  0  0  0
   26.1130   26.5970    4.6540 C   0  0  0  0  0  0  0  0  0  0  0  0
   25.9170   27.4800    5.8690 C   0  0  0  0  0  0  0  0  0  0  0  0
   25.1020   26.6980    6.9060 C   0  0  0  0  0  0  0  0  0  0  0  0
   25.6320   25.8220    7.5560 O   0  0  0  0  0  0  0  0  0  0  0  0
   23.6980   27.0000    7.1020 N   0  0  0  0  0  0  0  0  0  0  0  0
   22.9310   26.2520    8.0760 C   0  0  0  0  0  0  0  0  0  0  0  0
   21.9160   25.4090    7.3290 C   0  0  0  0  0  0  0  0  0  0  0  0
   21.4950   23.9610    8.2680 S   0  0  0  0  0  0  0  0  0  0  0  0
   19.1740   24.1780    7.1050 O   0  0  0  0  0  0  0  0  0  0  0  0
   19.1410   22.3570    8.6150 C   0  0  0  0  0  0  0  0  0  0  0  0
   20.0590   20.9850    6.7160 C   0  0  0  0  0  0  0  0  0  0  0  0
   21.2600   18.8790    6.0050 C   0  0  0  0  0  0  0  0  0  0  0  0
   23.5630   16.7610    4.6200 C   0  0  0  0  0  0  0  0  0  0  0  0
   22.9430   17.3490    1.0910 C   0  0  0  0  0  0  0  0  0  0  0  0
   17.9975   21.6573    6.9193 H   0  0  0  0  0  0  0  0  0  0  0  0
   18.4767   20.3714    8.0800 H   0  0  0  0  0  0  0  0  0  0  0  0
   21.5053   16.6992    3.9162 H   0  0  0  0  0  0  0  0  0  0  0  0
   22.6564   15.7381    2.9273 H   0  0  0  0  0  0  0  0  0  0  0  0
   21.8487   16.4773    5.9211 H   0  0  0  0  0  0  0  0  0  0  0  0
   23.4359   16.4656    6.7658 H   0  0  0  0  0  0  0  0  0  0  0  0
   22.9333   18.6251    7.3377 H   0  0  0  0  0  0  0  0  0  0  0  0
   23.3779   19.0187    5.6411 H   0  0  0  0  0  0  0  0  0  0  0  0
   19.9466   19.0630    7.7246 H   0  0  0  0  0  0  0  0  0  0  0  0
   21.5267   19.9054    7.8982 H   0  0  0  0  0  0  0  0  0  0  0  0
   23.5571   18.4735    2.8567 H   0  0  0  0  0  0  0  0  0  0  0  0
   21.7883   18.4922    2.5472 H   0  0  0  0  0  0  0  0  0  0  0  0
   24.6687   18.6576    0.8402 H   0  0  0  0  0  0  0  0  0  0  0  0
   23.1375   19.3052    0.1522 H   0  0  0  0  0  0  0  0  0  0  0  0
   27.1718   16.6728   -2.1858 H   0  0  0  0  0  0  0  0  0  0  0  0
   25.6588   16.0077   -2.8896 H   0  0  0  0  0  0  0  0  0  0  0  0
   25.9456   17.7810   -2.8896 H   0  0  0  0  0  0  0  0  0  0  0  0
   25.1408   15.9524   -0.6156 H   0  0  0  0  0  0  0  0  0  0  0  0
   26.1054   17.4251   -0.2529 H   0  0  0  0  0  0  0  0  0  0  0  0
   24.3184   18.6592   -1.7959 H   0  0  0  0  0  0  0  0  0  0  0  0
   23.3030   17.2114   -1.4740 H   0  0  0  0  0  0  0  0  0  0  0  0
   33.8183   27.8864   -0.1729 H   0  0  0  0  0  0  0  0  0  0  0  0
   38.1594   25.9710   -0.8039 H   0  0  0  0  0  0  0  0  0  0  0  0
   38.1072   26.0223   -2.5864 H   0  0  0  0  0  0  0  0  0  0  0  0
   37.9487   30.9905   -4.3022 H   0  0  0  0  0  0  0  0  0  0  0  0
   36.2876   32.4986   -3.1426 H   0  0  0  0  0  0  0  0  0  0  0  0
   34.8494   30.6922   -5.0227 H   0  0  0  0  0  0  0  0  0  0  0  0
   36.4575   33.0088   -4.9937 H   0  0  0  0  0  0  0  0  0  0  0  0
   32.8779   31.7521   -4.9484 H   0  0  0  0  0  0  0  0  0  0  0  0
   31.0230   33.7443   -4.0519 H   0  0  0  0  0  0  0  0  0  0  0  0
   32.3676   35.4159   -3.5009 H   0  0  0  0  0  0  0  0  0  0  0  0
   33.4901   33.6860   -2.8554 H   0  0  0  0  0  0  0  0  0  0  0  0
   31.3518   32.3963   -3.5169 H   0  0  0  0  0  0  0  0  0  0  0  0
   32.0610   31.0755   -2.5234 H   0  0  0  0  0  0  0  0  0  0  0  0
   31.9684   32.6640    1.9018 H   0  0  0  0  0  0  0  0  0  0  0  0
   31.8730   27.9226   -0.5079 H   0  0  0  0  0  0  0  0  0  0  0  0
   30.4547   30.3801    2.8566 H   0  0  0  0  0  0  0  0  0  0  0  0
   29.9132   31.2968    1.4107 H   0  0  0  0  0  0  0  0  0  0  0  0
   28.7421   29.6100    4.3338 H   0  0  0  0  0  0  0  0  0  0  0  0
   28.3456   31.3033    3.8842 H   0  0  0  0  0  0  0  0  0  0  0  0
   27.0594   30.0494    3.8842 H   0  0  0  0  0  0  0  0  0  0  0  0
   26.7895   31.3248    1.9104 H   0  0  0  0  0  0  0  0  0  0  0  0
   28.0744   31.4111    0.6580 H   0  0  0  0  0  0  0  0  0  0  0  0
   26.9106   30.0428    0.6580 H   0  0  0  0  0  0  0  0  0  0  0  0
   28.0718   28.2459    0.8790 H   0  0  0  0  0  0  0  0  0  0  0  0
   29.3835   27.6913    3.3624 H   0  0  0  0  0  0  0  0  0  0  0  0
   28.1995   26.8108    4.1752 H   0  0  0  0  0  0  0  0  0  0  0  0
   25.2097   26.6292    4.0272 H   0  0  0  0  0  0  0  0  0  0  0  0
   26.2966   25.5618    4.9774 H   0  0  0  0  0  0  0  0  0  0  0  0
   26.8950   27.7520    6.2928 H   0  0  0  0  0  0  0  0  0  0  0  0
   25.3865   28.4013    5.5864 H   0  0  0  0  0  0  0  0  0  0  0  0
   23.2475   27.7441    6.5504 H   0  0  0  0  0  0  0  0  0  0  0  0
   23.6004   25.6012    8.6577 H   0  0  0  0  0  0  0  0  0  0  0  0
   22.4211   26.9382    8.7682 H   0  0  0  0  0  0  0  0  0  0  0  0
   21.0077   26.0050    7.1566 H   0  0  0  0  0  0  0  0  0  0  0  0
   22.3526   25.0952    6.3693 H   0  0  0  0  0  0  0  0  0  0  0  0
   18.2193   22.6933    9.1123 H   0  0  0  0  0  0  0  0  0  0  0  0
   19.8222   21.9409    9.3719 H   0  0  0  0  0  0  0  0  0  0  0  0
   20.7813   21.8085    6.8167 H   0  0  0  0  0  0  0  0  0  0  0  0
   19.7691   20.8814    5.6599 H   0  0  0  0  0  0  0  0  0  0  0  0
   21.2401   19.5173    5.1094 H   0  0  0  0  0  0  0  0  0  0  0  0
   20.6377   17.9864    5.8438 H   0  0  0  0  0  0  0  0  0  0  0  0
   24.1556   15.8345    4.6422 H   0  0  0  0  0  0  0  0  0  0  0  0
   24.2283   17.6185    4.4411 H   0  0  0  0  0  0  0  0  0  0  0  0
   21.9773   17.1727    0.5947 H   0  0  0  0  0  0  0  0  0  0  0  0
   23.5109   16.4080    1.1352 H   0  0  0  0  0  0  0  0  0  0  0  0
 30 27  2  0
 24 23  1  0
 27 26  1  0
 27 28  1  0
 27 29  1  0
 26 25  1  0
 23 25  1  0
 23 22  1  0
 25 31  1  0
 20 19  2  0
 20 21  1  0
 22 21  1  0
 22 32  1  0
 19 16  1  0
 31 33  1  0
 31 32  1  0
 21 15  1  0
 33 34  1  0
 16 15  2  0
 16 17  1  0
  9 10  1  0
 15 14  1  0
 18 17  1  0
 17 12  2  0
 34 35  1  0
 14 13  2  0
 41 39  2  0
 40 39  1  0
 11 10  1  0
 11  8  1  0
 12 13  1  0
 39 38  1  0
 39 42  1  0
 35 38  1  0
 35 37  2  0
 35 36  1  0
  8 65  1  0
 42 44  1  0
 65  7  1  0
 46 43  1  0
 44 43  1  0
 47 43  1  0
 47 48  1  0
 47 49  1  0
 43 45  1  0
 50 49  2  0
  7  3  1  0
 49 51  1  0
  3 64  1  0
 51 52  1  0
 64  4  1  0
 52 53  1  0
 53 54  1  0
  4  5  1  0
 63  5  1  0
 63  6  1  0
 62  6  1  0
 62  1  1  0
 54 56  1  0
 54 55  2  0
 56 57  1  0
 60  2  2  0
 58 57  1  0
 58 59  1  0
  1 61  1  0
  2 59  1  0
  2 61  1  0
  1 66  1  0
  1 67  1  0
  3 68  1  0
  3 69  1  0
  4 70  1  0
  4 71  1  0
  5 72  1  0
  5 73  1  0
  6 74  1  0
  6 75  1  0
  7 76  1  0
  7 77  1  0
  8 78  1  0
  8 79  1  0
  9 80  1  0
  9 81  1  0
  9 82  1  0
 10 83  1  0
 10 84  1  0
 11 85  1  0
 11 86  1  0
 13 87  1  0
 18 88  1  0
 18 89  1  0
 20 90  1  0
 22 91  1  0
 23 92  1  0
 24 93  1  0
 25 94  1  0
 28 95  1  0
 29 96  1  0
 31 97  1  0
 33 98  1  0
 33 99  1  0
 36100  1  0
 40101  1  0
 44102  1  0
 44103  1  0
 45104  1  0
 45105  1  0
 45106  1  0
 46107  1  0
 46108  1  0
 46109  1  0
 47110  1  0
 48111  1  0
 51112  1  0
 52113  1  0
 52114  1  0
 53115  1  0
 53116  1  0
 56117  1  0
 57118  1  0
 57119  1  0
 58120  1  0
 58121  1  0
 61122  1  0
 61123  1  0
 62124  1  0
 62125  1  0
 63126  1  0
 63127  1  0
 64128  1  0
 64129  1  0
 65130  1  0
 65131  1  0
A    1
C3
A    2
C1
A    3
C10
A    4
C8
A    5
C7
A    6
C5
A    7
C11
A    8
C13
A    9
C16
A   10
C15
A   11
C14
A   12
N1A
A   13
C2A
A   14
N3A
A   15
C4A
A   16
C5A
A   17
C6A
A   18
N6A
A   19
N7A
A   20
C8A
A   21
N9A
A   22
C1B
A   23
C2B
A   24
O2B
A   25
C3B
A   26
O3B
A   27
P3B
A   28
O7A
A   29
O8A
A   30
O9A
A   31
C4B
A   32
O4B
A   33
C5B
A   34
O5B
A   35
P1A
A   36
O1A
A   37
O2A
A   38
O3A
A   39
P2A
A   40
O4A
A   41
O5A
A   42
O6A
A   43
CBP
A   44
CCP
A   45
CDP
A   46
CEP
A   47
CAP
A   48
OAP
A   49
C9P
A   50
O9P
A   51
N8P
A   52
C7P
A   53
C6P
A   54
C5P
A   55
O5P
A   56
N4P
A   57
C3P
A   58
C2P
A   59
S1P
A   60
O1
A   61
C2
A   62
C4
A   63
C6
A   64
C9
A   65
C12
M  END
