5KQG_6VX_A_200
     RDKit          3D

 35 37  0  0  0  0  0  0  0  0999 V2000
   -2.3320    7.1350   -2.2690 O   0  0  0  0  0  0  0  0  0  0  0  0
   -2.4050    8.5850   -2.0960 S   0  0  0  0  0  0  0  0  0  0  0  0
   -3.6400    9.1580   -2.6030 O   0  0  0  0  0  0  0  0  0  0  0  0
   -1.2770    9.2960   -2.6680 O   0  0  0  0  0  0  0  0  0  0  0  0
   -2.4640    8.8060   -0.3470 C   0  0  0  0  0  0  0  0  0  0  0  0
   -2.7030   10.2260    0.0200 C   0  0  0  0  0  0  0  0  0  0  0  0
   -2.2920   11.2210   -0.5750 O   0  0  0  0  0  0  0  0  0  0  0  0
   -3.4830   10.3360    1.1790 N   0  0  0  0  0  0  0  0  0  0  0  0
   -3.6800   11.5690    1.8020 C   0  0  0  0  0  0  0  0  0  0  0  0
   -4.1580   11.5430    3.0890 N   0  0  0  0  0  0  0  0  0  0  0  0
   -4.1760   12.8880    3.5950 C   0  0  0  0  0  0  0  0  0  0  0  0
   -4.6540   13.1820    4.8960 C   0  0  0  0  0  0  0  0  0  0  0  0
   -4.6690   14.5030    5.3050 C   0  0  0  0  0  0  0  0  0  0  0  0
   -4.2330   15.4990    4.4300 C   0  0  0  0  0  0  0  0  0  0  0  0
   -3.7590   15.1920    3.1490 C   0  0  0  0  0  0  0  0  0  0  0  0
   -3.7310   13.8620    2.7150 C   0  0  0  0  0  0  0  0  0  0  0  0
   -3.2570   13.1110    1.2740 S   0  0  0  0  0  0  0  0  0  0  0  0
   -1.1970    8.3990    0.3880 C   0  0  0  0  0  0  0  0  0  0  0  0
   -1.0740    7.1290    0.9400 C   0  0  0  0  0  0  0  0  0  0  0  0
    0.0790    6.7440    1.6220 C   0  0  0  0  0  0  0  0  0  0  0  0
    1.1220    7.6540    1.7800 C   0  0  0  0  0  0  0  0  0  0  0  0
    1.0040    8.9370    1.2460 C   0  0  0  0  0  0  0  0  0  0  0  0
   -0.1480    9.3080    0.5590 C   0  0  0  0  0  0  0  0  0  0  0  0
   -2.3100    6.6974   -1.3812 H   0  0  0  0  0  0  0  0  0  0  0  0
   -3.2904    8.1475   -0.0414 H   0  0  0  0  0  0  0  0  0  0  0  0
   -3.9184    9.4921    1.5779 H   0  0  0  0  0  0  0  0  0  0  0  0
   -5.0040   12.3805    5.5632 H   0  0  0  0  0  0  0  0  0  0  0  0
   -5.0221   14.7668    6.3128 H   0  0  0  0  0  0  0  0  0  0  0  0
   -4.2625   16.5497    4.7544 H   0  0  0  0  0  0  0  0  0  0  0  0
   -3.4089   15.9955    2.4843 H   0  0  0  0  0  0  0  0  0  0  0  0
   -1.9032    6.4137    0.8365 H   0  0  0  0  0  0  0  0  0  0  0  0
    0.1649    5.7274    2.0332 H   0  0  0  0  0  0  0  0  0  0  0  0
    2.0332    7.3623    2.3227 H   0  0  0  0  0  0  0  0  0  0  0  0
    1.8250    9.6588    1.3684 H   0  0  0  0  0  0  0  0  0  0  0  0
   -0.2342   10.3244    0.1472 H   0  0  0  0  0  0  0  0  0  0  0  0
  4  2  2  0
  3  2  2  0
  1  2  1  0
  2  5  1  0
  7  6  2  0
  5  6  1  0
  5 18  1  0
  6  8  1  0
 18 23  1  0
 18 19  2  0
 23 22  2  0
 19 20  1  0
  8  9  1  0
 22 21  1  0
 17  9  1  0
 17 16  1  0
 20 21  2  0
  9 10  2  0
 16 15  1  0
 16 11  2  0
 10 11  1  0
 15 14  2  0
 11 12  1  0
 14 13  1  0
 12 13  2  0
  1 24  1  0
  5 25  1  0
  8 26  1  0
 12 27  1  0
 13 28  1  0
 14 29  1  0
 15 30  1  0
 19 31  1  0
 20 32  1  0
 21 33  1  0
 22 34  1  0
 23 35  1  0
A    1
O01
A    2
S02
A    3
O03
A    4
O04
A    5
C05
A    6
C06
A    7
O07
A    8
N08
A    9
C09
A   10
N10
A   11
C11
A   12
C12
A   13
C13
A   14
C14
A   15
C15
A   16
C16
A   17
S17
A   18
C18
A   19
C19
A   20
C20
A   21
C21
A   22
C22
A   23
C23
M  END
