5KQL_6VY_A_200
     RDKit          3D

 33 34  0  0  0  0  0  0  0  0999 V2000
    3.5590   10.7320   -1.0920 N   0  0  0  0  0  0  0  0  0  0  0  0
    2.6550   10.5870    0.0040 C   0  0  0  0  0  0  0  0  0  0  0  0
    2.1280   11.5460    0.5680 O   0  0  0  0  0  0  0  0  0  0  0  0
    2.3770    9.1940    0.4530 C   0  0  0  0  0  0  0  0  0  0  0  0
    1.2190    8.7130   -0.2930 C   0  0  0  0  0  0  0  0  0  0  0  0
    0.1360    9.5250   -0.4700 C   0  0  0  0  0  0  0  0  0  0  0  0
   -1.0110    9.0680   -1.2000 C   0  0  0  0  0  0  0  0  0  0  0  0
   -1.0480    7.8010   -1.7280 C   0  0  0  0  0  0  0  0  0  0  0  0
    0.0270    6.9600   -1.5500 C   0  0  0  0  0  0  0  0  0  0  0  0
    1.1790    7.4210   -0.8320 C   0  0  0  0  0  0  0  0  0  0  0  0
    2.4270    8.8980    2.1740 S   0  0  0  0  0  0  0  0  0  0  0  0
    3.6650    9.4860    2.6790 O   0  0  0  0  0  0  0  0  0  0  0  0
    2.3770    7.4980    2.3920 O   0  0  0  0  0  0  0  0  0  0  0  0
    1.2250    9.4970    2.7560 O   0  0  0  0  0  0  0  0  0  0  0  0
    3.8250   11.9710   -1.7710 C   0  0  0  0  0  0  0  0  0  0  0  0
    3.5470   13.2680   -1.2620 C   0  0  0  0  0  0  0  0  0  0  0  0
    3.7800   14.3820   -2.0840 C   0  0  0  0  0  0  0  0  0  0  0  0
    4.2200   14.2180   -3.3830 C   0  0  0  0  0  0  0  0  0  0  0  0
    4.4490   12.9140   -3.9050 C   0  0  0  0  0  0  0  0  0  0  0  0
    4.2280   11.8180   -3.0850 C   0  0  0  0  0  0  0  0  0  0  0  0
    4.0549    9.8904   -1.4187 H   0  0  0  0  0  0  0  0  0  0  0  0
    3.2316    8.5499    0.1982 H   0  0  0  0  0  0  0  0  0  0  0  0
    0.1430   10.5409   -0.0482 H   0  0  0  0  0  0  0  0  0  0  0  0
   -1.8707    9.7401   -1.3384 H   0  0  0  0  0  0  0  0  0  0  0  0
   -1.9306    7.4605   -2.2893 H   0  0  0  0  0  0  0  0  0  0  0  0
    0.0023    5.9384   -1.9570 H   0  0  0  0  0  0  0  0  0  0  0  0
    2.0423    6.7516   -0.7028 H   0  0  0  0  0  0  0  0  0  0  0  0
    2.3705    7.3156    3.3650 H   0  0  0  0  0  0  0  0  0  0  0  0
    3.1561   13.3970   -0.2419 H   0  0  0  0  0  0  0  0  0  0  0  0
    3.6106   15.3949   -1.6899 H   0  0  0  0  0  0  0  0  0  0  0  0
    4.3943   15.0997   -4.0172 H   0  0  0  0  0  0  0  0  0  0  0  0
    4.7951   12.7781   -4.9403 H   0  0  0  0  0  0  0  0  0  0  0  0
    4.3764   10.8054   -3.4882 H   0  0  0  0  0  0  0  0  0  0  0  0
  1  2  1  0
  1 15  1  0
  2  3  2  0
  2  4  1  0
  4  5  1  0
  4 11  1  0
  5  6  2  0
  5 10  1  0
  6  7  1  0
  7  8  2  0
  8  9  1  0
  9 10  2  0
 11 12  2  0
 11 13  1  0
 11 14  2  0
 15 16  2  0
 15 20  1  0
 16 17  1  0
 17 18  2  0
 18 19  1  0
 19 20  2  0
  1 21  1  0
  4 22  1  0
  6 23  1  0
  7 24  1  0
  8 25  1  0
  9 26  1  0
 10 27  1  0
 13 28  1  0
 16 29  1  0
 17 30  1  0
 18 31  1  0
 19 32  1  0
 20 33  1  0
A    1
N01
A    2
C02
A    3
O03
A    4
C04
A    5
C05
A    6
C06
A    7
C07
A    8
C08
A    9
C09
A   10
C10
A   11
S11
A   12
O12
A   13
O13
A   14
O14
A   15
C15
A   16
C16
A   17
C17
A   18
C18
A   19
C19
A   20
C20
M  END
