5KR7_6X9_A_403
     RDKit          3D

 28 29  0  0  0  0  0  0  0  0999 V2000
   32.8530   48.3770    8.9230 C   0  0  0  0  0  0  0  0  0  0  0  0
   31.8910   46.9120   10.6060 C   0  0  0  0  0  0  0  0  0  0  0  0
   33.8730   48.0610   11.1150 C   0  0  0  0  0  0  0  0  0  0  0  0
   33.9030   48.6780    9.8300 C   0  0  0  0  0  0  0  0  0  0  0  0
   31.8000   47.5290    9.3400 N   0  0  0  0  0  0  0  0  0  0  0  0
   30.7830   46.0760   10.6420 C   0  0  0  0  0  0  0  0  0  0  0  0
   30.2060   46.1400    9.3810 C   0  0  0  0  0  0  0  0  0  0  0  0
   35.0090   49.6410    9.3880 C   0  0  0  0  0  0  0  0  0  0  0  0
   36.0430   48.7860    8.6340 C   0  0  0  0  0  0  0  0  0  0  0  0
   34.9810   48.3130   12.1640 C   0  0  0  0  0  0  0  0  0  0  0  0
   28.8750   45.4830    8.9930 C   0  0  0  0  0  0  0  0  0  0  0  0
   30.3510   45.1720   11.6720 C   0  0  0  0  0  0  0  0  0  0  0  0
   32.9290   47.1590   11.4450 N   0  0  0  0  0  0  0  0  0  0  0  0
   29.9680   44.4220   12.4450 N   0  0  0  0  0  0  0  0  0  0  0  0
   30.8410   47.0640    8.6820 N   0  0  0  0  0  0  0  0  0  0  0  0
   32.8170   48.8490    7.7680 O   0  0  0  0  0  0  0  0  0  0  0  0
   35.4733   50.1171   10.2642 H   0  0  0  0  0  0  0  0  0  0  0  0
   34.6112   50.4449    8.7512 H   0  0  0  0  0  0  0  0  0  0  0  0
   36.6809   48.2585    9.3585 H   0  0  0  0  0  0  0  0  0  0  0  0
   35.5212   48.0520    8.0023 H   0  0  0  0  0  0  0  0  0  0  0  0
   36.6659   49.4364    8.0023 H   0  0  0  0  0  0  0  0  0  0  0  0
   34.5577   48.2167   13.1747 H   0  0  0  0  0  0  0  0  0  0  0  0
   35.7859   47.5750   12.0317 H   0  0  0  0  0  0  0  0  0  0  0  0
   35.3875   49.3265   12.0317 H   0  0  0  0  0  0  0  0  0  0  0  0
   28.3217   45.2099    9.9036 H   0  0  0  0  0  0  0  0  0  0  0  0
   28.2769   46.1894    8.3986 H   0  0  0  0  0  0  0  0  0  0  0  0
   29.0720   44.5787    8.3986 H   0  0  0  0  0  0  0  0  0  0  0  0
   32.9951   46.6533   12.3399 H   0  0  0  0  0  0  0  0  0  0  0  0
 16  1  2  0
  9  8  1  0
 15  5  1  0
 15  7  2  0
  1  5  1  0
  1  4  1  0
 11  7  1  0
  5  2  1  0
  7  6  1  0
  8  4  1  0
  4  3  2  0
  2  6  2  0
  2 13  1  0
  6 12  1  0
  3 13  1  0
  3 10  1  0
 12 14  3  0
  8 17  1  0
  8 18  1  0
  9 19  1  0
  9 20  1  0
  9 21  1  0
 10 22  1  0
 10 23  1  0
 10 24  1  0
 11 25  1  0
 11 26  1  0
 11 27  1  0
 13 28  1  0
A    1
C1
A    2
C3
A    3
C5
A    4
C6
A    5
N2
A    6
C7
A    7
C8
A    8
C11
A    9
C12
A   10
C13
A   11
C14
A   12
C15
A   13
N4
A   14
N16
A   15
N9
A   16
O10
M  END
