5KRH_6WN_A_601
     RDKit          3D

 53 57  0  0  0  0  0  0  0  0999 V2000
  -22.1120  -27.7380   -7.8430 O   0  0  0  0  0  0  0  0  0  0  0  0
  -20.9530  -27.4720   -7.6120 C   0  0  0  0  0  0  0  0  0  0  0  0
  -20.5150  -26.7310   -6.5700 C   0  0  0  0  0  0  0  0  0  0  0  0
  -20.5600  -25.2760   -6.9980 C   0  0  0  0  0  0  0  0  0  0  0  0
  -21.2790  -26.8620   -5.3000 C   0  0  0  0  0  0  0  0  0  0  0  0
  -20.5650  -26.0630   -4.2180 C   0  0  0  0  0  0  0  0  0  0  0  0
  -19.0980  -26.4820   -4.1090 C   0  0  0  0  0  0  0  0  0  0  0  0
  -18.3860  -25.8670   -3.0530 C   0  0  0  0  0  0  0  0  0  0  0  0
  -19.0230  -25.5240   -1.8870 C   0  0  0  0  0  0  0  0  0  0  0  0
  -18.3620  -24.9530   -0.8370 C   0  0  0  0  0  0  0  0  0  0  0  0
  -17.0200  -24.7440   -0.9310 C   0  0  0  0  0  0  0  0  0  0  0  0
  -16.3710  -24.1970    0.0770 O   0  0  0  0  0  0  0  0  0  0  0  0
  -16.3520  -25.1060   -2.0730 C   0  0  0  0  0  0  0  0  0  0  0  0
  -17.0220  -25.6730   -3.1270 C   0  0  0  0  0  0  0  0  0  0  0  0
  -16.2960  -26.0090   -4.2750 C   0  0  0  0  0  0  0  0  0  0  0  0
  -17.0510  -26.8390   -5.3670 C   0  0  0  0  0  0  0  0  0  0  0  0
  -18.4210  -26.3840   -5.4870 C   0  0  0  0  0  0  0  0  0  0  0  0
  -19.1810  -27.2970   -6.3860 C   0  0  0  0  0  0  0  0  0  0  0  0
  -18.7710  -27.3350   -7.8220 C   0  0  0  0  0  0  0  0  0  0  0  0
  -19.9430  -27.8190   -8.3720 C   0  0  0  0  0  0  0  0  0  0  0  0
  -20.1270  -28.5650   -9.4550 C   0  0  0  0  0  0  0  0  0  0  0  0
  -19.1120  -28.9430  -10.3030 C   0  0  0  0  0  0  0  0  0  0  0  0
  -17.9340  -28.2370  -10.3970 C   0  0  0  0  0  0  0  0  0  0  0  0
  -16.9460  -28.6050  -11.2860 C   0  0  0  0  0  0  0  0  0  0  0  0
  -17.1500  -29.6850  -12.1220 C   0  0  0  0  0  0  0  0  0  0  0  0
  -18.3500  -30.3760  -12.0420 C   0  0  0  0  0  0  0  0  0  0  0  0
  -19.3330  -30.0030  -11.1480 C   0  0  0  0  0  0  0  0  0  0  0  0
  -20.5799  -24.6320   -6.1065 H   0  0  0  0  0  0  0  0  0  0  0  0
  -19.6686  -25.0428   -7.5989 H   0  0  0  0  0  0  0  0  0  0  0  0
  -21.4641  -25.0984   -7.5989 H   0  0  0  0  0  0  0  0  0  0  0  0
  -22.2976  -26.4704   -5.4384 H   0  0  0  0  0  0  0  0  0  0  0  0
  -21.3406  -27.9203   -5.0063 H   0  0  0  0  0  0  0  0  0  0  0  0
  -20.6164  -24.9929   -4.4674 H   0  0  0  0  0  0  0  0  0  0  0  0
  -21.0586  -26.2569   -3.2543 H   0  0  0  0  0  0  0  0  0  0  0  0
  -19.0766  -27.5396   -3.8073 H   0  0  0  0  0  0  0  0  0  0  0  0
  -20.1023  -25.7154   -1.7949 H   0  0  0  0  0  0  0  0  0  0  0  0
  -18.9075  -24.6654    0.0739 H   0  0  0  0  0  0  0  0  0  0  0  0
  -16.6287  -24.4142    1.0079 H   0  0  0  0  0  0  0  0  0  0  0  0
  -15.2670  -24.9397   -2.1443 H   0  0  0  0  0  0  0  0  0  0  0  0
  -15.4213  -26.5951   -3.9565 H   0  0  0  0  0  0  0  0  0  0  0  0
  -16.0559  -25.0494   -4.7561 H   0  0  0  0  0  0  0  0  0  0  0  0
  -17.0452  -27.9018   -5.0834 H   0  0  0  0  0  0  0  0  0  0  0  0
  -16.5433  -26.7039   -6.3335 H   0  0  0  0  0  0  0  0  0  0  0  0
  -18.4164  -25.3553   -5.8765 H   0  0  0  0  0  0  0  0  0  0  0  0
  -19.0519  -28.2755   -5.9004 H   0  0  0  0  0  0  0  0  0  0  0  0
  -17.9245  -28.0168   -7.9908 H   0  0  0  0  0  0  0  0  0  0  0  0
  -18.4144  -26.3804   -8.2363 H   0  0  0  0  0  0  0  0  0  0  0  0
  -21.1488  -28.8996   -9.6871 H   0  0  0  0  0  0  0  0  0  0  0  0
  -17.7775  -27.3614   -9.7498 H   0  0  0  0  0  0  0  0  0  0  0  0
  -16.0019  -28.0421  -11.3289 H   0  0  0  0  0  0  0  0  0  0  0  0
  -16.3743  -29.9920  -12.8390 H   0  0  0  0  0  0  0  0  0  0  0  0
  -18.5214  -31.2378  -12.7038 H   0  0  0  0  0  0  0  0  0  0  0  0
  -20.2864  -30.5505  -11.1124 H   0  0  0  0  0  0  0  0  0  0  0  0
 25 26  2  0
 25 24  1  0
 26 27  1  0
 24 23  2  0
 27 22  2  0
 23 22  1  0
 22 21  1  0
 21 20  2  0
 20 19  1  0
 20  2  1  0
 19 18  1  0
  1  2  2  0
  2  3  1  0
  4  3  1  0
  3 18  1  0
  3  5  1  0
 18 17  1  0
 17 16  1  0
 17  7  1  0
 16 15  1  0
  5  6  1  0
 15 14  1  0
  6  7  1  0
  7  8  1  0
 14  8  2  0
 14 13  1  0
  8  9  1  0
 13 11  2  0
  9 10  2  0
 11 10  1  0
 11 12  1  0
  4 28  1  0
  4 29  1  0
  4 30  1  0
  5 31  1  0
  5 32  1  0
  6 33  1  0
  6 34  1  0
  7 35  1  0
  9 36  1  0
 10 37  1  0
 12 38  1  0
 13 39  1  0
 15 40  1  0
 15 41  1  0
 16 42  1  0
 16 43  1  0
 17 44  1  0
 18 45  1  0
 19 46  1  0
 19 47  1  0
 21 48  1  0
 23 49  1  0
 24 50  1  0
 25 51  1  0
 26 52  1  0
 27 53  1  0
A    1
O01
A    2
C01
A    3
C02
A    4
C03
A    5
C04
A    6
C05
A    7
C06
A    8
C07
A    9
C08
A   10
C09
A   11
C10
A   12
O02
A   13
C11
A   14
C12
A   15
C13
A   16
C14
A   17
C15
A   18
C16
A   19
C17
A   20
C18
A   21
C19
A   22
C20
A   23
C21
A   24
C22
A   25
C23
A   26
C24
A   27
C25
M  END
