1ADO_13P_A_1104
     RDKit          3D

 17 16  0  0  0  0  0  0  0  0999 V2000
   23.0580   27.2320   23.7810 P   0  0  0  0  0  0  0  0  0  0  0  0
   23.2740   25.7610   24.4310 O   0  0  0  0  0  0  0  0  0  0  0  0
   21.6730   26.9720   23.0650 O   0  0  0  0  0  0  0  0  0  0  0  0
   24.0790   27.5410   22.6520 O   0  0  0  0  0  0  0  0  0  0  0  0
   22.8890   28.5100   24.7710 O   0  0  0  0  0  0  0  0  0  0  0  0
   23.4170   29.8220   24.4360 C   0  0  0  0  0  0  0  0  0  0  0  0
   24.5750   30.2800   25.3010 C   0  0  0  0  0  0  0  0  0  0  0  0
   24.6250   29.9610   26.4860 O   0  0  0  0  0  0  0  0  0  0  0  0
   25.6620   31.1460   24.6940 C   0  0  0  0  0  0  0  0  0  0  0  0
   25.8750   30.7770   23.3430 O   0  0  0  0  0  0  0  0  0  0  0  0
   20.9683   26.8397   23.7477 H   0  0  0  0  0  0  0  0  0  0  0  0
   24.9453   27.8032   23.0532 H   0  0  0  0  0  0  0  0  0  0  0  0
   23.7593   29.7967   23.3909 H   0  0  0  0  0  0  0  0  0  0  0  0
   22.5998   30.5382   24.6072 H   0  0  0  0  0  0  0  0  0  0  0  0
   25.3554   32.2014   24.7397 H   0  0  0  0  0  0  0  0  0  0  0  0
   26.5951   31.0047   25.2592 H   0  0  0  0  0  0  0  0  0  0  0  0
   26.3696   29.9201   23.3090 H   0  0  0  0  0  0  0  0  0  0  0  0
  1  2  2  0
  1  3  1  0
  1  4  1  0
  1  5  1  0
  5  6  1  0
  6  7  1  0
  7  8  2  0
  7  9  1  0
  9 10  1  0
  3 11  1  0
  4 12  1  0
  6 13  1  0
  6 14  1  0
  9 15  1  0
  9 16  1  0
 10 17  1  0
A    1
P
A    2
O1P
A    3
O2P
A    4
O3P
A    5
O1
A    6
C1
A    7
C2
A    8
O2
A    9
C3
A   10
O3
M  END
