5KTP_ITN_A_403
     RDKit          3D

 15 14  0  0  0  0  0  0  0  0999 V2000
   17.3850   33.3560   10.9890 C   0  0  0  0  0  0  0  0  0  0  0  0
   16.6940   32.1300   10.4810 C   0  0  0  0  0  0  0  0  0  0  0  0
   15.2130   32.2190   10.7090 C   0  0  0  0  0  0  0  0  0  0  0  0
   14.4610   33.4860   10.6010 C   0  0  0  0  0  0  0  0  0  0  0  0
   13.2760   33.5080   10.9150 O   0  0  0  0  0  0  0  0  0  0  0  0
   14.9960   34.5190   10.2010 O   0  0  0  0  0  0  0  0  0  0  0  0
   14.5840   31.0900   11.0150 C   0  0  0  0  0  0  0  0  0  0  0  0
   18.1880   33.8950   10.2540 O   0  0  0  0  0  0  0  0  0  0  0  0
   17.1470   33.7940   12.1070 O   0  0  0  0  0  0  0  0  0  0  0  0
   17.0878   31.2492   11.0093 H   0  0  0  0  0  0  0  0  0  0  0  0
   16.8795   32.0433    9.4002 H   0  0  0  0  0  0  0  0  0  0  0  0
   13.0171   33.5128   11.8705 H   0  0  0  0  0  0  0  0  0  0  0  0
   13.4985   31.0960   11.1927 H   0  0  0  0  0  0  0  0  0  0  0  0
   15.1486   30.1490   11.0907 H   0  0  0  0  0  0  0  0  0  0  0  0
   17.4246   33.2831   12.9082 H   0  0  0  0  0  0  0  0  0  0  0  0
  6  4  2  0
  8  1  2  0
  2  3  1  0
  2  1  1  0
  4  3  1  0
  4  5  1  0
  3  7  2  3
  1  9  1  0
  2 10  1  0
  2 11  1  0
  5 12  1  0
  7 13  1  0
  7 14  1  0
  9 15  1  0
A    1
C1
A    2
C2
A    3
C3
A    4
C5
A    5
O3
A    6
O4
A    7
C4
A    8
O1
A    9
O2
M  END
