5KTU_6XB_A_1201
     RDKit          3D

 35 37  0  0  0  0  0  0  0  0999 V2000
   50.4150  121.5190    6.8480 C   0  0  0  0  0  0  0  0  0  0  0  0
   51.1710  120.4910    6.0470 C   0  0  0  0  0  0  0  0  0  0  0  0
   50.7390  120.6260    4.6440 N   0  0  0  0  0  0  0  0  0  0  0  0
   50.0120  119.6310    4.1270 C   0  0  0  0  0  0  0  0  0  0  0  0
   49.7040  118.6570    4.7990 O   0  0  0  0  0  0  0  0  0  0  0  0
   49.7360  119.6930    2.6120 C   0  0  0  0  0  0  0  0  0  0  0  0
   51.0380  121.8840    3.9760 C   0  0  0  0  0  0  0  0  0  0  0  0
   50.6610  122.9480    4.8520 C   0  0  0  0  0  0  0  0  0  0  0  0
   50.3720  122.7510    6.1820 C   0  0  0  0  0  0  0  0  0  0  0  0
   50.1000  123.9630    6.7130 N   0  0  0  0  0  0  0  0  0  0  0  0
   50.1080  124.8280    5.7600 N   0  0  0  0  0  0  0  0  0  0  0  0
   50.4580  124.2460    4.6150 C   0  0  0  0  0  0  0  0  0  0  0  0
   50.7670  124.8820    3.4680 N   0  0  0  0  0  0  0  0  0  0  0  0
   50.1340  125.9410    2.9530 C   0  0  0  0  0  0  0  0  0  0  0  0
   50.7180  126.5460    1.8440 C   0  0  0  0  0  0  0  0  0  0  0  0
   50.1260  127.6300    1.2280 C   0  0  0  0  0  0  0  0  0  0  0  0
   48.9000  128.0460    1.6980 C   0  0  0  0  0  0  0  0  0  0  0  0
   48.3190  127.4950    2.8270 C   0  0  0  0  0  0  0  0  0  0  0  0
   48.9240  126.4100    3.4530 C   0  0  0  0  0  0  0  0  0  0  0  0
   49.3869  121.1626    7.0094 H   0  0  0  0  0  0  0  0  0  0  0  0
   50.9324  121.6608    7.8083 H   0  0  0  0  0  0  0  0  0  0  0  0
   50.9401  119.4811    6.4167 H   0  0  0  0  0  0  0  0  0  0  0  0
   52.2561  120.6468    6.1377 H   0  0  0  0  0  0  0  0  0  0  0  0
   48.6757  119.9312    2.4419 H   0  0  0  0  0  0  0  0  0  0  0  0
   50.3645  120.4723    2.1564 H   0  0  0  0  0  0  0  0  0  0  0  0
   49.9708  118.7197    2.1564 H   0  0  0  0  0  0  0  0  0  0  0  0
   52.1143  121.9440    3.7570 H   0  0  0  0  0  0  0  0  0  0  0  0
   50.4849  121.9547    3.0278 H   0  0  0  0  0  0  0  0  0  0  0  0
   49.9179  124.1605    7.7074 H   0  0  0  0  0  0  0  0  0  0  0  0
   51.5695  124.5165    2.9358 H   0  0  0  0  0  0  0  0  0  0  0  0
   51.6677  126.1535    1.4517 H   0  0  0  0  0  0  0  0  0  0  0  0
   50.6172  128.1448    0.3892 H   0  0  0  0  0  0  0  0  0  0  0  0
   48.3653  128.8418    1.1587 H   0  0  0  0  0  0  0  0  0  0  0  0
   47.3835  127.9130    3.2272 H   0  0  0  0  0  0  0  0  0  0  0  0
   48.4548  125.9326    4.3259 H   0  0  0  0  0  0  0  0  0  0  0  0
 16 17  1  0
 16 15  2  0
 17 18  2  0
 15 14  1  0
  6  4  1  0
 18 19  1  0
 14 19  2  0
 14 13  1  0
 13 12  1  0
  7  3  1  0
  7  8  1  0
  4  3  1  0
  4  5  2  0
 12  8  1  0
 12 11  2  0
  3  2  1  0
  8  9  2  0
 11 10  1  0
  2  1  1  0
  9 10  1  0
  9  1  1  0
  1 20  1  0
  1 21  1  0
  2 22  1  0
  2 23  1  0
  6 24  1  0
  6 25  1  0
  6 26  1  0
  7 27  1  0
  7 28  1  0
 10 29  1  0
 13 30  1  0
 15 31  1  0
 16 32  1  0
 17 33  1  0
 18 34  1  0
 19 35  1  0
A    1
CAM
A    2
CAN
A    3
NAO
A    4
CAQ
A    5
OAR
A    6
CAS
A    7
CAP
A    8
CAL
A    9
CAK
A   10
NAJ
A   11
NAI
A   12
CAH
A   13
NAG
A   14
CAF
A   15
CAE
A   16
CAD
A   17
CAC
A   18
CAB
A   19
CAA
M  END
