5KTX_6XH_A_1201
     RDKit          3D

 56 60  0  0  0  0  0  0  0  0999 V2000
    2.9960   -1.9820    4.3780 C   0  0  0  0  0  0  0  0  0  0  0  0
    1.5610   -2.0750    2.6750 C   0  0  0  0  0  0  0  0  0  0  0  0
    6.4740   -2.0250    2.4460 C   0  0  0  0  0  0  0  0  0  0  0  0
    4.2430   -1.8260    5.1970 C   0  0  0  0  0  0  0  0  0  0  0  0
    6.6040   -2.4310    0.9950 C   0  0  0  0  0  0  0  0  0  0  0  0
    1.4070   -2.6440    6.2220 C   0  0  0  0  0  0  0  0  0  0  0  0
    0.3820   -1.6030    6.7460 C   0  0  0  0  0  0  0  0  0  0  0  0
   -0.8350   -2.4750    7.1560 C   0  0  0  0  0  0  0  0  0  0  0  0
    0.6580   -3.9860    6.2750 C   0  0  0  0  0  0  0  0  0  0  0  0
    0.1640   -3.1300    0.9650 C   0  0  0  0  0  0  0  0  0  0  0  0
   -0.0340   -4.2980    1.7030 C   0  0  0  0  0  0  0  0  0  0  0  0
   -0.8080   -5.3360    1.1930 C   0  0  0  0  0  0  0  0  0  0  0  0
   -1.4180   -5.2330   -0.0620 C   0  0  0  0  0  0  0  0  0  0  0  0
   -1.2170   -4.0670   -0.7990 C   0  0  0  0  0  0  0  0  0  0  0  0
   -0.4420   -3.0370   -0.2840 C   0  0  0  0  0  0  0  0  0  0  0  0
   -2.2440   -6.3450   -0.6370 C   0  0  0  0  0  0  0  0  0  0  0  0
   -3.0270   -6.2830   -1.8090 C   0  0  0  0  0  0  0  0  0  0  0  0
   -2.3680   -7.6260   -0.1650 C   0  0  0  0  0  0  0  0  0  0  0  0
   -3.6220   -9.7110   -0.8900 C   0  0  0  0  0  0  0  0  0  0  0  0
    4.0770   -1.3730    2.1550 C   0  0  0  0  0  0  0  0  0  0  0  0
    5.3160   -1.1440    4.3660 C   0  0  0  0  0  0  0  0  0  0  0  0
    2.9020   -1.7990    3.0270 C   0  0  0  0  0  0  0  0  0  0  0  0
   -0.2580   -1.9160   -1.0070 F   0  0  0  0  0  0  0  0  0  0  0  0
    0.9020   -2.3790    3.7690 N   0  0  0  0  0  0  0  0  0  0  0  0
    1.7850   -2.3390    4.8400 N   0  0  0  0  0  0  0  0  0  0  0  0
    0.9480   -2.0410    1.4140 N   0  0  0  0  0  0  0  0  0  0  0  0
   -3.5930   -7.4510   -2.0060 N   0  0  0  0  0  0  0  0  0  0  0  0
   -3.1920   -8.3140   -0.9950 N   0  0  0  0  0  0  0  0  0  0  0  0
    5.3170   -1.5390    2.9480 N   0  0  0  0  0  0  0  0  0  0  0  0
   -0.7350   -3.6370    6.3060 O   0  0  0  0  0  0  0  0  0  0  0  0
    7.4130   -2.1540    3.2160 O   0  0  0  0  0  0  0  0  0  0  0  0
    4.5997   -2.8173    5.5133 H   0  0  0  0  0  0  0  0  0  0  0  0
    4.0234   -1.2136    6.0840 H   0  0  0  0  0  0  0  0  0  0  0  0
    6.9390   -3.4771    0.9355 H   0  0  0  0  0  0  0  0  0  0  0  0
    5.6284   -2.3295    0.4970 H   0  0  0  0  0  0  0  0  0  0  0  0
    7.3392   -1.7817    0.4970 H   0  0  0  0  0  0  0  0  0  0  0  0
    2.3325   -2.6505    6.8165 H   0  0  0  0  0  0  0  0  0  0  0  0
    0.7838   -1.0555    7.6113 H   0  0  0  0  0  0  0  0  0  0  0  0
    0.1293   -0.8348    6.0003 H   0  0  0  0  0  0  0  0  0  0  0  0
   -1.7784   -1.9389    6.9757 H   0  0  0  0  0  0  0  0  0  0  0  0
   -0.8304   -2.7316    8.2256 H   0  0  0  0  0  0  0  0  0  0  0  0
    0.8849   -4.5902    5.3842 H   0  0  0  0  0  0  0  0  0  0  0  0
    0.9515   -4.5872    7.1482 H   0  0  0  0  0  0  0  0  0  0  0  0
    0.4261   -4.3990    2.6971 H   0  0  0  0  0  0  0  0  0  0  0  0
   -0.9424   -6.2525    1.7863 H   0  0  0  0  0  0  0  0  0  0  0  0
   -1.6749   -3.9626   -1.7937 H   0  0  0  0  0  0  0  0  0  0  0  0
   -3.1442   -5.3992   -2.4533 H   0  0  0  0  0  0  0  0  0  0  0  0
   -1.8812   -8.0286    0.7355 H   0  0  0  0  0  0  0  0  0  0  0  0
   -3.7077   -9.9895    0.1707 H   0  0  0  0  0  0  0  0  0  0  0  0
   -4.5989   -9.8318   -1.3809 H   0  0  0  0  0  0  0  0  0  0  0  0
   -2.8821  -10.3603   -1.3809 H   0  0  0  0  0  0  0  0  0  0  0  0
    3.9606   -0.3198    1.8597 H   0  0  0  0  0  0  0  0  0  0  0  0
    4.1201   -1.9876    1.2437 H   0  0  0  0  0  0  0  0  0  0  0  0
    6.2973   -1.3944    4.7954 H   0  0  0  0  0  0  0  0  0  0  0  0
    5.1033   -0.0652    4.3955 H   0  0  0  0  0  0  0  0  0  0  0  0
    1.0696   -1.2160    0.8094 H   0  0  0  0  0  0  0  0  0  0  0  0
 27 17  2  0
 27 28  1  0
 17 16  1  0
 23 15  1  0
 28 19  1  0
 28 18  1  0
 14 15  2  0
 14 13  1  0
 16 18  2  0
 16 13  1  0
 15 10  1  0
 13 12  2  0
 10 26  1  0
 10 11  2  0
  5  3  1  0
 12 11  1  0
 26  2  1  0
 20 29  1  0
 20 22  1  0
  3 29  1  0
  3 31  2  0
  2 22  1  0
  2 24  2  0
 29 21  1  0
 22  1  2  0
 24 25  1  0
 21  4  1  0
  1 25  1  0
  1  4  1  0
 25  6  1  0
  6  9  1  0
  6  7  1  0
  9 30  1  0
 30  8  1  0
  7  8  1  0
  4 32  1  0
  4 33  1  0
  5 34  1  0
  5 35  1  0
  5 36  1  0
  6 37  1  0
  7 38  1  0
  7 39  1  0
  8 40  1  0
  8 41  1  0
  9 42  1  0
  9 43  1  0
 11 44  1  0
 12 45  1  0
 14 46  1  0
 17 47  1  0
 18 48  1  0
 19 49  1  0
 19 50  1  0
 19 51  1  0
 20 52  1  0
 20 53  1  0
 21 54  1  0
 21 55  1  0
 26 56  1  0
A    1
C7
A    2
C9
A    3
C2
A    4
C6
A    5
C1
A    6
C12
A    7
C14
A    8
C15
A    9
C17
A   10
C19
A   11
C20
A   12
C21
A   13
C22
A   14
C23
A   15
C24
A   16
C26
A   17
C27
A   18
C30
A   19
C31
A   20
C32
A   21
C5
A   22
C8
A   23
F25
A   24
N10
A   25
N11
A   26
N18
A   27
N28
A   28
N29
A   29
N4
A   30
O16
A   31
O3
M  END
