5KUP_6XL_A_706
     RDKit          3D

 65 69  0  0  0  0  0  0  0  0999 V2000
  -42.0910   27.1580    0.8550 C   0  0  0  0  0  0  0  0  0  0  0  0
  -41.2430   28.6230   -2.9540 C   0  0  0  0  0  0  0  0  0  0  0  0
  -41.7680   26.7250   -1.5770 C   0  0  0  0  0  0  0  0  0  0  0  0
  -41.7980   25.9300   -2.7010 C   0  0  0  0  0  0  0  0  0  0  0  0
  -40.9850   28.3310   -5.4650 C   0  0  0  0  0  0  0  0  0  0  0  0
  -41.5560   26.4690   -3.9710 C   0  0  0  0  0  0  0  0  0  0  0  0
  -41.5630   25.6080   -5.1400 C   0  0  0  0  0  0  0  0  0  0  0  0
  -41.2970   27.8440   -4.1150 C   0  0  0  0  0  0  0  0  0  0  0  0
  -43.3800   25.3360   -0.2460 C   0  0  0  0  0  0  0  0  0  0  0  0
  -40.9210   25.0910    0.0710 C   0  0  0  0  0  0  0  0  0  0  0  0
  -42.0450   26.0900   -0.2340 C   0  0  0  0  0  0  0  0  0  0  0  0
  -41.2420   26.0800   -6.2940 N   0  0  0  0  0  0  0  0  0  0  0  0
  -40.9300   27.4240   -6.4660 N   0  0  0  0  0  0  0  0  0  0  0  0
  -40.7150   29.5210   -5.6690 O   0  0  0  0  0  0  0  0  0  0  0  0
  -41.4970   28.0830   -1.7020 C   0  0  0  0  0  0  0  0  0  0  0  0
  -40.9570   29.9380   -3.0410 F   0  0  0  0  0  0  0  0  0  0  0  0
  -40.5600   27.7890   -7.7620 C   0  0  0  0  0  0  0  0  0  0  0  0
  -39.1930   27.7880   -8.0390 C   0  0  0  0  0  0  0  0  0  0  0  0
  -38.7660   28.1380   -9.3280 C   0  0  0  0  0  0  0  0  0  0  0  0
  -39.7720   28.4810  -10.2420 C   0  0  0  0  0  0  0  0  0  0  0  0
  -41.1090   28.4500   -9.8770 C   0  0  0  0  0  0  0  0  0  0  0  0
  -41.4680   28.1000   -8.6580 N   0  0  0  0  0  0  0  0  0  0  0  0
  -37.3420   28.2170   -9.7770 C   0  0  0  0  0  0  0  0  0  0  0  0
  -36.9110   27.7000  -11.0210 C   0  0  0  0  0  0  0  0  0  0  0  0
  -35.5880   27.8500  -11.3980 C   0  0  0  0  0  0  0  0  0  0  0  0
  -34.6730   28.5100  -10.5500 C   0  0  0  0  0  0  0  0  0  0  0  0
  -33.4990   28.6430  -10.8900 O   0  0  0  0  0  0  0  0  0  0  0  0
  -35.1020   28.9850   -9.3780 N   0  0  0  0  0  0  0  0  0  0  0  0
  -36.4010   28.8550   -9.0040 C   0  0  0  0  0  0  0  0  0  0  0  0
  -34.1300   29.6430   -8.4950 C   0  0  0  0  0  0  0  0  0  0  0  0
  -35.0190   27.3710  -12.5970 N   0  0  0  0  0  0  0  0  0  0  0  0
  -35.6830   26.9560  -13.7350 C   0  0  0  0  0  0  0  0  0  0  0  0
  -34.9110   26.6490  -14.8530 C   0  0  0  0  0  0  0  0  0  0  0  0
  -35.5630   26.2280  -15.9910 C   0  0  0  0  0  0  0  0  0  0  0  0
  -36.8910   26.1470  -15.9910 N   0  0  0  0  0  0  0  0  0  0  0  0
  -37.5890   26.4490  -14.9180 C   0  0  0  0  0  0  0  0  0  0  0  0
  -37.0030   26.8410  -13.8020 N   0  0  0  0  0  0  0  0  0  0  0  0
  -38.2150   27.3310   -6.9830 C   0  0  0  0  0  0  0  0  0  0  0  0
  -37.7850   28.3510   -6.0980 O   0  0  0  0  0  0  0  0  0  0  0  0
  -42.0702   26.6752    1.8432 H   0  0  0  0  0  0  0  0  0  0  0  0
  -41.2207   27.8230    0.7534 H   0  0  0  0  0  0  0  0  0  0  0  0
  -43.0153   27.7457    0.7534 H   0  0  0  0  0  0  0  0  0  0  0  0
  -42.0151   24.8564   -2.6001 H   0  0  0  0  0  0  0  0  0  0  0  0
  -41.8434   24.5491   -5.0394 H   0  0  0  0  0  0  0  0  0  0  0  0
  -43.7063   25.1517    0.7882 H   0  0  0  0  0  0  0  0  0  0  0  0
  -44.1374   25.9397   -0.7674 H   0  0  0  0  0  0  0  0  0  0  0  0
  -43.2540   24.3756   -0.7674 H   0  0  0  0  0  0  0  0  0  0  0  0
  -40.8065   24.9892    1.1603 H   0  0  0  0  0  0  0  0  0  0  0  0
  -41.1720   24.1125   -0.3643 H   0  0  0  0  0  0  0  0  0  0  0  0
  -39.9787   25.4551   -0.3643 H   0  0  0  0  0  0  0  0  0  0  0  0
  -41.4841   28.7272   -0.8105 H   0  0  0  0  0  0  0  0  0  0  0  0
  -39.4963   28.7793  -11.2643 H   0  0  0  0  0  0  0  0  0  0  0  0
  -41.8797   28.7208  -10.6137 H   0  0  0  0  0  0  0  0  0  0  0  0
  -37.6213   27.1832  -11.6831 H   0  0  0  0  0  0  0  0  0  0  0  0
  -36.7145   29.2794   -8.0388 H   0  0  0  0  0  0  0  0  0  0  0  0
  -34.4036   29.4578   -7.4458 H   0  0  0  0  0  0  0  0  0  0  0  0
  -33.1257   29.2383   -8.6890 H   0  0  0  0  0  0  0  0  0  0  0  0
  -34.1327   30.7258   -8.6890 H   0  0  0  0  0  0  0  0  0  0  0  0
  -33.9904   27.3256  -12.6272 H   0  0  0  0  0  0  0  0  0  0  0  0
  -33.8150   26.7399  -14.8279 H   0  0  0  0  0  0  0  0  0  0  0  0
  -34.9908   25.9611  -16.8918 H   0  0  0  0  0  0  0  0  0  0  0  0
  -38.6859   26.3732  -14.9513 H   0  0  0  0  0  0  0  0  0  0  0  0
  -38.6963   26.5407   -6.3882 H   0  0  0  0  0  0  0  0  0  0  0  0
  -37.3187   26.9826   -7.5171 H   0  0  0  0  0  0  0  0  0  0  0  0
  -37.9113   28.0514   -5.1629 H   0  0  0  0  0  0  0  0  0  0  0  0
 35 34  1  0
 35 36  2  0
 34 33  2  0
 36 37  1  0
 33 32  1  0
 37 32  2  0
 32 31  1  0
 31 25  1  0
 25 24  2  0
 25 26  1  0
 24 23  1  0
 27 26  2  0
 26 28  1  0
 20 21  2  0
 20 19  1  0
 21 22  1  0
 23 19  1  0
 23 29  2  0
 28 29  1  0
 28 30  1  0
 19 18  2  0
 22 17  2  0
 18 17  1  0
 18 38  1  0
 17 13  1  0
 38 39  1  0
 13 12  1  0
 13  5  1  0
 12  7  2  0
 14  5  2  0
  5  8  1  0
  7  6  1  0
  8  6  1  0
  8  2  2  0
  6  4  2  0
 16  2  1  0
  2 15  1  0
  4  3  1  0
 15  3  2  0
  3 11  1  0
  9 11  1  0
 11 10  1  0
 11  1  1  0
  1 40  1  0
  1 41  1  0
  1 42  1  0
  4 43  1  0
  7 44  1  0
  9 45  1  0
  9 46  1  0
  9 47  1  0
 10 48  1  0
 10 49  1  0
 10 50  1  0
 15 51  1  0
 20 52  1  0
 21 53  1  0
 24 54  1  0
 29 55  1  0
 30 56  1  0
 30 57  1  0
 30 58  1  0
 31 59  1  0
 33 60  1  0
 34 61  1  0
 36 62  1  0
 38 63  1  0
 38 64  1  0
 39 65  1  0
A    1
C4
A    2
C14
A    3
C5
A    4
C6
A    5
C11
A    6
C7
A    7
C8
A    8
C13
A    9
C3
A   10
C1
A   11
C2
A   12
N9
A   13
N10
A   14
O12
A   15
C15
A   16
F16
A   17
C17
A   18
C18
A   19
C19
A   20
C20
A   21
C21
A   22
N22
A   23
C23
A   24
C24
A   25
C25
A   26
C26
A   27
O27
A   28
N28
A   29
C29
A   30
C30
A   31
N31
A   32
C32
A   33
C33
A   34
C34
A   35
N35
A   36
C36
A   37
N37
A   38
C38
A   39
O39
M  END
