5KWH_6XT_A_422
     RDKit          3D

 45 48  0  0  0  0  0  0  0  0999 V2000
  -13.5990  -63.5980   35.0250 C   0  0  0  0  0  0  0  0  0  0  0  0
  -14.7000  -64.4690   34.4730 C   0  0  0  0  0  0  0  0  0  0  0  0
  -14.8210  -64.6800   33.0960 C   0  0  0  0  0  0  0  0  0  0  0  0
  -15.6540  -65.0790   35.3090 C   0  0  0  0  0  0  0  0  0  0  0  0
  -16.2780  -65.4090   37.6900 C   0  0  0  0  0  0  0  0  0  0  0  0
  -16.1420  -66.7910   38.2540 C   0  0  0  0  0  0  0  0  0  0  0  0
  -18.7490  -67.7660   33.3390 C   0  0  0  0  0  0  0  0  0  0  0  0
  -19.5110  -68.6060   32.4870 C   0  0  0  0  0  0  0  0  0  0  0  0
  -20.6090  -69.2970   32.9670 C   0  0  0  0  0  0  0  0  0  0  0  0
  -19.0450  -67.6280   34.6400 N   0  0  0  0  0  0  0  0  0  0  0  0
  -20.7360  -68.3740   36.3710 C   0  0  0  0  0  0  0  0  0  0  0  0
  -21.7980  -69.2690   36.2230 C   0  0  0  0  0  0  0  0  0  0  0  0
  -22.2690  -70.8850   29.9340 C   0  0  0  0  0  0  0  0  0  0  0  0
  -15.8050  -65.5010   32.5660 C   0  0  0  0  0  0  0  0  0  0  0  0
  -16.7160  -66.1310   33.4080 C   0  0  0  0  0  0  0  0  0  0  0  0
  -16.6180  -65.9410   34.7830 C   0  0  0  0  0  0  0  0  0  0  0  0
  -15.4130  -65.1150   36.6970 N   0  0  0  0  0  0  0  0  0  0  0  0
  -17.1500  -64.6390   38.0620 O   0  0  0  0  0  0  0  0  0  0  0  0
  -17.6950  -66.9890   32.8480 N   0  0  0  0  0  0  0  0  0  0  0  0
  -20.8930  -69.1380   34.3030 N   0  0  0  0  0  0  0  0  0  0  0  0
  -20.1320  -68.3150   35.1210 C   0  0  0  0  0  0  0  0  0  0  0  0
  -21.9170  -69.7340   34.9850 N   0  0  0  0  0  0  0  0  0  0  0  0
  -21.4520  -70.1290   32.2000 N   0  0  0  0  0  0  0  0  0  0  0  0
  -21.1490  -70.5300   30.8260 C   0  0  0  0  0  0  0  0  0  0  0  0
  -21.5210  -69.6230   29.7240 C   0  0  0  0  0  0  0  0  0  0  0  0
  -13.6290  -63.6217   36.1243 H   0  0  0  0  0  0  0  0  0  0  0  0
  -12.6253  -63.9729   34.6766 H   0  0  0  0  0  0  0  0  0  0  0  0
  -13.7398  -62.5642   34.6766 H   0  0  0  0  0  0  0  0  0  0  0  0
  -14.1163  -64.1811   32.4144 H   0  0  0  0  0  0  0  0  0  0  0  0
  -16.1469  -66.7407   39.3528 H   0  0  0  0  0  0  0  0  0  0  0  0
  -16.9834  -67.4112   37.9115 H   0  0  0  0  0  0  0  0  0  0  0  0
  -15.1958  -67.2353   37.9115 H   0  0  0  0  0  0  0  0  0  0  0  0
  -19.2248  -68.7093   31.4299 H   0  0  0  0  0  0  0  0  0  0  0  0
  -20.4410  -67.8321   37.2817 H   0  0  0  0  0  0  0  0  0  0  0  0
  -22.4667  -69.5587   37.0469 H   0  0  0  0  0  0  0  0  0  0  0  0
  -23.3024  -70.8563   30.3098 H   0  0  0  0  0  0  0  0  0  0  0  0
  -22.5212  -71.7541   29.3086 H   0  0  0  0  0  0  0  0  0  0  0  0
  -15.8653  -65.6543   31.4784 H   0  0  0  0  0  0  0  0  0  0  0  0
  -17.3037  -66.4728   35.4590 H   0  0  0  0  0  0  0  0  0  0  0  0
  -14.4526  -64.8875   36.9915 H   0  0  0  0  0  0  0  0  0  0  0  0
  -17.6088  -67.0574   31.8239 H   0  0  0  0  0  0  0  0  0  0  0  0
  -22.3239  -70.4710   32.6287 H   0  0  0  0  0  0  0  0  0  0  0  0
  -20.2186  -71.0250   31.1411 H   0  0  0  0  0  0  0  0  0  0  0  0
  -20.8582  -69.5145   28.8529 H   0  0  0  0  0  0  0  0  0  0  0  0
  -21.7931  -68.5598   29.6487 H   0  0  0  0  0  0  0  0  0  0  0  0
 25 13  1  0
 25 24  1  0
 13 24  1  0
 24 23  1  0
 23  9  1  0
  8  9  2  0
  8  7  1  0
 14  3  1  0
 14 15  2  0
 19  7  1  0
 19 15  1  0
  9 20  1  0
  3  2  2  0
  7 10  2  0
 15 16  1  0
 20 22  1  0
 20 21  1  0
  2  1  1  0
  2  4  1  0
 10 21  1  0
 16  4  2  0
 22 12  2  0
 21 11  2  0
  4 17  1  0
 12 11  1  0
 17  5  1  0
  5 18  2  0
  5  6  1  0
  1 26  1  0
  1 27  1  0
  1 28  1  0
  3 29  1  0
  6 30  1  0
  6 31  1  0
  6 32  1  0
  8 33  1  0
 11 34  1  0
 12 35  1  0
 13 36  1  0
 13 37  1  0
 14 38  1  0
 16 39  1  0
 17 40  1  0
 19 41  1  0
 23 42  1  0
 24 43  1  0
 25 44  1  0
 25 45  1  0
A    1
C1
A    2
C2
A    3
C3
A    4
C7
A    5
C9
A    6
C11
A    7
C13
A    8
C14
A    9
C15
A   10
N18
A   11
C19
A   12
C20
A   13
C24
A   14
C4
A   15
C5
A   16
C6
A   17
N8
A   18
O10
A   19
N12
A   20
N16
A   21
C17
A   22
N21
A   23
N22
A   24
C23
A   25
C25
M  END
