5KX7_6YD_B_9901
     RDKit          3D

 39 41  0  0  0  0  0  0  0  0999 V2000
   34.8230   40.4370   60.7550 N   0  0  0  0  0  0  0  0  0  0  0  0
   33.8620   40.2980   61.7260 C   0  0  0  0  0  0  0  0  0  0  0  0
   34.1500   40.1030   62.9020 O   0  0  0  0  0  0  0  0  0  0  0  0
   32.4320   40.2400   61.2580 C   0  0  0  0  0  0  0  0  0  0  0  0
   32.1930   40.4740   59.9580 N   0  0  0  0  0  0  0  0  0  0  0  0
   30.9340   40.3190   59.5150 C   0  0  0  0  0  0  0  0  0  0  0  0
   29.8880   39.9040   60.3350 C   0  0  0  0  0  0  0  0  0  0  0  0
   30.1570   39.6390   61.6620 C   0  0  0  0  0  0  0  0  0  0  0  0
   31.4420   39.8110   62.1400 C   0  0  0  0  0  0  0  0  0  0  0  0
   30.7240   40.5790   58.0720 C   0  0  0  0  0  0  0  0  0  0  0  0
   29.5340   40.8250   57.3570 C   0  0  0  0  0  0  0  0  0  0  0  0
   29.7550   41.0040   56.0660 N   0  0  0  0  0  0  0  0  0  0  0  0
   31.1410   40.8520   55.9270 N   0  0  0  0  0  0  0  0  0  0  0  0
   31.7070   40.5930   57.1110 C   0  0  0  0  0  0  0  0  0  0  0  0
   36.2070   40.2690   61.0190 C   0  0  0  0  0  0  0  0  0  0  0  0
   36.9380   40.2600   62.2370 C   0  0  0  0  0  0  0  0  0  0  0  0
   38.2270   40.0720   61.9300 N   0  0  0  0  0  0  0  0  0  0  0  0
   38.4500   39.9400   60.6000 N   0  0  0  0  0  0  0  0  0  0  0  0
   37.2350   40.0560   60.0500 C   0  0  0  0  0  0  0  0  0  0  0  0
   39.3530   39.9750   62.8510 C   0  0  0  0  0  0  0  0  0  0  0  0
   37.0410   39.9250   58.5980 C   0  0  0  0  0  0  0  0  0  0  0  0
   38.0290   39.3510   57.9110 N   0  0  0  0  0  0  0  0  0  0  0  0
   35.9690   40.3050   58.0710 O   0  0  0  0  0  0  0  0  0  0  0  0
   31.8090   40.9670   54.6390 C   0  0  0  0  0  0  0  0  0  0  0  0
   34.5274   40.6726   59.7969 H   0  0  0  0  0  0  0  0  0  0  0  0
   28.8701   39.7900   59.9338 H   0  0  0  0  0  0  0  0  0  0  0  0
   29.3564   39.2942   62.3329 H   0  0  0  0  0  0  0  0  0  0  0  0
   31.6788   39.6132   63.1958 H   0  0  0  0  0  0  0  0  0  0  0  0
   28.5369   40.8635   57.8199 H   0  0  0  0  0  0  0  0  0  0  0  0
   32.7791   40.4202   57.2863 H   0  0  0  0  0  0  0  0  0  0  0  0
   36.5210   40.3847   63.2472 H   0  0  0  0  0  0  0  0  0  0  0  0
   38.9834   40.0068   63.8866 H   0  0  0  0  0  0  0  0  0  0  0  0
   39.8855   39.0277   62.6807 H   0  0  0  0  0  0  0  0  0  0  0  0
   40.0396   40.8173   62.6807 H   0  0  0  0  0  0  0  0  0  0  0  0
   38.8081   38.8984   58.4101 H   0  0  0  0  0  0  0  0  0  0  0  0
   38.0132   39.3602   56.8812 H   0  0  0  0  0  0  0  0  0  0  0  0
   32.8817   41.1517   54.7975 H   0  0  0  0  0  0  0  0  0  0  0  0
   31.6774   40.0330   54.0730 H   0  0  0  0  0  0  0  0  0  0  0  0
   31.3727   41.8032   54.0730 H   0  0  0  0  0  0  0  0  0  0  0  0
 24 13  1  0
 13 12  1  0
 13 14  1  0
 12 11  2  0
 14 10  2  0
 11 10  1  0
 22 21  1  0
 23 21  2  0
 10  6  1  0
 21 19  1  0
  6  5  2  0
  6  7  1  0
  5  4  1  0
 19 18  2  0
 19 15  1  0
  7  8  2  0
 18 17  1  0
  1 15  1  0
  1  2  1  0
 15 16  2  0
  4  2  1  0
  4  9  2  0
  8  9  1  0
  2  3  2  0
 17 16  1  0
 17 20  1  0
  1 25  1  0
  7 26  1  0
  8 27  1  0
  9 28  1  0
 11 29  1  0
 14 30  1  0
 16 31  1  0
 20 32  1  0
 20 33  1  0
 20 34  1  0
 22 35  1  0
 22 36  1  0
 24 37  1  0
 24 38  1  0
 24 39  1  0
A    1
N01
A    2
C02
A    3
O03
A    4
C04
A    5
N05
A    6
C06
A    7
C07
A    8
C08
A    9
C09
A   10
C10
A   11
C11
A   12
N12
A   13
N13
A   14
C14
A   15
C15
A   16
C16
A   17
N17
A   18
N18
A   19
C19
A   20
C20
A   21
C21
A   22
N22
A   23
O23
A   24
C24
M  END
