5KXA_6Y7_A_905
     RDKit          3D

 50 54  0  0  0  0  0  0  0  0999 V2000
  -39.3060   26.4460  -49.4660 C   0  0  0  0  0  0  0  0  0  0  0  0
  -37.3740   27.6720  -48.9650 C   0  0  0  0  0  0  0  0  0  0  0  0
  -35.0910   27.7540  -46.1490 C   0  0  0  0  0  0  0  0  0  0  0  0
  -36.1420   27.7640  -49.5970 C   0  0  0  0  0  0  0  0  0  0  0  0
  -39.1390   28.4760  -50.4620 C   0  0  0  0  0  0  0  0  0  0  0  0
  -38.7020   29.8000  -50.9310 C   0  0  0  0  0  0  0  0  0  0  0  0
  -38.4680   30.8580  -49.8600 C   0  0  0  0  0  0  0  0  0  0  0  0
  -39.7180   30.9200  -50.7550 C   0  0  0  0  0  0  0  0  0  0  0  0
  -40.3940   27.8450  -50.8870 C   0  0  0  0  0  0  0  0  0  0  0  0
  -40.8940   28.3790  -53.5600 C   0  0  0  0  0  0  0  0  0  0  0  0
  -39.8620   27.4880  -53.8850 C   0  0  0  0  0  0  0  0  0  0  0  0
  -39.8430   22.7180  -47.8250 Cl  0  0  0  0  0  0  0  0  0  0  0  0
  -40.1300   24.1970  -48.7650 C   0  0  0  0  0  0  0  0  0  0  0  0
  -39.1060   25.2280  -48.6890 C   0  0  0  0  0  0  0  0  0  0  0  0
  -38.0700   24.9910  -47.9220 F   0  0  0  0  0  0  0  0  0  0  0  0
  -41.2550   24.3670  -49.5470 C   0  0  0  0  0  0  0  0  0  0  0  0
  -41.4500   25.5150  -50.3080 C   0  0  0  0  0  0  0  0  0  0  0  0
  -40.5180   26.5280  -50.2640 C   0  0  0  0  0  0  0  0  0  0  0  0
  -41.5540   28.5270  -52.0010 S   0  0  0  0  0  0  0  0  0  0  0  0
  -41.4480   29.2470  -54.6150 C   0  0  0  0  0  0  0  0  0  0  0  0
  -42.4100   30.1190  -54.3510 F   0  0  0  0  0  0  0  0  0  0  0  0
  -40.9280   29.1690  -55.9740 C   0  0  0  0  0  0  0  0  0  0  0  0
  -41.5080   30.0820  -57.0250 C   0  0  0  0  0  0  0  0  0  0  0  0
  -41.2600   29.9200  -58.2130 O   0  0  0  0  0  0  0  0  0  0  0  0
  -42.2850   31.1110  -56.6730 O   0  0  0  0  0  0  0  0  0  0  0  0
  -39.8840   28.2680  -56.2050 C   0  0  0  0  0  0  0  0  0  0  0  0
  -39.3760   27.4460  -55.1890 C   0  0  0  0  0  0  0  0  0  0  0  0
  -38.5810   27.5570  -49.6160 N   0  0  0  0  0  0  0  0  0  0  0  0
  -35.2170   27.8200  -48.6170 N   0  0  0  0  0  0  0  0  0  0  0  0
  -35.9060   27.7480  -47.3830 N   0  0  0  0  0  0  0  0  0  0  0  0
  -37.2110   27.6390  -47.5850 C   0  0  0  0  0  0  0  0  0  0  0  0
  -35.0090   29.1050  -45.4810 C   0  0  0  0  0  0  0  0  0  0  0  0
  -35.5335   27.0413  -45.4374 H   0  0  0  0  0  0  0  0  0  0  0  0
  -34.0669   27.4770  -46.4395 H   0  0  0  0  0  0  0  0  0  0  0  0
  -35.9568   27.7867  -50.6811 H   0  0  0  0  0  0  0  0  0  0  0  0
  -38.1050   29.4097  -51.7684 H   0  0  0  0  0  0  0  0  0  0  0  0
  -38.5645   30.5958  -48.7961 H   0  0  0  0  0  0  0  0  0  0  0  0
  -37.6499   31.5509  -49.6136 H   0  0  0  0  0  0  0  0  0  0  0  0
  -39.8097   31.7056  -51.5194 H   0  0  0  0  0  0  0  0  0  0  0  0
  -40.8025   30.9680  -50.5773 H   0  0  0  0  0  0  0  0  0  0  0  0
  -39.4389   26.8263  -53.1149 H   0  0  0  0  0  0  0  0  0  0  0  0
  -42.0170   23.5740  -49.5689 H   0  0  0  0  0  0  0  0  0  0  0  0
  -42.3439   25.6132  -50.9416 H   0  0  0  0  0  0  0  0  0  0  0  0
  -42.4367   31.3119  -55.7155 H   0  0  0  0  0  0  0  0  0  0  0  0
  -39.4486   28.2021  -57.2130 H   0  0  0  0  0  0  0  0  0  0  0  0
  -38.5650   26.7433  -55.4307 H   0  0  0  0  0  0  0  0  0  0  0  0
  -37.9981   27.5428  -46.8226 H   0  0  0  0  0  0  0  0  0  0  0  0
  -35.0169   28.9750  -44.3887 H   0  0  0  0  0  0  0  0  0  0  0  0
  -34.0787   29.6079  -45.7837 H   0  0  0  0  0  0  0  0  0  0  0  0
  -35.8717   29.7167  -45.7837 H   0  0  0  0  0  0  0  0  0  0  0  0
 24 23  2  0
 23 25  1  0
 23 22  1  0
 26 22  2  0
 26 27  1  0
 22 20  1  0
 27 11  2  0
 20 21  1  0
 20 10  2  0
 11 10  1  0
 10 19  1  0
 19  9  1  0
  6  8  1  0
  6  5  1  0
  6  7  1  0
  9  5  2  0
  9 18  1  0
  8  7  1  0
  5 28  1  0
 17 18  2  0
 17 16  1  0
 18  1  1  0
 28  1  1  0
 28  2  1  0
  4  2  1  0
  4 29  2  0
 16 13  2  0
  1 14  2  0
  2 31  2  0
 13 14  1  0
 13 12  1  0
 14 15  1  0
 29 30  1  0
 31 30  1  0
 30  3  1  0
  3 32  1  0
  3 33  1  0
  3 34  1  0
  4 35  1  0
  6 36  1  0
  7 37  1  0
  7 38  1  0
  8 39  1  0
  8 40  1  0
 11 41  1  0
 16 42  1  0
 17 43  1  0
 25 44  1  0
 26 45  1  0
 27 46  1  0
 31 47  1  0
 32 48  1  0
 32 49  1  0
 32 50  1  0
A    1
C1
A    2
C2
A    3
C4
A    4
C6
A    5
C7
A    6
C8
A    7
C9
A    8
C10
A    9
C11
A   10
C12
A   11
C13
A   12
CL
A   13
C22
A   14
C
A   15
F
A   16
C21
A   17
C20
A   18
C19
A   19
S
A   20
C18
A   21
F1
A   22
C16
A   23
C17
A   24
O1
A   25
O
A   26
C15
A   27
C14
A   28
N
A   29
N2
A   30
N1
A   31
C3
A   32
C5
M  END
