5KYJ_6Y8_A_501
     RDKit          3D

 52 55  0  0  0  0  0  0  0  0999 V2000
    6.2610   46.3320  -26.5330 C   0  0  0  0  0  0  0  0  0  0  0  0
    6.6230   42.3490  -23.8760 C   0  0  0  0  0  0  0  0  0  0  0  0
    6.1750   42.0970  -22.6090 C   0  0  0  0  0  0  0  0  0  0  0  0
    5.6170   41.2240  -19.1600 C   0  0  0  0  0  0  0  0  0  0  0  0
    4.2260   42.2610  -14.9500 C   0  0  0  0  0  0  0  0  0  0  0  0
    6.3680   38.8920  -19.6680 F   0  0  0  0  0  0  0  0  0  0  0  0
    6.0670   39.8600  -18.7940 C   0  0  0  0  0  0  0  0  0  0  0  0
    6.1480   39.5500  -17.4600 C   0  0  0  0  0  0  0  0  0  0  0  0
    5.8590   40.4700  -16.5530 N   0  0  0  0  0  0  0  0  0  0  0  0
    5.4760   41.7010  -16.8950 C   0  0  0  0  0  0  0  0  0  0  0  0
    5.2220   42.5740  -15.8980 O   0  0  0  0  0  0  0  0  0  0  0  0
    5.3670   42.0960  -18.1690 N   0  0  0  0  0  0  0  0  0  0  0  0
    5.5430   41.7040  -20.4630 N   0  0  0  0  0  0  0  0  0  0  0  0
    5.1860   43.1160  -20.6990 C   0  0  0  0  0  0  0  0  0  0  0  0
    3.6760   43.2720  -20.6410 C   0  0  0  0  0  0  0  0  0  0  0  0
    3.2980   44.7480  -20.7610 C   0  0  0  0  0  0  0  0  0  0  0  0
    2.9300   42.4290  -21.6750 C   0  0  0  0  0  0  0  0  0  0  0  0
    6.0140   40.9730  -21.6560 C   0  0  0  0  0  0  0  0  0  0  0  0
    5.7020   43.3210  -22.0460 C   0  0  0  0  0  0  0  0  0  0  0  0
    6.4360   43.6770  -24.0290 N   0  0  0  0  0  0  0  0  0  0  0  0
    5.8390   44.3130  -22.9310 N   0  0  0  0  0  0  0  0  0  0  0  0
    6.6990   44.3550  -25.1720 C   0  0  0  0  0  0  0  0  0  0  0  0
    6.0880   45.5870  -25.3930 C   0  0  0  0  0  0  0  0  0  0  0  0
    7.0650   45.8470  -27.5330 C   0  0  0  0  0  0  0  0  0  0  0  0
    7.6940   44.6290  -27.3740 C   0  0  0  0  0  0  0  0  0  0  0  0
    7.5070   43.8940  -26.2130 C   0  0  0  0  0  0  0  0  0  0  0  0
    8.6170   44.1190  -28.5660 S   0  0  0  0  0  0  0  0  0  0  0  0
    7.9400   44.4680  -29.7680 O   0  0  0  0  0  0  0  0  0  0  0  0
    8.8580   42.7160  -28.3840 O   0  0  0  0  0  0  0  0  0  0  0  0
   10.0600   44.9380  -28.5330 C   0  0  0  0  0  0  0  0  0  0  0  0
    5.7612   47.3057  -26.6432 H   0  0  0  0  0  0  0  0  0  0  0  0
    7.0392   41.6352  -24.6021 H   0  0  0  0  0  0  0  0  0  0  0  0
    4.6321   42.3886  -13.9357 H   0  0  0  0  0  0  0  0  0  0  0  0
    3.3652   42.9319  -15.0874 H   0  0  0  0  0  0  0  0  0  0  0  0
    3.9037   41.2183  -15.0874 H   0  0  0  0  0  0  0  0  0  0  0  0
    6.4519   38.5408  -17.1452 H   0  0  0  0  0  0  0  0  0  0  0  0
    5.5863   43.8340  -19.9681 H   0  0  0  0  0  0  0  0  0  0  0  0
    3.3566   42.8872  -19.6613 H   0  0  0  0  0  0  0  0  0  0  0  0
    3.1871   45.1810  -19.7559 H   0  0  0  0  0  0  0  0  0  0  0  0
    4.0875   45.2855  -21.3067 H   0  0  0  0  0  0  0  0  0  0  0  0
    2.3473   44.8398  -21.3067 H   0  0  0  0  0  0  0  0  0  0  0  0
    2.2861   41.7014  -21.1593 H   0  0  0  0  0  0  0  0  0  0  0  0
    2.3109   43.0847  -22.3049 H   0  0  0  0  0  0  0  0  0  0  0  0
    3.6561   41.8943  -22.3049 H   0  0  0  0  0  0  0  0  0  0  0  0
    5.2684   40.2448  -22.0078 H   0  0  0  0  0  0  0  0  0  0  0  0
    6.9202   40.3697  -21.4983 H   0  0  0  0  0  0  0  0  0  0  0  0
    5.4285   45.9863  -24.6084 H   0  0  0  0  0  0  0  0  0  0  0  0
    7.2077   46.4262  -28.4572 H   0  0  0  0  0  0  0  0  0  0  0  0
    8.0092   42.9208  -26.1094 H   0  0  0  0  0  0  0  0  0  0  0  0
   10.3609   45.1088  -27.4888 H   0  0  0  0  0  0  0  0  0  0  0  0
   10.8311   44.3429  -29.0442 H   0  0  0  0  0  0  0  0  0  0  0  0
    9.9445   45.9051  -29.0442 H   0  0  0  0  0  0  0  0  0  0  0  0
 28 27  2  0
 27 30  1  0
 27 29  2  0
 27 25  1  0
 24 25  1  0
 24  1  2  0
 25 26  2  0
  1 23  1  0
 26 22  1  0
 23 22  2  0
 22 20  1  0
 20  2  1  0
 20 21  1  0
  2  3  2  0
 21 19  2  0
  3 19  1  0
  3 18  1  0
 19 14  1  0
 17 15  1  0
 18 13  1  0
 16 15  1  0
 14 15  1  0
 14 13  1  0
 13  4  1  0
  6  7  1  0
  4  7  2  0
  4 12  1  0
  7  8  1  0
 12 10  2  0
  8  9  2  0
 10  9  1  0
 10 11  1  0
 11  5  1  0
  1 31  1  0
  2 32  1  0
  5 33  1  0
  5 34  1  0
  5 35  1  0
  8 36  1  0
 14 37  1  0
 15 38  1  0
 16 39  1  0
 16 40  1  0
 16 41  1  0
 17 42  1  0
 17 43  1  0
 17 44  1  0
 18 45  1  0
 18 46  1  0
 23 47  1  0
 24 48  1  0
 26 49  1  0
 30 50  1  0
 30 51  1  0
 30 52  1  0
A    1
C10
A    2
C12
A    3
C13
A    4
C15
A    5
C19
A    6
F
A    7
C16
A    8
C17
A    9
N3
A   10
C18
A   11
O2
A   12
N4
A   13
N2
A   14
C3
A   15
C1
A   16
C2
A   17
C
A   18
C14
A   19
C4
A   20
N1
A   21
N
A   22
C5
A   23
C11
A   24
C9
A   25
C7
A   26
C6
A   27
S
A   28
O
A   29
O1
A   30
C8
M  END
