5KZ0_6YL_A_1501
     RDKit          3D

 53 55  0  0  0  0  0  0  0  0999 V2000
   34.7820   46.3750    8.7590 C   0  0  0  0  0  0  0  0  0  0  0  0
   35.0420   46.2260   10.1360 C   0  0  0  0  0  0  0  0  0  0  0  0
   29.8660   45.4720    8.3110 C   0  0  0  0  0  0  0  0  0  0  0  0
   33.4820   44.3360   10.2360 C   0  0  0  0  0  0  0  0  0  0  0  0
   27.7530   45.9740    9.3150 C   0  0  0  0  0  0  0  0  0  0  0  0
   29.8210   48.1960    7.0410 C   0  0  0  0  0  0  0  0  0  0  0  0
   28.7610   46.3710    8.4130 C   0  0  0  0  0  0  0  0  0  0  0  0
   28.6990   47.6260    7.6270 C   0  0  0  0  0  0  0  0  0  0  0  0
   33.8620   45.4970    8.1020 C   0  0  0  0  0  0  0  0  0  0  0  0
   33.1810   44.4440    8.8360 C   0  0  0  0  0  0  0  0  0  0  0  0
   29.9510   44.2620    9.0600 C   0  0  0  0  0  0  0  0  0  0  0  0
   34.3930   45.2110   10.8580 C   0  0  0  0  0  0  0  0  0  0  0  0
   27.6420   48.5510    7.2530 C   0  0  0  0  0  0  0  0  0  0  0  0
   28.8740   43.9650    9.9370 C   0  0  0  0  0  0  0  0  0  0  0  0
   33.6870   45.7740    6.6430 C   0  0  0  0  0  0  0  0  0  0  0  0
   26.1860   48.5440    7.5520 C   0  0  0  0  0  0  0  0  0  0  0  0
   32.7380   42.0310    8.1530 C   0  0  0  0  0  0  0  0  0  0  0  0
   30.2590   50.2330    5.6630 C   0  0  0  0  0  0  0  0  0  0  0  0
   34.3410   45.3810    4.2790 C   0  0  0  0  0  0  0  0  0  0  0  0
   35.5440   44.0910    5.9940 C   0  0  0  0  0  0  0  0  0  0  0  0
   32.1670   43.4550    8.2230 C   0  0  0  0  0  0  0  0  0  0  0  0
   27.7890   44.8160   10.0590 N   0  0  0  0  0  0  0  0  0  0  0  0
   28.1060   49.5660    6.5170 N   0  0  0  0  0  0  0  0  0  0  0  0
   29.4190   49.3220    6.4080 N   0  0  0  0  0  0  0  0  0  0  0  0
   28.8990   42.7810   10.7090 N   0  0  0  0  0  0  0  0  0  0  0  0
   34.5060   45.0890    5.6990 N   0  0  0  0  0  0  0  0  0  0  0  0
   32.8260   46.6080    6.3550 O   0  0  0  0  0  0  0  0  0  0  0  0
   30.9770   43.3300    9.0400 O   0  0  0  0  0  0  0  0  0  0  0  0
   34.6390   45.0700   12.1560 F   0  0  0  0  0  0  0  0  0  0  0  0
   35.2872   47.1678    8.1878 H   0  0  0  0  0  0  0  0  0  0  0  0
   35.7486   46.9002   10.6421 H   0  0  0  0  0  0  0  0  0  0  0  0
   30.6875   45.7243    7.6244 H   0  0  0  0  0  0  0  0  0  0  0  0
   32.9911   43.5542   10.8343 H   0  0  0  0  0  0  0  0  0  0  0  0
   26.8800   46.6329    9.4322 H   0  0  0  0  0  0  0  0  0  0  0  0
   30.8480   47.8042    7.0835 H   0  0  0  0  0  0  0  0  0  0  0  0
   26.0355   48.5433    8.6416 H   0  0  0  0  0  0  0  0  0  0  0  0
   25.7182   49.4399    7.1178 H   0  0  0  0  0  0  0  0  0  0  0  0
   25.7268   47.6436    7.1178 H   0  0  0  0  0  0  0  0  0  0  0  0
   32.8919   41.6472    9.1723 H   0  0  0  0  0  0  0  0  0  0  0  0
   32.0319   41.3787    7.6183 H   0  0  0  0  0  0  0  0  0  0  0  0
   33.6992   42.0472    7.6183 H   0  0  0  0  0  0  0  0  0  0  0  0
   30.8343   50.8569    6.3629 H   0  0  0  0  0  0  0  0  0  0  0  0
   30.9512   49.6588    5.0297 H   0  0  0  0  0  0  0  0  0  0  0  0
   29.6306   50.8764    5.0297 H   0  0  0  0  0  0  0  0  0  0  0  0
   33.8030   46.3331    4.1606 H   0  0  0  0  0  0  0  0  0  0  0  0
   35.3297   45.4569    3.8030 H   0  0  0  0  0  0  0  0  0  0  0  0
   33.7659   44.5732    3.8030 H   0  0  0  0  0  0  0  0  0  0  0  0
   35.6529   43.9863    7.0836 H   0  0  0  0  0  0  0  0  0  0  0  0
   35.2555   43.1225    5.5596 H   0  0  0  0  0  0  0  0  0  0  0  0
   36.5004   44.4173    5.5596 H   0  0  0  0  0  0  0  0  0  0  0  0
   31.9411   43.8609    7.2259 H   0  0  0  0  0  0  0  0  0  0  0  0
   28.8978   42.8367   11.7375 H   0  0  0  0  0  0  0  0  0  0  0  0
   28.9184   41.8627   10.2430 H   0  0  0  0  0  0  0  0  0  0  0  0
 19 26  1  0
 18 24  1  0
 26 20  1  0
 26 15  1  0
 27 15  2  0
 24 23  1  0
 24  6  1  0
 23 13  2  0
 15  9  1  0
  6  8  2  0
 13 16  1  0
 13  8  1  0
  8  7  1  0
  9  1  2  0
  9 10  1  0
 17 21  1  0
 21 10  1  0
 21 28  1  0
  3  7  2  0
  3 11  1  0
  7  5  1  0
  1  2  1  0
 10  4  2  0
 28 11  1  0
 11 14  2  0
  5 22  2  0
 14 22  1  0
 14 25  1  0
  2 12  2  0
  4 12  1  0
 12 29  1  0
  1 30  1  0
  2 31  1  0
  3 32  1  0
  4 33  1  0
  5 34  1  0
  6 35  1  0
 16 36  1  0
 16 37  1  0
 16 38  1  0
 17 39  1  0
 17 40  1  0
 17 41  1  0
 18 42  1  0
 18 43  1  0
 18 44  1  0
 19 45  1  0
 19 46  1  0
 19 47  1  0
 20 48  1  0
 20 49  1  0
 20 50  1  0
 21 51  1  0
 25 52  1  0
 25 53  1  0
A    1
C11
A    2
C12
A    3
C6
A    4
C14
A    5
C4
A    6
C27
A    7
C5
A    8
C23
A    9
C10
A   10
C9
A   11
C1
A   12
C13
A   13
C24
A   14
C2
A   15
C17
A   16
C28
A   17
C15
A   18
C29
A   19
C21
A   20
C22
A   21
C8
A   22
N3
A   23
N25
A   24
N26
A   25
N18
A   26
N20
A   27
O19
A   28
O7
A   29
F16
M  END
