5L03_6ZB_A_202
     RDKit          3D

 29 30  0  0  0  0  0  0  0  0999 V2000
    2.7510  -26.7770   13.8370 O   0  0  0  0  0  0  0  0  0  0  0  0
    3.3680  -27.5970   14.4930 C   0  0  0  0  0  0  0  0  0  0  0  0
    3.1510  -27.5430   15.9540 N   0  0  0  0  0  0  0  0  0  0  0  0
    2.2960  -26.5730   16.4140 O   0  0  0  0  0  0  0  0  0  0  0  0
    4.3300  -28.7000   13.8420 C   0  0  0  0  0  0  0  0  0  0  0  0
    5.2950  -29.0180   14.8170 N   0  0  0  0  0  0  0  0  0  0  0  0
    3.4880  -29.8980   13.4380 C   0  0  0  0  0  0  0  0  0  0  0  0
    2.2170  -29.5620   12.8110 C   0  0  0  0  0  0  0  0  0  0  0  0
    0.9510  -29.4200   13.4390 C   0  0  0  0  0  0  0  0  0  0  0  0
    0.0120  -29.0640   12.3990 C   0  0  0  0  0  0  0  0  0  0  0  0
    0.6820  -28.9730   11.1700 N   0  0  0  0  0  0  0  0  0  0  0  0
    1.9980  -29.2750   11.4520 C   0  0  0  0  0  0  0  0  0  0  0  0
    0.4760  -29.5500   14.7370 C   0  0  0  0  0  0  0  0  0  0  0  0
   -0.8580  -29.3440   15.0110 C   0  0  0  0  0  0  0  0  0  0  0  0
   -1.7750  -28.9960   13.9970 C   0  0  0  0  0  0  0  0  0  0  0  0
   -1.3500  -28.8480   12.6950 C   0  0  0  0  0  0  0  0  0  0  0  0
    3.6180  -28.2004   16.5948 H   0  0  0  0  0  0  0  0  0  0  0  0
    2.2973  -26.5745   17.4040 H   0  0  0  0  0  0  0  0  0  0  0  0
    4.8414  -28.3451   12.9351 H   0  0  0  0  0  0  0  0  0  0  0  0
    4.8917  -28.8851   15.7554 H   0  0  0  0  0  0  0  0  0  0  0  0
    5.5864  -29.9995   14.7044 H   0  0  0  0  0  0  0  0  0  0  0  0
    3.2791  -30.4907   14.3408 H   0  0  0  0  0  0  0  0  0  0  0  0
    4.0709  -30.4492   12.6853 H   0  0  0  0  0  0  0  0  0  0  0  0
    0.2780  -28.7323   10.2536 H   0  0  0  0  0  0  0  0  0  0  0  0
    2.7936  -29.2898   10.6926 H   0  0  0  0  0  0  0  0  0  0  0  0
    1.1674  -29.8184   15.5494 H   0  0  0  0  0  0  0  0  0  0  0  0
   -1.2169  -29.4534   16.0450 H   0  0  0  0  0  0  0  0  0  0  0  0
   -2.8350  -28.8420   14.2473 H   0  0  0  0  0  0  0  0  0  0  0  0
   -2.0587  -28.5670   11.9021 H   0  0  0  0  0  0  0  0  0  0  0  0
 11 12  1  0
 11 10  1  0
 12  8  2  0
 10 16  1  0
 10  9  2  0
 16 15  2  0
  8  7  1  0
  8  9  1  0
  7  5  1  0
  9 13  1  0
  1  2  2  0
  5  2  1  0
  5  6  1  0
 15 14  1  0
  2  3  1  0
 13 14  2  0
  3  4  1  0
  3 17  1  0
  4 18  1  0
  5 19  1  0
  6 20  1  0
  6 21  1  0
  7 22  1  0
  7 23  1  0
 11 24  1  0
 12 25  1  0
 13 26  1  0
 14 27  1  0
 15 28  1  0
 16 29  1  0
A    1
O
A    2
C
A    3
N03
A    4
O04
A    5
CA
A    6
N
A    7
CB
A    8
CG
A    9
CD2
A   10
CE2
A   11
NE1
A   12
CD1
A   13
CE3
A   14
CZ3
A   15
CH2
A   16
CZ2
M  END
