5L0B_6ZM_A_911
     RDKit          3D

 43 46  0  0  0  0  0  0  0  0999 V2000
   29.4000   20.3160   61.3610 C   0  0  0  0  0  0  0  0  0  0  0  0
   31.8770   24.0830   58.0390 N   0  0  0  0  0  0  0  0  0  0  0  0
   30.0170   21.3470   60.4760 C   0  0  0  0  0  0  0  0  0  0  0  0
   31.3410   21.2760   60.1190 C   0  0  0  0  0  0  0  0  0  0  0  0
   31.1830   23.1770   58.8750 C   0  0  0  0  0  0  0  0  0  0  0  0
   31.9450   22.1690   59.3320 N   0  0  0  0  0  0  0  0  0  0  0  0
   28.1890   20.8200   61.9800 N   0  0  0  0  0  0  0  0  0  0  0  0
   27.2280   21.4210   61.0740 C   0  0  0  0  0  0  0  0  0  0  0  0
   27.8320   22.5660   60.2660 C   0  0  0  0  0  0  0  0  0  0  0  0
   29.2950   22.4010   59.9560 C   0  0  0  0  0  0  0  0  0  0  0  0
   29.8720   23.3110   59.1520 N   0  0  0  0  0  0  0  0  0  0  0  0
   28.0850   20.9770   63.3700 C   0  0  0  0  0  0  0  0  0  0  0  0
   27.1530   21.4920   63.9800 O   0  0  0  0  0  0  0  0  0  0  0  0
   29.2480   20.4530   64.1590 C   0  0  0  0  0  0  0  0  0  0  0  0
   31.1480   25.2600   57.5880 C   0  0  0  0  0  0  0  0  0  0  0  0
   30.3880   25.0280   56.2760 C   0  0  0  0  0  0  0  0  0  0  0  0
   30.4780   26.3780   55.6650 C   0  0  0  0  0  0  0  0  0  0  0  0
   31.4200   27.1610   56.2810 C   0  0  0  0  0  0  0  0  0  0  0  0
   32.1140   26.4350   57.3820 C   0  0  0  0  0  0  0  0  0  0  0  0
   31.6440   28.4610   55.8730 C   0  0  0  0  0  0  0  0  0  0  0  0
   30.8590   28.9510   54.8440 C   0  0  0  0  0  0  0  0  0  0  0  0
   29.8870   28.1780   54.2350 C   0  0  0  0  0  0  0  0  0  0  0  0
   29.6990   26.8710   54.6370 C   0  0  0  0  0  0  0  0  0  0  0  0
   29.1544   19.4273   60.7611 H   0  0  0  0  0  0  0  0  0  0  0  0
   30.1182   20.0593   62.1537 H   0  0  0  0  0  0  0  0  0  0  0  0
   32.8550   23.9173   57.7615 H   0  0  0  0  0  0  0  0  0  0  0  0
   31.9377   20.4356   60.5033 H   0  0  0  0  0  0  0  0  0  0  0  0
   26.3831   21.8097   61.6614 H   0  0  0  0  0  0  0  0  0  0  0  0
   26.9016   20.6449   60.3661 H   0  0  0  0  0  0  0  0  0  0  0  0
   27.7040   23.4965   60.8385 H   0  0  0  0  0  0  0  0  0  0  0  0
   27.3054   22.5821   59.3004 H   0  0  0  0  0  0  0  0  0  0  0  0
   29.0349   20.5490   65.2339 H   0  0  0  0  0  0  0  0  0  0  0  0
   29.4121   19.3940   63.9109 H   0  0  0  0  0  0  0  0  0  0  0  0
   30.1500   21.0317   63.9109 H   0  0  0  0  0  0  0  0  0  0  0  0
   30.4133   25.4848   58.3752 H   0  0  0  0  0  0  0  0  0  0  0  0
   29.3438   24.7343   56.4587 H   0  0  0  0  0  0  0  0  0  0  0  0
   30.7902   24.2162   55.6522 H   0  0  0  0  0  0  0  0  0  0  0  0
   33.1133   26.0915   57.0764 H   0  0  0  0  0  0  0  0  0  0  0  0
   32.3044   27.0376   58.2823 H   0  0  0  0  0  0  0  0  0  0  0  0
   32.4169   29.0833   56.3477 H   0  0  0  0  0  0  0  0  0  0  0  0
   31.0124   29.9847   54.5006 H   0  0  0  0  0  0  0  0  0  0  0  0
   29.2659   28.6034   53.4330 H   0  0  0  0  0  0  0  0  0  0  0  0
   28.9450   26.2359   54.1490 H   0  0  0  0  0  0  0  0  0  0  0  0
 22 23  1  0
 22 21  2  0
 23 17  2  0
 21 20  1  0
 17 16  1  0
 17 18  1  0
 20 18  2  0
 16 15  1  0
 18 19  1  0
 19 15  1  0
 15  2  1  0
  2  5  1  0
  5 11  1  0
  5  6  2  0
 11 10  2  0
  6  4  1  0
 10  9  1  0
 10  3  1  0
  4  3  2  0
  9  8  1  0
  3  1  1  0
  8  7  1  0
  1  7  1  0
  7 12  1  0
 12 13  2  0
 12 14  1  0
  1 24  1  0
  1 25  1  0
  2 26  1  0
  4 27  1  0
  8 28  1  0
  8 29  1  0
  9 30  1  0
  9 31  1  0
 14 32  1  0
 14 33  1  0
 14 34  1  0
 15 35  1  0
 16 36  1  0
 16 37  1  0
 19 38  1  0
 19 39  1  0
 20 40  1  0
 21 41  1  0
 22 42  1  0
 23 43  1  0
A    1
C6
A    2
N1
A    3
C5
A    4
C4
A    5
C2
A    6
N3
A    7
N7
A    8
C8
A    9
C9
A   10
C10
A   11
N11
A   12
C12
A   13
O13
A   14
C14
A   15
C15
A   16
C16
A   17
C17
A   18
C18
A   19
C19
A   20
C20
A   21
C21
A   22
C22
A   23
C23
M  END
