5L0E_6ZN_A_911
     RDKit          3D

 59 64  0  0  0  0  0  0  0  0999 V2000
   23.5410   20.7690   64.8530 C   0  0  0  0  0  0  0  0  0  0  0  0
   24.5500   23.2790   65.5780 C   0  0  0  0  0  0  0  0  0  0  0  0
   31.3630   28.7570   55.0440 C   0  0  0  0  0  0  0  0  0  0  0  0
   30.2130   26.6590   54.8570 C   0  0  0  0  0  0  0  0  0  0  0  0
   32.1280   28.3070   56.1130 C   0  0  0  0  0  0  0  0  0  0  0  0
   25.3930   22.3280   65.0470 C   0  0  0  0  0  0  0  0  0  0  0  0
   30.4230   27.9510   54.4090 C   0  0  0  0  0  0  0  0  0  0  0  0
   31.8220   21.3600   60.6120 C   0  0  0  0  0  0  0  0  0  0  0  0
   24.8770   21.0960   64.6730 C   0  0  0  0  0  0  0  0  0  0  0  0
   31.9080   27.0140   56.5460 C   0  0  0  0  0  0  0  0  0  0  0  0
   30.9670   26.2280   55.9380 C   0  0  0  0  0  0  0  0  0  0  0  0
   30.4660   21.3360   60.8410 C   0  0  0  0  0  0  0  0  0  0  0  0
   23.2240   22.9360   65.7130 C   0  0  0  0  0  0  0  0  0  0  0  0
   22.7090   21.7260   65.3870 C   0  0  0  0  0  0  0  0  0  0  0  0
   29.6970   22.2460   60.1480 C   0  0  0  0  0  0  0  0  0  0  0  0
   31.5850   23.0950   59.1410 C   0  0  0  0  0  0  0  0  0  0  0  0
   21.0730   22.8800   66.1530 C   0  0  0  0  0  0  0  0  0  0  0  0
   25.7890   20.1070   64.0770 C   0  0  0  0  0  0  0  0  0  0  0  0
   32.5680   26.3270   57.6700 C   0  0  0  0  0  0  0  0  0  0  0  0
   30.8840   24.9160   56.5890 C   0  0  0  0  0  0  0  0  0  0  0  0
   29.8690   20.3830   61.8260 C   0  0  0  0  0  0  0  0  0  0  0  0
   28.2060   22.2970   60.3410 C   0  0  0  0  0  0  0  0  0  0  0  0
   27.6250   21.1770   61.1970 C   0  0  0  0  0  0  0  0  0  0  0  0
   31.5900   25.1890   57.8980 C   0  0  0  0  0  0  0  0  0  0  0  0
   27.2500   20.3210   64.3700 C   0  0  0  0  0  0  0  0  0  0  0  0
   28.0440   19.7750   63.2080 C   0  0  0  0  0  0  0  0  0  0  0  0
   32.3870   22.2240   59.7720 N   0  0  0  0  0  0  0  0  0  0  0  0
   30.2470   23.1160   59.2940 N   0  0  0  0  0  0  0  0  0  0  0  0
   22.1890   23.6740   66.1870 N   0  0  0  0  0  0  0  0  0  0  0  0
   32.2700   23.9660   58.2510 N   0  0  0  0  0  0  0  0  0  0  0  0
   28.5510   20.8530   62.3270 N   0  0  0  0  0  0  0  0  0  0  0  0
   19.9690   23.2400   66.5390 O   0  0  0  0  0  0  0  0  0  0  0  0
   25.3380   19.2120   63.3630 O   0  0  0  0  0  0  0  0  0  0  0  0
   21.3410   21.6190   65.6290 O   0  0  0  0  0  0  0  0  0  0  0  0
   23.1585   19.7752   64.5773 H   0  0  0  0  0  0  0  0  0  0  0  0
   24.9204   24.2695   65.8810 H   0  0  0  0  0  0  0  0  0  0  0  0
   31.5055   29.7876   54.6867 H   0  0  0  0  0  0  0  0  0  0  0  0
   29.4767   25.9994   54.3745 H   0  0  0  0  0  0  0  0  0  0  0  0
   32.8771   28.9531   56.5941 H   0  0  0  0  0  0  0  0  0  0  0  0
   26.4643   22.5433   64.9208 H   0  0  0  0  0  0  0  0  0  0  0  0
   29.8494   28.3394   53.5545 H   0  0  0  0  0  0  0  0  0  0  0  0
   32.4623   20.6395   61.1420 H   0  0  0  0  0  0  0  0  0  0  0  0
   33.5662   25.9574   57.3925 H   0  0  0  0  0  0  0  0  0  0  0  0
   32.7563   26.9581   58.5510 H   0  0  0  0  0  0  0  0  0  0  0  0
   29.8392   24.6122   56.7508 H   0  0  0  0  0  0  0  0  0  0  0  0
   31.3225   24.0944   56.0037 H   0  0  0  0  0  0  0  0  0  0  0  0
   29.7358   19.4058   61.3388 H   0  0  0  0  0  0  0  0  0  0  0  0
   30.5524   20.3096   62.6848 H   0  0  0  0  0  0  0  0  0  0  0  0
   27.9571   23.2556   60.8197 H   0  0  0  0  0  0  0  0  0  0  0  0
   27.7638   22.1784   59.3408 H   0  0  0  0  0  0  0  0  0  0  0  0
   26.6544   21.4974   61.6037 H   0  0  0  0  0  0  0  0  0  0  0  0
   27.4948   20.2806   60.5729 H   0  0  0  0  0  0  0  0  0  0  0  0
   30.9075   25.4817   58.7095 H   0  0  0  0  0  0  0  0  0  0  0  0
   27.5271   19.7910   65.2932 H   0  0  0  0  0  0  0  0  0  0  0  0
   27.4594   21.3923   64.5060 H   0  0  0  0  0  0  0  0  0  0  0  0
   27.3976   19.1087   62.6180 H   0  0  0  0  0  0  0  0  0  0  0  0
   28.9104   19.2320   63.6137 H   0  0  0  0  0  0  0  0  0  0  0  0
   22.2339   24.6503   66.5122 H   0  0  0  0  0  0  0  0  0  0  0  0
   33.2022   23.7366   57.8778 H   0  0  0  0  0  0  0  0  0  0  0  0
  7  4  1  0
  7  3  2  0
  4 11  2  0
  3  5  1  0
 11 10  1  0
 11 20  1  0
  5 10  2  0
 10 19  1  0
 20 24  1  0
 19 24  1  0
 24 30  1  0
 30 16  1  0
 16 28  2  0
 16 27  1  0
 28 15  1  0
 27  8  2  0
 15 22  1  0
 15 12  2  0
 22 23  1  0
  8 12  1  0
 12 21  1  0
 23 31  1  0
 21 31  1  0
 31 26  1  0
 26 25  1  0
 33 18  2  0
 18 25  1  0
 18  9  1  0
  9  1  2  0
  9  6  1  0
  1 14  1  0
  6  2  2  0
 14 34  1  0
 14 13  2  0
  2 13  1  0
 34 17  1  0
 13 29  1  0
 17 29  1  0
 17 32  2  0
  1 35  1  0
  2 36  1  0
  3 37  1  0
  4 38  1  0
  5 39  1  0
  6 40  1  0
  7 41  1  0
  8 42  1  0
 19 43  1  0
 19 44  1  0
 20 45  1  0
 20 46  1  0
 21 47  1  0
 21 48  1  0
 22 49  1  0
 22 50  1  0
 23 51  1  0
 23 52  1  0
 24 53  1  0
 25 54  1  0
 25 55  1  0
 26 56  1  0
 26 57  1  0
 29 58  1  0
 30 59  1  0
A    1
C7
A    2
C6
A    3
C1
A    4
C5
A    5
C4
A    6
C3
A    7
C2
A    8
C8
A    9
C9
A   10
C10
A   11
C11
A   12
C12
A   13
C13
A   14
C14
A   15
C15
A   16
C16
A   17
C17
A   18
C18
A   19
C19
A   20
C20
A   21
C21
A   22
C22
A   23
C23
A   24
C24
A   25
C25
A   26
C26
A   27
N27
A   28
N28
A   29
N29
A   30
N30
A   31
N31
A   32
O32
A   33
O33
A   34
O34
M  END
