5L0N_6ZA_A_406
     RDKit          3D

 35 38  0  0  0  0  0  0  0  0999 V2000
   10.1700   57.4530   21.9070 N   0  0  0  0  0  0  0  0  0  0  0  0
    5.8410   60.2400   18.2590 C   0  0  0  0  0  0  0  0  0  0  0  0
    6.5930   58.0370   18.2270 C   0  0  0  0  0  0  0  0  0  0  0  0
    8.1500   56.2810   17.9340 C   0  0  0  0  0  0  0  0  0  0  0  0
    9.3290   56.5400   19.7220 C   0  0  0  0  0  0  0  0  0  0  0  0
   10.3090   56.4750   20.9040 C   0  0  0  0  0  0  0  0  0  0  0  0
    2.2120   62.2630   20.4900 S   0  0  0  0  0  0  0  0  0  0  0  0
    4.0150   61.6730   20.3650 P   0  0  0  0  0  0  0  0  0  0  0  0
    6.8810   59.5490   17.9200 O   0  0  0  0  0  0  0  0  0  0  0  0
    4.0350   59.9960   20.0280 O   0  0  0  0  0  0  0  0  0  0  0  0
    4.7290   62.3380   18.9290 O   0  0  0  0  0  0  0  0  0  0  0  0
    4.1370   57.7220   18.6880 O   0  0  0  0  0  0  0  0  0  0  0  0
    4.9980   61.9240   21.5770 O   0  0  0  0  0  0  0  0  0  0  0  0
   11.1620   55.6280   21.0020 O   0  0  0  0  0  0  0  0  0  0  0  0
    7.6540   57.3840   18.5910 N   0  0  0  0  0  0  0  0  0  0  0  0
    8.2380   58.5290   20.7440 N   0  0  0  0  0  0  0  0  0  0  0  0
    9.1940   55.7800   18.6290 N   0  0  0  0  0  0  0  0  0  0  0  0
    9.0630   59.4390   22.8680 N   0  0  0  0  0  0  0  0  0  0  0  0
    5.2830   59.4310   19.6470 C   0  0  0  0  0  0  0  0  0  0  0  0
    5.3810   58.1610   19.3390 C   0  0  0  0  0  0  0  0  0  0  0  0
    6.0440   61.7100   18.5320 C   0  0  0  0  0  0  0  0  0  0  0  0
    8.3740   57.5210   19.6930 C   0  0  0  0  0  0  0  0  0  0  0  0
    9.1620   58.4590   21.8400 C   0  0  0  0  0  0  0  0  0  0  0  0
    5.1388   60.2809   17.4132 H   0  0  0  0  0  0  0  0  0  0  0  0
    6.2900   57.4274   17.3629 H   0  0  0  0  0  0  0  0  0  0  0  0
    7.7578   55.8719   16.9912 H   0  0  0  0  0  0  0  0  0  0  0  0
    3.4684   57.4861   19.3790 H   0  0  0  0  0  0  0  0  0  0  0  0
    4.5098   61.7993   22.4292 H   0  0  0  0  0  0  0  0  0  0  0  0
    7.5109   59.2572   20.6995 H   0  0  0  0  0  0  0  0  0  0  0  0
    9.0919   59.1527   23.8570 H   0  0  0  0  0  0  0  0  0  0  0  0
    8.9625   60.4343   22.6227 H   0  0  0  0  0  0  0  0  0  0  0  0
    5.8501   59.5458   20.5825 H   0  0  0  0  0  0  0  0  0  0  0  0
    5.5701   57.5545   20.2370 H   0  0  0  0  0  0  0  0  0  0  0  0
    6.7702   61.8338   19.3489 H   0  0  0  0  0  0  0  0  0  0  0  0
    6.4239   62.2011   17.6240 H   0  0  0  0  0  0  0  0  0  0  0  0
  1  6  1  0
  1 23  2  0
  2  9  1  0
  2 21  1  0
  3  9  1  0
  3 15  1  0
  3 20  1  0
  4 15  1  0
  4 17  2  0
  5  6  1  0
  5 17  1  0
  5 22  2  0
  6 14  2  0
  7  8  2  0
  8 10  1  0
  8 11  1  0
  8 13  1  0
 10 19  1  0
 11 21  1  0
 12 20  1  0
 15 22  1  0
 16 22  1  0
 16 23  1  0
 18 23  1  0
 19 20  1  0
  2 19  1  0
  2 24  1  0
  3 25  1  0
  4 26  1  0
 12 27  1  0
 13 28  1  0
 16 29  1  0
 18 30  1  0
 18 31  1  0
 19 32  1  0
 20 33  1  0
 21 34  1  0
 21 35  1  0
A    1
N12
A    2
C15
A    3
C17
A    4
C20
A    5
C21
A    6
C22
A    7
S01
A    8
P02
A    9
O03
A   10
O04
A   11
O05
A   12
O06
A   13
O07
A   14
O08
A   15
N09
A   16
N10
A   17
N11
A   18
N13
A   19
C14
A   20
C16
A   21
C18
A   22
C19
A   23
C23
M  END
