5L11_RJW_A_601
     RDKit          3D

 63 66  0  0  0  0  0  0  0  0999 V2000
   11.6680   28.0570   15.6930 O   0  0  0  0  0  0  0  0  0  0  0  0
   12.5440   27.2720   14.9140 C   0  0  0  0  0  0  0  0  0  0  0  0
   13.2050   28.1750   13.8820 C   0  0  0  0  0  0  0  0  0  0  0  0
   12.2190   28.1830   12.7340 C   0  0  0  0  0  0  0  0  0  0  0  0
   11.5860   26.7700   12.6410 C   0  0  0  0  0  0  0  0  0  0  0  0
   10.0830   26.7660   12.2340 C   0  0  0  0  0  0  0  0  0  0  0  0
    9.0810   25.7330   12.6070 C   0  0  0  0  0  0  0  0  0  0  0  0
    9.3060   24.3660   12.3790 C   0  0  0  0  0  0  0  0  0  0  0  0
    8.3700   23.3660   12.7380 C   0  0  0  0  0  0  0  0  0  0  0  0
    7.1600   23.7170   13.3520 C   0  0  0  0  0  0  0  0  0  0  0  0
    6.9160   25.0790   13.6000 C   0  0  0  0  0  0  0  0  0  0  0  0
    7.8680   26.0630   13.2350 C   0  0  0  0  0  0  0  0  0  0  0  0
    9.6770   27.8050   11.4420 C   0  0  0  0  0  0  0  0  0  0  0  0
   11.7020   26.2500   14.0900 C   0  0  0  0  0  0  0  0  0  0  0  0
   12.3600   24.8580   13.9920 C   0  0  0  0  0  0  0  0  0  0  0  0
   13.0250   24.8300   12.6150 C   0  0  0  0  0  0  0  0  0  0  0  0
   13.9580   23.6930   12.2180 C   0  0  0  0  0  0  0  0  0  0  0  0
   13.6190   22.2410   12.6940 C   0  0  0  0  0  0  0  0  0  0  0  0
   12.2310   21.7030   12.2050 C   0  0  0  0  0  0  0  0  0  0  0  0
   11.9940   20.2220   12.5680 C   0  0  0  0  0  0  0  0  0  0  0  0
   10.5670   19.7440   12.3060 C   0  0  0  0  0  0  0  0  0  0  0  0
   10.3240   18.3410   12.8660 C   0  0  0  0  0  0  0  0  0  0  0  0
   12.4640   25.8140   11.7830 C   0  0  0  0  0  0  0  0  0  0  0  0
   12.7090   26.0650   10.3630 C   0  0  0  0  0  0  0  0  0  0  0  0
   13.9680   26.4770    9.9010 C   0  0  0  0  0  0  0  0  0  0  0  0
   14.2350   26.7380    8.5330 C   0  0  0  0  0  0  0  0  0  0  0  0
   13.2210   26.5890    7.5740 C   0  0  0  0  0  0  0  0  0  0  0  0
   11.9540   26.1840    8.0130 C   0  0  0  0  0  0  0  0  0  0  0  0
   11.7130   25.9340    9.3910 C   0  0  0  0  0  0  0  0  0  0  0  0
   11.8469   27.8967   16.6534 H   0  0  0  0  0  0  0  0  0  0  0  0
   13.2736   26.7757   15.5708 H   0  0  0  0  0  0  0  0  0  0  0  0
   14.1747   27.7643   13.5642 H   0  0  0  0  0  0  0  0  0  0  0  0
   13.4189   29.1821   14.2692 H   0  0  0  0  0  0  0  0  0  0  0  0
   12.7401   28.4219   11.7952 H   0  0  0  0  0  0  0  0  0  0  0  0
   11.4406   28.9418   12.9021 H   0  0  0  0  0  0  0  0  0  0  0  0
   10.2484   24.0592   11.9017 H   0  0  0  0  0  0  0  0  0  0  0  0
    8.5936   22.3085   12.5340 H   0  0  0  0  0  0  0  0  0  0  0  0
    6.4232   22.9495   13.6315 H   0  0  0  0  0  0  0  0  0  0  0  0
    5.9758   25.3842   14.0826 H   0  0  0  0  0  0  0  0  0  0  0  0
    7.6504   27.1196   13.4502 H   0  0  0  0  0  0  0  0  0  0  0  0
   10.3942   28.5856   11.1483 H   0  0  0  0  0  0  0  0  0  0  0  0
    8.6333   27.8598   11.0988 H   0  0  0  0  0  0  0  0  0  0  0  0
   10.7345   26.1525   14.6043 H   0  0  0  0  0  0  0  0  0  0  0  0
   11.6013   24.0654   14.0711 H   0  0  0  0  0  0  0  0  0  0  0  0
   13.0825   24.6847   14.8031 H   0  0  0  0  0  0  0  0  0  0  0  0
   13.9945   23.6730   11.1188 H   0  0  0  0  0  0  0  0  0  0  0  0
   14.9009   23.9293   12.7329 H   0  0  0  0  0  0  0  0  0  0  0  0
   13.6231   22.2305   13.7939 H   0  0  0  0  0  0  0  0  0  0  0  0
   14.3820   21.5820   12.2540 H   0  0  0  0  0  0  0  0  0  0  0  0
   12.1805   21.8078   11.1112 H   0  0  0  0  0  0  0  0  0  0  0  0
   11.4533   22.2934   12.7116 H   0  0  0  0  0  0  0  0  0  0  0  0
   12.6817   19.6044   11.9716 H   0  0  0  0  0  0  0  0  0  0  0  0
   12.1711   20.1248   13.6493 H   0  0  0  0  0  0  0  0  0  0  0  0
    9.8644   20.4437   12.7822 H   0  0  0  0  0  0  0  0  0  0  0  0
   10.4137   19.7080   11.2173 H   0  0  0  0  0  0  0  0  0  0  0  0
   10.3305   18.3788   13.9653 H   0  0  0  0  0  0  0  0  0  0  0  0
    9.3484   17.9711   12.5176 H   0  0  0  0  0  0  0  0  0  0  0  0
   11.1183   17.6645   12.5176 H   0  0  0  0  0  0  0  0  0  0  0  0
   14.7818   26.6028   10.6303 H   0  0  0  0  0  0  0  0  0  0  0  0
   15.2404   27.0584    8.2223 H   0  0  0  0  0  0  0  0  0  0  0  0
   13.4156   26.7845    6.5091 H   0  0  0  0  0  0  0  0  0  0  0  0
   11.1389   26.0584    7.2851 H   0  0  0  0  0  0  0  0  0  0  0  0
   10.7047   25.6258    9.7046 H   0  0  0  0  0  0  0  0  0  0  0  0
 27 28  2  0
 27 26  1  0
 28 29  1  0
 26 25  2  0
 29 24  2  0
 25 24  1  0
 24 23  1  0
 13  6  2  3
 23 16  2  0
 23  5  1  0
 19 20  1  0
 19 18  1  0
 17 16  1  0
 17 18  1  0
  6  7  1  0
  6  5  1  0
 21 20  1  0
 21 22  1  0
  8  7  2  0
  8  9  1  0
  7 12  1  0
 16 15  1  0
  5  4  1  0
  5 14  1  0
  4  3  1  0
  9 10  2  0
 12 11  2  0
 10 11  1  0
  3  2  1  0
 15 14  1  0
 14  2  1  0
  2  1  1  0
  1 30  1  0
  2 31  1  0
  3 32  1  0
  3 33  1  0
  4 34  1  0
  4 35  1  0
  8 36  1  0
  9 37  1  0
 10 38  1  0
 11 39  1  0
 12 40  1  0
 13 41  1  0
 13 42  1  0
 14 43  1  0
 15 44  1  0
 15 45  1  0
 17 46  1  0
 17 47  1  0
 18 48  1  0
 18 49  1  0
 19 50  1  0
 19 51  1  0
 20 52  1  0
 20 53  1  0
 21 54  1  0
 21 55  1  0
 22 56  1  0
 22 57  1  0
 22 58  1  0
 25 59  1  0
 26 60  1  0
 27 61  1  0
 28 62  1  0
 29 63  1  0
A    1
O01
A    2
C02
A    3
C03
A    4
C04
A    5
C05
A    6
C06
A    7
C07
A    8
C08
A    9
C09
A   10
C10
A   11
C11
A   12
C12
A   13
C13
A   14
C14
A   15
C15
A   16
C16
A   17
C17
A   18
C18
A   19
C19
A   20
C20
A   21
C21
A   22
C22
A   23
C23
A   24
C24
A   25
C25
A   26
C26
A   27
C27
A   28
C28
A   29
C29
M  END
