5L1P_7PT_A_502
     RDKit          3D

 36 39  0  0  0  0  0  0  0  0999 V2000
   23.9600   23.7160   19.0990 C   0  0  0  0  0  0  0  0  0  0  0  0
   24.0530   20.3940   21.5710 O   0  0  0  0  0  0  0  0  0  0  0  0
   24.1620   22.6060   18.2420 C   0  0  0  0  0  0  0  0  0  0  0  0
   23.5080   21.4960   18.6390 C   0  0  0  0  0  0  0  0  0  0  0  0
   22.7380   21.7650   19.7990 C   0  0  0  0  0  0  0  0  0  0  0  0
   21.2700   22.1230   19.4630 C   0  0  0  0  0  0  0  0  0  0  0  0
   25.0980   22.6540   17.0230 C   0  0  0  0  0  0  0  0  0  0  0  0
   23.1580   24.7960   18.3700 C   0  0  0  0  0  0  0  0  0  0  0  0
   22.1140   23.7120   20.8750 C   0  0  0  0  0  0  0  0  0  0  0  0
   20.3900   20.8880   19.7880 C   0  0  0  0  0  0  0  0  0  0  0  0
   22.8250   20.8040   22.3030 C   0  0  0  0  0  0  0  0  0  0  0  0
   19.7070   23.6140   20.6810 C   0  0  0  0  0  0  0  0  0  0  0  0
   22.2740   19.4320   20.2790 C   0  0  0  0  0  0  0  0  0  0  0  0
   20.9650   23.1860   20.3580 C   0  0  0  0  0  0  0  0  0  0  0  0
   23.2890   23.0710   20.3550 C   0  0  0  0  0  0  0  0  0  0  0  0
   22.8460   20.5870   20.8090 C   0  0  0  0  0  0  0  0  0  0  0  0
   18.6800   23.1630   20.1350 O   0  0  0  0  0  0  0  0  0  0  0  0
   22.8940   18.3670   20.3190 O   0  0  0  0  0  0  0  0  0  0  0  0
   19.5090   24.5150   21.5210 O   0  0  0  0  0  0  0  0  0  0  0  0
   21.0610   19.5930   19.6480 O   0  0  0  0  0  0  0  0  0  0  0  0
   24.8633   24.2621   19.4086 H   0  0  0  0  0  0  0  0  0  0  0  0
   23.5638   20.5200   18.1346 H   0  0  0  0  0  0  0  0  0  0  0  0
   21.1042   22.4022   18.4120 H   0  0  0  0  0  0  0  0  0  0  0  0
   26.1423   22.7076   17.3645 H   0  0  0  0  0  0  0  0  0  0  0  0
   24.9566   21.7474   16.4163 H   0  0  0  0  0  0  0  0  0  0  0  0
   24.8647   23.5414   16.4163 H   0  0  0  0  0  0  0  0  0  0  0  0
   22.6712   25.4515   19.1071 H   0  0  0  0  0  0  0  0  0  0  0  0
   23.8342   25.3919   17.7394 H   0  0  0  0  0  0  0  0  0  0  0  0
   22.3920   24.3210   17.7394 H   0  0  0  0  0  0  0  0  0  0  0  0
   22.1370   24.5332   21.6065 H   0  0  0  0  0  0  0  0  0  0  0  0
   20.0424   20.9812   20.8275 H   0  0  0  0  0  0  0  0  0  0  0  0
   19.5732   20.8912   19.0512 H   0  0  0  0  0  0  0  0  0  0  0  0
   22.7363   21.8192   22.7171 H   0  0  0  0  0  0  0  0  0  0  0  0
   22.2421   20.4173   23.1519 H   0  0  0  0  0  0  0  0  0  0  0  0
   24.0386   23.0697   21.1600 H   0  0  0  0  0  0  0  0  0  0  0  0
   19.5543   24.3087   22.4882 H   0  0  0  0  0  0  0  0  0  0  0  0
  7  3  1  0
  3  4  2  0
  3  1  1  0
  8  1  1  0
  4  5  1  0
  1 15  1  0
  6 10  1  0
  6  5  1  0
  6 14  1  0
 20 10  1  0
 20 13  1  0
  5 15  1  0
  5 16  1  0
 17 12  2  0
 13 18  2  0
 13 16  1  0
 15  9  1  0
 14 12  1  0
 14  9  2  0
 12 19  1  0
 16  2  1  0
 16 11  1  0
  2 11  1  0
  1 21  1  0
  4 22  1  0
  6 23  1  0
  7 24  1  0
  7 25  1  0
  7 26  1  0
  8 27  1  0
  8 28  1  0
  8 29  1  0
  9 30  1  0
 10 31  1  0
 10 32  1  0
 11 33  1  0
 11 34  1  0
 15 35  1  0
 19 36  1  0
A    1
C1
A    2
O1
A    3
C2
A    4
C3
A    5
C4
A    6
C5
A    7
C15
A    8
C14
A    9
C7
A   10
C12
A   11
C10
A   12
C13
A   13
C11
A   14
C6
A   15
C8
A   16
C9
A   17
O4
A   18
O2
A   19
O5
A   20
O3
M  END
