5L2J_70E_A_414
     RDKit          3D

132132  0  0  0  0  0  0  0  0999 V2000
   49.2030  101.3560   97.6020 C   0  0  0  0  0  0  0  0  0  0  0  0
   50.4470  100.4620   97.3360 C   0  0  0  0  0  0  0  0  0  0  0  0
   50.0320   99.0750   96.8130 C   0  0  0  0  0  0  0  0  0  0  0  0
   49.5220   99.1530   95.3650 C   0  0  0  0  0  0  0  0  0  0  0  0
   50.6010   98.6430   94.4110 C   0  0  0  0  0  0  0  0  0  0  0  0
   50.6210   99.5330   93.1650 C   0  0  0  0  0  0  0  0  0  0  0  0
   51.5150   98.9150   92.0880 C   0  0  0  0  0  0  0  0  0  0  0  0
   52.8730   99.6230   92.0440 C   0  0  0  0  0  0  0  0  0  0  0  0
   53.9310   98.6780   92.6230 C   0  0  0  0  0  0  0  0  0  0  0  0
   55.3240   99.2000   92.3030 C   0  0  0  0  0  0  0  0  0  0  0  0
   55.9900   99.6470   93.5980 C   0  0  0  0  0  0  0  0  0  0  0  0
   57.5040   99.6690   93.3930 C   0  0  0  0  0  0  0  0  0  0  0  0
   58.2110   99.7840   94.7480 C   0  0  0  0  0  0  0  0  0  0  0  0
   58.7030  101.2160   94.9540 C   0  0  0  0  0  0  0  0  0  0  0  0
   60.1410  101.3580   94.4680 C   0  0  0  0  0  0  0  0  0  0  0  0
   60.2050  102.5060   93.4600 C   0  0  0  0  0  0  0  0  0  0  0  0
   51.3810  100.3150   98.5610 C   0  0  0  0  0  0  0  0  0  0  0  0
   52.8500  100.4340   98.1310 C   0  0  0  0  0  0  0  0  0  0  0  0
   53.7680   99.9850   99.2730 C   0  0  0  0  0  0  0  0  0  0  0  0
   55.1570   99.6460   98.7330 C   0  0  0  0  0  0  0  0  0  0  0  0
   55.8490   98.6840   99.7010 C   0  0  0  0  0  0  0  0  0  0  0  0
   57.1840   98.2210   99.1080 C   0  0  0  0  0  0  0  0  0  0  0  0
   57.9080   97.3550  100.1390 C   0  0  0  0  0  0  0  0  0  0  0  0
   59.0860   98.1330  100.7520 C   0  0  0  0  0  0  0  0  0  0  0  0
   59.5830   97.3880  101.9900 C   0  0  0  0  0  0  0  0  0  0  0  0
   60.4980   98.3030  102.7930 C   0  0  0  0  0  0  0  0  0  0  0  0
   61.3900   97.4610  103.7160 C   0  0  0  0  0  0  0  0  0  0  0  0
   61.1970   97.8830  105.1680 C   0  0  0  0  0  0  0  0  0  0  0  0
   60.2840   96.8990  105.9030 C   0  0  0  0  0  0  0  0  0  0  0  0
   59.9040   97.4710  107.2700 C   0  0  0  0  0  0  0  0  0  0  0  0
   60.3480   96.5010  108.3540 C   0  0  0  0  0  0  0  0  0  0  0  0
   59.1440   95.8740  109.0520 C   0  0  0  0  0  0  0  0  0  0  0  0
   59.2260   94.3500  108.9410 C   0  0  0  0  0  0  0  0  0  0  0  0
   57.9210   93.7210  109.4430 C   0  0  0  0  0  0  0  0  0  0  0  0
   58.1860   92.3590  110.1050 C   0  0  0  0  0  0  0  0  0  0  0  0
   57.4860   92.2810  111.4730 C   0  0  0  0  0  0  0  0  0  0  0  0
   48.9950  102.3360   96.8800 O   0  0  0  0  0  0  0  0  0  0  0  0
   48.3990  100.9650   98.6540 O   0  0  0  0  0  0  0  0  0  0  0  0
   47.2280  101.7650   98.9370 C   0  0  0  0  0  0  0  0  0  0  0  0
   51.0930  101.3100   99.5560 O   0  0  0  0  0  0  0  0  0  0  0  0
   45.7780  103.2650  101.7620 C   0  0  0  0  0  0  0  0  0  0  0  0
   45.4920  103.0490  103.1520 O   0  0  0  0  0  0  0  0  0  0  0  0
   45.8710  104.7760  101.4850 C   0  0  0  0  0  0  0  0  0  0  0  0
   44.6350  105.4110  101.8570 O   0  0  0  0  0  0  0  0  0  0  0  0
   46.1240  104.9900   99.9820 C   0  0  0  0  0  0  0  0  0  0  0  0
   46.1350  106.3920   99.6660 O   0  0  0  0  0  0  0  0  0  0  0  0
   47.4250  104.3120   99.4930 C   0  0  0  0  0  0  0  0  0  0  0  0
   47.4900  104.4010   98.0540 O   0  0  0  0  0  0  0  0  0  0  0  0
   47.5630  102.8260  100.0020 C   0  0  0  0  0  0  0  0  0  0  0  0
   47.0250  102.5860  101.3680 O   0  0  0  0  0  0  0  0  0  0  0  0
   51.0266  100.9856   96.5614 H   0  0  0  0  0  0  0  0  0  0  0  0
   49.2320   98.6753   97.4535 H   0  0  0  0  0  0  0  0  0  0  0  0
   50.9138   98.4178   96.8353 H   0  0  0  0  0  0  0  0  0  0  0  0
   49.2797  100.1973   95.1184 H   0  0  0  0  0  0  0  0  0  0  0  0
   48.6209   98.5306   95.2621 H   0  0  0  0  0  0  0  0  0  0  0  0
   50.3772   97.6059   94.1206 H   0  0  0  0  0  0  0  0  0  0  0  0
   51.5823   98.6735   94.9071 H   0  0  0  0  0  0  0  0  0  0  0  0
   51.0100  100.5261   93.4341 H   0  0  0  0  0  0  0  0  0  0  0  0
   49.5974   99.6241   92.7727 H   0  0  0  0  0  0  0  0  0  0  0  0
   51.0234   99.0145   91.1090 H   0  0  0  0  0  0  0  0  0  0  0  0
   51.6758   97.8533   92.3264 H   0  0  0  0  0  0  0  0  0  0  0  0
   53.1279   99.8730   91.0036 H   0  0  0  0  0  0  0  0  0  0  0  0
   52.8339  100.5518   92.6321 H   0  0  0  0  0  0  0  0  0  0  0  0
   53.8066   98.6163   93.7142 H   0  0  0  0  0  0  0  0  0  0  0  0
   53.8075   97.6801   92.1771 H   0  0  0  0  0  0  0  0  0  0  0  0
   55.9201   98.4015   91.8372 H   0  0  0  0  0  0  0  0  0  0  0  0
   55.2544  100.0484   91.6063 H   0  0  0  0  0  0  0  0  0  0  0  0
   55.6388  100.6545   93.8654 H   0  0  0  0  0  0  0  0  0  0  0  0
   55.7335   98.9499   94.4093 H   0  0  0  0  0  0  0  0  0  0  0  0
   57.8184   98.7399   92.8950 H   0  0  0  0  0  0  0  0  0  0  0  0
   57.7730  100.5340   92.7690 H   0  0  0  0  0  0  0  0  0  0  0  0
   57.5069   99.5205   95.5510 H   0  0  0  0  0  0  0  0  0  0  0  0
   59.0703   99.0976   94.7692 H   0  0  0  0  0  0  0  0  0  0  0  0
   58.6557  101.4652   96.0244 H   0  0  0  0  0  0  0  0  0  0  0  0
   58.0622  101.9001   94.3784 H   0  0  0  0  0  0  0  0  0  0  0  0
   60.4631  100.4232   93.9858 H   0  0  0  0  0  0  0  0  0  0  0  0
   60.8059  101.5679   95.3188 H   0  0  0  0  0  0  0  0  0  0  0  0
   60.2584  103.4639   93.9981 H   0  0  0  0  0  0  0  0  0  0  0  0
   61.0981  102.3900   92.8284 H   0  0  0  0  0  0  0  0  0  0  0  0
   59.3046  102.4900   92.8284 H   0  0  0  0  0  0  0  0  0  0  0  0
   51.2054   99.3203   98.9966 H   0  0  0  0  0  0  0  0  0  0  0  0
   53.0248   99.7973   97.2512 H   0  0  0  0  0  0  0  0  0  0  0  0
   53.0697  101.4827   97.8819 H   0  0  0  0  0  0  0  0  0  0  0  0
   53.8533  100.7964  100.0108 H   0  0  0  0  0  0  0  0  0  0  0  0
   53.3392   99.0896   99.7466 H   0  0  0  0  0  0  0  0  0  0  0  0
   55.0625   99.1705   97.7456 H   0  0  0  0  0  0  0  0  0  0  0  0
   55.7519  100.5662   98.6362 H   0  0  0  0  0  0  0  0  0  0  0  0
   56.0323   99.1969  100.6567 H   0  0  0  0  0  0  0  0  0  0  0  0
   55.2030   97.8094   99.8673 H   0  0  0  0  0  0  0  0  0  0  0  0
   56.9996   97.6338   98.1963 H   0  0  0  0  0  0  0  0  0  0  0  0
   57.8025   99.0943   98.8535 H   0  0  0  0  0  0  0  0  0  0  0  0
   57.2041   97.0737  100.9361 H   0  0  0  0  0  0  0  0  0  0  0  0
   58.2931   96.4520   99.6428 H   0  0  0  0  0  0  0  0  0  0  0  0
   59.9000   98.2099  100.0162 H   0  0  0  0  0  0  0  0  0  0  0  0
   58.7574   99.1443  101.0335 H   0  0  0  0  0  0  0  0  0  0  0  0
   58.7242   97.0910  102.6098 H   0  0  0  0  0  0  0  0  0  0  0  0
   60.1377   96.4894  101.6820 H   0  0  0  0  0  0  0  0  0  0  0  0
   61.1293   98.8844  102.1049 H   0  0  0  0  0  0  0  0  0  0  0  0
   59.8874   98.9870  103.4007 H   0  0  0  0  0  0  0  0  0  0  0  0
   61.1235   96.3992  103.6083 H   0  0  0  0  0  0  0  0  0  0  0  0
   62.4422   97.6160  103.4353 H   0  0  0  0  0  0  0  0  0  0  0  0
   62.1759   97.9098  105.6690 H   0  0  0  0  0  0  0  0  0  0  0  0
   60.7300   98.8788  105.1867 H   0  0  0  0  0  0  0  0  0  0  0  0
   59.3726   96.7329  105.3099 H   0  0  0  0  0  0  0  0  0  0  0  0
   60.8134   95.9448  106.0417 H   0  0  0  0  0  0  0  0  0  0  0  0
   60.4031   98.4404  107.4157 H   0  0  0  0  0  0  0  0  0  0  0  0
   58.8146   97.6139  107.3230 H   0  0  0  0  0  0  0  0  0  0  0  0
   60.9546   95.7047  107.8980 H   0  0  0  0  0  0  0  0  0  0  0  0
   60.9373   97.0543  109.1001 H   0  0  0  0  0  0  0  0  0  0  0  0
   59.1429   96.1647  110.1129 H   0  0  0  0  0  0  0  0  0  0  0  0
   58.2184   96.2270  108.5738 H   0  0  0  0  0  0  0  0  0  0  0  0
   59.3861   94.0686  107.8897 H   0  0  0  0  0  0  0  0  0  0  0  0
   60.0636   93.9860  109.5541 H   0  0  0  0  0  0  0  0  0  0  0  0
   57.4565   94.3943  110.1785 H   0  0  0  0  0  0  0  0  0  0  0  0
   57.2514   93.5691  108.5836 H   0  0  0  0  0  0  0  0  0  0  0  0
   57.8012   91.5593  109.4551 H   0  0  0  0  0  0  0  0  0  0  0  0
   59.2695   92.2390  110.2518 H   0  0  0  0  0  0  0  0  0  0  0  0
   58.2356   92.3645  112.2737 H   0  0  0  0  0  0  0  0  0  0  0  0
   56.7615   93.1040  111.5616 H   0  0  0  0  0  0  0  0  0  0  0  0
   56.9605   91.3187  111.5616 H   0  0  0  0  0  0  0  0  0  0  0  0
   46.8966  102.2654   98.0152 H   0  0  0  0  0  0  0  0  0  0  0  0
   46.4266  101.1130   99.3148 H   0  0  0  0  0  0  0  0  0  0  0  0
   51.2066  100.9175  100.4577 H   0  0  0  0  0  0  0  0  0  0  0  0
   44.9619  102.8375  101.1610 H   0  0  0  0  0  0  0  0  0  0  0  0
   46.1475  103.5441  103.7046 H   0  0  0  0  0  0  0  0  0  0  0  0
   46.6932  105.2129  102.0707 H   0  0  0  0  0  0  0  0  0  0  0  0
   44.5662  105.4464  102.8440 H   0  0  0  0  0  0  0  0  0  0  0  0
   45.2930  104.5068   99.4473 H   0  0  0  0  0  0  0  0  0  0  0  0
   46.1391  106.9191  100.5040 H   0  0  0  0  0  0  0  0  0  0  0  0
   48.2827  104.8473   99.9263 H   0  0  0  0  0  0  0  0  0  0  0  0
   48.0538  105.1729   97.7962 H   0  0  0  0  0  0  0  0  0  0  0  0
   48.6417  102.6768  100.1574 H   0  0  0  0  0  0  0  0  0  0  0  0
  8  7  1  0
  8  9  1  0
  7  6  1  0
 10  9  1  0
 10 11  1  0
  6  5  1  0
 12 11  1  0
 12 13  1  0
 16 15  1  0
  5  4  1  0
 15 14  1  0
 13 14  1  0
  4  3  1  0
  3  2  1  0
 37  1  2  0
  2  1  1  0
  2 17  1  0
  1 38  1  0
 48 47  1  0
 18 17  1  0
 18 19  1  0
 17 40  1  0
 38 39  1  0
 20 19  1  0
 20 21  1  0
 39 49  1  0
 22 21  1  0
 22 23  1  0
 47 45  1  0
 47 49  1  0
 46 45  1  0
 45 43  1  0
 49 50  1  0
 23 24  1  0
 24 25  1  0
 50 41  1  0
 43 41  1  0
 43 44  1  0
 41 42  1  0
 25 26  1  0
 26 27  1  0
 27 28  1  0
 28 29  1  0
 29 30  1  0
 30 31  1  0
 31 32  1  0
 33 32  1  0
 33 34  1  0
 34 35  1  0
 35 36  1  0
  2 51  1  0
  3 52  1  0
  3 53  1  0
  4 54  1  0
  4 55  1  0
  5 56  1  0
  5 57  1  0
  6 58  1  0
  6 59  1  0
  7 60  1  0
  7 61  1  0
  8 62  1  0
  8 63  1  0
  9 64  1  0
  9 65  1  0
 10 66  1  0
 10 67  1  0
 11 68  1  0
 11 69  1  0
 12 70  1  0
 12 71  1  0
 13 72  1  0
 13 73  1  0
 14 74  1  0
 14 75  1  0
 15 76  1  0
 15 77  1  0
 16 78  1  0
 16 79  1  0
 16 80  1  0
 17 81  1  0
 18 82  1  0
 18 83  1  0
 19 84  1  0
 19 85  1  0
 20 86  1  0
 20 87  1  0
 21 88  1  0
 21 89  1  0
 22 90  1  0
 22 91  1  0
 23 92  1  0
 23 93  1  0
 24 94  1  0
 24 95  1  0
 25 96  1  0
 25 97  1  0
 26 98  1  0
 26 99  1  0
 27100  1  0
 27101  1  0
 28102  1  0
 28103  1  0
 29104  1  0
 29105  1  0
 30106  1  0
 30107  1  0
 31108  1  0
 31109  1  0
 32110  1  0
 32111  1  0
 33112  1  0
 33113  1  0
 34114  1  0
 34115  1  0
 35116  1  0
 35117  1  0
 36118  1  0
 36119  1  0
 36120  1  0
 39121  1  0
 39122  1  0
 40123  1  0
 41124  1  0
 42125  1  0
 43126  1  0
 44127  1  0
 45128  1  0
 46129  1  0
 47130  1  0
 48131  1  0
 49132  1  0
A    1
CAN
A    2
CAP
A    3
CAQ
A    4
CAR
A    5
CAS
A    6
CAT
A    7
CAU
A    8
CAV
A    9
CAW
A   10
CAX
A   11
CAY
A   12
CAZ
A   13
CBA
A   14
CBB
A   15
CBC
A   16
CBD
A   17
CBE
A   18
CBG
A   19
CBH
A   20
CBI
A   21
CBJ
A   22
CBK
A   23
CBL
A   24
CBM
A   25
CBN
A   26
CBO
A   27
CBP
A   28
CBQ
A   29
CBR
A   30
CBS
A   31
CBT
A   32
CBU
A   33
CBV
A   34
CBW
A   35
CBX
A   36
CBY
A   37
OAM
A   38
OAO
A   39
CAG
A   40
OBF
A   41
C1
A   42
O1
A   43
C2
A   44
O2
A   45
C3
A   46
O3
A   47
C4
A   48
O4
A   49
C5
A   50
O5
M  END
