5L2N_6ZU_A_602
     RDKit          3D

 40 42  0  0  0  0  0  0  0  0999 V2000
   35.7680  -16.3160   16.3680 C   0  0  0  0  0  0  0  0  0  0  0  0
   36.0530  -17.8210   14.4060 C   0  0  0  0  0  0  0  0  0  0  0  0
   34.6590  -17.8050   14.2390 C   0  0  0  0  0  0  0  0  0  0  0  0
   33.8490  -17.0450   15.1100 C   0  0  0  0  0  0  0  0  0  0  0  0
   37.9150  -14.8230   18.6910 O   0  0  0  0  0  0  0  0  0  0  0  0
   37.5820  -15.5040   17.7040 C   0  0  0  0  0  0  0  0  0  0  0  0
   36.2660  -15.5960   17.4120 O   0  0  0  0  0  0  0  0  0  0  0  0
   38.5850  -16.2400   16.8700 C   0  0  0  0  0  0  0  0  0  0  0  0
   40.0360  -16.1560   17.2540 C   0  0  0  0  0  0  0  0  0  0  0  0
   40.8690  -15.1650   16.4940 C   0  0  0  0  0  0  0  0  0  0  0  0
   40.6260  -13.8010   16.6190 C   0  0  0  0  0  0  0  0  0  0  0  0
   41.4350  -12.9170   15.9140 C   0  0  0  0  0  0  0  0  0  0  0  0
   42.4760  -13.3820   15.1030 C   0  0  0  0  0  0  0  0  0  0  0  0
   42.7180  -14.7450   14.9920 C   0  0  0  0  0  0  0  0  0  0  0  0
   41.9140  -15.6330   15.6940 C   0  0  0  0  0  0  0  0  0  0  0  0
   38.1100  -17.0520   15.7170 C   0  0  0  0  0  0  0  0  0  0  0  0
   39.0880  -17.8140   14.8470 C   0  0  0  0  0  0  0  0  0  0  0  0
   36.6500  -17.0930   15.4470 C   0  0  0  0  0  0  0  0  0  0  0  0
   34.3990  -16.3320   16.1650 C   0  0  0  0  0  0  0  0  0  0  0  0
   32.4800  -17.0390   14.9930 O   0  0  0  0  0  0  0  0  0  0  0  0
   31.6440  -15.9910   14.2490 S   0  0  0  0  0  0  0  0  0  0  0  0
   30.2690  -16.4470   14.2230 O   0  0  0  0  0  0  0  0  0  0  0  0
   32.1120  -15.9320   12.8620 O   0  0  0  0  0  0  0  0  0  0  0  0
   31.9200  -14.6340   15.1530 C   0  0  0  0  0  0  0  0  0  0  0  0
   36.6801  -18.4068   13.7178 H   0  0  0  0  0  0  0  0  0  0  0  0
   34.1970  -18.3862   13.4274 H   0  0  0  0  0  0  0  0  0  0  0  0
   40.4802  -17.1512   17.1051 H   0  0  0  0  0  0  0  0  0  0  0  0
   40.0435  -15.8066   18.2970 H   0  0  0  0  0  0  0  0  0  0  0  0
   39.8129  -13.4305   17.2606 H   0  0  0  0  0  0  0  0  0  0  0  0
   41.2538  -11.8351   15.9951 H   0  0  0  0  0  0  0  0  0  0  0  0
   43.1041  -12.6664   14.5521 H   0  0  0  0  0  0  0  0  0  0  0  0
   43.5356  -15.1161   14.3565 H   0  0  0  0  0  0  0  0  0  0  0  0
   42.1016  -16.7143   15.6195 H   0  0  0  0  0  0  0  0  0  0  0  0
   39.7947  -18.3646   15.4853 H   0  0  0  0  0  0  0  0  0  0  0  0
   38.5378  -18.5239   14.2119 H   0  0  0  0  0  0  0  0  0  0  0  0
   39.6418  -17.1069   14.2119 H   0  0  0  0  0  0  0  0  0  0  0  0
   33.7407  -15.7738   16.8470 H   0  0  0  0  0  0  0  0  0  0  0  0
   31.8682  -14.8887   16.2219 H   0  0  0  0  0  0  0  0  0  0  0  0
   32.9178  -14.2344   14.9192 H   0  0  0  0  0  0  0  0  0  0  0  0
   31.1576  -13.8763   14.9192 H   0  0  0  0  0  0  0  0  0  0  0  0
 23 21  2  0
 22 21  2  0
  3  2  2  0
  3  4  1  0
 21 20  1  0
 21 24  1  0
  2 18  1  0
 17 16  1  0
 20  4  1  0
 14 13  2  0
 14 15  1  0
  4 19  2  0
 13 12  1  0
 18 16  1  0
 18  1  2  0
 15 10  2  0
 16  8  2  0
 12 11  2  0
 19  1  1  0
  1  7  1  0
 10 11  1  0
 10  9  1  0
  8  9  1  0
  8  6  1  0
  7  6  1  0
  6  5  2  0
  2 25  1  0
  3 26  1  0
  9 27  1  0
  9 28  1  0
 11 29  1  0
 12 30  1  0
 13 31  1  0
 14 32  1  0
 15 33  1  0
 17 34  1  0
 17 35  1  0
 17 36  1  0
 19 37  1  0
 24 38  1  0
 24 39  1  0
 24 40  1  0
A    1
C2
A    2
C4
A    3
C5
A    4
C6
A    5
O17
A    6
C8
A    7
O7
A    8
C9
A    9
C18
A   10
C19
A   11
C24
A   12
C23
A   13
C22
A   14
C21
A   15
C20
A   16
C10
A   17
C16
A   18
C3
A   19
C1
A   20
O11
A   21
S12
A   22
O13
A   23
O14
A   24
C15
M  END
