5L30_70A_H_301
     RDKit          3D

 81 87  0  0  0  0  0  0  0  0999 V2000
    7.4800   37.6790   24.4210 C   0  0  0  0  0  0  0  0  0  0  0  0
    9.5940   32.9510   27.4660 C   0  0  0  0  0  0  0  0  0  0  0  0
    9.4180   33.3290   28.8150 C   0  0  0  0  0  0  0  0  0  0  0  0
    8.7550   34.5610   29.0860 C   0  0  0  0  0  0  0  0  0  0  0  0
    8.3080   35.3610   28.0060 C   0  0  0  0  0  0  0  0  0  0  0  0
    9.1730   33.7550   26.4540 C   0  0  0  0  0  0  0  0  0  0  0  0
    8.5920   34.9610   30.4280 C   0  0  0  0  0  0  0  0  0  0  0  0
    9.1450   34.2130   31.4260 C   0  0  0  0  0  0  0  0  0  0  0  0
    9.9270   32.5840   29.9470 C   0  0  0  0  0  0  0  0  0  0  0  0
    0.9160   35.2910   27.1410 C   0  0  0  0  0  0  0  0  0  0  0  0
    6.0810   39.2800   22.1330 C   0  0  0  0  0  0  0  0  0  0  0  0
    1.5150   35.5930   25.7580 C   0  0  0  0  0  0  0  0  0  0  0  0
    0.7810   36.8240   25.1320 C   0  0  0  0  0  0  0  0  0  0  0  0
    3.0330   35.7960   25.7910 C   0  0  0  0  0  0  0  0  0  0  0  0
    3.6030   36.5750   26.7960 C   0  0  0  0  0  0  0  0  0  0  0  0
    4.9530   36.8890   26.7760 C   0  0  0  0  0  0  0  0  0  0  0  0
    5.7740   36.4290   25.7550 C   0  0  0  0  0  0  0  0  0  0  0  0
    5.2120   35.6190   24.7720 C   0  0  0  0  0  0  0  0  0  0  0  0
    3.8570   35.2950   24.7680 C   0  0  0  0  0  0  0  0  0  0  0  0
    3.3370   34.3910   23.6640 C   0  0  0  0  0  0  0  0  0  0  0  0
    7.2350   36.8460   25.6680 C   0  0  0  0  0  0  0  0  0  0  0  0
    8.1390   35.7130   25.6020 N   0  0  0  0  0  0  0  0  0  0  0  0
    8.5260   34.9580   26.7050 C   0  0  0  0  0  0  0  0  0  0  0  0
    9.8160   33.0690   31.2300 N   0  0  0  0  0  0  0  0  0  0  0  0
    7.9620   37.1380   23.4320 O   0  0  0  0  0  0  0  0  0  0  0  0
    7.1080   38.9750   24.3850 N   0  0  0  0  0  0  0  0  0  0  0  0
    7.1740   39.6760   23.1000 C   0  0  0  0  0  0  0  0  0  0  0  0
    6.2210   39.4810   20.7540 C   0  0  0  0  0  0  0  0  0  0  0  0
    5.1500   39.1750   19.9210 C   0  0  0  0  0  0  0  0  0  0  0  0
    3.9850   38.6180   20.4170 C   0  0  0  0  0  0  0  0  0  0  0  0
    3.8310   38.4360   21.7820 C   0  0  0  0  0  0  0  0  0  0  0  0
    4.8910   38.7480   22.6300 C   0  0  0  0  0  0  0  0  0  0  0  0
    2.6290   37.8840   22.2860 N   0  0  0  0  0  0  0  0  0  0  0  0
    1.2450   36.9960   23.7710 O   0  0  0  0  0  0  0  0  0  0  0  0
    2.2230   37.9090   23.5750 C   0  0  0  0  0  0  0  0  0  0  0  0
    2.6230   38.6800   24.4210 O   0  0  0  0  0  0  0  0  0  0  0  0
    6.6070   39.7370   25.5300 C   0  0  0  0  0  0  0  0  0  0  0  0
   10.4740   31.3640   29.7950 N   0  0  0  0  0  0  0  0  0  0  0  0
    7.5550   39.9470   20.1490 C   0  0  0  0  0  0  0  0  0  0  0  0
    7.9280   41.3840   20.4170 C   0  0  0  0  0  0  0  0  0  0  0  0
    9.1430   41.9140   20.2760 N   0  0  0  0  0  0  0  0  0  0  0  0
    9.0780   43.2350   20.5460 N   0  0  0  0  0  0  0  0  0  0  0  0
    7.8450   43.4780   20.8420 N   0  0  0  0  0  0  0  0  0  0  0  0
    7.1040   42.3400   20.7870 N   0  0  0  0  0  0  0  0  0  0  0  0
    7.9970   39.4100   18.7950 C   0  0  0  0  0  0  0  0  0  0  0  0
    8.6900   38.9410   20.0190 C   0  0  0  0  0  0  0  0  0  0  0  0
   10.0788   31.9921   27.2306 H   0  0  0  0  0  0  0  0  0  0  0  0
    7.7847   36.3078   28.2057 H   0  0  0  0  0  0  0  0  0  0  0  0
    9.3487   33.4459   25.4130 H   0  0  0  0  0  0  0  0  0  0  0  0
    8.0224   35.8707   30.6690 H   0  0  0  0  0  0  0  0  0  0  0  0
    9.0329   34.5722   32.4596 H   0  0  0  0  0  0  0  0  0  0  0  0
    1.6063   35.6390   27.9235 H   0  0  0  0  0  0  0  0  0  0  0  0
   -0.0478   35.8109   27.2446 H   0  0  0  0  0  0  0  0  0  0  0  0
    0.7608   34.2069   27.2446 H   0  0  0  0  0  0  0  0  0  0  0  0
    1.3539   34.7101   25.1219 H   0  0  0  0  0  0  0  0  0  0  0  0
    1.0072   37.7273   25.7175 H   0  0  0  0  0  0  0  0  0  0  0  0
   -0.3062   36.6570   25.1399 H   0  0  0  0  0  0  0  0  0  0  0  0
    2.9724   36.9462   27.6173 H   0  0  0  0  0  0  0  0  0  0  0  0
    5.3788   37.5097   27.5782 H   0  0  0  0  0  0  0  0  0  0  0  0
    5.8574   35.2228   23.9742 H   0  0  0  0  0  0  0  0  0  0  0  0
    2.8355   33.5192   24.1096 H   0  0  0  0  0  0  0  0  0  0  0  0
    2.6209   34.9473   23.0414 H   0  0  0  0  0  0  0  0  0  0  0  0
    4.1779   34.0517   23.0414 H   0  0  0  0  0  0  0  0  0  0  0  0
    7.4342   37.4202   26.5848 H   0  0  0  0  0  0  0  0  0  0  0  0
    8.5181   35.4511   24.6808 H   0  0  0  0  0  0  0  0  0  0  0  0
    8.1459   39.4559   22.6342 H   0  0  0  0  0  0  0  0  0  0  0  0
    7.0422   40.7473   23.3119 H   0  0  0  0  0  0  0  0  0  0  0  0
    5.2312   39.3806   18.8434 H   0  0  0  0  0  0  0  0  0  0  0  0
    3.1811   38.3196   19.7280 H   0  0  0  0  0  0  0  0  0  0  0  0
    4.7880   38.5718   23.7109 H   0  0  0  0  0  0  0  0  0  0  0  0
    2.0067   37.4208   21.6084 H   0  0  0  0  0  0  0  0  0  0  0  0
    6.9272   39.2500   26.4629 H   0  0  0  0  0  0  0  0  0  0  0  0
    7.0091   40.7602   25.4938 H   0  0  0  0  0  0  0  0  0  0  0  0
    5.5082   39.7734   25.4938 H   0  0  0  0  0  0  0  0  0  0  0  0
   10.7246   30.8051   30.6231 H   0  0  0  0  0  0  0  0  0  0  0  0
   10.6421   30.9890   28.8505 H   0  0  0  0  0  0  0  0  0  0  0  0
    9.9931   41.3993   20.0051 H   0  0  0  0  0  0  0  0  0  0  0  0
    8.5206   40.0706   18.0883 H   0  0  0  0  0  0  0  0  0  0  0  0
    7.4868   38.9124   17.9571 H   0  0  0  0  0  0  0  0  0  0  0  0
    8.5479   37.9071   20.3667 H   0  0  0  0  0  0  0  0  0  0  0  0
    9.7385   38.9119   20.3503 H   0  0  0  0  0  0  0  0  0  0  0  0
 45 46  1  0
 45 39  1  0
 29 30  2  0
 29 28  1  0
 46 39  1  0
 39 40  1  0
 39 28  1  0
 41 40  1  0
 41 42  1  0
 40 44  2  0
 30 31  1  0
 42 43  2  0
 28 11  2  0
 44 43  1  0
 31 33  1  0
 31 32  2  0
 11 32  1  0
 11 27  1  0
 33 35  1  0
 27 26  1  0
 25  1  2  0
 35 34  1  0
 35 36  2  0
 20 19  1  0
 34 13  1  0
 26  1  1  0
 26 37  1  0
  1 21  1  0
 19 18  1  0
 19 14  2  0
 18 17  2  0
 13 12  1  0
 22 21  1  0
 22 23  1  0
 21 17  1  0
 17 16  1  0
 12 14  1  0
 12 10  1  0
 14 15  1  0
  6 23  1  0
  6  2  2  0
 23  5  2  0
 16 15  2  0
  2  3  1  0
  5  4  1  0
  3  4  2  0
  3  9  1  0
  4  7  1  0
 38  9  1  0
  9 24  2  0
  7  8  2  0
 24  8  1  0
  2 47  1  0
  5 48  1  0
  6 49  1  0
  7 50  1  0
  8 51  1  0
 10 52  1  0
 10 53  1  0
 10 54  1  0
 12 55  1  0
 13 56  1  0
 13 57  1  0
 15 58  1  0
 16 59  1  0
 18 60  1  0
 20 61  1  0
 20 62  1  0
 20 63  1  0
 21 64  1  0
 22 65  1  0
 27 66  1  0
 27 67  1  0
 29 68  1  0
 30 69  1  0
 32 70  1  0
 33 71  1  0
 37 72  1  0
 37 73  1  0
 37 74  1  0
 38 75  1  0
 38 76  1  0
 41 77  1  0
 45 78  1  0
 45 79  1  0
 46 80  1  0
 46 81  1  0
A    1
C13
A    2
C18
A    3
C17
A    4
C16
A    5
C15
A    6
C19
A    7
C20
A    8
C21
A    9
C23
A   10
C11
A   11
C27
A   12
C1
A   13
C2
A   14
C3
A   15
C4
A   16
C5
A   17
C6
A   18
C7
A   19
C8
A   20
C9
A   21
C10
A   22
N12
A   23
C14
A   24
N22
A   25
O24
A   26
N25
A   27
C26
A   28
C28
A   29
C29
A   30
C30
A   31
C31
A   32
C32
A   33
N33
A   34
O34
A   35
C35
A   36
O36
A   37
C37
A   38
N38
A   39
C39
A   40
C40
A   41
N41
A   42
N42
A   43
N43
A   44
N44
A   45
C45
A   46
C46
M  END
