5L4V_6KW_A_301
     RDKit          3D

 44 44  0  0  0  0  0  0  0  0999 V2000
   75.3730   10.8600   75.7740 C   0  0  0  0  0  0  0  0  0  0  0  0
   75.9890   11.8430   74.7440 C   0  0  0  0  0  0  0  0  0  0  0  0
   77.3420   11.3640   74.2260 C   0  0  0  0  0  0  0  0  0  0  0  0
   73.9740   11.3340   76.1800 C   0  0  0  0  0  0  0  0  0  0  0  0
   77.0390   21.8780   73.6190 C   0  0  0  0  0  0  0  0  0  0  0  0
   76.8180   20.6330   74.4740 C   0  0  0  0  0  0  0  0  0  0  0  0
   76.1800   19.5440   73.6130 C   0  0  0  0  0  0  0  0  0  0  0  0
   75.6990   18.4040   74.5100 C   0  0  0  0  0  0  0  0  0  0  0  0
   75.2110   17.2540   73.6330 C   0  0  0  0  0  0  0  0  0  0  0  0
   74.5140   16.1970   74.4970 C   0  0  0  0  0  0  0  0  0  0  0  0
   74.4800   14.8610   73.7500 C   0  0  0  0  0  0  0  0  0  0  0  0
   73.7930   13.8860   74.5510 O   0  0  0  0  0  0  0  0  0  0  0  0
   73.7800   12.5560   73.9690 C   0  0  0  0  0  0  0  0  0  0  0  0
   75.0930   12.0140   73.6030 O   0  0  0  0  0  0  0  0  0  0  0  0
   77.1700   10.1630   73.4830 O   0  0  0  0  0  0  0  0  0  0  0  0
   76.1800   10.7860   76.9430 O   0  0  0  0  0  0  0  0  0  0  0  0
   73.0910   11.5760   74.9380 C   0  0  0  0  0  0  0  0  0  0  0  0
   72.8840   10.3300   74.2620 O   0  0  0  0  0  0  0  0  0  0  0  0
   75.3160    9.8676   75.3030 H   0  0  0  0  0  0  0  0  0  0  0  0
   76.1314   12.7988   75.2695 H   0  0  0  0  0  0  0  0  0  0  0  0
   78.0138   11.1755   75.0764 H   0  0  0  0  0  0  0  0  0  0  0  0
   77.7789   12.1365   73.5761 H   0  0  0  0  0  0  0  0  0  0  0  0
   74.0625   12.2724   76.7470 H   0  0  0  0  0  0  0  0  0  0  0  0
   73.5047   10.5539   76.7974 H   0  0  0  0  0  0  0  0  0  0  0  0
   77.1936   22.7490   74.2727 H   0  0  0  0  0  0  0  0  0  0  0  0
   77.9256   21.7341   72.9841 H   0  0  0  0  0  0  0  0  0  0  0  0
   76.1570   22.0481   72.9841 H   0  0  0  0  0  0  0  0  0  0  0  0
   76.1512   20.8765   75.3143 H   0  0  0  0  0  0  0  0  0  0  0  0
   77.7814   20.2776   74.8684 H   0  0  0  0  0  0  0  0  0  0  0  0
   75.3248   19.9645   73.0637 H   0  0  0  0  0  0  0  0  0  0  0  0
   76.9217   19.1601   72.8971 H   0  0  0  0  0  0  0  0  0  0  0  0
   76.5289   18.0581   75.1438 H   0  0  0  0  0  0  0  0  0  0  0  0
   74.8779   18.7567   75.1513 H   0  0  0  0  0  0  0  0  0  0  0  0
   76.0700   16.7969   73.1200 H   0  0  0  0  0  0  0  0  0  0  0  0
   74.4978   17.6424   72.8911 H   0  0  0  0  0  0  0  0  0  0  0  0
   75.0656   16.0744   75.4408 H   0  0  0  0  0  0  0  0  0  0  0  0
   73.4848   16.5215   74.7103 H   0  0  0  0  0  0  0  0  0  0  0  0
   73.9522   14.9883   72.7933 H   0  0  0  0  0  0  0  0  0  0  0  0
   75.5081   14.5207   73.5569 H   0  0  0  0  0  0  0  0  0  0  0  0
   73.2269   12.6643   73.0244 H   0  0  0  0  0  0  0  0  0  0  0  0
   77.0610    9.4019   74.1066 H   0  0  0  0  0  0  0  0  0  0  0  0
   75.6033   10.8389   77.7460 H   0  0  0  0  0  0  0  0  0  0  0  0
   72.1312   12.0044   75.2625 H   0  0  0  0  0  0  0  0  0  0  0  0
   72.7641    9.6085   74.9292 H   0  0  0  0  0  0  0  0  0  0  0  0
 15  3  1  0
 14 13  1  0
 14  2  1  0
  7  6  1  0
  7  8  1  0
  5  6  1  0
  9 10  1  0
  9  8  1  0
 11 10  1  0
 11 12  1  0
 13 12  1  0
 13 17  1  0
  3  2  1  0
 18 17  1  0
  2  1  1  0
 17  4  1  0
  1  4  1  0
  1 16  1  0
  1 19  1  0
  2 20  1  0
  3 21  1  0
  3 22  1  0
  4 23  1  0
  4 24  1  0
  5 25  1  0
  5 26  1  0
  5 27  1  0
  6 28  1  0
  6 29  1  0
  7 30  1  0
  7 31  1  0
  8 32  1  0
  8 33  1  0
  9 34  1  0
  9 35  1  0
 10 36  1  0
 10 37  1  0
 11 38  1  0
 11 39  1  0
 13 40  1  0
 15 41  1  0
 16 42  1  0
 17 43  1  0
 18 44  1  0
A    1
C4
A    2
C5
A    3
C6
A    4
C3
A    5
CAR
A    6
CAQ
A    7
CAP
A    8
CAO
A    9
CAN
A   10
CAM
A   11
CAL
A   12
O1
A   13
C1
A   14
O5
A   15
O6
A   16
O4
A   17
C2
A   18
O2
M  END
