5L4X_6KU_A_201
     RDKit          3D

 44 44  0  0  0  0  0  0  0  0999 V2000
  -20.7060   -6.8300  -11.0050 C   0  0  0  0  0  0  0  0  0  0  0  0
  -21.0000   -5.6830  -11.9650 C   0  0  0  0  0  0  0  0  0  0  0  0
  -22.2020   -4.8810  -11.4620 C   0  0  0  0  0  0  0  0  0  0  0  0
  -19.5230   -7.5990  -11.5380 C   0  0  0  0  0  0  0  0  0  0  0  0
  -21.9520   -4.5230  -21.8310 C   0  0  0  0  0  0  0  0  0  0  0  0
  -21.5300   -5.4880  -20.7230 C   0  0  0  0  0  0  0  0  0  0  0  0
  -20.9410   -4.6860  -19.5590 C   0  0  0  0  0  0  0  0  0  0  0  0
  -20.5520   -5.6490  -18.4280 C   0  0  0  0  0  0  0  0  0  0  0  0
  -20.0350   -4.8550  -17.2200 C   0  0  0  0  0  0  0  0  0  0  0  0
  -19.6820   -5.8410  -16.1110 C   0  0  0  0  0  0  0  0  0  0  0  0
  -19.2380   -5.0890  -14.8440 C   0  0  0  0  0  0  0  0  0  0  0  0
  -18.9450   -6.0700  -13.8500 O   0  0  0  0  0  0  0  0  0  0  0  0
  -18.6870   -5.5040  -12.5580 C   0  0  0  0  0  0  0  0  0  0  0  0
  -19.8540   -4.7980  -12.0740 O   0  0  0  0  0  0  0  0  0  0  0  0
  -21.8990   -4.2920  -10.1770 O   0  0  0  0  0  0  0  0  0  0  0  0
  -19.2020   -8.6850  -10.6740 O   0  0  0  0  0  0  0  0  0  0  0  0
  -18.3500   -6.6300  -11.6140 C   0  0  0  0  0  0  0  0  0  0  0  0
  -18.0790   -6.1190  -10.3030 O   0  0  0  0  0  0  0  0  0  0  0  0
  -20.4713   -6.4299  -10.0076 H   0  0  0  0  0  0  0  0  0  0  0  0
  -21.5821   -7.4900  -10.9218 H   0  0  0  0  0  0  0  0  0  0  0  0
  -21.2201   -6.1100  -12.9546 H   0  0  0  0  0  0  0  0  0  0  0  0
  -22.4354   -4.0834  -12.1827 H   0  0  0  0  0  0  0  0  0  0  0  0
  -23.0667   -5.5528  -11.3571 H   0  0  0  0  0  0  0  0  0  0  0  0
  -19.7529   -8.0167  -12.5293 H   0  0  0  0  0  0  0  0  0  0  0  0
  -22.3544   -3.6028  -21.3822 H   0  0  0  0  0  0  0  0  0  0  0  0
  -21.0797   -4.2760  -22.4540 H   0  0  0  0  0  0  0  0  0  0  0  0
  -22.7255   -4.9958  -22.4540 H   0  0  0  0  0  0  0  0  0  0  0  0
  -22.4060   -6.0545  -20.3742 H   0  0  0  0  0  0  0  0  0  0  0  0
  -20.7760   -6.1896  -21.1093 H   0  0  0  0  0  0  0  0  0  0  0  0
  -20.0488   -4.1414  -19.9017 H   0  0  0  0  0  0  0  0  0  0  0  0
  -21.6871   -3.9662  -19.1912 H   0  0  0  0  0  0  0  0  0  0  0  0
  -21.4334   -6.2353  -18.1289 H   0  0  0  0  0  0  0  0  0  0  0  0
  -19.7595   -6.3239  -18.7837 H   0  0  0  0  0  0  0  0  0  0  0  0
  -19.1405   -4.2827  -17.5069 H   0  0  0  0  0  0  0  0  0  0  0  0
  -20.8069   -4.1535  -16.8704 H   0  0  0  0  0  0  0  0  0  0  0  0
  -20.5646   -6.4546  -15.8774 H   0  0  0  0  0  0  0  0  0  0  0  0
  -18.8556   -6.4812  -16.4533 H   0  0  0  0  0  0  0  0  0  0  0  0
  -18.3409   -4.4892  -15.0570 H   0  0  0  0  0  0  0  0  0  0  0  0
  -20.0291   -4.4076  -14.4978 H   0  0  0  0  0  0  0  0  0  0  0  0
  -17.8533   -4.7893  -12.6232 H   0  0  0  0  0  0  0  0  0  0  0  0
  -22.2094   -4.8953   -9.4560 H   0  0  0  0  0  0  0  0  0  0  0  0
  -19.2881   -8.3937   -9.7318 H   0  0  0  0  0  0  0  0  0  0  0  0
  -17.4563   -7.1493  -11.9902 H   0  0  0  0  0  0  0  0  0  0  0  0
  -18.4167   -6.7558   -9.6243 H   0  0  0  0  0  0  0  0  0  0  0  0
  5  6  1  0
  6  7  1  0
  7  8  1  0
  8  9  1  0
  9 10  1  0
 10 11  1  0
 11 12  1  0
 12 13  1  0
 13 14  1  0
 13 17  1  0
 14  2  1  0
  2  3  1  0
  2  1  1  0
 17  4  1  0
 17 18  1  0
  4  1  1  0
  4 16  1  0
  3 15  1  0
  1 19  1  0
  1 20  1  0
  2 21  1  0
  3 22  1  0
  3 23  1  0
  4 24  1  0
  5 25  1  0
  5 26  1  0
  5 27  1  0
  6 28  1  0
  6 29  1  0
  7 30  1  0
  7 31  1  0
  8 32  1  0
  8 33  1  0
  9 34  1  0
  9 35  1  0
 10 36  1  0
 10 37  1  0
 11 38  1  0
 11 39  1  0
 13 40  1  0
 15 41  1  0
 16 42  1  0
 17 43  1  0
 18 44  1  0
A    1
C4
A    2
C5
A    3
C6
A    4
C3
A    5
CAR
A    6
CAQ
A    7
CAP
A    8
CAO
A    9
CAN
A   10
CAM
A   11
CAL
A   12
O1
A   13
C1
A   14
O5
A   15
O6
A   16
O3
A   17
C2
A   18
O2
M  END
