5L57_6N3_A_502
     RDKit          3D

 72 77  0  0  0  0  0  0  0  0999 V2000
   15.5770   18.1100  185.1730 C   0  0  0  0  0  0  0  0  0  0  0  0
   11.4190   22.8820  186.3660 C   0  0  0  0  0  0  0  0  0  0  0  0
   11.5040   24.2650  186.2330 C   0  0  0  0  0  0  0  0  0  0  0  0
   13.6460   24.0340  185.1780 C   0  0  0  0  0  0  0  0  0  0  0  0
   13.5120   22.5670  185.3450 C   0  0  0  0  0  0  0  0  0  0  0  0
   14.3510   20.3090  185.1390 C   0  0  0  0  0  0  0  0  0  0  0  0
   15.6980   19.6150  184.9620 C   0  0  0  0  0  0  0  0  0  0  0  0
   17.5790   23.1860  182.7730 C   0  0  0  0  0  0  0  0  0  0  0  0
   14.6120   17.4950  184.1680 C   0  0  0  0  0  0  0  0  0  0  0  0
    6.5300   19.4820  187.9770 O   0  0  0  0  0  0  0  0  0  0  0  0
    7.0080   20.2030  188.8800 C   0  0  0  0  0  0  0  0  0  0  0  0
    6.7000   20.0870  190.0850 O   0  0  0  0  0  0  0  0  0  0  0  0
    8.0050   21.2540  188.5010 C   0  0  0  0  0  0  0  0  0  0  0  0
    9.2580   20.5360  188.0260 C   0  0  0  0  0  0  0  0  0  0  0  0
   10.4820   21.4360  188.1350 C   0  0  0  0  0  0  0  0  0  0  0  0
    8.3020   21.1560  187.0090 C   0  0  0  0  0  0  0  0  0  0  0  0
    8.9620   22.4150  186.4470 C   0  0  0  0  0  0  0  0  0  0  0  0
   10.3120   22.2760  186.9650 N   0  0  0  0  0  0  0  0  0  0  0  0
   12.4060   22.0720  185.9290 N   0  0  0  0  0  0  0  0  0  0  0  0
   12.6200   24.8490  185.6380 C   0  0  0  0  0  0  0  0  0  0  0  0
   14.4930   21.7120  184.9170 O   0  0  0  0  0  0  0  0  0  0  0  0
   15.1470   17.7820  186.5970 C   0  0  0  0  0  0  0  0  0  0  0  0
   14.8730   24.6110  184.5330 C   0  0  0  0  0  0  0  0  0  0  0  0
   14.8420   25.7460  184.0860 O   0  0  0  0  0  0  0  0  0  0  0  0
   15.9670   23.8520  184.4690 N   0  0  0  0  0  0  0  0  0  0  0  0
   17.1730   24.2590  183.7720 C   0  0  0  0  0  0  0  0  0  0  0  0
   18.3080   24.4510  184.7670 C   0  0  0  0  0  0  0  0  0  0  0  0
   18.5790   23.1460  185.5070 C   0  0  0  0  0  0  0  0  0  0  0  0
   19.5810   24.8710  184.0420 C   0  0  0  0  0  0  0  0  0  0  0  0
   19.9810   23.7880  183.0480 C   0  0  0  0  0  0  0  0  0  0  0  0
   21.1710   24.1860  182.3620 O   0  0  0  0  0  0  0  0  0  0  0  0
   18.8510   23.5970  182.0420 C   0  0  0  0  0  0  0  0  0  0  0  0
   20.2340   22.4780  183.7850 C   0  0  0  0  0  0  0  0  0  0  0  0
   18.9670   22.0520  184.5200 C   0  0  0  0  0  0  0  0  0  0  0  0
   17.8420   21.8750  183.5030 C   0  0  0  0  0  0  0  0  0  0  0  0
   16.5728   17.6719  185.0104 H   0  0  0  0  0  0  0  0  0  0  0  0
   10.6848   24.9007  186.6000 H   0  0  0  0  0  0  0  0  0  0  0  0
   13.9840   20.1371  186.1616 H   0  0  0  0  0  0  0  0  0  0  0  0
   13.6345   19.8986  184.4122 H   0  0  0  0  0  0  0  0  0  0  0  0
   16.0684   19.8056  183.9439 H   0  0  0  0  0  0  0  0  0  0  0  0
   16.3965   20.0159  185.7113 H   0  0  0  0  0  0  0  0  0  0  0  0
   16.7611   23.0595  182.0484 H   0  0  0  0  0  0  0  0  0  0  0  0
   13.8025   16.9791  184.7053 H   0  0  0  0  0  0  0  0  0  0  0  0
   14.1855   18.2882  183.5364 H   0  0  0  0  0  0  0  0  0  0  0  0
   15.1509   16.7734  183.5364 H   0  0  0  0  0  0  0  0  0  0  0  0
    7.3519   20.3325  190.7884 H   0  0  0  0  0  0  0  0  0  0  0  0
    7.7701   22.0776  189.1913 H   0  0  0  0  0  0  0  0  0  0  0  0
    9.6944   19.5444  188.2163 H   0  0  0  0  0  0  0  0  0  0  0  0
   11.4155   20.8564  188.0842 H   0  0  0  0  0  0  0  0  0  0  0  0
   10.5560   21.9884  189.0833 H   0  0  0  0  0  0  0  0  0  0  0  0
    7.7142   20.8277  186.1391 H   0  0  0  0  0  0  0  0  0  0  0  0
    8.4770   23.3277  186.8236 H   0  0  0  0  0  0  0  0  0  0  0  0
    8.9039   22.5070  185.3524 H   0  0  0  0  0  0  0  0  0  0  0  0
   12.6877   25.9420  185.5338 H   0  0  0  0  0  0  0  0  0  0  0  0
   15.8144   18.2911  187.3080 H   0  0  0  0  0  0  0  0  0  0  0  0
   14.1133   18.1232  186.7557 H   0  0  0  0  0  0  0  0  0  0  0  0
   15.2028   16.6949  186.7557 H   0  0  0  0  0  0  0  0  0  0  0  0
   15.9558   22.9340  184.9360 H   0  0  0  0  0  0  0  0  0  0  0  0
   16.9730   25.2046  183.2467 H   0  0  0  0  0  0  0  0  0  0  0  0
   18.0120   25.2339  185.4808 H   0  0  0  0  0  0  0  0  0  0  0  0
   17.6720   22.8409  186.0495 H   0  0  0  0  0  0  0  0  0  0  0  0
   19.4064   23.3002  186.2153 H   0  0  0  0  0  0  0  0  0  0  0  0
   20.3897   25.0135  184.7740 H   0  0  0  0  0  0  0  0  0  0  0  0
   19.4023   25.8139  183.5043 H   0  0  0  0  0  0  0  0  0  0  0  0
   21.8702   24.4199  183.0227 H   0  0  0  0  0  0  0  0  0  0  0  0
   19.1297   22.8124  181.3232 H   0  0  0  0  0  0  0  0  0  0  0  0
   18.6753   24.5418  181.5067 H   0  0  0  0  0  0  0  0  0  0  0  0
   20.5168   21.6994  183.0613 H   0  0  0  0  0  0  0  0  0  0  0  0
   21.0481   22.6185  184.5112 H   0  0  0  0  0  0  0  0  0  0  0  0
   19.1395   21.1071  185.0562 H   0  0  0  0  0  0  0  0  0  0  0  0
   16.9265   21.5605  184.0255 H   0  0  0  0  0  0  0  0  0  0  0  0
   18.1388   21.1103  182.7701 H   0  0  0  0  0  0  0  0  0  0  0  0
 32  8  1  0
 32 30  1  0
 31 30  1  0
  8 35  1  0
  8 26  1  0
 30 33  1  0
 30 29  1  0
 35 34  1  0
 26 25  1  0
 26 27  1  0
 33 34  1  0
 29 27  1  0
 24 23  2  0
  9  1  1  0
 25 23  1  0
 34 28  1  0
 23  4  1  0
 27 28  1  0
 21  6  1  0
 21  5  1  0
  7  6  1  0
  7  1  1  0
  1 22  1  0
  4  5  2  0
  4 20  1  0
  5 19  1  0
 20  3  2  0
 19  2  2  0
  3  2  1  0
  2 18  1  0
 17 18  1  0
 17 16  1  0
 18 15  1  0
 16 14  1  0
 16 13  1  0
 10 11  2  0
 14 15  1  0
 14 13  1  0
 13 11  1  0
 11 12  1  0
  1 36  1  0
  3 37  1  0
  6 38  1  0
  6 39  1  0
  7 40  1  0
  7 41  1  0
  8 42  1  0
  9 43  1  0
  9 44  1  0
  9 45  1  0
 12 46  1  0
 13 47  1  0
 14 48  1  0
 15 49  1  0
 15 50  1  0
 16 51  1  0
 17 52  1  0
 17 53  1  0
 20 54  1  0
 22 55  1  0
 22 56  1  0
 22 57  1  0
 25 58  1  0
 26 59  1  0
 27 60  1  0
 28 61  1  0
 28 62  1  0
 29 63  1  0
 29 64  1  0
 31 65  1  0
 32 66  1  0
 32 67  1  0
 33 68  1  0
 33 69  1  0
 34 70  1  0
 35 71  1  0
 35 72  1  0
A    1
C1
A    2
C6
A    3
C7
A    4
C9
A    5
C5
A    6
C4
A    7
C3
A    8
C12
A    9
C2
A   10
O4
A   11
C26
A   12
O3
A   13
C25
A   14
C22
A   15
C21
A   16
C23
A   17
C24
A   18
N2
A   19
N
A   20
C8
A   21
O
A   22
C
A   23
C10
A   24
O1
A   25
N1
A   26
C11
A   27
C16
A   28
C15
A   29
C17
A   30
C18
A   31
O2
A   32
C20
A   33
C19
A   34
C14
A   35
C13
M  END
