5L58_6MX_A_502
     RDKit          3D

 75 80  0  0  0  0  0  0  0  0999 V2000
   15.1550   25.6390  181.4870 O   0  0  0  0  0  0  0  0  0  0  0  0
   15.1730   24.4230  181.5920 C   0  0  0  0  0  0  0  0  0  0  0  0
   16.2270   23.7140  181.1980 N   0  0  0  0  0  0  0  0  0  0  0  0
   17.4590   24.3830  180.8280 C   0  0  0  0  0  0  0  0  0  0  0  0
   18.4850   24.2610  181.9460 C   0  0  0  0  0  0  0  0  0  0  0  0
   18.8440   22.7960  182.1720 C   0  0  0  0  0  0  0  0  0  0  0  0
   19.7480   25.0280  181.5730 C   0  0  0  0  0  0  0  0  0  0  0  0
   20.3300   24.4450  180.2880 C   0  0  0  0  0  0  0  0  0  0  0  0
   21.5070   25.1720  179.9230 O   0  0  0  0  0  0  0  0  0  0  0  0
   20.6830   22.9800  180.5140 C   0  0  0  0  0  0  0  0  0  0  0  0
   19.4270   22.2010  180.8940 C   0  0  0  0  0  0  0  0  0  0  0  0
   18.4010   22.3250  179.7700 C   0  0  0  0  0  0  0  0  0  0  0  0
   19.3060   24.5500  179.1600 C   0  0  0  0  0  0  0  0  0  0  0  0
   18.0420   23.7910  179.5520 C   0  0  0  0  0  0  0  0  0  0  0  0
   13.9780   23.7350  182.1850 C   0  0  0  0  0  0  0  0  0  0  0  0
   12.8240   24.4720  182.4210 C   0  0  0  0  0  0  0  0  0  0  0  0
   11.7140   23.8470  182.9740 C   0  0  0  0  0  0  0  0  0  0  0  0
   14.0040   22.3880  182.5110 C   0  0  0  0  0  0  0  0  0  0  0  0
   15.3790   21.4330  182.2520 S   0  0  0  0  0  0  0  0  0  0  0  0
   14.8660   19.7430  182.3210 C   0  0  0  0  0  0  0  0  0  0  0  0
   14.8500   19.2680  183.7710 C   0  0  0  0  0  0  0  0  0  0  0  0
   14.3710   17.8240  183.8540 C   0  0  0  0  0  0  0  0  0  0  0  0
   15.2580   16.9120  183.0150 C   0  0  0  0  0  0  0  0  0  0  0  0
   15.3430   17.4090  181.5750 C   0  0  0  0  0  0  0  0  0  0  0  0
   15.8180   18.8570  181.5280 C   0  0  0  0  0  0  0  0  0  0  0  0
   12.9150   21.8000  183.0480 N   0  0  0  0  0  0  0  0  0  0  0  0
   11.7830   22.4930  183.2810 C   0  0  0  0  0  0  0  0  0  0  0  0
   10.6880   21.8280  183.8410 N   0  0  0  0  0  0  0  0  0  0  0  0
   10.7950   20.4330  184.2350 C   0  0  0  0  0  0  0  0  0  0  0  0
    9.5830   20.2830  185.1450 C   0  0  0  0  0  0  0  0  0  0  0  0
    9.4140   22.4920  184.0590 C   0  0  0  0  0  0  0  0  0  0  0  0
    8.7810   21.5790  185.1040 C   0  0  0  0  0  0  0  0  0  0  0  0
    7.3290   21.2790  184.7540 C   0  0  0  0  0  0  0  0  0  0  0  0
    6.7390   20.4070  185.8360 C   0  0  0  0  0  0  0  0  0  0  0  0
    6.8690   20.7100  187.0110 O   0  0  0  0  0  0  0  0  0  0  0  0
    6.0680   19.3020  185.5260 O   0  0  0  0  0  0  0  0  0  0  0  0
   16.1679   22.6866  181.1556 H   0  0  0  0  0  0  0  0  0  0  0  0
   17.2229   25.4434  180.6552 H   0  0  0  0  0  0  0  0  0  0  0  0
   18.0526   24.6790  182.8670 H   0  0  0  0  0  0  0  0  0  0  0  0
   17.9390   22.2381  182.4542 H   0  0  0  0  0  0  0  0  0  0  0  0
   19.5902   22.7261  182.9772 H   0  0  0  0  0  0  0  0  0  0  0  0
   20.4855   24.9386  182.3843 H   0  0  0  0  0  0  0  0  0  0  0  0
   19.5031   26.0893  181.4188 H   0  0  0  0  0  0  0  0  0  0  0  0
   21.9811   25.4648  180.7413 H   0  0  0  0  0  0  0  0  0  0  0  0
   21.1086   22.5598  179.5908 H   0  0  0  0  0  0  0  0  0  0  0  0
   21.4190   22.9040  181.3280 H   0  0  0  0  0  0  0  0  0  0  0  0
   19.6764   21.1415  181.0531 H   0  0  0  0  0  0  0  0  0  0  0  0
   17.4943   21.7641  180.0407 H   0  0  0  0  0  0  0  0  0  0  0  0
   18.8293   21.9161  178.8430 H   0  0  0  0  0  0  0  0  0  0  0  0
   19.7258   24.1144  178.2413 H   0  0  0  0  0  0  0  0  0  0  0  0
   19.0602   25.6076  178.9837 H   0  0  0  0  0  0  0  0  0  0  0  0
   17.2904   23.8738  178.7531 H   0  0  0  0  0  0  0  0  0  0  0  0
   12.7899   25.5428  182.1716 H   0  0  0  0  0  0  0  0  0  0  0  0
   10.7924   24.4158  183.1665 H   0  0  0  0  0  0  0  0  0  0  0  0
   13.8582   19.6726  181.8859 H   0  0  0  0  0  0  0  0  0  0  0  0
   15.8665   19.3366  184.1857 H   0  0  0  0  0  0  0  0  0  0  0  0
   14.1620   19.9048  184.3465 H   0  0  0  0  0  0  0  0  0  0  0  0
   13.3377   17.7646  183.4816 H   0  0  0  0  0  0  0  0  0  0  0  0
   14.4188   17.4958  184.9028 H   0  0  0  0  0  0  0  0  0  0  0  0
   14.8372   15.8957  183.0209 H   0  0  0  0  0  0  0  0  0  0  0  0
   16.2697   16.9117  183.4468 H   0  0  0  0  0  0  0  0  0  0  0  0
   14.3481   17.3408  181.1108 H   0  0  0  0  0  0  0  0  0  0  0  0
   16.0646   16.7838  181.0287 H   0  0  0  0  0  0  0  0  0  0  0  0
   16.8260   18.9241  181.9632 H   0  0  0  0  0  0  0  0  0  0  0  0
   15.8403   19.1962  180.4818 H   0  0  0  0  0  0  0  0  0  0  0  0
   10.7300   19.7632  183.3649 H   0  0  0  0  0  0  0  0  0  0  0  0
   11.7509   20.1732  184.7133 H   0  0  0  0  0  0  0  0  0  0  0  0
    8.9574   19.4488  184.7946 H   0  0  0  0  0  0  0  0  0  0  0  0
    9.9094   20.0753  186.1747 H   0  0  0  0  0  0  0  0  0  0  0  0
    9.5520   23.5126  184.4455 H   0  0  0  0  0  0  0  0  0  0  0  0
    8.8109   22.6232  183.1485 H   0  0  0  0  0  0  0  0  0  0  0  0
    8.7943   22.0748  186.0859 H   0  0  0  0  0  0  0  0  0  0  0  0
    6.7627   22.2196  184.6872 H   0  0  0  0  0  0  0  0  0  0  0  0
    7.2771   20.7601  183.7854 H   0  0  0  0  0  0  0  0  0  0  0  0
    6.5963   20.0743  187.7192 H   0  0  0  0  0  0  0  0  0  0  0  0
 13 14  1  0
 13  8  1  0
 14 12  1  0
 14  4  1  0
 12 11  1  0
  9  8  1  0
  8 10  1  0
  8  7  1  0
 10 11  1  0
  4  3  1  0
  4  5  1  0
 11  6  1  0
  3  2  1  0
  1  2  2  0
 25 24  1  0
 25 20  1  0
  7  5  1  0
 24 23  1  0
  2 15  1  0
  5  6  1  0
 15 16  2  0
 15 18  1  0
 19 20  1  0
 19 18  1  0
 20 21  1  0
 16 17  1  0
 18 26  2  0
 17 27  2  0
 23 22  1  0
 26 27  1  0
 27 28  1  0
 21 22  1  0
 28 31  1  0
 28 29  1  0
 31 32  1  0
 29 30  1  0
 33 32  1  0
 33 34  1  0
 32 30  1  0
 36 34  2  0
 34 35  1  0
  3 37  1  0
  4 38  1  0
  5 39  1  0
  6 40  1  0
  6 41  1  0
  7 42  1  0
  7 43  1  0
  9 44  1  0
 10 45  1  0
 10 46  1  0
 11 47  1  0
 12 48  1  0
 12 49  1  0
 13 50  1  0
 13 51  1  0
 14 52  1  0
 16 53  1  0
 17 54  1  0
 20 55  1  0
 21 56  1  0
 21 57  1  0
 22 58  1  0
 22 59  1  0
 23 60  1  0
 23 61  1  0
 24 62  1  0
 24 63  1  0
 25 64  1  0
 25 65  1  0
 29 66  1  0
 29 67  1  0
 30 68  1  0
 30 69  1  0
 31 70  1  0
 31 71  1  0
 32 72  1  0
 33 73  1  0
 33 74  1  0
 35 75  1  0
A    1
O2
A    2
C17
A    3
N2
A    4
C18
A    5
C23
A    6
C22
A    7
C24
A    8
C25
A    9
O3
A   10
C26
A   11
C21
A   12
C20
A   13
C27
A   14
C19
A   15
C9
A   16
C8
A   17
C7
A   18
C10
A   19
S
A   20
C11
A   21
C16
A   22
C15
A   23
C14
A   24
C13
A   25
C12
A   26
N1
A   27
C6
A   28
N
A   29
C4
A   30
C3
A   31
C5
A   32
C2
A   33
C1
A   34
C
A   35
O1
A   36
O
M  END
