5L6X_6SG_A_307
     RDKit          3D

 58 67  0  0  0  0  0  0  0  0999 V2000
   23.7240   -6.4250    7.4070 C   0  0  0  0  0  0  0  0  0  0  0  0
   23.4630   -3.5800    9.3910 O   0  0  0  0  0  0  0  0  0  0  0  0
   23.7740   -9.4650    6.6390 O   0  0  0  0  0  0  0  0  0  0  0  0
   22.8280   -4.1510    7.1150 N   0  0  0  0  0  0  0  0  0  0  0  0
   23.7950   -5.0280    6.7040 C   0  0  0  0  0  0  0  0  0  0  0  0
   25.7100   -4.5710    5.4930 N   0  0  0  0  0  0  0  0  0  0  0  0
   26.6180   -3.9830    4.1020 C   0  0  0  0  0  0  0  0  0  0  0  0
   27.7960   -2.2690    2.9180 O   0  0  0  0  0  0  0  0  0  0  0  0
   19.7810   -0.8200   11.4140 N   0  0  0  0  0  0  0  0  0  0  0  0
   19.9440   -1.7420   10.2810 C   0  0  0  0  0  0  0  0  0  0  0  0
   18.5490   -2.7390   10.3450 C   0  0  0  0  0  0  0  0  0  0  0  0
   18.3890   -3.2760    9.2690 O   0  0  0  0  0  0  0  0  0  0  0  0
   21.0860   -2.7200   10.0870 C   0  0  0  0  0  0  0  0  0  0  0  0
   21.3140   -2.8190    8.5750 C   0  0  0  0  0  0  0  0  0  0  0  0
   22.5270   -3.8710    8.6220 C   0  0  0  0  0  0  0  0  0  0  0  0
   18.5750   -3.5000   11.3400 O   0  0  0  0  0  0  0  0  0  0  0  0
   23.1250   -7.0760    8.3010 S   0  0  0  0  0  0  0  0  0  0  0  0
   24.6870   -4.5310    5.5670 C   0  0  0  0  0  0  0  0  0  0  0  0
   23.9650   -4.0470    4.6690 O   0  0  0  0  0  0  0  0  0  0  0  0
   27.1860   -2.5640    3.9290 C   0  0  0  0  0  0  0  0  0  0  0  0
   27.0050   -1.7500    4.8300 O   0  0  0  0  0  0  0  0  0  0  0  0
   24.1930   -8.4040    8.4630 C   0  0  0  0  0  0  0  0  0  0  0  0
   24.8620   -9.3660    7.2250 C   0  0  0  0  0  0  0  0  0  0  0  0
   25.8160   -9.7340    7.2580 N   0  0  0  0  0  0  0  0  0  0  0  0
   26.2610  -10.5910    5.8220 C   0  0  0  0  0  0  0  0  0  0  0  0
   27.9130  -10.5160    5.6120 C   0  0  0  0  0  0  0  0  0  0  0  0
   28.6040   -9.7630    6.3730 C   0  0  0  0  0  0  0  0  0  0  0  0
   29.8970   -9.9280    5.8910 C   0  0  0  0  0  0  0  0  0  0  0  0
   29.8640  -10.6820    4.8170 C   0  0  0  0  0  0  0  0  0  0  0  0
   28.5980  -10.9380    4.6240 C   0  0  0  0  0  0  0  0  0  0  0  0
   28.2370   -7.1170    4.2060 C   0  0  0  0  0  0  0  0  0  0  0  0
   28.1220   -7.8460    3.1130 C   0  0  0  0  0  0  0  0  0  0  0  0
   29.3470   -8.1610    2.6330 C   0  0  0  0  0  0  0  0  0  0  0  0
   30.1770   -7.6000    3.4850 C   0  0  0  0  0  0  0  0  0  0  0  0
   29.5240   -6.9600    4.4410 C   0  0  0  0  0  0  0  0  0  0  0  0
   29.0800   -8.9840    4.5220 Fe  0  0  0  0  0 10  0  0  0  0  0  0
   24.4785   -7.0812    6.9486 H   0  0  0  0  0  0  0  0  0  0  0  0
   23.1608   -3.6740   10.3290 H   0  0  0  0  0  0  0  0  0  0  0  0
   22.2758   -3.6550    6.4009 H   0  0  0  0  0  0  0  0  0  0  0  0
   26.2370   -4.9790    6.2783 H   0  0  0  0  0  0  0  0  0  0  0  0
   25.9539   -4.1353    3.2384 H   0  0  0  0  0  0  0  0  0  0  0  0
   27.5539   -4.5451    4.2370 H   0  0  0  0  0  0  0  0  0  0  0  0
   19.8732   -1.3418   12.2973 H   0  0  0  0  0  0  0  0  0  0  0  0
   20.5059   -0.0897   11.3694 H   0  0  0  0  0  0  0  0  0  0  0  0
   20.1475   -1.0276    9.4697 H   0  0  0  0  0  0  0  0  0  0  0  0
   21.9938   -2.3496   10.5858 H   0  0  0  0  0  0  0  0  0  0  0  0
   20.8495   -3.7026   10.5212 H   0  0  0  0  0  0  0  0  0  0  0  0
   20.4360   -3.2140    8.0430 H   0  0  0  0  0  0  0  0  0  0  0  0
   21.5049   -1.8741    8.0452 H   0  0  0  0  0  0  0  0  0  0  0  0
   22.2752   -4.8166    9.1243 H   0  0  0  0  0  0  0  0  0  0  0  0
   18.5620   -3.1202   12.2541 H   0  0  0  0  0  0  0  0  0  0  0  0
   27.0686   -2.0360    5.7756 H   0  0  0  0  0  0  0  0  0  0  0  0
   25.0621   -7.9990    9.0021 H   0  0  0  0  0  0  0  0  0  0  0  0
   23.4869   -9.1366    8.8811 H   0  0  0  0  0  0  0  0  0  0  0  0
   26.4464   -9.6075    8.0627 H   0  0  0  0  0  0  0  0  0  0  0  0
   25.7611  -10.1353    4.9545 H   0  0  0  0  0  0  0  0  0  0  0  0
   25.9531  -11.6429    5.9154 H   0  0  0  0  0  0  0  0  0  0  0  0
   27.2679   -7.7083    2.4336 H   0  0  0  0  0  0  0  0  0  0  0  0
  1  5  2  0
  1 17  1  0
  2 15  1  0
  3 23  2  0
  4  5  1  0
  4 15  1  0
  5 18  1  0
  6 18  1  0
  7 20  1  0
  8 20  2  0
  9 10  1  0
 10 13  1  0
 11 12  2  0
 11 16  1  0
 13 14  1  0
 14 15  1  0
 17 22  1  0
 18 19  2  0
 20 21  1  0
 23 24  1  0
 25 26  1  0
 26 27  1  0
 26 30  1  0
 26 36  1  0
 27 28  2  0
 27 36  1  0
 28 29  1  0
 28 36  1  0
 29 30  2  0
 29 36  1  0
 30 36  1  0
 31 32  1  0
 31 35  2  0
 31 36  1  0
 32 33  1  0
 32 36  1  0
 33 34  2  0
 33 36  1  0
 34 35  1  0
 34 36  1  0
 35 36  1  0
 22 23  1  0
 10 11  1  0
 24 25  1  0
  6  7  1  0
  1 37  1  0
  2 38  1  0
  4 39  1  0
  6 40  1  0
  7 41  1  0
  7 42  1  0
  9 43  1  0
  9 44  1  0
 10 45  1  0
 13 46  1  0
 13 47  1  0
 14 48  1  0
 14 49  1  0
 15 50  1  0
 16 51  1  0
 21 52  1  0
 22 53  1  0
 22 54  1  0
 24 55  1  0
 25 56  1  0
 25 57  1  0
 32 58  1  0
A    1
CB1
A    2
OE1
A    3
O11
A    4
N1
A    5
CA1
A    6
N2
A    7
CA2
A    8
O2
A    9
N
A   10
CA
A   11
C
A   12
O
A   13
CB
A   14
CG
A   15
CD
A   16
OXT
A   17
SG
A   18
C7
A   19
O1
A   20
C8
A   21
OXS
A   22
C10
A   23
C11
A   24
N11
A   25
C12
A   26
C20
A   27
C21
A   28
C22
A   29
C23
A   30
C24
A   31
C30
A   32
C31
A   33
C32
A   34
C33
A   35
C34
A   36
FE
M  END
