5L72_6PF_A_4000
     RDKit          3D

 56 59  0  0  0  0  0  0  0  0999 V2000
  -11.6330  -30.9160   20.2790 N   0  0  0  0  0  0  0  0  0  0  0  0
   -4.2310  -34.8940   22.3030 N   0  0  0  0  0  0  0  0  0  0  0  0
  -10.2260  -30.4750   22.1830 C   0  0  0  0  0  0  0  0  0  0  0  0
  -11.4830  -30.4330   21.6010 C   0  0  0  0  0  0  0  0  0  0  0  0
  -11.7700  -33.4890   21.1490 C   0  0  0  0  0  0  0  0  0  0  0  0
   -8.7080  -30.0620   24.1240 C   0  0  0  0  0  0  0  0  0  0  0  0
   -8.3600  -29.0950   25.0680 C   0  0  0  0  0  0  0  0  0  0  0  0
   -6.5630  -28.2170   26.7480 C   0  0  0  0  0  0  0  0  0  0  0  0
   -6.5250  -31.0690   24.4510 C   0  0  0  0  0  0  0  0  0  0  0  0
   -4.1270  -33.6850   23.1150 C   0  0  0  0  0  0  0  0  0  0  0  0
   -4.1500  -37.3120   22.1840 C   0  0  0  0  0  0  0  0  0  0  0  0
   -7.7650  -31.0470   23.8080 C   0  0  0  0  0  0  0  0  0  0  0  0
   -6.4550  -33.3460   22.6080 O   0  0  0  0  0  0  0  0  0  0  0  0
   -5.4670  -32.9760   23.2410 C   0  0  0  0  0  0  0  0  0  0  0  0
   -3.4240  -34.8190   21.0810 C   0  0  0  0  0  0  0  0  0  0  0  0
   -3.6970  -36.0340   20.2220 C   0  0  0  0  0  0  0  0  0  0  0  0
   -3.4320  -37.2580   20.9310 O   0  0  0  0  0  0  0  0  0  0  0  0
   -3.8750  -36.1000   23.0470 C   0  0  0  0  0  0  0  0  0  0  0  0
   -5.4740  -31.9600   24.1230 N   0  0  0  0  0  0  0  0  0  0  0  0
   -6.2080  -30.1310   25.4460 C   0  0  0  0  0  0  0  0  0  0  0  0
   -5.0820  -30.0140   26.4280 C   0  0  0  0  0  0  0  0  0  0  0  0
   -5.2870  -28.7600   27.0720 O   0  0  0  0  0  0  0  0  0  0  0  0
   -7.1320  -29.1290   25.7180 C   0  0  0  0  0  0  0  0  0  0  0  0
  -10.0600  -30.0650   23.5050 C   0  0  0  0  0  0  0  0  0  0  0  0
  -11.1940  -29.6450   24.2030 C   0  0  0  0  0  0  0  0  0  0  0  0
  -12.4260  -29.5670   23.6790 N   0  0  0  0  0  0  0  0  0  0  0  0
  -11.5150  -32.4520   19.7600 S   0  0  0  0  0  0  0  0  0  0  0  0
  -12.5840  -32.6670   18.8340 O   0  0  0  0  0  0  0  0  0  0  0  0
  -10.1670  -32.6160   19.3150 O   0  0  0  0  0  0  0  0  0  0  0  0
  -12.5660  -29.9170   22.4080 C   0  0  0  0  0  0  0  0  0  0  0  0
  -13.7100  -29.6690   21.7260 O   0  0  0  0  0  0  0  0  0  0  0  0
  -14.5640  -28.6340   22.2120 C   0  0  0  0  0  0  0  0  0  0  0  0
  -11.8420  -30.2093   19.5594 H   0  0  0  0  0  0  0  0  0  0  0  0
   -9.3615  -30.8309   21.6033 H   0  0  0  0  0  0  0  0  0  0  0  0
  -11.6270  -32.9076   22.0718 H   0  0  0  0  0  0  0  0  0  0  0  0
  -12.7937  -33.8908   21.1236 H   0  0  0  0  0  0  0  0  0  0  0  0
  -11.0494  -34.3197   21.1236 H   0  0  0  0  0  0  0  0  0  0  0  0
   -9.0718  -28.2898   25.3024 H   0  0  0  0  0  0  0  0  0  0  0  0
   -7.0296  -27.3145   27.1696 H   0  0  0  0  0  0  0  0  0  0  0  0
   -3.7729  -33.9595   24.1196 H   0  0  0  0  0  0  0  0  0  0  0  0
   -3.4212  -33.0001   22.6222 H   0  0  0  0  0  0  0  0  0  0  0  0
   -5.2286  -37.3609   21.9735 H   0  0  0  0  0  0  0  0  0  0  0  0
   -3.8110  -38.2035   22.7320 H   0  0  0  0  0  0  0  0  0  0  0  0
   -8.0016  -31.8077   23.0494 H   0  0  0  0  0  0  0  0  0  0  0  0
   -2.3571  -34.7902   21.3472 H   0  0  0  0  0  0  0  0  0  0  0  0
   -3.6870  -33.9083   20.5228 H   0  0  0  0  0  0  0  0  0  0  0  0
   -3.0539  -35.9921   19.3306 H   0  0  0  0  0  0  0  0  0  0  0  0
   -4.7607  -36.0236   19.9418 H   0  0  0  0  0  0  0  0  0  0  0  0
   -4.4772  -36.1575   23.9657 H   0  0  0  0  0  0  0  0  0  0  0  0
   -2.8086  -36.0695   23.3149 H   0  0  0  0  0  0  0  0  0  0  0  0
   -4.5909  -31.8089   24.6311 H   0  0  0  0  0  0  0  0  0  0  0  0
   -4.2742  -30.7378   26.6113 H   0  0  0  0  0  0  0  0  0  0  0  0
  -11.0679  -29.3578   25.2573 H   0  0  0  0  0  0  0  0  0  0  0  0
  -14.5586  -28.6405   23.3120 H   0  0  0  0  0  0  0  0  0  0  0  0
  -14.2030  -27.6603   21.8493 H   0  0  0  0  0  0  0  0  0  0  0  0
  -15.5886  -28.8035   21.8493 H   0  0  0  0  0  0  0  0  0  0  0  0
 28 27  2  0
 29 27  2  0
 27  1  1  0
 27  5  1  0
 16 17  1  0
 16 15  1  0
  1  4  1  0
 17 11  1  0
 15  2  1  0
  4  3  2  0
  4 30  1  0
 31 32  1  0
 31 30  1  0
  3 24  1  0
 11 18  1  0
  2 18  1  0
  2 10  1  0
 30 26  2  0
 13 14  2  0
 10 14  1  0
 14 19  1  0
 24  6  1  0
 24 25  2  0
 26 25  1  0
 12  6  1  0
 12  9  2  0
 19  9  1  0
  6  7  2  0
  9 20  1  0
  7 23  1  0
 20 23  1  0
 20 21  2  0
 23  8  2  0
 21 22  1  0
  8 22  1  0
  1 33  1  0
  3 34  1  0
  5 35  1  0
  5 36  1  0
  5 37  1  0
  7 38  1  0
  8 39  1  0
 10 40  1  0
 10 41  1  0
 11 42  1  0
 11 43  1  0
 12 44  1  0
 15 45  1  0
 15 46  1  0
 16 47  1  0
 16 48  1  0
 18 49  1  0
 18 50  1  0
 19 51  1  0
 21 52  1  0
 25 53  1  0
 32 54  1  0
 32 55  1  0
 32 56  1  0
A    1
N1
A    2
N3
A    3
C4
A    4
C5
A    5
C6
A    6
C7
A    7
C8
A    8
C10
A    9
C13
A   10
C15
A   11
C17
A   12
C20
A   13
O4
A   14
C14
A   15
C19
A   16
C18
A   17
O5
A   18
C16
A   19
N2
A   20
C12
A   21
C11
A   22
O3
A   23
C9
A   24
C3
A   25
C2
A   26
N
A   27
S
A   28
O1
A   29
O2
A   30
C1
A   31
O
A   32
C
M  END
