5L7E_6Q0_A_1106
     RDKit          3D

 42 44  0  0  0  0  0  0  0  0999 V2000
   10.3520   16.3560   17.3590 C   0  0  0  0  0  0  0  0  0  0  0  0
   10.8700   17.5760   17.7570 C   0  0  0  0  0  0  0  0  0  0  0  0
    9.2990   15.7880   18.0540 C   0  0  0  0  0  0  0  0  0  0  0  0
    5.8510   17.8850   17.7270 C   0  0  0  0  0  0  0  0  0  0  0  0
   10.3420   18.2530   18.8440 C   0  0  0  0  0  0  0  0  0  0  0  0
    8.7600   16.4620   19.1340 C   0  0  0  0  0  0  0  0  0  0  0  0
    7.1600   17.8330   15.7150 C   0  0  0  0  0  0  0  0  0  0  0  0
    7.4590   17.2550   14.4220 C   0  0  0  0  0  0  0  0  0  0  0  0
    6.6000   18.9480   18.1970 C   0  0  0  0  0  0  0  0  0  0  0  0
    9.2790   17.6870   19.5150 C   0  0  0  0  0  0  0  0  0  0  0  0
    7.6580   17.8840   13.1680 C   0  0  0  0  0  0  0  0  0  0  0  0
    7.6090   15.9130   14.1360 C   0  0  0  0  0  0  0  0  0  0  0  0
    7.6120   19.3110   12.8190 C   0  0  0  0  0  0  0  0  0  0  0  0
    7.9100   18.9030   16.1800 C   0  0  0  0  0  0  0  0  0  0  0  0
    6.1210   17.3290   16.4880 C   0  0  0  0  0  0  0  0  0  0  0  0
    7.6130   19.4570   17.4080 C   0  0  0  0  0  0  0  0  0  0  0  0
    7.5660   14.6440   14.8920 C   0  0  0  0  0  0  0  0  0  0  0  0
    6.3210   19.5330   19.5490 C   0  0  0  0  0  0  0  0  0  0  0  0
    7.9030   17.0060   12.1940 N   0  0  0  0  0  0  0  0  0  0  0  0
    7.5580   19.8160   20.3320 N   0  0  0  0  0  0  0  0  0  0  0  0
    7.7200   17.5350   21.5510 O   0  0  0  0  0  0  0  0  0  0  0  0
    9.6640   19.1070   21.6480 O   0  0  0  0  0  0  0  0  0  0  0  0
    7.8790   15.7670   12.8160 O   0  0  0  0  0  0  0  0  0  0  0  0
    8.5540   18.5230   20.9160 S   0  0  0  0  0  0  0  0  0  0  0  0
   10.7784   15.8366   16.4881 H   0  0  0  0  0  0  0  0  0  0  0  0
   11.7128   18.0142   17.2024 H   0  0  0  0  0  0  0  0  0  0  0  0
    8.8952   14.8109   17.7505 H   0  0  0  0  0  0  0  0  0  0  0  0
    5.0347   17.4781   18.3419 H   0  0  0  0  0  0  0  0  0  0  0  0
   10.7606   19.2186   19.1640 H   0  0  0  0  0  0  0  0  0  0  0  0
    7.9182   16.0244   19.6907 H   0  0  0  0  0  0  0  0  0  0  0  0
    7.5926   19.9131   13.7394 H   0  0  0  0  0  0  0  0  0  0  0  0
    8.5022   19.5729   12.2282 H   0  0  0  0  0  0  0  0  0  0  0  0
    6.7068   19.5150   12.2282 H   0  0  0  0  0  0  0  0  0  0  0  0
    8.7349   19.3066   15.5745 H   0  0  0  0  0  0  0  0  0  0  0  0
    5.5143   16.4901   16.1163 H   0  0  0  0  0  0  0  0  0  0  0  0
    8.1937   20.3201   17.7655 H   0  0  0  0  0  0  0  0  0  0  0  0
    7.5733   14.8594   15.9707 H   0  0  0  0  0  0  0  0  0  0  0  0
    6.6487   14.0944   14.6340 H   0  0  0  0  0  0  0  0  0  0  0  0
    8.4440   14.0336   14.6340 H   0  0  0  0  0  0  0  0  0  0  0  0
    5.7684   20.4747   19.4154 H   0  0  0  0  0  0  0  0  0  0  0  0
    5.7391   18.7897   20.1136 H   0  0  0  0  0  0  0  0  0  0  0  0
    8.1576   20.4010   19.7327 H   0  0  0  0  0  0  0  0  0  0  0  0
 19 23  1  0
 19 11  2  0
 23 12  1  0
 13 11  1  0
 11  8  1  0
 12  8  2  0
 12 17  1  0
  8  7  1  0
  7 14  2  0
  7 15  1  0
 14 16  1  0
 15  4  2  0
  1  2  2  0
  1  3  1  0
 16  9  2  0
  4  9  1  0
  2  5  1  0
  3  6  2  0
  9 18  1  0
  5 10  2  0
  6 10  1  0
 10 24  1  0
 18 20  1  0
 20 24  1  0
 24 21  2  0
 24 22  2  0
  1 25  1  0
  2 26  1  0
  3 27  1  0
  4 28  1  0
  5 29  1  0
  6 30  1  0
 13 31  1  0
 13 32  1  0
 13 33  1  0
 14 34  1  0
 15 35  1  0
 16 36  1  0
 17 37  1  0
 17 38  1  0
 17 39  1  0
 18 40  1  0
 18 41  1  0
 20 42  1  0
A    1
C1
A    2
C2
A    3
C3
A    4
C7
A    5
C8
A    6
C9
A    7
C10
A    8
C11
A    9
C12
A   10
C13
A   11
C14
A   12
C15
A   13
C16
A   14
C4
A   15
C5
A   16
C6
A   17
C17
A   18
C18
A   19
N19
A   20
N20
A   21
O21
A   22
O22
A   23
O23
A   24
S24
M  END
