5L7G_6QE_A_1102
     RDKit          3D

 53 56  0  0  0  0  0  0  0  0999 V2000
   -7.5130   19.3170  -12.9110 C   0  0  0  0  0  0  0  0  0  0  0  0
   -7.6140   17.8770  -13.1780 C   0  0  0  0  0  0  0  0  0  0  0  0
   -7.8970   15.7760  -12.7810 O   0  0  0  0  0  0  0  0  0  0  0  0
   -9.5290   14.6280  -16.3280 C   0  0  0  0  0  0  0  0  0  0  0  0
  -10.2520   15.7660  -16.6280 C   0  0  0  0  0  0  0  0  0  0  0  0
  -11.6040   15.7130  -16.8960 C   0  0  0  0  0  0  0  0  0  0  0  0
  -12.2520   14.4970  -16.8580 C   0  0  0  0  0  0  0  0  0  0  0  0
  -11.5360   13.3550  -16.5590 C   0  0  0  0  0  0  0  0  0  0  0  0
  -10.1790   13.3980  -16.3120 C   0  0  0  0  0  0  0  0  0  0  0  0
   -7.4740   17.2250  -14.4280 C   0  0  0  0  0  0  0  0  0  0  0  0
   -7.5650   19.5480  -17.3150 C   0  0  0  0  0  0  0  0  0  0  0  0
   -6.5280   19.0780  -18.1010 C   0  0  0  0  0  0  0  0  0  0  0  0
   -6.2360   19.7440  -19.4020 C   0  0  0  0  0  0  0  0  0  0  0  0
   -9.3330   16.3220  -21.2140 C   0  0  0  0  0  0  0  0  0  0  0  0
   -5.7940   17.9800  -17.6860 C   0  0  0  0  0  0  0  0  0  0  0  0
   -6.0870   17.3620  -16.4840 C   0  0  0  0  0  0  0  0  0  0  0  0
   -7.8670   17.0310  -12.1750 N   0  0  0  0  0  0  0  0  0  0  0  0
   -7.6660   15.8950  -14.1180 C   0  0  0  0  0  0  0  0  0  0  0  0
   -7.6970   14.6070  -14.8280 C   0  0  0  0  0  0  0  0  0  0  0  0
   -8.1530   14.8000  -16.1650 O   0  0  0  0  0  0  0  0  0  0  0  0
  -12.1600   12.1710  -16.5290 F   0  0  0  0  0  0  0  0  0  0  0  0
   -9.5650   12.2240  -16.0450 F   0  0  0  0  0  0  0  0  0  0  0  0
   -7.1480   17.8220  -15.7110 C   0  0  0  0  0  0  0  0  0  0  0  0
   -7.8820   18.9170  -16.1310 C   0  0  0  0  0  0  0  0  0  0  0  0
   -7.4800   19.9770  -20.1860 N   0  0  0  0  0  0  0  0  0  0  0  0
   -8.0580   18.7790  -21.2760 S   0  0  0  0  0  0  0  0  0  0  0  0
   -6.9280   17.9120  -21.5400 O   0  0  0  0  0  0  0  0  0  0  0  0
   -8.8210   19.4120  -22.3320 O   0  0  0  0  0  0  0  0  0  0  0  0
   -9.2140   17.6160  -20.5080 C   0  0  0  0  0  0  0  0  0  0  0  0
   -9.0900   17.4520  -19.0450 C   0  0  0  0  0  0  0  0  0  0  0  0
  -10.1830   18.3140  -19.6050 C   0  0  0  0  0  0  0  0  0  0  0  0
   -7.5010   19.4885  -11.8245 H   0  0  0  0  0  0  0  0  0  0  0  0
   -6.5852   19.7079  -13.3542 H   0  0  0  0  0  0  0  0  0  0  0  0
   -8.3771   19.8336  -13.3542 H   0  0  0  0  0  0  0  0  0  0  0  0
   -9.7373   16.7378  -16.6538 H   0  0  0  0  0  0  0  0  0  0  0  0
  -12.1592   16.6314  -17.1375 H   0  0  0  0  0  0  0  0  0  0  0  0
  -13.3308   14.4369  -17.0642 H   0  0  0  0  0  0  0  0  0  0  0  0
   -8.1393   20.4294  -17.6363 H   0  0  0  0  0  0  0  0  0  0  0  0
   -5.5590   19.1043  -19.9872 H   0  0  0  0  0  0  0  0  0  0  0  0
   -5.7708   20.7189  -19.1943 H   0  0  0  0  0  0  0  0  0  0  0  0
   -9.4078   15.5082  -20.4778 H   0  0  0  0  0  0  0  0  0  0  0  0
  -10.2342   16.3299  -21.8447 H   0  0  0  0  0  0  0  0  0  0  0  0
   -8.4455   16.1654  -21.8447 H   0  0  0  0  0  0  0  0  0  0  0  0
   -4.9756   17.5981  -18.3140 H   0  0  0  0  0  0  0  0  0  0  0  0
   -5.4829   16.5094  -16.1403 H   0  0  0  0  0  0  0  0  0  0  0  0
   -8.3786   13.9192  -14.3060 H   0  0  0  0  0  0  0  0  0  0  0  0
   -6.6830   14.1811  -14.8494 H   0  0  0  0  0  0  0  0  0  0  0  0
   -8.7193   19.2845  -15.5196 H   0  0  0  0  0  0  0  0  0  0  0  0
   -7.3244   20.8309  -20.7405 H   0  0  0  0  0  0  0  0  0  0  0  0
   -9.3366   16.4871  -18.5779 H   0  0  0  0  0  0  0  0  0  0  0  0
   -8.2822   17.6013  -18.3134 H   0  0  0  0  0  0  0  0  0  0  0  0
  -10.1400   19.4068  -19.4874 H   0  0  0  0  0  0  0  0  0  0  0  0
  -11.2783   18.3506  -19.5098 H   0  0  0  0  0  0  0  0  0  0  0  0
 28 26  2  0
 27 26  2  0
 26 29  1  0
 26 25  1  0
 14 29  1  0
 29 31  1  0
 29 30  1  0
 25 13  1  0
 31 30  1  0
 13 12  1  0
 12 15  1  0
 12 11  2  0
 15 16  2  0
 11 24  1  0
  6  7  1  0
  6  5  2  0
  7  8  2  0
  5  4  1  0
  8 21  1  0
  8  9  1  0
 16 23  1  0
  4  9  2  0
  4 20  1  0
  9 22  1  0
 20 19  1  0
 24 23  2  0
 23 10  1  0
 19 18  1  0
 10 18  2  0
 10  2  1  0
 18  3  1  0
  2  1  1  0
  2 17  2  0
  3 17  1  0
  1 32  1  0
  1 33  1  0
  1 34  1  0
  5 35  1  0
  6 36  1  0
  7 37  1  0
 11 38  1  0
 13 39  1  0
 13 40  1  0
 14 41  1  0
 14 42  1  0
 14 43  1  0
 15 44  1  0
 16 45  1  0
 19 46  1  0
 19 47  1  0
 24 48  1  0
 25 49  1  0
 30 50  1  0
 30 51  1  0
 31 52  1  0
 31 53  1  0
A    1
C1
A    2
C2
A    3
O4
A    4
C8
A    5
C9
A    6
C10
A    7
C11
A    8
C12
A    9
C14
A   10
C16
A   11
C19
A   12
C20
A   13
C21
A   14
C27
A   15
C30
A   16
C31
A   17
N3
A   18
C5
A   19
C6
A   20
O7
A   21
F13
A   22
F15
A   23
C17
A   24
C18
A   25
N22
A   26
S23
A   27
O24
A   28
O25
A   29
C26
A   30
C28
A   31
C29
M  END
