5L7T_6QJ_A_303
     RDKit          3D

 38 40  0  0  0  0  0  0  0  0999 V2000
  -19.3490  -43.0260  -12.8560 C   0  0  0  0  0  0  0  0  0  0  0  0
  -19.2030  -41.6430  -12.9390 C   0  0  0  0  0  0  0  0  0  0  0  0
  -18.0530  -41.0430  -13.4530 C   0  0  0  0  0  0  0  0  0  0  0  0
  -17.9310  -39.5660  -13.5140 C   0  0  0  0  0  0  0  0  0  0  0  0
  -19.0410  -38.7340  -13.5860 C   0  0  0  0  0  0  0  0  0  0  0  0
  -18.8460  -37.3690  -13.6840 C   0  0  0  0  0  0  0  0  0  0  0  0
  -17.5590  -36.8640  -13.7070 C   0  0  0  0  0  0  0  0  0  0  0  0
  -16.4990  -37.7580  -13.6290 C   0  0  0  0  0  0  0  0  0  0  0  0
  -15.0760  -37.2700  -13.6830 C   0  0  0  0  0  0  0  0  0  0  0  0
  -14.1150  -37.6190  -12.6010 C   0  0  0  0  0  0  0  0  0  0  0  0
  -10.5200  -38.0040  -12.1920 O   0  0  0  0  0  0  0  0  0  0  0  0
  -18.4230  -45.1750  -13.2350 O   0  0  0  0  0  0  0  0  0  0  0  0
  -11.4240  -38.4920   -9.6280 F   0  0  0  0  0  0  0  0  0  0  0  0
  -12.3260  -38.2430  -10.6090 C   0  0  0  0  0  0  0  0  0  0  0  0
  -13.6640  -38.2290  -10.3160 C   0  0  0  0  0  0  0  0  0  0  0  0
  -14.5610  -37.9210  -11.3200 C   0  0  0  0  0  0  0  0  0  0  0  0
  -11.8420  -37.9690  -11.8770 C   0  0  0  0  0  0  0  0  0  0  0  0
  -12.7490  -37.6420  -12.8750 C   0  0  0  0  0  0  0  0  0  0  0  0
  -14.6920  -36.6000  -14.6350 O   0  0  0  0  0  0  0  0  0  0  0  0
  -16.6710  -39.0850  -13.5280 N   0  0  0  0  0  0  0  0  0  0  0  0
  -17.0250  -41.8670  -13.8970 C   0  0  0  0  0  0  0  0  0  0  0  0
  -17.1430  -43.2420  -13.8330 C   0  0  0  0  0  0  0  0  0  0  0  0
  -18.2970  -43.8220  -13.3170 C   0  0  0  0  0  0  0  0  0  0  0  0
  -20.5910  -43.6450  -12.2700 C   0  0  0  0  0  0  0  0  0  0  0  0
  -20.0238  -41.0010  -12.5867 H   0  0  0  0  0  0  0  0  0  0  0  0
  -20.0574  -39.1540  -13.5654 H   0  0  0  0  0  0  0  0  0  0  0  0
  -19.7088  -36.6892  -13.7433 H   0  0  0  0  0  0  0  0  0  0  0  0
  -17.3792  -35.7816  -13.7851 H   0  0  0  0  0  0  0  0  0  0  0  0
   -9.8401  -38.0220  -11.4727 H   0  0  0  0  0  0  0  0  0  0  0  0
  -18.4640  -45.6156  -12.3494 H   0  0  0  0  0  0  0  0  0  0  0  0
  -14.0175  -38.4588   -9.3000 H   0  0  0  0  0  0  0  0  0  0  0  0
  -15.6395  -37.9147  -11.1034 H   0  0  0  0  0  0  0  0  0  0  0  0
  -12.3884  -37.4002  -13.8857 H   0  0  0  0  0  0  0  0  0  0  0  0
  -16.1067  -41.4188  -14.3041 H   0  0  0  0  0  0  0  0  0  0  0  0
  -16.3217  -43.8801  -14.1913 H   0  0  0  0  0  0  0  0  0  0  0  0
  -20.5322  -43.6157  -11.1720 H   0  0  0  0  0  0  0  0  0  0  0  0
  -21.4745  -43.0818  -12.6051 H   0  0  0  0  0  0  0  0  0  0  0  0
  -20.6732  -44.6895  -12.6051 H   0  0  0  0  0  0  0  0  0  0  0  0
 19  9  2  0
 21 22  2  0
 21  3  1  0
 22 23  1  0
  7  6  1  0
  7  8  2  0
  6  5  2  0
  9  8  1  0
  9 10  1  0
  8 20  1  0
  5  4  1  0
 20  4  2  0
  4  3  1  0
  3  2  2  0
 23 12  1  0
 23  1  2  0
  2  1  1  0
 18 10  2  0
 18 17  1  0
  1 24  1  0
 10 16  1  0
 11 17  1  0
 17 14  2  0
 16 15  2  0
 14 15  1  0
 14 13  1  0
  2 25  1  0
  5 26  1  0
  6 27  1  0
  7 28  1  0
 11 29  1  0
 12 30  1  0
 15 31  1  0
 16 32  1  0
 18 33  1  0
 21 34  1  0
 22 35  1  0
 24 36  1  0
 24 37  1  0
 24 38  1  0
A    1
C1
A    2
C2
A    3
C3
A    4
C4
A    5
C5
A    6
C6
A    7
C7
A    8
C8
A    9
C9
A   10
C10
A   11
O1
A   12
O2
A   13
F
A   14
C13
A   15
C12
A   16
C11
A   17
C14
A   18
C15
A   19
O
A   20
N
A   21
C16
A   22
C17
A   23
C18
A   24
C
M  END
