5L7Y_6QO_A_303
     RDKit          3D

 35 37  0  0  0  0  0  0  0  0999 V2000
  -15.8430   18.2470  -17.4530 C   0  0  0  0  0  0  0  0  0  0  0  0
  -16.1530   17.6410  -18.6790 C   0  0  0  0  0  0  0  0  0  0  0  0
  -15.8260   18.3170  -19.9880 C   0  0  0  0  0  0  0  0  0  0  0  0
  -16.3230   17.7630  -21.2980 C   0  0  0  0  0  0  0  0  0  0  0  0
  -15.5280   17.7320  -22.4420 C   0  0  0  0  0  0  0  0  0  0  0  0
  -16.0880   17.2320  -23.6240 C   0  0  0  0  0  0  0  0  0  0  0  0
  -17.4230   16.7790  -23.6160 C   0  0  0  0  0  0  0  0  0  0  0  0
  -18.1550   16.8340  -22.4180 C   0  0  0  0  0  0  0  0  0  0  0  0
  -19.5810   16.4030  -22.2740 C   0  0  0  0  0  0  0  0  0  0  0  0
  -19.9730   15.6070  -21.1850 C   0  0  0  0  0  0  0  0  0  0  0  0
  -17.0800   15.7440  -17.4890 C   0  0  0  0  0  0  0  0  0  0  0  0
  -17.0520   15.8260  -15.1180 F   0  0  0  0  0  0  0  0  0  0  0  0
  -16.7760   16.3770  -16.3180 C   0  0  0  0  0  0  0  0  0  0  0  0
  -16.1540   17.5990  -16.2710 C   0  0  0  0  0  0  0  0  0  0  0  0
  -15.9020   18.1410  -15.0710 O   0  0  0  0  0  0  0  0  0  0  0  0
  -16.7640   16.3820  -18.6630 C   0  0  0  0  0  0  0  0  0  0  0  0
  -15.2120   19.3810  -20.0230 O   0  0  0  0  0  0  0  0  0  0  0  0
  -17.6120   17.3340  -21.2890 N   0  0  0  0  0  0  0  0  0  0  0  0
  -20.5730   16.7820  -23.1810 C   0  0  0  0  0  0  0  0  0  0  0  0
  -20.2600   17.5440  -24.2450 F   0  0  0  0  0  0  0  0  0  0  0  0
  -21.8980   16.3670  -23.0300 C   0  0  0  0  0  0  0  0  0  0  0  0
  -22.8340   16.7440  -23.9240 O   0  0  0  0  0  0  0  0  0  0  0  0
  -22.2690   15.5730  -21.9440 C   0  0  0  0  0  0  0  0  0  0  0  0
  -21.3050   15.2020  -21.0180 C   0  0  0  0  0  0  0  0  0  0  0  0
  -15.3550   19.2326  -17.4313 H   0  0  0  0  0  0  0  0  0  0  0  0
  -14.4884   18.0907  -22.4172 H   0  0  0  0  0  0  0  0  0  0  0  0
  -15.4930   17.1931  -24.5484 H   0  0  0  0  0  0  0  0  0  0  0  0
  -17.8850   16.3881  -24.5346 H   0  0  0  0  0  0  0  0  0  0  0  0
  -19.2190   15.2947  -20.4475 H   0  0  0  0  0  0  0  0  0  0  0  0
  -17.5622   14.7553  -17.4917 H   0  0  0  0  0  0  0  0  0  0  0  0
  -16.1325   17.6452  -14.2457 H   0  0  0  0  0  0  0  0  0  0  0  0
  -16.9978   15.8895  -19.6184 H   0  0  0  0  0  0  0  0  0  0  0  0
  -23.7051   17.0948  -23.6105 H   0  0  0  0  0  0  0  0  0  0  0  0
  -23.3122   15.2456  -21.8238 H   0  0  0  0  0  0  0  0  0  0  0  0
  -21.5865   14.5880  -20.1498 H   0  0  0  0  0  0  0  0  0  0  0  0
 20 19  1  0
 22 21  1  0
  6  7  1  0
  6  5  2  0
  7  8  2  0
 19 21  2  0
 19  9  1  0
 21 23  1  0
  5  4  1  0
  8  9  1  0
  8 18  1  0
  9 10  2  0
 23 24  2  0
  4 18  2  0
  4  3  1  0
 10 24  1  0
 17  3  2  0
  3  2  1  0
  2 16  1  0
  2  1  2  0
 16 11  2  0
 11 13  1  0
  1 14  1  0
 13 14  2  0
 13 12  1  0
 14 15  1  0
  1 25  1  0
  5 26  1  0
  6 27  1  0
  7 28  1  0
 10 29  1  0
 11 30  1  0
 15 31  1  0
 16 32  1  0
 22 33  1  0
 23 34  1  0
 24 35  1  0
A    1
C1
A    2
C2
A    3
C3
A    4
C4
A    5
C5
A    6
C6
A    7
C7
A    8
C8
A    9
C9
A   10
C10
A   11
C16
A   12
F1
A   13
C17
A   14
C
A   15
O
A   16
C15
A   17
O1
A   18
N
A   19
C14
A   20
F
A   21
C13
A   22
O2
A   23
C12
A   24
C11
M  END
