5L8U_6RS_A_2001
     RDKit          3D

 41 43  0  0  0  0  0  0  0  0999 V2000
  -35.4250   -8.7700    1.2100 C   0  0  0  0  0  0  0  0  0  0  0  0
  -32.5320   -9.0340    1.9680 C   0  0  0  0  0  0  0  0  0  0  0  0
  -32.4760   -8.6830    0.5940 C   0  0  0  0  0  0  0  0  0  0  0  0
  -31.4660   -9.7840    2.5360 C   0  0  0  0  0  0  0  0  0  0  0  0
  -34.7590   -8.5960   -0.1400 C   0  0  0  0  0  0  0  0  0  0  0  0
  -33.6350   -8.6610    2.8430 O   0  0  0  0  0  0  0  0  0  0  0  0
  -29.4190  -11.6070   -1.1280 C   0  0  0  0  0  0  0  0  0  0  0  0
  -29.0920  -10.2830   -0.4370 C   0  0  0  0  0  0  0  0  0  0  0  0
  -27.9810  -10.4540    0.3760 N   0  0  0  0  0  0  0  0  0  0  0  0
  -27.0470   -9.3490    0.5810 C   0  0  0  0  0  0  0  0  0  0  0  0
  -25.6870   -9.5810    0.9440 C   0  0  0  0  0  0  0  0  0  0  0  0
  -25.2100  -11.0410    1.1380 C   0  0  0  0  0  0  0  0  0  0  0  0
  -24.8140   -8.5930    1.1440 N   0  0  0  0  0  0  0  0  0  0  0  0
  -25.1650   -7.3360    0.9990 C   0  0  0  0  0  0  0  0  0  0  0  0
  -26.5290   -6.9870    0.6280 C   0  0  0  0  0  0  0  0  0  0  0  0
  -27.4610   -7.9960    0.4130 C   0  0  0  0  0  0  0  0  0  0  0  0
  -30.2950   -9.8500    0.4130 C   0  0  0  0  0  0  0  0  0  0  0  0
  -31.3950   -9.0690   -0.1750 C   0  0  0  0  0  0  0  0  0  0  0  0
  -34.7080   -7.9530    2.2520 C   0  0  0  0  0  0  0  0  0  0  0  0
  -33.5320   -7.9180   -0.0330 O   0  0  0  0  0  0  0  0  0  0  0  0
  -30.3500  -10.1870    1.7310 C   0  0  0  0  0  0  0  0  0  0  0  0
  -36.4716   -8.4378    1.1445 H   0  0  0  0  0  0  0  0  0  0  0  0
  -35.3854   -9.8315    1.4959 H   0  0  0  0  0  0  0  0  0  0  0  0
  -31.4977  -10.0572    3.6011 H   0  0  0  0  0  0  0  0  0  0  0  0
  -35.4283   -8.0197   -0.7957 H   0  0  0  0  0  0  0  0  0  0  0  0
  -34.5625   -9.5952   -0.5558 H   0  0  0  0  0  0  0  0  0  0  0  0
  -29.6098  -12.3796   -0.3686 H   0  0  0  0  0  0  0  0  0  0  0  0
  -30.3132  -11.4817   -1.7563 H   0  0  0  0  0  0  0  0  0  0  0  0
  -28.5693  -11.9124   -1.7563 H   0  0  0  0  0  0  0  0  0  0  0  0
  -28.8770   -9.5096   -1.1891 H   0  0  0  0  0  0  0  0  0  0  0  0
  -27.8143  -11.3606    0.8355 H   0  0  0  0  0  0  0  0  0  0  0  0
  -25.1374  -11.2633    2.2129 H   0  0  0  0  0  0  0  0  0  0  0  0
  -25.9306  -11.7275    0.6695 H   0  0  0  0  0  0  0  0  0  0  0  0
  -24.2231  -11.1696    0.6695 H   0  0  0  0  0  0  0  0  0  0  0  0
  -24.4226   -6.5403    1.1591 H   0  0  0  0  0  0  0  0  0  0  0  0
  -26.8202   -5.9319    0.5185 H   0  0  0  0  0  0  0  0  0  0  0  0
  -28.4936   -7.7555    0.1201 H   0  0  0  0  0  0  0  0  0  0  0  0
  -31.3562   -8.7895   -1.2382 H   0  0  0  0  0  0  0  0  0  0  0  0
  -34.3128   -7.0426    1.7778 H   0  0  0  0  0  0  0  0  0  0  0  0
  -35.4299   -7.7107    3.0459 H   0  0  0  0  0  0  0  0  0  0  0  0
  -29.5339  -10.7716    2.1807 H   0  0  0  0  0  0  0  0  0  0  0  0
  7  8  1  0
  8  9  1  0
  8 17  1  0
 18 17  1  0
 18  3  2  0
  5 20  1  0
  5  1  1  0
 20  3  1  0
  9 10  1  0
 17 21  2  0
 16 10  1  0
 16 15  2  0
 10 11  2  0
  3  2  1  0
 15 14  1  0
 11 12  1  0
 11 13  1  0
 14 13  2  0
  1 19  1  0
 21  4  1  0
  2  4  2  0
  2  6  1  0
 19  6  1  0
  1 22  1  0
  1 23  1  0
  4 24  1  0
  5 25  1  0
  5 26  1  0
  7 27  1  0
  7 28  1  0
  7 29  1  0
  8 30  1  0
  9 31  1  0
 12 32  1  0
 12 33  1  0
 12 34  1  0
 14 35  1  0
 15 36  1  0
 16 37  1  0
 18 38  1  0
 19 39  1  0
 19 40  1  0
 21 41  1  0
A    1
C17
A    2
C14
A    3
C13
A    4
C20
A    5
C18
A    6
O15
A    7
C01
A    8
C02
A    9
N03
A   10
C04
A   11
C05
A   12
C06
A   13
N07
A   14
C08
A   15
C09
A   16
C10
A   17
C11
A   18
C12
A   19
C16
A   20
O19
A   21
C21
M  END
