5L96_6RZ_A_2001
     RDKit          3D

 31 31  0  0  0  0  0  0  0  0999 V2000
  -25.1800   -7.3310    0.7380 C   0  0  0  0  0  0  0  0  0  0  0  0
  -27.5280   -7.9530    0.5160 C   0  0  0  0  0  0  0  0  0  0  0  0
  -30.2450  -11.2980    0.5760 C   0  0  0  0  0  0  0  0  0  0  0  0
  -31.1200   -7.7860   -0.6880 C   0  0  0  0  0  0  0  0  0  0  0  0
  -28.0540  -10.3940    0.4810 N   0  0  0  0  0  0  0  0  0  0  0  0
  -27.1160   -9.3030    0.5610 C   0  0  0  0  0  0  0  0  0  0  0  0
  -29.3720  -10.1700    0.1000 C   0  0  0  0  0  0  0  0  0  0  0  0
  -29.4600  -10.0680   -1.4390 C   0  0  0  0  0  0  0  0  0  0  0  0
  -30.8850   -9.0450   -1.8710 S   0  0  0  0  0  0  0  0  0  0  0  0
  -30.7240   -8.4790   -3.2270 O   0  0  0  0  0  0  0  0  0  0  0  0
  -32.1110   -9.8900   -2.0240 O   0  0  0  0  0  0  0  0  0  0  0  0
  -25.7290   -9.5640    0.6980 C   0  0  0  0  0  0  0  0  0  0  0  0
  -25.2540  -11.0070    0.7630 C   0  0  0  0  0  0  0  0  0  0  0  0
  -24.8340   -8.6030    0.7860 N   0  0  0  0  0  0  0  0  0  0  0  0
  -26.5320   -6.9490    0.6050 C   0  0  0  0  0  0  0  0  0  0  0  0
  -24.4023   -6.5557    0.8027 H   0  0  0  0  0  0  0  0  0  0  0  0
  -28.5909   -7.6886    0.4148 H   0  0  0  0  0  0  0  0  0  0  0  0
  -30.2569  -11.3134    1.6758 H   0  0  0  0  0  0  0  0  0  0  0  0
  -31.2686  -11.1532    0.2002 H   0  0  0  0  0  0  0  0  0  0  0  0
  -29.8481  -12.2526    0.2002 H   0  0  0  0  0  0  0  0  0  0  0  0
  -31.0403   -8.2130    0.3226 H   0  0  0  0  0  0  0  0  0  0  0  0
  -30.3511   -7.0106   -0.8201 H   0  0  0  0  0  0  0  0  0  0  0  0
  -32.1169   -7.3402   -0.8201 H   0  0  0  0  0  0  0  0  0  0  0  0
  -27.7447  -11.3498    0.7085 H   0  0  0  0  0  0  0  0  0  0  0  0
  -29.7179   -9.2286    0.5517 H   0  0  0  0  0  0  0  0  0  0  0  0
  -29.5812  -11.0727   -1.8702 H   0  0  0  0  0  0  0  0  0  0  0  0
  -28.5397   -9.6165   -1.8380 H   0  0  0  0  0  0  0  0  0  0  0  0
  -25.1533  -11.3129    1.8148 H   0  0  0  0  0  0  0  0  0  0  0  0
  -25.9856  -11.6568    0.2606 H   0  0  0  0  0  0  0  0  0  0  0  0
  -24.2794  -11.0952    0.2606 H   0  0  0  0  0  0  0  0  0  0  0  0
  -26.8092   -5.8851    0.5708 H   0  0  0  0  0  0  0  0  0  0  0  0
 10  9  2  0
 11  9  2  0
  9  8  1  0
  9  4  1  0
  8  7  1  0
  7  5  1  0
  7  3  1  0
  5  6  1  0
  2  6  2  0
  2 15  1  0
  6 12  1  0
 15  1  2  0
 12 13  1  0
 12 14  2  0
  1 14  1  0
  1 16  1  0
  2 17  1  0
  3 18  1  0
  3 19  1  0
  3 20  1  0
  4 21  1  0
  4 22  1  0
  4 23  1  0
  5 24  1  0
  7 25  1  0
  8 26  1  0
  8 27  1  0
 13 28  1  0
 13 29  1  0
 13 30  1  0
 15 31  1  0
A    1
C13
A    2
C15
A    3
C01
A    4
C05
A    5
N08
A    6
C09
A    7
C02
A    8
C03
A    9
S04
A   10
O06
A   11
O07
A   12
C10
A   13
C11
A   14
N12
A   15
C14
M  END
