5L98_6RY_A_2001
     RDKit          3D

 38 40  0  0  0  0  0  0  0  0999 V2000
  -29.0760  -11.4590   -1.6090 C   0  0  0  0  0  0  0  0  0  0  0  0
  -28.6980  -10.2020   -0.8830 C   0  0  0  0  0  0  0  0  0  0  0  0
  -27.5000  -10.4040   -0.0910 N   0  0  0  0  0  0  0  0  0  0  0  0
  -26.6820   -9.3010    0.2960 C   0  0  0  0  0  0  0  0  0  0  0  0
  -25.3540   -9.4790    0.7840 C   0  0  0  0  0  0  0  0  0  0  0  0
  -24.7710  -10.8650    0.9170 C   0  0  0  0  0  0  0  0  0  0  0  0
  -24.6020   -8.4830    1.1390 N   0  0  0  0  0  0  0  0  0  0  0  0
  -25.0570   -7.2040    1.0470 C   0  0  0  0  0  0  0  0  0  0  0  0
  -26.3300   -6.9060    0.5870 C   0  0  0  0  0  0  0  0  0  0  0  0
  -27.1740   -7.9580    0.2000 C   0  0  0  0  0  0  0  0  0  0  0  0
  -29.7930   -9.7820    0.0550 C   0  0  0  0  0  0  0  0  0  0  0  0
  -30.7650   -8.8780   -0.3280 C   0  0  0  0  0  0  0  0  0  0  0  0
  -31.8070   -8.4860    0.6330 C   0  0  0  0  0  0  0  0  0  0  0  0
  -31.8030   -9.0100    1.8920 C   0  0  0  0  0  0  0  0  0  0  0  0
  -32.7700   -8.6900    2.8880 O   0  0  0  0  0  0  0  0  0  0  0  0
  -33.9160   -8.0730    2.3770 C   0  0  0  0  0  0  0  0  0  0  0  0
  -33.6070   -7.0230    1.2900 C   0  0  0  0  0  0  0  0  0  0  0  0
  -32.8240   -7.5430    0.2120 O   0  0  0  0  0  0  0  0  0  0  0  0
  -30.7860   -9.9440    2.2940 C   0  0  0  0  0  0  0  0  0  0  0  0
  -29.7900  -10.3210    1.3810 C   0  0  0  0  0  0  0  0  0  0  0  0
  -29.3129  -12.2469   -0.8789 H   0  0  0  0  0  0  0  0  0  0  0  0
  -29.9562  -11.2673   -2.2402 H   0  0  0  0  0  0  0  0  0  0  0  0
  -28.2360  -11.7846   -2.2402 H   0  0  0  0  0  0  0  0  0  0  0  0
  -28.5259   -9.4277   -1.6452 H   0  0  0  0  0  0  0  0  0  0  0  0
  -27.2360  -11.3573    0.1962 H   0  0  0  0  0  0  0  0  0  0  0  0
  -24.6648  -11.1174    1.9824 H   0  0  0  0  0  0  0  0  0  0  0  0
  -25.4396  -11.5920    0.4328 H   0  0  0  0  0  0  0  0  0  0  0  0
  -23.7838  -10.8955    0.4328 H   0  0  0  0  0  0  0  0  0  0  0  0
  -24.3931   -6.3800    1.3474 H   0  0  0  0  0  0  0  0  0  0  0  0
  -26.6728   -5.8626    0.5263 H   0  0  0  0  0  0  0  0  0  0  0  0
  -28.1906   -7.7566   -0.1688 H   0  0  0  0  0  0  0  0  0  0  0  0
  -30.7596   -8.4549   -1.3434 H   0  0  0  0  0  0  0  0  0  0  0  0
  -34.4435   -7.5753    3.2041 H   0  0  0  0  0  0  0  0  0  0  0  0
  -34.5288   -8.8576    1.9091 H   0  0  0  0  0  0  0  0  0  0  0  0
  -33.0557   -6.1916    1.7535 H   0  0  0  0  0  0  0  0  0  0  0  0
  -34.5688   -6.6960    0.8680 H   0  0  0  0  0  0  0  0  0  0  0  0
  -30.7891  -10.3606    3.3121 H   0  0  0  0  0  0  0  0  0  0  0  0
  -29.0065  -11.0310    1.6842 H   0  0  0  0  0  0  0  0  0  0  0  0
  1  2  1  0
  2  3  1  0
  2 11  1  0
 12 11  2  0
 12 13  1  0
  3  4  1  0
 11 20  1  0
 10  4  1  0
 10  9  2  0
 18 13  1  0
 18 17  1  0
  4  5  2  0
  9  8  1  0
 13 14  2  0
  5  6  1  0
  5  7  1  0
  8  7  2  0
 17 16  1  0
 20 19  2  0
 14 19  1  0
 14 15  1  0
 16 15  1  0
  1 21  1  0
  1 22  1  0
  1 23  1  0
  2 24  1  0
  3 25  1  0
  6 26  1  0
  6 27  1  0
  6 28  1  0
  8 29  1  0
  9 30  1  0
 10 31  1  0
 12 32  1  0
 16 33  1  0
 16 34  1  0
 17 35  1  0
 17 36  1  0
 19 37  1  0
 20 38  1  0
A    1
C01
A    2
C02
A    3
N03
A    4
C04
A    5
C05
A    6
C06
A    7
N07
A    8
C08
A    9
C09
A   10
C10
A   11
C11
A   12
C12
A   13
C13
A   14
C14
A   15
O15
A   16
C16
A   17
C17
A   18
O18
A   19
C19
A   20
C20
M  END
