5L99_6S0_A_2001
     RDKit          3D

 34 36  0  0  0  0  0  0  0  0999 V2000
  -29.8040  -11.7210   -1.1430 C   0  0  0  0  0  0  0  0  0  0  0  0
  -29.3520  -10.3530   -0.6580 C   0  0  0  0  0  0  0  0  0  0  0  0
  -28.2220  -10.5020    0.2010 N   0  0  0  0  0  0  0  0  0  0  0  0
  -27.2930   -9.3990    0.4280 C   0  0  0  0  0  0  0  0  0  0  0  0
  -25.9050   -9.6310    0.8260 C   0  0  0  0  0  0  0  0  0  0  0  0
  -25.3830  -11.0700    1.0180 C   0  0  0  0  0  0  0  0  0  0  0  0
  -25.0570   -8.6430    1.0410 N   0  0  0  0  0  0  0  0  0  0  0  0
  -25.4280   -7.3720    0.8960 C   0  0  0  0  0  0  0  0  0  0  0  0
  -26.7320   -7.0250    0.5220 C   0  0  0  0  0  0  0  0  0  0  0  0
  -27.6980   -8.0830    0.2780 C   0  0  0  0  0  0  0  0  0  0  0  0
  -30.4940   -9.6820    0.0480 C   0  0  0  0  0  0  0  0  0  0  0  0
  -30.7120   -9.8590    1.4310 C   0  0  0  0  0  0  0  0  0  0  0  0
  -31.8500   -9.1620    2.0370 C   0  0  0  0  0  0  0  0  0  0  0  0
  -32.6580   -8.3670    1.2420 C   0  0  0  0  0  0  0  0  0  0  0  0
  -33.7970   -7.7050    1.9960 C   0  0  0  0  0  0  0  0  0  0  0  0
  -33.7340   -8.0880    3.3730 C   0  0  0  0  0  0  0  0  0  0  0  0
  -32.4390   -9.0990    3.5920 S   0  0  0  0  0  0  0  0  0  0  0  0
  -32.4170   -8.2160   -0.1020 N   0  0  0  0  0  0  0  0  0  0  0  0
  -31.3930   -8.8350   -0.6800 C   0  0  0  0  0  0  0  0  0  0  0  0
  -30.0168  -12.3651   -0.2771 H   0  0  0  0  0  0  0  0  0  0  0  0
  -30.7139  -11.6121   -1.7514 H   0  0  0  0  0  0  0  0  0  0  0  0
  -29.0083  -12.1757   -1.7514 H   0  0  0  0  0  0  0  0  0  0  0  0
  -29.0511   -9.7237   -1.5086 H   0  0  0  0  0  0  0  0  0  0  0  0
  -28.0589  -11.4046    0.6695 H   0  0  0  0  0  0  0  0  0  0  0  0
  -25.3030  -11.2907    2.0927 H   0  0  0  0  0  0  0  0  0  0  0  0
  -26.0812  -11.7790    0.5491 H   0  0  0  0  0  0  0  0  0  0  0  0
  -24.3926  -11.1664    0.5491 H   0  0  0  0  0  0  0  0  0  0  0  0
  -24.6914   -6.5748    1.0746 H   0  0  0  0  0  0  0  0  0  0  0  0
  -27.0205   -5.9689    0.4146 H   0  0  0  0  0  0  0  0  0  0  0  0
  -28.7295   -7.8436   -0.0197 H   0  0  0  0  0  0  0  0  0  0  0  0
  -30.0503  -10.4984    2.0337 H   0  0  0  0  0  0  0  0  0  0  0  0
  -34.5509   -7.0370    1.5540 H   0  0  0  0  0  0  0  0  0  0  0  0
  -34.4320   -7.7640    4.1591 H   0  0  0  0  0  0  0  0  0  0  0  0
  -31.2288   -8.6921   -1.7582 H   0  0  0  0  0  0  0  0  0  0  0  0
  1  2  1  0
 19 18  2  0
 19 11  1  0
  2 11  1  0
  2  3  1  0
 18 14  1  0
 11 12  2  0
  3  4  1  0
 10  4  1  0
 10  9  2  0
  4  5  2  0
  9  8  1  0
  5  6  1  0
  5  7  1  0
  8  7  2  0
 14 15  1  0
 14 13  2  0
 12 13  1  0
 15 16  2  0
 13 17  1  0
 16 17  1  0
  1 20  1  0
  1 21  1  0
  1 22  1  0
  2 23  1  0
  3 24  1  0
  6 25  1  0
  6 26  1  0
  6 27  1  0
  8 28  1  0
  9 29  1  0
 10 30  1  0
 12 31  1  0
 15 32  1  0
 16 33  1  0
 19 34  1  0
A    1
C01
A    2
C02
A    3
N03
A    4
C04
A    5
C05
A    6
C06
A    7
N07
A    8
C08
A    9
C09
A   10
C10
A   11
C11
A   12
C12
A   13
C13
A   14
C14
A   15
C15
A   16
C16
A   17
S17
A   18
N18
A   19
C19
M  END
