5L77_GUX_A_506
     RDKit          3D

 50 51  0  0  0  0  0  0  0  0999 V2000
   43.9690   12.4960   22.1930 O   0  0  0  0  0  0  0  0  0  0  0  0
   44.0090   11.2880   22.5230 C   0  0  0  0  0  0  0  0  0  0  0  0
   44.7090   10.8850   23.4990 O   0  0  0  0  0  0  0  0  0  0  0  0
   43.1920   10.2880   21.7430 C   0  0  0  0  0  0  0  0  0  0  0  0
   41.7630   10.7440   21.6380 C   0  0  0  0  0  0  0  0  0  0  0  0
   41.4730   11.8610   20.6840 N   0  0  0  0  0  0  0  0  0  0  0  0
   41.0080   10.5020   20.3590 C   0  0  0  0  0  0  0  0  0  0  0  0
   41.6740    9.7920   19.2050 C   0  0  0  0  0  0  0  0  0  0  0  0
   40.7660    8.8550   18.5950 O   0  0  0  0  0  0  0  0  0  0  0  0
   42.9840    9.0910   19.5820 C   0  0  0  0  0  0  0  0  0  0  0  0
   43.6220    8.7680   18.3360 O   0  0  0  0  0  0  0  0  0  0  0  0
   43.8570   10.0250   20.4030 C   0  0  0  0  0  0  0  0  0  0  0  0
   45.0580    9.2880   20.6280 O   0  0  0  0  0  0  0  0  0  0  0  0
   40.3350   12.7150   21.1090 C   0  0  0  0  0  0  0  0  0  0  0  0
   40.6710   14.0440   21.7000 C   0  0  0  0  0  0  0  0  0  0  0  0
   39.5600   15.0880   21.4860 C   0  0  0  0  0  0  0  0  0  0  0  0
   38.2150   14.6260   22.0810 C   0  0  0  0  0  0  0  0  0  0  0  0
   37.1950   15.7110   22.5170 C   0  0  0  0  0  0  0  0  0  0  0  0
   37.5780   17.1930   22.4460 C   0  0  0  0  0  0  0  0  0  0  0  0
   37.0980   17.8630   21.1680 C   0  0  0  0  0  0  0  0  0  0  0  0
   36.5810   19.2570   21.4920 C   0  0  0  0  0  0  0  0  0  0  0  0
   35.1470   19.1890   21.2780 N   0  0  0  0  0  0  0  0  0  0  0  0
   34.4400   19.4890   22.1580 N   0  0  0  0  0  0  0  0  0  0  0  0
   33.7250   19.7800   23.0200 N   0  0  0  0  0  0  0  0  0  0  0  0
   44.4101   11.0571   24.4270 H   0  0  0  0  0  0  0  0  0  0  0  0
   43.1567    9.3241   22.2718 H   0  0  0  0  0  0  0  0  0  0  0  0
   41.5719   10.5326   22.7005 H   0  0  0  0  0  0  0  0  0  0  0  0
   40.0420   10.0312   20.1239 H   0  0  0  0  0  0  0  0  0  0  0  0
   41.9411   10.5772   18.4824 H   0  0  0  0  0  0  0  0  0  0  0  0
   40.2829    8.3564   19.3008 H   0  0  0  0  0  0  0  0  0  0  0  0
   42.8098    8.1913   20.1904 H   0  0  0  0  0  0  0  0  0  0  0  0
   44.4908    8.3282   18.5144 H   0  0  0  0  0  0  0  0  0  0  0  0
   44.0287   10.9884   19.9006 H   0  0  0  0  0  0  0  0  0  0  0  0
   45.2103    9.1945   21.6017 H   0  0  0  0  0  0  0  0  0  0  0  0
   39.7058   12.8942   20.2247 H   0  0  0  0  0  0  0  0  0  0  0  0
   39.8449   12.1564   21.9201 H   0  0  0  0  0  0  0  0  0  0  0  0
   40.8318   13.9179   22.7809 H   0  0  0  0  0  0  0  0  0  0  0  0
   41.5754   14.4132   21.1943 H   0  0  0  0  0  0  0  0  0  0  0  0
   39.8585   16.0294   21.9703 H   0  0  0  0  0  0  0  0  0  0  0  0
   39.4247   15.2249   20.4030 H   0  0  0  0  0  0  0  0  0  0  0  0
   37.7212   13.9997   21.3235 H   0  0  0  0  0  0  0  0  0  0  0  0
   38.4909   14.1191   23.0175 H   0  0  0  0  0  0  0  0  0  0  0  0
   36.3042   15.5823   21.8847 H   0  0  0  0  0  0  0  0  0  0  0  0
   37.0785   15.5306   23.5958 H   0  0  0  0  0  0  0  0  0  0  0  0
   38.6737   17.2761   22.4967 H   0  0  0  0  0  0  0  0  0  0  0  0
   37.0917   17.7025   23.2909 H   0  0  0  0  0  0  0  0  0  0  0  0
   36.2889   17.2659   20.7221 H   0  0  0  0  0  0  0  0  0  0  0  0
   37.9330   17.9370   20.4558 H   0  0  0  0  0  0  0  0  0  0  0  0
   36.8033   19.5178   22.5373 H   0  0  0  0  0  0  0  0  0  0  0  0
   37.0546   20.0275   20.8658 H   0  0  0  0  0  0  0  0  0  0  0  0
 11 10  1  0
  9  8  1  0
  8 10  1  0
  8  7  1  0
 10 12  1  0
  7  6  1  0
  7  5  1  0
 12 13  1  0
 12  4  1  0
  6 14  1  0
  6  5  1  0
 14 15  1  0
 20 21  1  0
 20 19  1  0
 22 21  1  0
 22 23  2  3
 16 15  1  0
 16 17  1  0
  5  4  1  0
  4  2  1  0
 17 18  1  0
 23 24  2  0
  1  2  2  0
 19 18  1  0
  2  3  1  0
  3 25  1  0
  4 26  1  0
  5 27  1  0
  7 28  1  0
  8 29  1  0
  9 30  1  0
 10 31  1  0
 11 32  1  0
 12 33  1  0
 13 34  1  0
 14 35  1  0
 14 36  1  0
 15 37  1  0
 15 38  1  0
 16 39  1  0
 16 40  1  0
 17 41  1  0
 17 42  1  0
 18 43  1  0
 18 44  1  0
 19 45  1  0
 19 46  1  0
 20 47  1  0
 20 48  1  0
 21 49  1  0
 21 50  1  0
M  CHG  2  23   1  24  -1
A    1
O7
A    2
C6
A    3
O6
A    4
C5
A    5
C
A    6
N1
A    7
C1
A    8
C2
A    9
O
A   10
C3
A   11
O3
A   12
C4
A   13
O4
A   14
C7
A   15
C8
A   16
C9
A   17
C16
A   18
C17
A   19
C18
A   20
C19
A   21
C21
A   22
N22
A   23
N25
A   24
N26
M  END
