5LAV_6SK_A_201
     RDKit          3D

 53 56  0  0  0  0  0  0  0  0999 V2000
   -2.0640   11.3040   -2.9280 C   0  0  0  0  0  0  0  0  0  0  0  0
   -1.4570   10.2190   -2.3190 C   0  0  0  0  0  0  0  0  0  0  0  0
   -2.1610    9.4780   -1.3790 C   0  0  0  0  0  0  0  0  0  0  0  0
   -3.4730    9.8110   -1.0570 C   0  0  0  0  0  0  0  0  0  0  0  0
   -4.0910   10.9050   -1.6750 C   0  0  0  0  0  0  0  0  0  0  0  0
   -3.3720   11.6320   -2.6140 C   0  0  0  0  0  0  0  0  0  0  0  0
   -5.5200   11.3550   -1.4060 C   0  0  0  0  0  0  0  0  0  0  0  0
   -7.8160   12.9030    1.0860 C   0  0  0  0  0  0  0  0  0  0  0  0
   -9.0670   13.7060    0.7010 C   0  0  0  0  0  0  0  0  0  0  0  0
  -10.1870   12.7980    0.1810 C   0  0  0  0  0  0  0  0  0  0  0  0
   -9.5800   14.4110    1.9490 C   0  0  0  0  0  0  0  0  0  0  0  0
   -8.7180   14.7830   -0.3300 C   0  0  0  0  0  0  0  0  0  0  0  0
   -5.0740   13.6120   -0.3600 C   0  0  0  0  0  0  0  0  0  0  0  0
   -4.4620   15.7930   -1.1850 C   0  0  0  0  0  0  0  0  0  0  0  0
   -3.5710   15.9750   -0.1330 C   0  0  0  0  0  0  0  0  0  0  0  0
   -4.1800   13.7870    0.6920 C   0  0  0  0  0  0  0  0  0  0  0  0
   -1.2300   12.2420   -4.1070 Cl  0  0  0  0  0  0  0  0  0  0  0  0
   -6.5190   10.1950   -1.1440 C   0  0  0  0  0  0  0  0  0  0  0  0
   -6.9820    9.5930   -2.3990 N   0  0  0  0  0  0  0  0  0  0  0  0
   -7.6820   10.9050   -0.4280 C   0  0  0  0  0  0  0  0  0  0  0  0
   -7.1920   12.2860   -0.1080 N   0  0  0  0  0  0  0  0  0  0  0  0
   -5.7000   12.2480   -0.1650 C   0  0  0  0  0  0  0  0  0  0  0  0
   -5.2160   14.6240   -1.2940 C   0  0  0  0  0  0  0  0  0  0  0  0
   -2.6160   17.4220    0.0370 Cl  0  0  0  0  0  0  0  0  0  0  0  0
   -3.4340   14.9680    0.8060 C   0  0  0  0  0  0  0  0  0  0  0  0
   -4.1900   12.6710    1.5130 N   0  0  0  0  0  0  0  0  0  0  0  0
   -5.0440   11.7230    1.0940 C   0  0  0  0  0  0  0  0  0  0  0  0
   -5.2210   10.6610    1.6490 O   0  0  0  0  0  0  0  0  0  0  0  0
   -0.4235    9.9456   -2.5781 H   0  0  0  0  0  0  0  0  0  0  0  0
   -1.6780    8.6217   -0.8855 H   0  0  0  0  0  0  0  0  0  0  0  0
   -4.0253    9.2142   -0.3162 H   0  0  0  0  0  0  0  0  0  0  0  0
   -3.8504   12.4847   -3.1180 H   0  0  0  0  0  0  0  0  0  0  0  0
   -5.7292   11.8964   -2.3404 H   0  0  0  0  0  0  0  0  0  0  0  0
   -8.1012   12.1100    1.7930 H   0  0  0  0  0  0  0  0  0  0  0  0
   -7.0887   13.5875    1.5470 H   0  0  0  0  0  0  0  0  0  0  0  0
  -10.7282   12.3592    1.0322 H   0  0  0  0  0  0  0  0  0  0  0  0
  -10.8839   13.3892   -0.4312 H   0  0  0  0  0  0  0  0  0  0  0  0
   -9.7527   11.9939   -0.4312 H   0  0  0  0  0  0  0  0  0  0  0  0
   -9.2033   13.8934    2.8435 H   0  0  0  0  0  0  0  0  0  0  0  0
   -9.2274   15.4530    1.9526 H   0  0  0  0  0  0  0  0  0  0  0  0
  -10.6799   14.3961    1.9526 H   0  0  0  0  0  0  0  0  0  0  0  0
   -8.4192   15.7052    0.1899 H   0  0  0  0  0  0  0  0  0  0  0  0
   -7.8877   14.4319   -0.9603 H   0  0  0  0  0  0  0  0  0  0  0  0
   -9.5965   14.9856   -0.9603 H   0  0  0  0  0  0  0  0  0  0  0  0
   -4.5741   16.5825   -1.9427 H   0  0  0  0  0  0  0  0  0  0  0  0
   -6.0766    9.3703   -0.5660 H   0  0  0  0  0  0  0  0  0  0  0  0
   -7.5969    8.7935   -2.1900 H   0  0  0  0  0  0  0  0  0  0  0  0
   -7.5037   10.2941   -2.9441 H   0  0  0  0  0  0  0  0  0  0  0  0
   -8.5620   10.9550   -1.0861 H   0  0  0  0  0  0  0  0  0  0  0  0
   -7.9840   10.3648    0.4814 H   0  0  0  0  0  0  0  0  0  0  0  0
   -5.9263   14.5060   -2.1256 H   0  0  0  0  0  0  0  0  0  0  0  0
   -2.7358   15.0950    1.6465 H   0  0  0  0  0  0  0  0  0  0  0  0
   -3.6046   12.5783    2.3553 H   0  0  0  0  0  0  0  0  0  0  0  0
 17  1  1  0
  1  6  2  0
  1  2  1  0
  6  5  1  0
 19 18  1  0
  2  3  2  0
  5  7  1  0
  5  4  2  0
  7 18  1  0
  7 22  1  0
  3  4  1  0
 23 14  2  0
 23 13  1  0
 14 15  1  0
 18 20  1  0
 20 21  1  0
 13 22  1  0
 13 16  2  0
 12  9  1  0
 22 21  1  0
 22 27  1  0
 15 24  1  0
 15 25  2  0
 21  8  1  0
 10  9  1  0
 16 25  1  0
 16 26  1  0
  9  8  1  0
  9 11  1  0
 27 26  1  0
 27 28  2  0
  2 29  1  0
  3 30  1  0
  4 31  1  0
  6 32  1  0
  7 33  1  0
  8 34  1  0
  8 35  1  0
 10 36  1  0
 10 37  1  0
 10 38  1  0
 11 39  1  0
 11 40  1  0
 11 41  1  0
 12 42  1  0
 12 43  1  0
 12 44  1  0
 14 45  1  0
 18 46  1  0
 19 47  1  0
 19 48  1  0
 20 49  1  0
 20 50  1  0
 23 51  1  0
 25 52  1  0
 26 53  1  0
A    1
C2
A    2
C3
A    3
C4
A    4
C5
A    5
C6
A    6
C7
A    7
C8
A    8
C15
A    9
C16
A   10
C17
A   11
C18
A   12
C19
A   13
C21
A   14
C23
A   15
C24
A   16
C27
A   17
CL1
A   18
C10
A   19
N12
A   20
C13
A   21
N14
A   22
C20
A   23
C22
A   24
CL2
A   25
C26
A   26
N28
A   27
C29
A   28
O30
M  END
