5LAY_6SS_A_205
     RDKit          3D

 61 65  0  0  0  0  0  0  0  0999 V2000
   -0.2630  -26.5000    8.2940 C   0  0  0  0  0  0  0  0  0  0  0  0
   -0.7600  -27.7520    8.6140 C   0  0  0  0  0  0  0  0  0  0  0  0
   -0.1840  -28.4620    9.6530 C   0  0  0  0  0  0  0  0  0  0  0  0
    0.8840  -27.9200   10.3700 C   0  0  0  0  0  0  0  0  0  0  0  0
    1.3970  -26.6550   10.0570 C   0  0  0  0  0  0  0  0  0  0  0  0
    2.5670  -26.0100   10.8000 C   0  0  0  0  0  0  0  0  0  0  0  0
    4.1800  -25.8650   12.5830 C   0  0  0  0  0  0  0  0  0  0  0  0
    6.2690  -26.3150   11.2320 C   0  0  0  0  0  0  0  0  0  0  0  0
    7.1580  -25.2550   11.8290 C   0  0  0  0  0  0  0  0  0  0  0  0
    7.2540  -24.0260   11.1940 C   0  0  0  0  0  0  0  0  0  0  0  0
    8.0630  -23.0340   11.7190 C   0  0  0  0  0  0  0  0  0  0  0  0
    8.6950  -24.5040   13.5340 C   0  0  0  0  0  0  0  0  0  0  0  0
   10.7030  -24.3120   14.9290 C   0  0  0  0  0  0  0  0  0  0  0  0
   11.2250  -24.8350   16.2720 C   0  0  0  0  0  0  0  0  0  0  0  0
    4.2020  -25.8030    8.8990 C   0  0  0  0  0  0  0  0  0  0  0  0
    4.7340  -25.3150    6.2260 C   0  0  0  0  0  0  0  0  0  0  0  0
    4.6970  -26.6140    6.6860 C   0  0  0  0  0  0  0  0  0  0  0  0
    4.4270  -26.8700    8.0310 C   0  0  0  0  0  0  0  0  0  0  0  0
    4.0920  -27.9000   10.0300 C   0  0  0  0  0  0  0  0  0  0  0  0
    0.8040  -25.9510    9.0010 C   0  0  0  0  0  0  0  0  0  0  0  0
   -0.9590  -25.5910    6.9960 Cl  0  0  0  0  0  0  0  0  0  0  0  0
    2.7300  -26.3460   12.3070 C   0  0  0  0  0  0  0  0  0  0  0  0
    1.7440  -25.6390   13.1390 N   0  0  0  0  0  0  0  0  0  0  0  0
    4.1900  -24.4570   13.1910 C   0  0  0  0  0  0  0  0  0  0  0  0
    4.8710  -25.8370   11.2520 N   0  0  0  0  0  0  0  0  0  0  0  0
    8.7790  -23.2640   12.8860 C   0  0  0  0  0  0  0  0  0  0  0  0
    9.3690  -24.7740   14.6970 O   0  0  0  0  0  0  0  0  0  0  0  0
    7.8710  -25.4930   12.9940 C   0  0  0  0  0  0  0  0  0  0  0  0
    3.9470  -26.4150   10.2450 C   0  0  0  0  0  0  0  0  0  0  0  0
    4.2450  -24.5020    8.4310 C   0  0  0  0  0  0  0  0  0  0  0  0
    4.5060  -24.2580    7.0920 C   0  0  0  0  0  0  0  0  0  0  0  0
    5.0670  -25.0060    4.5590 Cl  0  0  0  0  0  0  0  0  0  0  0  0
    4.3520  -28.0730    8.7240 N   0  0  0  0  0  0  0  0  0  0  0  0
    3.9760  -28.7830   10.8500 O   0  0  0  0  0  0  0  0  0  0  0  0
    1.2420  -24.7220    8.6360 F   0  0  0  0  0  0  0  0  0  0  0  0
   -1.6026  -28.1773    8.0492 H   0  0  0  0  0  0  0  0  0  0  0  0
   -0.5697  -29.4583    9.9151 H   0  0  0  0  0  0  0  0  0  0  0  0
    1.3300  -28.4959   11.1943 H   0  0  0  0  0  0  0  0  0  0  0  0
    2.2920  -24.9550   10.6541 H   0  0  0  0  0  0  0  0  0  0  0  0
    4.6792  -26.5354   13.2981 H   0  0  0  0  0  0  0  0  0  0  0  0
    6.3510  -27.2401   11.8215 H   0  0  0  0  0  0  0  0  0  0  0  0
    6.5775  -26.5188   10.1960 H   0  0  0  0  0  0  0  0  0  0  0  0
    6.6857  -23.8394   10.2708 H   0  0  0  0  0  0  0  0  0  0  0  0
    8.1390  -22.0614   11.2109 H   0  0  0  0  0  0  0  0  0  0  0  0
   11.3568  -24.6724   14.1211 H   0  0  0  0  0  0  0  0  0  0  0  0
   10.7003  -23.2122   14.9517 H   0  0  0  0  0  0  0  0  0  0  0  0
   10.7080  -24.3170   17.0932 H   0  0  0  0  0  0  0  0  0  0  0  0
   11.0351  -25.9161   16.3433 H   0  0  0  0  0  0  0  0  0  0  0  0
   12.3065  -24.6472   16.3433 H   0  0  0  0  0  0  0  0  0  0  0  0
    4.8802  -27.4485    5.9931 H   0  0  0  0  0  0  0  0  0  0  0  0
    2.5627  -27.4065   12.5464 H   0  0  0  0  0  0  0  0  0  0  0  0
    1.9602  -25.7940   14.1340 H   0  0  0  0  0  0  0  0  0  0  0  0
    1.7808  -24.6305   12.9327 H   0  0  0  0  0  0  0  0  0  0  0  0
    4.1895  -24.5315   14.2885 H   0  0  0  0  0  0  0  0  0  0  0  0
    5.0920  -23.9212   12.8603 H   0  0  0  0  0  0  0  0  0  0  0  0
    3.2957  -23.9084   12.8603 H   0  0  0  0  0  0  0  0  0  0  0  0
    9.4149  -22.4697   13.3039 H   0  0  0  0  0  0  0  0  0  0  0  0
    7.7868  -26.4680   13.4963 H   0  0  0  0  0  0  0  0  0  0  0  0
    4.0723  -23.6625    9.1205 H   0  0  0  0  0  0  0  0  0  0  0  0
    4.5321  -23.2244    6.7166 H   0  0  0  0  0  0  0  0  0  0  0  0
    4.4816  -28.9953    8.2841 H   0  0  0  0  0  0  0  0  0  0  0  0
 32 16  1  0
 16 17  2  0
 16 31  1  0
 17 18  1  0
 21  1  1  0
 31 30  2  0
 18 33  1  0
 18 15  2  0
  1  2  2  0
  1 20  1  0
 30 15  1  0
  2  3  1  0
 35 20  1  0
 33 19  1  0
 15 29  1  0
 20  5  2  0
  3  4  2  0
 19 29  1  0
 19 34  2  0
  5  4  1  0
  5  6  1  0
 29  6  1  0
 29 25  1  0
  6 22  1  0
 10 11  2  0
 10  9  1  0
  8 25  1  0
  8  9  1  0
 25  7  1  0
 11 26  1  0
  9 28  2  0
 22  7  1  0
 22 23  1  0
  7 24  1  0
 26 12  2  0
 28 12  1  0
 12 27  1  0
 27 13  1  0
 13 14  1  0
  2 36  1  0
  3 37  1  0
  4 38  1  0
  6 39  1  0
  7 40  1  0
  8 41  1  0
  8 42  1  0
 10 43  1  0
 11 44  1  0
 13 45  1  0
 13 46  1  0
 14 47  1  0
 14 48  1  0
 14 49  1  0
 17 50  1  0
 22 51  1  0
 23 52  1  0
 23 53  1  0
 24 54  1  0
 24 55  1  0
 24 56  1  0
 26 57  1  0
 28 58  1  0
 30 59  1  0
 31 60  1  0
 33 61  1  0
A    1
C2
A    2
C3
A    3
C4
A    4
C5
A    5
C6
A    6
C7
A    7
C12
A    8
C16
A    9
C17
A   10
C18
A   11
C19
A   12
C21
A   13
C23
A   14
C24
A   15
C27
A   16
C30
A   17
C32
A   18
C33
A   19
C35
A   20
C37
A   21
CL1
A   22
C9
A   23
N11
A   24
C14
A   25
N15
A   26
C20
A   27
O22
A   28
C25
A   29
C26
A   30
C28
A   31
C29
A   32
CL2
A   33
N34
A   34
O36
A   35
F38
M  END
