5LBA_6SV_B_505
     RDKit          3D

 38 39  0  0  0  0  0  0  0  0999 V2000
   16.4060  -70.3770    6.6830 C   0  0  0  0  0  0  0  0  0  0  0  0
   17.5170  -69.7700    7.5210 C   0  0  0  0  0  0  0  0  0  0  0  0
   17.1270  -68.4090    8.1020 C   0  0  0  0  0  0  0  0  0  0  0  0
   16.7210  -67.3810    7.0550 C   0  0  0  0  0  0  0  0  0  0  0  0
   16.2590  -68.0430    5.7760 C   0  0  0  0  0  0  0  0  0  0  0  0
   15.4860  -69.2930    6.1600 C   0  0  0  0  0  0  0  0  0  0  0  0
   17.8060  -66.4320    6.7900 N   0  0  0  0  0  0  0  0  0  0  0  0
   17.7300  -65.3670    5.9410 C   0  0  0  0  0  0  0  0  0  0  0  0
   16.9420  -65.3530    4.9930 O   0  0  0  0  0  0  0  0  0  0  0  0
   18.5310  -64.2920    6.1200 N   0  0  0  0  0  0  0  0  0  0  0  0
   19.9850  -64.4130    6.1410 C   0  0  0  0  0  0  0  0  0  0  0  0
   20.6420  -63.5560    7.2190 C   0  0  0  0  0  0  0  0  0  0  0  0
   20.7370  -64.2010    8.5960 C   0  0  0  0  0  0  0  0  0  0  0  0
   21.9640  -63.5770    9.2220 C   0  0  0  0  0  0  0  0  0  0  0  0
   22.8070  -63.0690    8.0970 C   0  0  0  0  0  0  0  0  0  0  0  0
   22.0020  -63.2260    6.9310 O   0  0  0  0  0  0  0  0  0  0  0  0
   15.8259  -71.0769    7.3025 H   0  0  0  0  0  0  0  0  0  0  0  0
   16.8526  -70.9082    5.8295 H   0  0  0  0  0  0  0  0  0  0  0  0
   17.7500  -70.4550    8.3496 H   0  0  0  0  0  0  0  0  0  0  0  0
   18.3889  -69.6201    6.8673 H   0  0  0  0  0  0  0  0  0  0  0  0
   17.9875  -68.0122    8.6606 H   0  0  0  0  0  0  0  0  0  0  0  0
   16.2473  -68.5764    8.7408 H   0  0  0  0  0  0  0  0  0  0  0  0
   15.8706  -66.8168    7.4656 H   0  0  0  0  0  0  0  0  0  0  0  0
   17.1281  -68.3141    5.1587 H   0  0  0  0  0  0  0  0  0  0  0  0
   15.6237  -67.3590    5.1942 H   0  0  0  0  0  0  0  0  0  0  0  0
   14.7563  -69.0357    6.9419 H   0  0  0  0  0  0  0  0  0  0  0  0
   14.9794  -69.6747    5.2613 H   0  0  0  0  0  0  0  0  0  0  0  0
   18.6972  -66.5812    7.2844 H   0  0  0  0  0  0  0  0  0  0  0  0
   18.1033  -63.3633    6.2448 H   0  0  0  0  0  0  0  0  0  0  0  0
   20.2460  -65.4659    6.3236 H   0  0  0  0  0  0  0  0  0  0  0  0
   20.3574  -64.0587    5.1685 H   0  0  0  0  0  0  0  0  0  0  0  0
   19.9687  -62.6861    7.2239 H   0  0  0  0  0  0  0  0  0  0  0  0
   19.8401  -63.9782    9.1925 H   0  0  0  0  0  0  0  0  0  0  0  0
   20.8071  -65.2974    8.5406 H   0  0  0  0  0  0  0  0  0  0  0  0
   22.5185  -64.3296    9.8018 H   0  0  0  0  0  0  0  0  0  0  0  0
   21.6882  -62.7636    9.9092 H   0  0  0  0  0  0  0  0  0  0  0  0
   23.7317  -63.6584    8.0104 H   0  0  0  0  0  0  0  0  0  0  0  0
   23.1125  -62.0234    8.2498 H   0  0  0  0  0  0  0  0  0  0  0  0
  9  8  2  0
  5  6  1  0
  5  4  1  0
  8 10  1  0
  8  7  1  0
 10 11  1  0
 11 12  1  0
  6  1  1  0
  1  2  1  0
  7  4  1  0
 16 12  1  0
 16 15  1  0
  4  3  1  0
 12 13  1  0
  2  3  1  0
 15 14  1  0
 13 14  1  0
  1 17  1  0
  1 18  1  0
  2 19  1  0
  2 20  1  0
  3 21  1  0
  3 22  1  0
  4 23  1  0
  5 24  1  0
  5 25  1  0
  6 26  1  0
  6 27  1  0
  7 28  1  0
 10 29  1  0
 11 30  1  0
 11 31  1  0
 12 32  1  0
 13 33  1  0
 13 34  1  0
 14 35  1  0
 14 36  1  0
 15 37  1  0
 15 38  1  0
A    1
C1
A    2
C2
A    3
C3
A    4
C4
A    5
C5
A    6
C6
A    7
N1
A    8
C7
A    9
O1
A   10
N2
A   11
C8
A   12
C9
A   13
C10
A   14
C11
A   15
C12
A   16
O2
M  END
