2HBT_UN9_A_1
     RDKit          3D

 28 29  0  0  0  0  0  0  0  0999 V2000
  -36.9190  -17.0380    3.2870 O   0  0  0  0  0  0  0  0  0  0  0  0
  -36.3000  -17.6960    4.1450 C   0  0  0  0  0  0  0  0  0  0  0  0
  -35.1260  -17.5430    4.5020 O   0  0  0  0  0  0  0  0  0  0  0  0
  -37.0390  -18.7900    4.8810 C   0  0  0  0  0  0  0  0  0  0  0  0
  -38.4060  -18.8030    4.5220 N   0  0  0  0  0  0  0  0  0  0  0  0
  -39.2440  -19.8240    4.9170 C   0  0  0  0  0  0  0  0  0  0  0  0
  -38.9280  -20.6140    5.7970 O   0  0  0  0  0  0  0  0  0  0  0  0
  -40.6110  -19.9510    4.3540 C   0  0  0  0  0  0  0  0  0  0  0  0
  -41.2440  -21.1380    4.5400 N   0  0  0  0  0  0  0  0  0  0  0  0
  -42.4760  -21.3690    4.1160 C   0  0  0  0  0  0  0  0  0  0  0  0
  -43.0520  -22.9020    4.4600 Cl  0  0  0  0  0  0  0  0  0  0  0  0
  -43.1630  -20.3850    3.4200 C   0  0  0  0  0  0  0  0  0  0  0  0
  -41.2490  -18.9030    3.6760 C   0  0  0  0  0  0  0  0  0  0  0  0
  -40.6320  -17.7280    3.4210 O   0  0  0  0  0  0  0  0  0  0  0  0
  -42.5390  -19.1490    3.1740 C   0  0  0  0  0  0  0  0  0  0  0  0
  -43.2560  -18.1280    2.5360 C   0  0  0  0  0  0  0  0  0  0  0  0
  -44.5410  -18.2980    2.0590 C   0  0  0  0  0  0  0  0  0  0  0  0
  -45.1740  -19.5410    2.2490 C   0  0  0  0  0  0  0  0  0  0  0  0
  -44.5180  -20.5570    2.9580 C   0  0  0  0  0  0  0  0  0  0  0  0
  -34.9015  -17.5137    5.4658 H   0  0  0  0  0  0  0  0  0  0  0  0
  -36.5904  -19.7618    4.6271 H   0  0  0  0  0  0  0  0  0  0  0  0
  -36.9606  -18.6022    5.9620 H   0  0  0  0  0  0  0  0  0  0  0  0
  -38.7845  -18.0326    3.9527 H   0  0  0  0  0  0  0  0  0  0  0  0
  -40.3308  -17.1544    4.1696 H   0  0  0  0  0  0  0  0  0  0  0  0
  -42.7739  -17.1474    2.4094 H   0  0  0  0  0  0  0  0  0  0  0  0
  -45.0597  -17.4781    1.5407 H   0  0  0  0  0  0  0  0  0  0  0  0
  -46.1811  -19.7146    1.8420 H   0  0  0  0  0  0  0  0  0  0  0  0
  -45.0451  -21.5000    3.1651 H   0  0  0  0  0  0  0  0  0  0  0  0
  1  2  2  0
  2  3  1  0
  2  4  1  0
  4  5  1  0
  5  6  1  0
  6  7  2  0
  6  8  1  0
  8  9  2  0
  8 13  1  0
  9 10  1  0
 10 11  1  0
 10 12  2  0
 12 15  1  0
 12 19  1  0
 13 14  1  0
 13 15  2  0
 15 16  1  0
 16 17  2  0
 17 18  1  0
 18 19  2  0
  3 20  1  0
  4 21  1  0
  4 22  1  0
  5 23  1  0
 14 24  1  0
 16 25  1  0
 17 26  1  0
 18 27  1  0
 19 28  1  0
A    1
O18
A    2
C16
A    3
O17
A    4
C15
A    5
N14
A    6
C12
A    7
O13
A    8
C9
A    9
N8
A   10
C7
A   11
CL1
A   12
C2
A   13
C10
A   14
O19
A   15
C3
A   16
C4
A   17
C5
A   18
C6
A   19
C1
M  END
