5LDG_IT9_A_401
     RDKit          3D

 25 25  0  0  0  0  0  0  0  0999 V2000
  -11.5240  -15.1750    9.2990 C   0  0  0  0  0  0  0  0  0  0  0  0
  -12.6780  -16.0340    8.7370 C   0  0  0  0  0  0  0  0  0  0  0  0
  -12.2210  -16.7640    7.4810 C   0  0  0  0  0  0  0  0  0  0  0  0
  -11.3000  -13.9760    8.3990 C   0  0  0  0  0  0  0  0  0  0  0  0
  -12.0970  -12.9030    8.4980 C   0  0  0  0  0  0  0  0  0  0  0  0
  -10.1520  -14.0040    7.4560 C   0  0  0  0  0  0  0  0  0  0  0  0
  -10.6240  -18.5820    6.6640 C   0  0  0  0  0  0  0  0  0  0  0  0
   -9.3210  -15.6210   10.1590 O   0  0  0  0  0  0  0  0  0  0  0  0
  -10.9350  -17.5060    7.6630 C   0  0  0  0  0  0  0  0  0  0  0  0
  -10.0760  -17.1700    8.6200 C   0  0  0  0  0  0  0  0  0  0  0  0
  -10.2480  -16.0160    9.4690 C   0  0  0  0  0  0  0  0  0  0  0  0
  -11.7961  -14.8065   10.2991 H   0  0  0  0  0  0  0  0  0  0  0  0
  -13.5297  -15.3831    8.4903 H   0  0  0  0  0  0  0  0  0  0  0  0
  -12.9796  -16.7728    9.4941 H   0  0  0  0  0  0  0  0  0  0  0  0
  -12.0872  -16.0253    6.6770 H   0  0  0  0  0  0  0  0  0  0  0  0
  -12.9942  -17.5072    7.2364 H   0  0  0  0  0  0  0  0  0  0  0  0
  -12.9404  -12.9076    9.2041 H   0  0  0  0  0  0  0  0  0  0  0  0
  -11.9077  -12.0177    7.8731 H   0  0  0  0  0  0  0  0  0  0  0  0
   -9.2108  -14.0270    8.0248 H   0  0  0  0  0  0  0  0  0  0  0  0
  -10.2196  -14.9008    6.8226 H   0  0  0  0  0  0  0  0  0  0  0  0
  -10.1758  -13.1050    6.8226 H   0  0  0  0  0  0  0  0  0  0  0  0
  -10.3563  -19.5080    7.1939 H   0  0  0  0  0  0  0  0  0  0  0  0
  -11.5067  -18.7627    6.0330 H   0  0  0  0  0  0  0  0  0  0  0  0
   -9.7810  -18.2639    6.0330 H   0  0  0  0  0  0  0  0  0  0  0  0
   -9.1896  -17.8033    8.7724 H   0  0  0  0  0  0  0  0  0  0  0  0
  7  9  1  0
  6  4  1  0
  3  9  1  0
  3  2  1  0
  9 10  2  0
  4  5  2  3
  4  1  1  0
 10 11  1  0
  2  1  1  0
  1 11  1  0
 11  8  2  0
  1 12  1  0
  2 13  1  0
  2 14  1  0
  3 15  1  0
  3 16  1  0
  5 17  1  0
  5 18  1  0
  6 19  1  0
  6 20  1  0
  6 21  1  0
  7 22  1  0
  7 23  1  0
  7 24  1  0
 10 25  1  0
A    1
C4
A    2
C5
A    3
C6
A    4
C7
A    5
C8
A    6
C9
A    7
C
A    8
O
A    9
C1
A   10
C2
A   11
C3
M  END
