5LGE_6VN_B_502
     RDKit          3D

 64 67  0  0  0  0  0  0  0  0999 V2000
  -28.0570 -102.4460   25.2430 C   0  0  0  0  0  0  0  0  0  0  0  0
  -28.9280 -102.8030   27.4640 C   0  0  0  0  0  0  0  0  0  0  0  0
  -26.7680 -102.6670   25.7270 C   0  0  0  0  0  0  0  0  0  0  0  0
  -27.6360 -103.0260   27.9440 C   0  0  0  0  0  0  0  0  0  0  0  0
  -31.6840  -98.1490   21.4870 C   0  0  0  0  0  0  0  0  0  0  0  0
  -32.0590  -99.3540   20.8910 C   0  0  0  0  0  0  0  0  0  0  0  0
  -30.9730  -98.1850   22.6870 C   0  0  0  0  0  0  0  0  0  0  0  0
  -31.7320 -100.5660   21.4820 C   0  0  0  0  0  0  0  0  0  0  0  0
  -30.6370  -99.4040   23.2790 C   0  0  0  0  0  0  0  0  0  0  0  0
  -31.0170 -100.5970   22.6750 C   0  0  0  0  0  0  0  0  0  0  0  0
  -32.0500  -96.8030   20.8270 C   0  0  0  0  0  0  0  0  0  0  0  0
  -26.7060 -103.0200   22.6150 C   0  0  0  0  0  0  0  0  0  0  0  0
  -26.1500 -103.0330   21.2010 C   0  0  0  0  0  0  0  0  0  0  0  0
  -27.8300 -101.9790   22.7690 C   0  0  0  0  0  0  0  0  0  0  0  0
  -25.6780 -101.6010   20.8410 C   0  0  0  0  0  0  0  0  0  0  0  0
  -27.2230 -100.5790   22.5870 C   0  0  0  0  0  0  0  0  0  0  0  0
  -26.7210 -100.4980   21.1290 C   0  0  0  0  0  0  0  0  0  0  0  0
  -26.1510  -99.1180   20.7850 C   0  0  0  0  0  0  0  0  0  0  0  0
  -33.3300  -96.2560   21.4570 C   0  0  0  0  0  0  0  0  0  0  0  0
  -30.9000  -95.7860   20.9170 C   0  0  0  0  0  0  0  0  0  0  0  0
  -24.9520 -103.9750   21.1780 C   0  0  0  0  0  0  0  0  0  0  0  0
  -27.2270 -103.5570   20.2450 C   0  0  0  0  0  0  0  0  0  0  0  0
  -28.5650 -102.1510   24.0470 N   0  0  0  0  0  0  0  0  0  0  0  0
  -26.5510 -102.9700   27.0650 C   0  0  0  0  0  0  0  0  0  0  0  0
  -27.4300 -103.3360   29.4360 C   0  0  0  0  0  0  0  0  0  0  0  0
  -28.4330 -103.2890   30.1850 O   0  0  0  0  0  0  0  0  0  0  0  0
  -26.2730 -103.6060   29.8340 O   0  0  0  0  0  0  0  0  0  0  0  0
  -29.1390 -102.5150   26.1190 C   0  0  0  0  0  0  0  0  0  0  0  0
  -30.2460 -102.2650   25.4280 N   0  0  0  0  0  0  0  0  0  0  0  0
  -29.8820 -102.0290   24.1740 C   0  0  0  0  0  0  0  0  0  0  0  0
  -30.7370 -101.7830   23.1810 N   0  0  0  0  0  0  0  0  0  0  0  0
  -29.7840 -102.8553   28.1529 H   0  0  0  0  0  0  0  0  0  0  0  0
  -25.9116 -102.6005   25.0399 H   0  0  0  0  0  0  0  0  0  0  0  0
  -32.6188  -99.3428   19.9442 H   0  0  0  0  0  0  0  0  0  0  0  0
  -30.6742  -97.2437   23.1714 H   0  0  0  0  0  0  0  0  0  0  0  0
  -32.0399 -101.5079   21.0045 H   0  0  0  0  0  0  0  0  0  0  0  0
  -30.0720  -99.4204   24.2227 H   0  0  0  0  0  0  0  0  0  0  0  0
  -32.2256  -96.9784   19.7554 H   0  0  0  0  0  0  0  0  0  0  0  0
  -27.1071 -104.0168   22.8507 H   0  0  0  0  0  0  0  0  0  0  0  0
  -25.8912 -102.7532   23.3041 H   0  0  0  0  0  0  0  0  0  0  0  0
  -28.5933 -102.1233   21.9902 H   0  0  0  0  0  0  0  0  0  0  0  0
  -25.4379 -101.5767   19.7678 H   0  0  0  0  0  0  0  0  0  0  0  0
  -24.8074 -101.3862   21.4780 H   0  0  0  0  0  0  0  0  0  0  0  0
  -26.3849 -100.4357   23.2848 H   0  0  0  0  0  0  0  0  0  0  0  0
  -27.9673  -99.7957   22.7928 H   0  0  0  0  0  0  0  0  0  0  0  0
  -27.5960 -100.6608   20.4826 H   0  0  0  0  0  0  0  0  0  0  0  0
  -25.9257  -98.5726   21.7133 H   0  0  0  0  0  0  0  0  0  0  0  0
  -25.2289  -99.2382   20.1974 H   0  0  0  0  0  0  0  0  0  0  0  0
  -26.8892  -98.5525   20.1974 H   0  0  0  0  0  0  0  0  0  0  0  0
  -33.2439  -96.2928   22.5530 H   0  0  0  0  0  0  0  0  0  0  0  0
  -33.4808  -95.2148   21.1358 H   0  0  0  0  0  0  0  0  0  0  0  0
  -34.1867  -96.8666   21.1358 H   0  0  0  0  0  0  0  0  0  0  0  0
  -30.6713  -95.5837   21.9738 H   0  0  0  0  0  0  0  0  0  0  0  0
  -30.0081  -96.1962   20.4208 H   0  0  0  0  0  0  0  0  0  0  0  0
  -31.1981  -94.8506   20.4208 H   0  0  0  0  0  0  0  0  0  0  0  0
  -24.6515 -104.2113   22.2094 H   0  0  0  0  0  0  0  0  0  0  0  0
  -25.2251 -104.9028   20.6540 H   0  0  0  0  0  0  0  0  0  0  0  0
  -24.1148 -103.4908   20.6540 H   0  0  0  0  0  0  0  0  0  0  0  0
  -28.0665 -103.9654   20.8268 H   0  0  0  0  0  0  0  0  0  0  0  0
  -27.5867 -102.7332   19.6110 H   0  0  0  0  0  0  0  0  0  0  0  0
  -26.8009 -104.3485   19.6110 H   0  0  0  0  0  0  0  0  0  0  0  0
  -25.5319 -103.1646   27.4304 H   0  0  0  0  0  0  0  0  0  0  0  0
  -28.3173 -103.2944   31.1682 H   0  0  0  0  0  0  0  0  0  0  0  0
  -31.2236 -102.5931   22.7713 H   0  0  0  0  0  0  0  0  0  0  0  0
 22 13  1  0
 18 17  1  0
 11 20  1  0
 11 19  1  0
 11  5  1  0
 15 17  1  0
 15 13  1  0
  6  8  1  0
  6  5  2  0
 17 16  1  0
 21 13  1  0
 13 12  1  0
  8 10  2  0
  5  7  1  0
 16 14  1  0
 12 14  1  0
 10 31  1  0
 10  9  1  0
  7  9  2  0
 14 23  1  0
 31 30  1  0
 23 30  1  0
 23  1  1  0
 30 29  2  0
  1  3  2  0
  1 28  1  0
 29 28  1  0
  3 24  1  0
 28  2  2  0
 24  4  2  0
  2  4  1  0
  4 25  1  0
 25 27  2  0
 25 26  1  0
  2 32  1  0
  3 33  1  0
  6 34  1  0
  7 35  1  0
  8 36  1  0
  9 37  1  0
 11 38  1  0
 12 39  1  0
 12 40  1  0
 14 41  1  0
 15 42  1  0
 15 43  1  0
 16 44  1  0
 16 45  1  0
 17 46  1  0
 18 47  1  0
 18 48  1  0
 18 49  1  0
 19 50  1  0
 19 51  1  0
 19 52  1  0
 20 53  1  0
 20 54  1  0
 20 55  1  0
 21 56  1  0
 21 57  1  0
 21 58  1  0
 22 59  1  0
 22 60  1  0
 22 61  1  0
 24 62  1  0
 26 63  1  0
 31 64  1  0
A    1
C1
A    2
C2
A    3
C3
A    4
C4
A    5
C8
A    6
C9
A    7
C10
A    8
C11
A    9
C12
A   10
C13
A   11
C14
A   12
C15
A   13
C16
A   14
C17
A   15
C18
A   16
C19
A   17
C20
A   18
C21
A   19
C24
A   20
C25
A   21
C23
A   22
C22
A   23
N1
A   24
C5
A   25
C7
A   26
O1
A   27
O
A   28
C
A   29
N
A   30
C6
A   31
N2
M  END
