5LGT_6W3_A_902
     RDKit          3D

 63 67  0  0  0  0  0  0  0  0999 V2000
  -66.2450  -33.6330  -36.9640 C   0  0  0  0  0  0  0  0  0  0  0  0
  -70.7670  -39.1150  -40.5060 C   0  0  0  0  0  0  0  0  0  0  0  0
  -70.8400  -37.7300  -40.4810 C   0  0  0  0  0  0  0  0  0  0  0  0
  -70.1660  -37.0110  -39.4890 C   0  0  0  0  0  0  0  0  0  0  0  0
  -65.8770  -38.0260  -36.5120 C   0  0  0  0  0  0  0  0  0  0  0  0
  -65.9390  -39.7650  -34.3550 C   0  0  0  0  0  0  0  0  0  0  0  0
  -65.9230  -33.8270  -33.8340 C   0  0  0  0  0  0  0  0  0  0  0  0
  -68.2620  -35.9550  -35.0670 C   0  0  0  0  0  0  0  0  0  0  0  0
  -62.5760  -37.4160  -33.4400 C   0  0  0  0  0  0  0  0  0  0  0  0
  -63.8210  -37.1060  -31.2730 C   0  0  0  0  0  0  0  0  0  0  0  0
  -61.7610  -36.2460  -32.9990 C   0  0  0  0  0  0  0  0  0  0  0  0
  -61.5480  -36.4810  -31.5500 N   0  0  0  0  0  0  0  0  0  0  0  0
  -60.3980  -35.7080  -31.0440 C   0  0  0  0  0  0  0  0  0  0  0  0
  -62.7640  -36.1100  -30.8270 C   0  0  0  0  0  0  0  0  0  0  0  0
  -63.9330  -37.1830  -32.7850 C   0  0  0  0  0  0  0  0  0  0  0  0
  -64.7340  -38.3100  -33.0240 O   0  0  0  0  0  0  0  0  0  0  0  0
  -65.2920  -38.5460  -34.2390 C   0  0  0  0  0  0  0  0  0  0  0  0
  -66.5570  -40.1190  -35.5380 C   0  0  0  0  0  0  0  0  0  0  0  0
  -65.2570  -37.6680  -35.3230 C   0  0  0  0  0  0  0  0  0  0  0  0
  -66.5320  -39.2510  -36.6240 C   0  0  0  0  0  0  0  0  0  0  0  0
  -67.1750  -39.5940  -37.7850 O   0  0  0  0  0  0  0  0  0  0  0  0
  -68.6180  -39.8210  -37.5910 C   0  0  0  0  0  0  0  0  0  0  0  0
  -69.3560  -39.0830  -38.5320 C   0  0  0  0  0  0  0  0  0  0  0  0
  -70.0330  -39.7860  -39.5330 C   0  0  0  0  0  0  0  0  0  0  0  0
  -69.4020  -37.6710  -38.5180 C   0  0  0  0  0  0  0  0  0  0  0  0
  -68.7540  -37.0630  -37.4950 N   0  0  0  0  0  0  0  0  0  0  0  0
  -68.4420  -35.7340  -37.4090 C   0  0  0  0  0  0  0  0  0  0  0  0
  -68.6370  -34.8410  -38.2440 O   0  0  0  0  0  0  0  0  0  0  0  0
  -67.9030  -35.4170  -36.2320 C   0  0  0  0  0  0  0  0  0  0  0  0
  -67.5240  -35.3740  -34.1320 C   0  0  0  0  0  0  0  0  0  0  0  0
  -67.2480  -35.3500  -32.5660 S   0  0  0  0  0  0  0  0  0  0  0  0
  -66.1000  -34.2220  -32.5770 C   0  0  0  0  0  0  0  0  0  0  0  0
  -66.7160  -34.4700  -34.7120 C   0  0  0  0  0  0  0  0  0  0  0  0
  -66.9680  -34.5030  -36.0230 N   0  0  0  0  0  0  0  0  0  0  0  0
  -65.6409  -32.9061  -36.4012 H   0  0  0  0  0  0  0  0  0  0  0  0
  -65.5860  -34.2453  -37.5971 H   0  0  0  0  0  0  0  0  0  0  0  0
  -66.9675  -33.0972  -37.5971 H   0  0  0  0  0  0  0  0  0  0  0  0
  -71.2877  -39.6809  -41.2925 H   0  0  0  0  0  0  0  0  0  0  0  0
  -71.4286  -37.1969  -41.2422 H   0  0  0  0  0  0  0  0  0  0  0  0
  -70.2366  -35.9134  -39.4709 H   0  0  0  0  0  0  0  0  0  0  0  0
  -65.8512  -37.3390  -37.3707 H   0  0  0  0  0  0  0  0  0  0  0  0
  -65.9607  -40.4557  -33.4992 H   0  0  0  0  0  0  0  0  0  0  0  0
  -65.2002  -33.0516  -34.1278 H   0  0  0  0  0  0  0  0  0  0  0  0
  -69.0246  -36.7323  -34.9112 H   0  0  0  0  0  0  0  0  0  0  0  0
  -62.6687  -37.4381  -34.5359 H   0  0  0  0  0  0  0  0  0  0  0  0
  -62.1264  -38.3787  -33.1552 H   0  0  0  0  0  0  0  0  0  0  0  0
  -63.5561  -38.1010  -30.8861 H   0  0  0  0  0  0  0  0  0  0  0  0
  -64.7910  -36.7690  -30.8787 H   0  0  0  0  0  0  0  0  0  0  0  0
  -60.8009  -36.2143  -33.5350 H   0  0  0  0  0  0  0  0  0  0  0  0
  -62.2558  -35.2850  -33.2032 H   0  0  0  0  0  0  0  0  0  0  0  0
  -60.4074  -35.7143  -29.9441 H   0  0  0  0  0  0  0  0  0  0  0  0
  -59.4635  -36.1620  -31.4053 H   0  0  0  0  0  0  0  0  0  0  0  0
  -60.4656  -34.6712  -31.4053 H   0  0  0  0  0  0  0  0  0  0  0  0
  -63.0678  -35.0851  -31.0862 H   0  0  0  0  0  0  0  0  0  0  0  0
  -62.6144  -36.1340  -29.7375 H   0  0  0  0  0  0  0  0  0  0  0  0
  -64.3395  -36.2465  -33.1947 H   0  0  0  0  0  0  0  0  0  0  0  0
  -67.0696  -41.0887  -35.6214 H   0  0  0  0  0  0  0  0  0  0  0  0
  -64.7421  -36.6999  -35.2359 H   0  0  0  0  0  0  0  0  0  0  0  0
  -68.8375  -40.8916  -37.7159 H   0  0  0  0  0  0  0  0  0  0  0  0
  -68.8997  -39.4956  -36.5787 H   0  0  0  0  0  0  0  0  0  0  0  0
  -69.9847  -40.8848  -39.5516 H   0  0  0  0  0  0  0  0  0  0  0  0
  -68.4686  -37.6596  -36.7054 H   0  0  0  0  0  0  0  0  0  0  0  0
  -65.5569  -33.8440  -31.6983 H   0  0  0  0  0  0  0  0  0  0  0  0
  1 34  1  0
  2  3  2  0
  2 24  1  0
  3  4  1  0
  4 25  2  0
  5 19  2  0
  5 20  1  0
  6 17  2  0
  6 18  1  0
  7 32  2  0
  7 33  1  0
  8 29  2  0
  8 30  1  0
  9 11  1  0
  9 15  1  0
 10 14  1  0
 10 15  1  0
 11 12  1  0
 12 13  1  0
 12 14  1  0
 15 16  1  0
 16 17  1  0
 17 19  1  0
 18 20  2  0
 20 21  1  0
 21 22  1  0
 22 23  1  0
 23 24  2  0
 23 25  1  0
 25 26  1  0
 26 27  1  0
 27 28  2  0
 27 29  1  0
 29 34  1  0
 30 31  1  0
 30 33  2  0
 31 32  1  0
 33 34  1  0
  1 35  1  0
  1 36  1  0
  1 37  1  0
  2 38  1  0
  3 39  1  0
  4 40  1  0
  5 41  1  0
  6 42  1  0
  7 43  1  0
  8 44  1  0
  9 45  1  0
  9 46  1  0
 10 47  1  0
 10 48  1  0
 11 49  1  0
 11 50  1  0
 13 51  1  0
 13 52  1  0
 13 53  1  0
 14 54  1  0
 14 55  1  0
 15 56  1  0
 18 57  1  0
 19 58  1  0
 22 59  1  0
 22 60  1  0
 24 61  1  0
 26 62  1  0
 32 63  1  0
A    1
CAB
A    2
CAD
A    3
CAE
A    4
CAH
A    5
CAI
A    6
CAL
A    7
CAM
A    8
CAN
A    9
CAO
A   10
CAP
A   11
CAQ
A   12
NBG
A   13
CAA
A   14
CAR
A   15
CBF
A   16
OAV
A   17
CAZ
A   18
CAJ
A   19
CAK
A   20
CAY
A   21
OAU
A   22
CAS
A   23
CBA
A   24
CAG
A   25
CBB
A   26
NAT
A   27
CAX
A   28
OAC
A   29
CBC
A   30
CBD
A   31
SAW
A   32
CAF
A   33
CBE
A   34
NBH
M  END
