5LHB_6WJ_A_1001
     RDKit          3D

 57 61  0  0  0  0  0  0  0  0999 V2000
   32.1220   -5.5940   -1.2230 C   0  0  0  0  0  0  0  0  0  0  0  0
   30.9530   -4.5010    0.3170 C   0  0  0  0  0  0  0  0  0  0  0  0
   30.9680   -3.5140   -0.6130 C   0  0  0  0  0  0  0  0  0  0  0  0
   25.4940   -2.5340   -1.1390 C   0  0  0  0  0  0  0  0  0  0  0  0
   24.3740   -2.4870   -1.9630 C   0  0  0  0  0  0  0  0  0  0  0  0
   24.4940   -2.1240   -3.2970 C   0  0  0  0  0  0  0  0  0  0  0  0
   25.7330   -1.8570   -3.8140 C   0  0  0  0  0  0  0  0  0  0  0  0
   26.8880   -1.9260   -3.0350 C   0  0  0  0  0  0  0  0  0  0  0  0
   29.3300   -1.7330   -2.7500 C   0  0  0  0  0  0  0  0  0  0  0  0
   28.3700   -1.2710   -5.0110 C   0  0  0  0  0  0  0  0  0  0  0  0
   28.1510   -2.4230   -5.9780 C   0  0  0  0  0  0  0  0  0  0  0  0
   29.0710   -3.5880   -5.9140 C   0  0  0  0  0  0  0  0  0  0  0  0
   29.1550   -2.6460   -7.0620 C   0  0  0  0  0  0  0  0  0  0  0  0
   21.3040    0.0530    0.2650 C   0  0  0  0  0  0  0  0  0  0  0  0
   23.3180    0.5380   -1.3320 C   0  0  0  0  0  0  0  0  0  0  0  0
   22.2500   -3.9260   -2.0220 O   0  0  0  0  0  0  0  0  0  0  0  0
   22.7850   -2.8210   -1.2940 S   0  0  0  0  0  0  0  0  0  0  0  0
   22.9030   -2.9330    0.1280 O   0  0  0  0  0  0  0  0  0  0  0  0
   21.8650   -1.5170   -1.6360 N   0  0  0  0  0  0  0  0  0  0  0  0
   21.9880   -0.1500   -1.0490 C   0  0  0  0  0  0  0  0  0  0  0  0
   20.7350    0.6650   -0.9880 C   0  0  0  0  0  0  0  0  0  0  0  0
   26.7450   -2.2810   -1.6680 C   0  0  0  0  0  0  0  0  0  0  0  0
   27.9150   -2.3570   -0.7810 C   0  0  0  0  0  0  0  0  0  0  0  0
   27.8980   -2.6310    0.3960 O   0  0  0  0  0  0  0  0  0  0  0  0
   28.1990   -1.6680   -3.5450 N   0  0  0  0  0  0  0  0  0  0  0  0
   30.4280   -1.4950   -3.1820 O   0  0  0  0  0  0  0  0  0  0  0  0
   29.1480   -2.0550   -1.3810 N   0  0  0  0  0  0  0  0  0  0  0  0
   30.3340   -2.1580   -0.5330 C   0  0  0  0  0  0  0  0  0  0  0  0
   31.5960   -5.6890   -0.0120 N   0  0  0  0  0  0  0  0  0  0  0  0
   31.8210   -4.0600   -1.9840 S   0  0  0  0  0  0  0  0  0  0  0  0
   32.9040   -6.6410   -1.9580 C   0  0  0  0  0  0  0  0  0  0  0  0
   30.4543   -4.3676    1.2883 H   0  0  0  0  0  0  0  0  0  0  0  0
   25.3840   -2.7716   -0.0706 H   0  0  0  0  0  0  0  0  0  0  0  0
   23.6002   -2.0514   -3.9341 H   0  0  0  0  0  0  0  0  0  0  0  0
   25.8204   -1.5799   -4.8749 H   0  0  0  0  0  0  0  0  0  0  0  0
   29.3913   -0.8873   -5.1514 H   0  0  0  0  0  0  0  0  0  0  0  0
   27.6061   -0.5112   -5.2328 H   0  0  0  0  0  0  0  0  0  0  0  0
   27.0597   -2.2896   -5.9429 H   0  0  0  0  0  0  0  0  0  0  0  0
   29.8750   -3.6122   -5.1636 H   0  0  0  0  0  0  0  0  0  0  0  0
   28.9400   -4.6753   -5.8106 H   0  0  0  0  0  0  0  0  0  0  0  0
   28.8245   -2.9651   -8.0615 H   0  0  0  0  0  0  0  0  0  0  0  0
   29.9544   -2.0445   -7.5194 H   0  0  0  0  0  0  0  0  0  0  0  0
   20.7863   -0.7867    0.7517 H   0  0  0  0  0  0  0  0  0  0  0  0
   21.6078    0.4359    1.2505 H   0  0  0  0  0  0  0  0  0  0  0  0
   23.8091    0.7920   -0.3810 H   0  0  0  0  0  0  0  0  0  0  0  0
   23.9651   -0.1384   -1.9096 H   0  0  0  0  0  0  0  0  0  0  0  0
   23.1398    1.4570   -1.9096 H   0  0  0  0  0  0  0  0  0  0  0  0
   21.9188   -4.6100   -1.3875 H   0  0  0  0  0  0  0  0  0  0  0  0
   22.2576   -2.3204    0.5620 H   0  0  0  0  0  0  0  0  0  0  0  0
   21.9673   -1.3795   -2.6516 H   0  0  0  0  0  0  0  0  0  0  0  0
   19.8014    0.2727   -1.4176 H   0  0  0  0  0  0  0  0  0  0  0  0
   20.4502    1.6809   -1.2992 H   0  0  0  0  0  0  0  0  0  0  0  0
   30.0425   -1.9636    0.5097 H   0  0  0  0  0  0  0  0  0  0  0  0
   31.0684   -1.4192   -0.8863 H   0  0  0  0  0  0  0  0  0  0  0  0
   33.3995   -7.3044   -1.2338 H   0  0  0  0  0  0  0  0  0  0  0  0
   32.2235   -7.2308   -2.5897 H   0  0  0  0  0  0  0  0  0  0  0  0
   33.6627   -6.1559   -2.5897 H   0  0  0  0  0  0  0  0  0  0  0  0
  1 29  2  0
  1 30  1  0
  1 31  1  0
  2  3  2  0
  2 29  1  0
  3 28  1  0
  3 30  1  0
  4  5  2  0
  4 22  1  0
  5  6  1  0
  5 17  1  0
  6  7  2  0
  7  8  1  0
  8 22  2  0
  8 25  1  0
  9 25  1  0
  9 26  2  0
  9 27  1  0
 10 11  1  0
 10 25  1  0
 11 12  1  0
 11 13  1  0
 12 13  1  0
 14 20  1  0
 14 21  1  0
 15 20  1  0
 16 17  1  0
 17 18  1  0
 17 19  1  0
 19 20  1  0
 20 21  1  0
 22 23  1  0
 23 24  2  0
 23 27  1  0
 27 28  1  0
  2 32  1  0
  4 33  1  0
  6 34  1  0
  7 35  1  0
 10 36  1  0
 10 37  1  0
 11 38  1  0
 12 39  1  0
 12 40  1  0
 13 41  1  0
 13 42  1  0
 14 43  1  0
 14 44  1  0
 15 45  1  0
 15 46  1  0
 15 47  1  0
 16 48  1  0
 18 49  1  0
 19 50  1  0
 21 51  1  0
 21 52  1  0
 28 53  1  0
 28 54  1  0
 31 55  1  0
 31 56  1  0
 31 57  1  0
A    1
C1
A    2
C2
A    3
C3
A    4
C7
A    5
C8
A    6
C9
A    7
C10
A    8
C11
A    9
C12
A   10
C13
A   11
C14
A   12
C15
A   13
C16
A   14
C19
A   15
C20
A   16
O3
A   17
S1
A   18
O2
A   19
N3
A   20
C17
A   21
C18
A   22
C6
A   23
C5
A   24
O
A   25
N2
A   26
O1
A   27
N1
A   28
C4
A   29
N
A   30
S
A   31
C
M  END
