5LHG_6X3_A_906
     RDKit          3D

 63 67  0  0  0  0  0  0  0  0999 V2000
    8.1730  -52.2180  -39.3670 C   0  0  0  0  0  0  0  0  0  0  0  0
    7.8770  -51.9220  -41.7320 C   0  0  0  0  0  0  0  0  0  0  0  0
    8.9780  -51.0810  -41.7560 C   0  0  0  0  0  0  0  0  0  0  0  0
    5.5030  -56.3250  -37.1880 C   0  0  0  0  0  0  0  0  0  0  0  0
    9.6710  -50.8000  -40.5900 C   0  0  0  0  0  0  0  0  0  0  0  0
    9.4290  -50.4460  -43.0750 C   0  0  0  0  0  0  0  0  0  0  0  0
    8.9670  -48.1160  -42.9970 C   0  0  0  0  0  0  0  0  0  0  0  0
    6.2250  -55.5490  -36.1980 N   0  0  0  0  0  0  0  0  0  0  0  0
    6.0360  -55.6510  -34.8670 C   0  0  0  0  0  0  0  0  0  0  0  0
    5.1990  -56.4280  -34.0360 C   0  0  0  0  0  0  0  0  0  0  0  0
    5.3400  -56.2060  -32.6850 C   0  0  0  0  0  0  0  0  0  0  0  0
    6.5600  -54.9820  -32.5460 S   0  0  0  0  0  0  0  0  0  0  0  0
    6.8850  -54.7700  -34.2380 C   0  0  0  0  0  0  0  0  0  0  0  0
    7.6040  -54.1220  -35.2490 C   0  0  0  0  0  0  0  0  0  0  0  0
    7.1550  -54.6520  -36.4590 C   0  0  0  0  0  0  0  0  0  0  0  0
    7.6600  -54.2260  -37.8420 C   0  0  0  0  0  0  0  0  0  0  0  0
    7.9730  -55.0210  -38.6640 O   0  0  0  0  0  0  0  0  0  0  0  0
    7.7330  -52.7990  -38.1070 N   0  0  0  0  0  0  0  0  0  0  0  0
    7.4710  -52.4860  -40.5310 C   0  0  0  0  0  0  0  0  0  0  0  0
    9.2690  -51.3710  -39.3940 C   0  0  0  0  0  0  0  0  0  0  0  0
    9.8930  -49.1560  -42.7740 O   0  0  0  0  0  0  0  0  0  0  0  0
    7.6000  -48.3470  -42.9120 C   0  0  0  0  0  0  0  0  0  0  0  0
    6.7000  -47.3100  -43.1310 C   0  0  0  0  0  0  0  0  0  0  0  0
    7.1670  -46.0380  -43.4300 C   0  0  0  0  0  0  0  0  0  0  0  0
    8.5350  -45.8090  -43.5100 C   0  0  0  0  0  0  0  0  0  0  0  0
    9.4340  -46.8440  -43.2930 C   0  0  0  0  0  0  0  0  0  0  0  0
    6.2530  -44.9900  -43.6500 O   0  0  0  0  0  0  0  0  0  0  0  0
    6.7810  -44.0860  -44.5900 C   0  0  0  0  0  0  0  0  0  0  0  0
    5.9580  -44.0710  -45.7700 C   0  0  0  0  0  0  0  0  0  0  0  0
    6.4980  -43.0780  -46.8000 C   0  0  0  0  0  0  0  0  0  0  0  0
    6.7160  -41.7670  -46.2490 N   0  0  0  0  0  0  0  0  0  0  0  0
    7.4510  -41.7770  -45.0130 C   0  0  0  0  0  0  0  0  0  0  0  0
    6.8800  -42.7740  -44.0050 C   0  0  0  0  0  0  0  0  0  0  0  0
    7.2940  -41.0780  -47.0590 C   0  0  0  0  0  0  0  0  0  0  0  0
    7.3280  -52.1412  -42.6597 H   0  0  0  0  0  0  0  0  0  0  0  0
    4.8383  -57.0395  -36.6804 H   0  0  0  0  0  0  0  0  0  0  0  0
    4.9040  -55.6503  -37.8172 H   0  0  0  0  0  0  0  0  0  0  0  0
    6.2191  -56.8738  -37.8172 H   0  0  0  0  0  0  0  0  0  0  0  0
   10.5389  -50.1246  -40.6140 H   0  0  0  0  0  0  0  0  0  0  0  0
    8.5826  -50.3888  -43.7752 H   0  0  0  0  0  0  0  0  0  0  0  0
   10.2199  -51.0462  -43.5485 H   0  0  0  0  0  0  0  0  0  0  0  0
    4.4841  -57.1597  -34.4404 H   0  0  0  0  0  0  0  0  0  0  0  0
    4.7947  -56.7001  -31.8674 H   0  0  0  0  0  0  0  0  0  0  0  0
    8.3727  -53.3466  -35.1157 H   0  0  0  0  0  0  0  0  0  0  0  0
    7.4547  -52.1554  -37.3525 H   0  0  0  0  0  0  0  0  0  0  0  0
    6.5915  -53.1461  -40.5031 H   0  0  0  0  0  0  0  0  0  0  0  0
    9.8191  -51.1523  -38.4669 H   0  0  0  0  0  0  0  0  0  0  0  0
    7.2282  -49.3537  -42.6706 H   0  0  0  0  0  0  0  0  0  0  0  0
    5.6180  -47.4979  -43.0672 H   0  0  0  0  0  0  0  0  0  0  0  0
    8.9078  -44.8015  -43.7467 H   0  0  0  0  0  0  0  0  0  0  0  0
   10.5159  -46.6556  -43.3557 H   0  0  0  0  0  0  0  0  0  0  0  0
    7.7917  -44.4070  -44.8824 H   0  0  0  0  0  0  0  0  0  0  0  0
    4.9345  -43.7799  -45.4914 H   0  0  0  0  0  0  0  0  0  0  0  0
    5.9640  -45.0769  -46.2152 H   0  0  0  0  0  0  0  0  0  0  0  0
    5.7735  -42.9971  -47.6237 H   0  0  0  0  0  0  0  0  0  0  0  0
    7.4703  -43.4571  -47.1477 H   0  0  0  0  0  0  0  0  0  0  0  0
    8.4958  -42.0480  -45.2252 H   0  0  0  0  0  0  0  0  0  0  0  0
    7.3777  -40.7726  -44.5705 H   0  0  0  0  0  0  0  0  0  0  0  0
    7.5409  -42.8187  -43.1268 H   0  0  0  0  0  0  0  0  0  0  0  0
    5.8744  -42.4414  -43.7081 H   0  0  0  0  0  0  0  0  0  0  0  0
    7.9152  -40.3375  -46.5338 H   0  0  0  0  0  0  0  0  0  0  0  0
    7.9342  -41.7124  -47.6897 H   0  0  0  0  0  0  0  0  0  0  0  0
    6.5580  -40.5579  -47.6897 H   0  0  0  0  0  0  0  0  0  0  0  0
 34 31  1  0
 30 31  1  0
 30 29  1  0
 31 32  1  0
 29 28  1  0
 32 33  1  0
 28 33  1  0
 28 27  1  0
 27 24  1  0
 25 24  2  0
 25 26  1  0
 24 23  1  0
 26  7  2  0
 23 22  2  0
  6 21  1  0
  6  3  1  0
  7 22  1  0
  7 21  1  0
  3  2  2  0
  3  5  1  0
  2 19  1  0
  5 20  2  0
 19  1  2  0
 20  1  1  0
  1 18  1  0
 17 16  2  0
 18 16  1  0
 16 15  1  0
  4  8  1  0
 15  8  1  0
 15 14  2  0
  8  9  1  0
 14 13  1  0
  9 13  2  0
  9 10  1  0
 13 12  1  0
 10 11  2  0
 11 12  1  0
  2 35  1  0
  4 36  1  0
  4 37  1  0
  4 38  1  0
  5 39  1  0
  6 40  1  0
  6 41  1  0
 10 42  1  0
 11 43  1  0
 14 44  1  0
 18 45  1  0
 19 46  1  0
 20 47  1  0
 22 48  1  0
 23 49  1  0
 25 50  1  0
 26 51  1  0
 28 52  1  0
 29 53  1  0
 29 54  1  0
 30 55  1  0
 30 56  1  0
 32 57  1  0
 32 58  1  0
 33 59  1  0
 33 60  1  0
 34 61  1  0
 34 62  1  0
 34 63  1  0
A    1
C13
A    2
C15
A    3
C16
A    4
C01
A    5
C17
A    6
C19
A    7
C21
A    8
N02
A    9
C03
A   10
C04
A   11
C05
A   12
S06
A   13
C07
A   14
C08
A   15
C09
A   16
C10
A   17
O11
A   18
N12
A   19
C14
A   20
C18
A   21
O20
A   22
C22
A   23
C23
A   24
C24
A   25
C25
A   26
C26
A   27
O27
A   28
C28
A   29
C29
A   30
C30
A   31
N31
A   32
C32
A   33
C33
A   34
C34
M  END
