5LHH_6X0_A_908
     RDKit          3D

 70 74  0  0  0  0  0  0  0  0999 V2000
  -65.3600  -34.7160  -37.5910 C   0  0  0  0  0  0  0  0  0  0  0  0
  -66.3730  -33.8700  -36.8980 C   0  0  0  0  0  0  0  0  0  0  0  0
  -67.0490  -34.6620  -35.8660 N   0  0  0  0  0  0  0  0  0  0  0  0
  -66.8150  -34.5710  -34.5700 C   0  0  0  0  0  0  0  0  0  0  0  0
  -65.9390  -33.7840  -33.7760 C   0  0  0  0  0  0  0  0  0  0  0  0
  -66.0500  -34.0500  -32.4240 C   0  0  0  0  0  0  0  0  0  0  0  0
  -67.2720  -35.2970  -32.2250 S   0  0  0  0  0  0  0  0  0  0  0  0
  -67.6350  -35.4680  -33.9130 C   0  0  0  0  0  0  0  0  0  0  0  0
  -68.3990  -36.1260  -34.8800 C   0  0  0  0  0  0  0  0  0  0  0  0
  -68.0060  -35.5820  -36.0780 C   0  0  0  0  0  0  0  0  0  0  0  0
  -68.5920  -36.0470  -37.4080 C   0  0  0  0  0  0  0  0  0  0  0  0
  -68.6280  -35.3960  -38.3390 O   0  0  0  0  0  0  0  0  0  0  0  0
  -69.0990  -37.4230  -37.3750 N   0  0  0  0  0  0  0  0  0  0  0  0
  -69.7050  -38.1640  -38.5460 C   0  0  0  0  0  0  0  0  0  0  0  0
  -70.4090  -37.5230  -39.6150 C   0  0  0  0  0  0  0  0  0  0  0  0
  -70.9340  -38.3100  -40.6680 C   0  0  0  0  0  0  0  0  0  0  0  0
  -70.7690  -39.6910  -40.6540 C   0  0  0  0  0  0  0  0  0  0  0  0
  -70.0550  -40.3290  -39.5620 C   0  0  0  0  0  0  0  0  0  0  0  0
  -69.5290  -39.5270  -38.5220 C   0  0  0  0  0  0  0  0  0  0  0  0
  -68.7460  -40.1080  -37.2880 C   0  0  0  0  0  0  0  0  0  0  0  0
  -67.3450  -40.1040  -37.5080 O   0  0  0  0  0  0  0  0  0  0  0  0
  -66.5660  -39.5660  -36.3750 C   0  0  0  0  0  0  0  0  0  0  0  0
  -66.8120  -40.0100  -35.0590 C   0  0  0  0  0  0  0  0  0  0  0  0
  -66.0470  -39.4770  -33.9600 C   0  0  0  0  0  0  0  0  0  0  0  0
  -65.0690  -38.5320  -34.1810 C   0  0  0  0  0  0  0  0  0  0  0  0
  -64.8190  -38.0820  -35.5010 C   0  0  0  0  0  0  0  0  0  0  0  0
  -65.5770  -38.6100  -36.5990 C   0  0  0  0  0  0  0  0  0  0  0  0
  -64.3390  -38.0230  -33.1100 O   0  0  0  0  0  0  0  0  0  0  0  0
  -63.7380  -36.8030  -33.3610 C   0  0  0  0  0  0  0  0  0  0  0  0
  -63.1100  -36.2150  -32.0210 C   0  0  0  0  0  0  0  0  0  0  0  0
  -61.8300  -35.2850  -32.3960 C   0  0  0  0  0  0  0  0  0  0  0  0
  -60.9250  -35.4080  -31.4180 C   0  0  0  0  0  0  0  0  0  0  0  0
  -61.2950  -36.7100  -30.6470 N   0  0  0  0  0  0  0  0  0  0  0  0
  -62.6490  -37.2050  -31.2540 C   0  0  0  0  0  0  0  0  0  0  0  0
  -69.8670  -41.8400  -39.5420 C   0  0  0  0  0  0  0  0  0  0  0  0
  -70.6280  -42.4050  -38.4630 O   0  0  0  0  0  0  0  0  0  0  0  0
  -69.8560  -43.2910  -37.5780 C   0  0  0  0  0  0  0  0  0  0  0  0
  -64.7408  -35.2331  -36.8432 H   0  0  0  0  0  0  0  0  0  0  0  0
  -65.8716  -35.4589  -38.2206 H   0  0  0  0  0  0  0  0  0  0  0  0
  -64.7201  -34.0802  -38.2206 H   0  0  0  0  0  0  0  0  0  0  0  0
  -65.8732  -33.0089  -36.4304 H   0  0  0  0  0  0  0  0  0  0  0  0
  -67.1133  -33.5125  -37.6288 H   0  0  0  0  0  0  0  0  0  0  0  0
  -65.2444  -33.0402  -34.1935 H   0  0  0  0  0  0  0  0  0  0  0  0
  -65.4769  -33.5681  -31.6182 H   0  0  0  0  0  0  0  0  0  0  0  0
  -69.1526  -36.9105  -34.7169 H   0  0  0  0  0  0  0  0  0  0  0  0
  -69.0371  -37.9271  -36.4789 H   0  0  0  0  0  0  0  0  0  0  0  0
  -70.5405  -36.4309  -39.6181 H   0  0  0  0  0  0  0  0  0  0  0  0
  -71.4727  -37.8291  -41.4978 H   0  0  0  0  0  0  0  0  0  0  0  0
  -71.1801  -40.3012  -41.4717 H   0  0  0  0  0  0  0  0  0  0  0  0
  -68.9698  -39.4948  -36.4027 H   0  0  0  0  0  0  0  0  0  0  0  0
  -69.0669  -41.1492  -37.1369 H   0  0  0  0  0  0  0  0  0  0  0  0
  -67.5897  -40.7649  -34.8710 H   0  0  0  0  0  0  0  0  0  0  0  0
  -66.2455  -39.8275  -32.9364 H   0  0  0  0  0  0  0  0  0  0  0  0
  -64.0416  -37.3257  -35.6846 H   0  0  0  0  0  0  0  0  0  0  0  0
  -65.3766  -38.2587  -37.6219 H   0  0  0  0  0  0  0  0  0  0  0  0
  -62.9414  -36.9369  -34.1077 H   0  0  0  0  0  0  0  0  0  0  0  0
  -64.4945  -36.1011  -33.7417 H   0  0  0  0  0  0  0  0  0  0  0  0
  -63.8903  -35.6451  -31.4953 H   0  0  0  0  0  0  0  0  0  0  0  0
  -61.3950  -35.6169  -33.3502 H   0  0  0  0  0  0  0  0  0  0  0  0
  -62.1396  -34.2344  -32.4983 H   0  0  0  0  0  0  0  0  0  0  0  0
  -59.9134  -35.4901  -31.8423 H   0  0  0  0  0  0  0  0  0  0  0  0
  -60.9312  -34.5320  -30.7528 H   0  0  0  0  0  0  0  0  0  0  0  0
  -60.5631  -37.4228  -30.7776 H   0  0  0  0  0  0  0  0  0  0  0  0
  -63.3662  -37.4272  -30.4501 H   0  0  0  0  0  0  0  0  0  0  0  0
  -62.5073  -38.1257  -31.8390 H   0  0  0  0  0  0  0  0  0  0  0  0
  -70.2129  -42.2648  -40.4959 H   0  0  0  0  0  0  0  0  0  0  0  0
  -68.8016  -42.0741  -39.4000 H   0  0  0  0  0  0  0  0  0  0  0  0
  -70.0734  -43.0414  -36.5290 H   0  0  0  0  0  0  0  0  0  0  0  0
  -70.1358  -44.3370  -37.7716 H   0  0  0  0  0  0  0  0  0  0  0  0
  -68.7815  -43.1570  -37.7716 H   0  0  0  0  0  0  0  0  0  0  0  0
 16 17  1  0
 16 15  2  0
 17 18  2  0
 15 14  1  0
 18 35  1  0
 18 19  1  0
 35 36  1  0
 14 19  2  0
 14 13  1  0
 19 20  1  0
 36 37  1  0
 12 11  2  0
  1  2  1  0
 21 20  1  0
 21 22  1  0
 11 13  1  0
 11 10  1  0
  2  3  1  0
 27 22  1  0
 27 26  2  0
 22 23  2  0
 10  3  1  0
 10  9  2  0
  3  4  1  0
 26 25  1  0
 23 24  1  0
  9  8  1  0
  4  8  2  0
  4  5  1  0
 25 24  2  0
 25 28  1  0
  8  7  1  0
  5  6  2  0
 29 28  1  0
 29 30  1  0
  6  7  1  0
 31 30  1  0
 31 32  1  0
 30 34  1  0
 32 33  1  0
 34 33  1  0
  1 38  1  0
  1 39  1  0
  1 40  1  0
  2 41  1  0
  2 42  1  0
  5 43  1  0
  6 44  1  0
  9 45  1  0
 13 46  1  0
 15 47  1  0
 16 48  1  0
 17 49  1  0
 20 50  1  0
 20 51  1  0
 23 52  1  0
 24 53  1  0
 26 54  1  0
 27 55  1  0
 29 56  1  0
 29 57  1  0
 30 58  1  0
 31 59  1  0
 31 60  1  0
 32 61  1  0
 32 62  1  0
 33 63  1  0
 34 64  1  0
 34 65  1  0
 35 66  1  0
 35 67  1  0
 37 68  1  0
 37 69  1  0
 37 70  1  0
A    1
C01
A    2
C02
A    3
N03
A    4
C04
A    5
C05
A    6
C06
A    7
S07
A    8
C08
A    9
C09
A   10
C10
A   11
C11
A   12
O12
A   13
N13
A   14
C14
A   15
C15
A   16
C16
A   17
C17
A   18
C18
A   19
C19
A   20
C20
A   21
O21
A   22
C22
A   23
C23
A   24
C24
A   25
C25
A   26
C26
A   27
C27
A   28
O28
A   29
C29
A   30
C30
A   31
C31
A   32
C32
A   33
N33
A   34
C34
A   35
C35
A   36
O36
A   37
C37
M  END
