3LD6_KKK_A_602
     RDKit          3D

 64 68  0  0  0  0  0  0  0  0999 V2000
   39.1250    3.9020   -3.7730 C   0  0  0  0  0  0  0  0  0  0  0  0
   40.3120    3.7010   -3.1550 N   0  0  0  0  0  0  0  0  0  0  0  0
   40.9400    6.6610   -1.2370 O   0  0  0  0  0  0  0  0  0  0  0  0
   42.6240    7.5830   -7.6390 Cl  0  0  0  0  0  0  0  0  0  0  0  0
   40.1650    2.4230   -4.8900 C   0  0  0  0  0  0  0  0  0  0  0  0
   39.0450    3.1430   -4.8150 N   0  0  0  0  0  0  0  0  0  0  0  0
   42.8010    5.3500   -1.3640 O   0  0  0  0  0  0  0  0  0  0  0  0
   43.8620    4.1810   -3.6170 Cl  0  0  0  0  0  0  0  0  0  0  0  0
   40.9680    2.7420   -3.8540 C   0  0  0  0  0  0  0  0  0  0  0  0
   43.4570    4.1770    6.8610 N   0  0  0  0  0  0  0  0  0  0  0  0
   41.9600    5.3380    1.5750 O   0  0  0  0  0  0  0  0  0  0  0  0
   40.7570    4.3390   -1.9180 C   0  0  0  0  0  0  0  0  0  0  0  0
   43.9790    3.6750    9.4900 N   0  0  0  0  0  0  0  0  0  0  0  0
   42.9170    3.5650   11.4480 O   0  0  0  0  0  0  0  0  0  0  0  0
   41.5630    5.6290   -2.0010 C   0  0  0  0  0  0  0  0  0  0  0  0
   41.7300    6.9820   -0.1050 C   0  0  0  0  0  0  0  0  0  0  0  0
   43.0510    6.2770   -0.3100 C   0  0  0  0  0  0  0  0  0  0  0  0
   41.8210    6.1010   -3.3970 C   0  0  0  0  0  0  0  0  0  0  0  0
   42.8210    5.5300   -4.1840 C   0  0  0  0  0  0  0  0  0  0  0  0
   43.0470    5.9830   -5.4770 C   0  0  0  0  0  0  0  0  0  0  0  0
   42.2880    7.0250   -5.9730 C   0  0  0  0  0  0  0  0  0  0  0  0
   41.2880    7.6050   -5.1970 C   0  0  0  0  0  0  0  0  0  0  0  0
   41.0530    7.1410   -3.9060 C   0  0  0  0  0  0  0  0  0  0  0  0
   41.0860    6.3570    1.1130 C   0  0  0  0  0  0  0  0  0  0  0  0
   42.2920    5.0940    2.8870 C   0  0  0  0  0  0  0  0  0  0  0  0
   43.6350    4.9780    3.2230 C   0  0  0  0  0  0  0  0  0  0  0  0
   44.0130    4.6860    4.5320 C   0  0  0  0  0  0  0  0  0  0  0  0
   43.0550    4.5160    5.5330 C   0  0  0  0  0  0  0  0  0  0  0  0
   41.7050    4.6020    5.1750 C   0  0  0  0  0  0  0  0  0  0  0  0
   41.3230    4.9000    3.8650 C   0  0  0  0  0  0  0  0  0  0  0  0
   44.4720    5.0130    7.5300 C   0  0  0  0  0  0  0  0  0  0  0  0
   45.0890    4.1620    8.6540 C   0  0  0  0  0  0  0  0  0  0  0  0
   42.9310    2.9140    8.8080 C   0  0  0  0  0  0  0  0  0  0  0  0
   42.3480    3.8950    7.7940 C   0  0  0  0  0  0  0  0  0  0  0  0
   43.8670    3.9620   10.7920 C   0  0  0  0  0  0  0  0  0  0  0  0
   44.9670    4.7700   11.4300 C   0  0  0  0  0  0  0  0  0  0  0  0
   38.3472    4.6044   -3.4390 H   0  0  0  0  0  0  0  0  0  0  0  0
   40.3973    1.6858   -5.6727 H   0  0  0  0  0  0  0  0  0  0  0  0
   41.9538    2.3119   -3.6234 H   0  0  0  0  0  0  0  0  0  0  0  0
   39.8560    4.5593   -1.3267 H   0  0  0  0  0  0  0  0  0  0  0  0
   41.4629    3.6141   -1.4864 H   0  0  0  0  0  0  0  0  0  0  0  0
   41.8372    8.0694    0.0221 H   0  0  0  0  0  0  0  0  0  0  0  0
   43.3572    5.7508    0.6062 H   0  0  0  0  0  0  0  0  0  0  0  0
   43.8651    6.9760   -0.5520 H   0  0  0  0  0  0  0  0  0  0  0  0
   43.8236    5.5162   -6.1007 H   0  0  0  0  0  0  0  0  0  0  0  0
   40.6841    8.4294   -5.6040 H   0  0  0  0  0  0  0  0  0  0  0  0
   40.2624    7.5958   -3.2911 H   0  0  0  0  0  0  0  0  0  0  0  0
   40.1115    5.9238    0.8433 H   0  0  0  0  0  0  0  0  0  0  0  0
   40.9182    7.1114    1.8958 H   0  0  0  0  0  0  0  0  0  0  0  0
   44.4054    5.1176    2.4503 H   0  0  0  0  0  0  0  0  0  0  0  0
   45.0802    4.5882    4.7798 H   0  0  0  0  0  0  0  0  0  0  0  0
   40.9314    4.4320    5.9383 H   0  0  0  0  0  0  0  0  0  0  0  0
   40.2567    4.9811    3.6073 H   0  0  0  0  0  0  0  0  0  0  0  0
   45.2498    5.3100    6.8111 H   0  0  0  0  0  0  0  0  0  0  0  0
   44.0189    5.9294    7.9362 H   0  0  0  0  0  0  0  0  0  0  0  0
   45.7748    4.7747    9.2575 H   0  0  0  0  0  0  0  0  0  0  0  0
   45.6625    3.3209    8.2373 H   0  0  0  0  0  0  0  0  0  0  0  0
   43.3558    2.0357    8.3000 H   0  0  0  0  0  0  0  0  0  0  0  0
   42.1711    2.5299    9.5045 H   0  0  0  0  0  0  0  0  0  0  0  0
   42.0177    4.8178    8.2934 H   0  0  0  0  0  0  0  0  0  0  0  0
   41.4665    3.4851    7.2793 H   0  0  0  0  0  0  0  0  0  0  0  0
   44.8808    4.7067   12.5248 H   0  0  0  0  0  0  0  0  0  0  0  0
   45.9434    4.3728   11.1155 H   0  0  0  0  0  0  0  0  0  0  0  0
   44.8800    5.8205   11.1155 H   0  0  0  0  0  0  0  0  0  0  0  0
  6  1  2  0
  1  2  1  0
  9  2  1  0
  2 12  1  0
 15  3  1  0
  3 16  1  0
  4 21  1  0
  5  6  1  0
  5  9  2  0
 15  7  1  0
  7 17  1  0
 19  8  1  0
 28 10  1  0
 10 31  1  0
 10 34  1  0
 24 11  1  0
 11 25  1  0
 15 12  1  0
 32 13  1  0
 33 13  1  0
 13 35  1  0
 35 14  2  0
 18 15  1  0
 17 16  1  0
 16 24  1  0
 19 18  2  0
 23 18  1  0
 20 19  1  0
 21 20  2  0
 21 22  1  0
 22 23  2  0
 25 26  2  0
 25 30  1  0
 26 27  1  0
 27 28  2  0
 29 28  1  0
 30 29  2  0
 31 32  1  0
 34 33  1  0
 35 36  1  0
  1 37  1  0
  5 38  1  0
  9 39  1  0
 12 40  1  0
 12 41  1  0
 16 42  1  0
 17 43  1  0
 17 44  1  0
 20 45  1  0
 22 46  1  0
 23 47  1  0
 24 48  1  0
 24 49  1  0
 26 50  1  0
 27 51  1  0
 29 52  1  0
 30 53  1  0
 31 54  1  0
 31 55  1  0
 32 56  1  0
 32 57  1  0
 33 58  1  0
 33 59  1  0
 34 60  1  0
 34 61  1  0
 36 62  1  0
 36 63  1  0
 36 64  1  0
A    1
C1
A    2
N1
A    3
O1
A    4
CL1
A    5
C2
A    6
N2
A    7
O2
A    8
CL2
A    9
C3
A   10
N3
A   11
O3
A   12
C4
A   13
N4
A   14
O4
A   15
C5
A   16
C6
A   17
C7
A   18
C8
A   19
C9
A   20
C10
A   21
C11
A   22
C12
A   23
C13
A   24
C14
A   25
C15
A   26
C16
A   27
C17
A   28
C18
A   29
C19
A   30
C20
A   31
C21
A   32
C22
A   33
C23
A   34
C24
A   35
C25
A   36
C26
M  END
