4LAU_W8X_A_402
     RDKit          3D

 36 37  0  0  0  0  0  0  0  0999 V2000
    8.2370   -5.7270    6.7180 O   0  0  0  0  0  0  0  0  0  0  0  0
    8.0100   -5.8900    5.4980 C   0  0  0  0  0  0  0  0  0  0  0  0
    8.7140   -5.4600    4.5540 O   0  0  0  0  0  0  0  0  0  0  0  0
    6.7590   -6.6470    5.0870 C   0  0  0  0  0  0  0  0  0  0  0  0
    6.2290   -7.3680    6.1860 O   0  0  0  0  0  0  0  0  0  0  0  0
    6.8410   -8.5060    6.6210 C   0  0  0  0  0  0  0  0  0  0  0  0
    7.7050   -9.2200    5.8040 C   0  0  0  0  0  0  0  0  0  0  0  0
    8.2560  -10.3960    6.2790 C   0  0  0  0  0  0  0  0  0  0  0  0
    9.3510  -11.2900    5.2320 Cl  0  0  0  0  0  0  0  0  0  0  0  0
    7.9980  -10.8820    7.5340 C   0  0  0  0  0  0  0  0  0  0  0  0
    7.1440  -10.1560    8.3370 C   0  0  0  0  0  0  0  0  0  0  0  0
    6.5520   -8.9810    7.8940 C   0  0  0  0  0  0  0  0  0  0  0  0
    5.6950   -8.2420    8.8800 C   0  0  0  0  0  0  0  0  0  0  0  0
    5.1420   -8.8280    9.8020 O   0  0  0  0  0  0  0  0  0  0  0  0
    5.6670   -6.9190    8.8080 N   0  0  0  0  0  0  0  0  0  0  0  0
    4.9460   -6.1120    9.7730 C   0  0  0  0  0  0  0  0  0  0  0  0
    5.9080   -5.5420   10.8100 C   0  0  0  0  0  0  0  0  0  0  0  0
    7.1990   -6.0420   10.9890 C   0  0  0  0  0  0  0  0  0  0  0  0
    8.0500   -5.4810   11.9390 C   0  0  0  0  0  0  0  0  0  0  0  0
    7.6110   -4.4160   12.7040 C   0  0  0  0  0  0  0  0  0  0  0  0
    8.7950   -3.6370   13.9540 Br  0  0  0  0  0  0  0  0  0  0  0  0
    6.3330   -3.9040   12.5380 C   0  0  0  0  0  0  0  0  0  0  0  0
    5.4900   -4.4670   11.5830 C   0  0  0  0  0  0  0  0  0  0  0  0
    7.6479   -6.1500    7.3919 H   0  0  0  0  0  0  0  0  0  0  0  0
    6.0053   -5.9313    4.7268 H   0  0  0  0  0  0  0  0  0  0  0  0
    7.0205   -7.3578    4.2893 H   0  0  0  0  0  0  0  0  0  0  0  0
    7.9480   -8.8567    4.7946 H   0  0  0  0  0  0  0  0  0  0  0  0
    8.4557  -11.8175    7.8880 H   0  0  0  0  0  0  0  0  0  0  0  0
    6.9265  -10.5165    9.3532 H   0  0  0  0  0  0  0  0  0  0  0  0
    6.1728   -6.4497    8.0432 H   0  0  0  0  0  0  0  0  0  0  0  0
    4.4434   -5.2846    9.2508 H   0  0  0  0  0  0  0  0  0  0  0  0
    4.2027   -6.7426   10.2828 H   0  0  0  0  0  0  0  0  0  0  0  0
    7.5473   -6.8857   10.3751 H   0  0  0  0  0  0  0  0  0  0  0  0
    9.0644   -5.8826   12.0795 H   0  0  0  0  0  0  0  0  0  0  0  0
    5.9883   -3.0610   13.1549 H   0  0  0  0  0  0  0  0  0  0  0  0
    4.4803   -4.0548   11.4393 H   0  0  0  0  0  0  0  0  0  0  0  0
  3  2  2  0
  4  2  1  0
  4  5  1  0
  9  8  1  0
  2  1  1  0
  7  8  1  0
  7  6  2  0
  5  6  1  0
  8 10  2  0
  6 12  1  0
 10 11  1  0
 12 11  2  0
 12 13  1  0
 15 13  1  0
 15 16  1  0
 13 14  2  0
 16 17  1  0
 17 18  2  0
 17 23  1  0
 18 19  1  0
 23 22  2  0
 19 20  2  0
 22 20  1  0
 20 21  1  0
  1 24  1  0
  4 25  1  0
  4 26  1  0
  7 27  1  0
 10 28  1  0
 11 29  1  0
 15 30  1  0
 16 31  1  0
 16 32  1  0
 18 33  1  0
 19 34  1  0
 22 35  1  0
 23 36  1  0
A    1
O23
A    2
C21
A    3
O22
A    4
C20
A    5
O19
A    6
C12
A    7
C15
A    8
C17
A    9
CL1
A   10
C16
A   11
C14
A   12
C13
A   13
C10
A   14
O11
A   15
N9
A   16
C8
A   17
C2
A   18
C3
A   19
C5
A   20
C6
A   21
BR7
A   22
C4
A   23
C1
M  END
