2IKI_388_A_600
     RDKit          3D

 36 37  0  0  0  0  0  0  0  0999 V2000
   18.6740   -6.0750   13.9390 C   0  0  0  0  0  0  0  0  0  0  0  0
   18.0150   -6.8950   14.9580 N   0  0  0  0  0  0  0  0  0  0  0  0
   17.8980   -8.2250   14.8050 C   0  0  0  0  0  0  0  0  0  0  0  0
   18.4990   -8.8510   13.9020 O   0  0  0  0  0  0  0  0  0  0  0  0
   17.6490   -5.5890   12.8990 C   0  0  0  0  0  0  0  0  0  0  0  0
   18.0950   -4.6020   12.0100 C   0  0  0  0  0  0  0  0  0  0  0  0
   19.3150   -4.0790   12.2190 F   0  0  0  0  0  0  0  0  0  0  0  0
   17.1940   -3.9930   11.1020 C   0  0  0  0  0  0  0  0  0  0  0  0
   15.9020   -4.4980   10.9950 C   0  0  0  0  0  0  0  0  0  0  0  0
   14.7810   -3.7450    9.7250 Br  0  0  0  0  0  0  0  0  0  0  0  0
   15.4670   -5.5670   11.7800 C   0  0  0  0  0  0  0  0  0  0  0  0
   16.3530   -6.0560   12.7630 C   0  0  0  0  0  0  0  0  0  0  0  0
   17.0340   -8.9910   15.7690 C   0  0  0  0  0  0  0  0  0  0  0  0
   16.5540  -10.2330   15.3340 C   0  0  0  0  0  0  0  0  0  0  0  0
   15.6680  -10.9810   16.1270 C   0  0  0  0  0  0  0  0  0  0  0  0
   15.4560  -10.5420   17.4490 C   0  0  0  0  0  0  0  0  0  0  0  0
   14.3220  -11.4280   18.4180 Cl  0  0  0  0  0  0  0  0  0  0  0  0
   15.9500   -9.3280   17.8960 C   0  0  0  0  0  0  0  0  0  0  0  0
   16.8010   -8.5660   17.0840 C   0  0  0  0  0  0  0  0  0  0  0  0
   17.4760   -7.4520   17.5480 O   0  0  0  0  0  0  0  0  0  0  0  0
   16.9170   -6.7640   18.6780 C   0  0  0  0  0  0  0  0  0  0  0  0
   15.6950   -5.9950   18.3010 C   0  0  0  0  0  0  0  0  0  0  0  0
   15.5110   -5.8010   16.9980 O   0  0  0  0  0  0  0  0  0  0  0  0
   14.8970   -5.5010   19.0780 O   0  0  0  0  0  0  0  0  0  0  0  0
   19.4463   -6.6744   13.4347 H   0  0  0  0  0  0  0  0  0  0  0  0
   19.1325   -5.2010   14.4248 H   0  0  0  0  0  0  0  0  0  0  0  0
   17.6359   -6.4460   15.8039 H   0  0  0  0  0  0  0  0  0  0  0  0
   17.5108   -3.1347   10.4914 H   0  0  0  0  0  0  0  0  0  0  0  0
   14.4709   -6.0114   11.6376 H   0  0  0  0  0  0  0  0  0  0  0  0
   15.9997   -6.8400   13.4490 H   0  0  0  0  0  0  0  0  0  0  0  0
   16.8750  -10.6277   14.3587 H   0  0  0  0  0  0  0  0  0  0  0  0
   15.1603  -11.8733   15.7319 H   0  0  0  0  0  0  0  0  0  0  0  0
   15.6727   -8.9594   18.8946 H   0  0  0  0  0  0  0  0  0  0  0  0
   16.6512   -7.5015   19.4497 H   0  0  0  0  0  0  0  0  0  0  0  0
   17.6680   -6.0546   19.0560 H   0  0  0  0  0  0  0  0  0  0  0  0
   15.0377   -5.5881   20.0541 H   0  0  0  0  0  0  0  0  0  0  0  0
  1  5  1  0
  1  2  1  0
  2  3  1  0
  3  4  2  0
  3 13  1  0
  5  6  2  0
  5 12  1  0
  6  8  1  0
  6  7  1  0
  8  9  2  0
  9 10  1  0
  9 11  1  0
 11 12  2  0
 13 14  2  0
 13 19  1  0
 14 15  1  0
 15 16  2  0
 16 18  1  0
 16 17  1  0
 18 19  2  0
 19 20  1  0
 20 21  1  0
 21 22  1  0
 22 23  2  0
 22 24  1  0
  1 25  1  0
  1 26  1  0
  2 27  1  0
  8 28  1  0
 11 29  1  0
 12 30  1  0
 14 31  1  0
 15 32  1  0
 18 33  1  0
 21 34  1  0
 21 35  1  0
 24 36  1  0
A    1
C1
A    2
N10
A    3
C11
A    4
O12
A    5
C2
A    6
C7
A    7
F9
A    8
C6
A    9
C5
A   10
BR8
A   11
C4
A   12
C3
A   13
C8
A   14
C9
A   15
C10
A   16
C12
A   17
CL1
A   18
C14
A   19
C15
A   20
O20
A   21
C21
A   22
C22
A   23
O24
A   24
O23
M  END
