5LIX_MK4_X_402
     RDKit          3D

 36 37  0  0  0  0  0  0  0  0999 V2000
   14.5440   13.9620    1.5330 O   0  0  0  0  0  0  0  0  0  0  0  0
   13.7030   13.0580    1.7630 C   0  0  0  0  0  0  0  0  0  0  0  0
   12.6660   12.9920    1.0620 O   0  0  0  0  0  0  0  0  0  0  0  0
   13.8870   12.1070    2.8940 C   0  0  0  0  0  0  0  0  0  0  0  0
   15.1650   11.8230    3.3070 O   0  0  0  0  0  0  0  0  0  0  0  0
   15.9400   10.8710    2.6780 C   0  0  0  0  0  0  0  0  0  0  0  0
   15.4460   10.0000    1.7230 C   0  0  0  0  0  0  0  0  0  0  0  0
   16.2760    9.0720    1.1340 C   0  0  0  0  0  0  0  0  0  0  0  0
   15.6320    7.9880   -0.0400 Cl  0  0  0  0  0  0  0  0  0  0  0  0
   17.6110    8.9990    1.5020 C   0  0  0  0  0  0  0  0  0  0  0  0
   18.1100    9.8760    2.4510 C   0  0  0  0  0  0  0  0  0  0  0  0
   17.2590   10.7950    3.0390 C   0  0  0  0  0  0  0  0  0  0  0  0
   17.7430   11.7750    4.0440 C   0  0  0  0  0  0  0  0  0  0  0  0
   18.2110   11.4250    5.1140 O   0  0  0  0  0  0  0  0  0  0  0  0
   17.6100   13.1460    3.6590 N   0  0  0  0  0  0  0  0  0  0  0  0
   18.0230   14.2690    4.4310 C   0  0  0  0  0  0  0  0  0  0  0  0
   18.3160   14.2510    5.9130 C   0  0  0  0  0  0  0  0  0  0  0  0
   17.2630   14.5220    6.7660 C   0  0  0  0  0  0  0  0  0  0  0  0
   15.5340   14.8150    5.9930 Br  0  0  0  0  0  0  0  0  0  0  0  0
   17.3960   14.5680    8.1400 C   0  0  0  0  0  0  0  0  0  0  0  0
   18.6370   14.3440    8.6930 C   0  0  0  0  0  0  0  0  0  0  0  0
   18.9040   14.4150   10.6020 Br  0  0  0  0  0  0  0  0  0  0  0  0
   19.7160   14.0850    7.8770 C   0  0  0  0  0  0  0  0  0  0  0  0
   19.5690   14.0420    6.5010 C   0  0  0  0  0  0  0  0  0  0  0  0
   21.1990   13.6470    5.5470 Br  0  0  0  0  0  0  0  0  0  0  0  0
   14.9824   14.4332    2.2852 H   0  0  0  0  0  0  0  0  0  0  0  0
   13.3505   12.5232    3.7594 H   0  0  0  0  0  0  0  0  0  0  0  0
   13.5091   11.1495    2.5062 H   0  0  0  0  0  0  0  0  0  0  0  0
   14.3860   10.0489    1.4330 H   0  0  0  0  0  0  0  0  0  0  0  0
   18.2706    8.2482    1.0425 H   0  0  0  0  0  0  0  0  0  0  0  0
   19.1723    9.8422    2.7344 H   0  0  0  0  0  0  0  0  0  0  0  0
   17.1780   13.3377    2.7439 H   0  0  0  0  0  0  0  0  0  0  0  0
   18.9485   14.6253    3.9552 H   0  0  0  0  0  0  0  0  0  0  0  0
   17.0963   14.8616    4.4232 H   0  0  0  0  0  0  0  0  0  0  0  0
   16.5270   14.7796    8.7804 H   0  0  0  0  0  0  0  0  0  0  0  0
   20.7059   13.9103    8.3237 H   0  0  0  0  0  0  0  0  0  0  0  0
  9  8  1  0
  3  2  2  0
  8 10  2  0
  8  7  1  0
 10 11  1  0
  1  2  1  0
  7  6  2  0
  2  4  1  0
 11 12  2  0
  6 12  1  0
  6  5  1  0
  4  5  1  0
 12 13  1  0
 15 13  1  0
 15 16  1  0
 13 14  2  0
 16 17  1  0
 25 24  1  0
 17 24  1  0
 17 18  2  0
 19 18  1  0
 24 23  2  0
 18 20  1  0
 23 21  1  0
 20 21  2  0
 21 22  1  0
  1 26  1  0
  4 27  1  0
  4 28  1  0
  7 29  1  0
 10 30  1  0
 11 31  1  0
 15 32  1  0
 16 33  1  0
 16 34  1  0
 20 35  1  0
 23 36  1  0
A    1
O24
A    2
C23
A    3
O25
A    4
C22
A    5
O21
A    6
C20
A    7
C19
A    8
C17
A    9
CL
A   10
C16
A   11
C15
A   12
C14
A   13
C12
A   14
O13
A   15
N11
A   16
C10
A   17
C09
A   18
C02
A   19
BR1
A   20
C03
A   21
C04
A   22
BR5
A   23
C06
A   24
C07
A   25
BR8
M  END
