5LJT_A6N_A_302
     RDKit          3D

 39 41  0  0  0  0  0  0  0  0999 V2000
   -2.4840    5.7580   13.8660 C   0  0  0  0  0  0  0  0  0  0  0  0
   -3.8630    5.6570   14.2240 O   0  0  0  0  0  0  0  0  0  0  0  0
   -4.3390    4.4830   14.7490 C   0  0  0  0  0  0  0  0  0  0  0  0
   -5.6810    4.4490   15.0920 C   0  0  0  0  0  0  0  0  0  0  0  0
   -6.2140    3.3190   15.6890 C   0  0  0  0  0  0  0  0  0  0  0  0
   -5.3940    2.2290   15.9430 C   0  0  0  0  0  0  0  0  0  0  0  0
   -4.0580    2.2520   15.5790 C   0  0  0  0  0  0  0  0  0  0  0  0
   -3.5330    3.3780   14.9720 C   0  0  0  0  0  0  0  0  0  0  0  0
   -2.1310    7.1950   13.7280 C   0  0  0  0  0  0  0  0  0  0  0  0
   -2.2460    8.0230   12.6520 C   0  0  0  0  0  0  0  0  0  0  0  0
   -1.8090    9.2250   13.0800 N   0  0  0  0  0  0  0  0  0  0  0  0
   -1.4230    9.1520   14.3770 N   0  0  0  0  0  0  0  0  0  0  0  0
   -1.6230    7.9140   14.7660 N   0  0  0  0  0  0  0  0  0  0  0  0
   -1.7490   10.4640   12.3760 C   0  0  0  0  0  0  0  0  0  0  0  0
   -1.9170   11.6600   13.0630 C   0  0  0  0  0  0  0  0  0  0  0  0
   -1.9040   12.8550   12.3660 C   0  0  0  0  0  0  0  0  0  0  0  0
   -1.7260   12.8630   10.9940 C   0  0  0  0  0  0  0  0  0  0  0  0
   -1.5540   11.6710   10.3140 C   0  0  0  0  0  0  0  0  0  0  0  0
   -1.5630   10.4680   10.9990 C   0  0  0  0  0  0  0  0  0  0  0  0
   -6.0280    0.8400   16.8330 S   0  0  0  0  0  0  0  0  0  0  0  0
   -7.4500    0.8630   16.6790 O   0  0  0  0  0  0  0  0  0  0  0  0
   -5.4800    0.9090   18.1570 O   0  0  0  0  0  0  0  0  0  0  0  0
   -5.4740   -0.4890   16.1360 N   0  0  0  0  0  0  0  0  0  0  0  0
   -1.8637    5.2981   14.6494 H   0  0  0  0  0  0  0  0  0  0  0  0
   -2.3047    5.2352   12.9149 H   0  0  0  0  0  0  0  0  0  0  0  0
   -6.3227    5.3193   14.8901 H   0  0  0  0  0  0  0  0  0  0  0  0
   -7.2796    3.2858   15.9599 H   0  0  0  0  0  0  0  0  0  0  0  0
   -3.4176    1.3787   15.7718 H   0  0  0  0  0  0  0  0  0  0  0  0
   -2.4765    3.3966   14.6664 H   0  0  0  0  0  0  0  0  0  0  0  0
   -2.6162    7.7660   11.6486 H   0  0  0  0  0  0  0  0  0  0  0  0
   -2.0594   11.6567   14.1537 H   0  0  0  0  0  0  0  0  0  0  0  0
   -2.0360   13.8043   12.9058 H   0  0  0  0  0  0  0  0  0  0  0  0
   -1.7213   13.8161   10.4448 H   0  0  0  0  0  0  0  0  0  0  0  0
   -1.4093   11.6789    9.2236 H   0  0  0  0  0  0  0  0  0  0  0  0
   -1.4238    9.5212   10.4566 H   0  0  0  0  0  0  0  0  0  0  0  0
   -7.8785    0.8699   17.5714 H   0  0  0  0  0  0  0  0  0  0  0  0
   -6.2086    0.8173   18.8209 H   0  0  0  0  0  0  0  0  0  0  0  0
   -5.1923   -1.1648   16.8605 H   0  0  0  0  0  0  0  0  0  0  0  0
   -6.2127   -0.9026   15.5494 H   0  0  0  0  0  0  0  0  0  0  0  0
  1  2  1  0
  1  9  1  0
  2  3  1  0
  3  4  2  0
  3  8  1  0
  4  5  1  0
  5  6  2  0
  6  7  1  0
  6 20  1  0
  7  8  2  0
  9 10  2  0
  9 13  1  0
 10 11  1  0
 11 12  1  0
 11 14  1  0
 12 13  2  0
 14 15  2  0
 14 19  1  0
 15 16  1  0
 16 17  2  0
 17 18  1  0
 18 19  2  0
 20 21  1  0
 20 22  1  0
 20 23  1  0
  1 24  1  0
  1 25  1  0
  4 26  1  0
  5 27  1  0
  7 28  1  0
  8 29  1  0
 10 30  1  0
 15 31  1  0
 16 32  1  0
 17 33  1  0
 18 34  1  0
 19 35  1  0
 21 36  1  0
 22 37  1  0
 23 38  1  0
 23 39  1  0
A    1
C1
A    2
O2
A    3
C4
A    4
C5
A    5
C6
A    6
C7
A    7
C8
A    8
C9
A    9
C16
A   10
C17
A   11
N18
A   12
N19
A   13
N20
A   14
C21
A   15
C22
A   16
C23
A   17
C24
A   18
C25
A   19
C26
A   20
S1
A   21
O3
A   22
O4
A   23
N5
M  END
