1XNY_1VU_A_5601
     RDKit          3D

 92 94  0  0  0  0  0  0  0  0999 V2000
   20.7040  -46.8180 -139.3020 O   0  0  0  0  0  0  0  0  0  0  0  0
   21.7180  -46.8830 -138.0530 P   0  0  0  0  0  0  0  0  0  0  0  0
   20.8900  -47.4880 -136.8100 O   0  0  0  0  0  0  0  0  0  0  0  0
   22.3110  -45.5620 -137.7470 O   0  0  0  0  0  0  0  0  0  0  0  0
   22.8290  -47.9860 -138.4380 O   0  0  0  0  0  0  0  0  0  0  0  0
   23.9180  -48.2650 -137.5540 C   0  0  0  0  0  0  0  0  0  0  0  0
   23.6480  -49.5590 -136.7860 C   0  0  0  0  0  0  0  0  0  0  0  0
   22.2540  -49.6570 -136.4870 O   0  0  0  0  0  0  0  0  0  0  0  0
   23.9870  -50.5410 -137.9060 C   0  0  0  0  0  0  0  0  0  0  0  0
   24.0460  -51.9480 -137.4430 N   0  0  0  0  0  0  0  0  0  0  0  0
   24.2770  -52.3760 -136.2020 C   0  0  0  0  0  0  0  0  0  0  0  0
   24.5050  -51.7510 -135.0360 N   0  0  0  0  0  0  0  0  0  0  0  0
   24.6840  -52.4360 -133.9190 C   0  0  0  0  0  0  0  0  0  0  0  0
   24.6440  -53.7580 -133.9170 N   0  0  0  0  0  0  0  0  0  0  0  0
   24.4190  -54.4480 -135.0450 C   0  0  0  0  0  0  0  0  0  0  0  0
   24.3690  -55.7770 -135.0230 N   0  0  0  0  0  0  0  0  0  0  0  0
   24.2280  -53.7600 -136.2370 C   0  0  0  0  0  0  0  0  0  0  0  0
   23.9790  -54.1250 -137.4920 N   0  0  0  0  0  0  0  0  0  0  0  0
   23.8690  -53.0140 -138.2170 C   0  0  0  0  0  0  0  0  0  0  0  0
   25.2780  -50.0630 -138.3170 O   0  0  0  0  0  0  0  0  0  0  0  0
   25.1680  -48.6270 -138.3650 C   0  0  0  0  0  0  0  0  0  0  0  0
   26.4230  -48.0160 -137.7300 C   0  0  0  0  0  0  0  0  0  0  0  0
   26.7740  -48.6580 -136.4960 O   0  0  0  0  0  0  0  0  0  0  0  0
   27.5890  -50.0560 -136.5430 P   0  0  0  0  0  0  0  0  0  0  0  0
   26.8260  -51.2560 -136.9740 O   0  0  0  0  0  0  0  0  0  0  0  0
   28.8170  -50.2270 -135.5190 O   0  0  0  0  0  0  0  0  0  0  0  0
   29.1600  -49.9970 -136.8940 O   0  0  0  0  0  0  0  0  0  0  0  0
   29.7750  -51.2670 -137.6810 P   0  0  0  0  0  0  0  0  0  0  0  0
   31.2450  -51.0990 -137.7740 O   0  0  0  0  0  0  0  0  0  0  0  0
   29.0240  -51.4840 -138.9380 O   0  0  0  0  0  0  0  0  0  0  0  0
   29.5060  -52.4980 -136.6740 O   0  0  0  0  0  0  0  0  0  0  0  0
   28.9880  -53.7370 -137.1690 C   0  0  0  0  0  0  0  0  0  0  0  0
   29.1070  -54.8420 -136.1170 C   0  0  0  0  0  0  0  0  0  0  0  0
   30.5530  -54.9100 -135.6200 C   0  0  0  0  0  0  0  0  0  0  0  0
   28.1950  -54.5100 -134.9340 C   0  0  0  0  0  0  0  0  0  0  0  0
   28.7180  -56.1970 -136.7140 C   0  0  0  0  0  0  0  0  0  0  0  0
   29.5150  -56.4640 -137.8710 O   0  0  0  0  0  0  0  0  0  0  0  0
   27.2300  -56.2750 -137.0760 C   0  0  0  0  0  0  0  0  0  0  0  0
   26.8140  -55.6780 -138.0680 O   0  0  0  0  0  0  0  0  0  0  0  0
   26.4360  -57.0010 -136.2890 N   0  0  0  0  0  0  0  0  0  0  0  0
   26.7720  -57.6810 -135.2040 C   0  0  0  0  0  0  0  0  0  0  0  0
   28.0620  -57.7440 -134.6840 C   0  0  0  0  0  0  0  0  0  0  0  0
   28.3660  -58.4760 -133.5420 C   0  0  0  0  0  0  0  0  0  0  0  0
   29.3430  -58.1440 -132.8710 O   0  0  0  0  0  0  0  0  0  0  0  0
   27.6010  -59.5180 -133.2270 N   0  0  0  0  0  0  0  0  0  0  0  0
   27.8570  -60.3580 -132.0490 C   0  0  0  0  0  0  0  0  0  0  0  0
   26.6640  -60.2400 -131.1010 C   0  0  0  0  0  0  0  0  0  0  0  0
   26.8980  -61.1330 -129.5210 S   0  0  0  0  0  0  0  0  0  0  0  0
   26.4780  -62.7680 -129.9880 C   0  0  0  0  0  0  0  0  0  0  0  0
   27.3540  -63.6290 -130.0260 O   0  0  0  0  0  0  0  0  0  0  0  0
   25.0260  -63.1190 -130.3240 C   0  0  0  0  0  0  0  0  0  0  0  0
   24.5570  -64.3080 -129.4830 C   0  0  0  0  0  0  0  0  0  0  0  0
   21.3018  -47.1871 -135.9615 H   0  0  0  0  0  0  0  0  0  0  0  0
   22.3642  -45.4435 -136.7656 H   0  0  0  0  0  0  0  0  0  0  0  0
   24.0405  -47.3806 -136.9115 H   0  0  0  0  0  0  0  0  0  0  0  0
   24.1835  -49.6843 -135.8334 H   0  0  0  0  0  0  0  0  0  0  0  0
   22.1269  -49.6659 -135.5052 H   0  0  0  0  0  0  0  0  0  0  0  0
   23.2324  -50.5688 -138.7059 H   0  0  0  0  0  0  0  0  0  0  0  0
   24.8689  -51.8982 -132.9774 H   0  0  0  0  0  0  0  0  0  0  0  0
   24.3502  -56.2768 -134.1226 H   0  0  0  0  0  0  0  0  0  0  0  0
   24.3491  -56.3063 -135.9064 H   0  0  0  0  0  0  0  0  0  0  0  0
   23.6622  -52.9828 -139.2969 H   0  0  0  0  0  0  0  0  0  0  0  0
   25.0842  -48.2457 -139.3934 H   0  0  0  0  0  0  0  0  0  0  0  0
   26.2374  -46.9496 -137.5341 H   0  0  0  0  0  0  0  0  0  0  0  0
   27.2583  -48.1549 -138.4322 H   0  0  0  0  0  0  0  0  0  0  0  0
   26.5113  -51.7510 -136.1765 H   0  0  0  0  0  0  0  0  0  0  0  0
   28.0951  -51.7524 -138.7253 H   0  0  0  0  0  0  0  0  0  0  0  0
   27.9283  -53.6040 -137.4324 H   0  0  0  0  0  0  0  0  0  0  0  0
   29.5716  -54.0318 -138.0536 H   0  0  0  0  0  0  0  0  0  0  0  0
   30.5630  -54.9105 -134.5200 H   0  0  0  0  0  0  0  0  0  0  0  0
   31.0254  -55.8314 -135.9914 H   0  0  0  0  0  0  0  0  0  0  0  0
   31.1098  -54.0370 -135.9914 H   0  0  0  0  0  0  0  0  0  0  0  0
   28.7299  -54.7047 -133.9927 H   0  0  0  0  0  0  0  0  0  0  0  0
   27.9070  -53.4493 -134.9794 H   0  0  0  0  0  0  0  0  0  0  0  0
   27.2925  -55.1373 -134.9794 H   0  0  0  0  0  0  0  0  0  0  0  0
   28.9051  -56.9590 -135.9430 H   0  0  0  0  0  0  0  0  0  0  0  0
   30.4149  -56.7655 -137.5894 H   0  0  0  0  0  0  0  0  0  0  0  0
   25.4422  -57.0372 -136.5571 H   0  0  0  0  0  0  0  0  0  0  0  0
   26.4826  -58.7229 -135.4058 H   0  0  0  0  0  0  0  0  0  0  0  0
   26.2661  -57.0897 -134.4265 H   0  0  0  0  0  0  0  0  0  0  0  0
   28.3580  -56.7062 -134.4710 H   0  0  0  0  0  0  0  0  0  0  0  0
   28.5957  -58.3061 -135.4645 H   0  0  0  0  0  0  0  0  0  0  0  0
   26.7987  -59.7444 -133.8320 H   0  0  0  0  0  0  0  0  0  0  0  0
   27.9814  -61.4057 -132.3603 H   0  0  0  0  0  0  0  0  0  0  0  0
   28.7754  -60.0268 -131.5422 H   0  0  0  0  0  0  0  0  0  0  0  0
   25.7765  -60.6504 -131.6050 H   0  0  0  0  0  0  0  0  0  0  0  0
   26.5485  -59.1737 -130.8566 H   0  0  0  0  0  0  0  0  0  0  0  0
   24.9531  -63.3781 -131.3906 H   0  0  0  0  0  0  0  0  0  0  0  0
   24.3882  -62.2508 -130.1018 H   0  0  0  0  0  0  0  0  0  0  0  0
   24.6538  -64.0626 -128.4151 H   0  0  0  0  0  0  0  0  0  0  0  0
   23.5045  -64.5285 -129.7146 H   0  0  0  0  0  0  0  0  0  0  0  0
   25.1755  -65.1876 -129.7146 H   0  0  0  0  0  0  0  0  0  0  0  0
 29 28  2  0
 52 51  1  0
 26 24  2  0
 32 31  1  0
 32 33  1  0
 35 33  1  0
 28 31  1  0
 28 30  1  0
 28 27  1  0
 34 33  1  0
 51 49  1  0
 33 36  1  0
 27 24  1  0
 24 25  1  0
 24 23  1  0
 49 48  1  0
 49 50  2  0
 48 47  1  0
 36 37  1  0
 36 38  1  0
 23 22  1  0
 39 38  2  0
 38 40  1  0
 45 46  1  0
 45 43  1  0
 22 21  1  0
 42 43  1  0
 42 41  1  0
 40 41  1  0
 46 47  1  0
 43 44  2  0
  6  7  1  0
  6 21  1  0
  6  5  1  0
 19 18  2  0
 19 10  1  0
  7  8  1  0
  7  9  1  0
 21 20  1  0
 18 17  1  0
  1  2  2  0
  3  2  1  0
 20  9  1  0
  5  2  1  0
 10  9  1  0
 10 11  1  0
  2  4  1  0
 17 11  1  0
 17 15  2  0
 11 12  2  0
 16 15  1  0
 15 14  1  0
 12 13  1  0
 14 13  2  0
  3 53  1  0
  4 54  1  0
  6 55  1  0
  7 56  1  0
  8 57  1  0
  9 58  1  0
 13 59  1  0
 16 60  1  0
 16 61  1  0
 19 62  1  0
 21 63  1  0
 22 64  1  0
 22 65  1  0
 25 66  1  0
 30 67  1  0
 32 68  1  0
 32 69  1  0
 34 70  1  0
 34 71  1  0
 34 72  1  0
 35 73  1  0
 35 74  1  0
 35 75  1  0
 36 76  1  0
 37 77  1  0
 40 78  1  0
 41 79  1  0
 41 80  1  0
 42 81  1  0
 42 82  1  0
 45 83  1  0
 46 84  1  0
 46 85  1  0
 47 86  1  0
 47 87  1  0
 51 88  1  0
 51 89  1  0
 52 90  1  0
 52 91  1  0
 52 92  1  0
A    1
O14
A    2
P2
A    3
O15
A    4
O16
A    5
O13
A    6
C23
A    7
C22
A    8
O12
A    9
C16
A   10
N2
A   11
C21
A   12
N6
A   13
C20
A   14
N5
A   15
C19
A   16
N4
A   17
C18
A   18
N3
A   19
C17
A   20
O11
A   21
C15
A   22
C14
A   23
O10
A   24
P1
A   25
O8
A   26
O9
A   27
O7
A   28
P
A   29
O5
A   30
O6
A   31
O4
A   32
C13
A   33
C10
A   34
C11
A   35
C12
A   36
C9
A   37
O3
A   38
C8
A   39
O2
A   40
N1
A   41
C7
A   42
C6
A   43
C5
A   44
O1
A   45
N
A   46
C4
A   47
C3
A   48
S
A   49
C2
A   50
O
A   51
C1
A   52
C
M  END
