5LL4_6YH_A_306
     RDKit          3D

 35 37  0  0  0  0  0  0  0  0999 V2000
    5.8350    8.0710   -2.5550 O   0  0  0  0  0  0  0  0  0  0  0  0
    6.5420    7.0970   -2.2830 C   0  0  0  0  0  0  0  0  0  0  0  0
    6.0160    5.9750   -1.4800 C   0  0  0  0  0  0  0  0  0  0  0  0
    4.6810    6.0390   -1.0900 C   0  0  0  0  0  0  0  0  0  0  0  0
    4.1960    4.9920   -0.2940 C   0  0  0  0  0  0  0  0  0  0  0  0
    6.8360    4.9300   -1.0520 C   0  0  0  0  0  0  0  0  0  0  0  0
    6.3430    3.9060   -0.2750 C   0  0  0  0  0  0  0  0  0  0  0  0
    4.9820    3.9130    0.0600 C   0  0  0  0  0  0  0  0  0  0  0  0
    4.3100    2.5880    1.0180 S   0  0  0  0  0  0  0  0  0  0  0  0
    4.9060    2.7670    2.3420 O   0  0  0  0  0  0  0  0  0  0  0  0
    4.8220    1.2170    0.3690 N   0  0  0  0  0  0  0  0  0  0  0  0
    2.9070    2.6870    0.9120 O   0  0  0  0  0  0  0  0  0  0  0  0
    8.0380    7.1060   -2.4150 C   0  0  0  0  0  0  0  0  0  0  0  0
    8.4070    8.3400   -3.1350 N   0  0  0  0  0  0  0  0  0  0  0  0
    8.6740    9.5130   -2.4800 C   0  0  0  0  0  0  0  0  0  0  0  0
    8.7440    9.7690   -1.1660 C   0  0  0  0  0  0  0  0  0  0  0  0
    9.1050   11.0430   -0.7500 C   0  0  0  0  0  0  0  0  0  0  0  0
    9.3320   12.0510   -1.6730 C   0  0  0  0  0  0  0  0  0  0  0  0
    9.2790   11.7960   -3.0300 C   0  0  0  0  0  0  0  0  0  0  0  0
    8.9510   10.4710   -3.4020 C   0  0  0  0  0  0  0  0  0  0  0  0
    8.8280    9.9420   -4.6430 N   0  0  0  0  0  0  0  0  0  0  0  0
    8.4050    8.6520   -4.4400 C   0  0  0  0  0  0  0  0  0  0  0  0
    4.0344    6.8755   -1.3936 H   0  0  0  0  0  0  0  0  0  0  0  0
    3.1553    5.0311    0.0603 H   0  0  0  0  0  0  0  0  0  0  0  0
    7.8973    4.9244   -1.3412 H   0  0  0  0  0  0  0  0  0  0  0  0
    7.0034    3.0992    0.0756 H   0  0  0  0  0  0  0  0  0  0  0  0
    5.0695    0.5542    1.1175 H   0  0  0  0  0  0  0  0  0  0  0  0
    4.0751    0.8132   -0.2140 H   0  0  0  0  0  0  0  0  0  0  0  0
    8.3712    6.2248   -2.9829 H   0  0  0  0  0  0  0  0  0  0  0  0
    8.5167    7.0745   -1.4251 H   0  0  0  0  0  0  0  0  0  0  0  0
    8.5192    8.9829   -0.4301 H   0  0  0  0  0  0  0  0  0  0  0  0
    9.2120   11.2547    0.3241 H   0  0  0  0  0  0  0  0  0  0  0  0
    9.5575   13.0684   -1.3207 H   0  0  0  0  0  0  0  0  0  0  0  0
    9.4801   12.5776   -3.7774 H   0  0  0  0  0  0  0  0  0  0  0  0
    8.1035    7.9633   -5.2430 H   0  0  0  0  0  0  0  0  0  0  0  0
 21 22  2  0
 21 20  1  0
 22 14  1  0
 20 19  2  0
 20 15  1  0
 14 15  1  0
 14 13  1  0
 19 18  1  0
  1  2  2  0
 15 16  2  0
 13  2  1  0
  2  3  1  0
 18 17  2  0
  3  4  2  0
  3  6  1  0
 16 17  1  0
  4  5  1  0
  6  7  2  0
  5  8  2  0
  7  8  1  0
  8  9  1  0
 11  9  1  0
 12  9  2  0
  9 10  2  0
  4 23  1  0
  5 24  1  0
  6 25  1  0
  7 26  1  0
 11 27  1  0
 11 28  1  0
 13 29  1  0
 13 30  1  0
 16 31  1  0
 17 32  1  0
 18 33  1  0
 19 34  1  0
 22 35  1  0
A    1
O12
A    2
C11
A    3
C4
A    4
C3
A    5
C2
A    6
C5
A    7
C6
A    8
C1
A    9
S7
A   10
O9
A   11
N10
A   12
O8
A   13
C13
A   14
N14
A   15
C18
A   16
C20
A   17
C21
A   18
C22
A   19
C23
A   20
C19
A   21
N17
A   22
C16
M  END
