5LL9_6YQ_A_302
     RDKit          3D

 35 37  0  0  0  0  0  0  0  0999 V2000
   26.0000    3.2550    7.6100 Cl  0  0  0  0  0  0  0  0  0  0  0  0
   25.7370    4.1070    9.0800 C   0  0  0  0  0  0  0  0  0  0  0  0
   24.7000    3.7490   10.0080 C   0  0  0  0  0  0  0  0  0  0  0  0
   23.6780    2.2950    9.7310 S   0  0  0  0  0  0  0  0  0  0  0  0
   22.9160    2.4840    8.5010 O   0  0  0  0  0  0  0  0  0  0  0  0
   22.7620    2.1840   10.9880 N   0  0  0  0  0  0  0  0  0  0  0  0
   24.6490    1.1140    9.7720 O   0  0  0  0  0  0  0  0  0  0  0  0
   26.5840    5.2290    9.4160 C   0  0  0  0  0  0  0  0  0  0  0  0
   26.3880    5.9080   10.5560 C   0  0  0  0  0  0  0  0  0  0  0  0
   25.3770    5.6060   11.4880 C   0  0  0  0  0  0  0  0  0  0  0  0
   24.5300    4.4920   11.2430 C   0  0  0  0  0  0  0  0  0  0  0  0
   27.2950    7.0770   10.7190 C   0  0  0  0  0  0  0  0  0  0  0  0
   28.2300    7.1590    9.9220 O   0  0  0  0  0  0  0  0  0  0  0  0
   26.9040    8.1390   11.6940 C   0  0  0  0  0  0  0  0  0  0  0  0
   27.6690    9.3610   11.5260 N   0  0  0  0  0  0  0  0  0  0  0  0
   27.6320   10.2970   10.5420 C   0  0  0  0  0  0  0  0  0  0  0  0
   26.8070   10.4480    9.3980 C   0  0  0  0  0  0  0  0  0  0  0  0
   27.0040   11.5520    8.5520 C   0  0  0  0  0  0  0  0  0  0  0  0
   27.9990   12.5100    8.8360 C   0  0  0  0  0  0  0  0  0  0  0  0
   28.8180   12.3540    9.9750 C   0  0  0  0  0  0  0  0  0  0  0  0
   28.6200   11.2340   10.8220 C   0  0  0  0  0  0  0  0  0  0  0  0
   29.3010   10.8960   11.9540 N   0  0  0  0  0  0  0  0  0  0  0  0
   28.6950    9.7360   12.3810 C   0  0  0  0  0  0  0  0  0  0  0  0
   23.3375    2.2537   11.8394 H   0  0  0  0  0  0  0  0  0  0  0  0
   22.0706    2.9474   10.9775 H   0  0  0  0  0  0  0  0  0  0  0  0
   27.3933    5.5275    8.7334 H   0  0  0  0  0  0  0  0  0  0  0  0
   25.2452    6.2217   12.3900 H   0  0  0  0  0  0  0  0  0  0  0  0
   23.7618    4.1989   11.9737 H   0  0  0  0  0  0  0  0  0  0  0  0
   27.0671    7.7587   12.7132 H   0  0  0  0  0  0  0  0  0  0  0  0
   25.8460    8.3815   11.5155 H   0  0  0  0  0  0  0  0  0  0  0  0
   26.0225    9.7096    9.1760 H   0  0  0  0  0  0  0  0  0  0  0  0
   26.3748   11.6706    7.6576 H   0  0  0  0  0  0  0  0  0  0  0  0
   28.1365   13.3762    8.1720 H   0  0  0  0  0  0  0  0  0  0  0  0
   29.6007   13.0926   10.2029 H   0  0  0  0  0  0  0  0  0  0  0  0
   28.9866    9.1786   13.2834 H   0  0  0  0  0  0  0  0  0  0  0  0
 14 15  1  0
 14 12  1  0
 10 11  2  0
 10  9  1  0
 23 15  1  0
 23 22  2  0
 15 16  1  0
 11  3  1  0
  6  4  1  0
 22 21  1  0
 16 21  1  0
 16 17  2  0
 21 20  2  0
 17 18  1  0
 12  9  1  0
 12 13  2  0
  9  8  2  0
 20 19  1  0
 18 19  2  0
  3  4  1  0
  3  2  2  0
  4  7  2  0
  4  5  2  0
  8  2  1  0
  2  1  1  0
  6 24  1  0
  6 25  1  0
  8 26  1  0
 10 27  1  0
 11 28  1  0
 14 29  1  0
 14 30  1  0
 17 31  1  0
 18 32  1  0
 19 33  1  0
 20 34  1  0
 23 35  1  0
A    1
CL1
A    2
C6
A    3
C1
A    4
S7
A    5
O9
A    6
N10
A    7
O8
A    8
C5
A    9
C4
A   10
C3
A   11
C2
A   12
C11
A   13
O12
A   14
C13
A   15
N14
A   16
C18
A   17
C20
A   18
C21
A   19
C22
A   20
C23
A   21
C19
A   22
N17
A   23
C16
M  END
