5LLC_V26_A_308
     RDKit          3D

 41 42  0  0  0  0  0  0  0  0999 V2000
   -3.3580    6.4880   12.8080 O   0  0  0  0  0  0  0  0  0  0  0  0
   -2.5100    5.6090   13.6470 S   0  0  0  0  0  0  0  0  0  0  0  0
   -1.7430    6.3010   14.6720 O   0  0  0  0  0  0  0  0  0  0  0  0
   -3.5210    4.3840   14.4390 C   0  0  0  0  0  0  0  0  0  0  0  0
   -2.8460    3.4430   15.2340 C   0  0  0  0  0  0  0  0  0  0  0  0
   -1.5340    3.5140   15.4000 F   0  0  0  0  0  0  0  0  0  0  0  0
   -3.5500    2.3900   15.8300 C   0  0  0  0  0  0  0  0  0  0  0  0
   -2.8390    1.4740   16.5060 F   0  0  0  0  0  0  0  0  0  0  0  0
   -4.9180    4.2640   14.2720 C   0  0  0  0  0  0  0  0  0  0  0  0
   -5.6480    5.1460   13.5040 N   0  0  0  0  0  0  0  0  0  0  0  0
   -6.7750    4.7220   12.6630 C   0  0  0  0  0  0  0  0  0  0  0  0
   -5.5650    3.2280   14.9960 C   0  0  0  0  0  0  0  0  0  0  0  0
   -6.8900    3.2540   14.9420 F   0  0  0  0  0  0  0  0  0  0  0  0
   -4.9490    2.2680   15.7770 C   0  0  0  0  0  0  0  0  0  0  0  0
   -5.7320    0.9550   16.7090 S   0  0  0  0  0  0  0  0  0  0  0  0
   -5.1870    1.1800   18.0420 O   0  0  0  0  0  0  0  0  0  0  0  0
   -5.2810   -0.4340   16.1090 N   0  0  0  0  0  0  0  0  0  0  0  0
   -7.1420    1.1230   16.5090 O   0  0  0  0  0  0  0  0  0  0  0  0
   -1.3850    4.7120   12.6080 C   0  0  0  0  0  0  0  0  0  0  0  0
   -2.0140    4.1800   11.3240 C   0  0  0  0  0  0  0  0  0  0  0  0
   -2.9170    3.0220   11.4620 C   0  0  0  0  0  0  0  0  0  0  0  0
   -2.7740    1.9620   12.4000 C   0  0  0  0  0  0  0  0  0  0  0  0
   -3.6560    0.9350   12.5190 C   0  0  0  0  0  0  0  0  0  0  0  0
   -4.7380    0.9100   11.6170 C   0  0  0  0  0  0  0  0  0  0  0  0
   -4.9310    2.0070   10.7630 C   0  0  0  0  0  0  0  0  0  0  0  0
   -4.0690    3.0750   10.7300 C   0  0  0  0  0  0  0  0  0  0  0  0
   -5.3925    6.1437   13.5207 H   0  0  0  0  0  0  0  0  0  0  0  0
   -7.6122    4.4070   13.3033 H   0  0  0  0  0  0  0  0  0  0  0  0
   -7.0947    5.5613   12.0279 H   0  0  0  0  0  0  0  0  0  0  0  0
   -6.4622    3.8801   12.0279 H   0  0  0  0  0  0  0  0  0  0  0  0
   -5.0690   -1.0871   16.8768 H   0  0  0  0  0  0  0  0  0  0  0  0
   -6.0398   -0.8203   15.5294 H   0  0  0  0  0  0  0  0  0  0  0  0
   -0.9922    3.8584   13.1799 H   0  0  0  0  0  0  0  0  0  0  0  0
   -0.5981    5.4192   12.3069 H   0  0  0  0  0  0  0  0  0  0  0  0
   -1.1968    3.8874   10.6483 H   0  0  0  0  0  0  0  0  0  0  0  0
   -2.6467    4.9984   10.9500 H   0  0  0  0  0  0  0  0  0  0  0  0
   -1.8995    1.9744   13.0671 H   0  0  0  0  0  0  0  0  0  0  0  0
   -3.5306    0.1569   13.2864 H   0  0  0  0  0  0  0  0  0  0  0  0
   -5.4189    0.0467   11.5827 H   0  0  0  0  0  0  0  0  0  0  0  0
   -5.8053    2.0112   10.0954 H   0  0  0  0  0  0  0  0  0  0  0  0
   -4.3029    3.9615   10.1222 H   0  0  0  0  0  0  0  0  0  0  0  0
 26 25  2  0
 26 21  1  0
 25 24  1  0
 20 21  1  0
 20 19  1  0
 21 22  2  0
 24 23  2  0
 22 23  1  0
 19  2  1  0
 11 10  1  0
  1  2  2  0
 10  9  1  0
  2  4  1  0
  2  3  2  0
  9  4  1  0
  9 12  2  0
  4  5  2  0
 13 12  1  0
 12 14  1  0
  5  6  1  0
  5  7  1  0
 14  7  2  0
 14 15  1  0
  7  8  1  0
 17 15  1  0
 18 15  2  0
 15 16  2  0
 10 27  1  0
 11 28  1  0
 11 29  1  0
 11 30  1  0
 17 31  1  0
 17 32  1  0
 19 33  1  0
 19 34  1  0
 20 35  1  0
 20 36  1  0
 22 37  1  0
 23 38  1  0
 24 39  1  0
 25 40  1  0
 26 41  1  0
A    1
O16
A    2
S14
A    3
O15
A    4
C8
A    5
C7
A    6
F12
A    7
C6
A    8
F11
A    9
C9
A   10
N25
A   11
C26
A   12
C10
A   13
F13
A   14
C5
A   15
S1
A   16
O3
A   17
N4
A   18
O2
A   19
C17
A   20
C18
A   21
C19
A   22
C24
A   23
C23
A   24
C22
A   25
C21
A   26
C20
M  END
