5LLP_6Z9_A_302
     RDKit          3D

 49 51  0  0  0  0  0  0  0  0999 V2000
   24.1210    3.7750   11.4910 C   0  0  0  0  0  0  0  0  0  0  0  0
   23.5520    3.9310   12.7470 C   0  0  0  0  0  0  0  0  0  0  0  0
   25.0750    5.7560   13.3330 C   0  0  0  0  0  0  0  0  0  0  0  0
   24.0000    4.8920   13.6480 C   0  0  0  0  0  0  0  0  0  0  0  0
   25.7190    6.3220   16.2240 C   0  0  0  0  0  0  0  0  0  0  0  0
   26.7960    5.2580   16.1360 C   0  0  0  0  0  0  0  0  0  0  0  0
   25.6890    5.5590   12.1080 C   0  0  0  0  0  0  0  0  0  0  0  0
   26.5940    7.2760   10.4950 C   0  0  0  0  0  0  0  0  0  0  0  0
   25.6020    8.4400   10.6860 C   0  0  0  0  0  0  0  0  0  0  0  0
   26.2990    9.6860   11.2060 C   0  0  0  0  0  0  0  0  0  0  0  0
   27.3920   10.1070   10.2170 C   0  0  0  0  0  0  0  0  0  0  0  0
   28.3710    8.9940    9.9640 C   0  0  0  0  0  0  0  0  0  0  0  0
   27.9790    7.6440   10.0710 C   0  0  0  0  0  0  0  0  0  0  0  0
   28.8790    6.6070    9.8290 C   0  0  0  0  0  0  0  0  0  0  0  0
   30.1920    6.9110    9.4590 C   0  0  0  0  0  0  0  0  0  0  0  0
   30.5890    8.2480    9.3540 C   0  0  0  0  0  0  0  0  0  0  0  0
   29.6910    9.2880    9.6070 C   0  0  0  0  0  0  0  0  0  0  0  0
   25.1910    4.6090   11.2240 C   0  0  0  0  0  0  0  0  0  0  0  0
   24.7300    1.6810    9.9500 O   0  0  0  0  0  0  0  0  0  0  0  0
   23.5990    2.5490   10.2750 S   0  0  0  0  0  0  0  0  0  0  0  0
   23.0640    3.2340    9.0670 O   0  0  0  0  0  0  0  0  0  0  0  0
   22.3660    1.6770   10.9110 N   0  0  0  0  0  0  0  0  0  0  0  0
   25.8210    4.4210   10.0640 F   0  0  0  0  0  0  0  0  0  0  0  0
   25.5160    6.9890   14.5840 S   0  0  0  0  0  0  0  0  0  0  0  0
   26.7540    7.8800   14.2790 O   0  0  0  0  0  0  0  0  0  0  0  0
   26.2340    4.0330   15.8850 O   0  0  0  0  0  0  0  0  0  0  0  0
   24.5190    8.1920   14.5650 O   0  0  0  0  0  0  0  0  0  0  0  0
   23.4120    5.0280   14.8740 F   0  0  0  0  0  0  0  0  0  0  0  0
   22.4980    3.1960   13.1590 F   0  0  0  0  0  0  0  0  0  0  0  0
   26.7520    6.3890   11.6660 N   0  0  0  0  0  0  0  0  0  0  0  0
   26.0276    7.1161   16.9199 H   0  0  0  0  0  0  0  0  0  0  0  0
   24.7750    5.8972   16.5962 H   0  0  0  0  0  0  0  0  0  0  0  0
   27.3449    5.2173   17.0884 H   0  0  0  0  0  0  0  0  0  0  0  0
   27.4838    5.5114   15.3158 H   0  0  0  0  0  0  0  0  0  0  0  0
   26.0860    6.7536    9.6709 H   0  0  0  0  0  0  0  0  0  0  0  0
   25.1314    8.6709    9.7189 H   0  0  0  0  0  0  0  0  0  0  0  0
   24.8475    8.1327   11.4251 H   0  0  0  0  0  0  0  0  0  0  0  0
   26.7524    9.4715   12.1850 H   0  0  0  0  0  0  0  0  0  0  0  0
   25.5665   10.4996   11.3130 H   0  0  0  0  0  0  0  0  0  0  0  0
   27.9332   10.9709   10.6302 H   0  0  0  0  0  0  0  0  0  0  0  0
   26.9103   10.3640    9.2621 H   0  0  0  0  0  0  0  0  0  0  0  0
   28.5586    5.5594    9.9284 H   0  0  0  0  0  0  0  0  0  0  0  0
   30.9092    6.1032    9.2515 H   0  0  0  0  0  0  0  0  0  0  0  0
   31.6245    8.4844    9.0677 H   0  0  0  0  0  0  0  0  0  0  0  0
   30.0209   10.3342    9.5257 H   0  0  0  0  0  0  0  0  0  0  0  0
   22.4154    1.7119   11.9392 H   0  0  0  0  0  0  0  0  0  0  0  0
   21.4682    2.0721   10.5968 H   0  0  0  0  0  0  0  0  0  0  0  0
   26.0275    3.5828   16.7422 H   0  0  0  0  0  0  0  0  0  0  0  0
   27.6498    6.3727   12.1706 H   0  0  0  0  0  0  0  0  0  0  0  0
 21 20  2  0
 16 15  2  0
 16 17  1  0
 15 14  1  0
 17 12  2  0
 14 13  2  0
 19 20  2  0
 12 13  1  0
 12 11  1  0
 23 18  1  0
 13  8  1  0
 11 10  1  0
 20 22  1  0
 20  1  1  0
  8  9  1  0
  8 30  1  0
  9 10  1  0
 18  1  2  0
 18  7  1  0
  1  2  1  0
 30  7  1  0
  7  3  2  0
  2 29  1  0
  2  4  2  0
  3  4  1  0
  3 24  1  0
  4 28  1  0
 25 24  2  0
 27 24  2  0
 24  5  1  0
 26  6  1  0
  6  5  1  0
  5 31  1  0
  5 32  1  0
  6 33  1  0
  6 34  1  0
  8 35  1  0
  9 36  1  0
  9 37  1  0
 10 38  1  0
 10 39  1  0
 11 40  1  0
 11 41  1  0
 14 42  1  0
 15 43  1  0
 16 44  1  0
 17 45  1  0
 22 46  1  0
 22 47  1  0
 26 48  1  0
 30 49  1  0
A    1
C3
A    2
C4
A    3
C8
A    4
C6
A    5
C11
A    6
C12
A    7
C15
A    8
C17
A    9
C18
A   10
C19
A   11
C20
A   12
C21
A   13
C22
A   14
C23
A   15
C24
A   16
C25
A   17
C26
A   18
C27
A   19
O30
A   20
S2
A   21
O1
A   22
N29
A   23
F28
A   24
S9
A   25
O14
A   26
O13
A   27
O10
A   28
F7
A   29
F5
A   30
N16
M  END
