5LLS_6Z8_A_809
     RDKit          3D

 51 54  0  0  0  0  0  0  0  0999 V2000
   -7.7840   21.6160    2.5860 N   0  0  0  0  0  0  0  0  0  0  0  0
   -8.5340   20.4180    2.9850 C   0  0  0  0  0  0  0  0  0  0  0  0
   -6.6830   23.0570    1.3940 C   0  0  0  0  0  0  0  0  0  0  0  0
   -7.7060   21.3100    0.0320 C   0  0  0  0  0  0  0  0  0  0  0  0
   -7.5570   21.3760    5.6200 C   0  0  0  0  0  0  0  0  0  0  0  0
   -8.2040   17.9170    3.3400 C   0  0  0  0  0  0  0  0  0  0  0  0
   -6.4620   23.2170   -0.9970 C   0  0  0  0  0  0  0  0  0  0  0  0
   -6.1800   20.9290    6.1090 C   0  0  0  0  0  0  0  0  0  0  0  0
   -5.5590   23.3420    6.3040 C   0  0  0  0  0  0  0  0  0  0  0  0
   -7.4070   16.7900    3.4510 C   0  0  0  0  0  0  0  0  0  0  0  0
   -5.4730   18.1560    3.1400 C   0  0  0  0  0  0  0  0  0  0  0  0
   -5.6220   21.9980    7.0300 C   0  0  0  0  0  0  0  0  0  0  0  0
   -6.0320   16.9240    3.3800 C   0  0  0  0  0  0  0  0  0  0  0  0
   -7.4190   21.9370    1.2860 C   0  0  0  0  0  0  0  0  0  0  0  0
   -7.2070   22.5700    3.4050 C   0  0  0  0  0  0  0  0  0  0  0  0
   -6.5590   23.4760    2.6840 N   0  0  0  0  0  0  0  0  0  0  0  0
   -7.3560   22.5800    4.8090 N   0  0  0  0  0  0  0  0  0  0  0  0
   -7.6730   19.1810    3.0950 C   0  0  0  0  0  0  0  0  0  0  0  0
   -6.1840   23.7100    0.2770 N   0  0  0  0  0  0  0  0  0  0  0  0
   -7.2030   22.0350   -1.0730 N   0  0  0  0  0  0  0  0  0  0  0  0
   -8.3860   20.3080   -0.1340 O   0  0  0  0  0  0  0  0  0  0  0  0
   -6.8960   23.6850    5.6590 C   0  0  0  0  0  0  0  0  0  0  0  0
   -6.2810   19.2700    2.9930 C   0  0  0  0  0  0  0  0  0  0  0  0
   -5.4140   24.9520    0.3960 C   0  0  0  0  0  0  0  0  0  0  0  0
   -7.4480   21.4860   -2.4140 C   0  0  0  0  0  0  0  0  0  0  0  0
  -10.0780   17.6870    3.5300 Br  0  0  0  0  0  0  0  0  0  0  0  0
   -6.0590   23.7800   -2.0010 O   0  0  0  0  0  0  0  0  0  0  0  0
   -6.2920   19.6220    6.8230 N   0  0  0  0  0  0  0  0  0  0  0  0
   -8.9991   20.6075    3.9637 H   0  0  0  0  0  0  0  0  0  0  0  0
   -9.2808   20.2257    2.2006 H   0  0  0  0  0  0  0  0  0  0  0  0
   -8.2068   21.6031    6.4780 H   0  0  0  0  0  0  0  0  0  0  0  0
   -8.0398   20.5827    5.0304 H   0  0  0  0  0  0  0  0  0  0  0  0
   -5.5006   20.7928    5.2547 H   0  0  0  0  0  0  0  0  0  0  0  0
   -4.7865   23.2914    5.5226 H   0  0  0  0  0  0  0  0  0  0  0  0
   -5.3173   24.1234    7.0396 H   0  0  0  0  0  0  0  0  0  0  0  0
   -7.8624   15.7989    3.5941 H   0  0  0  0  0  0  0  0  0  0  0  0
   -4.3803   18.2572    3.0645 H   0  0  0  0  0  0  0  0  0  0  0  0
   -6.2718   22.0922    7.9126 H   0  0  0  0  0  0  0  0  0  0  0  0
   -4.6065   21.7099    7.3395 H   0  0  0  0  0  0  0  0  0  0  0  0
   -5.3860   16.0441    3.5157 H   0  0  0  0  0  0  0  0  0  0  0  0
   -6.7798   24.5900    5.0446 H   0  0  0  0  0  0  0  0  0  0  0  0
   -7.6392   23.8571    6.4515 H   0  0  0  0  0  0  0  0  0  0  0  0
   -5.8180   20.2472    2.7914 H   0  0  0  0  0  0  0  0  0  0  0  0
   -5.2658   25.1911    1.4594 H   0  0  0  0  0  0  0  0  0  0  0  0
   -4.4359   24.8251   -0.0911 H   0  0  0  0  0  0  0  0  0  0  0  0
   -5.9626   25.7716   -0.0911 H   0  0  0  0  0  0  0  0  0  0  0  0
   -7.8948   20.4848   -2.3243 H   0  0  0  0  0  0  0  0  0  0  0  0
   -8.1365   22.1471   -2.9607 H   0  0  0  0  0  0  0  0  0  0  0  0
   -6.4961   21.4151   -2.9607 H   0  0  0  0  0  0  0  0  0  0  0  0
   -6.2781   19.7841    7.8401 H   0  0  0  0  0  0  0  0  0  0  0  0
   -7.1755   19.1621    6.5607 H   0  0  0  0  0  0  0  0  0  0  0  0
 25 20  1  0
 27  7  2  0
 20  7  1  0
 20  4  1  0
  7 19  1  0
 21  4  2  0
  4 14  1  0
 19 24  1  0
 19  3  1  0
 14  3  2  0
 14  1  1  0
  3 16  1  0
  1  2  1  0
  1 15  1  0
 16 15  2  0
  2 18  1  0
 23 18  1  0
 23 11  2  0
 18  6  2  0
 11 13  1  0
  6 10  1  0
  6 26  1  0
 13 10  2  0
 15 17  1  0
 17  5  1  0
 17 22  1  0
  5  8  1  0
 22  9  1  0
  8 28  1  0
  8 12  1  0
  9 12  1  0
  2 29  1  0
  2 30  1  0
  5 31  1  0
  5 32  1  0
  8 33  1  0
  9 34  1  0
  9 35  1  0
 10 36  1  0
 11 37  1  0
 12 38  1  0
 12 39  1  0
 13 40  1  0
 22 41  1  0
 22 42  1  0
 23 43  1  0
 24 44  1  0
 24 45  1  0
 24 46  1  0
 25 47  1  0
 25 48  1  0
 25 49  1  0
 28 50  1  0
 28 51  1  0
A    1
N1
A    2
C4
A    3
C5
A    4
C6
A    5
C13
A    6
C15
A    7
C17
A    8
C20
A    9
C21
A   10
C22
A   11
C24
A   12
C26
A   13
C28
A   14
C2
A   15
C3
A   16
N7
A   17
N8
A   18
C9
A   19
N10
A   20
N11
A   21
O12
A   22
C14
A   23
C16
A   24
C18
A   25
C19
A   26
BR
A   27
O25
A   28
N27
M  END
