5LMD_RC4_A_302
     RDKit          3D

 42 44  0  0  0  0  0  0  0  0999 V2000
   -6.8160    4.0030   15.5170 C   0  0  0  0  0  0  0  0  0  0  0  0
   -5.7410    4.6620   14.9550 C   0  0  0  0  0  0  0  0  0  0  0  0
   -4.4930    4.0630   14.8630 C   0  0  0  0  0  0  0  0  0  0  0  0
   -4.3170    2.7750   15.3410 C   0  0  0  0  0  0  0  0  0  0  0  0
   -5.3900    2.0760   15.9200 C   0  0  0  0  0  0  0  0  0  0  0  0
   -6.6380    2.6970   16.0010 C   0  0  0  0  0  0  0  0  0  0  0  0
   -7.6150    1.7440   16.5990 C   0  0  0  0  0  0  0  0  0  0  0  0
   -5.6020    0.6380   16.6200 B   0  0  0  0  0  0  0  0  0  0  0  0
   -5.3120    0.6140   18.0410 O   0  0  0  0  0  0  0  0  0  0  0  0
    1.6190    6.5210   11.6440 C   0  0  0  0  0  0  0  0  0  0  0  0
    0.3830    8.9070   12.3870 C   0  0  0  0  0  0  0  0  0  0  0  0
   -0.1850    7.6860   12.7000 C   0  0  0  0  0  0  0  0  0  0  0  0
   -0.1950   10.1000   12.7720 C   0  0  0  0  0  0  0  0  0  0  0  0
   -1.3730   10.0360   13.4930 C   0  0  0  0  0  0  0  0  0  0  0  0
   -1.9520    8.8340   13.8160 C   0  0  0  0  0  0  0  0  0  0  0  0
   -1.3740    7.6270   13.4260 C   0  0  0  0  0  0  0  0  0  0  0  0
   -4.0080    6.9140   14.4100 O   0  0  0  0  0  0  0  0  0  0  0  0
    0.3590    6.4980   12.3280 O   0  0  0  0  0  0  0  0  0  0  0  0
   -3.3420    4.7170   14.3650 N   0  0  0  0  0  0  0  0  0  0  0  0
   -1.9120    6.3470   13.7120 N   0  0  0  0  0  0  0  0  0  0  0  0
   -3.1490    6.0610   14.1880 C   0  0  0  0  0  0  0  0  0  0  0  0
   -2.0400   11.3300   13.9300 C   0  0  0  0  0  0  0  0  0  0  0  0
   -5.0830   -0.5410   15.9930 O   0  0  0  0  0  0  0  0  0  0  0  0
   -7.0160    0.4640   16.4630 O   0  0  0  0  0  0  0  0  0  0  0  0
   -7.7980    4.4940   15.5847 H   0  0  0  0  0  0  0  0  0  0  0  0
   -5.8769    5.6841   14.5719 H   0  0  0  0  0  0  0  0  0  0  0  0
   -3.3298    2.2955   15.2669 H   0  0  0  0  0  0  0  0  0  0  0  0
   -7.7844    1.9800   17.6599 H   0  0  0  0  0  0  0  0  0  0  0  0
   -8.5954    1.7944   16.1028 H   0  0  0  0  0  0  0  0  0  0  0  0
   -6.1573    0.6840   18.5515 H   0  0  0  0  0  0  0  0  0  0  0  0
    2.4358    6.5359   12.3806 H   0  0  0  0  0  0  0  0  0  0  0  0
    1.7103    5.6244   11.0133 H   0  0  0  0  0  0  0  0  0  0  0  0
    1.6775    7.4204   11.0133 H   0  0  0  0  0  0  0  0  0  0  0  0
    1.3223    8.9284   11.8149 H   0  0  0  0  0  0  0  0  0  0  0  0
    0.2646   11.0657   12.5147 H   0  0  0  0  0  0  0  0  0  0  0  0
   -2.8886    8.8231   14.3928 H   0  0  0  0  0  0  0  0  0  0  0  0
   -2.5532    4.1084   14.1038 H   0  0  0  0  0  0  0  0  0  0  0  0
   -1.2926    5.5425   13.5384 H   0  0  0  0  0  0  0  0  0  0  0  0
   -2.0643   11.3771   15.0287 H   0  0  0  0  0  0  0  0  0  0  0  0
   -1.4709   12.1862   13.5388 H   0  0  0  0  0  0  0  0  0  0  0  0
   -3.0675   11.3632   13.5388 H   0  0  0  0  0  0  0  0  0  0  0  0
   -4.7989   -1.1864   16.6878 H   0  0  0  0  0  0  0  0  0  0  0  0
 10 18  1  0
 18 12  1  0
 11 12  2  0
 11 13  1  0
 12 16  1  0
 13 14  2  0
 16 20  1  0
 16 15  2  0
 14 15  1  0
 14 22  1  0
 20 21  1  0
 21 19  1  0
 21 17  2  0
 19  3  1  0
  3  2  1  0
  3  4  2  0
  2  1  2  0
  4  5  1  0
  1  6  1  0
  5  6  2  0
  5  8  1  0
 23  8  1  0
  6  7  1  0
 24  7  1  0
 24  8  1  0
  8  9  1  0
  1 25  1  0
  2 26  1  0
  4 27  1  0
  7 28  1  0
  7 29  1  0
  9 30  1  0
 10 31  1  0
 10 32  1  0
 10 33  1  0
 11 34  1  0
 13 35  1  0
 15 36  1  0
 19 37  1  0
 20 38  1  0
 22 39  1  0
 22 40  1  0
 22 41  1  0
 23 42  1  0
M  CHG  1   8  -1
A    1
C5
A    2
C4
A    3
C3
A    4
C2
A    5
C1
A    6
C6
A    7
C7
A    8
B1
A    9
O3
A   10
C16
A   11
C11
A   12
C10
A   13
C12
A   14
C13
A   15
C14
A   16
C9
A   17
O4
A   18
O5
A   19
N1
A   20
N2
A   21
C8
A   22
C15
A   23
O2
A   24
O1
M  END
