5LNY_70K_A_301
     RDKit          3D

 63 67  0  0  0  0  0  0  0  0999 V2000
   -0.7850   10.5300   27.0760 C   0  0  0  0  0  0  0  0  0  0  0  0
   -1.8310   11.5030   25.0170 C   0  0  0  0  0  0  0  0  0  0  0  0
   -0.5520   12.4360   23.1940 C   0  0  0  0  0  0  0  0  0  0  0  0
    0.6410   12.1150   23.9110 C   0  0  0  0  0  0  0  0  0  0  0  0
    1.7110   12.5670   23.0140 C   0  0  0  0  0  0  0  0  0  0  0  0
    3.1560   12.3810   23.2680 C   0  0  0  0  0  0  0  0  0  0  0  0
    0.5780    8.6330   26.3080 C   0  0  0  0  0  0  0  0  0  0  0  0
    0.8090    7.4990   24.1530 C   0  0  0  0  0  0  0  0  0  0  0  0
    2.7390    7.8850   25.5850 C   0  0  0  0  0  0  0  0  0  0  0  0
    0.0260    8.1460   25.1070 C   0  0  0  0  0  0  0  0  0  0  0  0
   -0.3720    8.5440   28.5420 C   0  0  0  0  0  0  0  0  0  0  0  0
    3.0840    6.7290   23.4790 N   0  0  0  0  0  0  0  0  0  0  0  0
    2.4920    6.1710   22.2290 C   0  0  0  0  0  0  0  0  0  0  0  0
    5.1710    5.4600   23.0670 C   0  0  0  0  0  0  0  0  0  0  0  0
    5.3810   12.8940   24.1640 C   0  0  0  0  0  0  0  0  0  0  0  0
    6.0420   13.4860   25.4180 C   0  0  0  0  0  0  0  0  0  0  0  0
    5.6930   14.9800   25.4940 C   0  0  0  0  0  0  0  0  0  0  0  0
    4.1760   15.1350   25.7210 C   0  0  0  0  0  0  0  0  0  0  0  0
   -0.2150    9.2900   27.2800 N   0  0  0  0  0  0  0  0  0  0  0  0
   -1.5100   11.0400   27.9280 O   0  0  0  0  0  0  0  0  0  0  0  0
   -0.6570   11.2510   25.7730 C   0  0  0  0  0  0  0  0  0  0  0  0
    0.5990   11.5480   25.1840 C   0  0  0  0  0  0  0  0  0  0  0  0
   -1.7860   12.1140   23.7670 C   0  0  0  0  0  0  0  0  0  0  0  0
   -3.0360   11.1990   25.5540 O   0  0  0  0  0  0  0  0  0  0  0  0
    1.1330   13.0290   21.9160 N   0  0  0  0  0  0  0  0  0  0  0  0
   -0.1530   12.9890   21.9910 N   0  0  0  0  0  0  0  0  0  0  0  0
    3.6290   11.3750   22.7580 O   0  0  0  0  0  0  0  0  0  0  0  0
    1.9600    8.5060   26.5450 C   0  0  0  0  0  0  0  0  0  0  0  0
    2.2010    7.3670   24.3940 C   0  0  0  0  0  0  0  0  0  0  0  0
    3.5930    5.6840   21.2640 C   0  0  0  0  0  0  0  0  0  0  0  0
    4.4450    4.8050   22.0130 O   0  0  0  0  0  0  0  0  0  0  0  0
    4.1470    5.9040   24.1250 C   0  0  0  0  0  0  0  0  0  0  0  0
    3.3510   14.4570   24.6110 C   0  0  0  0  0  0  0  0  0  0  0  0
    3.9220   13.2030   24.0450 N   0  0  0  0  0  0  0  0  0  0  0  0
    0.3577    7.0992   23.2330 H   0  0  0  0  0  0  0  0  0  0  0  0
    3.8210    7.7930   25.7604 H   0  0  0  0  0  0  0  0  0  0  0  0
   -1.0493    8.2797   24.9176 H   0  0  0  0  0  0  0  0  0  0  0  0
   -0.2282    9.2271   29.3921 H   0  0  0  0  0  0  0  0  0  0  0  0
   -1.3813    8.1091   28.5877 H   0  0  0  0  0  0  0  0  0  0  0  0
    0.3764    7.7392   28.5877 H   0  0  0  0  0  0  0  0  0  0  0  0
    1.8985    6.9526   21.7322 H   0  0  0  0  0  0  0  0  0  0  0  0
    1.8558    5.3140   22.4952 H   0  0  0  0  0  0  0  0  0  0  0  0
    5.8951    4.7630   23.5140 H   0  0  0  0  0  0  0  0  0  0  0  0
    5.7254    6.3260   22.6762 H   0  0  0  0  0  0  0  0  0  0  0  0
    5.5025   11.8011   24.1915 H   0  0  0  0  0  0  0  0  0  0  0  0
    5.8764   13.3521   23.2953 H   0  0  0  0  0  0  0  0  0  0  0  0
    5.6655   12.9710   26.3141 H   0  0  0  0  0  0  0  0  0  0  0  0
    7.1331   13.3561   25.3658 H   0  0  0  0  0  0  0  0  0  0  0  0
    6.2392   15.4435   26.3288 H   0  0  0  0  0  0  0  0  0  0  0  0
    5.9786   15.4746   24.5539 H   0  0  0  0  0  0  0  0  0  0  0  0
    3.9284   16.2066   25.7425 H   0  0  0  0  0  0  0  0  0  0  0  0
    3.9250   14.6477   26.6747 H   0  0  0  0  0  0  0  0  0  0  0  0
    1.5313   11.3329   25.7268 H   0  0  0  0  0  0  0  0  0  0  0  0
   -2.7191   12.3429   23.2313 H   0  0  0  0  0  0  0  0  0  0  0  0
   -3.1468   11.1710   26.5374 H   0  0  0  0  0  0  0  0  0  0  0  0
    1.6507   13.3795   21.0974 H   0  0  0  0  0  0  0  0  0  0  0  0
    2.4099    8.8915   27.4718 H   0  0  0  0  0  0  0  0  0  0  0  0
    4.1711    6.5404   20.8866 H   0  0  0  0  0  0  0  0  0  0  0  0
    3.1562    5.1653   20.3979 H   0  0  0  0  0  0  0  0  0  0  0  0
    3.6908    5.0165   24.5878 H   0  0  0  0  0  0  0  0  0  0  0  0
    4.6549    6.5019   24.8961 H   0  0  0  0  0  0  0  0  0  0  0  0
    3.2393   15.1774   23.7873 H   0  0  0  0  0  0  0  0  0  0  0  0
    2.4026   14.1631   25.0845 H   0  0  0  0  0  0  0  0  0  0  0  0
 30 31  1  0
 30 13  1  0
 25 26  1  0
 25  5  1  0
 26  3  2  0
 31 14  1  0
 13 12  1  0
 27  6  2  0
  5  6  1  0
  5  4  2  0
 14 32  1  0
  3 23  1  0
  3  4  1  0
  6 34  1  0
 12 32  1  0
 12 29  1  0
 23  2  2  0
  4 22  1  0
 34 15  1  0
 34 33  1  0
  8 29  2  0
  8 10  1  0
 15 16  1  0
 29  9  1  0
 33 18  1  0
  2 24  1  0
  2 21  1  0
 10  7  2  0
 22 21  2  0
 16 17  1  0
 17 18  1  0
  9 28  2  0
 21  1  1  0
  7 28  1  0
  7 19  1  0
  1 19  1  0
  1 20  2  0
 19 11  1  0
  8 35  1  0
  9 36  1  0
 10 37  1  0
 11 38  1  0
 11 39  1  0
 11 40  1  0
 13 41  1  0
 13 42  1  0
 14 43  1  0
 14 44  1  0
 15 45  1  0
 15 46  1  0
 16 47  1  0
 16 48  1  0
 17 49  1  0
 17 50  1  0
 18 51  1  0
 18 52  1  0
 22 53  1  0
 23 54  1  0
 24 55  1  0
 25 56  1  0
 28 57  1  0
 30 58  1  0
 30 59  1  0
 32 60  1  0
 32 61  1  0
 33 62  1  0
 33 63  1  0
A    1
C1
A    2
C7
A    3
C9
A    4
C10
A    5
C11
A    6
C14
A    7
C16
A    8
C19
A    9
C20
A   10
C21
A   11
C22
A   12
N23
A   13
C24
A   14
C27
A   15
C31
A   16
C32
A   17
C33
A   18
C34
A   19
N2
A   20
O3
A   21
C4
A   22
C5
A   23
C6
A   24
O8
A   25
N12
A   26
N13
A   27
O15
A   28
C17
A   29
C18
A   30
C25
A   31
O26
A   32
C28
A   33
C29
A   34
N30
M  END
