5LO5_70M_A_301
     RDKit          3D

 55 58  0  0  0  0  0  0  0  0999 V2000
    0.5100   33.7950   25.3510 C   0  0  0  0  0  0  0  0  0  0  0  0
   -0.6870   33.4170   26.0550 C   0  0  0  0  0  0  0  0  0  0  0  0
    1.6270   33.4200   26.2310 C   0  0  0  0  0  0  0  0  0  0  0  0
    1.0540   32.8550   27.3720 C   0  0  0  0  0  0  0  0  0  0  0  0
    3.1190   33.6010   25.9780 C   0  0  0  0  0  0  0  0  0  0  0  0
   -0.8540   34.6200   23.4870 C   0  0  0  0  0  0  0  0  0  0  0  0
   -2.0390   34.2480   24.2000 C   0  0  0  0  0  0  0  0  0  0  0  0
    3.5660   32.9680   24.6450 C   0  0  0  0  0  0  0  0  0  0  0  0
   -0.9630   35.2150   22.1870 C   0  0  0  0  0  0  0  0  0  0  0  0
    3.5350   31.4380   24.7380 C   0  0  0  0  0  0  0  0  0  0  0  0
    4.2280   30.8200   23.5120 C   0  0  0  0  0  0  0  0  0  0  0  0
    6.4120   30.3520   24.5190 C   0  0  0  0  0  0  0  0  0  0  0  0
    7.7130   31.3930   22.1280 C   0  0  0  0  0  0  0  0  0  0  0  0
    7.8740   30.8140   24.5420 C   0  0  0  0  0  0  0  0  0  0  0  0
   10.6490   31.1530   24.2650 C   0  0  0  0  0  0  0  0  0  0  0  0
   11.9530   30.7140   21.7920 C   0  0  0  0  0  0  0  0  0  0  0  0
    0.4180   34.3960   24.0660 C   0  0  0  0  0  0  0  0  0  0  0  0
   -0.3110   32.8600   27.2560 N   0  0  0  0  0  0  0  0  0  0  0  0
   -1.9520   33.6540   25.4670 C   0  0  0  0  0  0  0  0  0  0  0  0
   -3.2550   34.4690   23.6440 O   0  0  0  0  0  0  0  0  0  0  0  0
   -1.0640   35.6660   21.1500 N   0  0  0  0  0  0  0  0  0  0  0  0
    5.6700   31.1410   23.5010 N   0  0  0  0  0  0  0  0  0  0  0  0
    6.2370   30.9450   22.1400 C   0  0  0  0  0  0  0  0  0  0  0  0
    8.4620   30.6430   23.1780 N   0  0  0  0  0  0  0  0  0  0  0  0
    9.8800   30.7960   23.1100 C   0  0  0  0  0  0  0  0  0  0  0  0
   10.5600   30.5800   21.8710 C   0  0  0  0  0  0  0  0  0  0  0  0
   12.0390   31.2850   24.1840 C   0  0  0  0  0  0  0  0  0  0  0  0
   12.7040   31.0650   22.9480 C   0  0  0  0  0  0  0  0  0  0  0  0
   14.1280   31.1880   22.8760 C   0  0  0  0  0  0  0  0  0  0  0  0
   15.2590   31.2660   22.8340 N   0  0  0  0  0  0  0  0  0  0  0  0
    1.6143   32.4646   28.2343 H   0  0  0  0  0  0  0  0  0  0  0  0
    3.6773   33.1280   26.7993 H   0  0  0  0  0  0  0  0  0  0  0  0
    3.3233   34.6805   25.9238 H   0  0  0  0  0  0  0  0  0  0  0  0
    4.5905   33.2956   24.4146 H   0  0  0  0  0  0  0  0  0  0  0  0
    2.8764   33.2894   23.8505 H   0  0  0  0  0  0  0  0  0  0  0  0
    2.4899   31.0969   24.7756 H   0  0  0  0  0  0  0  0  0  0  0  0
    4.0649   31.1218   25.6486 H   0  0  0  0  0  0  0  0  0  0  0  0
    3.7639   31.2182   22.5977 H   0  0  0  0  0  0  0  0  0  0  0  0
    4.1127   29.7270   23.5582 H   0  0  0  0  0  0  0  0  0  0  0  0
    5.9599   30.5100   25.5093 H   0  0  0  0  0  0  0  0  0  0  0  0
    6.3647   29.2824   24.2665 H   0  0  0  0  0  0  0  0  0  0  0  0
    8.1530   31.1836   21.1418 H   0  0  0  0  0  0  0  0  0  0  0  0
    7.7732   32.4724   22.3310 H   0  0  0  0  0  0  0  0  0  0  0  0
    8.4402   30.2093   25.2658 H   0  0  0  0  0  0  0  0  0  0  0  0
    7.9238   31.8725   24.8373 H   0  0  0  0  0  0  0  0  0  0  0  0
   10.1409   31.3250   25.2253 H   0  0  0  0  0  0  0  0  0  0  0  0
   12.4667   30.5473   20.8337 H   0  0  0  0  0  0  0  0  0  0  0  0
    1.3307   34.6855   23.5244 H   0  0  0  0  0  0  0  0  0  0  0  0
   -0.9631   32.4983   27.9665 H   0  0  0  0  0  0  0  0  0  0  0  0
   -2.8690   33.3716   26.0050 H   0  0  0  0  0  0  0  0  0  0  0  0
   -4.0452   34.6126   24.2228 H   0  0  0  0  0  0  0  0  0  0  0  0
    5.6662   31.5441   21.4153 H   0  0  0  0  0  0  0  0  0  0  0  0
    6.1746   29.8813   21.8667 H   0  0  0  0  0  0  0  0  0  0  0  0
    9.9859   30.3067   20.9734 H   0  0  0  0  0  0  0  0  0  0  0  0
   12.6179   31.5594   25.0782 H   0  0  0  0  0  0  0  0  0  0  0  0
 21  9  3  0
 16 26  2  0
 16 28  1  0
 26 25  1  0
 13 23  1  0
 13 24  1  0
 23 22  1  0
  9  6  1  0
 30 29  3  0
 29 28  1  0
 28 27  2  0
 25 24  1  0
 25 15  2  0
 24 14  1  0
  6 17  1  0
  6  7  2  0
 22 11  1  0
 22 12  1  0
 11 10  1  0
 20  7  1  0
 17  1  2  0
 27 15  1  0
  7 19  1  0
 12 14  1  0
  8 10  1  0
  8  5  1  0
  1  2  1  0
  1  3  1  0
 19  2  2  0
  5  3  1  0
  2 18  1  0
  3  4  2  0
 18  4  1  0
  4 31  1  0
  5 32  1  0
  5 33  1  0
  8 34  1  0
  8 35  1  0
 10 36  1  0
 10 37  1  0
 11 38  1  0
 11 39  1  0
 12 40  1  0
 12 41  1  0
 13 42  1  0
 13 43  1  0
 14 44  1  0
 14 45  1  0
 15 46  1  0
 16 47  1  0
 17 48  1  0
 18 49  1  0
 19 50  1  0
 20 51  1  0
 23 52  1  0
 23 53  1  0
 26 54  1  0
 27 55  1  0
A    1
C1
A    2
C2
A    3
C3
A    4
C7
A    5
C8
A    6
C9
A    7
C10
A    8
C11
A    9
C12
A   10
C14
A   11
C16
A   12
C19
A   13
C20
A   14
C21
A   15
C24
A   16
C27
A   17
C4
A   18
N5
A   19
C6
A   20
O13
A   21
N15
A   22
N17
A   23
C18
A   24
N22
A   25
C23
A   26
C25
A   27
C26
A   28
C28
A   29
C29
A   30
N30
M  END
