5LP6_71P_B_504
     RDKit          3D

 54 56  0  0  0  0  0  0  0  0999 V2000
   14.4080   63.9760   42.1930 C   0  0  0  0  0  0  0  0  0  0  0  0
   15.6980   63.4350   41.7060 O   0  0  0  0  0  0  0  0  0  0  0  0
   16.5450   64.5050   41.6960 C   0  0  0  0  0  0  0  0  0  0  0  0
   17.3120   64.9340   42.8500 C   0  0  0  0  0  0  0  0  0  0  0  0
   17.3050   64.2370   44.1370 C   0  0  0  0  0  0  0  0  0  0  0  0
   16.6940   62.9660   44.0630 C   0  0  0  0  0  0  0  0  0  0  0  0
   16.4310   61.9790   45.0060 C   0  0  0  0  0  0  0  0  0  0  0  0
   16.8010   61.8700   46.3330 C   0  0  0  0  0  0  0  0  0  0  0  0
   16.2400   60.3930   47.1440 S   0  0  0  0  0  0  0  0  0  0  0  0
   17.7130   59.7200   47.8810 C   0  0  0  0  0  0  0  0  0  0  0  0
   17.5140   62.8100   47.0560 C   0  0  0  0  0  0  0  0  0  0  0  0
   17.7500   62.6080   48.2480 O   0  0  0  0  0  0  0  0  0  0  0  0
   18.0050   64.0150   46.5920 C   0  0  0  0  0  0  0  0  0  0  0  0
   17.9450   64.6470   45.3330 C   0  0  0  0  0  0  0  0  0  0  0  0
   18.7140   65.8200   45.6100 C   0  0  0  0  0  0  0  0  0  0  0  0
   17.9380   66.9510   46.2320 N   0  0  0  0  0  0  0  0  0  0  0  0
   16.6060   66.9710   46.5020 C   0  0  0  0  0  0  0  0  0  0  0  0
   15.7860   66.1200   46.1710 O   0  0  0  0  0  0  0  0  0  0  0  0
   16.1090   68.1850   47.2660 C   0  0  0  0  0  0  0  0  0  0  0  0
   19.6190   66.1010   44.4300 C   0  0  0  0  0  0  0  0  0  0  0  0
   18.9090   66.8730   43.4510 C   0  0  0  0  0  0  0  0  0  0  0  0
   18.0900   66.1080   42.5880 C   0  0  0  0  0  0  0  0  0  0  0  0
   18.0630   66.7690   41.3380 C   0  0  0  0  0  0  0  0  0  0  0  0
   17.3110   66.3000   40.2780 C   0  0  0  0  0  0  0  0  0  0  0  0
   17.2780   66.8890   39.0510 O   0  0  0  0  0  0  0  0  0  0  0  0
   18.3840   66.4860   38.2250 C   0  0  0  0  0  0  0  0  0  0  0  0
   16.5450   65.1780   40.4680 C   0  0  0  0  0  0  0  0  0  0  0  0
   15.8190   64.6900   39.4090 O   0  0  0  0  0  0  0  0  0  0  0  0
   14.4890   65.1470   39.1760 C   0  0  0  0  0  0  0  0  0  0  0  0
   14.4031   63.9780   43.2930 H   0  0  0  0  0  0  0  0  0  0  0  0
   14.2788   65.0041   41.8238 H   0  0  0  0  0  0  0  0  0  0  0  0
   13.5841   63.3476   41.8238 H   0  0  0  0  0  0  0  0  0  0  0  0
   16.3564   62.7025   43.0498 H   0  0  0  0  0  0  0  0  0  0  0  0
   15.8244   61.1412   44.6317 H   0  0  0  0  0  0  0  0  0  0  0  0
   17.6258   59.7598   48.9768 H   0  0  0  0  0  0  0  0  0  0  0  0
   17.8387   58.6751   47.5609 H   0  0  0  0  0  0  0  0  0  0  0  0
   18.5852   60.3090   47.5609 H   0  0  0  0  0  0  0  0  0  0  0  0
   18.5486   64.5942   47.3529 H   0  0  0  0  0  0  0  0  0  0  0  0
   19.3986   65.6452   46.4530 H   0  0  0  0  0  0  0  0  0  0  0  0
   18.4718   67.7968   46.4782 H   0  0  0  0  0  0  0  0  0  0  0  0
   16.1867   67.9952   48.3467 H   0  0  0  0  0  0  0  0  0  0  0  0
   16.7213   69.0600   47.0024 H   0  0  0  0  0  0  0  0  0  0  0  0
   15.0589   68.3795   47.0024 H   0  0  0  0  0  0  0  0  0  0  0  0
   19.9420   65.1498   43.9819 H   0  0  0  0  0  0  0  0  0  0  0  0
   20.4993   66.6654   44.7715 H   0  0  0  0  0  0  0  0  0  0  0  0
   19.6456   67.4129   42.8379 H   0  0  0  0  0  0  0  0  0  0  0  0
   18.2390   67.5460   44.0062 H   0  0  0  0  0  0  0  0  0  0  0  0
   18.6587   67.6842   41.2057 H   0  0  0  0  0  0  0  0  0  0  0  0
   19.2257   66.1793   38.8633 H   0  0  0  0  0  0  0  0  0  0  0  0
   18.0787   65.6413   37.5899 H   0  0  0  0  0  0  0  0  0  0  0  0
   18.6936   67.3291   37.5899 H   0  0  0  0  0  0  0  0  0  0  0  0
   13.9866   65.3196   40.1392 H   0  0  0  0  0  0  0  0  0  0  0  0
   14.5189   66.0864   38.6045 H   0  0  0  0  0  0  0  0  0  0  0  0
   13.9352   64.3876   38.6045 H   0  0  0  0  0  0  0  0  0  0  0  0
 26 25  1  0
 25 24  1  0
 29 28  1  0
 28 27  1  0
 24 27  1  0
 24 23  2  0
 27  3  2  0
 23 22  1  0
  3  2  1  0
  3  4  1  0
  2  1  1  0
 22  4  2  0
 22 21  1  0
  4  5  1  0
 21 20  1  0
  6  5  2  0
  6  7  1  0
  5 14  1  0
 20 15  1  0
  7  8  2  0
 14 15  1  0
 14 13  2  0
 15 16  1  0
 18 17  2  0
 16 17  1  0
  8 11  1  0
  8  9  1  0
 17 19  1  0
 13 11  1  0
 11 12  2  0
  9 10  1  0
  1 30  1  0
  1 31  1  0
  1 32  1  0
  6 33  1  0
  7 34  1  0
 10 35  1  0
 10 36  1  0
 10 37  1  0
 13 38  1  0
 15 39  1  0
 16 40  1  0
 19 41  1  0
 19 42  1  0
 19 43  1  0
 20 44  1  0
 20 45  1  0
 21 46  1  0
 21 47  1  0
 23 48  1  0
 26 49  1  0
 26 50  1  0
 26 51  1  0
 29 52  1  0
 29 53  1  0
 29 54  1  0
A    1
CBA
A    2
OAW
A    3
CAP
A    4
CAQ
A    5
CAR
A    6
CAX
A    7
CAY
A    8
CAZ
A    9
SBB
A   10
CBC
A   11
CAU
A   12
OAV
A   13
CAT
A   14
CAS
A   15
CAH
A   16
NAI
A   17
CAJ
A   18
OAK
A   19
CAL
A   20
CAG
A   21
CAF
A   22
CAE
A   23
CAD
A   24
CAC
A   25
OAB
A   26
CAA
A   27
CAO
A   28
OAN
A   29
CAM
M  END
