5LPJ_XDM_A_1201
     RDKit          3D

 41 42  0  0  0  0  0  0  0  0999 V2000
  -33.4060   50.7990   -2.7230 N   0  0  0  0  0  0  0  0  0  0  0  0
  -28.9400   50.8870   -3.1380 C   0  0  0  0  0  0  0  0  0  0  0  0
  -27.7650   50.9160   -4.0180 C   0  0  0  0  0  0  0  0  0  0  0  0
  -27.7900   50.2640   -5.3650 C   0  0  0  0  0  0  0  0  0  0  0  0
  -30.3390   50.7960   -3.4820 C   0  0  0  0  0  0  0  0  0  0  0  0
  -30.9120   50.6850   -4.8680 C   0  0  0  0  0  0  0  0  0  0  0  0
  -32.4400   50.7220   -1.8080 C   0  0  0  0  0  0  0  0  0  0  0  0
  -31.0370   50.8000   -2.2630 C   0  0  0  0  0  0  0  0  0  0  0  0
  -34.8100   50.8820   -2.3500 C   0  0  0  0  0  0  0  0  0  0  0  0
  -35.1460   52.1420   -1.5880 C   0  0  0  0  0  0  0  0  0  0  0  0
  -36.0510   52.1070   -0.5390 C   0  0  0  0  0  0  0  0  0  0  0  0
  -36.3500   53.2520    0.1790 C   0  0  0  0  0  0  0  0  0  0  0  0
  -35.7540   54.4570   -0.1450 C   0  0  0  0  0  0  0  0  0  0  0  0
  -34.8630   54.4900   -1.1940 C   0  0  0  0  0  0  0  0  0  0  0  0
  -32.6860   50.4960   -0.6230 O   0  0  0  0  0  0  0  0  0  0  0  0
  -31.1680   52.0300   -5.5050 C   0  0  0  0  0  0  0  0  0  0  0  0
  -26.7300   51.4680   -3.6450 O   0  0  0  0  0  0  0  0  0  0  0  0
  -28.8480   50.9370   -1.7530 C   0  0  0  0  0  0  0  0  0  0  0  0
  -27.6680   51.1160   -0.8510 C   0  0  0  0  0  0  0  0  0  0  0  0
  -30.1150   50.8520   -1.2470 N   0  0  0  0  0  0  0  0  0  0  0  0
  -34.5480   53.3550   -1.9140 C   0  0  0  0  0  0  0  0  0  0  0  0
  -34.1260   56.0060   -1.6370 Cl  0  0  0  0  0  0  0  0  0  0  0  0
  -33.1518   50.7998   -3.7211 H   0  0  0  0  0  0  0  0  0  0  0  0
  -27.8319   49.1716   -5.2429 H   0  0  0  0  0  0  0  0  0  0  0  0
  -28.6757   50.6050   -5.9210 H   0  0  0  0  0  0  0  0  0  0  0  0
  -26.8808   50.5362   -5.9210 H   0  0  0  0  0  0  0  0  0  0  0  0
  -31.8635   50.1359   -4.8120 H   0  0  0  0  0  0  0  0  0  0  0  0
  -30.1733   50.1590   -5.4906 H   0  0  0  0  0  0  0  0  0  0  0  0
  -35.4181   50.8541   -3.2662 H   0  0  0  0  0  0  0  0  0  0  0  0
  -35.0248   50.0304   -1.6877 H   0  0  0  0  0  0  0  0  0  0  0  0
  -36.5380   51.1571   -0.2736 H   0  0  0  0  0  0  0  0  0  0  0  0
  -37.0662   53.2031    1.0125 H   0  0  0  0  0  0  0  0  0  0  0  0
  -35.9868   55.3696    0.4232 H   0  0  0  0  0  0  0  0  0  0  0  0
  -31.3120   52.7863   -4.7194 H   0  0  0  0  0  0  0  0  0  0  0  0
  -30.3070   52.3096   -6.1298 H   0  0  0  0  0  0  0  0  0  0  0  0
  -32.0716   51.9738   -6.1298 H   0  0  0  0  0  0  0  0  0  0  0  0
  -27.9970   51.0661    0.1975 H   0  0  0  0  0  0  0  0  0  0  0  0
  -26.9350   50.3188   -1.0436 H   0  0  0  0  0  0  0  0  0  0  0  0
  -27.2044   52.0947   -1.0436 H   0  0  0  0  0  0  0  0  0  0  0  0
  -30.3458   50.8300   -0.2434 H   0  0  0  0  0  0  0  0  0  0  0  0
  -33.8266   53.4096   -2.7426 H   0  0  0  0  0  0  0  0  0  0  0  0
 16  6  1  0
  4  3  1  0
  6  5  1  0
  3 17  2  0
  3  2  1  0
  5  2  1  0
  5  8  2  0
  2 18  2  0
  1  9  1  0
  1  7  1  0
  9 10  1  0
  8  7  1  0
  8 20  1  0
 21 10  1  0
 21 14  2  0
  7 15  2  0
 18 20  1  0
 18 19  1  0
 22 14  1  0
 10 11  2  0
 14 13  1  0
 11 12  1  0
 13 12  2  0
  1 23  1  0
  4 24  1  0
  4 25  1  0
  4 26  1  0
  6 27  1  0
  6 28  1  0
  9 29  1  0
  9 30  1  0
 11 31  1  0
 12 32  1  0
 13 33  1  0
 16 34  1  0
 16 35  1  0
 16 36  1  0
 19 37  1  0
 19 38  1  0
 19 39  1  0
 20 40  1  0
 21 41  1  0
A    1
N1
A    2
C2
A    3
C3
A    4
C4
A    5
C5
A    6
C6
A    7
C9
A    8
C8
A    9
C10
A   10
C11
A   11
C12
A   12
C13
A   13
C14
A   14
C15
A   15
O1
A   16
C7
A   17
O
A   18
C
A   19
C1
A   20
N
A   21
C16
A   22
CL
M  END
