5LPO_725_A_407
     RDKit          3D

 56 59  0  0  0  0  0  0  0  0999 V2000
  102.0150   18.0050   17.5650 C   0  0  0  0  0  0  0  0  0  0  0  0
  100.9660   17.3340   19.3240 C   0  0  0  0  0  0  0  0  0  0  0  0
   98.9180   16.1930   24.7860 N   0  0  0  0  0  0  0  0  0  0  0  0
   98.5570   16.6980   19.8520 C   0  0  0  0  0  0  0  0  0  0  0  0
   98.2820   15.2750   19.3690 C   0  0  0  0  0  0  0  0  0  0  0  0
   96.8420   15.0840   18.9270 C   0  0  0  0  0  0  0  0  0  0  0  0
   93.2750   13.3690   16.5680 C   0  0  0  0  0  0  0  0  0  0  0  0
  100.4190   16.8700   21.6090 C   0  0  0  0  0  0  0  0  0  0  0  0
   99.7840   16.5660   23.8400 C   0  0  0  0  0  0  0  0  0  0  0  0
  102.0560   17.2850   23.4130 C   0  0  0  0  0  0  0  0  0  0  0  0
  101.7240   17.2250   21.9920 C   0  0  0  0  0  0  0  0  0  0  0  0
  102.6790   17.5850   21.0470 C   0  0  0  0  0  0  0  0  0  0  0  0
  102.2970   17.6310   19.7160 C   0  0  0  0  0  0  0  0  0  0  0  0
  103.1470   17.6420   23.8430 O   0  0  0  0  0  0  0  0  0  0  0  0
  101.0270   16.9550   24.2580 N   0  0  0  0  0  0  0  0  0  0  0  0
   99.4340   16.5120   22.5510 N   0  0  0  0  0  0  0  0  0  0  0  0
  100.8230   17.5780   17.9610 N   0  0  0  0  0  0  0  0  0  0  0  0
  102.9310   18.0470   18.5600 N   0  0  0  0  0  0  0  0  0  0  0  0
  102.3200   18.3890   16.3300 N   0  0  0  0  0  0  0  0  0  0  0  0
  101.3700   18.3730   15.2330 C   0  0  0  0  0  0  0  0  0  0  0  0
  100.0000   16.9310   20.2640 C   0  0  0  0  0  0  0  0  0  0  0  0
   96.4490   13.6710   18.4930 C   0  0  0  0  0  0  0  0  0  0  0  0
   95.8330   13.0230   19.6000 O   0  0  0  0  0  0  0  0  0  0  0  0
   96.0460   11.6230   19.6690 C   0  0  0  0  0  0  0  0  0  0  0  0
   95.4730   13.9180   17.3340 C   0  0  0  0  0  0  0  0  0  0  0  0
   94.1830   13.4190   17.6580 O   0  0  0  0  0  0  0  0  0  0  0  0
   95.4230   15.4420   17.2250 C   0  0  0  0  0  0  0  0  0  0  0  0
   96.6440   15.9060   17.7550 O   0  0  0  0  0  0  0  0  0  0  0  0
   95.2880   15.7710   15.8740 O   0  0  0  0  0  0  0  0  0  0  0  0
   95.0250   17.1580   15.6560 C   0  0  0  0  0  0  0  0  0  0  0  0
   99.1643   16.2991   25.7805 H   0  0  0  0  0  0  0  0  0  0  0  0
   98.0039   15.7993   24.5210 H   0  0  0  0  0  0  0  0  0  0  0  0
   98.3107   17.3955   19.0378 H   0  0  0  0  0  0  0  0  0  0  0  0
   97.9357   16.8618   20.7449 H   0  0  0  0  0  0  0  0  0  0  0  0
   98.4955   14.5753   20.1905 H   0  0  0  0  0  0  0  0  0  0  0  0
   98.9286   15.0841   18.4999 H   0  0  0  0  0  0  0  0  0  0  0  0
   96.2339   15.3354   19.8085 H   0  0  0  0  0  0  0  0  0  0  0  0
   92.2453   13.3123   16.9508 H   0  0  0  0  0  0  0  0  0  0  0  0
   93.3886   14.2748   15.9543 H   0  0  0  0  0  0  0  0  0  0  0  0
   93.4874   12.4812   15.9543 H   0  0  0  0  0  0  0  0  0  0  0  0
  103.7091   17.8265   21.3481 H   0  0  0  0  0  0  0  0  0  0  0  0
  101.2015   17.0032   25.2720 H   0  0  0  0  0  0  0  0  0  0  0  0
   99.9774   17.4542   17.3861 H   0  0  0  0  0  0  0  0  0  0  0  0
  103.2790   18.7144   16.1418 H   0  0  0  0  0  0  0  0  0  0  0  0
  100.3462   18.3558   15.6348 H   0  0  0  0  0  0  0  0  0  0  0  0
  101.5068   19.2736   14.6163 H   0  0  0  0  0  0  0  0  0  0  0  0
  101.5370   17.4775   14.6163 H   0  0  0  0  0  0  0  0  0  0  0  0
   97.2820   13.0252   18.1782 H   0  0  0  0  0  0  0  0  0  0  0  0
   96.0935   11.3108   20.7227 H   0  0  0  0  0  0  0  0  0  0  0  0
   95.2170   11.1009   19.1689 H   0  0  0  0  0  0  0  0  0  0  0  0
   96.9928   11.3711   19.1689 H   0  0  0  0  0  0  0  0  0  0  0  0
   95.7846   13.4227   16.4025 H   0  0  0  0  0  0  0  0  0  0  0  0
   94.5818   15.8952   17.7700 H   0  0  0  0  0  0  0  0  0  0  0  0
   94.9280   17.6695   16.6250 H   0  0  0  0  0  0  0  0  0  0  0  0
   95.8547   17.6036   15.0876 H   0  0  0  0  0  0  0  0  0  0  0  0
   94.0898   17.2690   15.0876 H   0  0  0  0  0  0  0  0  0  0  0  0
 20 19  1  0
 30 29  1  0
 29 27  1  0
 19  1  1  0
  7 26  1  0
 27 25  1  0
 27 28  1  0
 25 26  1  0
 25 22  1  0
  1 17  1  0
  1 18  2  0
 28  6  1  0
 17  2  1  0
 22  6  1  0
 22 23  1  0
 18 13  1  0
  6  5  1  0
  2 13  2  0
  2 21  1  0
  5  4  1  0
 23 24  1  0
 13 12  1  0
  4 21  1  0
 21  8  2  0
 12 11  2  0
  8 11  1  0
  8 16  1  0
 11 10  1  0
 16  9  2  0
 10 14  2  0
 10 15  1  0
  9 15  1  0
  9  3  1  0
  3 31  1  0
  3 32  1  0
  4 33  1  0
  4 34  1  0
  5 35  1  0
  5 36  1  0
  6 37  1  0
  7 38  1  0
  7 39  1  0
  7 40  1  0
 12 41  1  0
 15 42  1  0
 17 43  1  0
 19 44  1  0
 20 45  1  0
 20 46  1  0
 20 47  1  0
 22 48  1  0
 24 49  1  0
 24 50  1  0
 24 51  1  0
 25 52  1  0
 27 53  1  0
 30 54  1  0
 30 55  1  0
 30 56  1  0
A    1
C1
A    2
C2
A    3
N3
A    4
C4
A    5
C5
A    6
C6
A    7
C10
A    8
C13
A    9
C14
A   10
C15
A   11
C16
A   12
C17
A   13
C18
A   14
O4
A   15
N4
A   16
N2
A   17
N1
A   18
N5
A   19
N
A   20
C
A   21
C3
A   22
C11
A   23
O3
A   24
C12
A   25
C9
A   26
O2
A   27
C7
A   28
O
A   29
O1
A   30
C8
M  END
