5LPS_726_A_401
     RDKit          3D

 60 63  0  0  0  0  0  0  0  0999 V2000
  103.4720   17.5740   23.7660 O   0  0  0  0  0  0  0  0  0  0  0  0
  102.6040   17.9590   17.4840 C   0  0  0  0  0  0  0  0  0  0  0  0
  102.6930   17.6000   19.6060 C   0  0  0  0  0  0  0  0  0  0  0  0
  102.3750   17.2620   23.3090 C   0  0  0  0  0  0  0  0  0  0  0  0
  100.3830   16.9940   20.1280 C   0  0  0  0  0  0  0  0  0  0  0  0
  103.4510   17.9790   18.5020 N   0  0  0  0  0  0  0  0  0  0  0  0
  103.0550   17.5220   20.9490 C   0  0  0  0  0  0  0  0  0  0  0  0
   99.1230   16.4270   24.6100 N   0  0  0  0  0  0  0  0  0  0  0  0
  101.3080   16.9970   24.1320 N   0  0  0  0  0  0  0  0  0  0  0  0
  102.0680   17.2040   21.8790 C   0  0  0  0  0  0  0  0  0  0  0  0
   99.7360   16.6260   22.3950 N   0  0  0  0  0  0  0  0  0  0  0  0
  100.0530   16.6820   23.6870 C   0  0  0  0  0  0  0  0  0  0  0  0
  101.3550   17.5860   17.8450 N   0  0  0  0  0  0  0  0  0  0  0  0
  100.7540   16.9120   21.4800 C   0  0  0  0  0  0  0  0  0  0  0  0
   98.9340   16.8570   19.6850 C   0  0  0  0  0  0  0  0  0  0  0  0
   95.5090   18.6100   18.0360 C   0  0  0  0  0  0  0  0  0  0  0  0
   98.5180   15.4590   19.1950 C   0  0  0  0  0  0  0  0  0  0  0  0
   97.1260   15.4640   18.5770 C   0  0  0  0  0  0  0  0  0  0  0  0
   96.0450   16.6760   16.8110 C   0  0  0  0  0  0  0  0  0  0  0  0
  101.3740   17.3450   19.2080 C   0  0  0  0  0  0  0  0  0  0  0  0
  102.9370   18.2850   16.2370 N   0  0  0  0  0  0  0  0  0  0  0  0
  102.0080   18.2700   15.1240 C   0  0  0  0  0  0  0  0  0  0  0  0
   96.5160   14.1430   18.1040 C   0  0  0  0  0  0  0  0  0  0  0  0
   96.1820   13.3590   19.2410 O   0  0  0  0  0  0  0  0  0  0  0  0
   96.9360   12.1650   19.3830 C   0  0  0  0  0  0  0  0  0  0  0  0
   95.2220   14.3680   17.3350 C   0  0  0  0  0  0  0  0  0  0  0  0
   94.8340   13.1540   16.6990 O   0  0  0  0  0  0  0  0  0  0  0  0
   93.4430   12.8620   16.7650 C   0  0  0  0  0  0  0  0  0  0  0  0
   95.3880   15.4230   16.2580 C   0  0  0  0  0  0  0  0  0  0  0  0
   94.1090   15.7190   15.7160 O   0  0  0  0  0  0  0  0  0  0  0  0
   97.2650   16.3510   17.4540 O   0  0  0  0  0  0  0  0  0  0  0  0
   95.1370   17.2870   17.6780 O   0  0  0  0  0  0  0  0  0  0  0  0
  104.4517   18.2219   18.4812 H   0  0  0  0  0  0  0  0  0  0  0  0
  104.0920   17.7065   21.2663 H   0  0  0  0  0  0  0  0  0  0  0  0
   99.3590   16.4917   25.6105 H   0  0  0  0  0  0  0  0  0  0  0  0
   98.1694   16.1655   24.3217 H   0  0  0  0  0  0  0  0  0  0  0  0
  101.4624   17.0380   25.1495 H   0  0  0  0  0  0  0  0  0  0  0  0
   98.7625   17.5684   18.8637 H   0  0  0  0  0  0  0  0  0  0  0  0
   98.3257   17.0556   20.5797 H   0  0  0  0  0  0  0  0  0  0  0  0
   95.5343   18.6999   19.1320 H   0  0  0  0  0  0  0  0  0  0  0  0
   96.5050   18.8343   17.6266 H   0  0  0  0  0  0  0  0  0  0  0  0
   94.7758   19.3205   17.6266 H   0  0  0  0  0  0  0  0  0  0  0  0
   98.5252   14.7661   20.0493 H   0  0  0  0  0  0  0  0  0  0  0  0
   99.2330   15.1425   18.4213 H   0  0  0  0  0  0  0  0  0  0  0  0
   96.4185   15.7527   19.3683 H   0  0  0  0  0  0  0  0  0  0  0  0
   96.2973   17.3777   16.0023 H   0  0  0  0  0  0  0  0  0  0  0  0
  103.9111   18.5641   16.0522 H   0  0  0  0  0  0  0  0  0  0  0  0
  100.9770   18.2534   15.5071 H   0  0  0  0  0  0  0  0  0  0  0  0
  102.1566   19.1707   14.5102 H   0  0  0  0  0  0  0  0  0  0  0  0
  102.1856   17.3746   14.5102 H   0  0  0  0  0  0  0  0  0  0  0  0
   97.2539   13.6491   17.4547 H   0  0  0  0  0  0  0  0  0  0  0  0
   97.0754   11.9443   20.4516 H   0  0  0  0  0  0  0  0  0  0  0  0
   96.3991   11.3331   18.9037 H   0  0  0  0  0  0  0  0  0  0  0  0
   97.9179   12.2922   18.9037 H   0  0  0  0  0  0  0  0  0  0  0  0
   94.4619   14.7048   18.0553 H   0  0  0  0  0  0  0  0  0  0  0  0
   93.1316   12.7966   17.8180 H   0  0  0  0  0  0  0  0  0  0  0  0
   92.8765   13.6608   16.2640 H   0  0  0  0  0  0  0  0  0  0  0  0
   93.2455   11.9028   16.2640 H   0  0  0  0  0  0  0  0  0  0  0  0
   96.0477   15.0372   15.4668 H   0  0  0  0  0  0  0  0  0  0  0  0
   93.4648   15.8681   16.4528 H   0  0  0  0  0  0  0  0  0  0  0  0
 30 29  1  0
 28 27  1  0
 27 26  1  0
 29 26  1  0
 29 19  1  0
 26 23  1  0
 32 19  1  0
 32 16  1  0
 19 31  1  0
 23 24  1  0
 23 18  1  0
 31 18  1  0
 24 25  1  0
 18 17  1  0
 17 15  1  0
 15  5  1  0
 22 21  1  0
 13 20  1  0
 13  2  2  0
  5 20  2  0
  5 14  1  0
 21  2  1  0
 20  3  1  0
 11 14  1  0
 11 12  2  0
  2  6  1  0
 14 10  2  0
  8 12  1  0
 12  9  1  0
  3  6  1  0
  3  7  2  0
 10  7  1  0
 10  4  1  0
  9  4  1  0
  4  1  2  0
  6 33  1  0
  7 34  1  0
  8 35  1  0
  8 36  1  0
  9 37  1  0
 15 38  1  0
 15 39  1  0
 16 40  1  0
 16 41  1  0
 16 42  1  0
 17 43  1  0
 17 44  1  0
 18 45  1  0
 19 46  1  0
 21 47  1  0
 22 48  1  0
 22 49  1  0
 22 50  1  0
 23 51  1  0
 25 52  1  0
 25 53  1  0
 25 54  1  0
 26 55  1  0
 28 56  1  0
 28 57  1  0
 28 58  1  0
 29 59  1  0
 30 60  1  0
A    1
O
A    2
C1
A    3
C2
A    4
C5
A    5
C8
A    6
N1
A    7
C3
A    8
N3
A    9
N2
A   10
C4
A   11
N4
A   12
C6
A   13
N5
A   14
C7
A   15
C9
A   16
C13
A   17
C10
A   18
C11
A   19
C12
A   20
C20
A   21
N
A   22
C
A   23
C18
A   24
O5
A   25
C19
A   26
C16
A   27
O4
A   28
C17
A   29
C14
A   30
O3
A   31
O1
A   32
O2
M  END
