5LQN_72O_A_301
     RDKit          3D

 32 34  0  0  0  0  0  0  0  0999 V2000
   21.7480    5.8860   10.3970 C   0  0  0  0  0  0  0  0  0  0  0  0
   22.3580    8.1440   10.4160 N   0  0  0  0  0  0  0  0  0  0  0  0
   21.3430    7.1770   10.1530 C   0  0  0  0  0  0  0  0  0  0  0  0
   23.3220    5.8140   11.0050 S   0  0  0  0  0  0  0  0  0  0  0  0
   21.0770    4.6490   10.2570 C   0  0  0  0  0  0  0  0  0  0  0  0
   23.4380    7.4950   10.8820 C   0  0  0  0  0  0  0  0  0  0  0  0
   20.0410    4.4690    9.3720 N   0  0  0  0  0  0  0  0  0  0  0  0
   19.6420    3.1950    9.2920 N   0  0  0  0  0  0  0  0  0  0  0  0
   21.2500    3.4230   10.9190 C   0  0  0  0  0  0  0  0  0  0  0  0
   20.3800    2.5160   10.2240 C   0  0  0  0  0  0  0  0  0  0  0  0
   27.4270    8.5840   11.0680 C   0  0  0  0  0  0  0  0  0  0  0  0
   24.7270    8.1420   11.2760 C   0  0  0  0  0  0  0  0  0  0  0  0
   25.3340    8.5400   10.0190 O   0  0  0  0  0  0  0  0  0  0  0  0
   26.7330    8.5110    9.8510 C   0  0  0  0  0  0  0  0  0  0  0  0
   28.7980    8.5730   11.0330 C   0  0  0  0  0  0  0  0  0  0  0  0
   20.0230    7.6770    9.5970 C   0  0  0  0  0  0  0  0  0  0  0  0
   29.5240    8.6570   12.5460 Cl  0  0  0  0  0  0  0  0  0  0  0  0
   28.8510    8.4150    8.6340 C   0  0  0  0  0  0  0  0  0  0  0  0
   27.4510    8.4360    8.6220 C   0  0  0  0  0  0  0  0  0  0  0  0
   29.5390    8.4900    9.8430 C   0  0  0  0  0  0  0  0  0  0  0  0
   19.6169    5.2340    8.8281 H   0  0  0  0  0  0  0  0  0  0  0  0
   21.9042    3.2061   11.7763 H   0  0  0  0  0  0  0  0  0  0  0  0
   20.3160    1.4342   10.4129 H   0  0  0  0  0  0  0  0  0  0  0  0
   26.8865    8.6483   12.0239 H   0  0  0  0  0  0  0  0  0  0  0  0
   25.3721    7.4293   11.8107 H   0  0  0  0  0  0  0  0  0  0  0  0
   24.5765    8.9938   11.9556 H   0  0  0  0  0  0  0  0  0  0  0  0
   19.3485    7.9325   10.4276 H   0  0  0  0  0  0  0  0  0  0  0  0
   20.1998    8.5704    8.9802 H   0  0  0  0  0  0  0  0  0  0  0  0
   19.5635    6.8906    8.9802 H   0  0  0  0  0  0  0  0  0  0  0  0
   29.4078    8.3392    7.6884 H   0  0  0  0  0  0  0  0  0  0  0  0
   26.9069    8.3947    7.6669 H   0  0  0  0  0  0  0  0  0  0  0  0
   30.6388    8.4843    9.8650 H   0  0  0  0  0  0  0  0  0  0  0  0
 19 18  2  0
 19 14  1  0
 18 20  1  0
  8  7  1  0
  8 10  2  0
  7  5  1  0
 16  3  1  0
 20 15  2  0
 14 13  1  0
 14 11  2  0
 13 12  1  0
  3  1  2  0
  3  2  1  0
 10  9  1  0
  5  1  1  0
  5  9  2  0
  1  4  1  0
  2  6  2  0
  6  4  1  0
  6 12  1  0
 15 11  1  0
 15 17  1  0
  7 21  1  0
  9 22  1  0
 10 23  1  0
 11 24  1  0
 12 25  1  0
 12 26  1  0
 16 27  1  0
 16 28  1  0
 16 29  1  0
 18 30  1  0
 19 31  1  0
 20 32  1  0
A    1
C1
A    2
N2
A    3
C3
A    4
S4
A    5
C5
A    6
C6
A    7
N7
A    8
N8
A    9
C9
A   10
C10
A   11
C11
A   12
C12
A   13
O13
A   14
C14
A   15
C15
A   16
C16
A   17
CL1
A   18
C18
A   19
C19
A   20
C20
M  END
