5LQQ_72P_A_922
     RDKit          3D

 43 46  0  0  0  0  0  0  0  0999 V2000
  -12.3070  -20.5080   -1.3860 Cl  0  0  0  0  0  0  0  0  0  0  0  0
  -13.1970  -21.4180   -0.1930 C   0  0  0  0  0  0  0  0  0  0  0  0
  -14.2150  -20.7680    0.5050 C   0  0  0  0  0  0  0  0  0  0  0  0
  -14.9430  -21.4550    1.4560 C   0  0  0  0  0  0  0  0  0  0  0  0
  -14.6410  -22.7980    1.7010 C   0  0  0  0  0  0  0  0  0  0  0  0
  -15.1820  -23.7780    2.6050 C   0  0  0  0  0  0  0  0  0  0  0  0
  -16.5110  -23.5080    3.7150 S   0  0  0  0  0  0  0  0  0  0  0  0
  -15.8810  -22.3900    4.9500 C   0  0  0  0  0  0  0  0  0  0  0  0
  -14.6660  -21.7290    4.8840 C   0  0  0  0  0  0  0  0  0  0  0  0
  -14.2790  -20.8780    5.8950 C   0  0  0  0  0  0  0  0  0  0  0  0
  -15.0990  -20.6750    6.9890 C   0  0  0  0  0  0  0  0  0  0  0  0
  -16.3200  -21.3260    7.0750 C   0  0  0  0  0  0  0  0  0  0  0  0
  -17.2140  -21.1120    8.2540 C   0  0  0  0  0  0  0  0  0  0  0  0
  -18.3470  -21.7700    8.2200 O   0  0  0  0  0  0  0  0  0  0  0  0
  -16.9060  -20.3740    9.1790 O   0  0  0  0  0  0  0  0  0  0  0  0
  -16.7030  -22.1820    6.0490 C   0  0  0  0  0  0  0  0  0  0  0  0
  -14.5020  -24.9520    2.4210 C   0  0  0  0  0  0  0  0  0  0  0  0
  -14.6880  -26.2590    3.1060 C   0  0  0  0  0  0  0  0  0  0  0  0
  -13.5320  -24.7540    1.4450 N   0  0  0  0  0  0  0  0  0  0  0  0
  -12.6110  -25.7470    0.9730 C   0  0  0  0  0  0  0  0  0  0  0  0
  -11.3100  -25.7620    1.4400 C   0  0  0  0  0  0  0  0  0  0  0  0
  -10.4340  -26.7380    0.9880 C   0  0  0  0  0  0  0  0  0  0  0  0
  -10.8560  -27.6970    0.0930 C   0  0  0  0  0  0  0  0  0  0  0  0
  -12.1570  -27.6840   -0.3570 C   0  0  0  0  0  0  0  0  0  0  0  0
  -13.0450  -26.7140    0.0860 C   0  0  0  0  0  0  0  0  0  0  0  0
  -13.6070  -23.4310    0.9910 C   0  0  0  0  0  0  0  0  0  0  0  0
  -12.8650  -22.7470    0.0290 C   0  0  0  0  0  0  0  0  0  0  0  0
  -14.4372  -19.7107    0.2982 H   0  0  0  0  0  0  0  0  0  0  0  0
  -15.7484  -20.9533    2.0125 H   0  0  0  0  0  0  0  0  0  0  0  0
  -14.0056  -21.8848    4.0182 H   0  0  0  0  0  0  0  0  0  0  0  0
  -13.3123  -20.3570    5.8317 H   0  0  0  0  0  0  0  0  0  0  0  0
  -14.7820  -19.9951    7.7935 H   0  0  0  0  0  0  0  0  0  0  0  0
  -17.0311  -20.6738   10.1142 H   0  0  0  0  0  0  0  0  0  0  0  0
  -17.6707  -22.7017    6.1088 H   0  0  0  0  0  0  0  0  0  0  0  0
  -14.6666  -26.1083    4.1954 H   0  0  0  0  0  0  0  0  0  0  0  0
  -15.6567  -26.6911    2.8146 H   0  0  0  0  0  0  0  0  0  0  0  0
  -13.8783  -26.9442    2.8146 H   0  0  0  0  0  0  0  0  0  0  0  0
  -10.9721  -25.0061    2.1642 H   0  0  0  0  0  0  0  0  0  0  0  0
   -9.3942  -26.7465    1.3469 H   0  0  0  0  0  0  0  0  0  0  0  0
  -10.1567  -28.4692   -0.2602 H   0  0  0  0  0  0  0  0  0  0  0  0
  -12.4950  -28.4479   -1.0727 H   0  0  0  0  0  0  0  0  0  0  0  0
  -14.0870  -26.7147   -0.2663 H   0  0  0  0  0  0  0  0  0  0  0  0
  -12.0538  -23.2382   -0.5284 H   0  0  0  0  0  0  0  0  0  0  0  0
  1  2  1  0
 24 25  2  0
 24 23  1  0
  2 27  2  0
  2  3  1  0
 27 26  1  0
 25 20  1  0
 23 22  2  0
  3  4  2  0
 20 21  2  0
 20 19  1  0
 22 21  1  0
 26 19  1  0
 26  5  2  0
 19 17  1  0
  4  5  1  0
  5  6  1  0
 17  6  2  0
 17 18  1  0
  6  7  1  0
  7  8  1  0
  9  8  2  0
  9 10  1  0
  8 16  1  0
 10 11  2  0
 16 12  2  0
 11 12  1  0
 12 13  1  0
 14 13  2  0
 13 15  1  0
  3 28  1  0
  4 29  1  0
  9 30  1  0
 10 31  1  0
 11 32  1  0
 15 33  1  0
 16 34  1  0
 18 35  1  0
 18 36  1  0
 18 37  1  0
 21 38  1  0
 22 39  1  0
 23 40  1  0
 24 41  1  0
 25 42  1  0
 27 43  1  0
A    1
CL1
A    2
C1
A    3
C2
A    4
C3
A    5
C4
A    6
C5
A    7
S1
A    8
C6
A    9
C7
A   10
C8
A   11
C9
A   12
C10
A   13
C11
A   14
O1
A   15
O2
A   16
C12
A   17
C13
A   18
C14
A   19
N1
A   20
C15
A   21
C16
A   22
C17
A   23
C18
A   24
C19
A   25
C20
A   26
C21
A   27
C22
M  END
