5LR6_731_A_301
     RDKit          3D

 47 50  0  0  0  0  0  0  0  0999 V2000
   25.7420    6.4040   18.2630 O   0  0  0  0  0  0  0  0  0  0  0  0
   27.9460    7.9750   18.4990 C   0  0  0  0  0  0  0  0  0  0  0  0
   29.1550    6.3430   17.1380 C   0  0  0  0  0  0  0  0  0  0  0  0
   29.0540    7.9330   19.5190 C   0  0  0  0  0  0  0  0  0  0  0  0
   30.2510    6.3030   18.1710 C   0  0  0  0  0  0  0  0  0  0  0  0
   31.5120    7.9650   19.4300 C   0  0  0  0  0  0  0  0  0  0  0  0
   24.4410    1.3520   13.9250 C   0  0  0  0  0  0  0  0  0  0  0  0
   28.0100    1.4060   10.5390 C   0  0  0  0  0  0  0  0  0  0  0  0
   31.5330    8.8100   20.5350 C   0  0  0  0  0  0  0  0  0  0  0  0
   32.7100    7.5100   18.8970 C   0  0  0  0  0  0  0  0  0  0  0  0
   33.9110    7.8910   19.4690 C   0  0  0  0  0  0  0  0  0  0  0  0
   32.7420    9.1770   21.1000 C   0  0  0  0  0  0  0  0  0  0  0  0
   33.9280    8.7240   20.5630 C   0  0  0  0  0  0  0  0  0  0  0  0
   26.7050    4.7380   16.9300 C   0  0  0  0  0  0  0  0  0  0  0  0
   27.3300    1.7410   11.8290 C   0  0  0  0  0  0  0  0  0  0  0  0
   26.7010    2.5600   14.0300 C   0  0  0  0  0  0  0  0  0  0  0  0
   26.6550    3.2250   15.3190 C   0  0  0  0  0  0  0  0  0  0  0  0
   26.8600    4.5950   15.5670 C   0  0  0  0  0  0  0  0  0  0  0  0
   25.7720    1.7670   13.3990 C   0  0  0  0  0  0  0  0  0  0  0  0
   26.7580    6.0030   17.7180 C   0  0  0  0  0  0  0  0  0  0  0  0
   27.8860    6.7080   17.7660 N   0  0  0  0  0  0  0  0  0  0  0  0
   30.3170    7.5860   18.8690 N   0  0  0  0  0  0  0  0  0  0  0  0
   26.4070    2.5610   16.4620 N   0  0  0  0  0  0  0  0  0  0  0  0
   26.1480    1.3040   12.1570 N   0  0  0  0  0  0  0  0  0  0  0  0
   26.4210    3.5150   17.4260 N   0  0  0  0  0  0  0  0  0  0  0  0
   28.0520    2.7720   12.9960 S   0  0  0  0  0  0  0  0  0  0  0  0
   28.1343    8.7958   17.7913 H   0  0  0  0  0  0  0  0  0  0  0  0
   26.9883    8.1371   19.0153 H   0  0  0  0  0  0  0  0  0  0  0  0
   29.0582    5.3515   16.6716 H   0  0  0  0  0  0  0  0  0  0  0  0
   29.4075    7.0929   16.3739 H   0  0  0  0  0  0  0  0  0  0  0  0
   29.1484    8.9199   19.9957 H   0  0  0  0  0  0  0  0  0  0  0  0
   28.8176    7.1736   20.2789 H   0  0  0  0  0  0  0  0  0  0  0  0
   30.0413    5.5027   18.8959 H   0  0  0  0  0  0  0  0  0  0  0  0
   31.2130    6.1085   17.6743 H   0  0  0  0  0  0  0  0  0  0  0  0
   24.4630    1.3589   15.0248 H   0  0  0  0  0  0  0  0  0  0  0  0
   23.6714    2.0528   13.5693 H   0  0  0  0  0  0  0  0  0  0  0  0
   24.2061    0.3380   13.5693 H   0  0  0  0  0  0  0  0  0  0  0  0
   28.9787    0.9288   10.7483 H   0  0  0  0  0  0  0  0  0  0  0  0
   27.3787    0.7158    9.9602 H   0  0  0  0  0  0  0  0  0  0  0  0
   28.1725    2.3272    9.9602 H   0  0  0  0  0  0  0  0  0  0  0  0
   30.5902    9.1859   20.9590 H   0  0  0  0  0  0  0  0  0  0  0  0
   32.7047    6.8464   18.0197 H   0  0  0  0  0  0  0  0  0  0  0  0
   34.8582    7.5252   19.0459 H   0  0  0  0  0  0  0  0  0  0  0  0
   32.7565    9.8337   21.9823 H   0  0  0  0  0  0  0  0  0  0  0  0
   34.8864    9.0283   21.0089 H   0  0  0  0  0  0  0  0  0  0  0  0
   27.0931    5.3808   14.8334 H   0  0  0  0  0  0  0  0  0  0  0  0
   26.2427    1.5510   16.5794 H   0  0  0  0  0  0  0  0  0  0  0  0
  8 15  1  0
 15 24  2  0
 15 26  1  0
 24 19  1  0
 26 16  1  0
 19  7  1  0
 19 16  2  0
 16 17  1  0
 17 18  2  0
 17 23  1  0
 18 14  1  0
 23 25  1  0
 14 25  2  0
 14 20  1  0
  3 21  1  0
  3  5  1  0
 20 21  1  0
 20  1  2  0
 21  2  1  0
  5 22  1  0
  2  4  1  0
 22  6  1  0
 22  4  1  0
 10  6  1  0
 10 11  2  0
  6  9  2  0
 11 13  1  0
  9 12  1  0
 13 12  2  0
  2 27  1  0
  2 28  1  0
  3 29  1  0
  3 30  1  0
  4 31  1  0
  4 32  1  0
  5 33  1  0
  5 34  1  0
  7 35  1  0
  7 36  1  0
  7 37  1  0
  8 38  1  0
  8 39  1  0
  8 40  1  0
  9 41  1  0
 10 42  1  0
 11 43  1  0
 12 44  1  0
 13 45  1  0
 18 46  1  0
 23 47  1  0
A    1
O14
A    2
C15
A    3
C16
A    4
C17
A    5
C18
A    6
C19
A    7
C20
A    8
C21
A    9
C22
A   10
C23
A   11
C24
A   12
C25
A   13
C26
A   14
C1
A   15
C12
A   16
C2
A   17
C3
A   18
C4
A   19
C7
A   20
C8
A   21
N11
A   22
N13
A   23
N5
A   24
N6
A   25
N9
A   26
S10
M  END
