5LR7_73J_A_4000
     RDKit          3D

 53 59  0  0  0  0  0  0  0  0999 V2000
   32.0880   24.7720   11.0030 C   0  0  0  0  0  0  0  0  0  0  0  0
   35.1450   23.1190   12.0800 C   0  0  0  0  0  0  0  0  0  0  0  0
   33.7890   23.0550   12.0600 C   0  0  0  0  0  0  0  0  0  0  0  0
   33.3320   24.2570   11.4230 C   0  0  0  0  0  0  0  0  0  0  0  0
   34.4820   25.0040   11.0870 C   0  0  0  0  0  0  0  0  0  0  0  0
   30.8230   24.0660   11.3860 C   0  0  0  0  0  0  0  0  0  0  0  0
   34.4590   26.1770   10.4190 N   0  0  0  0  0  0  0  0  0  0  0  0
   27.3790   23.2860   10.2290 C   0  0  0  0  0  0  0  0  0  0  0  0
   24.9860   23.5850   10.1990 C   0  0  0  0  0  0  0  0  0  0  0  0
   26.1530   23.1140    9.6020 C   0  0  0  0  0  0  0  0  0  0  0  0
   32.0610   25.9670   10.2730 C   0  0  0  0  0  0  0  0  0  0  0  0
   33.2560   26.6220   10.0150 C   0  0  0  0  0  0  0  0  0  0  0  0
   35.5700   24.2920   11.4960 N   0  0  0  0  0  0  0  0  0  0  0  0
   29.7480   24.8050   11.6980 N   0  0  0  0  0  0  0  0  0  0  0  0
   30.8040   22.8460   11.4780 O   0  0  0  0  0  0  0  0  0  0  0  0
   25.0370   24.2360   11.4250 C   0  0  0  0  0  0  0  0  0  0  0  0
   26.2690   24.4190   12.0610 C   0  0  0  0  0  0  0  0  0  0  0  0
   27.4400   23.9310   11.4630 C   0  0  0  0  0  0  0  0  0  0  0  0
   28.5970   24.1790   12.3600 C   0  0  0  0  0  0  0  0  0  0  0  0
   26.6640   25.1160   13.3110 C   0  0  0  0  0  0  0  0  0  0  0  0
   28.0560   24.9770   13.4680 C   0  0  0  0  0  0  0  0  0  0  0  0
   28.7150   25.5630   14.5470 C   0  0  0  0  0  0  0  0  0  0  0  0
   28.0060   26.3010   15.4790 C   0  0  0  0  0  0  0  0  0  0  0  0
   26.6380   26.4720   15.3380 C   0  0  0  0  0  0  0  0  0  0  0  0
   25.9620   25.8770   14.2670 C   0  0  0  0  0  0  0  0  0  0  0  0
   24.5120   26.1110   14.2190 C   0  0  0  0  0  0  0  0  0  0  0  0
   23.9480   27.3330   14.4230 N   0  0  0  0  0  0  0  0  0  0  0  0
   23.6070   25.1510   14.0610 N   0  0  0  0  0  0  0  0  0  0  0  0
   22.3790   25.7900   14.1930 C   0  0  0  0  0  0  0  0  0  0  0  0
   22.5790   27.1510   14.4200 C   0  0  0  0  0  0  0  0  0  0  0  0
   21.5170   28.0330   14.5990 C   0  0  0  0  0  0  0  0  0  0  0  0
   20.2230   27.5260   14.5640 C   0  0  0  0  0  0  0  0  0  0  0  0
   20.0520   26.1690   14.3390 C   0  0  0  0  0  0  0  0  0  0  0  0
   21.0850   25.2790   14.1420 C   0  0  0  0  0  0  0  0  0  0  0  0
   18.7960   25.6680   14.3730 F   0  0  0  0  0  0  0  0  0  0  0  0
   35.8069   22.3477   12.5007 H   0  0  0  0  0  0  0  0  0  0  0  0
   33.1631   22.2411   12.4548 H   0  0  0  0  0  0  0  0  0  0  0  0
   28.2990   22.9147    9.7539 H   0  0  0  0  0  0  0  0  0  0  0  0
   24.0182   23.4406    9.6966 H   0  0  0  0  0  0  0  0  0  0  0  0
   26.1026   22.6033    8.6290 H   0  0  0  0  0  0  0  0  0  0  0  0
   31.1078   26.3792    9.9103 H   0  0  0  0  0  0  0  0  0  0  0  0
   33.2174   27.5623    9.4455 H   0  0  0  0  0  0  0  0  0  0  0  0
   36.5516   24.5840   11.3861 H   0  0  0  0  0  0  0  0  0  0  0  0
   29.7301   25.8101   11.4735 H   0  0  0  0  0  0  0  0  0  0  0  0
   24.1129   24.6058   11.8933 H   0  0  0  0  0  0  0  0  0  0  0  0
   29.0264   23.2306   12.7152 H   0  0  0  0  0  0  0  0  0  0  0  0
   29.8023   25.4387   14.6584 H   0  0  0  0  0  0  0  0  0  0  0  0
   28.5299   26.7531   16.3341 H   0  0  0  0  0  0  0  0  0  0  0  0
   26.0823   27.0768   16.0697 H   0  0  0  0  0  0  0  0  0  0  0  0
   24.4474   28.2242   14.5546 H   0  0  0  0  0  0  0  0  0  0  0  0
   21.6974   29.1055   14.7642 H   0  0  0  0  0  0  0  0  0  0  0  0
   19.3555   28.1860   14.7114 H   0  0  0  0  0  0  0  0  0  0  0  0
   20.8958   24.2120   13.9528 H   0  0  0  0  0  0  0  0  0  0  0  0
 10  9  1  0
 10  8  2  0
 12 11  2  0
 12  7  1  0
  9 16  2  0
  8 18  1  0
 11  1  1  0
  7  5  2  0
  1  6  1  0
  1  4  2  0
  5  4  1  0
  5 13  1  0
  6 15  2  0
  6 14  1  0
  4  3  1  0
 16 17  1  0
 18 17  2  0
 18 19  1  0
 13  2  1  0
 14 19  1  0
  3  2  2  0
 17 20  1  0
 19 21  1  0
 20 21  2  0
 20 25  1  0
 21 22  1  0
 28 29  1  0
 28 26  2  0
 34 29  1  0
 34 33  2  0
 29 30  2  0
 26 25  1  0
 26 27  1  0
 25 24  2  0
 33 35  1  0
 33 32  1  0
 30 27  1  0
 30 31  1  0
 22 23  2  0
 32 31  2  0
 24 23  1  0
  2 36  1  0
  3 37  1  0
  8 38  1  0
  9 39  1  0
 10 40  1  0
 11 41  1  0
 12 42  1  0
 13 43  1  0
 14 44  1  0
 16 45  1  0
 19 46  1  0
 22 47  1  0
 23 48  1  0
 24 49  1  0
 27 50  1  0
 31 51  1  0
 32 52  1  0
 34 53  1  0
A    1
C4
A    2
C6
A    3
C7
A    4
C8
A    5
C9
A    6
C10
A    7
N3
A    8
C13
A    9
C14
A   10
C15
A   11
C1
A   12
C2
A   13
N5
A   14
N11
A   15
O12
A   16
C16
A   17
C17
A   18
C18
A   19
C19
A   20
C20
A   21
C21
A   22
C22
A   23
C23
A   24
C24
A   25
C25
A   26
C26
A   27
N27
A   28
N28
A   29
C29
A   30
C30
A   31
C31
A   32
C32
A   33
C33
A   34
C34
A   35
F35
M  END
