5LRL_73S_A_4000
     RDKit          3D

 49 54  0  0  0  0  0  0  0  0999 V2000
   -0.2330   10.0800   26.4570 C   0  0  0  0  0  0  0  0  0  0  0  0
    1.0400   10.1930   25.9280 C   0  0  0  0  0  0  0  0  0  0  0  0
    1.1760   10.8600   24.7180 C   0  0  0  0  0  0  0  0  0  0  0  0
    0.1020   11.3200   24.0550 N   0  0  0  0  0  0  0  0  0  0  0  0
    2.4590   11.1760   23.9960 C   0  0  0  0  0  0  0  0  0  0  0  0
    8.2730   10.2550   23.5820 C   0  0  0  0  0  0  0  0  0  0  0  0
   -1.3200   10.5790   25.8490 N   0  0  0  0  0  0  0  0  0  0  0  0
    7.1290    9.6450   23.0840 C   0  0  0  0  0  0  0  0  0  0  0  0
    5.8910   10.2590   23.2270 C   0  0  0  0  0  0  0  0  0  0  0  0
    2.5500   11.0380   22.7790 O   0  0  0  0  0  0  0  0  0  0  0  0
    8.1910   11.4790   24.2350 C   0  0  0  0  0  0  0  0  0  0  0  0
   -1.1040   11.1630   24.6480 C   0  0  0  0  0  0  0  0  0  0  0  0
    3.4480   11.7180   24.7270 N   0  0  0  0  0  0  0  0  0  0  0  0
    2.3510    9.3970   26.7380 Cl  0  0  0  0  0  0  0  0  0  0  0  0
   -2.1720   11.5620   23.9540 N   0  0  0  0  0  0  0  0  0  0  0  0
    6.9490   12.0970   24.3970 C   0  0  0  0  0  0  0  0  0  0  0  0
    5.7970   11.4830   23.8830 C   0  0  0  0  0  0  0  0  0  0  0  0
    4.6160   12.3700   24.1010 C   0  0  0  0  0  0  0  0  0  0  0  0
    6.5280   13.3650   25.0610 C   0  0  0  0  0  0  0  0  0  0  0  0
    5.1350   13.4950   24.9030 C   0  0  0  0  0  0  0  0  0  0  0  0
    4.4430   14.5460   25.4910 C   0  0  0  0  0  0  0  0  0  0  0  0
    5.1180   15.4850   26.2460 C   0  0  0  0  0  0  0  0  0  0  0  0
    6.4880   15.3820   26.4270 C   0  0  0  0  0  0  0  0  0  0  0  0
    7.2000   14.3260   25.8450 C   0  0  0  0  0  0  0  0  0  0  0  0
    8.6490   14.3090   26.1360 C   0  0  0  0  0  0  0  0  0  0  0  0
    9.1610   14.5230   27.3590 N   0  0  0  0  0  0  0  0  0  0  0  0
    9.6000   14.1580   25.1990 N   0  0  0  0  0  0  0  0  0  0  0  0
   10.8210   14.3030   25.8380 C   0  0  0  0  0  0  0  0  0  0  0  0
   10.5420   14.5120   27.1840 C   0  0  0  0  0  0  0  0  0  0  0  0
   11.5910   14.6830   28.0890 C   0  0  0  0  0  0  0  0  0  0  0  0
   12.8650   14.6720   27.5430 C   0  0  0  0  0  0  0  0  0  0  0  0
   13.1400   14.4980   26.2450 N   0  0  0  0  0  0  0  0  0  0  0  0
   12.1290   14.3060   25.3940 C   0  0  0  0  0  0  0  0  0  0  0  0
   -0.3597    9.5587   27.4173 H   0  0  0  0  0  0  0  0  0  0  0  0
    9.2506    9.7660   23.4587 H   0  0  0  0  0  0  0  0  0  0  0  0
    7.2034    8.6728   22.5748 H   0  0  0  0  0  0  0  0  0  0  0  0
    4.9875    9.7791   22.8229 H   0  0  0  0  0  0  0  0  0  0  0  0
    9.1013   11.9595   24.6230 H   0  0  0  0  0  0  0  0  0  0  0  0
    3.3896   11.6775   25.7545 H   0  0  0  0  0  0  0  0  0  0  0  0
   -3.0186   11.8783   24.4482 H   0  0  0  0  0  0  0  0  0  0  0  0
   -2.1496   11.5536   22.9243 H   0  0  0  0  0  0  0  0  0  0  0  0
    4.2018   12.6918   23.1341 H   0  0  0  0  0  0  0  0  0  0  0  0
    3.3547   14.6307   25.3550 H   0  0  0  0  0  0  0  0  0  0  0  0
    4.5659   16.3181   26.7055 H   0  0  0  0  0  0  0  0  0  0  0  0
    7.0186   16.1331   27.0306 H   0  0  0  0  0  0  0  0  0  0  0  0
    8.6430   14.6648   28.2379 H   0  0  0  0  0  0  0  0  0  0  0  0
   11.4176   14.8179   29.1668 H   0  0  0  0  0  0  0  0  0  0  0  0
   13.7134   14.8172   28.2279 H   0  0  0  0  0  0  0  0  0  0  0  0
   12.3404   14.1483   24.3261 H   0  0  0  0  0  0  0  0  0  0  0  0
 10  5  2  0
  8  9  1  0
  8  6  2  0
  9 17  2  0
  6 11  1  0
 17 18  1  0
 17 16  1  0
 15 12  1  0
  5  3  1  0
  5 13  1  0
  4 12  2  0
  4  3  1  0
 18 13  1  0
 18 20  1  0
 11 16  2  0
 16 19  1  0
 12  7  1  0
  3  2  2  0
 20 19  2  0
 20 21  1  0
 19 24  1  0
 27 28  1  0
 27 25  2  0
 33 28  1  0
 33 32  2  0
 21 22  2  0
 28 29  2  0
 24 25  1  0
 24 23  2  0
  7  1  2  0
  2  1  1  0
  2 14  1  0
 25 26  1  0
 32 31  1  0
 22 23  1  0
 29 26  1  0
 29 30  1  0
 31 30  2  0
  1 34  1  0
  6 35  1  0
  8 36  1  0
  9 37  1  0
 11 38  1  0
 13 39  1  0
 15 40  1  0
 15 41  1  0
 18 42  1  0
 21 43  1  0
 22 44  1  0
 23 45  1  0
 26 46  1  0
 30 47  1  0
 31 48  1  0
 33 49  1  0
A    1
C4
A    2
C5
A    3
C6
A    4
N1
A    5
C7
A    6
C12
A    7
N3
A    8
C13
A    9
C14
A   10
O8
A   11
C15
A   12
C2
A   13
N9
A   14
CL
A   15
N11
A   16
C16
A   17
C17
A   18
C18
A   19
C19
A   20
C20
A   21
C21
A   22
C22
A   23
C23
A   24
C24
A   25
C25
A   26
N26
A   27
N27
A   28
C28
A   29
C29
A   30
C30
A   31
C31
A   32
N32
A   33
C33
M  END
