5LSG_QZQ_A_501
     RDKit          3D

 79 83  0  0  0  0  0  0  0  0999 V2000
   19.0500   19.7650   17.8230 C   0  0  0  0  0  0  0  0  0  0  0  0
   20.3410   20.5440   17.9070 C   0  0  0  0  0  0  0  0  0  0  0  0
   21.1060   20.7610   16.6590 C   0  0  0  0  0  0  0  0  0  0  0  0
   20.7420   21.1770   19.0170 C   0  0  0  0  0  0  0  0  0  0  0  0
   18.8030   19.1200   19.1910 C   0  0  0  0  0  0  0  0  0  0  0  0
   19.8250   17.9800   19.1170 C   0  0  0  0  0  0  0  0  0  0  0  0
   19.3980   17.2820   17.8420 C   0  0  0  0  0  0  0  0  0  0  0  0
   20.4200   16.4810   17.0070 C   0  0  0  0  0  0  0  0  0  0  0  0
   19.7650   15.9310   15.7210 C   0  0  0  0  0  0  0  0  0  0  0  0
   18.9820   16.9590   14.8760 C   0  0  0  0  0  0  0  0  0  0  0  0
   18.2940   17.9420   15.8510 C   0  0  0  0  0  0  0  0  0  0  0  0
   19.1680   18.4990   16.9820 C   0  0  0  0  0  0  0  0  0  0  0  0
   17.3390   18.8770   15.1830 C   0  0  0  0  0  0  0  0  0  0  0  0
   16.2170   18.2260   14.4070 C   0  0  0  0  0  0  0  0  0  0  0  0
   16.9350   17.4860   13.3020 C   0  0  0  0  0  0  0  0  0  0  0  0
   16.1370   17.3150   11.9570 C   0  0  0  0  0  0  0  0  0  0  0  0
   17.0970   16.8620   10.8450 C   0  0  0  0  0  0  0  0  0  0  0  0
   17.7400   17.8900    9.8540 C   0  0  0  0  0  0  0  0  0  0  0  0
   17.1630   17.4490    8.5280 C   0  0  0  0  0  0  0  0  0  0  0  0
   19.2460   17.7060    9.6530 C   0  0  0  0  0  0  0  0  0  0  0  0
   17.4330   19.3850   10.0710 C   0  0  0  0  0  0  0  0  0  0  0  0
   17.1480   20.1260    8.8900 O   0  0  0  0  0  0  0  0  0  0  0  0
   16.3660   19.7480   11.0780 C   0  0  0  0  0  0  0  0  0  0  0  0
   15.4770   18.6050   11.4910 C   0  0  0  0  0  0  0  0  0  0  0  0
   18.0080   15.7390   11.2980 C   0  0  0  0  0  0  0  0  0  0  0  0
   18.4840   15.6150   12.7450 C   0  0  0  0  0  0  0  0  0  0  0  0
   17.8380   16.3580   13.8990 C   0  0  0  0  0  0  0  0  0  0  0  0
   17.0200   15.3190   14.6890 C   0  0  0  0  0  0  0  0  0  0  0  0
   14.9470   16.3480   12.0630 C   0  0  0  0  0  0  0  0  0  0  0  0
   20.1030   17.6450   14.1080 C   0  0  0  0  0  0  0  0  0  0  0  0
   18.3910   16.3500   18.3170 C   0  0  0  0  0  0  0  0  0  0  0  0
   18.6320   15.6980   19.3400 O   0  0  0  0  0  0  0  0  0  0  0  0
   17.3580   16.2370   17.6700 O   0  0  0  0  0  0  0  0  0  0  0  0
   18.3040   20.4765   17.4393 H   0  0  0  0  0  0  0  0  0  0  0  0
   22.1370   21.0535   16.9071 H   0  0  0  0  0  0  0  0  0  0  0  0
   21.1199   19.8314   16.0711 H   0  0  0  0  0  0  0  0  0  0  0  0
   20.6297   21.5595   16.0711 H   0  0  0  0  0  0  0  0  0  0  0  0
   20.1932   21.0353   19.9597 H   0  0  0  0  0  0  0  0  0  0  0  0
   21.6202   21.8387   18.9860 H   0  0  0  0  0  0  0  0  0  0  0  0
   19.0195   19.8131   20.0173 H   0  0  0  0  0  0  0  0  0  0  0  0
   17.7655   18.8089   19.3831 H   0  0  0  0  0  0  0  0  0  0  0  0
   19.7471   17.3120   19.9875 H   0  0  0  0  0  0  0  0  0  0  0  0
   20.8732   18.3135   19.1191 H   0  0  0  0  0  0  0  0  0  0  0  0
   20.7971   15.6403   17.6079 H   0  0  0  0  0  0  0  0  0  0  0  0
   21.2463   17.1497   16.7241 H   0  0  0  0  0  0  0  0  0  0  0  0
   19.0677   15.1316   16.0122 H   0  0  0  0  0  0  0  0  0  0  0  0
   20.5946   15.5894   15.0845 H   0  0  0  0  0  0  0  0  0  0  0  0
   17.6252   17.3133   16.4572 H   0  0  0  0  0  0  0  0  0  0  0  0
   19.9313   19.0233   16.3882 H   0  0  0  0  0  0  0  0  0  0  0  0
   17.9129   19.5041   14.4849 H   0  0  0  0  0  0  0  0  0  0  0  0
   16.8544   19.4399   15.9943 H   0  0  0  0  0  0  0  0  0  0  0  0
   15.5339   18.9828   13.9940 H   0  0  0  0  0  0  0  0  0  0  0  0
   15.5925   17.5672   15.0283 H   0  0  0  0  0  0  0  0  0  0  0  0
   17.6914   18.1225   12.8197 H   0  0  0  0  0  0  0  0  0  0  0  0
   16.3725   16.4691   10.1165 H   0  0  0  0  0  0  0  0  0  0  0  0
   16.3004   16.7897    8.7046 H   0  0  0  0  0  0  0  0  0  0  0  0
   16.8390   18.3318    7.9573 H   0  0  0  0  0  0  0  0  0  0  0  0
   17.9298   16.9046    7.9573 H   0  0  0  0  0  0  0  0  0  0  0  0
   19.7420   17.6454   10.6330 H   0  0  0  0  0  0  0  0  0  0  0  0
   19.4303   16.7787    9.0908 H   0  0  0  0  0  0  0  0  0  0  0  0
   19.6481   18.5617    9.0908 H   0  0  0  0  0  0  0  0  0  0  0  0
   18.4081   19.6731   10.4908 H   0  0  0  0  0  0  0  0  0  0  0  0
   16.8038   21.0208    9.1369 H   0  0  0  0  0  0  0  0  0  0  0  0
   16.2482   20.7661   11.4774 H   0  0  0  0  0  0  0  0  0  0  0  0
   14.3816   18.6996   11.4569 H   0  0  0  0  0  0  0  0  0  0  0  0
   17.4802   14.8021   11.0663 H   0  0  0  0  0  0  0  0  0  0  0  0
   18.9427   15.9719   10.7669 H   0  0  0  0  0  0  0  0  0  0  0  0
   18.4123   14.5464   12.9959 H   0  0  0  0  0  0  0  0  0  0  0  0
   19.4672   16.1057   12.6934 H   0  0  0  0  0  0  0  0  0  0  0  0
   17.1543   15.4896   15.7674 H   0  0  0  0  0  0  0  0  0  0  0  0
   15.9551   15.4183   14.4319 H   0  0  0  0  0  0  0  0  0  0  0  0
   17.3665   14.3071   14.4319 H   0  0  0  0  0  0  0  0  0  0  0  0
   14.7186   16.1624   13.1229 H   0  0  0  0  0  0  0  0  0  0  0  0
   14.0690   16.7918   11.5710 H   0  0  0  0  0  0  0  0  0  0  0  0
   15.2018   15.3977   11.5710 H   0  0  0  0  0  0  0  0  0  0  0  0
   20.8193   18.0834   14.8184 H   0  0  0  0  0  0  0  0  0  0  0  0
   20.6187   16.9076   13.4753 H   0  0  0  0  0  0  0  0  0  0  0  0
   19.6811   18.4398   13.4753 H   0  0  0  0  0  0  0  0  0  0  0  0
   16.4898   16.1420   18.1362 H   0  0  0  0  0  0  0  0  0  0  0  0
 19 18  1  0
 22 21  1  0
 20 18  1  0
 18 21  1  0
 18 17  1  0
 21 23  1  0
 23 24  2  0
 17 25  1  0
 17 16  1  0
 24 16  1  0
 25 26  1  0
 16 29  1  0
 16 15  1  0
 26 27  1  0
 15 27  1  0
 15 14  1  0
 27 28  1  0
 27 10  1  0
 30 10  1  0
 14 13  1  0
 10  9  1  0
 10 11  1  0
 13 11  1  0
  9  8  1  0
 11 12  1  0
  3  2  1  0
 12  1  1  0
 12  7  1  0
  8  7  1  0
  2  1  1  0
  2  4  2  3
  1  5  1  0
  7 31  1  0
  7  6  1  0
 32 31  2  0
 31 33  1  0
  6  5  1  0
  1 34  1  0
  3 35  1  0
  3 36  1  0
  3 37  1  0
  4 38  1  0
  4 39  1  0
  5 40  1  0
  5 41  1  0
  6 42  1  0
  6 43  1  0
  8 44  1  0
  8 45  1  0
  9 46  1  0
  9 47  1  0
 11 48  1  0
 12 49  1  0
 13 50  1  0
 13 51  1  0
 14 52  1  0
 14 53  1  0
 15 54  1  0
 17 55  1  0
 19 56  1  0
 19 57  1  0
 19 58  1  0
 20 59  1  0
 20 60  1  0
 20 61  1  0
 21 62  1  0
 22 63  1  0
 23 64  1  0
 24 65  1  0
 25 66  1  0
 25 67  1  0
 26 68  1  0
 26 69  1  0
 28 70  1  0
 28 71  1  0
 28 72  1  0
 29 73  1  0
 29 74  1  0
 29 75  1  0
 30 76  1  0
 30 77  1  0
 30 78  1  0
 33 79  1  0
A    1
C01
A    2
C04
A    3
C36
A    4
C37
A    5
C07
A    6
C02
A    7
C12
A    8
C2
A    9
C3
A   10
C19
A   11
C20
A   12
C21
A   13
C15
A   14
C13
A   15
C14
A   16
C17
A   17
C18
A   18
C23
A   19
C05
A   20
C06
A   21
C24
A   22
O01
A   23
C26
A   24
C25
A   25
C28
A   26
C27
A   27
C22
A   28
C35
A   29
C33
A   30
C34
A   31
C11
A   32
O16
A   33
O1
M  END
