5ISC_SAO_A_501
     RDKit          3D

 47 49  0  0  0  0  0  0  0  0999 V2000
   54.2900   39.4290  138.0700 N   0  0  0  0  0  0  0  0  0  0  0  0
   53.3620   38.3050  138.3830 C   0  0  0  0  0  0  0  0  0  0  0  0
   52.5820   37.8640  137.1390 C   0  0  0  0  0  0  0  0  0  0  0  0
   53.4440   37.2820  136.0230 C   0  0  0  0  0  0  0  0  0  0  0  0
   52.2700   36.4450  134.9090 S   0  0  0  0  0  0  0  0  0  0  0  0
   54.1490   37.1510  139.0190 C   0  0  0  0  0  0  0  0  0  0  0  0
   55.2930   36.9070  138.5630 O   0  0  0  0  0  0  0  0  0  0  0  0
   53.5910   36.5420  139.9660 O   0  0  0  0  0  0  0  0  0  0  0  0
   52.1560   37.5410  133.4670 C   0  0  0  0  0  0  0  0  0  0  0  0
   51.3260   38.7760  133.7620 C   0  0  0  0  0  0  0  0  0  0  0  0
   51.6140   39.7440  132.7280 O   0  0  0  0  0  0  0  0  0  0  0  0
   49.8000   38.5640  133.7520 C   0  0  0  0  0  0  0  0  0  0  0  0
   49.1860   39.1460  134.9000 O   0  0  0  0  0  0  0  0  0  0  0  0
   49.3450   39.2630  132.4620 C   0  0  0  0  0  0  0  0  0  0  0  0
   48.0330   39.8160  132.5710 O   0  0  0  0  0  0  0  0  0  0  0  0
   50.4060   40.3530  132.3220 C   0  0  0  0  0  0  0  0  0  0  0  0
   50.5770   40.8670  130.9670 N   0  0  0  0  0  0  0  0  0  0  0  0
   50.7010   40.1480  129.8170 C   0  0  0  0  0  0  0  0  0  0  0  0
   50.8620   40.8660  128.7220 N   0  0  0  0  0  0  0  0  0  0  0  0
   50.8340   42.1660  129.2160 C   0  0  0  0  0  0  0  0  0  0  0  0
   50.9390   43.4170  128.5580 C   0  0  0  0  0  0  0  0  0  0  0  0
   51.0800   43.5580  127.2380 N   0  0  0  0  0  0  0  0  0  0  0  0
   50.8680   44.5280  129.3270 N   0  0  0  0  0  0  0  0  0  0  0  0
   50.7010   44.3920  130.6470 C   0  0  0  0  0  0  0  0  0  0  0  0
   50.5860   43.2720  131.3680 N   0  0  0  0  0  0  0  0  0  0  0  0
   50.6620   42.1930  130.5830 C   0  0  0  0  0  0  0  0  0  0  0  0
   54.6335   39.8451  138.9474 H   0  0  0  0  0  0  0  0  0  0  0  0
   55.0873   39.0738  137.5232 H   0  0  0  0  0  0  0  0  0  0  0  0
   53.7903   40.1447  137.5232 H   0  0  0  0  0  0  0  0  0  0  0  0
   52.6112   38.6473  139.1104 H   0  0  0  0  0  0  0  0  0  0  0  0
   52.0490   38.7395  136.7399 H   0  0  0  0  0  0  0  0  0  0  0  0
   51.9063   37.0589  137.4635 H   0  0  0  0  0  0  0  0  0  0  0  0
   54.1703   36.5632  136.4302 H   0  0  0  0  0  0  0  0  0  0  0  0
   54.0261   38.0572  135.5032 H   0  0  0  0  0  0  0  0  0  0  0  0
   53.8077   36.7785  140.9026 H   0  0  0  0  0  0  0  0  0  0  0  0
   51.6910   36.9895  132.6366 H   0  0  0  0  0  0  0  0  0  0  0  0
   53.1731   37.8674  133.2045 H   0  0  0  0  0  0  0  0  0  0  0  0
   51.5974   39.0896  134.7808 H   0  0  0  0  0  0  0  0  0  0  0  0
   49.5198   37.5007  133.7820 H   0  0  0  0  0  0  0  0  0  0  0  0
   49.5893   38.7638  135.7194 H   0  0  0  0  0  0  0  0  0  0  0  0
   49.2696   38.5863  131.5981 H   0  0  0  0  0  0  0  0  0  0  0  0
   47.7955   39.9161  133.5268 H   0  0  0  0  0  0  0  0  0  0  0  0
   50.1014   41.2216  132.9242 H   0  0  0  0  0  0  0  0  0  0  0  0
   50.6692   39.0486  129.8022 H   0  0  0  0  0  0  0  0  0  0  0  0
   51.7581   44.2361  126.8620 H   0  0  0  0  0  0  0  0  0  0  0  0
   50.5107   42.9887  126.5955 H   0  0  0  0  0  0  0  0  0  0  0  0
   50.6514   45.3309  131.2180 H   0  0  0  0  0  0  0  0  0  0  0  0
 22 21  1  0
 21 20  2  0
 21 23  1  0
 19 20  1  0
 19 18  2  0
 20 26  1  0
 23 24  2  0
 18 17  1  0
 26 17  1  0
 26 25  2  0
 24 25  1  0
 17 16  1  0
 16 14  1  0
 16 11  1  0
 14 15  1  0
 14 12  1  0
 11 10  1  0
  9 10  1  0
  9  5  1  0
 12 10  1  0
 12 13  1  0
  5  4  1  0
  4  3  1  0
  3  2  1  0
  1  2  1  0
  2  6  1  0
  7  6  2  0
  6  8  1  0
  1 27  1  0
  1 28  1  0
  1 29  1  0
  2 30  1  0
  3 31  1  0
  3 32  1  0
  4 33  1  0
  4 34  1  0
  8 35  1  0
  9 36  1  0
  9 37  1  0
 10 38  1  0
 12 39  1  0
 13 40  1  0
 14 41  1  0
 15 42  1  0
 16 43  1  0
 18 44  1  0
 22 45  1  0
 22 46  1  0
 24 47  1  0
M  CHG  1   1   1
A    1
N
A    2
CA
A    3
CB
A    4
CG
A    5
SD
A    6
C
A    7
O
A    8
OXT
A    9
C5'
A   10
C4'
A   11
O4'
A   12
C3'
A   13
O3'
A   14
C2'
A   15
O2'
A   16
C1'
A   17
N9
A   18
C8
A   19
N7
A   20
C5
A   21
C6
A   22
N6
A   23
N1
A   24
C2
A   25
N3
A   26
C4
M  END
