5LVO_78W_A_402
     RDKit          3D

 33 34  0  0  0  0  0  0  0  0999 V2000
  -12.7860   40.5950  -12.4670 C   0  0  0  0  0  0  0  0  0  0  0  0
  -13.8690   39.4580  -10.6330 C   0  0  0  0  0  0  0  0  0  0  0  0
  -14.8770   39.0240  -11.4660 C   0  0  0  0  0  0  0  0  0  0  0  0
  -14.8210   39.4060  -12.7940 C   0  0  0  0  0  0  0  0  0  0  0  0
  -13.7970   40.1810  -13.3080 C   0  0  0  0  0  0  0  0  0  0  0  0
  -11.0020   39.9320   -9.6390 C   0  0  0  0  0  0  0  0  0  0  0  0
   -9.4850   35.4840  -10.1510 C   0  0  0  0  0  0  0  0  0  0  0  0
   -9.7890   34.1300  -10.1910 C   0  0  0  0  0  0  0  0  0  0  0  0
   -9.9160   40.7250   -8.6450 S   0  0  0  0  0  0  0  0  0  0  0  0
  -12.8230   40.2230  -11.1390 C   0  0  0  0  0  0  0  0  0  0  0  0
  -11.0510   38.6020   -9.7360 N   0  0  0  0  0  0  0  0  0  0  0  0
   -8.2980   40.7600   -9.3570 C   0  0  0  0  0  0  0  0  0  0  0  0
  -11.8180   40.6620  -10.2680 N   0  0  0  0  0  0  0  0  0  0  0  0
  -16.1120   38.8970  -13.8980 Cl  0  0  0  0  0  0  0  0  0  0  0  0
  -10.0930   37.7770   -9.2920 C   0  0  0  0  0  0  0  0  0  0  0  0
   -8.9980   38.0860   -8.8770 O   0  0  0  0  0  0  0  0  0  0  0  0
  -10.3480   36.3310   -9.3720 C   0  0  0  0  0  0  0  0  0  0  0  0
  -11.4340   35.6920   -8.6630 C   0  0  0  0  0  0  0  0  0  0  0  0
  -12.4310   36.7470   -7.7310 Cl  0  0  0  0  0  0  0  0  0  0  0  0
  -11.6920   34.3450   -8.7260 C   0  0  0  0  0  0  0  0  0  0  0  0
  -10.8580   33.5620   -9.4930 C   0  0  0  0  0  0  0  0  0  0  0  0
   -8.4770   36.1020  -10.7970 F   0  0  0  0  0  0  0  0  0  0  0  0
  -11.9609   41.2136  -12.8497 H   0  0  0  0  0  0  0  0  0  0  0  0
  -13.8914   39.1987   -9.5642 H   0  0  0  0  0  0  0  0  0  0  0  0
  -15.6972   38.3959  -11.0882 H   0  0  0  0  0  0  0  0  0  0  0  0
  -13.7894   40.4626  -14.3713 H   0  0  0  0  0  0  0  0  0  0  0  0
   -9.1562   33.4708  -10.8033 H   0  0  0  0  0  0  0  0  0  0  0  0
  -11.8794   38.1821  -10.1813 H   0  0  0  0  0  0  0  0  0  0  0  0
   -7.5449   40.7763   -8.5554 H   0  0  0  0  0  0  0  0  0  0  0  0
   -8.1518   39.8648   -9.9793 H   0  0  0  0  0  0  0  0  0  0  0  0
   -8.1906   41.6607   -9.9793 H   0  0  0  0  0  0  0  0  0  0  0  0
  -12.5394   33.9044   -8.1803 H   0  0  0  0  0  0  0  0  0  0  0  0
  -11.0353   32.4783   -9.5568 H   0  0  0  0  0  0  0  0  0  0  0  0
 14  4  1  0
  5  4  1  0
  5  1  2  0
  4  3  2  0
  1 10  1  0
  3  2  1  0
 10  2  2  0
 10 13  1  0
 22  7  1  0
 13  6  2  0
  8  7  2  0
  8 21  1  0
  7 17  1  0
 11  6  1  0
 11 15  1  0
  6  9  1  0
 21 20  2  0
 17 15  1  0
 17 18  2  0
 12  9  1  0
 15 16  2  0
 20 18  1  0
 18 19  1  0
  1 23  1  0
  2 24  1  0
  3 25  1  0
  5 26  1  0
  8 27  1  0
 11 28  1  0
 12 29  1  0
 12 30  1  0
 12 31  1  0
 20 32  1  0
 21 33  1  0
A    1
C1
A    2
C3
A    3
C4
A    4
C5
A    5
C6
A    6
C9
A    7
C13
A    8
C14
A    9
S21
A   10
C2
A   11
N10
A   12
C22
A   13
N8
A   14
CL1
A   15
C11
A   16
O20
A   17
C12
A   18
C17
A   19
CL2
A   20
C16
A   21
C15
A   22
F1
M  END
