5LVR_78Y_A_904
     RDKit          3D

 25 26  0  0  0  0  0  0  0  0999 V2000
  -10.8700   17.7750   80.0430 C   0  0  0  0  0  0  0  0  0  0  0  0
  -11.7930   16.7410   80.1720 C   0  0  0  0  0  0  0  0  0  0  0  0
  -12.1890   16.3350   81.4370 C   0  0  0  0  0  0  0  0  0  0  0  0
   -9.6640   19.2660   78.5750 N   0  0  0  0  0  0  0  0  0  0  0  0
  -11.6750   16.9520   82.5640 C   0  0  0  0  0  0  0  0  0  0  0  0
  -10.7480   17.9710   82.4320 C   0  0  0  0  0  0  0  0  0  0  0  0
  -10.5520   18.2850   78.7480 N   0  0  0  0  0  0  0  0  0  0  0  0
  -10.3340   18.3830   81.1760 C   0  0  0  0  0  0  0  0  0  0  0  0
  -11.1680   17.8490   77.6360 N   0  0  0  0  0  0  0  0  0  0  0  0
   -8.8680   20.5860   75.3910 O   0  0  0  0  0  0  0  0  0  0  0  0
   -8.8340   20.4540   76.6080 C   0  0  0  0  0  0  0  0  0  0  0  0
   -8.0240   21.1340   77.3970 N   0  0  0  0  0  0  0  0  0  0  0  0
   -9.6810   19.4970   77.2600 C   0  0  0  0  0  0  0  0  0  0  0  0
  -10.6320   18.6060   76.6920 C   0  0  0  0  0  0  0  0  0  0  0  0
  -11.0270   18.4410   75.2620 C   0  0  0  0  0  0  0  0  0  0  0  0
  -12.2047   16.2502   79.2778 H   0  0  0  0  0  0  0  0  0  0  0  0
  -12.9165   15.5171   81.5456 H   0  0  0  0  0  0  0  0  0  0  0  0
  -12.0031   16.6327   83.5642 H   0  0  0  0  0  0  0  0  0  0  0  0
  -10.3376   18.4566   83.3296 H   0  0  0  0  0  0  0  0  0  0  0  0
   -9.5875   19.1844   81.0740 H   0  0  0  0  0  0  0  0  0  0  0  0
   -8.1164   21.0565   78.4199 H   0  0  0  0  0  0  0  0  0  0  0  0
   -7.2993   21.7424   76.9900 H   0  0  0  0  0  0  0  0  0  0  0  0
  -12.0408   18.0175   75.2082 H   0  0  0  0  0  0  0  0  0  0  0  0
  -11.0118   19.4207   74.7620 H   0  0  0  0  0  0  0  0  0  0  0  0
  -10.3195   17.7632   74.7620 H   0  0  0  0  0  0  0  0  0  0  0  0
 15 14  1  0
 10 11  2  0
 11 13  1  0
 11 12  1  0
 14 13  1  0
 14  9  2  0
 13  4  2  0
  9  7  1  0
  4  7  1  0
  7  1  1  0
  1  2  2  0
  1  8  1  0
  2  3  1  0
  8  6  2  0
  3  5  2  0
  6  5  1  0
  2 16  1  0
  3 17  1  0
  5 18  1  0
  6 19  1  0
  8 20  1  0
 12 21  1  0
 12 22  1  0
 15 23  1  0
 15 24  1  0
 15 25  1  0
A    1
C4
A    2
C5
A    3
C6
A    4
N1
A    5
C7
A    6
C8
A    7
N2
A    8
C9
A    9
N3
A   10
O
A   11
C
A   12
N
A   13
C1
A   14
C2
A   15
C3
M  END
