5LWB_79H_A_814
     RDKit          3D

 46 48  0  0  0  0  0  0  0  0999 V2000
   85.6490   60.4240   12.1220 C   0  0  0  0  0  0  0  0  0  0  0  0
   84.1750   66.4160   11.8700 N   0  0  0  0  0  0  0  0  0  0  0  0
   85.0430   66.0430   12.5180 C   0  0  0  0  0  0  0  0  0  0  0  0
   86.1550   65.6290   13.3270 C   0  0  0  0  0  0  0  0  0  0  0  0
   86.9140   66.3990   14.2190 C   0  0  0  0  0  0  0  0  0  0  0  0
   87.9660   65.7490   14.6900 N   0  0  0  0  0  0  0  0  0  0  0  0
   87.8940   64.5100   14.0890 N   0  0  0  0  0  0  0  0  0  0  0  0
   88.8780   63.5070   14.2580 C   0  0  0  0  0  0  0  0  0  0  0  0
   89.8790   63.7040   14.9570 O   0  0  0  0  0  0  0  0  0  0  0  0
   88.6010   62.2870   13.5130 C   0  0  0  0  0  0  0  0  0  0  0  0
   89.5790   61.1270   13.5670 C   0  0  0  0  0  0  0  0  0  0  0  0
   89.9200   60.6650   15.0080 C   0  0  0  0  0  0  0  0  0  0  0  0
   90.8330   61.3380   12.6940 C   0  0  0  0  0  0  0  0  0  0  0  0
   86.7980   64.3970   13.2860 C   0  0  0  0  0  0  0  0  0  0  0  0
   86.5450   63.2280   12.6080 N   0  0  0  0  0  0  0  0  0  0  0  0
   87.4340   62.1670   12.7190 C   0  0  0  0  0  0  0  0  0  0  0  0
   86.9000   61.0360   11.9230 C   0  0  0  0  0  0  0  0  0  0  0  0
   85.4120   59.4810   11.2260 N   0  0  0  0  0  0  0  0  0  0  0  0
   86.5160   59.4660   10.4330 N   0  0  0  0  0  0  0  0  0  0  0  0
   87.4280   60.3860   10.8270 C   0  0  0  0  0  0  0  0  0  0  0  0
   86.6130   58.5290    9.3200 C   0  0  0  0  0  0  0  0  0  0  0  0
   86.3600   59.2200    7.9690 C   0  0  0  0  0  0  0  0  0  0  0  0
   86.8480   60.6040    7.9690 N   0  0  0  0  0  0  0  0  0  0  0  0
   85.8890   61.5390    7.3760 C   0  0  0  0  0  0  0  0  0  0  0  0
   88.1320   60.7050    7.3020 C   0  0  0  0  0  0  0  0  0  0  0  0
   84.9511   60.6974   12.9271 H   0  0  0  0  0  0  0  0  0  0  0  0
   86.6621   67.4329   14.4977 H   0  0  0  0  0  0  0  0  0  0  0  0
   88.0582   61.8695   14.3739 H   0  0  0  0  0  0  0  0  0  0  0  0
   89.0369   60.2859   13.1103 H   0  0  0  0  0  0  0  0  0  0  0  0
   89.4285   61.3309   15.7325 H   0  0  0  0  0  0  0  0  0  0  0  0
   89.5640   59.6349   15.1567 H   0  0  0  0  0  0  0  0  0  0  0  0
   91.0093   60.7016   15.1567 H   0  0  0  0  0  0  0  0  0  0  0  0
   91.7099   61.4856   13.3415 H   0  0  0  0  0  0  0  0  0  0  0  0
   90.9907   60.4538   12.0590 H   0  0  0  0  0  0  0  0  0  0  0  0
   90.6927   62.2252   12.0590 H   0  0  0  0  0  0  0  0  0  0  0  0
   88.4056   60.5787   10.3609 H   0  0  0  0  0  0  0  0  0  0  0  0
   85.8665   57.7330    9.4583 H   0  0  0  0  0  0  0  0  0  0  0  0
   87.6326   58.1163    9.3078 H   0  0  0  0  0  0  0  0  0  0  0  0
   85.2788   59.2230    7.7668 H   0  0  0  0  0  0  0  0  0  0  0  0
   86.9042   58.6639    7.1915 H   0  0  0  0  0  0  0  0  0  0  0  0
   85.3483   62.0661    8.1759 H   0  0  0  0  0  0  0  0  0  0  0  0
   86.4262   62.2696    6.7534 H   0  0  0  0  0  0  0  0  0  0  0  0
   85.1723   60.9834    6.7534 H   0  0  0  0  0  0  0  0  0  0  0  0
   88.9320   60.7679    8.0543 H   0  0  0  0  0  0  0  0  0  0  0  0
   88.2893   59.8165    6.6729 H   0  0  0  0  0  0  0  0  0  0  0  0
   88.1484   61.6072    6.6729 H   0  0  0  0  0  0  0  0  0  0  0  0
 25 23  1  0
 24 23  1  0
 23 22  1  0
 22 21  1  0
 21 19  1  0
 19 20  1  0
 19 18  1  0
 20 17  2  0
 18  1  2  0
  2  3  3  0
 17  1  1  0
 17 16  1  0
  3  4  1  0
 15 16  2  0
 15 14  1  0
 13 11  1  0
 16 10  1  0
 14  4  2  0
 14  7  1  0
  4  5  1  0
 10 11  1  0
 10  8  1  0
 11 12  1  0
  7  8  1  0
  7  6  1  0
  5  6  2  0
  8  9  2  0
  1 26  1  0
  5 27  1  0
 10 28  1  0
 11 29  1  0
 12 30  1  0
 12 31  1  0
 12 32  1  0
 13 33  1  0
 13 34  1  0
 13 35  1  0
 20 36  1  0
 21 37  1  0
 21 38  1  0
 22 39  1  0
 22 40  1  0
 24 41  1  0
 24 42  1  0
 24 43  1  0
 25 44  1  0
 25 45  1  0
 25 46  1  0
A    1
C16
A    2
N3
A    3
C9
A    4
C6
A    5
C7
A    6
N1
A    7
N2
A    8
C8
A    9
O
A   10
C3
A   11
C1
A   12
C2
A   13
C
A   14
C5
A   15
N
A   16
C4
A   17
C10
A   18
N6
A   19
N4
A   20
C11
A   21
C12
A   22
C13
A   23
N5
A   24
C15
A   25
C14
M  END
