5LWD_79E_E_411
     RDKit          3D

 67 67  0  0  0  0  0  0  0  0999 V2000
   11.8940   42.0390   -8.9110 O   0  0  0  0  0  0  0  0  0  0  0  0
    8.1260   41.8860   -4.2980 C   0  0  0  0  0  0  0  0  0  0  0  0
    8.9210   39.5720   -3.9500 C   0  0  0  0  0  0  0  0  0  0  0  0
   13.2580   40.7240  -10.1200 O   0  0  0  0  0  0  0  0  0  0  0  0
   10.1430   38.7040   -3.6710 C   0  0  0  0  0  0  0  0  0  0  0  0
   11.2990   39.1290   -4.4670 N   0  0  0  0  0  0  0  0  0  0  0  0
   10.5050   38.7490   -2.1890 C   0  0  0  0  0  0  0  0  0  0  0  0
    9.4540   38.2370   -1.2130 C   0  0  0  0  0  0  0  0  0  0  0  0
   12.6790   40.0940   -8.0770 N   0  0  0  0  0  0  0  0  0  0  0  0
    9.8150   38.6250    0.2050 C   0  0  0  0  0  0  0  0  0  0  0  0
    9.5740   42.8430   -5.9420 O   0  0  0  0  0  0  0  0  0  0  0  0
    9.2400   36.7260   -1.3580 C   0  0  0  0  0  0  0  0  0  0  0  0
   12.0080   40.2790   -6.7960 C   0  0  0  0  0  0  0  0  0  0  0  0
   12.5520   41.0370   -9.0230 C   0  0  0  0  0  0  0  0  0  0  0  0
    7.3680   43.3540   -6.0760 N   0  0  0  0  0  0  0  0  0  0  0  0
   13.6570   41.8500  -10.9900 C   0  0  0  0  0  0  0  0  0  0  0  0
   15.0110   41.3750  -11.4480 C   0  0  0  0  0  0  0  0  0  0  0  0
   15.1480   40.7620  -12.6840 C   0  0  0  0  0  0  0  0  0  0  0  0
    8.4090   42.7190   -5.5420 C   0  0  0  0  0  0  0  0  0  0  0  0
    9.1630   40.8640   -4.1670 N   0  0  0  0  0  0  0  0  0  0  0  0
    7.7930   39.0800   -3.8930 O   0  0  0  0  0  0  0  0  0  0  0  0
   11.5080   38.7280   -6.0490 P   0  0  0  0  0  0  0  0  0  0  0  0
   10.2000   38.2910   -6.5800 O   0  0  0  0  0  0  0  0  0  0  0  0
   12.5990   37.6840   -6.2630 O   0  0  0  0  0  0  0  0  0  0  0  0
   16.1480   41.5480  -10.6650 C   0  0  0  0  0  0  0  0  0  0  0  0
   17.3850   41.1050  -11.1020 C   0  0  0  0  0  0  0  0  0  0  0  0
   17.5040   40.4730  -12.3310 C   0  0  0  0  0  0  0  0  0  0  0  0
   16.3840   40.3040  -13.1190 C   0  0  0  0  0  0  0  0  0  0  0  0
    8.3000   43.0170   -3.2730 C   0  0  0  0  0  0  0  0  0  0  0  0
    7.8830   42.8110   -1.8580 C   0  0  0  0  0  0  0  0  0  0  0  0
    9.0590   42.3210   -1.0990 C   0  0  0  0  0  0  0  0  0  0  0  0
    7.4450   44.1440   -1.2680 C   0  0  0  0  0  0  0  0  0  0  0  0
    7.1753   41.3356   -4.2418 H   0  0  0  0  0  0  0  0  0  0  0  0
    9.8833   37.6736   -3.9554 H   0  0  0  0  0  0  0  0  0  0  0  0
   12.1284   38.7694   -3.9734 H   0  0  0  0  0  0  0  0  0  0  0  0
   11.4129   38.1439   -2.0490 H   0  0  0  0  0  0  0  0  0  0  0  0
   10.6238   39.8167   -1.9525 H   0  0  0  0  0  0  0  0  0  0  0  0
    8.4942   38.7153   -1.4578 H   0  0  0  0  0  0  0  0  0  0  0  0
   13.2431   39.2505   -8.2535 H   0  0  0  0  0  0  0  0  0  0  0  0
    9.2407   38.0078    0.9115 H   0  0  0  0  0  0  0  0  0  0  0  0
   10.8909   38.4628    0.3669 H   0  0  0  0  0  0  0  0  0  0  0  0
    9.5758   39.6864    0.3669 H   0  0  0  0  0  0  0  0  0  0  0  0
    9.1751   36.2675   -0.3602 H   0  0  0  0  0  0  0  0  0  0  0  0
    8.3064   36.5391   -1.9089 H   0  0  0  0  0  0  0  0  0  0  0  0
   10.0850   36.2872   -1.9089 H   0  0  0  0  0  0  0  0  0  0  0  0
   12.6954   40.7951   -6.1096 H   0  0  0  0  0  0  0  0  0  0  0  0
   11.0980   40.8692   -6.9789 H   0  0  0  0  0  0  0  0  0  0  0  0
    6.6598   43.7860   -5.4655 H   0  0  0  0  0  0  0  0  0  0  0  0
    7.2707   43.4133   -7.0997 H   0  0  0  0  0  0  0  0  0  0  0  0
   13.7260   42.7931  -10.4280 H   0  0  0  0  0  0  0  0  0  0  0  0
   12.9505   42.0747  -11.8026 H   0  0  0  0  0  0  0  0  0  0  0  0
   14.2654   40.6369  -13.3285 H   0  0  0  0  0  0  0  0  0  0  0  0
   10.1455   41.1625   -4.2478 H   0  0  0  0  0  0  0  0  0  0  0  0
   12.9297   37.3676   -5.3852 H   0  0  0  0  0  0  0  0  0  0  0  0
   16.0632   42.0430   -9.6863 H   0  0  0  0  0  0  0  0  0  0  0  0
   18.2751   41.2546  -10.4732 H   0  0  0  0  0  0  0  0  0  0  0  0
   18.4836   40.1094  -12.6747 H   0  0  0  0  0  0  0  0  0  0  0  0
   16.4709   39.8046  -14.0952 H   0  0  0  0  0  0  0  0  0  0  0  0
    9.3710   43.2672   -3.2551 H   0  0  0  0  0  0  0  0  0  0  0  0
    7.6054   43.7913   -3.6309 H   0  0  0  0  0  0  0  0  0  0  0  0
    7.0544   42.0895   -1.8046 H   0  0  0  0  0  0  0  0  0  0  0  0
    8.8598   42.4040   -0.0204 H   0  0  0  0  0  0  0  0  0  0  0  0
    9.2493   41.2687   -1.3568 H   0  0  0  0  0  0  0  0  0  0  0  0
    9.9402   42.9268   -1.3568 H   0  0  0  0  0  0  0  0  0  0  0  0
    7.4650   44.0832   -0.1699 H   0  0  0  0  0  0  0  0  0  0  0  0
    8.1300   44.9364   -1.6039 H   0  0  0  0  0  0  0  0  0  0  0  0
    6.4235   44.3757   -1.6039 H   0  0  0  0  0  0  0  0  0  0  0  0
 28 18  1  0
 28 27  2  0
 18 17  2  0
 27 26  1  0
 17 16  1  0
 17 25  1  0
 26 25  2  0
 16  4  1  0
  4 14  1  0
 14  1  2  0
 14  9  1  0
  9 13  1  0
 13 22  1  0
 23 22  2  0
 24 22  1  0
 15 19  1  0
 22  6  1  0
 11 19  2  0
 19  2  1  0
  6  5  1  0
  2 20  1  0
  2 29  1  0
 20  3  1  0
  3 21  2  0
  3  5  1  0
  5  7  1  0
 29 30  1  0
  7  8  1  0
 30 32  1  0
 30 31  1  0
 12  8  1  0
  8 10  1  0
  2 33  1  0
  5 34  1  0
  6 35  1  0
  7 36  1  0
  7 37  1  0
  8 38  1  0
  9 39  1  0
 10 40  1  0
 10 41  1  0
 10 42  1  0
 12 43  1  0
 12 44  1  0
 12 45  1  0
 13 46  1  0
 13 47  1  0
 15 48  1  0
 15 49  1  0
 16 50  1  0
 16 51  1  0
 18 52  1  0
 20 53  1  0
 24 54  1  0
 25 55  1  0
 26 56  1  0
 27 57  1  0
 28 58  1  0
 29 59  1  0
 29 60  1  0
 30 61  1  0
 31 62  1  0
 31 63  1  0
 31 64  1  0
 32 65  1  0
 32 66  1  0
 32 67  1  0
A    1
O3
A    2
C4
A    3
C5
A    4
O4
A    5
C6
A    6
N1
A    7
C7
A    8
C8
A    9
N2
A   10
C9
A   11
O5
A   12
C10
A   13
C11
A   14
C12
A   15
N3
A   16
C13
A   17
C14
A   18
C15
A   19
C20
A   20
N
A   21
O
A   22
P
A   23
O2
A   24
O1
A   25
C19
A   26
C18
A   27
C17
A   28
C16
A   29
C3
A   30
C1
A   31
C2
A   32
C
M  END
