5LWM_79T_A_1201
     RDKit          3D

 56 60  0  0  0  0  0  0  0  0999 V2000
   40.9140   23.1440   53.7500 C   0  0  0  0  0  0  0  0  0  0  0  0
   37.1580   22.6460   55.5120 C   0  0  0  0  0  0  0  0  0  0  0  0
   37.5420   21.5810   56.2560 C   0  0  0  0  0  0  0  0  0  0  0  0
   38.8690   21.2990   56.0160 N   0  0  0  0  0  0  0  0  0  0  0  0
   38.9640   25.5610   52.1680 C   0  0  0  0  0  0  0  0  0  0  0  0
   38.8020   26.5890   51.1690 C   0  0  0  0  0  0  0  0  0  0  0  0
   38.0080   25.0270   53.0020 N   0  0  0  0  0  0  0  0  0  0  0  0
   39.5770   27.6450   50.8490 C   0  0  0  0  0  0  0  0  0  0  0  0
   38.9180   28.3480   49.8160 C   0  0  0  0  0  0  0  0  0  0  0  0
   37.7880   27.6800   49.5370 C   0  0  0  0  0  0  0  0  0  0  0  0
   36.7930   28.0610   48.6150 C   0  0  0  0  0  0  0  0  0  0  0  0
   40.1550   25.0220   52.3210 N   0  0  0  0  0  0  0  0  0  0  0  0
   36.4250   29.1970   47.9910 C   0  0  0  0  0  0  0  0  0  0  0  0
   36.6130   30.5330   48.6470 C   0  0  0  0  0  0  0  0  0  0  0  0
   37.2420   32.8770   48.5990 C   0  0  0  0  0  0  0  0  0  0  0  0
   37.2210   31.5340   47.9990 N   0  0  0  0  0  0  0  0  0  0  0  0
   35.3950   28.9940   45.6520 N   0  0  0  0  0  0  0  0  0  0  0  0
   35.8500   29.1090   46.6900 C   0  0  0  0  0  0  0  0  0  0  0  0
   36.1240   30.6840   49.7550 O   0  0  0  0  0  0  0  0  0  0  0  0
   37.9680   31.4520   46.7400 C   0  0  0  0  0  0  0  0  0  0  0  0
   37.6830   26.5730   50.3500 O   0  0  0  0  0  0  0  0  0  0  0  0
   39.9830   24.0560   53.2760 C   0  0  0  0  0  0  0  0  0  0  0  0
   40.6410   22.1770   54.6110 N   0  0  0  0  0  0  0  0  0  0  0  0
   38.6460   24.0110   53.7600 C   0  0  0  0  0  0  0  0  0  0  0  0
   38.3120   23.0420   54.7380 C   0  0  0  0  0  0  0  0  0  0  0  0
   39.3690   22.1690   55.1000 C   0  0  0  0  0  0  0  0  0  0  0  0
   36.5910   25.4200   53.0870 C   0  0  0  0  0  0  0  0  0  0  0  0
   36.2290   25.9990   54.4440 C   0  0  0  0  0  0  0  0  0  0  0  0
   34.7520   26.3950   54.4760 C   0  0  0  0  0  0  0  0  0  0  0  0
   33.8590   25.2450   54.0910 C   0  0  0  0  0  0  0  0  0  0  0  0
   34.2100   24.7340   52.7090 C   0  0  0  0  0  0  0  0  0  0  0  0
   35.6690   24.2930   52.6520 C   0  0  0  0  0  0  0  0  0  0  0  0
   41.9484   23.2302   53.3859 H   0  0  0  0  0  0  0  0  0  0  0  0
   36.1638   23.1165   55.4996 H   0  0  0  0  0  0  0  0  0  0  0  0
   36.8920   21.0250   56.9477 H   0  0  0  0  0  0  0  0  0  0  0  0
   39.4029   20.5409   56.4645 H   0  0  0  0  0  0  0  0  0  0  0  0
   40.5417   27.9095   51.3066 H   0  0  0  0  0  0  0  0  0  0  0  0
   39.2664   29.2715   49.3305 H   0  0  0  0  0  0  0  0  0  0  0  0
   36.1519   27.2131   48.3319 H   0  0  0  0  0  0  0  0  0  0  0  0
   37.2406   32.7888   49.6955 H   0  0  0  0  0  0  0  0  0  0  0  0
   38.1486   33.4092   48.2751 H   0  0  0  0  0  0  0  0  0  0  0  0
   36.3525   33.4373   48.2751 H   0  0  0  0  0  0  0  0  0  0  0  0
   39.0400   31.3343   46.9567 H   0  0  0  0  0  0  0  0  0  0  0  0
   37.6142   30.5873   46.1594 H   0  0  0  0  0  0  0  0  0  0  0  0
   37.8102   32.3729   46.1594 H   0  0  0  0  0  0  0  0  0  0  0  0
   36.4381   26.2395   52.3693 H   0  0  0  0  0  0  0  0  0  0  0  0
   36.4195   25.2455   55.2224 H   0  0  0  0  0  0  0  0  0  0  0  0
   36.8430   26.8933   54.6265 H   0  0  0  0  0  0  0  0  0  0  0  0
   34.5897   27.2239   53.7713 H   0  0  0  0  0  0  0  0  0  0  0  0
   34.4997   26.6963   55.5034 H   0  0  0  0  0  0  0  0  0  0  0  0
   32.8123   25.5833   54.0958 H   0  0  0  0  0  0  0  0  0  0  0  0
   34.0000   24.4297   54.8159 H   0  0  0  0  0  0  0  0  0  0  0  0
   34.0464   25.5367   51.9749 H   0  0  0  0  0  0  0  0  0  0  0  0
   33.5699   23.8697   52.4783 H   0  0  0  0  0  0  0  0  0  0  0  0
   35.8118   23.4317   53.3211 H   0  0  0  0  0  0  0  0  0  0  0  0
   35.9137   24.0175   51.6156 H   0  0  0  0  0  0  0  0  0  0  0  0
 17 18  3  0
 18 13  1  0
 20 16  1  0
 13 11  2  0
 13 14  1  0
 16 15  1  0
 16 14  1  0
 11 10  1  0
 14 19  2  0
 10  9  2  0
 10 21  1  0
  9  8  1  0
 21  6  1  0
  8  6  2  0
  6  5  1  0
  5 12  2  0
  5  7  1  0
 12 22  1  0
 32 31  1  0
 32 27  1  0
 31 30  1  0
  7 27  1  0
  7 24  1  0
 27 28  1  0
 22  1  2  0
 22 24  1  0
  1 23  1  0
 24 25  2  0
 30 29  1  0
 28 29  1  0
 23 26  2  0
 25 26  1  0
 25  2  1  0
 26  4  1  0
  2  3  2  0
  4  3  1  0
  1 33  1  0
  2 34  1  0
  3 35  1  0
  4 36  1  0
  8 37  1  0
  9 38  1  0
 11 39  1  0
 15 40  1  0
 15 41  1  0
 15 42  1  0
 20 43  1  0
 20 44  1  0
 20 45  1  0
 27 46  1  0
 28 47  1  0
 28 48  1  0
 29 49  1  0
 29 50  1  0
 30 51  1  0
 30 52  1  0
 31 53  1  0
 31 54  1  0
 32 55  1  0
 32 56  1  0
A    1
C4
A    2
C5
A    3
C6
A    4
N1
A    5
C7
A    6
C8
A    7
N2
A    8
C9
A    9
C10
A   10
C11
A   11
C12
A   12
N3
A   13
C13
A   14
C14
A   15
C15
A   16
N4
A   17
N5
A   18
C17
A   19
O1
A   20
C16
A   21
O
A   22
C
A   23
N
A   24
C1
A   25
C2
A   26
C3
A   27
C18
A   28
C20
A   29
C21
A   30
C22
A   31
C23
A   32
C19
M  END
