5LWN_79R_A_1208
     RDKit          3D

 59 63  0  0  0  0  0  0  0  0999 V2000
   16.1810   23.3560   26.9250 C   0  0  0  0  0  0  0  0  0  0  0  0
   14.7090   23.5070   27.2960 C   0  0  0  0  0  0  0  0  0  0  0  0
   14.2140   24.9340   27.1130 C   0  0  0  0  0  0  0  0  0  0  0  0
   15.0870   25.9300   27.8550 C   0  0  0  0  0  0  0  0  0  0  0  0
   16.5470   25.8100   27.4200 C   0  0  0  0  0  0  0  0  0  0  0  0
   17.0110   24.3880   27.6830 C   0  0  0  0  0  0  0  0  0  0  0  0
   19.1420   23.1440   28.1240 C   0  0  0  0  0  0  0  0  0  0  0  0
   18.8550   22.1410   29.0660 C   0  0  0  0  0  0  0  0  0  0  0  0
   17.7220   21.6820   29.8280 C   0  0  0  0  0  0  0  0  0  0  0  0
   21.4260   22.3200   27.9910 C   0  0  0  0  0  0  0  0  0  0  0  0
   19.3310   24.7210   26.5850 C   0  0  0  0  0  0  0  0  0  0  0  0
   19.1270   25.8410   25.6960 C   0  0  0  0  0  0  0  0  0  0  0  0
   18.2040   26.9060   23.9970 C   0  0  0  0  0  0  0  0  0  0  0  0
   16.3520   29.4340   24.3920 O   0  0  0  0  0  0  0  0  0  0  0  0
   16.7090   29.4740   23.2230 C   0  0  0  0  0  0  0  0  0  0  0  0
   17.0270   30.6260   22.6360 N   0  0  0  0  0  0  0  0  0  0  0  0
   17.5220   30.7470   21.2690 C   0  0  0  0  0  0  0  0  0  0  0  0
   16.9020   31.8750   23.3820 C   0  0  0  0  0  0  0  0  0  0  0  0
   16.7180   28.2080   22.4220 C   0  0  0  0  0  0  0  0  0  0  0  0
   16.2370   28.2300   21.0750 C   0  0  0  0  0  0  0  0  0  0  0  0
   15.8800   28.2840   19.9910 N   0  0  0  0  0  0  0  0  0  0  0  0
   17.2720   27.1010   22.9510 C   0  0  0  0  0  0  0  0  0  0  0  0
   19.1300   27.7370   24.5370 C   0  0  0  0  0  0  0  0  0  0  0  0
   19.7310   27.0520   25.6080 C   0  0  0  0  0  0  0  0  0  0  0  0
   18.1740   25.7260   24.7000 O   0  0  0  0  0  0  0  0  0  0  0  0
   18.4470   24.1370   27.4640 N   0  0  0  0  0  0  0  0  0  0  0  0
   16.3680   23.4210   25.4160 C   0  0  0  0  0  0  0  0  0  0  0  0
   20.5380   24.1880   26.6400 N   0  0  0  0  0  0  0  0  0  0  0  0
   20.4340   23.2020   27.6000 C   0  0  0  0  0  0  0  0  0  0  0  0
   21.1980   21.3420   28.8650 N   0  0  0  0  0  0  0  0  0  0  0  0
   19.9430   21.2780   29.3740 C   0  0  0  0  0  0  0  0  0  0  0  0
   19.4710   20.3620   30.2660 N   0  0  0  0  0  0  0  0  0  0  0  0
   18.1420   20.6030   30.5300 C   0  0  0  0  0  0  0  0  0  0  0  0
   16.5429   22.3631   27.2304 H   0  0  0  0  0  0  0  0  0  0  0  0
   14.1122   22.8402   26.6563 H   0  0  0  0  0  0  0  0  0  0  0  0
   14.5999   23.2452   28.3588 H   0  0  0  0  0  0  0  0  0  0  0  0
   14.2241   25.1802   26.0410 H   0  0  0  0  0  0  0  0  0  0  0  0
   13.1951   24.9990   27.5225 H   0  0  0  0  0  0  0  0  0  0  0  0
   14.7309   26.9488   27.6422 H   0  0  0  0  0  0  0  0  0  0  0  0
   15.0239   25.7166   28.9322 H   0  0  0  0  0  0  0  0  0  0  0  0
   17.1651   26.5148   27.9955 H   0  0  0  0  0  0  0  0  0  0  0  0
   16.6429   26.0467   26.3501 H   0  0  0  0  0  0  0  0  0  0  0  0
   16.8463   24.2695   28.7641 H   0  0  0  0  0  0  0  0  0  0  0  0
   16.7137   22.1217   29.8377 H   0  0  0  0  0  0  0  0  0  0  0  0
   22.4347   22.4304   27.5663 H   0  0  0  0  0  0  0  0  0  0  0  0
   18.5904   31.0082   21.2877 H   0  0  0  0  0  0  0  0  0  0  0  0
   17.3877   29.7896   20.7443 H   0  0  0  0  0  0  0  0  0  0  0  0
   16.9612   31.5345   20.7443 H   0  0  0  0  0  0  0  0  0  0  0  0
   16.9234   31.6614   24.4609 H   0  0  0  0  0  0  0  0  0  0  0  0
   17.7379   32.5417   23.1236 H   0  0  0  0  0  0  0  0  0  0  0  0
   15.9505   32.3628   23.1236 H   0  0  0  0  0  0  0  0  0  0  0  0
   16.9344   26.1670   22.4781 H   0  0  0  0  0  0  0  0  0  0  0  0
   19.3668   28.7569   24.1999 H   0  0  0  0  0  0  0  0  0  0  0  0
   20.5390   27.4277   26.2530 H   0  0  0  0  0  0  0  0  0  0  0  0
   17.3843   23.7743   25.1874 H   0  0  0  0  0  0  0  0  0  0  0  0
   16.2223   22.4195   24.9850 H   0  0  0  0  0  0  0  0  0  0  0  0
   15.6325   24.1162   24.9850 H   0  0  0  0  0  0  0  0  0  0  0  0
   20.0272   19.6012   30.6815 H   0  0  0  0  0  0  0  0  0  0  0  0
   17.5146   20.0079   31.2098 H   0  0  0  0  0  0  0  0  0  0  0  0
 21 20  3  0
 20 19  1  0
 17 16  1  0
 19 22  2  0
 19 15  1  0
 16 15  1  0
 16 18  1  0
 22 13  1  0
 15 14  2  0
 13 23  2  0
 13 25  1  0
 23 24  1  0
 25 12  1  0
 27  1  1  0
 24 12  2  0
 12 11  1  0
 11 28  2  0
 11 26  1  0
 28 29  1  0
  1  2  1  0
  1  6  1  0
  3  2  1  0
  3  4  1  0
  5  6  1  0
  5  4  1  0
 26  6  1  0
 26  7  1  0
 29 10  2  0
 29  7  1  0
 10 30  1  0
  7  8  2  0
 30 31  2  0
  8 31  1  0
  8  9  1  0
 31 32  1  0
  9 33  2  0
 32 33  1  0
  1 34  1  0
  2 35  1  0
  2 36  1  0
  3 37  1  0
  3 38  1  0
  4 39  1  0
  4 40  1  0
  5 41  1  0
  5 42  1  0
  6 43  1  0
  9 44  1  0
 10 45  1  0
 17 46  1  0
 17 47  1  0
 17 48  1  0
 18 49  1  0
 18 50  1  0
 18 51  1  0
 22 52  1  0
 23 53  1  0
 24 54  1  0
 27 55  1  0
 27 56  1  0
 27 57  1  0
 32 58  1  0
 33 59  1  0
A    1
C1
A    2
C2
A    3
C3
A    4
C4
A    5
C5
A    6
C6
A    7
C7
A    8
C8
A    9
C9
A   10
C12
A   11
C14
A   12
C15
A   13
C18
A   14
O
A   15
C22
A   16
N5
A   17
C24
A   18
C23
A   19
C20
A   20
C21
A   21
N4
A   22
C19
A   23
C17
A   24
C16
A   25
O1
A   26
N
A   27
C
A   28
N3
A   29
C13
A   30
N2
A   31
C11
A   32
N1
A   33
C10
M  END
