5LWR_7B2_A_401
     RDKit          3D

 67 72  0  0  0  0  0  0  0  0999 V2000
   -3.5250    4.0910    5.2840 N   0  0  0  0  0  0  0  0  0  0  0  0
   -2.2710    9.8440    6.7500 C   0  0  0  0  0  0  0  0  0  0  0  0
   -0.6340    5.7650    7.0840 O   0  0  0  0  0  0  0  0  0  0  0  0
   -7.1660   -3.5180    8.1260 Cl  0  0  0  0  0  0  0  0  0  0  0  0
   -4.8990   -0.8350    6.5270 N   0  0  0  0  0  0  0  0  0  0  0  0
   -6.5770   -2.2620    7.1080 C   0  0  0  0  0  0  0  0  0  0  0  0
   -7.4560   -1.7010    6.1070 C   0  0  0  0  0  0  0  0  0  0  0  0
   -8.7140   -1.9480    5.5910 C   0  0  0  0  0  0  0  0  0  0  0  0
   -9.7140   -2.9950    5.9370 C   0  0  0  0  0  0  0  0  0  0  0  0
   -8.9370   -1.0070    4.5940 N   0  0  0  0  0  0  0  0  0  0  0  0
  -10.1970   -0.9150    3.8410 C   0  0  0  0  0  0  0  0  0  0  0  0
   -7.8690   -0.2060    4.4530 C   0  0  0  0  0  0  0  0  0  0  0  0
   -7.6940    0.8500    3.4150 C   0  0  0  0  0  0  0  0  0  0  0  0
   -6.9260   -0.5820    5.4160 C   0  0  0  0  0  0  0  0  0  0  0  0
   -5.6200   -0.1120    5.6990 C   0  0  0  0  0  0  0  0  0  0  0  0
   -5.3510   -1.8820    7.2880 N   0  0  0  0  0  0  0  0  0  0  0  0
   -3.5260   -0.5110    6.8780 C   0  0  0  0  0  0  0  0  0  0  0  0
   -3.4130    0.3980    8.0610 C   0  0  0  0  0  0  0  0  0  0  0  0
   -3.3430   -0.0210    9.3710 N   0  0  0  0  0  0  0  0  0  0  0  0
   -3.4070   -1.3940    9.8750 C   0  0  0  0  0  0  0  0  0  0  0  0
   -3.2140    1.0900   10.1930 C   0  0  0  0  0  0  0  0  0  0  0  0
   -3.0870    0.9640   11.6720 C   0  0  0  0  0  0  0  0  0  0  0  0
   -3.2120    2.2200    9.3990 C   0  0  0  0  0  0  0  0  0  0  0  0
   -3.3360    1.7740    8.0270 C   0  0  0  0  0  0  0  0  0  0  0  0
   -3.1470    3.6110    9.6730 C   0  0  0  0  0  0  0  0  0  0  0  0
   -3.2080    4.5320    8.7680 N   0  0  0  0  0  0  0  0  0  0  0  0
   -3.3200    4.0760    7.4760 N   0  0  0  0  0  0  0  0  0  0  0  0
   -3.3840    2.7770    7.0260 C   0  0  0  0  0  0  0  0  0  0  0  0
   -3.5140    2.7760    5.7080 N   0  0  0  0  0  0  0  0  0  0  0  0
   -3.4290    4.8650    6.3550 C   0  0  0  0  0  0  0  0  0  0  0  0
   -3.5270    6.3320    6.3630 C   0  0  0  0  0  0  0  0  0  0  0  0
   -2.4430    7.2410    6.6980 C   0  0  0  0  0  0  0  0  0  0  0  0
   -1.0930    6.8910    7.0880 C   0  0  0  0  0  0  0  0  0  0  0  0
   -4.6310    7.0880    6.0260 C   0  0  0  0  0  0  0  0  0  0  0  0
   -5.9960    6.6820    5.5870 C   0  0  0  0  0  0  0  0  0  0  0  0
   -4.2600    8.4160    6.1410 N   0  0  0  0  0  0  0  0  0  0  0  0
   -5.1470    9.5510    5.8580 C   0  0  0  0  0  0  0  0  0  0  0  0
   -2.9370    8.5250    6.5470 C   0  0  0  0  0  0  0  0  0  0  0  0
   -2.1709   10.0423    7.8273 H   0  0  0  0  0  0  0  0  0  0  0  0
   -1.2737    9.8264    6.2862 H   0  0  0  0  0  0  0  0  0  0  0  0
   -2.8772   10.6361    6.2862 H   0  0  0  0  0  0  0  0  0  0  0  0
   -9.7938   -3.0786    7.0309 H   0  0  0  0  0  0  0  0  0  0  0  0
  -10.6931   -2.7197    5.5179 H   0  0  0  0  0  0  0  0  0  0  0  0
   -9.3941   -3.9604    5.5179 H   0  0  0  0  0  0  0  0  0  0  0  0
  -11.0407   -0.8534    4.5441 H   0  0  0  0  0  0  0  0  0  0  0  0
  -10.1809   -0.0156    3.2078 H   0  0  0  0  0  0  0  0  0  0  0  0
  -10.3118   -1.8072    3.2078 H   0  0  0  0  0  0  0  0  0  0  0  0
   -7.5329    1.8219    3.9043 H   0  0  0  0  0  0  0  0  0  0  0  0
   -6.8239    0.6067    2.7875 H   0  0  0  0  0  0  0  0  0  0  0  0
   -8.5960    0.9004    2.7875 H   0  0  0  0  0  0  0  0  0  0  0  0
   -5.2286    0.8120    5.2483 H   0  0  0  0  0  0  0  0  0  0  0  0
   -2.9943   -1.4467    7.1054 H   0  0  0  0  0  0  0  0  0  0  0  0
   -3.0879    0.0184    6.0191 H   0  0  0  0  0  0  0  0  0  0  0  0
   -3.4064   -1.3812   10.9749 H   0  0  0  0  0  0  0  0  0  0  0  0
   -4.3285   -1.8744    9.5144 H   0  0  0  0  0  0  0  0  0  0  0  0
   -2.5342   -1.9580    9.5144 H   0  0  0  0  0  0  0  0  0  0  0  0
   -3.7866    1.6581   12.1605 H   0  0  0  0  0  0  0  0  0  0  0  0
   -3.3229   -0.0672   11.9737 H   0  0  0  0  0  0  0  0  0  0  0  0
   -2.0577    1.2080   11.9737 H   0  0  0  0  0  0  0  0  0  0  0  0
   -3.0378    3.9252   10.7215 H   0  0  0  0  0  0  0  0  0  0  0  0
   -0.4313    7.7073    7.4132 H   0  0  0  0  0  0  0  0  0  0  0  0
   -6.6247    6.4950    6.4701 H   0  0  0  0  0  0  0  0  0  0  0  0
   -6.4415    7.4865    4.9834 H   0  0  0  0  0  0  0  0  0  0  0  0
   -5.9294    5.7648    4.9834 H   0  0  0  0  0  0  0  0  0  0  0  0
   -5.4917    9.9920    6.8050 H   0  0  0  0  0  0  0  0  0  0  0  0
   -4.5993   10.3088    5.2785 H   0  0  0  0  0  0  0  0  0  0  0  0
   -6.0147    9.2027    5.2785 H   0  0  0  0  0  0  0  0  0  0  0  0
 13 12  1  0
 11 10  1  0
 12 10  1  0
 12 14  2  0
 10  8  1  0
  1 29  1  0
  1 30  2  0
 14 15  1  0
 14  7  1  0
 35 34  1  0
  8  9  1  0
  8  7  2  0
 15  5  2  0
 29 28  2  0
 37 36  1  0
 34 36  1  0
 34 31  2  0
  7  6  1  0
 36 38  1  0
 30 31  1  0
 30 27  1  0
 31 32  1  0
  5 17  1  0
  5 16  1  0
 38 32  2  0
 38  2  1  0
 32 33  1  0
 17 18  1  0
 28 27  1  0
 28 24  1  0
  3 33  2  0
  6 16  2  0
  6  4  1  0
 27 26  1  0
 24 18  2  0
 24 23  1  0
 18 19  1  0
 26 25  2  0
 19 20  1  0
 19 21  1  0
 23 25  1  0
 23 21  2  0
 21 22  1  0
  2 39  1  0
  2 40  1  0
  2 41  1  0
  9 42  1  0
  9 43  1  0
  9 44  1  0
 11 45  1  0
 11 46  1  0
 11 47  1  0
 13 48  1  0
 13 49  1  0
 13 50  1  0
 15 51  1  0
 17 52  1  0
 17 53  1  0
 20 54  1  0
 20 55  1  0
 20 56  1  0
 22 57  1  0
 22 58  1  0
 22 59  1  0
 25 60  1  0
 33 61  1  0
 35 62  1  0
 35 63  1  0
 35 64  1  0
 37 65  1  0
 37 66  1  0
 37 67  1  0
M  CHG  1   5   1
A    1
N
A    2
C
A    3
O
A    4
CL
A    5
N2
A    6
C18
A    7
C17
A    8
C15
A    9
C16
A   10
N3
A   11
C14
A   12
C12
A   13
C13
A   14
C11
A   15
C10
A   16
N4
A   17
C9
A   18
C8
A   19
N5
A   20
C19
A   21
C20
A   22
C21
A   23
C22
A   24
C7
A   25
C23
A   26
N6
A   27
N7
A   28
C6
A   29
N1
A   30
C5
A   31
C4
A   32
C2
A   33
C3
A   34
C24
A   35
C25
A   36
N8
A   37
C26
A   38
C1
M  END
