5LYD_7B0_A_406
     RDKit          3D

 29 28  0  0  0  0  0  0  0  0999 V2000
   60.6320   38.1270   44.8230 C   0  0  0  0  0  0  0  0  0  0  0  0
   62.9640   37.4400   43.0920 O   0  0  0  0  0  0  0  0  0  0  0  0
   59.8650   38.1470   47.7590 C   0  0  0  0  0  0  0  0  0  0  0  0
   59.1250   36.8820   48.0930 C   0  0  0  0  0  0  0  0  0  0  0  0
   57.7260   37.1510   48.5860 C   0  0  0  0  0  0  0  0  0  0  0  0
   56.8630   36.0850   48.1180 N   0  0  0  0  0  0  0  0  0  0  0  0
   61.2820   37.9170   47.2600 C   0  0  0  0  0  0  0  0  0  0  0  0
   61.5410   37.4390   45.8300 C   0  0  0  0  0  0  0  0  0  0  0  0
   60.7620   39.2950   44.5240 O   0  0  0  0  0  0  0  0  0  0  0  0
   59.7320   37.3320   44.3010 O   0  0  0  0  0  0  0  0  0  0  0  0
   62.9430   37.7310   45.5240 N   0  0  0  0  0  0  0  0  0  0  0  0
   63.8160   37.3400   44.2250 S   0  0  0  0  0  0  0  0  0  0  0  0
   65.0150   38.1030   44.2960 O   0  0  0  0  0  0  0  0  0  0  0  0
   64.2360   35.7990   44.4430 N   0  0  0  0  0  0  0  0  0  0  0  0
   59.9133   38.7696   48.6646 H   0  0  0  0  0  0  0  0  0  0  0  0
   59.3132   38.6338   46.9414 H   0  0  0  0  0  0  0  0  0  0  0  0
   59.0677   36.2567   47.1899 H   0  0  0  0  0  0  0  0  0  0  0  0
   59.6741   36.3737   48.8993 H   0  0  0  0  0  0  0  0  0  0  0  0
   57.3723   38.1152   48.1921 H   0  0  0  0  0  0  0  0  0  0  0  0
   57.7140   37.1918   49.6852 H   0  0  0  0  0  0  0  0  0  0  0  0
   56.4612   35.5887   48.9262 H   0  0  0  0  0  0  0  0  0  0  0  0
   56.1036   36.4835   47.5476 H   0  0  0  0  0  0  0  0  0  0  0  0
   61.7319   37.1674   47.9276 H   0  0  0  0  0  0  0  0  0  0  0  0
   61.7082   38.9311   47.2593 H   0  0  0  0  0  0  0  0  0  0  0  0
   61.3282   36.3621   45.7588 H   0  0  0  0  0  0  0  0  0  0  0  0
   60.8384   39.9819   45.2328 H   0  0  0  0  0  0  0  0  0  0  0  0
   63.4646   37.3213   46.3120 H   0  0  0  0  0  0  0  0  0  0  0  0
   64.2909   35.5975   45.4516 H   0  0  0  0  0  0  0  0  0  0  0  0
   63.5313   35.1863   44.0083 H   0  0  0  0  0  0  0  0  0  0  0  0
  2 12  2  0
 10  1  2  0
 13 12  2  0
 12 14  1  0
 12 11  1  0
  9  1  1  0
  1  8  1  0
 11  8  1  0
  8  7  1  0
  7  3  1  0
  3  4  1  0
  6  5  1  0
  4  5  1  0
  3 15  1  0
  3 16  1  0
  4 17  1  0
  4 18  1  0
  5 19  1  0
  5 20  1  0
  6 21  1  0
  6 22  1  0
  7 23  1  0
  7 24  1  0
  8 25  1  0
  9 26  1  0
 11 27  1  0
 14 28  1  0
 14 29  1  0
A    1
C2
A    2
O4
A    3
C8
A    4
C11
A    5
C14
A    6
N17
A    7
C5
A    8
C4
A    9
O3
A   10
O1
A   11
N1
A   12
S1
A   13
O2
A   14
N2
M  END
