5LYI_T4F_A_404
     RDKit          3D

 81 83  0  0  0  0  0  0  0  0999 V2000
   67.1180   40.2280   44.8920 C   0  0  0  0  0  0  0  0  0  0  0  0
   66.4770   40.8670   46.1340 C   0  0  0  0  0  0  0  0  0  0  0  0
   66.8940   42.3340   46.2930 C   0  0  0  0  0  0  0  0  0  0  0  0
   59.5860   36.8830   44.3840 O   0  0  0  0  0  0  0  0  0  0  0  0
   60.5990   38.8300   44.7510 O   0  0  0  0  0  0  0  0  0  0  0  0
   66.7230   38.7350   44.8150 C   0  0  0  0  0  0  0  0  0  0  0  0
   65.2200   38.5550   44.5020 C   0  0  0  0  0  0  0  0  0  0  0  0
   64.9070   39.1140   43.1140 C   0  0  0  0  0  0  0  0  0  0  0  0
   63.5660   42.8840   40.6650 C   0  0  0  0  0  0  0  0  0  0  0  0
   64.5050   43.0600   42.8340 C   0  0  0  0  0  0  0  0  0  0  0  0
   64.4960   42.1030   41.6160 C   0  0  0  0  0  0  0  0  0  0  0  0
   63.2490   42.1360   39.3370 C   0  0  0  0  0  0  0  0  0  0  0  0
   61.3070   36.9240   46.0290 C   0  0  0  0  0  0  0  0  0  0  0  0
   60.4300   37.6050   44.9610 C   0  0  0  0  0  0  0  0  0  0  0  0
   63.0490   43.5540   42.9300 C   0  0  0  0  0  0  0  0  0  0  0  0
   58.9590   37.0300   49.0660 C   0  0  0  0  0  0  0  0  0  0  0  0
   57.4370   36.9690   49.2530 C   0  0  0  0  0  0  0  0  0  0  0  0
   64.0710   44.3080   40.3120 C   0  0  0  0  0  0  0  0  0  0  0  0
   63.6320   40.8410   41.8880 C   0  0  0  0  0  0  0  0  0  0  0  0
   62.4040   42.9220   41.6780 C   0  0  0  0  0  0  0  0  0  0  0  0
   65.9190   41.7900   41.1180 C   0  0  0  0  0  0  0  0  0  0  0  0
   62.2070   41.4330   42.0420 C   0  0  0  0  0  0  0  0  0  0  0  0
   64.0610   40.1500   43.1240 N   0  0  0  0  0  0  0  0  0  0  0  0
   65.4310   38.6200   42.1050 O   0  0  0  0  0  0  0  0  0  0  0  0
   68.4290   42.4750   46.2930 C   0  0  0  0  0  0  0  0  0  0  0  0
   69.1110   41.8110   45.0960 C   0  0  0  0  0  0  0  0  0  0  0  0
   68.6550   40.3500   44.9270 C   0  0  0  0  0  0  0  0  0  0  0  0
   64.9680   37.1140   44.5010 N   0  0  0  0  0  0  0  0  0  0  0  0
   63.4340   36.5540   44.5980 S   0  0  0  0  0  0  0  0  0  0  0  0
   63.5710   35.0760   44.7820 O   0  0  0  0  0  0  0  0  0  0  0  0
   62.6600   36.8780   43.3640 O   0  0  0  0  0  0  0  0  0  0  0  0
   62.7380   37.2880   45.8790 N   0  0  0  0  0  0  0  0  0  0  0  0
   60.8390   37.3500   47.4120 C   0  0  0  0  0  0  0  0  0  0  0  0
   59.3390   37.1270   47.5920 C   0  0  0  0  0  0  0  0  0  0  0  0
   56.8460   35.8700   48.4560 N   0  0  0  0  0  0  0  0  0  0  0  0
   66.7497   40.7629   44.0042 H   0  0  0  0  0  0  0  0  0  0  0  0
   65.3825   40.8155   46.0373 H   0  0  0  0  0  0  0  0  0  0  0  0
   66.8195   40.3139   47.0210 H   0  0  0  0  0  0  0  0  0  0  0  0
   66.4791   42.9184   45.4585 H   0  0  0  0  0  0  0  0  0  0  0  0
   66.5079   42.7060   47.2535 H   0  0  0  0  0  0  0  0  0  0  0  0
   60.6853   39.4556   45.5134 H   0  0  0  0  0  0  0  0  0  0  0  0
   66.9454   38.2575   45.7807 H   0  0  0  0  0  0  0  0  0  0  0  0
   67.2999   38.2699   44.0021 H   0  0  0  0  0  0  0  0  0  0  0  0
   64.5973   39.0811   45.2406 H   0  0  0  0  0  0  0  0  0  0  0  0
   64.7976   42.5250   43.7495 H   0  0  0  0  0  0  0  0  0  0  0  0
   65.2251   43.8837   42.7201 H   0  0  0  0  0  0  0  0  0  0  0  0
   62.8291   41.1453   39.5654 H   0  0  0  0  0  0  0  0  0  0  0  0
   62.5200   42.7176   38.7536 H   0  0  0  0  0  0  0  0  0  0  0  0
   64.1739   42.0166   38.7536 H   0  0  0  0  0  0  0  0  0  0  0  0
   61.2089   35.8360   45.8996 H   0  0  0  0  0  0  0  0  0  0  0  0
   62.9977   44.6522   42.8933 H   0  0  0  0  0  0  0  0  0  0  0  0
   62.5506   43.2758   43.8703 H   0  0  0  0  0  0  0  0  0  0  0  0
   59.4079   36.1203   49.4915 H   0  0  0  0  0  0  0  0  0  0  0  0
   59.3333   37.9286   49.5782 H   0  0  0  0  0  0  0  0  0  0  0  0
   56.9968   37.9240   48.9302 H   0  0  0  0  0  0  0  0  0  0  0  0
   57.2226   36.7843   50.3160 H   0  0  0  0  0  0  0  0  0  0  0  0
   64.2692   44.8669   41.2385 H   0  0  0  0  0  0  0  0  0  0  0  0
   64.9974   44.2331   39.7236 H   0  0  0  0  0  0  0  0  0  0  0  0
   63.3044   44.8335   39.7236 H   0  0  0  0  0  0  0  0  0  0  0  0
   63.7080   40.0821   41.0953 H   0  0  0  0  0  0  0  0  0  0  0  0
   61.4894   43.4290   41.3366 H   0  0  0  0  0  0  0  0  0  0  0  0
   66.5854   41.6434   41.9808 H   0  0  0  0  0  0  0  0  0  0  0  0
   65.9011   40.8743   40.5087 H   0  0  0  0  0  0  0  0  0  0  0  0
   66.2870   42.6287   40.5087 H   0  0  0  0  0  0  0  0  0  0  0  0
   61.8436   41.3238   43.0745 H   0  0  0  0  0  0  0  0  0  0  0  0
   61.4594   40.9293   41.4116 H   0  0  0  0  0  0  0  0  0  0  0  0
   63.6936   40.4798   44.0280 H   0  0  0  0  0  0  0  0  0  0  0  0
   68.8193   42.0155   47.2131 H   0  0  0  0  0  0  0  0  0  0  0  0
   68.6514   43.5505   46.2317 H   0  0  0  0  0  0  0  0  0  0  0  0
   70.2001   41.8303   45.2489 H   0  0  0  0  0  0  0  0  0  0  0  0
   68.8337   42.3668   44.1882 H   0  0  0  0  0  0  0  0  0  0  0  0
   69.0397   39.7575   45.7702 H   0  0  0  0  0  0  0  0  0  0  0  0
   69.0485   39.9785   43.9693 H   0  0  0  0  0  0  0  0  0  0  0  0
   65.3657   36.7428   43.6264 H   0  0  0  0  0  0  0  0  0  0  0  0
   63.2416   37.0103   46.7335 H   0  0  0  0  0  0  0  0  0  0  0  0
   61.3804   36.7629   48.1685 H   0  0  0  0  0  0  0  0  0  0  0  0
   61.0432   38.4246   47.5282 H   0  0  0  0  0  0  0  0  0  0  0  0
   58.7959   37.9689   47.1379 H   0  0  0  0  0  0  0  0  0  0  0  0
   59.0711   36.1781   47.1043 H   0  0  0  0  0  0  0  0  0  0  0  0
   56.4614   35.1548   49.0896 H   0  0  0  0  0  0  0  0  0  0  0  0
   56.0921   36.2437   47.8620 H   0  0  0  0  0  0  0  0  0  0  0  0
 12  9  1  0
 18  9  1  0
  9 11  1  0
  9 20  1  0
 21 11  1  0
 11 19  1  0
 11 10  1  0
 20 22  1  0
 20 15  1  0
 19 22  1  0
 19 23  1  0
 24  8  2  0
 10 15  1  0
  8 23  1  0
  8  7  1  0
 31 29  2  0
  4 14  2  0
 28  7  1  0
 28 29  1  0
  7  6  1  0
 29 30  2  0
 29 32  1  0
  5 14  1  0
  6  1  1  0
  1 27  1  0
  1  2  1  0
 27 26  1  0
 14 13  1  0
 26 25  1  0
 32 13  1  0
 13 33  1  0
  2  3  1  0
 25  3  1  0
 33 34  1  0
 34 16  1  0
 35 17  1  0
 16 17  1  0
  1 36  1  0
  2 37  1  0
  2 38  1  0
  3 39  1  0
  3 40  1  0
  5 41  1  0
  6 42  1  0
  6 43  1  0
  7 44  1  0
 10 45  1  0
 10 46  1  0
 12 47  1  0
 12 48  1  0
 12 49  1  0
 13 50  1  0
 15 51  1  0
 15 52  1  0
 16 53  1  0
 16 54  1  0
 17 55  1  0
 17 56  1  0
 18 57  1  0
 18 58  1  0
 18 59  1  0
 19 60  1  0
 20 61  1  0
 21 62  1  0
 21 63  1  0
 21 64  1  0
 22 65  1  0
 22 66  1  0
 23 67  1  0
 25 68  1  0
 25 69  1  0
 26 70  1  0
 26 71  1  0
 27 72  1  0
 27 73  1  0
 28 74  1  0
 32 75  1  0
 33 76  1  0
 33 77  1  0
 34 78  1  0
 34 79  1  0
 35 80  1  0
 35 81  1  0
A    1
C1
A    2
C2
A    3
C3
A    4
O4
A    5
O5
A    6
C7
A    7
C8
A    8
C9
A    9
C10
A   10
C11
A   11
C12
A   12
C13
A   13
C14
A   14
C15
A   15
C16
A   16
C19
A   17
C20
A   18
C21
A   19
C22
A   20
C24
A   21
C25
A   22
C23
A   23
N1
A   24
O1
A   25
C4
A   26
C5
A   27
C6
A   28
N2
A   29
S1
A   30
O2
A   31
O3
A   32
N3
A   33
C17
A   34
C18
A   35
N4
M  END
