5LYL_T5F_A_404
     RDKit          3D

 79 82  0  0  0  0  0  0  0  0999 V2000
   65.6610   42.0210   41.0470 C   0  0  0  0  0  0  0  0  0  0  0  0
   57.8140   37.3160   48.9630 C   0  0  0  0  0  0  0  0  0  0  0  0
   59.3270   37.5020   48.7370 C   0  0  0  0  0  0  0  0  0  0  0  0
   60.7860   37.9540   44.6550 C   0  0  0  0  0  0  0  0  0  0  0  0
   63.3080   41.0740   40.9610 C   0  0  0  0  0  0  0  0  0  0  0  0
   62.3970   43.4140   40.5490 C   0  0  0  0  0  0  0  0  0  0  0  0
   62.9200   42.1190   39.8690 C   0  0  0  0  0  0  0  0  0  0  0  0
   64.7410   44.3340   40.6250 C   0  0  0  0  0  0  0  0  0  0  0  0
   65.2690   43.0490   39.9390 C   0  0  0  0  0  0  0  0  0  0  0  0
   64.1680   42.4340   39.0190 C   0  0  0  0  0  0  0  0  0  0  0  0
   65.5890   38.8630   44.2180 C   0  0  0  0  0  0  0  0  0  0  0  0
   65.3860   39.5650   42.8630 C   0  0  0  0  0  0  0  0  0  0  0  0
   63.8740   42.9600   42.5590 C   0  0  0  0  0  0  0  0  0  0  0  0
   67.0560   39.0500   44.6820 C   0  0  0  0  0  0  0  0  0  0  0  0
   67.4660   40.5500   44.8100 C   0  0  0  0  0  0  0  0  0  0  0  0
   67.3390   42.5810   46.3700 C   0  0  0  0  0  0  0  0  0  0  0  0
   63.4960   44.0050   41.4720 C   0  0  0  0  0  0  0  0  0  0  0  0
   64.4060   41.6720   41.8820 C   0  0  0  0  0  0  0  0  0  0  0  0
   64.7430   40.7190   42.9750 N   0  0  0  0  0  0  0  0  0  0  0  0
   65.8010   39.0730   41.8100 O   0  0  0  0  0  0  0  0  0  0  0  0
   66.8510   41.1350   46.1050 C   0  0  0  0  0  0  0  0  0  0  0  0
   68.8860   42.6500   46.4090 C   0  0  0  0  0  0  0  0  0  0  0  0
   69.5230   42.0750   45.1230 C   0  0  0  0  0  0  0  0  0  0  0  0
   69.0100   40.6320   44.8440 C   0  0  0  0  0  0  0  0  0  0  0  0
   65.3670   37.4240   44.1070 N   0  0  0  0  0  0  0  0  0  0  0  0
   63.8240   36.8780   44.2510 S   0  0  0  0  0  0  0  0  0  0  0  0
   63.0540   37.2630   43.0310 O   0  0  0  0  0  0  0  0  0  0  0  0
   63.9650   35.3950   44.3750 O   0  0  0  0  0  0  0  0  0  0  0  0
   63.1190   37.5430   45.5480 N   0  0  0  0  0  0  0  0  0  0  0  0
   61.6770   37.2060   45.6810 C   0  0  0  0  0  0  0  0  0  0  0  0
   59.9500   37.2560   44.0450 O   0  0  0  0  0  0  0  0  0  0  0  0
   60.9590   39.1870   44.4870 O   0  0  0  0  0  0  0  0  0  0  0  0
   61.2340   37.5330   47.0990 C   0  0  0  0  0  0  0  0  0  0  0  0
   59.7280   37.2720   47.2850 C   0  0  0  0  0  0  0  0  0  0  0  0
   57.2480   36.2200   48.1310 N   0  0  0  0  0  0  0  0  0  0  0  0
   66.0572   41.1080   40.5786 H   0  0  0  0  0  0  0  0  0  0  0  0
   66.4311   42.4567   41.7005 H   0  0  0  0  0  0  0  0  0  0  0  0
   57.3005   38.2547   48.7079 H   0  0  0  0  0  0  0  0  0  0  0  0
   57.6625   37.0485   50.0192 H   0  0  0  0  0  0  0  0  0  0  0  0
   59.8700   36.7860   49.3715 H   0  0  0  0  0  0  0  0  0  0  0  0
   59.5804   38.5408   48.9953 H   0  0  0  0  0  0  0  0  0  0  0  0
   62.4209   40.8249   41.5619 H   0  0  0  0  0  0  0  0  0  0  0  0
   63.6907   40.1631   40.4776 H   0  0  0  0  0  0  0  0  0  0  0  0
   62.1340   44.1514   39.7763 H   0  0  0  0  0  0  0  0  0  0  0  0
   61.5081   43.1741   41.1509 H   0  0  0  0  0  0  0  0  0  0  0  0
   62.1266   41.7139   39.2237 H   0  0  0  0  0  0  0  0  0  0  0  0
   65.5253   44.7483   41.2756 H   0  0  0  0  0  0  0  0  0  0  0  0
   64.4693   45.0698   39.8538 H   0  0  0  0  0  0  0  0  0  0  0  0
   66.1441   43.2944   39.3193 H   0  0  0  0  0  0  0  0  0  0  0  0
   64.5454   41.5078   38.5610 H   0  0  0  0  0  0  0  0  0  0  0  0
   63.9057   43.1490   38.2253 H   0  0  0  0  0  0  0  0  0  0  0  0
   64.8735   39.3045   44.9273 H   0  0  0  0  0  0  0  0  0  0  0  0
   64.6535   43.3781   43.2129 H   0  0  0  0  0  0  0  0  0  0  0  0
   62.9828   42.7165   43.1560 H   0  0  0  0  0  0  0  0  0  0  0  0
   67.1779   38.5679   45.6632 H   0  0  0  0  0  0  0  0  0  0  0  0
   67.7041   38.5947   43.9187 H   0  0  0  0  0  0  0  0  0  0  0  0
   67.0935   41.1340   43.9555 H   0  0  0  0  0  0  0  0  0  0  0  0
   66.9704   43.2371   45.5677 H   0  0  0  0  0  0  0  0  0  0  0  0
   66.9504   42.9072   47.3460 H   0  0  0  0  0  0  0  0  0  0  0  0
   63.1227   44.9192   41.9565 H   0  0  0  0  0  0  0  0  0  0  0  0
   64.4433   40.9859   43.9236 H   0  0  0  0  0  0  0  0  0  0  0  0
   65.7553   41.1409   46.0079 H   0  0  0  0  0  0  0  0  0  0  0  0
   67.1691   40.5061   46.9496 H   0  0  0  0  0  0  0  0  0  0  0  0
   69.2458   42.0718   47.2729 H   0  0  0  0  0  0  0  0  0  0  0  0
   69.1774   43.7076   46.4894 H   0  0  0  0  0  0  0  0  0  0  0  0
   70.6162   42.0514   45.2425 H   0  0  0  0  0  0  0  0  0  0  0  0
   69.2420   42.7171   44.2752 H   0  0  0  0  0  0  0  0  0  0  0  0
   69.3815   39.9659   45.6366 H   0  0  0  0  0  0  0  0  0  0  0  0
   69.3832   40.3295   43.8545 H   0  0  0  0  0  0  0  0  0  0  0  0
   65.7129   37.1294   43.1826 H   0  0  0  0  0  0  0  0  0  0  0  0
   63.6097   37.2118   46.3909 H   0  0  0  0  0  0  0  0  0  0  0  0
   61.5560   36.1331   45.4705 H   0  0  0  0  0  0  0  0  0  0  0  0
   61.0431   39.7863   45.2705 H   0  0  0  0  0  0  0  0  0  0  0  0
   61.7971   36.9048   47.8049 H   0  0  0  0  0  0  0  0  0  0  0  0
   61.4292   38.5989   47.2883 H   0  0  0  0  0  0  0  0  0  0  0  0
   59.1586   37.9560   46.6385 H   0  0  0  0  0  0  0  0  0  0  0  0
   59.5095   36.2284   47.0144 H   0  0  0  0  0  0  0  0  0  0  0  0
   56.8682   35.4846   48.7441 H   0  0  0  0  0  0  0  0  0  0  0  0
   56.4947   36.5942   47.5365 H   0  0  0  0  0  0  0  0  0  0  0  0
 10  7  1  0
 10  9  1  0
  7  6  1  0
  7  5  1  0
  9  8  1  0
  9  1  1  0
  6 17  1  0
  8 17  1  0
  5 18  1  0
  1 18  1  0
 17 13  1  0
 20 12  2  0
 18 13  1  0
 18 19  1  0
 12 19  1  0
 12 11  1  0
 27 26  2  0
 31  4  2  0
 25 11  1  0
 25 26  1  0
 11 14  1  0
 26 28  2  0
 26 29  1  0
 32  4  1  0
  4 30  1  0
 14 15  1  0
 15 24  1  0
 15 21  1  0
 24 23  1  0
 23 22  1  0
 29 30  1  0
 30 33  1  0
 21 16  1  0
 16 22  1  0
 33 34  1  0
 34  3  1  0
 35  2  1  0
  3  2  1  0
  1 36  1  0
  1 37  1  0
  2 38  1  0
  2 39  1  0
  3 40  1  0
  3 41  1  0
  5 42  1  0
  5 43  1  0
  6 44  1  0
  6 45  1  0
  7 46  1  0
  8 47  1  0
  8 48  1  0
  9 49  1  0
 10 50  1  0
 10 51  1  0
 11 52  1  0
 13 53  1  0
 13 54  1  0
 14 55  1  0
 14 56  1  0
 15 57  1  0
 16 58  1  0
 16 59  1  0
 17 60  1  0
 19 61  1  0
 21 62  1  0
 21 63  1  0
 22 64  1  0
 22 65  1  0
 23 66  1  0
 23 67  1  0
 24 68  1  0
 24 69  1  0
 25 70  1  0
 29 71  1  0
 30 72  1  0
 32 73  1  0
 33 74  1  0
 33 75  1  0
 34 76  1  0
 34 77  1  0
 35 78  1  0
 35 79  1  0
A    1
C1
A    2
C2
A    3
C3
A    4
C7
A    5
C8
A    6
C9
A    7
C10
A    8
C11
A    9
C12
A   10
C13
A   11
C14
A   12
C15
A   13
C19
A   14
C21
A   15
C22
A   16
C24
A   17
C27
A   18
C18
A   19
N17
A   20
O16
A   21
C23
A   22
C25
A   23
C28
A   24
C29
A   25
N13
A   26
S1
A   27
O12
A   28
O1
A   29
N10
A   30
C6
A   31
O8
A   32
O9
A   33
C5
A   34
C4
A   35
N1
M  END
