5LYY_7BJ_A_501
     RDKit          3D

 41 43  0  0  0  0  0  0  0  0999 V2000
   22.5580    9.0260   -4.5260 C   0  0  0  0  0  0  0  0  0  0  0  0
   23.2160    7.9420   -5.0190 C   0  0  0  0  0  0  0  0  0  0  0  0
   24.1190    7.5620   -2.8270 C   0  0  0  0  0  0  0  0  0  0  0  0
   25.5680    5.7080   -2.3270 C   0  0  0  0  0  0  0  0  0  0  0  0
   26.2250    5.0710   -1.1380 C   0  0  0  0  0  0  0  0  0  0  0  0
   28.1890    3.5960   -1.7310 C   0  0  0  0  0  0  0  0  0  0  0  0
   27.1460    1.4920   -1.7320 C   0  0  0  0  0  0  0  0  0  0  0  0
   26.8160    0.7230   -3.0170 C   0  0  0  0  0  0  0  0  0  0  0  0
   27.7060   -0.4930   -3.2200 C   0  0  0  0  0  0  0  0  0  0  0  0
   27.6630   -1.4080   -2.0070 C   0  0  0  0  0  0  0  0  0  0  0  0
   26.1290    2.6070   -1.5070 C   0  0  0  0  0  0  0  0  0  0  0  0
   23.4360    8.6730   -2.3530 C   0  0  0  0  0  0  0  0  0  0  0  0
   22.6470    9.4100   -3.2170 C   0  0  0  0  0  0  0  0  0  0  0  0
   21.7800    9.7560   -5.3720 F   0  0  0  0  0  0  0  0  0  0  0  0
   24.0060    7.1980   -4.1680 C   0  0  0  0  0  0  0  0  0  0  0  0
   24.8770    6.8900   -1.8990 O   0  0  0  0  0  0  0  0  0  0  0  0
   26.8260    3.7840   -1.4620 N   0  0  0  0  0  0  0  0  0  0  0  0
   29.0180    4.4820   -1.8270 O   0  0  0  0  0  0  0  0  0  0  0  0
   28.3730    2.2740   -1.8540 N   0  0  0  0  0  0  0  0  0  0  0  0
   28.0650   -0.6600   -0.7460 C   0  0  0  0  0  0  0  0  0  0  0  0
   27.1740    0.5500   -0.5250 C   0  0  0  0  0  0  0  0  0  0  0  0
   24.9340    2.4850   -1.3890 O   0  0  0  0  0  0  0  0  0  0  0  0
   23.1195    7.6636   -6.0788 H   0  0  0  0  0  0  0  0  0  0  0  0
   24.8517    5.0033   -2.7745 H   0  0  0  0  0  0  0  0  0  0  0  0
   26.3291    5.9721   -3.0760 H   0  0  0  0  0  0  0  0  0  0  0  0
   27.0107    5.7444   -0.7650 H   0  0  0  0  0  0  0  0  0  0  0  0
   25.4494    4.8983   -0.3773 H   0  0  0  0  0  0  0  0  0  0  0  0
   26.9444    1.3998   -3.8746 H   0  0  0  0  0  0  0  0  0  0  0  0
   25.7794    0.3647   -2.9321 H   0  0  0  0  0  0  0  0  0  0  0  0
   27.3587   -1.0496   -4.1029 H   0  0  0  0  0  0  0  0  0  0  0  0
   28.7411   -0.1497   -3.3635 H   0  0  0  0  0  0  0  0  0  0  0  0
   26.6409   -1.7957   -1.8849 H   0  0  0  0  0  0  0  0  0  0  0  0
   28.3720   -2.2339   -2.1657 H   0  0  0  0  0  0  0  0  0  0  0  0
   23.5217    8.9657   -1.2961 H   0  0  0  0  0  0  0  0  0  0  0  0
   22.0988   10.2927   -2.8561 H   0  0  0  0  0  0  0  0  0  0  0  0
   24.5465    6.3181   -4.5470 H   0  0  0  0  0  0  0  0  0  0  0  0
   29.2962    1.8484   -2.0196 H   0  0  0  0  0  0  0  0  0  0  0  0
   27.9752   -1.3357    0.1174 H   0  0  0  0  0  0  0  0  0  0  0  0
   29.1035   -0.3153   -0.8584 H   0  0  0  0  0  0  0  0  0  0  0  0
   27.5468    1.1068    0.3473 H   0  0  0  0  0  0  0  0  0  0  0  0
   26.1492    0.1832   -0.3661 H   0  0  0  0  0  0  0  0  0  0  0  0
 14  1  1  0
  2  1  2  0
  2 15  1  0
  1 13  1  0
 15  3  2  0
  9  8  1  0
  9 10  1  0
 13 12  2  0
  8  7  1  0
  3 12  1  0
  3 16  1  0
  4 16  1  0
  4  5  1  0
 10 20  1  0
 19  7  1  0
 19  6  1  0
 18  6  2  0
  7 11  1  0
  7 21  1  0
  6 17  1  0
 11 17  1  0
 11 22  2  0
 17  5  1  0
 20 21  1  0
  2 23  1  0
  4 24  1  0
  4 25  1  0
  5 26  1  0
  5 27  1  0
  8 28  1  0
  8 29  1  0
  9 30  1  0
  9 31  1  0
 10 32  1  0
 10 33  1  0
 12 34  1  0
 13 35  1  0
 15 36  1  0
 19 37  1  0
 20 38  1  0
 20 39  1  0
 21 40  1  0
 21 41  1  0
A    1
C2
A    2
C3
A    3
C5
A    4
C7
A    5
C8
A    6
C10
A    7
C13
A    8
C14
A    9
C15
A   10
C16
A   11
C19
A   12
C21
A   13
C22
A   14
F1
A   15
C4
A   16
O6
A   17
N9
A   18
O11
A   19
N12
A   20
C17
A   21
C18
A   22
O20
M  END
