5LZ4_7BW_A_503
     RDKit          3D

 37 38  0  0  0  0  0  0  0  0999 V2000
   27.7020    0.3500   -0.4150 C   0  0  0  0  0  0  0  0  0  0  0  0
   27.5060    1.2580   -1.6440 C   0  0  0  0  0  0  0  0  0  0  0  0
   27.2260    0.3930   -2.8890 C   0  0  0  0  0  0  0  0  0  0  0  0
   26.2360    4.7840   -1.0430 C   0  0  0  0  0  0  0  0  0  0  0  0
   25.4770    5.3410   -2.2320 C   0  0  0  0  0  0  0  0  0  0  0  0
   24.0470    6.9580   -4.1260 C   0  0  0  0  0  0  0  0  0  0  0  0
   23.2680    7.7190   -4.9740 C   0  0  0  0  0  0  0  0  0  0  0  0
   22.5560    8.7800   -4.4750 C   0  0  0  0  0  0  0  0  0  0  0  0
   22.5930    9.1150   -3.1300 C   0  0  0  0  0  0  0  0  0  0  0  0
   21.8530   10.2170   -2.6140 C   0  0  0  0  0  0  0  0  0  0  0  0
   26.3450    2.2670   -1.4070 C   0  0  0  0  0  0  0  0  0  0  0  0
   26.9810    3.5780   -1.3600 N   0  0  0  0  0  0  0  0  0  0  0  0
   24.8510    6.5740   -1.8410 O   0  0  0  0  0  0  0  0  0  0  0  0
   24.1090    7.2660   -2.7690 C   0  0  0  0  0  0  0  0  0  0  0  0
   21.7930    9.5240   -5.3100 F   0  0  0  0  0  0  0  0  0  0  0  0
   21.2510   11.1130   -2.1950 N   0  0  0  0  0  0  0  0  0  0  0  0
   23.3840    8.3420   -2.2730 C   0  0  0  0  0  0  0  0  0  0  0  0
   28.2920    3.5670   -1.6380 C   0  0  0  0  0  0  0  0  0  0  0  0
   29.0040    4.5600   -1.6970 O   0  0  0  0  0  0  0  0  0  0  0  0
   28.7500    2.1550   -1.8660 C   0  0  0  0  0  0  0  0  0  0  0  0
   27.5741    0.9426    0.5028 H   0  0  0  0  0  0  0  0  0  0  0  0
   26.9580   -0.4600   -0.4352 H   0  0  0  0  0  0  0  0  0  0  0  0
   28.7139   -0.0810   -0.4352 H   0  0  0  0  0  0  0  0  0  0  0  0
   26.9015   -0.6096   -2.5735 H   0  0  0  0  0  0  0  0  0  0  0  0
   26.4339    0.8623   -3.4909 H   0  0  0  0  0  0  0  0  0  0  0  0
   28.1429    0.3091   -3.4909 H   0  0  0  0  0  0  0  0  0  0  0  0
   26.9421    5.5492   -0.6881 H   0  0  0  0  0  0  0  0  0  0  0  0
   25.4952    4.5206   -0.2736 H   0  0  0  0  0  0  0  0  0  0  0  0
   24.7093    4.6210   -2.5517 H   0  0  0  0  0  0  0  0  0  0  0  0
   26.1687    5.5200   -3.0684 H   0  0  0  0  0  0  0  0  0  0  0  0
   24.6199    6.1068   -4.5225 H   0  0  0  0  0  0  0  0  0  0  0  0
   23.2183    7.4757   -6.0456 H   0  0  0  0  0  0  0  0  0  0  0  0
   25.6188    2.2200   -2.2319 H   0  0  0  0  0  0  0  0  0  0  0  0
   25.7905    2.0459   -0.4831 H   0  0  0  0  0  0  0  0  0  0  0  0
   23.4319    8.5874   -1.2018 H   0  0  0  0  0  0  0  0  0  0  0  0
   29.5434    1.8910   -1.1513 H   0  0  0  0  0  0  0  0  0  0  0  0
   29.1635    2.0252   -2.8770 H   0  0  0  0  0  0  0  0  0  0  0  0
 15  8  1  0
  7  8  1  0
  7  6  2  0
  8  9  2  0
  6 14  1  0
  9 10  1  0
  9 17  1  0
  3  2  1  0
 14 17  2  0
 14 13  1  0
 10 16  3  0
  5 13  1  0
  5  4  1  0
 20  2  1  0
 20 18  1  0
 19 18  2  0
  2 11  1  0
  2  1  1  0
 18 12  1  0
 11 12  1  0
 12  4  1  0
  1 21  1  0
  1 22  1  0
  1 23  1  0
  3 24  1  0
  3 25  1  0
  3 26  1  0
  4 27  1  0
  4 28  1  0
  5 29  1  0
  5 30  1  0
  6 31  1  0
  7 32  1  0
 11 33  1  0
 11 34  1  0
 17 35  1  0
 20 36  1  0
 20 37  1  0
A    1
C1
A    2
C2
A    3
C3
A    4
C6
A    5
C7
A    6
C10
A    7
C11
A    8
C12
A    9
C14
A   10
C15
A   11
C4
A   12
N5
A   13
O8
A   14
C9
A   15
F13
A   16
N16
A   17
C17
A   18
C18
A   19
O19
A   20
C20
M  END
