5LZJ_7BT_C_202
     RDKit          3D

 59 60  0  0  0  0  0  0  0  0999 V2000
   14.1210    8.2320   20.0430 C   0  0  0  0  0  0  0  0  0  0  0  0
   14.3620    6.9590   19.2910 C   0  0  0  0  0  0  0  0  0  0  0  0
   13.0430    6.4340   18.7930 C   0  0  0  0  0  0  0  0  0  0  0  0
   15.5140    8.7530   20.5610 C   0  0  0  0  0  0  0  0  0  0  0  0
   26.1880    5.6150   21.2990 C   0  0  0  0  0  0  0  0  0  0  0  0
   24.9760    6.3210   21.6610 O   0  0  0  0  0  0  0  0  0  0  0  0
   24.0190    6.4210   20.6600 C   0  0  0  0  0  0  0  0  0  0  0  0
   23.6530    5.3540   19.8180 C   0  0  0  0  0  0  0  0  0  0  0  0
   23.3610    7.6550   20.4920 C   0  0  0  0  0  0  0  0  0  0  0  0
   23.6930    8.6910   21.2950 O   0  0  0  0  0  0  0  0  0  0  0  0
   24.4910    9.6750   20.6200 C   0  0  0  0  0  0  0  0  0  0  0  0
   22.3650    7.8500   19.5280 C   0  0  0  0  0  0  0  0  0  0  0  0
   21.7670    9.0900   19.3490 O   0  0  0  0  0  0  0  0  0  0  0  0
   21.1420    9.8060   20.4170 C   0  0  0  0  0  0  0  0  0  0  0  0
   22.0630    6.7930   18.6760 C   0  0  0  0  0  0  0  0  0  0  0  0
   22.6720    5.5300   18.8280 C   0  0  0  0  0  0  0  0  0  0  0  0
   22.3360    4.4280   18.0230 C   0  0  0  0  0  0  0  0  0  0  0  0
   20.8580    4.0050   17.7250 C   0  0  0  0  0  0  0  0  0  0  0  0
   19.6680    4.9140   18.0730 C   0  0  0  0  0  0  0  0  0  0  0  0
   19.8630    5.8870   18.7610 O   0  0  0  0  0  0  0  0  0  0  0  0
   18.4300    4.5400   17.7830 N   0  0  0  0  0  0  0  0  0  0  0  0
   17.2140    5.3280   18.0470 C   0  0  0  0  0  0  0  0  0  0  0  0
   17.3850    6.5090   19.0740 C   0  0  0  0  0  0  0  0  0  0  0  0
   16.5570    7.6630   18.5120 C   0  0  0  0  0  0  0  0  0  0  0  0
   15.1930    7.2250   18.1860 O   0  0  0  0  0  0  0  0  0  0  0  0
   13.3110    5.0890   18.1870 O   0  0  0  0  0  0  0  0  0  0  0  0
   13.5550    9.2530   19.3040 O   0  0  0  0  0  0  0  0  0  0  0  0
   15.3410    9.9940   21.2020 O   0  0  0  0  0  0  0  0  0  0  0  0
   16.4540    8.9340   19.3650 C   0  0  0  0  0  0  0  0  0  0  0  0
   17.8090    9.2640   19.8890 O   0  0  0  0  0  0  0  0  0  0  0  0
   13.4049    7.9842   20.8404 H   0  0  0  0  0  0  0  0  0  0  0  0
   14.8416    6.2195   19.9491 H   0  0  0  0  0  0  0  0  0  0  0  0
   12.6267    7.1142   18.0353 H   0  0  0  0  0  0  0  0  0  0  0  0
   12.3141    6.3583   19.6133 H   0  0  0  0  0  0  0  0  0  0  0  0
   15.9407    8.0281   21.2698 H   0  0  0  0  0  0  0  0  0  0  0  0
   26.7187    5.3059   22.2116 H   0  0  0  0  0  0  0  0  0  0  0  0
   25.9307    4.7254   20.7053 H   0  0  0  0  0  0  0  0  0  0  0  0
   26.8349    6.2776   20.7053 H   0  0  0  0  0  0  0  0  0  0  0  0
   24.1391    4.3743   19.9362 H   0  0  0  0  0  0  0  0  0  0  0  0
   25.0020   10.3051   21.3629 H   0  0  0  0  0  0  0  0  0  0  0  0
   25.2388    9.1712   19.9899 H   0  0  0  0  0  0  0  0  0  0  0  0
   23.8437   10.3027   19.9899 H   0  0  0  0  0  0  0  0  0  0  0  0
   21.4912    9.4060   21.3804 H   0  0  0  0  0  0  0  0  0  0  0  0
   21.4036   10.8721   20.3462 H   0  0  0  0  0  0  0  0  0  0  0  0
   20.0503    9.6908   20.3462 H   0  0  0  0  0  0  0  0  0  0  0  0
   21.3338    6.9453   17.8666 H   0  0  0  0  0  0  0  0  0  0  0  0
   23.1500    3.8344   17.5813 H   0  0  0  0  0  0  0  0  0  0  0  0
   20.6658    3.0300   17.2534 H   0  0  0  0  0  0  0  0  0  0  0  0
   18.3080    3.6205   17.3351 H   0  0  0  0  0  0  0  0  0  0  0  0
   16.8723    5.7549   17.0926 H   0  0  0  0  0  0  0  0  0  0  0  0
   16.4943    4.6318   18.5024 H   0  0  0  0  0  0  0  0  0  0  0  0
   17.0098    6.2138   20.0650 H   0  0  0  0  0  0  0  0  0  0  0  0
   18.4411    6.7891   19.2011 H   0  0  0  0  0  0  0  0  0  0  0  0
   17.1333    7.9491   17.6198 H   0  0  0  0  0  0  0  0  0  0  0  0
   13.4437    4.4230   18.9074 H   0  0  0  0  0  0  0  0  0  0  0  0
   13.1778    9.9335   19.9161 H   0  0  0  0  0  0  0  0  0  0  0  0
   15.3591    9.8639   22.1833 H   0  0  0  0  0  0  0  0  0  0  0  0
   16.0526    9.7357   18.7277 H   0  0  0  0  0  0  0  0  0  0  0  0
   17.7902    9.2594   20.8788 H   0  0  0  0  0  0  0  0  0  0  0  0
 18 17  2  0
 18 19  1  0
 21 22  1  0
 21 19  1  0
 17 16  1  0
 22 23  1  0
 19 20  2  0
 25 24  1  0
 25  2  1  0
 26  3  1  0
 24 23  1  0
 24 29  1  0
 15 16  2  0
 15 12  1  0
  3  2  1  0
 16  8  1  0
  2  1  1  0
 27  1  1  0
 13 12  1  0
 13 14  1  0
 29 30  1  0
 29  4  1  0
 12  9  2  0
  8  7  2  0
  1  4  1  0
  9  7  1  0
  9 10  1  0
  4 28  1  0
 11 10  1  0
  7  6  1  0
  5  6  1  0
  1 31  1  0
  2 32  1  0
  3 33  1  0
  3 34  1  0
  4 35  1  0
  5 36  1  0
  5 37  1  0
  5 38  1  0
  8 39  1  0
 11 40  1  0
 11 41  1  0
 11 42  1  0
 14 43  1  0
 14 44  1  0
 14 45  1  0
 15 46  1  0
 17 47  1  0
 18 48  1  0
 21 49  1  0
 22 50  1  0
 22 51  1  0
 23 52  1  0
 23 53  1  0
 24 54  1  0
 26 55  1  0
 27 56  1  0
 28 57  1  0
 29 58  1  0
 30 59  1  0
A    1
C4
A    2
C5
A    3
C6
A    4
C3
A    5
CBB
A    6
OAY
A    7
CAU
A    8
CAT
A    9
CAV
A   10
OAZ
A   11
CBC
A   12
CAW
A   13
OBA
A   14
CBD
A   15
CAX
A   16
CAF
A   17
CAE
A   18
CAC
A   19
CAB
A   20
OAD
A   21
NAA
A   22
CAG
A   23
CAS
A   24
C1
A   25
O5
A   26
O6
A   27
O4
A   28
O3
A   29
C2
A   30
O2
M  END
