5M0E_7CR_A_922
     RDKit          3D

 55 58  0  0  0  0  0  0  0  0999 V2000
    9.2910  -50.6960   54.8970 C   0  0  0  0  0  0  0  0  0  0  0  0
    9.8450  -49.6830   55.9060 C   0  0  0  0  0  0  0  0  0  0  0  0
    9.7040  -47.8160   54.2020 C   0  0  0  0  0  0  0  0  0  0  0  0
    9.4930  -46.3040   54.0120 C   0  0  0  0  0  0  0  0  0  0  0  0
   11.1190  -46.2460   55.8740 C   0  0  0  0  0  0  0  0  0  0  0  0
   10.4030  -47.4100   56.5500 C   0  0  0  0  0  0  0  0  0  0  0  0
    8.0620  -42.4630   54.3600 C   0  0  0  0  0  0  0  0  0  0  0  0
    6.3850  -41.1670   52.8990 C   0  0  0  0  0  0  0  0  0  0  0  0
    5.9300  -40.7820   51.6250 C   0  0  0  0  0  0  0  0  0  0  0  0
    6.5750  -41.1750   50.4800 C   0  0  0  0  0  0  0  0  0  0  0  0
    7.6850  -41.9610   50.6140 C   0  0  0  0  0  0  0  0  0  0  0  0
    7.8400  -52.7190   55.3220 C   0  0  0  0  0  0  0  0  0  0  0  0
    6.7340  -52.0110   55.8410 C   0  0  0  0  0  0  0  0  0  0  0  0
    5.4250  -52.4860   55.7400 C   0  0  0  0  0  0  0  0  0  0  0  0
    4.5800  -55.5660   54.2300 C   0  0  0  0  0  0  0  0  0  0  0  0
    6.3530  -54.4810   54.5780 C   0  0  0  0  0  0  0  0  0  0  0  0
    7.6470  -53.9640   54.6920 C   0  0  0  0  0  0  0  0  0  0  0  0
    8.4960  -42.4970   49.1490 Cl  0  0  0  0  0  0  0  0  0  0  0  0
    3.7780  -56.4720   53.8490 O   0  0  0  0  0  0  0  0  0  0  0  0
    4.1480  -54.4680   54.8610 N   0  0  0  0  0  0  0  0  0  0  0  0
    5.9340  -55.6150   54.0360 O   0  0  0  0  0  0  0  0  0  0  0  0
    5.2150  -53.7100   55.1250 C   0  0  0  0  0  0  0  0  0  0  0  0
    9.2240  -52.1550   55.4300 C   0  0  0  0  0  0  0  0  0  0  0  0
    9.6890  -52.2830   56.7800 O   0  0  0  0  0  0  0  0  0  0  0  0
    9.5760  -48.2400   55.6230 N   0  0  0  0  0  0  0  0  0  0  0  0
   10.1040  -45.5290   55.0990 N   0  0  0  0  0  0  0  0  0  0  0  0
    9.7710  -44.2440   55.3540 C   0  0  0  0  0  0  0  0  0  0  0  0
   10.0280  -43.7110   56.4430 O   0  0  0  0  0  0  0  0  0  0  0  0
    9.1290  -43.4570   54.2760 O   0  0  0  0  0  0  0  0  0  0  0  0
    7.5350  -41.9690   53.0130 C   0  0  0  0  0  0  0  0  0  0  0  0
    8.1710  -42.3720   51.8400 C   0  0  0  0  0  0  0  0  0  0  0  0
    4.5010  -39.7770   51.3070 Cl  0  0  0  0  0  0  0  0  0  0  0  0
    9.9360  -50.6835   54.0061 H   0  0  0  0  0  0  0  0  0  0  0  0
    8.2568  -50.3914   54.6787 H   0  0  0  0  0  0  0  0  0  0  0  0
    9.4084  -49.9174   56.8880 H   0  0  0  0  0  0  0  0  0  0  0  0
   10.9385  -49.7897   55.8531 H   0  0  0  0  0  0  0  0  0  0  0  0
    8.9526  -48.3539   53.6053 H   0  0  0  0  0  0  0  0  0  0  0  0
   10.7277  -48.0521   53.8759 H   0  0  0  0  0  0  0  0  0  0  0  0
    9.9465  -45.9981   53.0577 H   0  0  0  0  0  0  0  0  0  0  0  0
    8.4110  -46.1059   54.0161 H   0  0  0  0  0  0  0  0  0  0  0  0
   11.9106  -46.6212   55.2087 H   0  0  0  0  0  0  0  0  0  0  0  0
   11.5943  -45.5862   56.6148 H   0  0  0  0  0  0  0  0  0  0  0  0
    9.7434  -47.0031   57.3306 H   0  0  0  0  0  0  0  0  0  0  0  0
   11.1841  -48.0703   56.9548 H   0  0  0  0  0  0  0  0  0  0  0  0
    8.4466  -41.5950   54.9156 H   0  0  0  0  0  0  0  0  0  0  0  0
    7.2165  -42.9595   54.8587 H   0  0  0  0  0  0  0  0  0  0  0  0
    5.8448  -40.8429   53.8008 H   0  0  0  0  0  0  0  0  0  0  0  0
    6.2114  -40.8681   49.4882 H   0  0  0  0  0  0  0  0  0  0  0  0
    6.9104  -51.0488   56.3439 H   0  0  0  0  0  0  0  0  0  0  0  0
    4.5815  -51.9033   56.1386 H   0  0  0  0  0  0  0  0  0  0  0  0
    8.5059  -54.5240   54.2936 H   0  0  0  0  0  0  0  0  0  0  0  0
    3.1705  -54.2477   55.0996 H   0  0  0  0  0  0  0  0  0  0  0  0
    9.9036  -52.7327   54.7863 H   0  0  0  0  0  0  0  0  0  0  0  0
    8.9486  -52.0792   57.4048 H   0  0  0  0  0  0  0  0  0  0  0  0
    9.0602  -43.0175   51.8906 H   0  0  0  0  0  0  0  0  0  0  0  0
 18 11  1  0
 10 11  2  0
 10  9  1  0
 11 31  1  0
 32  9  1  0
  9  8  2  0
 31 30  2  0
  8 30  1  0
 30  7  1  0
 19 15  2  0
  4  3  1  0
  4 26  1  0
 21 15  1  0
 21 16  1  0
  3 25  1  0
 15 20  1  0
 29  7  1  0
 29 27  1  0
 16 17  2  0
 16 22  1  0
 17 12  1  0
 20 22  1  0
  1 23  1  0
  1  2  1  0
 26 27  1  0
 26  5  1  0
 22 14  2  0
 12 23  1  0
 12 13  2  0
 27 28  2  0
 23 24  1  0
 25  2  1  0
 25  6  1  0
 14 13  1  0
  5  6  1  0
  1 33  1  0
  1 34  1  0
  2 35  1  0
  2 36  1  0
  3 37  1  0
  3 38  1  0
  4 39  1  0
  4 40  1  0
  5 41  1  0
  5 42  1  0
  6 43  1  0
  6 44  1  0
  7 45  1  0
  7 46  1  0
  8 47  1  0
 10 48  1  0
 13 49  1  0
 14 50  1  0
 17 51  1  0
 20 52  1  0
 23 53  1  0
 24 54  1  0
 31 55  1  0
A    1
C1
A    2
C2
A    3
C3
A    4
C4
A    5
C5
A    6
C6
A    7
C8
A    8
C10
A    9
C11
A   10
C12
A   11
C13
A   12
C15
A   13
C16
A   14
C17
A   15
C19
A   16
C20
A   17
C21
A   18
CL1
A   19
O3
A   20
N2
A   21
O4
A   22
C18
A   23
C
A   24
O
A   25
N
A   26
N1
A   27
C7
A   28
O1
A   29
O2
A   30
C9
A   31
C14
A   32
CL
M  END
