5M16_7D2_A_604
     RDKit          3D

 27 28  0  0  0  0  0  0  0  0999 V2000
  -11.7970  -13.4000   16.3110 O   0  0  0  0  0  0  0  0  0  0  0  0
  -11.2850  -13.7940   17.6420 C   0  0  0  0  0  0  0  0  0  0  0  0
  -11.1260  -12.4730   18.4500 C   0  0  0  0  0  0  0  0  0  0  0  0
  -12.3900  -11.6980   18.4150 O   0  0  0  0  0  0  0  0  0  0  0  0
   -9.9700  -11.7020   17.9090 C   0  0  0  0  0  0  0  0  0  0  0  0
   -9.7480  -10.4180   18.5480 O   0  0  0  0  0  0  0  0  0  0  0  0
   -8.6060  -12.5010   18.1550 C   0  0  0  0  0  0  0  0  0  0  0  0
   -8.0300  -12.3350   19.5310 O   0  0  0  0  0  0  0  0  0  0  0  0
   -8.7010  -13.9820   17.8640 C   0  0  0  0  0  0  0  0  0  0  0  0
   -9.3160  -14.8980   18.8520 C   0  0  0  0  0  0  0  0  0  0  0  0
  -10.0100  -14.5960   17.5710 C   0  0  0  0  0  0  0  0  0  0  0  0
  -10.0960  -15.7660   16.5760 C   0  0  0  0  0  0  0  0  0  0  0  0
   -8.9060  -16.5700   16.5460 O   0  0  0  0  0  0  0  0  0  0  0  0
  -12.5767  -12.8000   16.4217 H   0  0  0  0  0  0  0  0  0  0  0  0
  -11.9885  -14.4759   18.1421 H   0  0  0  0  0  0  0  0  0  0  0  0
  -10.9169  -12.6959   19.5067 H   0  0  0  0  0  0  0  0  0  0  0  0
  -12.6900  -11.5140   19.3403 H   0  0  0  0  0  0  0  0  0  0  0  0
  -10.2251  -11.5560   16.8490 H   0  0  0  0  0  0  0  0  0  0  0  0
   -9.7675  -10.5310   19.5313 H   0  0  0  0  0  0  0  0  0  0  0  0
   -7.9283  -12.0303   17.4276 H   0  0  0  0  0  0  0  0  0  0  0  0
   -8.7256  -12.5355   20.2063 H   0  0  0  0  0  0  0  0  0  0  0  0
   -7.7311  -13.9387   17.3469 H   0  0  0  0  0  0  0  0  0  0  0  0
   -9.7108  -14.5022   19.7994 H   0  0  0  0  0  0  0  0  0  0  0  0
   -8.9977  -15.8149   19.3696 H   0  0  0  0  0  0  0  0  0  0  0  0
  -10.2676  -15.3573   15.5693 H   0  0  0  0  0  0  0  0  0  0  0  0
  -10.9215  -16.4148   16.9039 H   0  0  0  0  0  0  0  0  0  0  0  0
   -8.6165  -16.7656   17.4723 H   0  0  0  0  0  0  0  0  0  0  0  0
  1  2  1  0
 13 12  1  0
 12 11  1  0
 11  2  1  0
 11  9  1  0
 11 10  1  0
  2  3  1  0
  9  7  1  0
  9 10  1  0
  5  7  1  0
  5  3  1  0
  5  6  1  0
  7  8  1  0
  4  3  1  0
  1 14  1  0
  2 15  1  0
  3 16  1  0
  4 17  1  0
  5 18  1  0
  6 19  1  0
  7 20  1  0
  8 21  1  0
  9 22  1  0
 10 23  1  0
 10 24  1  0
 12 25  1  0
 12 26  1  0
 13 27  1  0
A    1
OAJ
A    2
CAL
A    3
CAI
A    4
OAA
A    5
CAG
A    6
OAD
A    7
CAM
A    8
OAE
A    9
CAB
A   10
CAH
A   11
CAC
A   12
CAF
A   13
OAK
M  END
