5M53_7GJ_A_301
     RDKit          3D

 55 58  0  0  0  0  0  0  0  0999 V2000
   35.2520   -3.6560   12.1180 C   0  0  0  0  0  0  0  0  0  0  0  0
   34.2710   -4.5290   11.6730 C   0  0  0  0  0  0  0  0  0  0  0  0
   33.1330   -4.7270   12.4570 C   0  0  0  0  0  0  0  0  0  0  0  0
   35.8560   -4.5130   10.1750 C   0  0  0  0  0  0  0  0  0  0  0  0
   33.0280   -4.0580   13.6360 N   0  0  0  0  0  0  0  0  0  0  0  0
   33.8950   -2.4970   15.2700 N   0  0  0  0  0  0  0  0  0  0  0  0
   35.0520   -3.0260   13.3250 N   0  0  0  0  0  0  0  0  0  0  0  0
   30.1720   -7.3500   11.2440 C   0  0  0  0  0  0  0  0  0  0  0  0
   29.1300   -8.5750   10.9450 C   0  0  0  0  0  0  0  0  0  0  0  0
   27.6490   -8.1330   11.2820 C   0  0  0  0  0  0  0  0  0  0  0  0
   27.5390   -7.7880   12.7710 C   0  0  0  0  0  0  0  0  0  0  0  0
   28.6630   -6.7000   13.2570 C   0  0  0  0  0  0  0  0  0  0  0  0
   30.1360   -6.9310   12.7150 C   0  0  0  0  0  0  0  0  0  0  0  0
   30.9100   -5.6410   12.9020 C   0  0  0  0  0  0  0  0  0  0  0  0
   32.1130   -5.6290   12.0030 O   0  0  0  0  0  0  0  0  0  0  0  0
   34.6790   -5.0380   10.4680 N   0  0  0  0  0  0  0  0  0  0  0  0
   36.2140   -3.6730   11.1500 N   0  0  0  0  0  0  0  0  0  0  0  0
   33.9790   -3.2180   14.0390 C   0  0  0  0  0  0  0  0  0  0  0  0
   32.7730   -2.4280   16.1760 C   0  0  0  0  0  0  0  0  0  0  0  0
   31.5780   -3.1400   15.9740 C   0  0  0  0  0  0  0  0  0  0  0  0
   32.9070   -1.6110   17.3060 C   0  0  0  0  0  0  0  0  0  0  0  0
   31.8580   -1.5060   18.2290 C   0  0  0  0  0  0  0  0  0  0  0  0
   30.6620   -2.2050   18.0190 C   0  0  0  0  0  0  0  0  0  0  0  0
   30.5190   -3.0150   16.8890 C   0  0  0  0  0  0  0  0  0  0  0  0
   29.1910   -3.7930   16.7050 C   0  0  0  0  0  0  0  0  0  0  0  0
   28.8520   -4.5400   17.6050 O   0  0  0  0  0  0  0  0  0  0  0  0
   28.3350   -3.6800   15.5320 N   0  0  0  0  0  0  0  0  0  0  0  0
   27.1140   -4.4530   15.4840 C   0  0  0  0  0  0  0  0  0  0  0  0
   28.6580   -2.8070   14.4230 C   0  0  0  0  0  0  0  0  0  0  0  0
   36.4461   -4.7325    9.2730 H   0  0  0  0  0  0  0  0  0  0  0  0
   34.7331   -1.9641   15.5429 H   0  0  0  0  0  0  0  0  0  0  0  0
   31.1910   -7.6773   10.9902 H   0  0  0  0  0  0  0  0  0  0  0  0
   29.8747   -6.4862   10.6313 H   0  0  0  0  0  0  0  0  0  0  0  0
   29.1925   -8.8530    9.8825 H   0  0  0  0  0  0  0  0  0  0  0  0
   29.3986   -9.4345   11.5767 H   0  0  0  0  0  0  0  0  0  0  0  0
   27.3854   -7.2498   10.6816 H   0  0  0  0  0  0  0  0  0  0  0  0
   26.9603   -8.9581   11.0474 H   0  0  0  0  0  0  0  0  0  0  0  0
   26.5397   -7.3695   12.9616 H   0  0  0  0  0  0  0  0  0  0  0  0
   27.7092   -8.7149   13.3384 H   0  0  0  0  0  0  0  0  0  0  0  0
   28.7014   -6.7242   14.3561 H   0  0  0  0  0  0  0  0  0  0  0  0
   28.3414   -5.7350   12.8384 H   0  0  0  0  0  0  0  0  0  0  0  0
   30.5872   -7.7579   13.2831 H   0  0  0  0  0  0  0  0  0  0  0  0
   31.2370   -5.5609   13.9492 H   0  0  0  0  0  0  0  0  0  0  0  0
   30.2607   -4.7902   12.6478 H   0  0  0  0  0  0  0  0  0  0  0  0
   34.1583   -5.7132    9.8902 H   0  0  0  0  0  0  0  0  0  0  0  0
   31.4716   -3.7964   15.0978 H   0  0  0  0  0  0  0  0  0  0  0  0
   33.8390   -1.0499   17.4693 H   0  0  0  0  0  0  0  0  0  0  0  0
   31.9738   -0.8729   19.1211 H   0  0  0  0  0  0  0  0  0  0  0  0
   29.8375   -2.1165   18.7418 H   0  0  0  0  0  0  0  0  0  0  0  0
   26.7753   -4.6674   16.5083 H   0  0  0  0  0  0  0  0  0  0  0  0
   26.3385   -3.8810   14.9536 H   0  0  0  0  0  0  0  0  0  0  0  0
   27.2993   -5.3987   14.9536 H   0  0  0  0  0  0  0  0  0  0  0  0
   29.0154   -1.8409   14.8089 H   0  0  0  0  0  0  0  0  0  0  0  0
   29.4443   -3.2701   13.8088 H   0  0  0  0  0  0  0  0  0  0  0  0
   27.7596   -2.6468   13.8088 H   0  0  0  0  0  0  0  0  0  0  0  0
  4 16  1  0
  4 17  2  0
 16  2  1  0
  9  8  1  0
  9 10  1  0
 17  1  1  0
  8 13  1  0
 10 11  1  0
  2  1  2  0
  2  3  1  0
 15  3  1  0
 15 14  1  0
  1  7  1  0
  3  5  2  0
 13 14  1  0
 13 12  1  0
 11 12  1  0
  7 18  2  0
  5 18  1  0
 18  6  1  0
 29 27  1  0
  6 19  1  0
 28 27  1  0
 27 25  1  0
 20 19  2  0
 20 24  1  0
 19 21  1  0
 25 24  1  0
 25 26  2  0
 24 23  2  0
 21 22  2  0
 23 22  1  0
  4 30  1  0
  6 31  1  0
  8 32  1  0
  8 33  1  0
  9 34  1  0
  9 35  1  0
 10 36  1  0
 10 37  1  0
 11 38  1  0
 11 39  1  0
 12 40  1  0
 12 41  1  0
 13 42  1  0
 14 43  1  0
 14 44  1  0
 16 45  1  0
 20 46  1  0
 21 47  1  0
 22 48  1  0
 23 49  1  0
 28 50  1  0
 28 51  1  0
 28 52  1  0
 29 53  1  0
 29 54  1  0
 29 55  1  0
A    1
C4
A    2
C5
A    3
C6
A    4
C8
A    5
N1
A    6
N2
A    7
N3
A    8
CAL
A    9
CAJ
A   10
CAI
A   11
CAK
A   12
CAM
A   13
CBB
A   14
CAN
A   15
O6
A   16
N7
A   17
N9
A   18
C2
A   19
CAV
A   20
CAH
A   21
CAE
A   22
CAD
A   23
CAF
A   24
CAW
A   25
CAU
A   26
OAC
A   27
NBC
A   28
CAB
A   29
CAA
M  END
