5M55_7GG_A_301
     RDKit          3D

 43 45  0  0  0  0  0  0  0  0999 V2000
   27.8460   11.0320  -22.7330 C   0  0  0  0  0  0  0  0  0  0  0  0
   25.8000    7.7000  -20.3860 C   0  0  0  0  0  0  0  0  0  0  0  0
   26.8650    8.8350  -22.5240 C   0  0  0  0  0  0  0  0  0  0  0  0
   27.1830   10.0570  -21.9550 C   0  0  0  0  0  0  0  0  0  0  0  0
   26.8690   13.5280  -18.9610 C   0  0  0  0  0  0  0  0  0  0  0  0
   26.1180   12.4030  -18.3200 C   0  0  0  0  0  0  0  0  0  0  0  0
   26.9750   11.6410  -17.4730 N   0  0  0  0  0  0  0  0  0  0  0  0
   28.0320   12.3810  -16.8320 C   0  0  0  0  0  0  0  0  0  0  0  0
   27.7160   12.6330  -15.3580 C   0  0  0  0  0  0  0  0  0  0  0  0
   26.4100   10.6300  -16.6550 C   0  0  0  0  0  0  0  0  0  0  0  0
   25.9100    9.3310  -16.9110 C   0  0  0  0  0  0  0  0  0  0  0  0
   25.6870    8.4090  -18.1590 C   0  0  0  0  0  0  0  0  0  0  0  0
   26.0920    8.6100  -19.4740 N   0  0  0  0  0  0  0  0  0  0  0  0
   26.1710    7.7780  -21.8020 N   0  0  0  0  0  0  0  0  0  0  0  0
   28.1740   10.7730  -24.0580 C   0  0  0  0  0  0  0  0  0  0  0  0
   27.8450    9.5480  -24.6310 C   0  0  0  0  0  0  0  0  0  0  0  0
   27.1870    8.5800  -23.8540 C   0  0  0  0  0  0  0  0  0  0  0  0
   25.1190    6.5710  -20.1040 N   0  0  0  0  0  0  0  0  0  0  0  0
   24.6710    6.2940  -18.8440 C   0  0  0  0  0  0  0  0  0  0  0  0
   24.9450    7.2030  -17.8420 C   0  0  0  0  0  0  0  0  0  0  0  0
   24.4080    6.7080  -16.6900 N   0  0  0  0  0  0  0  0  0  0  0  0
   23.8120    5.5260  -16.9770 C   0  0  0  0  0  0  0  0  0  0  0  0
   23.9690    5.2750  -18.2800 N   0  0  0  0  0  0  0  0  0  0  0  0
   28.1045   12.0035  -22.2865 H   0  0  0  0  0  0  0  0  0  0  0  0
   26.9218   10.2663  -20.9072 H   0  0  0  0  0  0  0  0  0  0  0  0
   27.2995   14.1730  -18.1808 H   0  0  0  0  0  0  0  0  0  0  0  0
   27.6767   13.1202  -19.5866 H   0  0  0  0  0  0  0  0  0  0  0  0
   26.1827   14.1176  -19.5866 H   0  0  0  0  0  0  0  0  0  0  0  0
   25.2925   12.8152  -17.7212 H   0  0  0  0  0  0  0  0  0  0  0  0
   25.7262   11.7450  -19.1096 H   0  0  0  0  0  0  0  0  0  0  0  0
   28.9673   11.8067  -16.9052 H   0  0  0  0  0  0  0  0  0  0  0  0
   28.1325   13.3528  -17.3375 H   0  0  0  0  0  0  0  0  0  0  0  0
   28.4222   12.0699  -14.7301 H   0  0  0  0  0  0  0  0  0  0  0  0
   27.8092   13.7075  -15.1415 H   0  0  0  0  0  0  0  0  0  0  0  0
   26.6892   12.3031  -15.1415 H   0  0  0  0  0  0  0  0  0  0  0  0
   26.3468   10.9166  -15.5949 H   0  0  0  0  0  0  0  0  0  0  0  0
   25.5917    8.8337  -15.9829 H   0  0  0  0  0  0  0  0  0  0  0  0
   25.9003    6.9634  -22.3713 H   0  0  0  0  0  0  0  0  0  0  0  0
   28.6942   11.5368  -24.6547 H   0  0  0  0  0  0  0  0  0  0  0  0
   28.0975    9.3400  -25.6812 H   0  0  0  0  0  0  0  0  0  0  0  0
   26.9235    7.6103  -24.3014 H   0  0  0  0  0  0  0  0  0  0  0  0
   24.4486    7.1552  -15.7631 H   0  0  0  0  0  0  0  0  0  0  0  0
   23.2866    4.8806  -16.2577 H   0  0  0  0  0  0  0  0  0  0  0  0
 16 15  1  0
 16 17  2  0
 15  1  2  0
 17  3  1  0
  1  4  1  0
  3  4  2  0
  3 14  1  0
 14  2  1  0
  2 18  2  0
  2 13  1  0
 18 19  1  0
 13 12  2  0
  5  6  1  0
 19 23  1  0
 19 20  2  0
  6  7  1  0
 23 22  2  0
 12 20  1  0
 12 11  1  0
 20 21  1  0
  7  8  1  0
  7 10  1  0
 22 21  1  0
 11 10  2  0
  8  9  1  0
  1 24  1  0
  4 25  1  0
  5 26  1  0
  5 27  1  0
  5 28  1  0
  6 29  1  0
  6 30  1  0
  8 31  1  0
  8 32  1  0
  9 33  1  0
  9 34  1  0
  9 35  1  0
 10 36  1  0
 11 37  1  0
 14 38  1  0
 15 39  1  0
 16 40  1  0
 17 41  1  0
 21 42  1  0
 22 43  1  0
A    1
C14
A    2
C10
A    3
C12
A    4
C13
A    5
C01
A    6
C02
A    7
N03
A    8
C04
A    9
C05
A   10
C06
A   11
C07
A   12
C08
A   13
N09
A   14
N11
A   15
C15
A   16
C16
A   17
C17
A   18
N18
A   19
C19
A   20
C20
A   21
N21
A   22
C22
A   23
N23
M  END
